
     RDKit          3D

 63 62  0  0  0  0  0  0  0  0999 V2000
   44.6223    5.0489   10.7956 C   0  0  0  0  0  0  0  0  0  0  0  0
   43.5034    4.5337   11.1381 N   0  0  0  0  0  0  0  0  0  0  0  0
   45.3354    4.5217    9.7528 N   0  0  0  0  0  0  0  0  0  0  0  0
   45.3524    6.1010   11.2737 N   0  0  0  0  0  0  0  0  0  0  0  0
   44.8871    3.3078    9.0919 C   0  0  0  0  0  0  0  0  0  0  0  0
   45.8706    2.9453    8.0038 C   0  0  0  0  0  0  0  0  0  0  0  0
   42.7362    5.0148   12.2634 C   0  0  0  0  0  0  0  0  0  0  0  0
   44.8594    7.1517   12.1297 C   0  0  0  0  0  0  0  0  0  0  0  0
   46.8114    1.9240    8.1997 C   0  0  0  0  0  0  0  0  0  0  0  0
   45.8778    3.6521    6.7921 C   0  0  0  0  0  0  0  0  0  0  0  0
   47.7297    1.6069    7.1973 C   0  0  0  0  0  0  0  0  0  0  0  0
   46.7969    3.3336    5.7914 C   0  0  0  0  0  0  0  0  0  0  0  0
   47.7211    2.3103    5.9938 C   0  0  0  0  0  0  0  0  0  0  0  0
   45.1123    3.9221    9.6691 S   0  0  0  0  0  0  0  0  0  0  0  0
   43.6787    4.0115    9.5577 O   0  0  0  0  0  0  0  0  0  0  0  0
   45.7982    2.8811   10.3912 O   0  0  0  0  0  0  0  0  0  0  0  0
   45.6129    5.3398   10.2287 O   0  0  0  0  0  0  0  0  0  0  0  0
   45.7361    3.9355    8.1912 O   0  0  0  0  0  0  0  0  0  0  0  0
   44.6967    5.2716   10.6740 C   0  0  0  0  0  0  0  0  0  0  0  0
   43.5469    5.7392   10.3672 N   0  0  0  0  0  0  0  0  0  0  0  0
   45.3607    4.4461    9.8072 N   0  0  0  0  0  0  0  0  0  0  0  0
   45.4980    5.4071   11.7732 N   0  0  0  0  0  0  0  0  0  0  0  0
   44.7254    4.0035    8.5776 C   0  0  0  0  0  0  0  0  0  0  0  0
   45.6716    3.0908    7.8331 C   0  0  0  0  0  0  0  0  0  0  0  0
   42.7788    6.5694   11.2653 C   0  0  0  0  0  0  0  0  0  0  0  0
   45.3804    6.4296   12.7834 C   0  0  0  0  0  0  0  0  0  0  0  0
   45.4965    1.6997    7.8618 C   0  0  0  0  0  0  0  0  0  0  0  0
   46.7621    3.6236    7.1295 C   0  0  0  0  0  0  0  0  0  0  0  0
   46.3857    0.8611    7.1871 C   0  0  0  0  0  0  0  0  0  0  0  0
   47.6498    2.7835    6.4560 C   0  0  0  0  0  0  0  0  0  0  0  0
   47.4603    1.4031    6.4839 C   0  0  0  0  0  0  0  0  0  0  0  0
   46.3292    4.4933    9.9442 H   0  0  0  0  0  0  0  0  0  0  0  0
   45.9410    6.4771   10.5382 H   0  0  0  0  0  0  0  0  0  0  0  0
   43.8944    3.4503    8.6474 H   0  0  0  0  0  0  0  0  0  0  0  0
   44.8086    2.4854    9.8134 H   0  0  0  0  0  0  0  0  0  0  0  0
   43.3109    4.9792   13.1934 H   0  0  0  0  0  0  0  0  0  0  0  0
   41.8705    4.3595   12.4060 H   0  0  0  0  0  0  0  0  0  0  0  0
   42.3447    6.0207   12.0898 H   0  0  0  0  0  0  0  0  0  0  0  0
   44.6251    6.7788   13.1295 H   0  0  0  0  0  0  0  0  0  0  0  0
   45.6354    7.9149   12.2483 H   0  0  0  0  0  0  0  0  0  0  0  0
   43.9819    7.6380   11.6938 H   0  0  0  0  0  0  0  0  0  0  0  0
   46.8328    1.3680    9.1347 H   0  0  0  0  0  0  0  0  0  0  0  0
   45.1650    4.4584    6.6296 H   0  0  0  0  0  0  0  0  0  0  0  0
   48.4526    0.8107    7.3552 H   0  0  0  0  0  0  0  0  0  0  0  0
   46.7922    3.8854    4.8551 H   0  0  0  0  0  0  0  0  0  0  0  0
   48.4363    2.0623    5.2141 H   0  0  0  0  0  0  0  0  0  0  0  0
   44.9552    6.0097    9.9483 H   0  0  0  0  0  0  0  0  0  0  0  0
   46.6510    3.5921    8.2607 H   0  0  0  0  0  0  0  0  0  0  0  0
   45.8187    3.6792   10.2839 H   0  0  0  0  0  0  0  0  0  0  0  0
   46.4680    5.2609   11.5149 H   0  0  0  0  0  0  0  0  0  0  0  0
   44.4737    4.8593    7.9392 H   0  0  0  0  0  0  0  0  0  0  0  0
   43.7913    3.4728    8.7985 H   0  0  0  0  0  0  0  0  0  0  0  0
   41.8004    6.7657   10.8143 H   0  0  0  0  0  0  0  0  0  0  0  0
   42.5879    6.0698   12.2194 H   0  0  0  0  0  0  0  0  0  0  0  0
   43.2519    7.5419   11.4267 H   0  0  0  0  0  0  0  0  0  0  0  0
   45.3994    7.4289   12.3389 H   0  0  0  0  0  0  0  0  0  0  0  0
   46.2295    6.3574   13.4708 H   0  0  0  0  0  0  0  0  0  0  0  0
   44.4754    6.3010   13.3817 H   0  0  0  0  0  0  0  0  0  0  0  0
   44.6645    1.2614    8.4088 H   0  0  0  0  0  0  0  0  0  0  0  0
   46.9221    4.7000    7.1101 H   0  0  0  0  0  0  0  0  0  0  0  0
   46.2400   -0.2158    7.2103 H   0  0  0  0  0  0  0  0  0  0  0  0
   48.4898    3.2067    5.9115 H   0  0  0  0  0  0  0  0  0  0  0  0
   48.1516    0.7492    5.9587 H   0  0  0  0  0  0  0  0  0  0  0  0
  2  1  2  0
  3  1  1  0
  4  1  1  0
  5  3  1  0
  6  5  1  0
  7  2  1  0
  8  4  1  0
  9  6  2  0
 10  6  1  0
 11  9  1  0
 12 10  2  0
 13 12  1  0
 11 13  2  0
 15 14  2  0
 16 14  2  0
 17 14  1  0
 18 14  1  0
 20 19  2  0
 21 19  1  0
 22 19  1  0
 23 21  1  0
 24 23  1  0
 25 20  1  0
 26 22  1  0
 27 24  2  0
 28 24  1  0
 29 27  1  0
 30 28  2  0
 31 30  1  0
 29 31  2  0
  3 32  1  0
  4 33  1  0
  5 34  1  0
  5 35  1  0
  7 36  1  0
  7 37  1  0
  7 38  1  0
  8 39  1  0
  8 40  1  0
  8 41  1  0
  9 42  1  0
 10 43  1  0
 11 44  1  0
 12 45  1  0
 13 46  1  0
 17 47  1  0
 18 48  1  0
 21 49  1  0
 22 50  1  0
 23 51  1  0
 23 52  1  0
 25 53  1  0
 25 54  1  0
 25 55  1  0
 26 56  1  0
 26 57  1  0
 26 58  1  0
 27 59  1  0
 28 60  1  0
 29 61  1  0
 30 62  1  0
 31 63  1  0
M  END
> <Uni-Dock RESULT> 
ENERGY=   -8.436  LOWER_BOUND=    0.000  UPPER_BOUND=    0.000
INTER + INTRA:          -8.436
INTER:                  -8.436
INTRA:                   0.000
UNBOUND:                 0.000

$$$$

     RDKit          3D

 63 62  0  0  0  0  0  0  0  0999 V2000
   47.8722    7.7955   12.5350 C   0  0  0  0  0  0  0  0  0  0  0  0
   47.4491    8.6234   13.4126 N   0  0  0  0  0  0  0  0  0  0  0  0
   47.0622    6.7853   12.0908 N   0  0  0  0  0  0  0  0  0  0  0  0
   49.0608    7.6605   11.8736 N   0  0  0  0  0  0  0  0  0  0  0  0
   45.7536    6.5735   12.6861 C   0  0  0  0  0  0  0  0  0  0  0  0
   45.0956    5.3858   12.0236 C   0  0  0  0  0  0  0  0  0  0  0  0
   48.2781    9.6739   13.9562 C   0  0  0  0  0  0  0  0  0  0  0  0
   50.0833    8.6710   11.7589 C   0  0  0  0  0  0  0  0  0  0  0  0
   45.0617    4.1375   12.6616 C   0  0  0  0  0  0  0  0  0  0  0  0
   44.5388    5.5089   10.7418 C   0  0  0  0  0  0  0  0  0  0  0  0
   44.4689    3.0395   12.0357 C   0  0  0  0  0  0  0  0  0  0  0  0
   43.9469    4.4099   10.1180 C   0  0  0  0  0  0  0  0  0  0  0  0
   43.9108    3.1764   10.7657 C   0  0  0  0  0  0  0  0  0  0  0  0
   46.6013    6.7167   12.5372 S   0  0  0  0  0  0  0  0  0  0  0  0
   46.0293    8.0193   12.7642 O   0  0  0  0  0  0  0  0  0  0  0  0
   46.8658    5.7624   13.5836 O   0  0  0  0  0  0  0  0  0  0  0  0
   47.9582    6.9543   11.7150 O   0  0  0  0  0  0  0  0  0  0  0  0
   45.7072    5.9552   11.4444 O   0  0  0  0  0  0  0  0  0  0  0  0
   47.9232    7.8068   12.2758 C   0  0  0  0  0  0  0  0  0  0  0  0
   47.5047    8.9896   12.0297 N   0  0  0  0  0  0  0  0  0  0  0  0
   47.0738    6.7381   12.1743 N   0  0  0  0  0  0  0  0  0  0  0  0
   49.1350    7.3053   12.6612 N   0  0  0  0  0  0  0  0  0  0  0  0
   45.6630    6.9418   11.8918 C   0  0  0  0  0  0  0  0  0  0  0  0
   44.9668    5.6013   11.8597 C   0  0  0  0  0  0  0  0  0  0  0  0
   48.3418   10.1577   12.1738 C   0  0  0  0  0  0  0  0  0  0  0  0
   50.4007    7.9904   12.5690 C   0  0  0  0  0  0  0  0  0  0  0  0
   44.1960    5.1679   12.9482 C   0  0  0  0  0  0  0  0  0  0  0  0
   45.1117    4.7549   10.7503 C   0  0  0  0  0  0  0  0  0  0  0  0
   43.5709    3.9200   12.9195 C   0  0  0  0  0  0  0  0  0  0  0  0
   44.4862    3.5078   10.7240 C   0  0  0  0  0  0  0  0  0  0  0  0
   43.7150    3.0917   11.8077 C   0  0  0  0  0  0  0  0  0  0  0  0
   47.5639    5.9128   11.9802 H   0  0  0  0  0  0  0  0  0  0  0  0
   48.9125    7.1909   10.9868 H   0  0  0  0  0  0  0  0  0  0  0  0
   45.1180    7.4577   12.5538 H   0  0  0  0  0  0  0  0  0  0  0  0
   45.8476    6.3951   13.7642 H   0  0  0  0  0  0  0  0  0  0  0  0
   49.1865    9.2777   14.4191 H   0  0  0  0  0  0  0  0  0  0  0  0
   47.7226   10.1876   14.7479 H   0  0  0  0  0  0  0  0  0  0  0  0
   48.5255   10.4283   13.2045 H   0  0  0  0  0  0  0  0  0  0  0  0
   50.5677    8.8631   12.7191 H   0  0  0  0  0  0  0  0  0  0  0  0
   50.8621    8.3206   11.0738 H   0  0  0  0  0  0  0  0  0  0  0  0
   49.6769    9.6003   11.3493 H   0  0  0  0  0  0  0  0  0  0  0  0
   45.4958    4.0139   13.6515 H   0  0  0  0  0  0  0  0  0  0  0  0
   44.5707    6.4665   10.2257 H   0  0  0  0  0  0  0  0  0  0  0  0
   44.4425    2.0764   12.5390 H   0  0  0  0  0  0  0  0  0  0  0  0
   43.5158    4.5166    9.1260 H   0  0  0  0  0  0  0  0  0  0  0  0
   43.4492    2.3210   10.2796 H   0  0  0  0  0  0  0  0  0  0  0  0
   47.8489    7.7878   11.2118 H   0  0  0  0  0  0  0  0  0  0  0  0
   45.9212    5.0015   11.5098 H   0  0  0  0  0  0  0  0  0  0  0  0
   47.2085    6.0695   12.9225 H   0  0  0  0  0  0  0  0  0  0  0  0
   49.2214    6.3399   12.3620 H   0  0  0  0  0  0  0  0  0  0  0  0
   45.5274    7.4412   10.9246 H   0  0  0  0  0  0  0  0  0  0  0  0
   45.2073    7.5809   12.6580 H   0  0  0  0  0  0  0  0  0  0  0  0
   47.7346   11.0511   11.9943 H   0  0  0  0  0  0  0  0  0  0  0  0
   48.7410   10.2505   13.1879 H   0  0  0  0  0  0  0  0  0  0  0  0
   49.1502   10.1732   11.4378 H   0  0  0  0  0  0  0  0  0  0  0  0
   50.5896    8.3368   11.5488 H   0  0  0  0  0  0  0  0  0  0  0  0
   51.2060    7.2990   12.8377 H   0  0  0  0  0  0  0  0  0  0  0  0
   50.4555    8.8287   13.2673 H   0  0  0  0  0  0  0  0  0  0  0  0
   44.0767    5.8016   13.8244 H   0  0  0  0  0  0  0  0  0  0  0  0
   45.7194    5.0688    9.9037 H   0  0  0  0  0  0  0  0  0  0  0  0
   42.9713    3.5936   13.7653 H   0  0  0  0  0  0  0  0  0  0  0  0
   44.6025    2.8609    9.8584 H   0  0  0  0  0  0  0  0  0  0  0  0
   43.2275    2.1205   11.7864 H   0  0  0  0  0  0  0  0  0  0  0  0
  2  1  2  0
  3  1  1  0
  4  1  1  0
  5  3  1  0
  6  5  1  0
  7  2  1  0
  8  4  1  0
  9  6  2  0
 10  6  1  0
 11  9  1  0
 12 10  2  0
 13 12  1  0
 11 13  2  0
 15 14  2  0
 16 14  2  0
 17 14  1  0
 18 14  1  0
 20 19  2  0
 21 19  1  0
 22 19  1  0
 23 21  1  0
 24 23  1  0
 25 20  1  0
 26 22  1  0
 27 24  2  0
 28 24  1  0
 29 27  1  0
 30 28  2  0
 31 30  1  0
 29 31  2  0
  3 32  1  0
  4 33  1  0
  5 34  1  0
  5 35  1  0
  7 36  1  0
  7 37  1  0
  7 38  1  0
  8 39  1  0
  8 40  1  0
  8 41  1  0
  9 42  1  0
 10 43  1  0
 11 44  1  0
 12 45  1  0
 13 46  1  0
 17 47  1  0
 18 48  1  0
 21 49  1  0
 22 50  1  0
 23 51  1  0
 23 52  1  0
 25 53  1  0
 25 54  1  0
 25 55  1  0
 26 56  1  0
 26 57  1  0
 26 58  1  0
 27 59  1  0
 28 60  1  0
 29 61  1  0
 30 62  1  0
 31 63  1  0
M  END
> <Uni-Dock RESULT> 
ENERGY=   -6.460  LOWER_BOUND=    3.557  UPPER_BOUND=    5.214
INTER + INTRA:          -6.460
INTER:                  -6.460
INTRA:                   0.000
UNBOUND:                 0.000

$$$$

     RDKit          3D

 63 62  0  0  0  0  0  0  0  0999 V2000
   47.8591    8.2816   13.6663 C   0  0  0  0  0  0  0  0  0  0  0  0
   48.2360    8.9940   12.6737 N   0  0  0  0  0  0  0  0  0  0  0  0
   46.9253    7.2956   13.4942 N   0  0  0  0  0  0  0  0  0  0  0  0
   48.1943    8.2730   14.9915 N   0  0  0  0  0  0  0  0  0  0  0  0
   46.2709    7.1159   12.2093 C   0  0  0  0  0  0  0  0  0  0  0  0
   45.2785    5.9816   12.3144 C   0  0  0  0  0  0  0  0  0  0  0  0
   49.1764   10.0820   12.8082 C   0  0  0  0  0  0  0  0  0  0  0  0
   49.3617    8.8898   15.5716 C   0  0  0  0  0  0  0  0  0  0  0  0
   43.9061    6.2399   12.4415 C   0  0  0  0  0  0  0  0  0  0  0  0
   45.7228    4.6509   12.3212 C   0  0  0  0  0  0  0  0  0  0  0  0
   42.9963    5.1874   12.5573 C   0  0  0  0  0  0  0  0  0  0  0  0
   44.8116    3.6003   12.4373 C   0  0  0  0  0  0  0  0  0  0  0  0
   43.4490    3.8689   12.5536 C   0  0  0  0  0  0  0  0  0  0  0  0
   46.6191    7.4340   12.9433 S   0  0  0  0  0  0  0  0  0  0  0  0
   47.6261    7.6238   11.9308 O   0  0  0  0  0  0  0  0  0  0  0  0
   45.4349    8.2461   13.0602 O   0  0  0  0  0  0  0  0  0  0  0  0
   47.3846    7.4507   14.3531 O   0  0  0  0  0  0  0  0  0  0  0  0
   46.1199    5.9107   12.8808 O   0  0  0  0  0  0  0  0  0  0  0  0
   47.9685    8.0895   13.8113 C   0  0  0  0  0  0  0  0  0  0  0  0
   49.0578    7.9283   13.1618 N   0  0  0  0  0  0  0  0  0  0  0  0
   46.8556    7.3619   13.4858 N   0  0  0  0  0  0  0  0  0  0  0  0
   47.6121    8.9006   14.8524 N   0  0  0  0  0  0  0  0  0  0  0  0
   46.8641    6.4776   12.3327 C   0  0  0  0  0  0  0  0  0  0  0  0
   45.5077    5.8258   12.1998 C   0  0  0  0  0  0  0  0  0  0  0  0
   50.2451    8.7070   13.4265 C   0  0  0  0  0  0  0  0  0  0  0  0
   48.5204    9.5858   15.7386 C   0  0  0  0  0  0  0  0  0  0  0  0
   44.5853    6.2789   11.2454 C   0  0  0  0  0  0  0  0  0  0  0  0
   45.1391    4.7775   13.0561 C   0  0  0  0  0  0  0  0  0  0  0  0
   43.3266    5.6844   11.1407 C   0  0  0  0  0  0  0  0  0  0  0  0
   43.8801    4.1848   12.9498 C   0  0  0  0  0  0  0  0  0  0  0  0
   42.9753    4.6375   11.9913 C   0  0  0  0  0  0  0  0  0  0  0  0
   46.2597    7.2614   14.2564 H   0  0  0  0  0  0  0  0  0  0  0  0
   48.0383    7.3502   15.3824 H   0  0  0  0  0  0  0  0  0  0  0  0
   47.0044    6.8816   11.4281 H   0  0  0  0  0  0  0  0  0  0  0  0
   45.7553    8.0366   11.9099 H   0  0  0  0  0  0  0  0  0  0  0  0
   48.8310   10.8330   13.5244 H   0  0  0  0  0  0  0  0  0  0  0  0
   49.2682   10.5903   11.8425 H   0  0  0  0  0  0  0  0  0  0  0  0
   50.1759    9.7267   13.0733 H   0  0  0  0  0  0  0  0  0  0  0  0
   49.3033    9.9799   15.5291 H   0  0  0  0  0  0  0  0  0  0  0  0
   49.4271    8.6154   16.6295 H   0  0  0  0  0  0  0  0  0  0  0  0
   50.2767    8.5422   15.0832 H   0  0  0  0  0  0  0  0  0  0  0  0
   43.5376    7.2635   12.4491 H   0  0  0  0  0  0  0  0  0  0  0  0
   46.7859    4.4330   12.2397 H   0  0  0  0  0  0  0  0  0  0  0  0
   41.9337    5.3959   12.6505 H   0  0  0  0  0  0  0  0  0  0  0  0
   45.1659    2.5729   12.4387 H   0  0  0  0  0  0  0  0  0  0  0  0
   42.7398    3.0504   12.6435 H   0  0  0  0  0  0  0  0  0  0  0  0
   48.3017    7.1484   14.1874 H   0  0  0  0  0  0  0  0  0  0  0  0
   45.2630    5.8679   13.3537 H   0  0  0  0  0  0  0  0  0  0  0  0
   46.0109    7.9190   13.5185 H   0  0  0  0  0  0  0  0  0  0  0  0
   46.8448    8.4843   15.3689 H   0  0  0  0  0  0  0  0  0  0  0  0
   47.6284    5.6987   12.4447 H   0  0  0  0  0  0  0  0  0  0  0  0
   47.0993    7.0395   11.4206 H   0  0  0  0  0  0  0  0  0  0  0  0
   51.0089    8.4485   12.6856 H   0  0  0  0  0  0  0  0  0  0  0  0
   50.0603    9.7800   13.3226 H   0  0  0  0  0  0  0  0  0  0  0  0
   50.6698    8.4818   14.4085 H   0  0  0  0  0  0  0  0  0  0  0  0
   49.2257    8.8879   16.1991 H   0  0  0  0  0  0  0  0  0  0  0  0
   47.9502   10.0594   16.5444 H   0  0  0  0  0  0  0  0  0  0  0  0
   49.0616   10.3819   15.2220 H   0  0  0  0  0  0  0  0  0  0  0  0
   44.8435    7.0972   10.5765 H   0  0  0  0  0  0  0  0  0  0  0  0
   45.8367    4.4240   13.8130 H   0  0  0  0  0  0  0  0  0  0  0  0
   42.6194    6.0385   10.3950 H   0  0  0  0  0  0  0  0  0  0  0  0
   43.6056    3.3714   13.6163 H   0  0  0  0  0  0  0  0  0  0  0  0
   41.9951    4.1752   11.9085 H   0  0  0  0  0  0  0  0  0  0  0  0
  2  1  2  0
  3  1  1  0
  4  1  1  0
  5  3  1  0
  6  5  1  0
  7  2  1  0
  8  4  1  0
  9  6  2  0
 10  6  1  0
 11  9  1  0
 12 10  2  0
 13 12  1  0
 11 13  2  0
 15 14  2  0
 16 14  2  0
 17 14  1  0
 18 14  1  0
 20 19  2  0
 21 19  1  0
 22 19  1  0
 23 21  1  0
 24 23  1  0
 25 20  1  0
 26 22  1  0
 27 24  2  0
 28 24  1  0
 29 27  1  0
 30 28  2  0
 31 30  1  0
 29 31  2  0
  3 32  1  0
  4 33  1  0
  5 34  1  0
  5 35  1  0
  7 36  1  0
  7 37  1  0
  7 38  1  0
  8 39  1  0
  8 40  1  0
  8 41  1  0
  9 42  1  0
 10 43  1  0
 11 44  1  0
 12 45  1  0
 13 46  1  0
 17 47  1  0
 18 48  1  0
 21 49  1  0
 22 50  1  0
 23 51  1  0
 23 52  1  0
 25 53  1  0
 25 54  1  0
 25 55  1  0
 26 56  1  0
 26 57  1  0
 26 58  1  0
 27 59  1  0
 28 60  1  0
 29 61  1  0
 30 62  1  0
 31 63  1  0
M  END
> <Uni-Dock RESULT> 
ENERGY=   -6.055  LOWER_BOUND=    4.568  UPPER_BOUND=    6.188
INTER + INTRA:          -6.055
INTER:                  -6.055
INTRA:                   0.000
UNBOUND:                 0.000

$$$$

     RDKit          3D

 63 62  0  0  0  0  0  0  0  0999 V2000
   45.2126    5.4861   11.7131 C   0  0  0  0  0  0  0  0  0  0  0  0
   44.4287    5.4548   12.7227 N   0  0  0  0  0  0  0  0  0  0  0  0
   46.3211    6.2892   11.7236 N   0  0  0  0  0  0  0  0  0  0  0  0
   45.2036    4.8512   10.5026 N   0  0  0  0  0  0  0  0  0  0  0  0
   46.5642    7.1959   12.8328 C   0  0  0  0  0  0  0  0  0  0  0  0
   47.8347    7.9699   12.5691 C   0  0  0  0  0  0  0  0  0  0  0  0
   43.2175    4.6682   12.7443 C   0  0  0  0  0  0  0  0  0  0  0  0
   44.4357    3.6766   10.1704 C   0  0  0  0  0  0  0  0  0  0  0  0
   47.7848    9.2962   12.1166 C   0  0  0  0  0  0  0  0  0  0  0  0
   49.0851    7.3575   12.7412 C   0  0  0  0  0  0  0  0  0  0  0  0
   48.9624    9.9994   11.8567 C   0  0  0  0  0  0  0  0  0  0  0  0
   50.2611    8.0622   12.4805 C   0  0  0  0  0  0  0  0  0  0  0  0
   50.1992    9.3830   12.0401 C   0  0  0  0  0  0  0  0  0  0  0  0
   46.2161    6.7323   12.1808 S   0  0  0  0  0  0  0  0  0  0  0  0
   45.8555    6.0273   13.3843 O   0  0  0  0  0  0  0  0  0  0  0  0
   45.5906    7.9562   11.7493 O   0  0  0  0  0  0  0  0  0  0  0  0
   46.1208    5.6669   10.9852 O   0  0  0  0  0  0  0  0  0  0  0  0
   47.7944    7.0174   12.2154 O   0  0  0  0  0  0  0  0  0  0  0  0
   45.3900    5.3204   11.6084 C   0  0  0  0  0  0  0  0  0  0  0  0
   45.3731    4.4025   12.4982 N   0  0  0  0  0  0  0  0  0  0  0  0
   46.2656    6.3674   11.7120 N   0  0  0  0  0  0  0  0  0  0  0  0
   44.6656    5.5305   10.4682 N   0  0  0  0  0  0  0  0  0  0  0  0
   47.1110    6.5082   12.8856 C   0  0  0  0  0  0  0  0  0  0  0  0
   47.9523    7.7548   12.7420 C   0  0  0  0  0  0  0  0  0  0  0  0
   44.4344    3.3053   12.4677 C   0  0  0  0  0  0  0  0  0  0  0  0
   43.8756    4.5428    9.7754 C   0  0  0  0  0  0  0  0  0  0  0  0
   47.6171    8.9289   13.4320 C   0  0  0  0  0  0  0  0  0  0  0  0
   49.0638    7.7640   11.8861 C   0  0  0  0  0  0  0  0  0  0  0  0
   48.3881   10.0828   13.2801 C   0  0  0  0  0  0  0  0  0  0  0  0
   49.8328    8.9186   11.7355 C   0  0  0  0  0  0  0  0  0  0  0  0
   49.4955   10.0767   12.4337 C   0  0  0  0  0  0  0  0  0  0  0  0
   46.4714    6.7459   10.8327 H   0  0  0  0  0  0  0  0  0  0  0  0
   46.1486    4.7824   10.1404 H   0  0  0  0  0  0  0  0  0  0  0  0
   46.6689    6.6414   13.7734 H   0  0  0  0  0  0  0  0  0  0  0  0
   45.7227    7.8893   12.9524 H   0  0  0  0  0  0  0  0  0  0  0  0
   42.5431    4.9358   11.9259 H   0  0  0  0  0  0  0  0  0  0  0  0
   42.6781    4.8767   13.6743 H   0  0  0  0  0  0  0  0  0  0  0  0
   43.4279    3.5953   12.7360 H   0  0  0  0  0  0  0  0  0  0  0  0
   43.3654    3.8929   10.1353 H   0  0  0  0  0  0  0  0  0  0  0  0
   44.7229    3.3274    9.1733 H   0  0  0  0  0  0  0  0  0  0  0  0
   44.6327    2.8630   10.8745 H   0  0  0  0  0  0  0  0  0  0  0  0
   46.8272    9.7900   11.9656 H   0  0  0  0  0  0  0  0  0  0  0  0
   49.1418    6.3236   13.0764 H   0  0  0  0  0  0  0  0  0  0  0  0
   48.9151   11.0287   11.5107 H   0  0  0  0  0  0  0  0  0  0  0  0
   51.2248    7.5795   12.6197 H   0  0  0  0  0  0  0  0  0  0  0  0
   51.1153    9.9316   11.8378 H   0  0  0  0  0  0  0  0  0  0  0  0
   46.2804    4.7817   11.3736 H   0  0  0  0  0  0  0  0  0  0  0  0
   47.9745    7.7250   11.5623 H   0  0  0  0  0  0  0  0  0  0  0  0
   45.8401    7.2493   11.4546 H   0  0  0  0  0  0  0  0  0  0  0  0
   45.2029    6.0902    9.8147 H   0  0  0  0  0  0  0  0  0  0  0  0
   47.7710    5.6392   12.9967 H   0  0  0  0  0  0  0  0  0  0  0  0
   46.4986    6.5735   13.7932 H   0  0  0  0  0  0  0  0  0  0  0  0
   44.5595    2.7087   13.3774 H   0  0  0  0  0  0  0  0  0  0  0  0
   43.3982    3.6553   12.4642 H   0  0  0  0  0  0  0  0  0  0  0  0
   44.6182    2.6349   11.6237 H   0  0  0  0  0  0  0  0  0  0  0  0
   44.4727    3.6599    9.5297 H   0  0  0  0  0  0  0  0  0  0  0  0
   43.5108    4.9674    8.8344 H   0  0  0  0  0  0  0  0  0  0  0  0
   42.9962    4.2530   10.3551 H   0  0  0  0  0  0  0  0  0  0  0  0
   46.7539    8.9503   14.0938 H   0  0  0  0  0  0  0  0  0  0  0  0
   49.3287    6.8663   11.3307 H   0  0  0  0  0  0  0  0  0  0  0  0
   48.1243   10.9872   13.8222 H   0  0  0  0  0  0  0  0  0  0  0  0
   50.6937    8.9142   11.0721 H   0  0  0  0  0  0  0  0  0  0  0  0
   50.0952   10.9757   12.3165 H   0  0  0  0  0  0  0  0  0  0  0  0
  2  1  2  0
  3  1  1  0
  4  1  1  0
  5  3  1  0
  6  5  1  0
  7  2  1  0
  8  4  1  0
  9  6  2  0
 10  6  1  0
 11  9  1  0
 12 10  2  0
 13 12  1  0
 11 13  2  0
 15 14  2  0
 16 14  2  0
 17 14  1  0
 18 14  1  0
 20 19  2  0
 21 19  1  0
 22 19  1  0
 23 21  1  0
 24 23  1  0
 25 20  1  0
 26 22  1  0
 27 24  2  0
 28 24  1  0
 29 27  1  0
 30 28  2  0
 31 30  1  0
 29 31  2  0
  3 32  1  0
  4 33  1  0
  5 34  1  0
  5 35  1  0
  7 36  1  0
  7 37  1  0
  7 38  1  0
  8 39  1  0
  8 40  1  0
  8 41  1  0
  9 42  1  0
 10 43  1  0
 11 44  1  0
 12 45  1  0
 13 46  1  0
 17 47  1  0
 18 48  1  0
 21 49  1  0
 22 50  1  0
 23 51  1  0
 23 52  1  0
 25 53  1  0
 25 54  1  0
 25 55  1  0
 26 56  1  0
 26 57  1  0
 26 58  1  0
 27 59  1  0
 28 60  1  0
 29 61  1  0
 30 62  1  0
 31 63  1  0
M  END
> <Uni-Dock RESULT> 
ENERGY=   -5.901  LOWER_BOUND=    3.157  UPPER_BOUND=    6.180
INTER + INTRA:          -5.901
INTER:                  -5.901
INTRA:                   0.000
UNBOUND:                 0.000

$$$$
