
     RDKit          3D

 63 62  0  0  0  0  0  0  0  0999 V2000
   45.3833    5.5452   12.6191 C   0  0  0  0  0  0  0  0  0  0  0  0
   45.7751    4.3308   12.7227 N   0  0  0  0  0  0  0  0  0  0  0  0
   46.1336    6.5587   13.1454 N   0  0  0  0  0  0  0  0  0  0  0  0
   44.2886    6.1268   12.0414 N   0  0  0  0  0  0  0  0  0  0  0  0
   47.2954    6.3216   13.9807 C   0  0  0  0  0  0  0  0  0  0  0  0
   48.3783    7.3109   13.6055 C   0  0  0  0  0  0  0  0  0  0  0  0
   45.0510    3.2073   12.1801 C   0  0  0  0  0  0  0  0  0  0  0  0
   43.3200    5.4760   11.1909 C   0  0  0  0  0  0  0  0  0  0  0  0
   49.1198    7.1134   12.4241 C   0  0  0  0  0  0  0  0  0  0  0  0
   48.6576    8.4317   14.4047 C   0  0  0  0  0  0  0  0  0  0  0  0
   50.1308    8.0086   12.0592 C   0  0  0  0  0  0  0  0  0  0  0  0
   49.6694    9.3284   14.0367 C   0  0  0  0  0  0  0  0  0  0  0  0
   50.4068    9.1137   12.8671 C   0  0  0  0  0  0  0  0  0  0  0  0
   46.7608    6.8050   12.4572 S   0  0  0  0  0  0  0  0  0  0  0  0
   46.4651    8.0649   13.1003 O   0  0  0  0  0  0  0  0  0  0  0  0
   46.8134    6.6258   11.0235 O   0  0  0  0  0  0  0  0  0  0  0  0
   48.1424    6.2788   13.0883 O   0  0  0  0  0  0  0  0  0  0  0  0
   45.7304    5.7057   13.0086 O   0  0  0  0  0  0  0  0  0  0  0  0
   48.3639    7.1824   13.0042 C   0  0  0  0  0  0  0  0  0  0  0  0
   48.6898    8.1036   12.1792 N   0  0  0  0  0  0  0  0  0  0  0  0
   47.1769    6.5158   12.8655 N   0  0  0  0  0  0  0  0  0  0  0  0
   48.9884    6.6480   14.0984 N   0  0  0  0  0  0  0  0  0  0  0  0
   46.3100    6.7884   11.7317 C   0  0  0  0  0  0  0  0  0  0  0  0
   45.1354    5.8381   11.7601 C   0  0  0  0  0  0  0  0  0  0  0  0
   49.9666    8.7776   12.2356 C   0  0  0  0  0  0  0  0  0  0  0  0
   50.0175    7.3046   14.8692 C   0  0  0  0  0  0  0  0  0  0  0  0
   45.0795    4.7466   10.8838 C   0  0  0  0  0  0  0  0  0  0  0  0
   44.0983    6.0183   12.6886 C   0  0  0  0  0  0  0  0  0  0  0  0
   44.0007    3.8619   10.9214 C   0  0  0  0  0  0  0  0  0  0  0  0
   43.0222    5.1312   12.7273 C   0  0  0  0  0  0  0  0  0  0  0  0
   42.9725    4.0553   11.8405 C   0  0  0  0  0  0  0  0  0  0  0  0
   45.6012    7.3554   13.4483 H   0  0  0  0  0  0  0  0  0  0  0  0
   44.5140    7.0602   11.7017 H   0  0  0  0  0  0  0  0  0  0  0  0
   47.0143    6.4362   15.0389 H   0  0  0  0  0  0  0  0  0  0  0  0
   47.7037    5.3041   13.8743 H   0  0  0  0  0  0  0  0  0  0  0  0
   44.9368    3.2773   11.0910 H   0  0  0  0  0  0  0  0  0  0  0  0
   44.0787    3.0780   12.6641 H   0  0  0  0  0  0  0  0  0  0  0  0
   45.6217    2.2905   12.3743 H   0  0  0  0  0  0  0  0  0  0  0  0
   42.8113    4.6563   11.7081 H   0  0  0  0  0  0  0  0  0  0  0  0
   43.7880    5.1085   10.2692 H   0  0  0  0  0  0  0  0  0  0  0  0
   42.5490    6.1998   10.9058 H   0  0  0  0  0  0  0  0  0  0  0  0
   48.9048    6.2524   11.7869 H   0  0  0  0  0  0  0  0  0  0  0  0
   48.0955    8.6122   15.3222 H   0  0  0  0  0  0  0  0  0  0  0  0
   50.7012    7.8396   11.1464 H   0  0  0  0  0  0  0  0  0  0  0  0
   49.8850   10.1943   14.6630 H   0  0  0  0  0  0  0  0  0  0  0  0
   51.1957    9.8107   12.5847 H   0  0  0  0  0  0  0  0  0  0  0  0
   48.1793    6.5961   14.0159 H   0  0  0  0  0  0  0  0  0  0  0  0
   45.6406    5.0225   12.3140 H   0  0  0  0  0  0  0  0  0  0  0  0
   47.2778    5.5212   13.0204 H   0  0  0  0  0  0  0  0  0  0  0  0
   48.2931    6.2388   14.7164 H   0  0  0  0  0  0  0  0  0  0  0  0
   45.9413    7.8186   11.7679 H   0  0  0  0  0  0  0  0  0  0  0  0
   46.8574    6.6684   10.7913 H   0  0  0  0  0  0  0  0  0  0  0  0
   50.8015    8.0727   12.2578 H   0  0  0  0  0  0  0  0  0  0  0  0
   50.0918    9.3736   11.3265 H   0  0  0  0  0  0  0  0  0  0  0  0
   50.0209    9.4674   13.0804 H   0  0  0  0  0  0  0  0  0  0  0  0
   49.6975    8.3025   15.1818 H   0  0  0  0  0  0  0  0  0  0  0  0
   50.9582    7.3657   14.3174 H   0  0  0  0  0  0  0  0  0  0  0  0
   50.2174    6.7178   15.7729 H   0  0  0  0  0  0  0  0  0  0  0  0
   45.8756    4.5798   10.1639 H   0  0  0  0  0  0  0  0  0  0  0  0
   44.1331    6.8524   13.3871 H   0  0  0  0  0  0  0  0  0  0  0  0
   43.9623    3.0220   10.2326 H   0  0  0  0  0  0  0  0  0  0  0  0
   42.2231    5.2784   13.4497 H   0  0  0  0  0  0  0  0  0  0  0  0
   42.1331    3.3655   11.8691 H   0  0  0  0  0  0  0  0  0  0  0  0
  2  1  2  0
  3  1  1  0
  4  1  1  0
  5  3  1  0
  6  5  1  0
  7  2  1  0
  8  4  1  0
  9  6  2  0
 10  6  1  0
 11  9  1  0
 12 10  2  0
 13 12  1  0
 11 13  2  0
 15 14  2  0
 16 14  2  0
 17 14  1  0
 18 14  1  0
 20 19  2  0
 21 19  1  0
 22 19  1  0
 23 21  1  0
 24 23  1  0
 25 20  1  0
 26 22  1  0
 27 24  2  0
 28 24  1  0
 29 27  1  0
 30 28  2  0
 31 30  1  0
 29 31  2  0
  3 32  1  0
  4 33  1  0
  5 34  1  0
  5 35  1  0
  7 36  1  0
  7 37  1  0
  7 38  1  0
  8 39  1  0
  8 40  1  0
  8 41  1  0
  9 42  1  0
 10 43  1  0
 11 44  1  0
 12 45  1  0
 13 46  1  0
 17 47  1  0
 18 48  1  0
 21 49  1  0
 22 50  1  0
 23 51  1  0
 23 52  1  0
 25 53  1  0
 25 54  1  0
 25 55  1  0
 26 56  1  0
 26 57  1  0
 26 58  1  0
 27 59  1  0
 28 60  1  0
 29 61  1  0
 30 62  1  0
 31 63  1  0
M  END
> <Uni-Dock RESULT> 
ENERGY=   -5.690  LOWER_BOUND=    0.000  UPPER_BOUND=    0.000
INTER + INTRA:          -5.690
INTER:                  -5.690
INTRA:                   0.000
UNBOUND:                 0.000

$$$$

     RDKit          3D

 63 62  0  0  0  0  0  0  0  0999 V2000
   48.0396    7.0396   13.5813 C   0  0  0  0  0  0  0  0  0  0  0  0
   48.1130    6.6587   14.8014 N   0  0  0  0  0  0  0  0  0  0  0  0
   47.2828    6.3388   12.6850 N   0  0  0  0  0  0  0  0  0  0  0  0
   48.5852    8.0904   12.8969 N   0  0  0  0  0  0  0  0  0  0  0  0
   46.6738    5.0614   13.0029 C   0  0  0  0  0  0  0  0  0  0  0  0
   45.2837    5.0192   12.4046 C   0  0  0  0  0  0  0  0  0  0  0  0
   48.8742    7.3521   15.8116 C   0  0  0  0  0  0  0  0  0  0  0  0
   49.2932    9.2114   13.4688 C   0  0  0  0  0  0  0  0  0  0  0  0
   44.2393    5.7330   13.0246 C   0  0  0  0  0  0  0  0  0  0  0  0
   45.0094    4.2904   11.2356 C   0  0  0  0  0  0  0  0  0  0  0  0
   42.9445    5.7040   12.4960 C   0  0  0  0  0  0  0  0  0  0  0  0
   43.7123    4.2640   10.7065 C   0  0  0  0  0  0  0  0  0  0  0  0
   42.6813    4.9673   11.3393 C   0  0  0  0  0  0  0  0  0  0  0  0
   46.3940    6.7041   12.7503 S   0  0  0  0  0  0  0  0  0  0  0  0
   46.5150    6.3794   11.3473 O   0  0  0  0  0  0  0  0  0  0  0  0
   45.8432    7.9460   13.2446 O   0  0  0  0  0  0  0  0  0  0  0  0
   45.6033    5.4854   13.4384 O   0  0  0  0  0  0  0  0  0  0  0  0
   47.8412    6.5550   13.4268 O   0  0  0  0  0  0  0  0  0  0  0  0
   45.1007    5.5509   12.6538 C   0  0  0  0  0  0  0  0  0  0  0  0
   44.2127    6.2353   12.0385 N   0  0  0  0  0  0  0  0  0  0  0  0
   46.2813    6.1293   13.0338 N   0  0  0  0  0  0  0  0  0  0  0  0
   45.1504    4.2481   13.0695 N   0  0  0  0  0  0  0  0  0  0  0  0
   46.5069    7.5482   12.8171 C   0  0  0  0  0  0  0  0  0  0  0  0
   47.8291    7.9444   13.4323 C   0  0  0  0  0  0  0  0  0  0  0  0
   42.9198    5.6921   11.6906 C   0  0  0  0  0  0  0  0  0  0  0  0
   44.3570    3.1724   12.5239 C   0  0  0  0  0  0  0  0  0  0  0  0
   47.8704    8.6474   14.6432 C   0  0  0  0  0  0  0  0  0  0  0  0
   49.0365    7.5843   12.8136 C   0  0  0  0  0  0  0  0  0  0  0  0
   49.0929    8.9997   15.2170 C   0  0  0  0  0  0  0  0  0  0  0  0
   50.2579    7.9342   13.3901 C   0  0  0  0  0  0  0  0  0  0  0  0
   50.2849    8.6454   14.5901 C   0  0  0  0  0  0  0  0  0  0  0  0
   47.6185    6.3771   11.7385 H   0  0  0  0  0  0  0  0  0  0  0  0
   47.9701    8.3858   12.1406 H   0  0  0  0  0  0  0  0  0  0  0  0
   47.2961    4.2488   12.5974 H   0  0  0  0  0  0  0  0  0  0  0  0
   46.5904    4.8801   14.0862 H   0  0  0  0  0  0  0  0  0  0  0  0
   48.5263    8.3828   15.9554 H   0  0  0  0  0  0  0  0  0  0  0  0
   49.9469    7.3314   15.5982 H   0  0  0  0  0  0  0  0  0  0  0  0
   48.7365    6.8408   16.7726 H   0  0  0  0  0  0  0  0  0  0  0  0
   50.1884    8.8922   14.0117 H   0  0  0  0  0  0  0  0  0  0  0  0
   48.6398    9.7960   14.1283 H   0  0  0  0  0  0  0  0  0  0  0  0
   49.6286    9.8730   12.6628 H   0  0  0  0  0  0  0  0  0  0  0  0
   44.4413    6.3139   13.9276 H   0  0  0  0  0  0  0  0  0  0  0  0
   45.8003    3.7328   10.7318 H   0  0  0  0  0  0  0  0  0  0  0  0
   42.1448    6.2549   12.9900 H   0  0  0  0  0  0  0  0  0  0  0  0
   43.5040    3.6932    9.8015 H   0  0  0  0  0  0  0  0  0  0  0  0
   41.6724    4.9425   10.9279 H   0  0  0  0  0  0  0  0  0  0  0  0
   45.8362    4.6703   12.9448 H   0  0  0  0  0  0  0  0  0  0  0  0
   47.8576    7.1497   14.2035 H   0  0  0  0  0  0  0  0  0  0  0  0
   46.5597    5.8508   13.9656 H   0  0  0  0  0  0  0  0  0  0  0  0
   46.1209    3.9597   13.1576 H   0  0  0  0  0  0  0  0  0  0  0  0
   46.5246    7.7762   11.7464 H   0  0  0  0  0  0  0  0  0  0  0  0
   45.7013    8.1387   13.2652 H   0  0  0  0  0  0  0  0  0  0  0  0
   42.4204    5.2396   12.5511 H   0  0  0  0  0  0  0  0  0  0  0  0
   42.2729    6.5079   11.3540 H   0  0  0  0  0  0  0  0  0  0  0  0
   42.9909    4.9792   10.8665 H   0  0  0  0  0  0  0  0  0  0  0  0
   44.4503    3.1287   11.4352 H   0  0  0  0  0  0  0  0  0  0  0  0
   43.3063    3.2609   12.8092 H   0  0  0  0  0  0  0  0  0  0  0  0
   44.7167    2.2204   12.9301 H   0  0  0  0  0  0  0  0  0  0  0  0
   46.9494    8.9275   15.1466 H   0  0  0  0  0  0  0  0  0  0  0  0
   49.0231    7.0247   11.8801 H   0  0  0  0  0  0  0  0  0  0  0  0
   49.1150    9.5515   16.1531 H   0  0  0  0  0  0  0  0  0  0  0  0
   51.1883    7.6513   12.9041 H   0  0  0  0  0  0  0  0  0  0  0  0
   51.2363    8.9200   15.0380 H   0  0  0  0  0  0  0  0  0  0  0  0
  2  1  2  0
  3  1  1  0
  4  1  1  0
  5  3  1  0
  6  5  1  0
  7  2  1  0
  8  4  1  0
  9  6  2  0
 10  6  1  0
 11  9  1  0
 12 10  2  0
 13 12  1  0
 11 13  2  0
 15 14  2  0
 16 14  2  0
 17 14  1  0
 18 14  1  0
 20 19  2  0
 21 19  1  0
 22 19  1  0
 23 21  1  0
 24 23  1  0
 25 20  1  0
 26 22  1  0
 27 24  2  0
 28 24  1  0
 29 27  1  0
 30 28  2  0
 31 30  1  0
 29 31  2  0
  3 32  1  0
  4 33  1  0
  5 34  1  0
  5 35  1  0
  7 36  1  0
  7 37  1  0
  7 38  1  0
  8 39  1  0
  8 40  1  0
  8 41  1  0
  9 42  1  0
 10 43  1  0
 11 44  1  0
 12 45  1  0
 13 46  1  0
 17 47  1  0
 18 48  1  0
 21 49  1  0
 22 50  1  0
 23 51  1  0
 23 52  1  0
 25 53  1  0
 25 54  1  0
 25 55  1  0
 26 56  1  0
 26 57  1  0
 26 58  1  0
 27 59  1  0
 28 60  1  0
 29 61  1  0
 30 62  1  0
 31 63  1  0
M  END
> <Uni-Dock RESULT> 
ENERGY=   -5.588  LOWER_BOUND=    0.827  UPPER_BOUND=    5.501
INTER + INTRA:          -5.588
INTER:                  -5.588
INTRA:                   0.000
UNBOUND:                 0.000

$$$$

     RDKit          3D

 63 62  0  0  0  0  0  0  0  0999 V2000
   45.5460    5.9000   12.1786 C   0  0  0  0  0  0  0  0  0  0  0  0
   45.6336    5.6395   10.9282 N   0  0  0  0  0  0  0  0  0  0  0  0
   46.5720    6.5301   12.8247 N   0  0  0  0  0  0  0  0  0  0  0  0
   44.5689    5.6843   13.1109 N   0  0  0  0  0  0  0  0  0  0  0  0
   47.8563    6.7803   12.1990 C   0  0  0  0  0  0  0  0  0  0  0  0
   48.3345    8.1604   12.5976 C   0  0  0  0  0  0  0  0  0  0  0  0
   44.5895    4.9943   10.1702 C   0  0  0  0  0  0  0  0  0  0  0  0
   43.2228    5.2298   12.8532 C   0  0  0  0  0  0  0  0  0  0  0  0
   47.7584    9.2956   11.9945 C   0  0  0  0  0  0  0  0  0  0  0  0
   49.3368    8.3389   13.5654 C   0  0  0  0  0  0  0  0  0  0  0  0
   48.1879   10.5813   12.3398 C   0  0  0  0  0  0  0  0  0  0  0  0
   49.7646    9.6275   13.9113 C   0  0  0  0  0  0  0  0  0  0  0  0
   49.1925   10.7462   13.2955 C   0  0  0  0  0  0  0  0  0  0  0  0
   46.4098    7.4733   12.7166 S   0  0  0  0  0  0  0  0  0  0  0  0
   46.9885    7.3873   14.0380 O   0  0  0  0  0  0  0  0  0  0  0  0
   45.2471    8.2710   12.3973 O   0  0  0  0  0  0  0  0  0  0  0  0
   47.6006    7.8844   11.7182 O   0  0  0  0  0  0  0  0  0  0  0  0
   46.0841    5.9850   12.2134 O   0  0  0  0  0  0  0  0  0  0  0  0
   47.8170    8.4479   12.4310 C   0  0  0  0  0  0  0  0  0  0  0  0
   47.4952    9.5222   13.0456 N   0  0  0  0  0  0  0  0  0  0  0  0
   46.9218    7.4189   12.3187 N   0  0  0  0  0  0  0  0  0  0  0  0
   48.9572    8.0477   11.7889 N   0  0  0  0  0  0  0  0  0  0  0  0
   45.5673    7.5659   12.8236 C   0  0  0  0  0  0  0  0  0  0  0  0
   44.7640    6.3369   12.4661 C   0  0  0  0  0  0  0  0  0  0  0  0
   48.3753   10.6658   13.1190 C   0  0  0  0  0  0  0  0  0  0  0  0
   50.2738    8.5937   12.0186 C   0  0  0  0  0  0  0  0  0  0  0  0
   43.8296    6.3739   11.4231 C   0  0  0  0  0  0  0  0  0  0  0  0
   44.9669    5.1307   13.1547 C   0  0  0  0  0  0  0  0  0  0  0  0
   43.0991    5.2337   11.0851 C   0  0  0  0  0  0  0  0  0  0  0  0
   44.2383    3.9908   12.8134 C   0  0  0  0  0  0  0  0  0  0  0  0
   43.3017    4.0445   11.7808 C   0  0  0  0  0  0  0  0  0  0  0  0
   46.6606    6.2897   13.7965 H   0  0  0  0  0  0  0  0  0  0  0  0
   44.5859    6.4106   13.8248 H   0  0  0  0  0  0  0  0  0  0  0  0
   48.5757    6.0118   12.5211 H   0  0  0  0  0  0  0  0  0  0  0  0
   47.8181    6.7311   11.0993 H   0  0  0  0  0  0  0  0  0  0  0  0
   43.6565    5.5718   10.1786 H   0  0  0  0  0  0  0  0  0  0  0  0
   44.4140    3.9696   10.5103 H   0  0  0  0  0  0  0  0  0  0  0  0
   44.9033    4.9263    9.1210 H   0  0  0  0  0  0  0  0  0  0  0  0
   43.2110    4.2438   12.3782 H   0  0  0  0  0  0  0  0  0  0  0  0
   42.6735    5.9525   12.2370 H   0  0  0  0  0  0  0  0  0  0  0  0
   42.6889    5.1314   13.8045 H   0  0  0  0  0  0  0  0  0  0  0  0
   46.9693    9.1717   11.2491 H   0  0  0  0  0  0  0  0  0  0  0  0
   49.7967    7.4777   14.0523 H   0  0  0  0  0  0  0  0  0  0  0  0
   47.7384   11.4502   11.8600 H   0  0  0  0  0  0  0  0  0  0  0  0
   50.5459    9.7602   14.6598 H   0  0  0  0  0  0  0  0  0  0  0  0
   49.5293   11.7475   13.5637 H   0  0  0  0  0  0  0  0  0  0  0  0
   48.4283    7.4984   12.0763 H   0  0  0  0  0  0  0  0  0  0  0  0
   45.3503    6.0538   11.5699 H   0  0  0  0  0  0  0  0  0  0  0  0
   46.9271    7.0082   11.3943 H   0  0  0  0  0  0  0  0  0  0  0  0
   48.9955    7.0323   11.7722 H   0  0  0  0  0  0  0  0  0  0  0  0
   45.5732    7.6890   13.9115 H   0  0  0  0  0  0  0  0  0  0  0  0
   45.0912    8.4537   12.3952 H   0  0  0  0  0  0  0  0  0  0  0  0
   48.7355   10.9696   12.1328 H   0  0  0  0  0  0  0  0  0  0  0  0
   47.8154   11.5173   13.5173 H   0  0  0  0  0  0  0  0  0  0  0  0
   49.2120   10.4873   13.7976 H   0  0  0  0  0  0  0  0  0  0  0  0
   50.5249    8.5786   13.0829 H   0  0  0  0  0  0  0  0  0  0  0  0
   50.3647    9.6082   11.6240 H   0  0  0  0  0  0  0  0  0  0  0  0
   51.0129    7.9807   11.4906 H   0  0  0  0  0  0  0  0  0  0  0  0
   43.6629    7.2927   10.8683 H   0  0  0  0  0  0  0  0  0  0  0  0
   45.6999    5.0800   13.9578 H   0  0  0  0  0  0  0  0  0  0  0  0
   42.3709    5.2739   10.2791 H   0  0  0  0  0  0  0  0  0  0  0  0
   44.4019    3.0607   13.3521 H   0  0  0  0  0  0  0  0  0  0  0  0
   42.7324    3.1572   11.5165 H   0  0  0  0  0  0  0  0  0  0  0  0
  2  1  2  0
  3  1  1  0
  4  1  1  0
  5  3  1  0
  6  5  1  0
  7  2  1  0
  8  4  1  0
  9  6  2  0
 10  6  1  0
 11  9  1  0
 12 10  2  0
 13 12  1  0
 11 13  2  0
 15 14  2  0
 16 14  2  0
 17 14  1  0
 18 14  1  0
 20 19  2  0
 21 19  1  0
 22 19  1  0
 23 21  1  0
 24 23  1  0
 25 20  1  0
 26 22  1  0
 27 24  2  0
 28 24  1  0
 29 27  1  0
 30 28  2  0
 31 30  1  0
 29 31  2  0
  3 32  1  0
  4 33  1  0
  5 34  1  0
  5 35  1  0
  7 36  1  0
  7 37  1  0
  7 38  1  0
  8 39  1  0
  8 40  1  0
  8 41  1  0
  9 42  1  0
 10 43  1  0
 11 44  1  0
 12 45  1  0
 13 46  1  0
 17 47  1  0
 18 48  1  0
 21 49  1  0
 22 50  1  0
 23 51  1  0
 23 52  1  0
 25 53  1  0
 25 54  1  0
 25 55  1  0
 26 56  1  0
 26 57  1  0
 26 58  1  0
 27 59  1  0
 28 60  1  0
 29 61  1  0
 30 62  1  0
 31 63  1  0
M  END
> <Uni-Dock RESULT> 
ENERGY=   -5.388  LOWER_BOUND=    1.280  UPPER_BOUND=    1.860
INTER + INTRA:          -5.388
INTER:                  -5.388
INTRA:                   0.000
UNBOUND:                 0.000

$$$$

     RDKit          3D

 63 62  0  0  0  0  0  0  0  0999 V2000
   45.0442    5.8942   11.8933 C   0  0  0  0  0  0  0  0  0  0  0  0
   43.9102    6.2628   12.3593 N   0  0  0  0  0  0  0  0  0  0  0  0
   46.0431    6.8080   11.7079 N   0  0  0  0  0  0  0  0  0  0  0  0
   45.5455    4.6815   11.5078 N   0  0  0  0  0  0  0  0  0  0  0  0
   45.8365    8.2359   11.8559 C   0  0  0  0  0  0  0  0  0  0  0  0
   47.0382    8.8346   12.5557 C   0  0  0  0  0  0  0  0  0  0  0  0
   42.8121    5.3590   12.6005 C   0  0  0  0  0  0  0  0  0  0  0  0
   44.9257    3.3933   11.7112 C   0  0  0  0  0  0  0  0  0  0  0  0
   47.1919    8.6579   13.9447 C   0  0  0  0  0  0  0  0  0  0  0  0
   48.0139    9.5576   11.8497 C   0  0  0  0  0  0  0  0  0  0  0  0
   48.2892    9.2075   14.6160 C   0  0  0  0  0  0  0  0  0  0  0  0
   49.1133   10.1059   12.5234 C   0  0  0  0  0  0  0  0  0  0  0  0
   49.2474    9.9334   13.9055 C   0  0  0  0  0  0  0  0  0  0  0  0
   46.5134    6.8559   12.5470 S   0  0  0  0  0  0  0  0  0  0  0  0
   47.5629    7.0354   11.5698 O   0  0  0  0  0  0  0  0  0  0  0  0
   46.6244    5.9867   13.6970 O   0  0  0  0  0  0  0  0  0  0  0  0
   46.1010    8.3241   13.0550 O   0  0  0  0  0  0  0  0  0  0  0  0
   45.1796    6.4096   11.7751 O   0  0  0  0  0  0  0  0  0  0  0  0
   47.0273    8.4419   13.0288 C   0  0  0  0  0  0  0  0  0  0  0  0
   48.1299    8.1700   13.6169 N   0  0  0  0  0  0  0  0  0  0  0  0
   46.2205    7.4366   12.5692 N   0  0  0  0  0  0  0  0  0  0  0  0
   46.3979    9.6189   12.7270 N   0  0  0  0  0  0  0  0  0  0  0  0
   46.5657    6.0471   12.8170 C   0  0  0  0  0  0  0  0  0  0  0  0
   45.4540    5.1574   12.3108 C   0  0  0  0  0  0  0  0  0  0  0  0
   48.9739    9.1924   14.1914 C   0  0  0  0  0  0  0  0  0  0  0  0
   47.0481   10.9034   12.6189 C   0  0  0  0  0  0  0  0  0  0  0  0
   44.5570    4.5581   13.2044 C   0  0  0  0  0  0  0  0  0  0  0  0
   45.2856    4.9452   10.9335 C   0  0  0  0  0  0  0  0  0  0  0  0
   43.5222    3.7484   12.7337 C   0  0  0  0  0  0  0  0  0  0  0  0
   44.2487    4.1383   10.4643 C   0  0  0  0  0  0  0  0  0  0  0  0
   43.3697    3.5372   11.3657 C   0  0  0  0  0  0  0  0  0  0  0  0
   46.6720    6.5888   10.9553 H   0  0  0  0  0  0  0  0  0  0  0  0
   46.5505    4.6401   11.6679 H   0  0  0  0  0  0  0  0  0  0  0  0
   45.6991    8.6903   10.8626 H   0  0  0  0  0  0  0  0  0  0  0  0
   44.9362    8.4840   12.4401 H   0  0  0  0  0  0  0  0  0  0  0  0
   43.0716    4.5795   13.3279 H   0  0  0  0  0  0  0  0  0  0  0  0
   42.4397    4.9148   11.6729 H   0  0  0  0  0  0  0  0  0  0  0  0
   41.9771    5.9233   13.0345 H   0  0  0  0  0  0  0  0  0  0  0  0
   43.9518    3.3285   11.2159 H   0  0  0  0  0  0  0  0  0  0  0  0
   44.8214    3.1701   12.7803 H   0  0  0  0  0  0  0  0  0  0  0  0
   45.5595    2.6165   11.2703 H   0  0  0  0  0  0  0  0  0  0  0  0
   46.4468    8.0873   14.5042 H   0  0  0  0  0  0  0  0  0  0  0  0
   47.9230    9.7055   10.7726 H   0  0  0  0  0  0  0  0  0  0  0  0
   48.3915    9.0690   15.6919 H   0  0  0  0  0  0  0  0  0  0  0  0
   49.8653   10.6699   11.9714 H   0  0  0  0  0  0  0  0  0  0  0  0
   50.1016   10.3638   14.4280 H   0  0  0  0  0  0  0  0  0  0  0  0
   46.2355    8.9413   12.3044 H   0  0  0  0  0  0  0  0  0  0  0  0
   44.6376    5.8994   12.4100 H   0  0  0  0  0  0  0  0  0  0  0  0
   45.2436    7.6129   12.7633 H   0  0  0  0  0  0  0  0  0  0  0  0
   45.7725    9.4738   11.9392 H   0  0  0  0  0  0  0  0  0  0  0  0
   47.4981    5.7850   12.3065 H   0  0  0  0  0  0  0  0  0  0  0  0
   46.7173    5.8732   13.8872 H   0  0  0  0  0  0  0  0  0  0  0  0
   48.4191    9.8518   14.8637 H   0  0  0  0  0  0  0  0  0  0  0  0
   49.7459    8.7122   14.8001 H   0  0  0  0  0  0  0  0  0  0  0  0
   49.4877    9.7706   13.4206 H   0  0  0  0  0  0  0  0  0  0  0  0
   47.9037   10.8544   11.9395 H   0  0  0  0  0  0  0  0  0  0  0  0
   47.3625   11.2801   13.5948 H   0  0  0  0  0  0  0  0  0  0  0  0
   46.3374   11.6314   12.2118 H   0  0  0  0  0  0  0  0  0  0  0  0
   44.6602    4.7165   14.2740 H   0  0  0  0  0  0  0  0  0  0  0  0
   45.9643    5.4154   10.2242 H   0  0  0  0  0  0  0  0  0  0  0  0
   42.8354    3.2817   13.4350 H   0  0  0  0  0  0  0  0  0  0  0  0
   44.1256    3.9793    9.3959 H   0  0  0  0  0  0  0  0  0  0  0  0
   42.5633    2.9066   11.0004 H   0  0  0  0  0  0  0  0  0  0  0  0
  2  1  2  0
  3  1  1  0
  4  1  1  0
  5  3  1  0
  6  5  1  0
  7  2  1  0
  8  4  1  0
  9  6  2  0
 10  6  1  0
 11  9  1  0
 12 10  2  0
 13 12  1  0
 11 13  2  0
 15 14  2  0
 16 14  2  0
 17 14  1  0
 18 14  1  0
 20 19  2  0
 21 19  1  0
 22 19  1  0
 23 21  1  0
 24 23  1  0
 25 20  1  0
 26 22  1  0
 27 24  2  0
 28 24  1  0
 29 27  1  0
 30 28  2  0
 31 30  1  0
 29 31  2  0
  3 32  1  0
  4 33  1  0
  5 34  1  0
  5 35  1  0
  7 36  1  0
  7 37  1  0
  7 38  1  0
  8 39  1  0
  8 40  1  0
  8 41  1  0
  9 42  1  0
 10 43  1  0
 11 44  1  0
 12 45  1  0
 13 46  1  0
 17 47  1  0
 18 48  1  0
 21 49  1  0
 22 50  1  0
 23 51  1  0
 23 52  1  0
 25 53  1  0
 25 54  1  0
 25 55  1  0
 26 56  1  0
 26 57  1  0
 26 58  1  0
 27 59  1  0
 28 60  1  0
 29 61  1  0
 30 62  1  0
 31 63  1  0
M  END
> <Uni-Dock RESULT> 
ENERGY=   -5.035  LOWER_BOUND=    1.393  UPPER_BOUND=    2.453
INTER + INTRA:          -5.035
INTER:                  -5.035
INTRA:                   0.000
UNBOUND:                 0.000

$$$$

     RDKit          3D

 63 62  0  0  0  0  0  0  0  0999 V2000
   48.5721    5.6673   17.7620 C   0  0  0  0  0  0  0  0  0  0  0  0
   47.9237    5.6642   16.6580 N   0  0  0  0  0  0  0  0  0  0  0  0
   48.9612    6.8479   18.3294 N   0  0  0  0  0  0  0  0  0  0  0  0
   49.0019    4.6714   18.5949 N   0  0  0  0  0  0  0  0  0  0  0  0
   48.8243    8.1245   17.6546 C   0  0  0  0  0  0  0  0  0  0  0  0
   48.3689    9.1625   18.6583 C   0  0  0  0  0  0  0  0  0  0  0  0
   47.4624    4.4639   16.0044 C   0  0  0  0  0  0  0  0  0  0  0  0
   48.6505    3.2733   18.5129 C   0  0  0  0  0  0  0  0  0  0  0  0
   47.0244    9.1787   19.0784 C   0  0  0  0  0  0  0  0  0  0  0  0
   49.2597   10.1087   19.1913 C   0  0  0  0  0  0  0  0  0  0  0  0
   46.5769   10.1323   19.9989 C   0  0  0  0  0  0  0  0  0  0  0  0
   48.8102   11.0619   20.1145 C   0  0  0  0  0  0  0  0  0  0  0  0
   47.4692   11.0748   20.5140 C   0  0  0  0  0  0  0  0  0  0  0  0
   48.2211    7.1323   18.8762 S   0  0  0  0  0  0  0  0  0  0  0  0
   49.3746    7.5711   19.6280 O   0  0  0  0  0  0  0  0  0  0  0  0
   47.0822    6.4648   19.4657 O   0  0  0  0  0  0  0  0  0  0  0  0
   47.6948    8.4089   18.0533 O   0  0  0  0  0  0  0  0  0  0  0  0
   48.7288    6.1845   17.6853 O   0  0  0  0  0  0  0  0  0  0  0  0
   47.8891    8.8356   18.8613 C   0  0  0  0  0  0  0  0  0  0  0  0
   47.4982    9.0158   20.0655 N   0  0  0  0  0  0  0  0  0  0  0  0
   48.1656    7.5760   18.4034 N   0  0  0  0  0  0  0  0  0  0  0  0
   48.1114    9.6905   17.8161 N   0  0  0  0  0  0  0  0  0  0  0  0
   47.9391    6.4196   19.2536 C   0  0  0  0  0  0  0  0  0  0  0  0
   48.2110    5.1587   18.4663 C   0  0  0  0  0  0  0  0  0  0  0  0
   47.1158   10.3148   20.5695 C   0  0  0  0  0  0  0  0  0  0  0  0
   48.3742   11.1044   17.9424 C   0  0  0  0  0  0  0  0  0  0  0  0
   47.1534    4.3725   17.9910 C   0  0  0  0  0  0  0  0  0  0  0  0
   49.5288    4.7751   18.1726 C   0  0  0  0  0  0  0  0  0  0  0  0
   47.4065    3.2161   17.2517 C   0  0  0  0  0  0  0  0  0  0  0  0
   49.7801    3.6207   17.4306 C   0  0  0  0  0  0  0  0  0  0  0  0
   48.7181    2.8397   16.9738 C   0  0  0  0  0  0  0  0  0  0  0  0
   49.8063    6.7901   18.8701 H   0  0  0  0  0  0  0  0  0  0  0  0
   49.0219    4.9937   19.5610 H   0  0  0  0  0  0  0  0  0  0  0  0
   49.7912    8.4097   17.2124 H   0  0  0  0  0  0  0  0  0  0  0  0
   48.0974    8.1002   16.8273 H   0  0  0  0  0  0  0  0  0  0  0  0
   46.7683    3.8923   16.6334 H   0  0  0  0  0  0  0  0  0  0  0  0
   48.2944    3.8348   15.6749 H   0  0  0  0  0  0  0  0  0  0  0  0
   46.9050    4.7436   15.1016 H   0  0  0  0  0  0  0  0  0  0  0  0
   48.9623    2.8313   17.5612 H   0  0  0  0  0  0  0  0  0  0  0  0
   47.5734    3.1276   18.6620 H   0  0  0  0  0  0  0  0  0  0  0  0
   49.1723    2.7250   19.3046 H   0  0  0  0  0  0  0  0  0  0  0  0
   46.3234    8.4409   18.6811 H   0  0  0  0  0  0  0  0  0  0  0  0
   50.3076   10.1158   18.8877 H   0  0  0  0  0  0  0  0  0  0  0  0
   45.5325   10.1377   20.3095 H   0  0  0  0  0  0  0  0  0  0  0  0
   49.5048   11.7968   20.5217 H   0  0  0  0  0  0  0  0  0  0  0  0
   47.1210   11.8194   21.2297 H   0  0  0  0  0  0  0  0  0  0  0  0
   48.4766    8.9624   17.8415 H   0  0  0  0  0  0  0  0  0  0  0  0
   47.9917    5.5799   17.4655 H   0  0  0  0  0  0  0  0  0  0  0  0
   47.8065    7.4222   17.4703 H   0  0  0  0  0  0  0  0  0  0  0  0
   48.7703    9.2666   17.1688 H   0  0  0  0  0  0  0  0  0  0  0  0
   48.5988    6.4488   20.1269 H   0  0  0  0  0  0  0  0  0  0  0  0
   46.9080    6.4084   19.6213 H   0  0  0  0  0  0  0  0  0  0  0  0
   46.3769   10.8019   19.9282 H   0  0  0  0  0  0  0  0  0  0  0  0
   46.6392   10.1884   21.5462 H   0  0  0  0  0  0  0  0  0  0  0  0
   47.9838   10.9606   20.7181 H   0  0  0  0  0  0  0  0  0  0  0  0
   49.1931   11.2906   18.6430 H   0  0  0  0  0  0  0  0  0  0  0  0
   47.4823   11.6550   18.2498 H   0  0  0  0  0  0  0  0  0  0  0  0
   48.6713   11.5021   16.9655 H   0  0  0  0  0  0  0  0  0  0  0  0
   46.1248    4.6550   18.1960 H   0  0  0  0  0  0  0  0  0  0  0  0
   50.3621    5.3825   18.5211 H   0  0  0  0  0  0  0  0  0  0  0  0
   46.5797    2.6084   16.8933 H   0  0  0  0  0  0  0  0  0  0  0  0
   50.8041    3.3309   17.2077 H   0  0  0  0  0  0  0  0  0  0  0  0
   48.9139    1.9391   16.3978 H   0  0  0  0  0  0  0  0  0  0  0  0
  2  1  2  0
  3  1  1  0
  4  1  1  0
  5  3  1  0
  6  5  1  0
  7  2  1  0
  8  4  1  0
  9  6  2  0
 10  6  1  0
 11  9  1  0
 12 10  2  0
 13 12  1  0
 11 13  2  0
 15 14  2  0
 16 14  2  0
 17 14  1  0
 18 14  1  0
 20 19  2  0
 21 19  1  0
 22 19  1  0
 23 21  1  0
 24 23  1  0
 25 20  1  0
 26 22  1  0
 27 24  2  0
 28 24  1  0
 29 27  1  0
 30 28  2  0
 31 30  1  0
 29 31  2  0
  3 32  1  0
  4 33  1  0
  5 34  1  0
  5 35  1  0
  7 36  1  0
  7 37  1  0
  7 38  1  0
  8 39  1  0
  8 40  1  0
  8 41  1  0
  9 42  1  0
 10 43  1  0
 11 44  1  0
 12 45  1  0
 13 46  1  0
 17 47  1  0
 18 48  1  0
 21 49  1  0
 22 50  1  0
 23 51  1  0
 23 52  1  0
 25 53  1  0
 25 54  1  0
 25 55  1  0
 26 56  1  0
 26 57  1  0
 26 58  1  0
 27 59  1  0
 28 60  1  0
 29 61  1  0
 30 62  1  0
 31 63  1  0
M  END
> <Uni-Dock RESULT> 
ENERGY=   -4.613  LOWER_BOUND=    5.090  UPPER_BOUND=    6.941
INTER + INTRA:          -4.613
INTER:                  -4.613
INTRA:                   0.000
UNBOUND:                 0.000

$$$$

     RDKit          3D

 63 62  0  0  0  0  0  0  0  0999 V2000
   49.0399    5.7193   16.8894 C   0  0  0  0  0  0  0  0  0  0  0  0
   50.0704    4.9607   16.8486 N   0  0  0  0  0  0  0  0  0  0  0  0
   49.0344    6.9107   16.2202 N   0  0  0  0  0  0  0  0  0  0  0  0
   47.8196    5.6046   17.4960 N   0  0  0  0  0  0  0  0  0  0  0  0
   50.2177    7.4583   15.5849 C   0  0  0  0  0  0  0  0  0  0  0  0
   49.8225    8.0684   14.2568 C   0  0  0  0  0  0  0  0  0  0  0  0
   50.1492    3.6820   17.5117 C   0  0  0  0  0  0  0  0  0  0  0  0
   47.2925    4.4284   18.1468 C   0  0  0  0  0  0  0  0  0  0  0  0
   49.5557    7.2275   13.1586 C   0  0  0  0  0  0  0  0  0  0  0  0
   49.7053    9.4586   14.0935 C   0  0  0  0  0  0  0  0  0  0  0  0
   49.1962    7.7667   11.9190 C   0  0  0  0  0  0  0  0  0  0  0  0
   49.3433    9.9969   12.8516 C   0  0  0  0  0  0  0  0  0  0  0  0
   49.0932    9.1507   11.7655 C   0  0  0  0  0  0  0  0  0  0  0  0
   48.7298    6.7092   15.3290 S   0  0  0  0  0  0  0  0  0  0  0  0
   48.1707    8.0178   15.5809 O   0  0  0  0  0  0  0  0  0  0  0  0
   47.9904    5.6188   14.7337 O   0  0  0  0  0  0  0  0  0  0  0  0
   50.0741    6.9388   14.4781 O   0  0  0  0  0  0  0  0  0  0  0  0
   49.3283    6.1453   16.7067 O   0  0  0  0  0  0  0  0  0  0  0  0
   49.5310    7.5675   14.0510 C   0  0  0  0  0  0  0  0  0  0  0  0
   48.5680    7.7230   13.2240 N   0  0  0  0  0  0  0  0  0  0  0  0
   49.3540    6.8308   15.1906 N   0  0  0  0  0  0  0  0  0  0  0  0
   50.8286    8.0020   14.0624 N   0  0  0  0  0  0  0  0  0  0  0  0
   48.0953    6.1471   15.4346 C   0  0  0  0  0  0  0  0  0  0  0  0
   48.2115    5.3189   16.6933 C   0  0  0  0  0  0  0  0  0  0  0  0
   48.7295    8.4216   11.9697 C   0  0  0  0  0  0  0  0  0  0  0  0
   51.3300    9.1367   13.3241 C   0  0  0  0  0  0  0  0  0  0  0  0
   48.3615    3.9280   16.6207 C   0  0  0  0  0  0  0  0  0  0  0  0
   48.2031    5.9371   17.9534 C   0  0  0  0  0  0  0  0  0  0  0  0
   48.4831    3.1666   17.7840 C   0  0  0  0  0  0  0  0  0  0  0  0
   48.3282    5.1749   19.1153 C   0  0  0  0  0  0  0  0  0  0  0  0
   48.4643    3.7891   19.0296 C   0  0  0  0  0  0  0  0  0  0  0  0
   48.4638    7.6218   16.6429 H   0  0  0  0  0  0  0  0  0  0  0  0
   47.1018    6.0830   16.9542 H   0  0  0  0  0  0  0  0  0  0  0  0
   50.6675    8.2178   16.2428 H   0  0  0  0  0  0  0  0  0  0  0  0
   50.9980    6.7030   15.4006 H   0  0  0  0  0  0  0  0  0  0  0  0
   49.3845    2.9825   17.1512 H   0  0  0  0  0  0  0  0  0  0  0  0
   50.0990    3.7842   18.5996 H   0  0  0  0  0  0  0  0  0  0  0  0
   51.1204    3.2243   17.2849 H   0  0  0  0  0  0  0  0  0  0  0  0
   47.9191    4.1142   18.9875 H   0  0  0  0  0  0  0  0  0  0  0  0
   47.1746    3.6025   17.4343 H   0  0  0  0  0  0  0  0  0  0  0  0
   46.3026    4.6577   18.5557 H   0  0  0  0  0  0  0  0  0  0  0  0
   49.6313    6.1438   13.2749 H   0  0  0  0  0  0  0  0  0  0  0  0
   49.9009   10.1332   14.9284 H   0  0  0  0  0  0  0  0  0  0  0  0
   48.9998    7.1046   11.0762 H   0  0  0  0  0  0  0  0  0  0  0  0
   49.2581   11.0767   12.7292 H   0  0  0  0  0  0  0  0  0  0  0  0
   48.8151    9.5719   10.7995 H   0  0  0  0  0  0  0  0  0  0  0  0
   50.4526    7.8000   14.7566 H   0  0  0  0  0  0  0  0  0  0  0  0
   49.3082    5.1687   16.6499 H   0  0  0  0  0  0  0  0  0  0  0  0
   50.1431    6.2272   15.3808 H   0  0  0  0  0  0  0  0  0  0  0  0
   51.1663    8.0286   15.0206 H   0  0  0  0  0  0  0  0  0  0  0  0
   47.2812    6.8696   15.5522 H   0  0  0  0  0  0  0  0  0  0  0  0
   47.8395    5.4989   14.5903 H   0  0  0  0  0  0  0  0  0  0  0  0
   49.5741    8.0372   11.3922 H   0  0  0  0  0  0  0  0  0  0  0  0
   47.8382    8.2574   11.3566 H   0  0  0  0  0  0  0  0  0  0  0  0
   48.8218    9.4996   12.1179 H   0  0  0  0  0  0  0  0  0  0  0  0
   50.7283   10.0289   13.5189 H   0  0  0  0  0  0  0  0  0  0  0  0
   51.3692    8.9350   12.2513 H   0  0  0  0  0  0  0  0  0  0  0  0
   52.3564    9.3476   13.6449 H   0  0  0  0  0  0  0  0  0  0  0  0
   48.3821    3.4281   15.6566 H   0  0  0  0  0  0  0  0  0  0  0  0
   48.1027    7.0183   18.0277 H   0  0  0  0  0  0  0  0  0  0  0  0
   48.5917    2.0871   17.7181 H   0  0  0  0  0  0  0  0  0  0  0  0
   48.3206    5.6619   20.0874 H   0  0  0  0  0  0  0  0  0  0  0  0
   48.5594    3.1951   19.9348 H   0  0  0  0  0  0  0  0  0  0  0  0
  2  1  2  0
  3  1  1  0
  4  1  1  0
  5  3  1  0
  6  5  1  0
  7  2  1  0
  8  4  1  0
  9  6  2  0
 10  6  1  0
 11  9  1  0
 12 10  2  0
 13 12  1  0
 11 13  2  0
 15 14  2  0
 16 14  2  0
 17 14  1  0
 18 14  1  0
 20 19  2  0
 21 19  1  0
 22 19  1  0
 23 21  1  0
 24 23  1  0
 25 20  1  0
 26 22  1  0
 27 24  2  0
 28 24  1  0
 29 27  1  0
 30 28  2  0
 31 30  1  0
 29 31  2  0
  3 32  1  0
  4 33  1  0
  5 34  1  0
  5 35  1  0
  7 36  1  0
  7 37  1  0
  7 38  1  0
  8 39  1  0
  8 40  1  0
  8 41  1  0
  9 42  1  0
 10 43  1  0
 11 44  1  0
 12 45  1  0
 13 46  1  0
 17 47  1  0
 18 48  1  0
 21 49  1  0
 22 50  1  0
 23 51  1  0
 23 52  1  0
 25 53  1  0
 25 54  1  0
 25 55  1  0
 26 56  1  0
 26 57  1  0
 26 58  1  0
 27 59  1  0
 28 60  1  0
 29 61  1  0
 30 62  1  0
 31 63  1  0
M  END
> <Uni-Dock RESULT> 
ENERGY=   -4.181  LOWER_BOUND=    3.579  UPPER_BOUND=    4.852
INTER + INTRA:          -4.181
INTER:                  -4.181
INTRA:                   0.000
UNBOUND:                 0.000

$$$$

     RDKit          3D

 63 62  0  0  0  0  0  0  0  0999 V2000
   48.2047   10.7161   19.9377 C   0  0  0  0  0  0  0  0  0  0  0  0
   49.1097   11.3341   20.5995 N   0  0  0  0  0  0  0  0  0  0  0  0
   48.2315    9.3534   19.8405 N   0  0  0  0  0  0  0  0  0  0  0  0
   47.1036   11.1372   19.2443 N   0  0  0  0  0  0  0  0  0  0  0  0
   49.3453    8.5554   20.3162 C   0  0  0  0  0  0  0  0  0  0  0  0
   48.8046    7.3099   20.9858 C   0  0  0  0  0  0  0  0  0  0  0  0
   49.1426   12.7668   20.7644 C   0  0  0  0  0  0  0  0  0  0  0  0
   46.5552   12.4729   19.2346 C   0  0  0  0  0  0  0  0  0  0  0  0
   48.2485    7.4017   22.2768 C   0  0  0  0  0  0  0  0  0  0  0  0
   48.8349    6.0601   20.3453 C   0  0  0  0  0  0  0  0  0  0  0  0
   47.7491    6.2644   22.9202 C   0  0  0  0  0  0  0  0  0  0  0  0
   48.3326    4.9223   20.9905 C   0  0  0  0  0  0  0  0  0  0  0  0
   47.7942    5.0253   22.2780 C   0  0  0  0  0  0  0  0  0  0  0  0
   47.7540    9.0264   20.6103 S   0  0  0  0  0  0  0  0  0  0  0  0
   47.4146    8.0705   19.5810 O   0  0  0  0  0  0  0  0  0  0  0  0
   46.7924    9.6002   21.5248 O   0  0  0  0  0  0  0  0  0  0  0  0
   48.9481    8.3756   21.4675 O   0  0  0  0  0  0  0  0  0  0  0  0
   48.5077   10.2625   19.9188 O   0  0  0  0  0  0  0  0  0  0  0  0
   48.4217    7.6113   21.3610 C   0  0  0  0  0  0  0  0  0  0  0  0
   47.3566    7.0170   21.7457 N   0  0  0  0  0  0  0  0  0  0  0  0
   48.3549    8.8536   20.7910 N   0  0  0  0  0  0  0  0  0  0  0  0
   49.7454    7.2659   21.3950 N   0  0  0  0  0  0  0  0  0  0  0  0
   47.0825    9.5481   20.6914 C   0  0  0  0  0  0  0  0  0  0  0  0
   47.3114   10.9348   20.1362 C   0  0  0  0  0  0  0  0  0  0  0  0
   47.3836    5.7428   22.4265 C   0  0  0  0  0  0  0  0  0  0  0  0
   50.2483    5.9162   21.4928 C   0  0  0  0  0  0  0  0  0  0  0  0
   47.2720   12.0551   20.9763 C   0  0  0  0  0  0  0  0  0  0  0  0
   47.5991   11.1160   18.7744 C   0  0  0  0  0  0  0  0  0  0  0  0
   47.4981   13.3335   20.4641 C   0  0  0  0  0  0  0  0  0  0  0  0
   47.8282   12.3943   18.2644 C   0  0  0  0  0  0  0  0  0  0  0  0
   47.7736   13.5029   19.1096 C   0  0  0  0  0  0  0  0  0  0  0  0
   47.8361    8.9898   18.9911 H   0  0  0  0  0  0  0  0  0  0  0  0
   46.3679   10.4334   19.2751 H   0  0  0  0  0  0  0  0  0  0  0  0
   49.9936    8.2897   19.4670 H   0  0  0  0  0  0  0  0  0  0  0  0
   49.9815    9.0893   21.0398 H   0  0  0  0  0  0  0  0  0  0  0  0
   48.2458   13.1445   21.2715 H   0  0  0  0  0  0  0  0  0  0  0  0
   49.2952   13.2825   19.8119 H   0  0  0  0  0  0  0  0  0  0  0  0
   49.9949   13.0308   21.4031 H   0  0  0  0  0  0  0  0  0  0  0  0
   47.2742   13.2044   18.8523 H   0  0  0  0  0  0  0  0  0  0  0  0
   46.2134   12.7664   20.2349 H   0  0  0  0  0  0  0  0  0  0  0  0
   45.6877   12.4998   18.5664 H   0  0  0  0  0  0  0  0  0  0  0  0
   48.2074    8.3697   22.7817 H   0  0  0  0  0  0  0  0  0  0  0  0
   49.2550    5.9609   19.3433 H   0  0  0  0  0  0  0  0  0  0  0  0
   47.3284    6.3488   23.9217 H   0  0  0  0  0  0  0  0  0  0  0  0
   48.3626    3.9540   20.4906 H   0  0  0  0  0  0  0  0  0  0  0  0
   47.4073    4.1382   22.7793 H   0  0  0  0  0  0  0  0  0  0  0  0
   49.4735    7.8149   20.8575 H   0  0  0  0  0  0  0  0  0  0  0  0
   48.3565   11.0448   20.4866 H   0  0  0  0  0  0  0  0  0  0  0  0
   49.0836    9.4681   21.1296 H   0  0  0  0  0  0  0  0  0  0  0  0
   50.2450    7.7759   20.6717 H   0  0  0  0  0  0  0  0  0  0  0  0
   46.3976    9.0044   20.0326 H   0  0  0  0  0  0  0  0  0  0  0  0
   46.6052    9.6197   21.6741 H   0  0  0  0  0  0  0  0  0  0  0  0
   48.0605    5.7509   23.2846 H   0  0  0  0  0  0  0  0  0  0  0  0
   46.3859    5.5337   22.8242 H   0  0  0  0  0  0  0  0  0  0  0  0
   47.6338    4.9272   21.7449 H   0  0  0  0  0  0  0  0  0  0  0  0
   49.8055    5.2755   20.7252 H   0  0  0  0  0  0  0  0  0  0  0  0
   50.0752    5.4918   22.4843 H   0  0  0  0  0  0  0  0  0  0  0  0
   51.3330    5.9260   21.3371 H   0  0  0  0  0  0  0  0  0  0  0  0
   47.0624   11.9391   22.0358 H   0  0  0  0  0  0  0  0  0  0  0  0
   47.6486   10.2551   18.1101 H   0  0  0  0  0  0  0  0  0  0  0  0
   47.4582   14.1976   21.1222 H   0  0  0  0  0  0  0  0  0  0  0  0
   48.0502   12.5255   17.2082 H   0  0  0  0  0  0  0  0  0  0  0  0
   47.9497   14.4989   18.7119 H   0  0  0  0  0  0  0  0  0  0  0  0
  2  1  2  0
  3  1  1  0
  4  1  1  0
  5  3  1  0
  6  5  1  0
  7  2  1  0
  8  4  1  0
  9  6  2  0
 10  6  1  0
 11  9  1  0
 12 10  2  0
 13 12  1  0
 11 13  2  0
 15 14  2  0
 16 14  2  0
 17 14  1  0
 18 14  1  0
 20 19  2  0
 21 19  1  0
 22 19  1  0
 23 21  1  0
 24 23  1  0
 25 20  1  0
 26 22  1  0
 27 24  2  0
 28 24  1  0
 29 27  1  0
 30 28  2  0
 31 30  1  0
 29 31  2  0
  3 32  1  0
  4 33  1  0
  5 34  1  0
  5 35  1  0
  7 36  1  0
  7 37  1  0
  7 38  1  0
  8 39  1  0
  8 40  1  0
  8 41  1  0
  9 42  1  0
 10 43  1  0
 11 44  1  0
 12 45  1  0
 13 46  1  0
 17 47  1  0
 18 48  1  0
 21 49  1  0
 22 50  1  0
 23 51  1  0
 23 52  1  0
 25 53  1  0
 25 54  1  0
 25 55  1  0
 26 56  1  0
 26 57  1  0
 26 58  1  0
 27 59  1  0
 28 60  1  0
 29 61  1  0
 30 62  1  0
 31 63  1  0
M  END
> <Uni-Dock RESULT> 
ENERGY=   -4.042  LOWER_BOUND=    8.107  UPPER_BOUND=    9.736
INTER + INTRA:          -4.042
INTER:                  -4.042
INTRA:                   0.000
UNBOUND:                 0.000

$$$$

     RDKit          3D

 63 62  0  0  0  0  0  0  0  0999 V2000
   48.5209    6.3320   18.8446 C   0  0  0  0  0  0  0  0  0  0  0  0
   49.6709    6.1839   19.3874 N   0  0  0  0  0  0  0  0  0  0  0  0
   47.7189    7.3784   19.2039 N   0  0  0  0  0  0  0  0  0  0  0  0
   47.8417    5.6271   17.8896 N   0  0  0  0  0  0  0  0  0  0  0  0
   48.0312    8.2609   20.3117 C   0  0  0  0  0  0  0  0  0  0  0  0
   47.6914    9.6823   19.9162 C   0  0  0  0  0  0  0  0  0  0  0  0
   50.5830    5.1181   19.0513 C   0  0  0  0  0  0  0  0  0  0  0  0
   48.3702    4.5599   17.0731 C   0  0  0  0  0  0  0  0  0  0  0  0
   48.5477   10.3839   19.0450 C   0  0  0  0  0  0  0  0  0  0  0  0
   46.5330   10.3194   20.3908 C   0  0  0  0  0  0  0  0  0  0  0  0
   48.2602   11.7007   18.6705 C   0  0  0  0  0  0  0  0  0  0  0  0
   46.2456   11.6377   20.0132 C   0  0  0  0  0  0  0  0  0  0  0  0
   47.1112   12.3275   19.1571 C   0  0  0  0  0  0  0  0  0  0  0  0
   47.9740    8.1117   18.6339 S   0  0  0  0  0  0  0  0  0  0  0  0
   46.5496    8.2972   18.7928 O   0  0  0  0  0  0  0  0  0  0  0  0
   48.6634    8.2179   17.3675 O   0  0  0  0  0  0  0  0  0  0  0  0
   48.6868    9.0950   19.6870 O   0  0  0  0  0  0  0  0  0  0  0  0
   48.3639    6.6771   19.2373 O   0  0  0  0  0  0  0  0  0  0  0  0
   48.0138    9.6720   19.3925 C   0  0  0  0  0  0  0  0  0  0  0  0
   47.6289   10.4190   18.4285 N   0  0  0  0  0  0  0  0  0  0  0  0
   48.2231    8.3345   19.1923 N   0  0  0  0  0  0  0  0  0  0  0  0
   48.3012    9.9215   20.7070 N   0  0  0  0  0  0  0  0  0  0  0  0
   48.0911    7.7618   17.8634 C   0  0  0  0  0  0  0  0  0  0  0  0
   48.4899    6.3048   17.9047 C   0  0  0  0  0  0  0  0  0  0  0  0
   47.4743   11.8485   18.5704 C   0  0  0  0  0  0  0  0  0  0  0  0
   47.8176   11.0534   21.4615 C   0  0  0  0  0  0  0  0  0  0  0  0
   49.7291    5.8897   17.4003 C   0  0  0  0  0  0  0  0  0  0  0  0
   47.6357    5.3507   18.4795 C   0  0  0  0  0  0  0  0  0  0  0  0
   50.1014    4.5456   17.4525 C   0  0  0  0  0  0  0  0  0  0  0  0
   48.0108    4.0080   18.5340 C   0  0  0  0  0  0  0  0  0  0  0  0
   49.2424    3.6059   18.0167 C   0  0  0  0  0  0  0  0  0  0  0  0
   46.7343    7.1914   19.1300 H   0  0  0  0  0  0  0  0  0  0  0  0
   47.2363    6.2433   17.3498 H   0  0  0  0  0  0  0  0  0  0  0  0
   47.4526    7.9552   21.1969 H   0  0  0  0  0  0  0  0  0  0  0  0
   49.0924    8.2273   20.6052 H   0  0  0  0  0  0  0  0  0  0  0  0
   50.8745    5.1426   17.9937 H   0  0  0  0  0  0  0  0  0  0  0  0
   50.1792    4.1375   19.3193 H   0  0  0  0  0  0  0  0  0  0  0  0
   51.5061    5.2454   19.6308 H   0  0  0  0  0  0  0  0  0  0  0  0
   48.7140    3.7164   17.6800 H   0  0  0  0  0  0  0  0  0  0  0  0
   49.1840    4.9199   16.4314 H   0  0  0  0  0  0  0  0  0  0  0  0
   47.5765    4.1802   16.4208 H   0  0  0  0  0  0  0  0  0  0  0  0
   49.4458    9.8963   18.6586 H   0  0  0  0  0  0  0  0  0  0  0  0
   45.8494    9.7980   21.0625 H   0  0  0  0  0  0  0  0  0  0  0  0
   48.9352   12.2338   18.0017 H   0  0  0  0  0  0  0  0  0  0  0  0
   45.3475   12.1289   20.3880 H   0  0  0  0  0  0  0  0  0  0  0  0
   46.8874   13.3541   18.8675 H   0  0  0  0  0  0  0  0  0  0  0  0
   48.0916    9.1727   20.4630 H   0  0  0  0  0  0  0  0  0  0  0  0
   49.1728    6.3809   18.7735 H   0  0  0  0  0  0  0  0  0  0  0  0
   49.0625    8.0070   19.6521 H   0  0  0  0  0  0  0  0  0  0  0  0
   48.1884    9.0663   21.2444 H   0  0  0  0  0  0  0  0  0  0  0  0
   47.0581    7.8431   17.5100 H   0  0  0  0  0  0  0  0  0  0  0  0
   48.7256    8.2965   17.1492 H   0  0  0  0  0  0  0  0  0  0  0  0
   48.3689   12.3180   18.9874 H   0  0  0  0  0  0  0  0  0  0  0  0
   47.3304   12.2883   17.5789 H   0  0  0  0  0  0  0  0  0  0  0  0
   46.5932   12.1014   19.1637 H   0  0  0  0  0  0  0  0  0  0  0  0
   46.7302   11.1405   21.3852 H   0  0  0  0  0  0  0  0  0  0  0  0
   48.2937   11.9836   21.1436 H   0  0  0  0  0  0  0  0  0  0  0  0
   48.0698   10.9132   22.5187 H   0  0  0  0  0  0  0  0  0  0  0  0
   50.4119    6.6112   16.9608 H   0  0  0  0  0  0  0  0  0  0  0  0
   46.6756    5.6580   18.8899 H   0  0  0  0  0  0  0  0  0  0  0  0
   51.0619    4.2318   17.0520 H   0  0  0  0  0  0  0  0  0  0  0  0
   47.3429    3.2756   18.9809 H   0  0  0  0  0  0  0  0  0  0  0  0
   49.5336    2.5595   18.0570 H   0  0  0  0  0  0  0  0  0  0  0  0
  2  1  2  0
  3  1  1  0
  4  1  1  0
  5  3  1  0
  6  5  1  0
  7  2  1  0
  8  4  1  0
  9  6  2  0
 10  6  1  0
 11  9  1  0
 12 10  2  0
 13 12  1  0
 11 13  2  0
 15 14  2  0
 16 14  2  0
 17 14  1  0
 18 14  1  0
 20 19  2  0
 21 19  1  0
 22 19  1  0
 23 21  1  0
 24 23  1  0
 25 20  1  0
 26 22  1  0
 27 24  2  0
 28 24  1  0
 29 27  1  0
 30 28  2  0
 31 30  1  0
 29 31  2  0
  3 32  1  0
  4 33  1  0
  5 34  1  0
  5 35  1  0
  7 36  1  0
  7 37  1  0
  7 38  1  0
  8 39  1  0
  8 40  1  0
  8 41  1  0
  9 42  1  0
 10 43  1  0
 11 44  1  0
 12 45  1  0
 13 46  1  0
 17 47  1  0
 18 48  1  0
 21 49  1  0
 22 50  1  0
 23 51  1  0
 23 52  1  0
 25 53  1  0
 25 54  1  0
 25 55  1  0
 26 56  1  0
 26 57  1  0
 26 58  1  0
 27 59  1  0
 28 60  1  0
 29 61  1  0
 30 62  1  0
 31 63  1  0
M  END
> <Uni-Dock RESULT> 
ENERGY=   -4.027  LOWER_BOUND=    5.775  UPPER_BOUND=    7.305
INTER + INTRA:          -4.027
INTER:                  -4.027
INTRA:                   0.000
UNBOUND:                 0.000

$$$$

     RDKit          3D

 63 62  0  0  0  0  0  0  0  0999 V2000
   48.4484    8.5406   14.6520 C   0  0  0  0  0  0  0  0  0  0  0  0
   47.2393    8.7830   14.3082 N   0  0  0  0  0  0  0  0  0  0  0  0
   48.9214    8.9726   15.8590 N   0  0  0  0  0  0  0  0  0  0  0  0
   49.4776    7.8783   14.0417 N   0  0  0  0  0  0  0  0  0  0  0  0
   48.1656    9.8556   16.7266 C   0  0  0  0  0  0  0  0  0  0  0  0
   48.3417    9.4020   18.1603 C   0  0  0  0  0  0  0  0  0  0  0  0
   46.6592    8.3470   13.0614 C   0  0  0  0  0  0  0  0  0  0  0  0
   49.3920    7.0800   12.8415 C   0  0  0  0  0  0  0  0  0  0  0  0
   47.6461    8.2663   18.6194 C   0  0  0  0  0  0  0  0  0  0  0  0
   49.1930   10.0828   19.0462 C   0  0  0  0  0  0  0  0  0  0  0  0
   47.7858    7.8314   19.9416 C   0  0  0  0  0  0  0  0  0  0  0  0
   49.3331    9.6446   20.3697 C   0  0  0  0  0  0  0  0  0  0  0  0
   48.6267    8.5224   20.8164 C   0  0  0  0  0  0  0  0  0  0  0  0
   48.7059    8.2769   16.4892 S   0  0  0  0  0  0  0  0  0  0  0  0
   49.9754    8.7741   16.9682 O   0  0  0  0  0  0  0  0  0  0  0  0
   48.3823    6.8724   16.3759 O   0  0  0  0  0  0  0  0  0  0  0  0
   47.5685    8.9930   17.3709 O   0  0  0  0  0  0  0  0  0  0  0  0
   48.4278    8.9187   15.0452 O   0  0  0  0  0  0  0  0  0  0  0  0
   48.1823    8.8178   18.0529 C   0  0  0  0  0  0  0  0  0  0  0  0
   48.6771    7.9066   18.8015 N   0  0  0  0  0  0  0  0  0  0  0  0
   48.2777    8.7235   16.6909 N   0  0  0  0  0  0  0  0  0  0  0  0
   47.5062    9.9772   18.3194 N   0  0  0  0  0  0  0  0  0  0  0  0
   48.8686    7.5470   16.0761 C   0  0  0  0  0  0  0  0  0  0  0  0
   48.7401    7.6495   14.5739 C   0  0  0  0  0  0  0  0  0  0  0  0
   48.5295    7.9204   20.2387 C   0  0  0  0  0  0  0  0  0  0  0  0
   47.5548   10.6972   19.5698 C   0  0  0  0  0  0  0  0  0  0  0  0
   47.7811    6.8942   13.8868 C   0  0  0  0  0  0  0  0  0  0  0  0
   49.5599    8.5287   13.8494 C   0  0  0  0  0  0  0  0  0  0  0  0
   47.6544    7.0012   12.5010 C   0  0  0  0  0  0  0  0  0  0  0  0
   49.4298    8.6371   12.4645 C   0  0  0  0  0  0  0  0  0  0  0  0
   48.4792    7.8698   11.7908 C   0  0  0  0  0  0  0  0  0  0  0  0
   49.9056    9.1758   15.8707 H   0  0  0  0  0  0  0  0  0  0  0  0
   50.0878    7.4458   14.7332 H   0  0  0  0  0  0  0  0  0  0  0  0
   48.5244   10.8885   16.5990 H   0  0  0  0  0  0  0  0  0  0  0  0
   47.0883    9.8685   16.4972 H   0  0  0  0  0  0  0  0  0  0  0  0
   46.6692    7.2544   12.9616 H   0  0  0  0  0  0  0  0  0  0  0  0
   47.1422    8.8192   12.2011 H   0  0  0  0  0  0  0  0  0  0  0  0
   45.6055    8.6518   13.0349 H   0  0  0  0  0  0  0  0  0  0  0  0
   49.0511    7.6700   11.9849 H   0  0  0  0  0  0  0  0  0  0  0  0
   48.7345    6.2143   12.9896 H   0  0  0  0  0  0  0  0  0  0  0  0
   50.3885    6.7009   12.5908 H   0  0  0  0  0  0  0  0  0  0  0  0
   46.9901    7.7202   17.9376 H   0  0  0  0  0  0  0  0  0  0  0  0
   49.7479   10.9621   18.7161 H   0  0  0  0  0  0  0  0  0  0  0  0
   47.2361    6.9556   20.2851 H   0  0  0  0  0  0  0  0  0  0  0  0
   49.9916   10.1793   21.0544 H   0  0  0  0  0  0  0  0  0  0  0  0
   48.7346    8.1854   21.8473 H   0  0  0  0  0  0  0  0  0  0  0  0
   47.9045    9.8818   17.6149 H   0  0  0  0  0  0  0  0  0  0  0  0
   47.8431    8.2994   14.5637 H   0  0  0  0  0  0  0  0  0  0  0  0
   47.4169    8.9865   16.2294 H   0  0  0  0  0  0  0  0  0  0  0  0
   47.6180   10.6191   17.5394 H   0  0  0  0  0  0  0  0  0  0  0  0
   49.9272    7.4639   16.3427 H   0  0  0  0  0  0  0  0  0  0  0  0
   48.3694    6.6379   16.4267 H   0  0  0  0  0  0  0  0  0  0  0  0
   47.4862    8.0376   20.5425 H   0  0  0  0  0  0  0  0  0  0  0  0
   48.8588    6.9558   20.6368 H   0  0  0  0  0  0  0  0  0  0  0  0
   49.1547    8.6874   20.7005 H   0  0  0  0  0  0  0  0  0  0  0  0
   48.5879   10.8934   19.8701 H   0  0  0  0  0  0  0  0  0  0  0  0
   47.0261   10.1643   20.3633 H   0  0  0  0  0  0  0  0  0  0  0  0
   47.0518   11.6630   19.4468 H   0  0  0  0  0  0  0  0  0  0  0  0
   47.1276    6.2152   14.4270 H   0  0  0  0  0  0  0  0  0  0  0  0
   50.3001    9.1344   14.3691 H   0  0  0  0  0  0  0  0  0  0  0  0
   46.9123    6.4057   11.9755 H   0  0  0  0  0  0  0  0  0  0  0  0
   50.0691    9.3206   11.9111 H   0  0  0  0  0  0  0  0  0  0  0  0
   48.3794    7.9525   10.7117 H   0  0  0  0  0  0  0  0  0  0  0  0
  2  1  2  0
  3  1  1  0
  4  1  1  0
  5  3  1  0
  6  5  1  0
  7  2  1  0
  8  4  1  0
  9  6  2  0
 10  6  1  0
 11  9  1  0
 12 10  2  0
 13 12  1  0
 11 13  2  0
 15 14  2  0
 16 14  2  0
 17 14  1  0
 18 14  1  0
 20 19  2  0
 21 19  1  0
 22 19  1  0
 23 21  1  0
 24 23  1  0
 25 20  1  0
 26 22  1  0
 27 24  2  0
 28 24  1  0
 29 27  1  0
 30 28  2  0
 31 30  1  0
 29 31  2  0
  3 32  1  0
  4 33  1  0
  5 34  1  0
  5 35  1  0
  7 36  1  0
  7 37  1  0
  7 38  1  0
  8 39  1  0
  8 40  1  0
  8 41  1  0
  9 42  1  0
 10 43  1  0
 11 44  1  0
 12 45  1  0
 13 46  1  0
 17 47  1  0
 18 48  1  0
 21 49  1  0
 22 50  1  0
 23 51  1  0
 23 52  1  0
 25 53  1  0
 25 54  1  0
 25 55  1  0
 26 56  1  0
 26 57  1  0
 26 58  1  0
 27 59  1  0
 28 60  1  0
 29 61  1  0
 30 62  1  0
 31 63  1  0
M  END
> <Uni-Dock RESULT> 
ENERGY=   -4.007  LOWER_BOUND=    3.736  UPPER_BOUND=    5.828
INTER + INTRA:          -4.007
INTER:                  -4.007
INTRA:                   0.000
UNBOUND:                 0.000

$$$$
