
     RDKit          3D

113118  0  0  0  0  0  0  0  0999 V2000
   -1.1009   -0.9906    1.0799 C   0  0  2  0  0  0  0  0  0  0  0  0
    1.3585   -0.9107    0.4696 C   0  0  0  0  0  0  0  0  0  0  0  0
   -1.0758    0.5407    0.9751 C   0  0  2  0  0  0  0  0  0  0  0  0
   -2.8136   -0.7734   -0.8873 C   0  0  0  0  0  0  0  0  0  0  0  0
    0.2792   -1.6060    0.8811 C   0  0  0  0  0  0  0  0  0  0  0  0
    1.3109    0.5449    0.0725 C   0  0  1  0  0  0  0  0  0  0  0  0
   -2.1584   -1.6503    0.1427 C   0  0  0  0  0  0  0  0  0  0  0  0
   -2.9843    0.5502   -0.5799 C   0  0  0  0  0  0  0  0  0  0  0  0
    2.7136   -1.5088    0.5503 C   0  0  0  0  0  0  0  0  0  0  0  0
    2.2905    0.9412   -1.0982 C   0  0  1  0  0  0  0  0  0  0  0  0
   -2.5329    1.0419    0.8194 C   0  0  1  0  0  0  0  0  0  0  0  0
   -0.1511    0.9642   -0.2019 C   0  0  2  0  0  0  0  0  0  0  0  0
    3.6671   -1.1490   -0.5093 C   0  0  0  0  0  0  0  0  0  0  0  0
    3.4547   -0.0203   -1.3159 C   0  0  0  0  0  0  0  0  0  0  0  0
   -3.1896   -1.3582   -2.2224 C   0  0  0  0  0  0  0  0  0  0  0  0
   -3.3809    1.5290   -1.2830 O   0  0  0  0  0  0  0  0  0  0  0  0
   -3.3951    0.5809    1.9577 N   0  0  0  0  0  0  0  0  0  0  0  0
   -2.4729   -2.8360    0.2788 O   0  0  0  0  0  0  0  0  0  0  0  0
    3.0917   -2.2306    1.4678 O   0  0  0  0  0  0  0  0  0  0  0  0
    4.7959   -1.9661   -0.7169 C   0  0  0  0  0  0  0  0  0  0  0  0
   -1.4568   -1.3671    2.4339 O   0  0  0  0  0  0  0  0  0  0  0  0
   -3.3532   -2.5523   -2.4353 O   0  0  0  0  0  0  0  0  0  0  0  0
    0.3891   -2.9277    1.2916 O   0  0  0  0  0  0  0  0  0  0  0  0
    1.6082    0.9739   -2.3584 O   0  0  0  0  0  0  0  0  0  0  0  0
   -0.2241    2.3675   -0.4524 O   0  0  0  0  0  0  0  0  0  0  0  0
   -3.3110   -0.4545   -3.2349 N   0  0  0  0  0  0  0  0  0  0  0  0
    2.8457    2.3676   -0.8310 C   0  0  0  0  0  0  0  0  0  0  0  0
    4.3623    0.2047   -2.3784 C   0  0  0  0  0  0  0  0  0  0  0  0
    5.0895   -3.0541    0.0654 O   0  0  0  0  0  0  0  0  0  0  0  0
    5.4635   -0.6245   -2.5950 C   0  0  0  0  0  0  0  0  0  0  0  0
    5.6922   -1.7040   -1.7497 C   0  0  0  0  0  0  0  0  0  0  0  0
   -4.8255    0.6495    1.6128 C   0  0  0  0  0  0  0  0  0  0  0  0
   -3.1800    1.4464    3.1292 C   0  0  0  0  0  0  0  0  0  0  0  0
   -1.3220    0.6466   -1.1038 C   0  0  2  0  0  0  0  0  0  0  0  0
    1.1543    0.7793   -0.5598 C   0  0  0  0  0  0  0  0  0  0  0  0
   -1.3384   -0.8281   -0.6691 C   0  0  2  0  0  0  0  0  0  0  0  0
   -2.6985    1.1781    1.0176 C   0  0  0  0  0  0  0  0  0  0  0  0
    0.0011    1.3788   -0.9328 C   0  0  0  0  0  0  0  0  0  0  0  0
    1.2374   -0.7017   -0.2936 C   0  0  1  0  0  0  0  0  0  0  0  0
   -2.4315    1.4798   -0.4177 C   0  0  0  0  0  0  0  0  0  0  0  0
   -2.7741   -0.1480    1.2870 C   0  0  0  0  0  0  0  0  0  0  0  0
    2.4002    1.5926   -0.5566 C   0  0  0  0  0  0  0  0  0  0  0  0
    2.4654   -1.1655    0.5956 C   0  0  1  0  0  0  0  0  0  0  0  0
   -2.6761   -1.1436    0.0764 C   0  0  1  0  0  0  0  0  0  0  0  0
   -0.1323   -1.2402    0.2108 C   0  0  2  0  0  0  0  0  0  0  0  0
    3.6558    1.0197   -0.0404 C   0  0  0  0  0  0  0  0  0  0  0  0
    3.6887   -0.2505    0.5420 C   0  0  0  0  0  0  0  0  0  0  0  0
   -2.8847    2.3054    1.9938 C   0  0  0  0  0  0  0  0  0  0  0  0
   -2.9323   -0.7788    2.3671 O   0  0  0  0  0  0  0  0  0  0  0  0
   -3.8698   -1.0504   -0.8341 N   0  0  0  0  0  0  0  0  0  0  0  0
   -3.0226    2.3922   -1.0137 O   0  0  0  0  0  0  0  0  0  0  0  0
    2.4086    2.7553   -0.9720 O   0  0  0  0  0  0  0  0  0  0  0  0
    4.8322    1.8029   -0.0869 C   0  0  0  0  0  0  0  0  0  0  0  0
   -1.5538    0.6743   -2.5346 O   0  0  0  0  0  0  0  0  0  0  0  0
   -2.7806    2.2567    3.2151 O   0  0  0  0  0  0  0  0  0  0  0  0
   -0.0690    2.7255   -1.2879 O   0  0  0  0  0  0  0  0  0  0  0  0
    2.1893   -1.2791    1.9938 O   0  0  0  0  0  0  0  0  0  0  0  0
   -0.0763   -2.6700    0.2780 O   0  0  0  0  0  0  0  0  0  0  0  0
   -3.2023    3.5086    1.4245 N   0  0  0  0  0  0  0  0  0  0  0  0
    2.9027   -2.5817    0.1205 C   0  0  0  0  0  0  0  0  0  0  0  0
    4.9030   -0.6570    1.1555 C   0  0  0  0  0  0  0  0  0  0  0  0
    4.8941    3.0448   -0.6677 O   0  0  0  0  0  0  0  0  0  0  0  0
    6.0562    0.1277    1.1144 C   0  0  0  0  0  0  0  0  0  0  0  0
    6.0239    1.3528    0.4711 C   0  0  0  0  0  0  0  0  0  0  0  0
   -5.1216   -1.1584   -0.0557 C   0  0  0  0  0  0  0  0  0  0  0  0
   -3.8651   -2.1337   -1.8230 C   0  0  0  0  0  0  0  0  0  0  0  0
    0.0000    0.0000    0.0000 Ca  0  0  0  0  0 15  0  0  0  0  0  0
   -0.6661    0.9783    1.8951 H   0  0  0  0  0  0  0  0  0  0  0  0
    1.6498    1.0897    0.9665 H   0  0  0  0  0  0  0  0  0  0  0  0
   -2.5118    2.1429    0.8428 H   0  0  0  0  0  0  0  0  0  0  0  0
   -0.4639    0.4688   -1.1297 H   0  0  0  0  0  0  0  0  0  0  0  0
   -2.3478   -0.9717    2.5570 H   0  0  0  0  0  0  0  0  0  0  0  0
   -0.3736   -3.0758    1.8894 H   0  0  0  0  0  0  0  0  0  0  0  0
    0.9371    1.6844   -2.3026 H   0  0  0  0  0  0  0  0  0  0  0  0
   -1.1578    2.5405   -0.7339 H   0  0  0  0  0  0  0  0  0  0  0  0
   -3.7145   -0.7386   -4.1064 H   0  0  0  0  0  0  0  0  0  0  0  0
   -3.3924    0.5284   -2.9302 H   0  0  0  0  0  0  0  0  0  0  0  0
    2.0892    3.1347   -1.0154 H   0  0  0  0  0  0  0  0  0  0  0  0
    3.6888    2.6165   -1.4773 H   0  0  0  0  0  0  0  0  0  0  0  0
    3.2008    2.4680    0.1983 H   0  0  0  0  0  0  0  0  0  0  0  0
    4.1908    1.0355   -3.0649 H   0  0  0  0  0  0  0  0  0  0  0  0
    4.4067   -3.0946    0.7779 H   0  0  0  0  0  0  0  0  0  0  0  0
    6.1325   -0.4313   -3.4256 H   0  0  0  0  0  0  0  0  0  0  0  0
    6.5489   -2.3518   -1.9043 H   0  0  0  0  0  0  0  0  0  0  0  0
   -5.0849   -0.0739    0.8330 H   0  0  0  0  0  0  0  0  0  0  0  0
   -5.1326    1.6514    1.2941 H   0  0  0  0  0  0  0  0  0  0  0  0
   -5.4359    0.3667    2.4775 H   0  0  0  0  0  0  0  0  0  0  0  0
   -3.4064    2.5000    2.9150 H   0  0  0  0  0  0  0  0  0  0  0  0
   -3.8156    1.1303    3.9674 H   0  0  0  0  0  0  0  0  0  0  0  0
   -2.1482    1.3832    3.4928 H   0  0  0  0  0  0  0  0  0  0  0  0
   -1.2809   -1.4564   -1.5672 H   0  0  0  0  0  0  0  0  0  0  0  0
    1.4150   -1.1419   -1.2854 H   0  0  0  0  0  0  0  0  0  0  0  0
   -2.6203   -2.1806    0.4451 H   0  0  0  0  0  0  0  0  0  0  0  0
   -0.2856   -0.8875    1.2319 H   0  0  0  0  0  0  0  0  0  0  0  0
   -1.9439    1.5651   -2.6918 H   0  0  0  0  0  0  0  0  0  0  0  0
    0.8288    3.1194   -1.2320 H   0  0  0  0  0  0  0  0  0  0  0  0
    1.3858   -0.7799    2.2334 H   0  0  0  0  0  0  0  0  0  0  0  0
   -0.4411   -3.0469   -0.5434 H   0  0  0  0  0  0  0  0  0  0  0  0
   -3.5093    4.2482    2.0391 H   0  0  0  0  0  0  0  0  0  0  0  0
   -3.4381    3.5496    0.4361 H   0  0  0  0  0  0  0  0  0  0  0  0
    3.7076   -3.0012    0.7329 H   0  0  0  0  0  0  0  0  0  0  0  0
    2.1020   -3.3167    0.2091 H   0  0  0  0  0  0  0  0  0  0  0  0
    3.2510   -2.5658   -0.9211 H   0  0  0  0  0  0  0  0  0  0  0  0
    4.9439   -1.5980    1.7048 H   0  0  0  0  0  0  0  0  0  0  0  0
    3.9785    3.2955   -0.9255 H   0  0  0  0  0  0  0  0  0  0  0  0
    6.9654   -0.2183    1.5954 H   0  0  0  0  0  0  0  0  0  0  0  0
    6.9138    1.9745    0.4327 H   0  0  0  0  0  0  0  0  0  0  0  0
   -5.9832   -1.1479   -0.7292 H   0  0  0  0  0  0  0  0  0  0  0  0
   -5.2677   -0.2968    0.6018 H   0  0  0  0  0  0  0  0  0  0  0  0
   -5.1654   -2.0813    0.5353 H   0  0  0  0  0  0  0  0  0  0  0  0
   -3.0445   -2.0285   -2.5402 H   0  0  0  0  0  0  0  0  0  0  0  0
   -3.7925   -3.1230   -1.3520 H   0  0  0  0  0  0  0  0  0  0  0  0
   -4.7816   -2.1157   -2.4240 H   0  0  0  0  0  0  0  0  0  0  0  0
  2  5  2  0
  3  1  1  0
  4  7  1  0
  5  1  1  0
  6  2  1  0
  7  1  1  0
  8  4  2  0
  9  2  1  0
 10  6  1  0
  3 11  1  0
 12  3  1  0
 13  9  1  0
 14 13  2  0
 15  4  1  0
 16  8  1  0
 11 17  1  0
 18  7  2  0
 19  9  2  0
 20 13  1  0
  1 21  1  1
 22 15  2  0
 23  5  1  0
 10 24  1  6
 12 25  1  0
 26 15  1  0
 10 27  1  0
 28 14  1  0
 29 20  1  0
 30 31  1  0
 31 20  2  0
 32 17  1  0
 33 17  1  0
 12  6  1  0
 11  8  1  0
 10 14  1  0
 30 28  2  0
 35 38  2  0
 36 34  1  0
 37 40  1  0
 38 34  1  0
 39 35  1  0
 40 34  1  0
 41 37  2  0
 42 35  1  0
 43 39  1  0
 36 44  1  0
 45 36  1  0
 46 42  1  0
 47 46  2  0
 48 37  1  0
 49 41  1  0
 44 50  1  0
 51 40  2  0
 52 42  2  0
 53 46  1  0
 34 54  1  6
 55 48  2  0
 56 38  1  0
 43 57  1  1
 45 58  1  0
 59 48  1  0
 43 60  1  0
 61 47  1  0
 62 53  1  0
 63 64  1  0
 64 53  2  0
 65 50  1  0
 66 50  1  0
 45 39  1  0
 44 41  1  0
 43 47  1  0
 63 61  2  0
  3 68  1  1
  6 69  1  1
 11 70  1  6
 12 71  1  6
 21 72  1  0
 23 73  1  0
 24 74  1  0
 25 75  1  0
 26 76  1  0
 26 77  1  0
 27 78  1  0
 27 79  1  0
 27 80  1  0
 28 81  1  0
 29 82  1  0
 30 83  1  0
 31 84  1  0
 32 85  1  0
 32 86  1  0
 32 87  1  0
 33 88  1  0
 33 89  1  0
 33 90  1  0
 36 91  1  6
 39 92  1  6
 44 93  1  1
 45 94  1  1
 54 95  1  0
 56 96  1  0
 57 97  1  0
 58 98  1  0
 59 99  1  0
 59100  1  0
 60101  1  0
 60102  1  0
 60103  1  0
 61104  1  0
 62105  1  0
 63106  1  0
 64107  1  0
 65108  1  0
 65109  1  0
 65110  1  0
 66111  1  0
 66112  1  0
 66113  1  0
M  CHG  3  16  -1  49  -1  67   2
M  END
$$$$
