
     RDKit          3D

113118  0  0  0  0  0  0  0  0999 V2000
   -1.3074    1.4541   -1.1757 C   0  0  2  0  0  0  0  0  0  0  0  0
    0.9640    1.0223   -0.2399 C   0  0  0  0  0  0  0  0  0  0  0  0
   -1.5434   -0.0517   -1.0734 C   0  0  2  0  0  0  0  0  0  0  0  0
   -3.5916    1.5854    0.0614 C   0  0  0  0  0  0  0  0  0  0  0  0
   -0.1243    1.8309   -0.2998 C   0  0  0  0  0  0  0  0  0  0  0  0
    1.0964   -0.1773   -1.1421 C   0  0  1  0  0  0  0  0  0  0  0  0
   -2.6347    2.1762   -0.9262 C   0  0  0  0  0  0  0  0  0  0  0  0
   -3.2735    0.4721    0.7778 C   0  0  0  0  0  0  0  0  0  0  0  0
    2.1074    1.3732    0.6394 C   0  0  0  0  0  0  0  0  0  0  0  0
    2.1283   -1.2802   -0.7388 C   0  0  1  0  0  0  0  0  0  0  0  0
   -1.9880   -0.3711    0.4017 C   0  0  1  0  0  0  0  0  0  0  0  0
   -0.2836   -0.7780   -1.6045 C   0  0  2  0  0  0  0  0  0  0  0  0
    3.2849    0.4724    0.7230 C   0  0  0  0  0  0  0  0  0  0  0  0
    3.3054   -0.7685    0.0649 C   0  0  0  0  0  0  0  0  0  0  0  0
   -4.8246    2.3839    0.2942 C   0  0  0  0  0  0  0  0  0  0  0  0
   -3.9222    0.0124    1.7635 O   0  0  0  0  0  0  0  0  0  0  0  0
   -1.9443   -1.8510    0.5924 N   0  0  0  0  0  0  0  0  0  0  0  0
   -2.8783    3.2194   -1.5434 O   0  0  0  0  0  0  0  0  0  0  0  0
    2.0874    2.3973    1.3332 O   0  0  0  0  0  0  0  0  0  0  0  0
    4.3877    0.8607    1.5167 C   0  0  0  0  0  0  0  0  0  0  0  0
   -0.9280    1.8159   -2.5294 O   0  0  0  0  0  0  0  0  0  0  0  0
   -5.8289    2.3170   -0.4146 O   0  0  0  0  0  0  0  0  0  0  0  0
   -0.2590    2.9962    0.4338 O   0  0  0  0  0  0  0  0  0  0  0  0
    1.5258   -2.3124    0.0467 O   0  0  0  0  0  0  0  0  0  0  0  0
   -0.2954   -0.6738   -3.0573 O   0  0  0  0  0  0  0  0  0  0  0  0
   -4.7272    3.3398    1.2641 N   0  0  0  0  0  0  0  0  0  0  0  0
    2.5954   -1.9682   -2.0514 C   0  0  0  0  0  0  0  0  0  0  0  0
    4.4469   -1.5871    0.2516 C   0  0  0  0  0  0  0  0  0  0  0  0
    4.4360    2.0379    2.2243 O   0  0  0  0  0  0  0  0  0  0  0  0
    5.5447   -1.1769    1.0147 C   0  0  0  0  0  0  0  0  0  0  0  0
    5.5128    0.0512    1.6537 C   0  0  0  0  0  0  0  0  0  0  0  0
   -1.8232   -2.2573    1.9941 C   0  0  0  0  0  0  0  0  0  0  0  0
   -3.0352   -2.5762   -0.0481 C   0  0  0  0  0  0  0  0  0  0  0  0
   -1.2415    1.1573   -1.2229 C   0  0  2  0  0  0  0  0  0  0  0  0
    0.9979    1.0137   -0.1495 C   0  0  0  0  0  0  0  0  0  0  0  0
   -1.4742   -0.3223   -0.9210 C   0  0  2  0  0  0  0  0  0  0  0  0
   -3.7009    1.5461   -0.3542 C   0  0  0  0  0  0  0  0  0  0  0  0
   -0.1514    1.7152   -0.3157 C   0  0  0  0  0  0  0  0  0  0  0  0
    1.1857   -0.2498   -0.9490 C   0  0  1  0  0  0  0  0  0  0  0  0
   -2.5536    1.9544   -1.2348 C   0  0  0  0  0  0  0  0  0  0  0  0
   -3.5743    0.4425    0.4435 C   0  0  0  0  0  0  0  0  0  0  0  0
    2.0608    1.5029    0.7540 C   0  0  0  0  0  0  0  0  0  0  0  0
    2.5103   -1.0608   -0.7415 C   0  0  1  0  0  0  0  0  0  0  0  0
   -2.2570   -0.4246    0.4345 C   0  0  1  0  0  0  0  0  0  0  0  0
   -0.1158   -1.1085   -0.8760 C   0  0  2  0  0  0  0  0  0  0  0  0
    3.2640    0.6747    0.9895 C   0  0  0  0  0  0  0  0  0  0  0  0
    3.4775   -0.5181    0.2937 C   0  0  0  0  0  0  0  0  0  0  0  0
   -4.9498    2.4342   -0.3435 C   0  0  0  0  0  0  0  0  0  0  0  0
   -4.4253    0.0115    1.2741 O   0  0  0  0  0  0  0  0  0  0  0  0
   -2.2847   -1.8631    0.8392 N   0  0  0  0  0  0  0  0  0  0  0  0
   -2.6223    2.9462   -1.9864 O   0  0  0  0  0  0  0  0  0  0  0  0
    1.9470    2.5853    1.3463 O   0  0  0  0  0  0  0  0  0  0  0  0
    4.2078    1.0873    1.9553 C   0  0  0  0  0  0  0  0  0  0  0  0
   -0.7316    1.3055   -2.5730 O   0  0  0  0  0  0  0  0  0  0  0  0
   -5.8474    2.4765    0.4929 O   0  0  0  0  0  0  0  0  0  0  0  0
   -0.4086    2.9247    0.2860 O   0  0  0  0  0  0  0  0  0  0  0  0
    2.2218   -2.4124   -0.3454 O   0  0  0  0  0  0  0  0  0  0  0  0
   -0.0927   -2.0575   -1.9520 O   0  0  0  0  0  0  0  0  0  0  0  0
   -5.0516    3.3459   -1.3711 N   0  0  0  0  0  0  0  0  0  0  0  0
    3.2186   -1.1908   -2.1164 C   0  0  0  0  0  0  0  0  0  0  0  0
    4.6464   -1.2644    0.5999 C   0  0  0  0  0  0  0  0  0  0  0  0
    4.0717    2.2375    2.7004 O   0  0  0  0  0  0  0  0  0  0  0  0
    5.5807   -0.8341    1.5443 C   0  0  0  0  0  0  0  0  0  0  0  0
    5.3617    0.3532    2.2231 C   0  0  0  0  0  0  0  0  0  0  0  0
   -3.2485   -2.6799    0.1157 C   0  0  0  0  0  0  0  0  0  0  0  0
   -2.4039   -2.0734    2.2801 C   0  0  0  0  0  0  0  0  0  0  0  0
    0.0000    0.0000    0.0000 Ca  0  0  0  0  0 15  0  0  0  0  0  0
   -2.3676   -0.3124   -1.7592 H   0  0  0  0  0  0  0  0  0  0  0  0
    1.5475    0.2903   -2.0422 H   0  0  0  0  0  0  0  0  0  0  0  0
   -1.2065    0.0074    1.0763 H   0  0  0  0  0  0  0  0  0  0  0  0
   -0.3452   -1.8510   -1.4160 H   0  0  0  0  0  0  0  0  0  0  0  0
   -1.2695    2.7327   -2.6317 H   0  0  0  0  0  0  0  0  0  0  0  0
    0.5162    3.0762    1.0333 H   0  0  0  0  0  0  0  0  0  0  0  0
    1.2109   -1.9491    0.8977 H   0  0  0  0  0  0  0  0  0  0  0  0
   -0.5132    0.2635   -3.2525 H   0  0  0  0  0  0  0  0  0  0  0  0
   -5.4656    4.0075    1.3645 H   0  0  0  0  0  0  0  0  0  0  0  0
   -4.0216    3.3155    1.9945 H   0  0  0  0  0  0  0  0  0  0  0  0
    3.1686   -1.2746   -2.6823 H   0  0  0  0  0  0  0  0  0  0  0  0
    1.7399   -2.3280   -2.6390 H   0  0  0  0  0  0  0  0  0  0  0  0
    3.2125   -2.8582   -1.8822 H   0  0  0  0  0  0  0  0  0  0  0  0
    4.4940   -2.5819   -0.1922 H   0  0  0  0  0  0  0  0  0  0  0  0
    3.5877    2.5170    2.0736 H   0  0  0  0  0  0  0  0  0  0  0  0
    6.4111   -1.8271    1.1298 H   0  0  0  0  0  0  0  0  0  0  0  0
    6.3456    0.3752    2.2761 H   0  0  0  0  0  0  0  0  0  0  0  0
   -2.7356   -2.1393    2.5831 H   0  0  0  0  0  0  0  0  0  0  0  0
   -1.0151   -1.7124    2.4983 H   0  0  0  0  0  0  0  0  0  0  0  0
   -1.5398   -3.3228    2.0665 H   0  0  0  0  0  0  0  0  0  0  0  0
   -2.8254   -3.6583   -0.0111 H   0  0  0  0  0  0  0  0  0  0  0  0
   -4.0188   -2.4246    0.4185 H   0  0  0  0  0  0  0  0  0  0  0  0
   -3.1203   -2.3342   -1.1108 H   0  0  0  0  0  0  0  0  0  0  0  0
   -2.0956   -0.7449   -1.7268 H   0  0  0  0  0  0  0  0  0  0  0  0
    1.2516    0.1045   -1.9901 H   0  0  0  0  0  0  0  0  0  0  0  0
   -1.6189    0.0642    1.1862 H   0  0  0  0  0  0  0  0  0  0  0  0
   -0.0683   -1.7009    0.0406 H   0  0  0  0  0  0  0  0  0  0  0  0
   -1.0172    2.2008   -2.8497 H   0  0  0  0  0  0  0  0  0  0  0  0
    0.3488    3.1551    0.8688 H   0  0  0  0  0  0  0  0  0  0  0  0
    2.0048   -2.4097    0.6062 H   0  0  0  0  0  0  0  0  0  0  0  0
    0.5560   -2.7432   -1.6984 H   0  0  0  0  0  0  0  0  0  0  0  0
   -5.7971    4.0293   -1.2724 H   0  0  0  0  0  0  0  0  0  0  0  0
   -4.2145    3.5863   -1.9031 H   0  0  0  0  0  0  0  0  0  0  0  0
    4.1563   -1.7569   -2.0660 H   0  0  0  0  0  0  0  0  0  0  0  0
    2.5852   -1.7280   -2.8352 H   0  0  0  0  0  0  0  0  0  0  0  0
    3.4523   -0.2035   -2.5465 H   0  0  0  0  0  0  0  0  0  0  0  0
    4.8378   -2.2148    0.0982 H   0  0  0  0  0  0  0  0  0  0  0  0
    3.2218    2.6602    2.4478 H   0  0  0  0  0  0  0  0  0  0  0  0
    6.4722   -1.4180    1.7522 H   0  0  0  0  0  0  0  0  0  0  0  0
    6.0671    0.7046    2.9675 H   0  0  0  0  0  0  0  0  0  0  0  0
   -4.2747   -2.6193    0.5047 H   0  0  0  0  0  0  0  0  0  0  0  0
   -2.9403   -3.7357    0.1764 H   0  0  0  0  0  0  0  0  0  0  0  0
   -3.2779   -2.4402   -0.9526 H   0  0  0  0  0  0  0  0  0  0  0  0
   -1.9057   -3.0115    2.5757 H   0  0  0  0  0  0  0  0  0  0  0  0
   -3.4465   -2.1512    2.6261 H   0  0  0  0  0  0  0  0  0  0  0  0
   -1.9137   -1.2820    2.8700 H   0  0  0  0  0  0  0  0  0  0  0  0
  2  5  2  0
  3  1  1  0
  4  7  1  0
  5  1  1  0
  6  2  1  0
  7  1  1  0
  8  4  2  0
  9  2  1  0
 10  6  1  0
  3 11  1  0
 12  3  1  0
 13  9  1  0
 14 13  2  0
 15  4  1  0
 16  8  1  0
 11 17  1  0
 18  7  2  0
 19  9  2  0
 20 13  1  0
  1 21  1  6
 22 15  2  0
 23  5  1  0
 10 24  1  1
 12 25  1  0
 26 15  1  0
 10 27  1  0
 28 14  1  0
 29 20  1  0
 30 31  1  0
 31 20  2  0
 32 17  1  0
 33 17  1  0
 12  6  1  0
 11  8  1  0
 10 14  1  0
 30 28  2  0
 35 38  2  0
 36 34  1  0
 37 40  1  0
 38 34  1  0
 39 35  1  0
 40 34  1  0
 41 37  2  0
 42 35  1  0
 43 39  1  0
 36 44  1  0
 45 36  1  0
 46 42  1  0
 47 46  2  0
 48 37  1  0
 49 41  1  0
 44 50  1  0
 51 40  2  0
 52 42  2  0
 53 46  1  0
 34 54  1  6
 55 48  2  0
 56 38  1  0
 43 57  1  1
 45 58  1  0
 59 48  1  0
 43 60  1  0
 61 47  1  0
 62 53  1  0
 63 64  1  0
 64 53  2  0
 65 50  1  0
 66 50  1  0
 45 39  1  0
 44 41  1  0
 43 47  1  0
 63 61  2  0
  3 68  1  6
  6 69  1  6
 11 70  1  1
 12 71  1  6
 21 72  1  0
 23 73  1  0
 24 74  1  0
 25 75  1  0
 26 76  1  0
 26 77  1  0
 27 78  1  0
 27 79  1  0
 27 80  1  0
 28 81  1  0
 29 82  1  0
 30 83  1  0
 31 84  1  0
 32 85  1  0
 32 86  1  0
 32 87  1  0
 33 88  1  0
 33 89  1  0
 33 90  1  0
 36 91  1  6
 39 92  1  6
 44 93  1  1
 45 94  1  1
 54 95  1  0
 56 96  1  0
 57 97  1  0
 58 98  1  0
 59 99  1  0
 59100  1  0
 60101  1  0
 60102  1  0
 60103  1  0
 61104  1  0
 62105  1  0
 63106  1  0
 64107  1  0
 65108  1  0
 65109  1  0
 65110  1  0
 66111  1  0
 66112  1  0
 66113  1  0
M  CHG  3  16  -1  49  -1  67   2
M  END
$$$$
