
     RDKit          3D

113118  0  0  0  0  0  0  0  0999 V2000
   -1.0404    1.3861    0.1071 C   0  0  2  0  0  0  0  0  0  0  0  0
    1.4371    1.1387   -0.1791 C   0  0  0  0  0  0  0  0  0  0  0  0
   -1.2227    0.1316   -0.7461 C   0  0  2  0  0  0  0  0  0  0  0  0
   -3.0769    0.9558    1.5057 C   0  0  0  0  0  0  0  0  0  0  0  0
    0.3809    1.8891    0.1593 C   0  0  0  0  0  0  0  0  0  0  0  0
    1.3689   -0.3103   -0.5676 C   0  0  1  0  0  0  0  0  0  0  0  0
   -1.5917    1.0503    1.5063 C   0  0  0  0  0  0  0  0  0  0  0  0
   -3.6021    0.2856    0.4332 C   0  0  0  0  0  0  0  0  0  0  0  0
    2.7959    1.7353   -0.2782 C   0  0  0  0  0  0  0  0  0  0  0  0
    2.3548   -1.1444    0.3280 C   0  0  1  0  0  0  0  0  0  0  0  0
   -2.5882   -0.6010   -0.3911 C   0  0  1  0  0  0  0  0  0  0  0  0
   -0.0699   -0.8916   -0.5742 C   0  0  2  0  0  0  0  0  0  0  0  0
    3.9381    0.8646    0.1079 C   0  0  0  0  0  0  0  0  0  0  0  0
    3.7385   -0.4902    0.4327 C   0  0  0  0  0  0  0  0  0  0  0  0
   -3.8569    1.8158    2.4404 C   0  0  0  0  0  0  0  0  0  0  0  0
   -4.7955    0.2657    0.0201 O   0  0  0  0  0  0  0  0  0  0  0  0
   -2.9673   -1.4564   -1.5542 N   0  0  0  0  0  0  0  0  0  0  0  0
   -0.8988    0.7867    2.4858 O   0  0  0  0  0  0  0  0  0  0  0  0
    3.0127    2.8701   -0.6953 O   0  0  0  0  0  0  0  0  0  0  0  0
    5.2280    1.4299    0.1752 C   0  0  0  0  0  0  0  0  0  0  0  0
   -1.7505    2.4946   -0.4986 O   0  0  0  0  0  0  0  0  0  0  0  0
   -3.3576    2.7483    3.0664 O   0  0  0  0  0  0  0  0  0  0  0  0
    0.5154    3.2323    0.4764 O   0  0  0  0  0  0  0  0  0  0  0  0
    1.8561   -1.2548    1.6700 O   0  0  0  0  0  0  0  0  0  0  0  0
   -0.1472   -1.8376   -1.6580 O   0  0  0  0  0  0  0  0  0  0  0  0
   -5.1870    1.5344    2.5218 N   0  0  0  0  0  0  0  0  0  0  0  0
    2.4546   -2.5830   -0.2187 C   0  0  0  0  0  0  0  0  0  0  0  0
    4.8512   -1.2163    0.9078 C   0  0  0  0  0  0  0  0  0  0  0  0
    5.4954    2.7386   -0.1459 O   0  0  0  0  0  0  0  0  0  0  0  0
    6.1230   -0.6475    0.9747 C   0  0  0  0  0  0  0  0  0  0  0  0
    6.3158    0.6755    0.5928 C   0  0  0  0  0  0  0  0  0  0  0  0
   -3.5832   -0.7095   -2.6568 C   0  0  0  0  0  0  0  0  0  0  0  0
   -3.8493   -2.5612   -1.1595 C   0  0  0  0  0  0  0  0  0  0  0  0
    1.1881    0.2428    1.4530 C   0  0  2  0  0  0  0  0  0  0  0  0
   -1.3143    0.3510    1.0582 C   0  0  0  0  0  0  0  0  0  0  0  0
    1.2029   -0.9228    0.4528 C   0  0  2  0  0  0  0  0  0  0  0  0
    2.6612    1.3773   -0.3929 C   0  0  0  0  0  0  0  0  0  0  0  0
   -0.2309    0.7075    1.7805 C   0  0  0  0  0  0  0  0  0  0  0  0
   -1.2611   -0.4886   -0.1986 C   0  0  1  0  0  0  0  0  0  0  0  0
    2.0524    1.4495    0.9756 C   0  0  0  0  0  0  0  0  0  0  0  0
    2.9495    0.1576   -0.9331 C   0  0  0  0  0  0  0  0  0  0  0  0
   -2.6764    0.7809    1.5031 C   0  0  0  0  0  0  0  0  0  0  0  0
   -2.2001    0.1383   -1.2925 C   0  0  1  0  0  0  0  0  0  0  0  0
    2.6570   -1.1048   -0.0772 C   0  0  1  0  0  0  0  0  0  0  0  0
    0.1856   -0.7079   -0.6984 C   0  0  2  0  0  0  0  0  0  0  0  0
   -3.8308    0.5317    0.6133 C   0  0  0  0  0  0  0  0  0  0  0  0
   -3.6270    0.1883   -0.7361 C   0  0  0  0  0  0  0  0  0  0  0  0
    2.8203    2.6541   -1.1641 C   0  0  0  0  0  0  0  0  0  0  0  0
    3.3480   -0.1653   -2.0935 O   0  0  0  0  0  0  0  0  0  0  0  0
    3.6483   -1.3445    1.0259 N   0  0  0  0  0  0  0  0  0  0  0  0
    2.2720    2.4305    1.6914 O   0  0  0  0  0  0  0  0  0  0  0  0
   -2.8607    1.3018    2.6038 O   0  0  0  0  0  0  0  0  0  0  0  0
   -5.1361    0.6679    1.1253 C   0  0  0  0  0  0  0  0  0  0  0  0
    1.7287   -0.2633    2.6906 O   0  0  0  0  0  0  0  0  0  0  0  0
    2.1002    3.6352   -1.0022 O   0  0  0  0  0  0  0  0  0  0  0  0
   -0.3304    1.4743    2.9369 O   0  0  0  0  0  0  0  0  0  0  0  0
   -1.8880    1.5129   -1.5778 O   0  0  0  0  0  0  0  0  0  0  0  0
    0.2242   -1.8671   -1.5451 O   0  0  0  0  0  0  0  0  0  0  0  0
    3.7827    2.6415   -2.1282 N   0  0  0  0  0  0  0  0  0  0  0  0
   -2.1057   -0.5845   -2.6445 C   0  0  0  0  0  0  0  0  0  0  0  0
   -4.7683   -0.0397   -1.5311 C   0  0  0  0  0  0  0  0  0  0  0  0
   -5.4027    1.0263    2.4238 O   0  0  0  0  0  0  0  0  0  0  0  0
   -6.0630    0.0723   -1.0073 C   0  0  0  0  0  0  0  0  0  0  0  0
   -6.2464    0.4329    0.3216 C   0  0  0  0  0  0  0  0  0  0  0  0
    3.5195   -2.7213    1.5298 C   0  0  0  0  0  0  0  0  0  0  0  0
    5.0300   -1.1701    0.5469 C   0  0  0  0  0  0  0  0  0  0  0  0
    0.0000    0.0000    0.0000 Ca  0  0  0  0  0 15  0  0  0  0  0  0
   -1.2492    0.4551   -1.7970 H   0  0  0  0  0  0  0  0  0  0  0  0
    1.7482   -0.3595   -1.6020 H   0  0  0  0  0  0  0  0  0  0  0  0
   -2.3067   -1.3433    0.3775 H   0  0  0  0  0  0  0  0  0  0  0  0
   -0.2293   -1.4625    0.3460 H   0  0  0  0  0  0  0  0  0  0  0  0
   -2.6886    2.2176   -0.6112 H   0  0  0  0  0  0  0  0  0  0  0  0
   -0.3669    3.6174    0.2893 H   0  0  0  0  0  0  0  0  0  0  0  0
    1.6126   -0.3708    2.0011 H   0  0  0  0  0  0  0  0  0  0  0  0
   -1.1076   -2.0103   -1.8085 H   0  0  0  0  0  0  0  0  0  0  0  0
   -5.5277    0.9750    1.7274 H   0  0  0  0  0  0  0  0  0  0  0  0
   -5.7854    2.2625    2.8781 H   0  0  0  0  0  0  0  0  0  0  0  0
    2.8825   -2.6017   -1.2285 H   0  0  0  0  0  0  0  0  0  0  0  0
    3.0619   -3.2360    0.4191 H   0  0  0  0  0  0  0  0  0  0  0  0
    1.4758   -3.0700   -0.2384 H   0  0  0  0  0  0  0  0  0  0  0  0
    4.7323   -2.2438    1.2445 H   0  0  0  0  0  0  0  0  0  0  0  0
    4.6407    3.1612   -0.3905 H   0  0  0  0  0  0  0  0  0  0  0  0
    6.9638   -1.2388    1.3251 H   0  0  0  0  0  0  0  0  0  0  0  0
    7.3007    1.1281    0.6406 H   0  0  0  0  0  0  0  0  0  0  0  0
   -4.6179   -0.3936   -2.4705 H   0  0  0  0  0  0  0  0  0  0  0  0
   -3.0017    0.1745   -2.9363 H   0  0  0  0  0  0  0  0  0  0  0  0
   -3.5983   -1.3433   -3.5535 H   0  0  0  0  0  0  0  0  0  0  0  0
   -3.3947   -3.1494   -0.3553 H   0  0  0  0  0  0  0  0  0  0  0  0
   -4.8469   -2.2432   -0.8417 H   0  0  0  0  0  0  0  0  0  0  0  0
   -3.9787   -3.2500   -2.0034 H   0  0  0  0  0  0  0  0  0  0  0  0
    0.9087   -1.8516    0.9677 H   0  0  0  0  0  0  0  0  0  0  0  0
   -1.6656   -1.4819    0.0564 H   0  0  0  0  0  0  0  0  0  0  0  0
    2.6632   -1.9999   -0.7192 H   0  0  0  0  0  0  0  0  0  0  0  0
    0.4471    0.1502   -1.3228 H   0  0  0  0  0  0  0  0  0  0  0  0
    2.6716   -0.4488    2.4851 H   0  0  0  0  0  0  0  0  0  0  0  0
   -1.2810    1.6411    3.1338 H   0  0  0  0  0  0  0  0  0  0  0  0
   -1.0727    1.7917   -1.1255 H   0  0  0  0  0  0  0  0  0  0  0  0
    1.0351   -1.7548   -2.0919 H   0  0  0  0  0  0  0  0  0  0  0  0
    4.0452    1.6926   -2.4261 H   0  0  0  0  0  0  0  0  0  0  0  0
    3.7403    3.3707   -2.8199 H   0  0  0  0  0  0  0  0  0  0  0  0
   -2.7356   -0.1075   -3.4045 H   0  0  0  0  0  0  0  0  0  0  0  0
   -2.3786   -1.6405   -2.5677 H   0  0  0  0  0  0  0  0  0  0  0  0
   -1.0987   -0.5053   -3.0649 H   0  0  0  0  0  0  0  0  0  0  0  0
   -4.6842   -0.2921   -2.5841 H   0  0  0  0  0  0  0  0  0  0  0  0
   -4.5461    1.2361    2.8566 H   0  0  0  0  0  0  0  0  0  0  0  0
   -6.9273   -0.1065   -1.6451 H   0  0  0  0  0  0  0  0  0  0  0  0
   -7.2470    0.5419    0.7333 H   0  0  0  0  0  0  0  0  0  0  0  0
    2.5416   -2.8957    1.9819 H   0  0  0  0  0  0  0  0  0  0  0  0
    4.2492   -2.9097    2.3225 H   0  0  0  0  0  0  0  0  0  0  0  0
    3.6694   -3.4686    0.7431 H   0  0  0  0  0  0  0  0  0  0  0  0
    5.7413   -1.4349    1.3393 H   0  0  0  0  0  0  0  0  0  0  0  0
    5.2555   -1.7983   -0.3234 H   0  0  0  0  0  0  0  0  0  0  0  0
    5.2400   -0.1229    0.3088 H   0  0  0  0  0  0  0  0  0  0  0  0
  2  5  2  0
  3  1  1  0
  4  7  1  0
  5  1  1  0
  6  2  1  0
  7  1  1  0
  8  4  2  0
  9  2  1  0
 10  6  1  0
  3 11  1  0
 12  3  1  0
 13  9  1  0
 14 13  2  0
 15  4  1  0
 16  8  1  0
 11 17  1  0
 18  7  2  0
 19  9  2  0
 20 13  1  0
  1 21  1  6
 22 15  2  0
 23  5  1  0
 10 24  1  1
 12 25  1  0
 26 15  1  0
 10 27  1  0
 28 14  1  0
 29 20  1  0
 30 31  1  0
 31 20  2  0
 32 17  1  0
 33 17  1  0
 12  6  1  0
 11  8  1  0
 10 14  1  0
 30 28  2  0
 35 38  2  0
 36 34  1  0
 37 40  1  0
 38 34  1  0
 39 35  1  0
 40 34  1  0
 41 37  2  0
 42 35  1  0
 43 39  1  0
 36 44  1  0
 45 36  1  0
 46 42  1  0
 47 46  2  0
 48 37  1  0
 49 41  1  0
 44 50  1  0
 51 40  2  0
 52 42  2  0
 53 46  1  0
 34 54  1  1
 55 48  2  0
 56 38  1  0
 43 57  1  6
 45 58  1  0
 59 48  1  0
 43 60  1  0
 61 47  1  0
 62 53  1  0
 63 64  1  0
 64 53  2  0
 65 50  1  0
 66 50  1  0
 45 39  1  0
 44 41  1  0
 43 47  1  0
 63 61  2  0
  3 68  1  6
  6 69  1  6
 11 70  1  1
 12 71  1  1
 21 72  1  0
 23 73  1  0
 24 74  1  0
 25 75  1  0
 26 76  1  0
 26 77  1  0
 27 78  1  0
 27 79  1  0
 27 80  1  0
 28 81  1  0
 29 82  1  0
 30 83  1  0
 31 84  1  0
 32 85  1  0
 32 86  1  0
 32 87  1  0
 33 88  1  0
 33 89  1  0
 33 90  1  0
 36 91  1  1
 39 92  1  1
 44 93  1  6
 45 94  1  6
 54 95  1  0
 56 96  1  0
 57 97  1  0
 58 98  1  0
 59 99  1  0
 59100  1  0
 60101  1  0
 60102  1  0
 60103  1  0
 61104  1  0
 62105  1  0
 63106  1  0
 64107  1  0
 65108  1  0
 65109  1  0
 65110  1  0
 66111  1  0
 66112  1  0
 66113  1  0
M  CHG  3  16  -1  49  -1  67   2
M  END
$$$$
