
     RDKit          3D

113118  0  0  0  0  0  0  0  0999 V2000
   -1.1989    1.7898   -0.5112 C   0  0  2  0  0  0  0  0  0  0  0  0
    1.2188    1.2968    0.0065 C   0  0  0  0  0  0  0  0  0  0  0  0
   -1.3639    0.3909   -1.0940 C   0  0  2  0  0  0  0  0  0  0  0  0
   -3.4495    1.2995    0.7576 C   0  0  0  0  0  0  0  0  0  0  0  0
    0.1241    2.0578    0.1998 C   0  0  0  0  0  0  0  0  0  0  0  0
    1.2648    0.0932   -0.9079 C   0  0  1  0  0  0  0  0  0  0  0  0
   -2.3722    2.2440    0.3635 C   0  0  0  0  0  0  0  0  0  0  0  0
   -3.2987   -0.0377    0.5474 C   0  0  0  0  0  0  0  0  0  0  0  0
    2.5293    1.6160    0.6571 C   0  0  0  0  0  0  0  0  0  0  0  0
    1.7815   -1.1369   -0.0921 C   0  0  1  0  0  0  0  0  0  0  0  0
   -1.9519   -0.5987   -0.0545 C   0  0  1  0  0  0  0  0  0  0  0  0
   -0.0318   -0.0538   -1.7521 C   0  0  2  0  0  0  0  0  0  0  0  0
    3.5150    0.5050    0.8055 C   0  0  0  0  0  0  0  0  0  0  0  0
    3.1872   -0.8174    0.4320 C   0  0  0  0  0  0  0  0  0  0  0  0
   -4.7078    1.8654    1.3951 C   0  0  0  0  0  0  0  0  0  0  0  0
   -4.1252   -0.9552    0.8143 O   0  0  0  0  0  0  0  0  0  0  0  0
   -1.8873   -1.9615   -0.6758 N   0  0  0  0  0  0  0  0  0  0  0  0
   -2.4505    3.4487    0.6687 O   0  0  0  0  0  0  0  0  0  0  0  0
    2.8651    2.7454    1.0141 O   0  0  0  0  0  0  0  0  0  0  0  0
    4.7979    0.7917    1.3178 C   0  0  0  0  0  0  0  0  0  0  0  0
   -1.1656    2.7226   -1.6400 O   0  0  0  0  0  0  0  0  0  0  0  0
   -5.4450    1.3213    2.2148 O   0  0  0  0  0  0  0  0  0  0  0  0
    0.1919    3.1905    1.0054 O   0  0  0  0  0  0  0  0  0  0  0  0
    0.9840   -1.3271    1.0736 O   0  0  0  0  0  0  0  0  0  0  0  0
    0.1556    0.7604   -2.9508 O   0  0  0  0  0  0  0  0  0  0  0  0
   -5.0058    3.1634    1.0463 N   0  0  0  0  0  0  0  0  0  0  0  0
    1.7266   -2.4327   -0.9168 C   0  0  0  0  0  0  0  0  0  0  0  0
    4.1622   -1.8169    0.6207 C   0  0  0  0  0  0  0  0  0  0  0  0
    5.1886    2.0529    1.7013 O   0  0  0  0  0  0  0  0  0  0  0  0
    5.4293   -1.5142    1.1257 C   0  0  0  0  0  0  0  0  0  0  0  0
    5.7486   -0.2094    1.4708 C   0  0  0  0  0  0  0  0  0  0  0  0
   -1.8983   -3.0320    0.3264 C   0  0  0  0  0  0  0  0  0  0  0  0
   -2.9068   -2.2218   -1.6928 C   0  0  0  0  0  0  0  0  0  0  0  0
   -1.0958    1.3054   -0.5199 C   0  0  2  0  0  0  0  0  0  0  0  0
    1.2274    0.9530    0.3800 C   0  0  0  0  0  0  0  0  0  0  0  0
   -1.2914   -0.2545   -0.5716 C   0  0  2  0  0  0  0  0  0  0  0  0
   -3.6538    1.5621   -0.7643 C   0  0  0  0  0  0  0  0  0  0  0  0
    0.1297    1.7398    0.3051 C   0  0  0  0  0  0  0  0  0  0  0  0
    1.2404   -0.3426   -0.3878 C   0  0  1  0  0  0  0  0  0  0  0  0
   -2.4081    2.0469   -0.1000 C   0  0  0  0  0  0  0  0  0  0  0  0
   -3.6608    0.2080   -0.9170 C   0  0  0  0  0  0  0  0  0  0  0  0
    2.4083    1.3210    1.1993 C   0  0  0  0  0  0  0  0  0  0  0  0
    2.5074   -1.2452   -0.2584 C   0  0  1  0  0  0  0  0  0  0  0  0
   -2.6862   -0.5987    0.0452 C   0  0  1  0  0  0  0  0  0  0  0  0
   -0.0954   -1.0146    0.0302 C   0  0  2  0  0  0  0  0  0  0  0  0
    3.7056    0.7222    0.8417 C   0  0  0  0  0  0  0  0  0  0  0  0
    3.7702   -0.4815    0.1236 C   0  0  0  0  0  0  0  0  0  0  0  0
   -4.5964    2.5368   -1.4168 C   0  0  0  0  0  0  0  0  0  0  0  0
   -4.2456   -0.4892   -1.7864 O   0  0  0  0  0  0  0  0  0  0  0  0
   -2.9123   -2.0539    0.3824 N   0  0  0  0  0  0  0  0  0  0  0  0
   -2.4204    3.0516    0.6216 O   0  0  0  0  0  0  0  0  0  0  0  0
    2.3661    2.0688    2.1755 O   0  0  0  0  0  0  0  0  0  0  0  0
    4.8828    1.3813    1.2463 C   0  0  0  0  0  0  0  0  0  0  0  0
   -0.7970    1.7603   -1.8565 O   0  0  0  0  0  0  0  0  0  0  0  0
   -5.7103    2.2881   -1.8671 O   0  0  0  0  0  0  0  0  0  0  0  0
    0.1168    2.9835    0.9240 O   0  0  0  0  0  0  0  0  0  0  0  0
    2.3374   -2.2314    0.7708 O   0  0  0  0  0  0  0  0  0  0  0  0
   -0.1186   -2.3947   -0.3529 O   0  0  0  0  0  0  0  0  0  0  0  0
   -4.1818    3.8466   -1.4251 N   0  0  0  0  0  0  0  0  0  0  0  0
    2.6952   -2.0159   -1.5942 C   0  0  0  0  0  0  0  0  0  0  0  0
    5.0602   -0.9968   -0.1538 C   0  0  0  0  0  0  0  0  0  0  0  0
    4.8810    2.5450    1.9779 O   0  0  0  0  0  0  0  0  0  0  0  0
    6.2245   -0.3301    0.2413 C   0  0  0  0  0  0  0  0  0  0  0  0
    6.1354    0.8683    0.9399 C   0  0  0  0  0  0  0  0  0  0  0  0
   -4.3535   -2.4135    0.3458 C   0  0  0  0  0  0  0  0  0  0  0  0
   -2.4871   -2.3601    1.7678 C   0  0  0  0  0  0  0  0  0  0  0  0
    0.0000    0.0000    0.0000 Ca  0  0  0  0  0 15  0  0  0  0  0  0
   -2.0961    0.4853   -1.9125 H   0  0  0  0  0  0  0  0  0  0  0  0
    2.0495    0.3106   -1.6501 H   0  0  0  0  0  0  0  0  0  0  0  0
   -1.2615   -0.6106    0.7953 H   0  0  0  0  0  0  0  0  0  0  0  0
   -0.1272   -1.0546   -2.1707 H   0  0  0  0  0  0  0  0  0  0  0  0
   -2.0858    2.7941   -1.9656 H   0  0  0  0  0  0  0  0  0  0  0  0
   -0.6374    3.7062    0.9064 H   0  0  0  0  0  0  0  0  0  0  0  0
    1.3127   -2.1026    1.5560 H   0  0  0  0  0  0  0  0  0  0  0  0
   -0.0043    1.6928   -2.6920 H   0  0  0  0  0  0  0  0  0  0  0  0
   -5.7312    3.5796    1.6056 H   0  0  0  0  0  0  0  0  0  0  0  0
   -4.2501    3.7646    0.7328 H   0  0  0  0  0  0  0  0  0  0  0  0
    0.7105   -2.6740   -1.2351 H   0  0  0  0  0  0  0  0  0  0  0  0
    2.3673   -2.3733   -1.8032 H   0  0  0  0  0  0  0  0  0  0  0  0
    2.0247   -3.3095   -0.3269 H   0  0  0  0  0  0  0  0  0  0  0  0
    3.9610   -2.8544    0.3743 H   0  0  0  0  0  0  0  0  0  0  0  0
    4.4077    2.6431    1.6005 H   0  0  0  0  0  0  0  0  0  0  0  0
    6.1691   -2.2986    1.2483 H   0  0  0  0  0  0  0  0  0  0  0  0
    6.7296    0.0355    1.8711 H   0  0  0  0  0  0  0  0  0  0  0  0
   -2.8412   -3.1364    0.8671 H   0  0  0  0  0  0  0  0  0  0  0  0
   -1.7036   -3.9921   -0.1655 H   0  0  0  0  0  0  0  0  0  0  0  0
   -1.0966   -2.9006    1.0575 H   0  0  0  0  0  0  0  0  0  0  0  0
   -2.6037   -3.0991   -2.2776 H   0  0  0  0  0  0  0  0  0  0  0  0
   -3.9001   -2.4447   -1.2863 H   0  0  0  0  0  0  0  0  0  0  0  0
   -3.0049   -1.4013   -2.4058 H   0  0  0  0  0  0  0  0  0  0  0  0
   -1.3164   -0.5811   -1.6258 H   0  0  0  0  0  0  0  0  0  0  0  0
    1.1813   -0.0678   -1.4537 H   0  0  0  0  0  0  0  0  0  0  0  0
   -2.7640   -0.0874    1.0177 H   0  0  0  0  0  0  0  0  0  0  0  0
   -0.1529   -0.9901    1.1238 H   0  0  0  0  0  0  0  0  0  0  0  0
   -1.5002    1.4068   -2.4401 H   0  0  0  0  0  0  0  0  0  0  0  0
   -0.7884    3.3606    0.8783 H   0  0  0  0  0  0  0  0  0  0  0  0
    1.5027   -2.6979    0.5538 H   0  0  0  0  0  0  0  0  0  0  0  0
   -1.0766   -2.6309   -0.4298 H   0  0  0  0  0  0  0  0  0  0  0  0
   -3.4451    4.1573   -0.8011 H   0  0  0  0  0  0  0  0  0  0  0  0
   -4.8877    4.5115   -1.6999 H   0  0  0  0  0  0  0  0  0  0  0  0
    1.7638   -2.4754   -1.9366 H   0  0  0  0  0  0  0  0  0  0  0  0
    3.4041   -2.8482   -1.4962 H   0  0  0  0  0  0  0  0  0  0  0  0
    3.0505   -1.3497   -2.3907 H   0  0  0  0  0  0  0  0  0  0  0  0
    5.1776   -1.9540   -0.6610 H   0  0  0  0  0  0  0  0  0  0  0  0
    3.9542    2.6982    2.2708 H   0  0  0  0  0  0  0  0  0  0  0  0
    7.2014   -0.7590    0.0198 H   0  0  0  0  0  0  0  0  0  0  0  0
    7.0295    1.3901    1.2652 H   0  0  0  0  0  0  0  0  0  0  0  0
   -4.5265   -3.4007    0.8002 H   0  0  0  0  0  0  0  0  0  0  0  0
   -4.9716   -1.6808    0.8823 H   0  0  0  0  0  0  0  0  0  0  0  0
   -4.7207   -2.5485   -0.6756 H   0  0  0  0  0  0  0  0  0  0  0  0
   -2.7530   -3.3921    2.0469 H   0  0  0  0  0  0  0  0  0  0  0  0
   -2.9345   -1.6928    2.5188 H   0  0  0  0  0  0  0  0  0  0  0  0
   -1.4017   -2.3341    1.8863 H   0  0  0  0  0  0  0  0  0  0  0  0
  2  5  2  0
  3  1  1  0
  4  7  1  0
  5  1  1  0
  6  2  1  0
  7  1  1  0
  8  4  2  0
  9  2  1  0
 10  6  1  0
  3 11  1  0
 12  3  1  0
 13  9  1  0
 14 13  2  0
 15  4  1  0
 16  8  1  0
 11 17  1  0
 18  7  2  0
 19  9  2  0
 20 13  1  0
  1 21  1  6
 22 15  2  0
 23  5  1  0
 10 24  1  1
 12 25  1  0
 26 15  1  0
 10 27  1  0
 28 14  1  0
 29 20  1  0
 30 31  1  0
 31 20  2  0
 32 17  1  0
 33 17  1  0
 12  6  1  0
 11  8  1  0
 10 14  1  0
 30 28  2  0
 35 38  2  0
 36 34  1  0
 37 40  1  0
 38 34  1  0
 39 35  1  0
 40 34  1  0
 41 37  2  0
 42 35  1  0
 43 39  1  0
 36 44  1  0
 45 36  1  0
 46 42  1  0
 47 46  2  0
 48 37  1  0
 49 41  1  0
 44 50  1  0
 51 40  2  0
 52 42  2  0
 53 46  1  0
 34 54  1  6
 55 48  2  0
 56 38  1  0
 43 57  1  1
 45 58  1  0
 59 48  1  0
 43 60  1  0
 61 47  1  0
 62 53  1  0
 63 64  1  0
 64 53  2  0
 65 50  1  0
 66 50  1  0
 45 39  1  0
 44 41  1  0
 43 47  1  0
 63 61  2  0
  3 68  1  6
  6 69  1  6
 11 70  1  1
 12 71  1  6
 21 72  1  0
 23 73  1  0
 24 74  1  0
 25 75  1  0
 26 76  1  0
 26 77  1  0
 27 78  1  0
 27 79  1  0
 27 80  1  0
 28 81  1  0
 29 82  1  0
 30 83  1  0
 31 84  1  0
 32 85  1  0
 32 86  1  0
 32 87  1  0
 33 88  1  0
 33 89  1  0
 33 90  1  0
 36 91  1  6
 39 92  1  6
 44 93  1  1
 45 94  1  1
 54 95  1  0
 56 96  1  0
 57 97  1  0
 58 98  1  0
 59 99  1  0
 59100  1  0
 60101  1  0
 60102  1  0
 60103  1  0
 61104  1  0
 62105  1  0
 63106  1  0
 64107  1  0
 65108  1  0
 65109  1  0
 65110  1  0
 66111  1  0
 66112  1  0
 66113  1  0
M  CHG  3  16  -1  49  -1  67   2
M  END
$$$$
