
     RDKit          3D

113118  0  0  0  0  0  0  0  0999 V2000
   -1.4921    0.5401   -1.1353 C   0  0  2  0  0  0  0  0  0  0  0  0
    0.8599    0.9875   -0.4554 C   0  0  0  0  0  0  0  0  0  0  0  0
   -1.4280   -0.8426   -0.4790 C   0  0  2  0  0  0  0  0  0  0  0  0
   -3.3809    1.2800    0.4229 C   0  0  0  0  0  0  0  0  0  0  0  0
   -0.3879    1.4666   -0.6606 C   0  0  0  0  0  0  0  0  0  0  0  0
    1.1488   -0.4356   -0.8432 C   0  0  1  0  0  0  0  0  0  0  0  0
   -2.9087    1.1261   -0.9681 C   0  0  0  0  0  0  0  0  0  0  0  0
   -2.8917    0.4186    1.3507 C   0  0  0  0  0  0  0  0  0  0  0  0
    1.9210    1.8677    0.0863 C   0  0  0  0  0  0  0  0  0  0  0  0
    2.6138   -0.9607   -0.6275 C   0  0  1  0  0  0  0  0  0  0  0  0
   -2.2364   -0.9172    0.8706 C   0  0  1  0  0  0  0  0  0  0  0  0
    0.0439   -1.3558   -0.2711 C   0  0  2  0  0  0  0  0  0  0  0  0
    3.2439    1.2975    0.4187 C   0  0  0  0  0  0  0  0  0  0  0  0
    3.5695   -0.0236    0.0952 C   0  0  0  0  0  0  0  0  0  0  0  0
   -4.1540    2.4923    0.7919 C   0  0  0  0  0  0  0  0  0  0  0  0
   -2.8800    0.5328    2.6122 O   0  0  0  0  0  0  0  0  0  0  0  0
   -3.2255   -2.0443    0.8891 N   0  0  0  0  0  0  0  0  0  0  0  0
   -3.5617    1.5027   -1.9494 O   0  0  0  0  0  0  0  0  0  0  0  0
    1.7057    3.0658    0.2858 O   0  0  0  0  0  0  0  0  0  0  0  0
    4.1910    2.1056    1.0849 C   0  0  0  0  0  0  0  0  0  0  0  0
   -1.2676    0.3634   -2.5548 O   0  0  0  0  0  0  0  0  0  0  0  0
   -5.3836    2.5477    0.8137 O   0  0  0  0  0  0  0  0  0  0  0  0
   -0.7304    2.7952   -0.4711 O   0  0  0  0  0  0  0  0  0  0  0  0
    2.6324   -2.1698    0.1465 O   0  0  0  0  0  0  0  0  0  0  0  0
    0.2139   -2.6620   -0.8724 O   0  0  0  0  0  0  0  0  0  0  0  0
   -3.3739    3.5681    1.1299 N   0  0  0  0  0  0  0  0  0  0  0  0
    3.2120   -1.3224   -2.0139 C   0  0  0  0  0  0  0  0  0  0  0  0
    4.8512   -0.4970    0.4651 C   0  0  0  0  0  0  0  0  0  0  0  0
    3.9467    3.4124    1.4472 O   0  0  0  0  0  0  0  0  0  0  0  0
    5.7863    0.3171    1.1123 C   0  0  0  0  0  0  0  0  0  0  0  0
    5.4498    1.6283    1.4293 C   0  0  0  0  0  0  0  0  0  0  0  0
   -2.6292   -3.3591    0.7443 C   0  0  0  0  0  0  0  0  0  0  0  0
   -4.3845   -1.8651    0.0186 C   0  0  0  0  0  0  0  0  0  0  0  0
    1.3766    0.5822    1.5838 C   0  0  2  0  0  0  0  0  0  0  0  0
   -0.8727    0.9132    0.5669 C   0  0  0  0  0  0  0  0  0  0  0  0
    1.4391   -0.7880    0.9145 C   0  0  2  0  0  0  0  0  0  0  0  0
    3.2152    1.4917    0.0774 C   0  0  0  0  0  0  0  0  0  0  0  0
    0.2897    1.4550    0.9881 C   0  0  0  0  0  0  0  0  0  0  0  0
   -1.2075   -0.5325    0.8551 C   0  0  1  0  0  0  0  0  0  0  0  0
    2.7875    1.1815    1.4627 C   0  0  0  0  0  0  0  0  0  0  0  0
    2.7595    0.6494   -0.8922 C   0  0  0  0  0  0  0  0  0  0  0  0
   -1.8999    1.7858   -0.0538 C   0  0  0  0  0  0  0  0  0  0  0  0
   -2.3875   -1.0865   -0.0198 C   0  0  1  0  0  0  0  0  0  0  0  0
    2.1406   -0.7411   -0.4954 C   0  0  1  0  0  0  0  0  0  0  0  0
    0.0442   -1.4722    0.8436 C   0  0  2  0  0  0  0  0  0  0  0  0
   -3.2876    1.2838   -0.1436 C   0  0  0  0  0  0  0  0  0  0  0  0
   -3.5528   -0.0934   -0.0639 C   0  0  0  0  0  0  0  0  0  0  0  0
    3.9811    2.7637   -0.1826 C   0  0  0  0  0  0  0  0  0  0  0  0
    2.7501    0.8108   -2.1566 O   0  0  0  0  0  0  0  0  0  0  0  0
    3.1410   -1.8868   -0.4950 N   0  0  0  0  0  0  0  0  0  0  0  0
    3.4665    1.4105    2.4653 O   0  0  0  0  0  0  0  0  0  0  0  0
   -1.6357    2.9055   -0.4797 O   0  0  0  0  0  0  0  0  0  0  0  0
   -4.3362    2.2027   -0.3106 C   0  0  0  0  0  0  0  0  0  0  0  0
    1.0428    0.4168    2.9764 O   0  0  0  0  0  0  0  0  0  0  0  0
    4.6784    3.3359    0.6466 O   0  0  0  0  0  0  0  0  0  0  0  0
    0.5747    2.8092    0.9153 O   0  0  0  0  0  0  0  0  0  0  0  0
   -1.9249   -1.2740   -1.3639 O   0  0  0  0  0  0  0  0  0  0  0  0
   -0.1074   -2.3731    1.9704 O   0  0  0  0  0  0  0  0  0  0  0  0
    3.8656    3.2647   -1.4562 N   0  0  0  0  0  0  0  0  0  0  0  0
   -2.8175   -2.4880    0.4641 C   0  0  0  0  0  0  0  0  0  0  0  0
   -4.9015   -0.5060   -0.1189 C   0  0  0  0  0  0  0  0  0  0  0  0
   -4.1417    3.5494   -0.4510 O   0  0  0  0  0  0  0  0  0  0  0  0
   -5.9451    0.4225   -0.2406 C   0  0  0  0  0  0  0  0  0  0  0  0
   -5.6584    1.7755   -0.3420 C   0  0  0  0  0  0  0  0  0  0  0  0
    4.3266   -1.6692   -1.3323 C   0  0  0  0  0  0  0  0  0  0  0  0
    2.5137   -3.1405   -0.9183 C   0  0  0  0  0  0  0  0  0  0  0  0
    0.0000    0.0000    0.0000 Ca  0  0  0  0  0 15  0  0  0  0  0  0
   -1.9016   -1.5268   -1.1959 H   0  0  0  0  0  0  0  0  0  0  0  0
    1.0121   -0.4619   -1.9343 H   0  0  0  0  0  0  0  0  0  0  0  0
   -1.5165   -1.1797    1.6591 H   0  0  0  0  0  0  0  0  0  0  0  0
    0.2495   -1.4906    0.7987 H   0  0  0  0  0  0  0  0  0  0  0  0
   -1.7847    1.0880   -2.9704 H   0  0  0  0  0  0  0  0  0  0  0  0
    0.0458    3.2703   -0.1010 H   0  0  0  0  0  0  0  0  0  0  0  0
    1.9531   -2.7713   -0.2344 H   0  0  0  0  0  0  0  0  0  0  0  0
   -0.3466   -2.6954   -1.6667 H   0  0  0  0  0  0  0  0  0  0  0  0
   -2.4688    3.3082    1.5108 H   0  0  0  0  0  0  0  0  0  0  0  0
   -3.8683    4.2910    1.6194 H   0  0  0  0  0  0  0  0  0  0  0  0
    4.2154   -1.7534   -1.9356 H   0  0  0  0  0  0  0  0  0  0  0  0
    3.2647   -0.4446   -2.6614 H   0  0  0  0  0  0  0  0  0  0  0  0
    2.5989   -2.0835   -2.5099 H   0  0  0  0  0  0  0  0  0  0  0  0
    5.1352   -1.5298    0.2517 H   0  0  0  0  0  0  0  0  0  0  0  0
    3.0119    3.6107    1.2212 H   0  0  0  0  0  0  0  0  0  0  0  0
    6.7591   -0.0752    1.3886 H   0  0  0  0  0  0  0  0  0  0  0  0
    6.1596    2.2663    1.9488 H   0  0  0  0  0  0  0  0  0  0  0  0
   -1.8076   -3.5054    1.4541 H   0  0  0  0  0  0  0  0  0  0  0  0
   -3.3686   -4.1402    0.9747 H   0  0  0  0  0  0  0  0  0  0  0  0
   -2.2558   -3.5507   -0.2689 H   0  0  0  0  0  0  0  0  0  0  0  0
   -5.0590   -2.7295    0.0844 H   0  0  0  0  0  0  0  0  0  0  0  0
   -4.1119   -1.7549   -1.0376 H   0  0  0  0  0  0  0  0  0  0  0  0
   -4.9896   -1.0020    0.3182 H   0  0  0  0  0  0  0  0  0  0  0  0
    2.0755   -1.4020    1.5707 H   0  0  0  0  0  0  0  0  0  0  0  0
   -1.6022   -0.5196    1.8858 H   0  0  0  0  0  0  0  0  0  0  0  0
    1.3719   -0.9574   -1.2522 H   0  0  0  0  0  0  0  0  0  0  0  0
    0.0028   -2.1237   -0.0350 H   0  0  0  0  0  0  0  0  0  0  0  0
    1.5731    1.1038    3.4327 H   0  0  0  0  0  0  0  0  0  0  0  0
   -0.0299    3.2145    0.2532 H   0  0  0  0  0  0  0  0  0  0  0  0
   -2.4390   -0.7156   -1.9741 H   0  0  0  0  0  0  0  0  0  0  0  0
    0.7594   -2.7709    2.1574 H   0  0  0  0  0  0  0  0  0  0  0  0
    4.5796    3.8946   -1.7731 H   0  0  0  0  0  0  0  0  0  0  0  0
    3.4865    2.5730   -2.1226 H   0  0  0  0  0  0  0  0  0  0  0  0
   -3.2772   -2.4527    1.4590 H   0  0  0  0  0  0  0  0  0  0  0  0
   -3.5224   -2.9525   -0.2361 H   0  0  0  0  0  0  0  0  0  0  0  0
   -1.9790   -3.1883    0.4943 H   0  0  0  0  0  0  0  0  0  0  0  0
   -5.1788   -1.5546   -0.0752 H   0  0  0  0  0  0  0  0  0  0  0  0
   -3.1747    3.7040   -0.5693 H   0  0  0  0  0  0  0  0  0  0  0  0
   -6.9775    0.0788   -0.2882 H   0  0  0  0  0  0  0  0  0  0  0  0
   -6.4628    2.4985   -0.4676 H   0  0  0  0  0  0  0  0  0  0  0  0
    4.9082   -0.8038   -0.9995 H   0  0  0  0  0  0  0  0  0  0  0  0
    4.0916   -1.5794   -2.3961 H   0  0  0  0  0  0  0  0  0  0  0  0
    5.0159   -2.5198   -1.2275 H   0  0  0  0  0  0  0  0  0  0  0  0
    1.7396   -3.4520   -0.2138 H   0  0  0  0  0  0  0  0  0  0  0  0
    2.0796   -3.0740   -1.9230 H   0  0  0  0  0  0  0  0  0  0  0  0
    3.2434   -3.9591   -0.9138 H   0  0  0  0  0  0  0  0  0  0  0  0
  2  5  2  0
  3  1  1  0
  4  7  1  0
  5  1  1  0
  6  2  1  0
  7  1  1  0
  8  4  2  0
  9  2  1  0
 10  6  1  0
  3 11  1  0
 12  3  1  0
 13  9  1  0
 14 13  2  0
 15  4  1  0
 16  8  1  0
 11 17  1  0
 18  7  2  0
 19  9  2  0
 20 13  1  0
  1 21  1  6
 22 15  2  0
 23  5  1  0
 10 24  1  1
 12 25  1  0
 26 15  1  0
 10 27  1  0
 28 14  1  0
 29 20  1  0
 30 31  1  0
 31 20  2  0
 32 17  1  0
 33 17  1  0
 12  6  1  0
 11  8  1  0
 10 14  1  0
 30 28  2  0
 35 38  2  0
 36 34  1  0
 37 40  1  0
 38 34  1  0
 39 35  1  0
 40 34  1  0
 41 37  2  0
 42 35  1  0
 43 39  1  0
 36 44  1  0
 45 36  1  0
 46 42  1  0
 47 46  2  0
 48 37  1  0
 49 41  1  0
 44 50  1  0
 51 40  2  0
 52 42  2  0
 53 46  1  0
 34 54  1  1
 55 48  2  0
 56 38  1  0
 43 57  1  6
 45 58  1  0
 59 48  1  0
 43 60  1  0
 61 47  1  0
 62 53  1  0
 63 64  1  0
 64 53  2  0
 65 50  1  0
 66 50  1  0
 45 39  1  0
 44 41  1  0
 43 47  1  0
 63 61  2  0
  3 68  1  6
  6 69  1  6
 11 70  1  1
 12 71  1  1
 21 72  1  0
 23 73  1  0
 24 74  1  0
 25 75  1  0
 26 76  1  0
 26 77  1  0
 27 78  1  0
 27 79  1  0
 27 80  1  0
 28 81  1  0
 29 82  1  0
 30 83  1  0
 31 84  1  0
 32 85  1  0
 32 86  1  0
 32 87  1  0
 33 88  1  0
 33 89  1  0
 33 90  1  0
 36 91  1  1
 39 92  1  1
 44 93  1  6
 45 94  1  6
 54 95  1  0
 56 96  1  0
 57 97  1  0
 58 98  1  0
 59 99  1  0
 59100  1  0
 60101  1  0
 60102  1  0
 60103  1  0
 61104  1  0
 62105  1  0
 63106  1  0
 64107  1  0
 65108  1  0
 65109  1  0
 65110  1  0
 66111  1  0
 66112  1  0
 66113  1  0
M  CHG  3  16  -1  49  -1  67   2
M  END
$$$$
