
     RDKit          3D

113118  0  0  0  0  0  0  0  0999 V2000
   -1.3710    1.3383   -0.1527 C   0  0  2  0  0  0  0  0  0  0  0  0
    1.1594    1.2247   -0.3034 C   0  0  0  0  0  0  0  0  0  0  0  0
   -1.4499   -0.1275   -0.6096 C   0  0  2  0  0  0  0  0  0  0  0  0
   -3.5552    1.1610    1.1611 C   0  0  0  0  0  0  0  0  0  0  0  0
    0.0316    1.9317   -0.0718 C   0  0  0  0  0  0  0  0  0  0  0  0
    1.1240   -0.2039   -0.7635 C   0  0  1  0  0  0  0  0  0  0  0  0
   -2.0925    1.4580    1.2050 C   0  0  0  0  0  0  0  0  0  0  0  0
   -3.8861    0.0425    0.4572 C   0  0  0  0  0  0  0  0  0  0  0  0
    2.4702    1.9206   -0.2465 C   0  0  0  0  0  0  0  0  0  0  0  0
    2.4224   -1.0513   -0.5184 C   0  0  1  0  0  0  0  0  0  0  0  0
   -2.6886   -0.8841    0.0210 C   0  0  1  0  0  0  0  0  0  0  0  0
   -0.1547   -0.9000   -0.2469 C   0  0  2  0  0  0  0  0  0  0  0  0
    3.6580    1.1141    0.1189 C   0  0  0  0  0  0  0  0  0  0  0  0
    3.6286   -0.2857    0.0072 C   0  0  0  0  0  0  0  0  0  0  0  0
   -4.5110    2.0879    1.8661 C   0  0  0  0  0  0  0  0  0  0  0  0
   -5.0256   -0.4391    0.2042 O   0  0  0  0  0  0  0  0  0  0  0  0
   -2.8588   -2.1890   -0.7122 N   0  0  0  0  0  0  0  0  0  0  0  0
   -1.5397    1.7683    2.2633 O   0  0  0  0  0  0  0  0  0  0  0  0
    2.5278    3.1240   -0.4933 O   0  0  0  0  0  0  0  0  0  0  0  0
    4.8258    1.7466    0.5998 C   0  0  0  0  0  0  0  0  0  0  0  0
   -2.0275    2.1567   -1.1392 O   0  0  0  0  0  0  0  0  0  0  0  0
   -5.7361    2.0278    1.9019 O   0  0  0  0  0  0  0  0  0  0  0  0
    0.0396    3.3089    0.1524 O   0  0  0  0  0  0  0  0  0  0  0  0
    2.1893   -2.0921    0.4456 O   0  0  0  0  0  0  0  0  0  0  0  0
   -0.1618   -2.2334   -0.7783 O   0  0  0  0  0  0  0  0  0  0  0  0
   -3.9144    3.0974    2.5845 N   0  0  0  0  0  0  0  0  0  0  0  0
    2.8205   -1.7542   -1.8380 C   0  0  0  0  0  0  0  0  0  0  0  0
    4.7786   -1.0134    0.3967 C   0  0  0  0  0  0  0  0  0  0  0  0
    4.8742    3.1039    0.7650 O   0  0  0  0  0  0  0  0  0  0  0  0
    5.9274   -0.3775    0.8590 C   0  0  0  0  0  0  0  0  0  0  0  0
    5.9548    1.0058    0.9590 C   0  0  0  0  0  0  0  0  0  0  0  0
   -3.5564   -3.1870    0.1057 C   0  0  0  0  0  0  0  0  0  0  0  0
   -3.5440   -2.0442   -2.0020 C   0  0  0  0  0  0  0  0  0  0  0  0
   -1.3359    1.0216   -0.9428 C   0  0  2  0  0  0  0  0  0  0  0  0
    1.0533    0.7923   -0.3010 C   0  0  0  0  0  0  0  0  0  0  0  0
   -1.6836   -0.3720   -0.3494 C   0  0  2  0  0  0  0  0  0  0  0  0
   -3.8323    1.6471   -0.5045 C   0  0  0  0  0  0  0  0  0  0  0  0
   -0.0488    1.5748   -0.3219 C   0  0  0  0  0  0  0  0  0  0  0  0
    0.9261   -0.6320   -0.7818 C   0  0  1  0  0  0  0  0  0  0  0  0
   -2.4866    2.0490   -0.9823 C   0  0  0  0  0  0  0  0  0  0  0  0
   -3.9409    0.5247    0.2551 C   0  0  0  0  0  0  0  0  0  0  0  0
    2.3408    1.3235    0.1824 C   0  0  0  0  0  0  0  0  0  0  0  0
    2.1743   -1.5539   -0.5453 C   0  0  1  0  0  0  0  0  0  0  0  0
   -2.6026   -0.0829    0.9058 C   0  0  1  0  0  0  0  0  0  0  0  0
   -0.3743   -1.1795   -0.1048 C   0  0  2  0  0  0  0  0  0  0  0  0
    3.5674    0.5338   -0.0429 C   0  0  0  0  0  0  0  0  0  0  0  0
    3.5061   -0.8169   -0.4221 C   0  0  0  0  0  0  0  0  0  0  0  0
   -5.0440    2.3561   -1.0509 C   0  0  0  0  0  0  0  0  0  0  0  0
   -4.9818   -0.1647    0.4750 O   0  0  0  0  0  0  0  0  0  0  0  0
   -2.8863   -1.0665    2.0034 N   0  0  0  0  0  0  0  0  0  0  0  0
   -2.3330    3.1273   -1.5822 O   0  0  0  0  0  0  0  0  0  0  0  0
    2.4129    2.4266    0.7253 O   0  0  0  0  0  0  0  0  0  0  0  0
    4.8181    1.1624    0.1339 C   0  0  0  0  0  0  0  0  0  0  0  0
   -1.0178    0.8783   -2.3605 O   0  0  0  0  0  0  0  0  0  0  0  0
   -6.0360    2.6973   -0.4102 O   0  0  0  0  0  0  0  0  0  0  0  0
   -0.0740    2.8730    0.1476 O   0  0  0  0  0  0  0  0  0  0  0  0
    2.0073   -2.2897    0.6807 O   0  0  0  0  0  0  0  0  0  0  0  0
   -0.5824   -2.5395   -0.4963 O   0  0  0  0  0  0  0  0  0  0  0  0
   -4.9627    2.7222   -2.3726 N   0  0  0  0  0  0  0  0  0  0  0  0
    2.2366   -2.6008   -1.6858 C   0  0  0  0  0  0  0  0  0  0  0  0
    4.7292   -1.5034   -0.5947 C   0  0  0  0  0  0  0  0  0  0  0  0
    4.9644    2.4749    0.5049 O   0  0  0  0  0  0  0  0  0  0  0  0
    5.9620   -0.8687   -0.4255 C   0  0  0  0  0  0  0  0  0  0  0  0
    6.0061    0.4690   -0.0612 C   0  0  0  0  0  0  0  0  0  0  0  0
   -1.8576   -1.9674    2.4648 C   0  0  0  0  0  0  0  0  0  0  0  0
   -3.4744   -0.3865    3.1720 C   0  0  0  0  0  0  0  0  0  0  0  0
    0.0000    0.0000    0.0000 Ca  0  0  0  0  0 15  0  0  0  0  0  0
   -1.5542   -0.1326   -1.7030 H   0  0  0  0  0  0  0  0  0  0  0  0
    1.0176   -0.1297   -1.8594 H   0  0  0  0  0  0  0  0  0  0  0  0
   -2.3101   -1.2169    1.0044 H   0  0  0  0  0  0  0  0  0  0  0  0
   -0.0935   -0.9933    0.8463 H   0  0  0  0  0  0  0  0  0  0  0  0
   -1.8534    3.0791   -0.8686 H   0  0  0  0  0  0  0  0  0  0  0  0
    0.9585    3.6327    0.0101 H   0  0  0  0  0  0  0  0  0  0  0  0
    1.4235   -2.6045    0.1063 H   0  0  0  0  0  0  0  0  0  0  0  0
   -1.1171   -2.4861   -0.8652 H   0  0  0  0  0  0  0  0  0  0  0  0
   -4.5292    3.5807    3.2211 H   0  0  0  0  0  0  0  0  0  0  0  0
   -2.9327    3.0138    2.8336 H   0  0  0  0  0  0  0  0  0  0  0  0
    3.6529   -2.4514   -1.6990 H   0  0  0  0  0  0  0  0  0  0  0  0
    3.1092   -1.0286   -2.6061 H   0  0  0  0  0  0  0  0  0  0  0  0
    1.9932   -2.3573   -2.2294 H   0  0  0  0  0  0  0  0  0  0  0  0
    4.7647   -2.1027    0.3523 H   0  0  0  0  0  0  0  0  0  0  0  0
    5.7914    3.3816    0.9280 H   0  0  0  0  0  0  0  0  0  0  0  0
    6.7931   -0.9697    1.1478 H   0  0  0  0  0  0  0  0  0  0  0  0
    6.8486    1.4888    1.3403 H   0  0  0  0  0  0  0  0  0  0  0  0
   -3.0725   -3.3042    1.0848 H   0  0  0  0  0  0  0  0  0  0  0  0
   -4.6228   -2.9783    0.2627 H   0  0  0  0  0  0  0  0  0  0  0  0
   -3.4895   -4.1665   -0.3804 H   0  0  0  0  0  0  0  0  0  0  0  0
   -3.0091   -1.3557   -2.6673 H   0  0  0  0  0  0  0  0  0  0  0  0
   -3.5388   -3.0096   -2.5205 H   0  0  0  0  0  0  0  0  0  0  0  0
   -4.5886   -1.7253   -1.9367 H   0  0  0  0  0  0  0  0  0  0  0  0
   -2.2761   -0.9352   -1.0850 H   0  0  0  0  0  0  0  0  0  0  0  0
    0.7939   -0.5960   -1.8703 H   0  0  0  0  0  0  0  0  0  0  0  0
   -2.1151    0.7529    1.4341 H   0  0  0  0  0  0  0  0  0  0  0  0
   -0.1619   -1.1668    0.9622 H   0  0  0  0  0  0  0  0  0  0  0  0
   -0.9934    1.7972   -2.6976 H   0  0  0  0  0  0  0  0  0  0  0  0
    0.8108    3.0930    0.5079 H   0  0  0  0  0  0  0  0  0  0  0  0
    2.8757   -2.4308    1.0918 H   0  0  0  0  0  0  0  0  0  0  0  0
   -0.0153   -3.0752    0.0879 H   0  0  0  0  0  0  0  0  0  0  0  0
   -5.7258    3.2851   -2.7132 H   0  0  0  0  0  0  0  0  0  0  0  0
   -4.0477    2.8239   -2.7925 H   0  0  0  0  0  0  0  0  0  0  0  0
    1.2625   -3.0479   -1.8937 H   0  0  0  0  0  0  0  0  0  0  0  0
    2.5911   -2.1494   -2.6216 H   0  0  0  0  0  0  0  0  0  0  0  0
    2.8842   -3.4470   -1.4318 H   0  0  0  0  0  0  0  0  0  0  0  0
    4.7484   -2.5617   -0.8518 H   0  0  0  0  0  0  0  0  0  0  0  0
    4.0729    2.8321    0.7187 H   0  0  0  0  0  0  0  0  0  0  0  0
    6.8867   -1.4231   -0.5723 H   0  0  0  0  0  0  0  0  0  0  0  0
    6.9604    0.9716    0.0725 H   0  0  0  0  0  0  0  0  0  0  0  0
   -0.9732   -1.4402    2.8402 H   0  0  0  0  0  0  0  0  0  0  0  0
   -1.5873   -2.6948    1.6990 H   0  0  0  0  0  0  0  0  0  0  0  0
   -2.2256   -2.5908    3.2932 H   0  0  0  0  0  0  0  0  0  0  0  0
   -2.7380    0.2586    3.6741 H   0  0  0  0  0  0  0  0  0  0  0  0
   -4.3417    0.2370    2.9346 H   0  0  0  0  0  0  0  0  0  0  0  0
   -3.8351   -1.1217    3.9011 H   0  0  0  0  0  0  0  0  0  0  0  0
  2  5  2  0
  3  1  1  0
  4  7  1  0
  5  1  1  0
  6  2  1  0
  7  1  1  0
  8  4  2  0
  9  2  1  0
 10  6  1  0
  3 11  1  0
 12  3  1  0
 13  9  1  0
 14 13  2  0
 15  4  1  0
 16  8  1  0
 11 17  1  0
 18  7  2  0
 19  9  2  0
 20 13  1  0
  1 21  1  6
 22 15  2  0
 23  5  1  0
 10 24  1  1
 12 25  1  0
 26 15  1  0
 10 27  1  0
 28 14  1  0
 29 20  1  0
 30 31  1  0
 31 20  2  0
 32 17  1  0
 33 17  1  0
 12  6  1  0
 11  8  1  0
 10 14  1  0
 30 28  2  0
 35 38  2  0
 36 34  1  0
 37 40  1  0
 38 34  1  0
 39 35  1  0
 40 34  1  0
 41 37  2  0
 42 35  1  0
 43 39  1  0
 36 44  1  0
 45 36  1  0
 46 42  1  0
 47 46  2  0
 48 37  1  0
 49 41  1  0
 44 50  1  0
 51 40  2  0
 52 42  2  0
 53 46  1  0
 34 54  1  6
 55 48  2  0
 56 38  1  0
 43 57  1  1
 45 58  1  0
 59 48  1  0
 43 60  1  0
 61 47  1  0
 62 53  1  0
 63 64  1  0
 64 53  2  0
 65 50  1  0
 66 50  1  0
 45 39  1  0
 44 41  1  0
 43 47  1  0
 63 61  2  0
  3 68  1  6
  6 69  1  6
 11 70  1  1
 12 71  1  1
 21 72  1  0
 23 73  1  0
 24 74  1  0
 25 75  1  0
 26 76  1  0
 26 77  1  0
 27 78  1  0
 27 79  1  0
 27 80  1  0
 28 81  1  0
 29 82  1  0
 30 83  1  0
 31 84  1  0
 32 85  1  0
 32 86  1  0
 32 87  1  0
 33 88  1  0
 33 89  1  0
 33 90  1  0
 36 91  1  6
 39 92  1  6
 44 93  1  1
 45 94  1  1
 54 95  1  0
 56 96  1  0
 57 97  1  0
 58 98  1  0
 59 99  1  0
 59100  1  0
 60101  1  0
 60102  1  0
 60103  1  0
 61104  1  0
 62105  1  0
 63106  1  0
 64107  1  0
 65108  1  0
 65109  1  0
 65110  1  0
 66111  1  0
 66112  1  0
 66113  1  0
M  CHG  3  16  -1  49  -1  67   2
M  END
$$$$
