
     RDKit          3D

113118  0  0  0  0  0  0  0  0999 V2000
   -1.2929    1.8099    0.0950 C   0  0  2  0  0  0  0  0  0  0  0  0
    0.9790    0.9695    0.6948 C   0  0  0  0  0  0  0  0  0  0  0  0
   -1.3740    0.7139   -0.9513 C   0  0  2  0  0  0  0  0  0  0  0  0
   -3.5816    0.8808    0.9598 C   0  0  0  0  0  0  0  0  0  0  0  0
   -0.1646    1.5828    1.0770 C   0  0  0  0  0  0  0  0  0  0  0  0
    1.2555    0.5086   -0.7305 C   0  0  1  0  0  0  0  0  0  0  0  0
   -2.6615    2.0432    0.7365 C   0  0  0  0  0  0  0  0  0  0  0  0
   -3.2253   -0.3666    0.5237 C   0  0  0  0  0  0  0  0  0  0  0  0
    2.0749    0.7854    1.6864 C   0  0  0  0  0  0  0  0  0  0  0  0
    2.0180   -0.8611   -0.7543 C   0  0  1  0  0  0  0  0  0  0  0  0
   -1.8848   -0.6030   -0.2862 C   0  0  1  0  0  0  0  0  0  0  0  0
    0.0021    0.5856   -1.6576 C   0  0  2  0  0  0  0  0  0  0  0  0
    3.2869    0.0436    1.2732 C   0  0  0  0  0  0  0  0  0  0  0  0
    3.2878   -0.7430    0.1037 C   0  0  0  0  0  0  0  0  0  0  0  0
   -4.8884    1.1260    1.7107 C   0  0  0  0  0  0  0  0  0  0  0  0
   -3.8349   -1.4557    0.7165 O   0  0  0  0  0  0  0  0  0  0  0  0
   -1.7795   -1.6842   -1.3309 N   0  0  0  0  0  0  0  0  0  0  0  0
   -2.9785    3.2006    1.0606 O   0  0  0  0  0  0  0  0  0  0  0  0
    2.0048    1.2632    2.8198 O   0  0  0  0  0  0  0  0  0  0  0  0
    4.4461    0.1526    2.0638 C   0  0  0  0  0  0  0  0  0  0  0  0
   -0.9547    3.0644   -0.5636 O   0  0  0  0  0  0  0  0  0  0  0  0
   -5.6126    0.3045    2.2674 O   0  0  0  0  0  0  0  0  0  0  0  0
   -0.3799    2.0786    2.3508 O   0  0  0  0  0  0  0  0  0  0  0  0
    1.2383   -1.8839   -0.1397 O   0  0  0  0  0  0  0  0  0  0  0  0
    0.1929    1.7329   -2.5263 O   0  0  0  0  0  0  0  0  0  0  0  0
   -5.2939    2.4349    1.7892 N   0  0  0  0  0  0  0  0  0  0  0  0
    2.3312   -1.3246   -2.1936 C   0  0  0  0  0  0  0  0  0  0  0  0
    4.4805   -1.4242   -0.2122 C   0  0  0  0  0  0  0  0  0  0  0  0
    4.5128    0.9041    3.2119 O   0  0  0  0  0  0  0  0  0  0  0  0
    5.6279   -1.3023    0.5732 C   0  0  0  0  0  0  0  0  0  0  0  0
    5.6147   -0.5075    1.7095 C   0  0  0  0  0  0  0  0  0  0  0  0
   -1.8455   -3.0385   -0.7541 C   0  0  0  0  0  0  0  0  0  0  0  0
   -2.8194   -1.5752   -2.3650 C   0  0  0  0  0  0  0  0  0  0  0  0
   -1.0868   -0.1542   -1.4664 C   0  0  2  0  0  0  0  0  0  0  0  0
    1.3102    0.3160   -0.7320 C   0  0  0  0  0  0  0  0  0  0  0  0
   -1.2226   -1.0451   -0.2226 C   0  0  2  0  0  0  0  0  0  0  0  0
   -2.8924    1.3195   -0.2471 C   0  0  0  0  0  0  0  0  0  0  0  0
    0.2890    0.5139   -1.6023 C   0  0  0  0  0  0  0  0  0  0  0  0
    1.1641   -0.5650    0.4876 C   0  0  1  0  0  0  0  0  0  0  0  0
   -2.2186    0.9205   -1.5304 C   0  0  0  0  0  0  0  0  0  0  0  0
   -3.0690    0.3207    0.6603 C   0  0  0  0  0  0  0  0  0  0  0  0
    2.6340    0.9248   -1.0190 C   0  0  0  0  0  0  0  0  0  0  0  0
    2.1536   -0.2950    1.6697 C   0  0  1  0  0  0  0  0  0  0  0  0
   -2.7110   -1.1222    0.2082 C   0  0  1  0  0  0  0  0  0  0  0  0
   -0.3234   -0.4888    0.9160 C   0  0  2  0  0  0  0  0  0  0  0  0
    3.7145    0.8488   -0.0139 C   0  0  0  0  0  0  0  0  0  0  0  0
    3.4931    0.3080    1.2586 C   0  0  0  0  0  0  0  0  0  0  0  0
   -3.2550    2.7655   -0.0183 C   0  0  0  0  0  0  0  0  0  0  0  0
   -3.4145    0.3234    1.8770 O   0  0  0  0  0  0  0  0  0  0  0  0
   -3.6452   -1.6465   -0.8415 N   0  0  0  0  0  0  0  0  0  0  0  0
   -2.5109    1.4821   -2.5967 O   0  0  0  0  0  0  0  0  0  0  0  0
    2.8465    1.4960   -2.0918 O   0  0  0  0  0  0  0  0  0  0  0  0
    4.9833    1.3779   -0.3395 C   0  0  0  0  0  0  0  0  0  0  0  0
   -1.1809   -0.9799   -2.6494 O   0  0  0  0  0  0  0  0  0  0  0  0
   -3.8909    3.2372    0.9197 O   0  0  0  0  0  0  0  0  0  0  0  0
    0.4278    1.2619   -2.7669 O   0  0  0  0  0  0  0  0  0  0  0  0
    1.6050    0.6456    2.5946 O   0  0  0  0  0  0  0  0  0  0  0  0
   -0.5664   -1.1589    2.1525 O   0  0  0  0  0  0  0  0  0  0  0  0
   -2.8364    3.6309   -1.0025 N   0  0  0  0  0  0  0  0  0  0  0  0
    2.4006   -1.6256    2.4283 C   0  0  0  0  0  0  0  0  0  0  0  0
    4.5516    0.3836    2.1975 C   0  0  0  0  0  0  0  0  0  0  0  0
    5.2916    1.9104   -1.5653 O   0  0  0  0  0  0  0  0  0  0  0  0
    5.7997    0.9083    1.8665 C   0  0  0  0  0  0  0  0  0  0  0  0
    6.0196    1.3998    0.5886 C   0  0  0  0  0  0  0  0  0  0  0  0
   -5.0387   -1.5835   -0.3652 C   0  0  0  0  0  0  0  0  0  0  0  0
   -3.3317   -3.0386   -1.1777 C   0  0  0  0  0  0  0  0  0  0  0  0
    0.0000    0.0000    0.0000 Ca  0  0  0  0  0 15  0  0  0  0  0  0
   -2.0978    1.0472   -1.7091 H   0  0  0  0  0  0  0  0  0  0  0  0
    1.9743    1.2459   -1.1268 H   0  0  0  0  0  0  0  0  0  0  0  0
   -1.1527   -0.8797    0.4844 H   0  0  0  0  0  0  0  0  0  0  0  0
   -0.0359   -0.2499   -2.3510 H   0  0  0  0  0  0  0  0  0  0  0  0
   -1.0689    3.7263    0.1519 H   0  0  0  0  0  0  0  0  0  0  0  0
    0.3946    1.8453    2.9104 H   0  0  0  0  0  0  0  0  0  0  0  0
    0.4258   -1.9994   -0.6749 H   0  0  0  0  0  0  0  0  0  0  0  0
   -0.1415    2.5163   -2.0326 H   0  0  0  0  0  0  0  0  0  0  0  0
   -6.0625    2.6116    2.4142 H   0  0  0  0  0  0  0  0  0  0  0  0
   -4.6394    3.1817    1.5748 H   0  0  0  0  0  0  0  0  0  0  0  0
    2.7957   -2.3184   -2.1978 H   0  0  0  0  0  0  0  0  0  0  0  0
    2.9905   -0.6219   -2.7122 H   0  0  0  0  0  0  0  0  0  0  0  0
    1.4299   -1.4654   -2.7986 H   0  0  0  0  0  0  0  0  0  0  0  0
    4.5479   -2.0759   -1.0777 H   0  0  0  0  0  0  0  0  0  0  0  0
    3.6004    1.1883    3.4327 H   0  0  0  0  0  0  0  0  0  0  0  0
    6.5388   -1.8301    0.2964 H   0  0  0  0  0  0  0  0  0  0  0  0
    6.5061   -0.4038    2.3204 H   0  0  0  0  0  0  0  0  0  0  0  0
   -1.2660   -3.1193    0.1720 H   0  0  0  0  0  0  0  0  0  0  0  0
   -2.8602   -3.4097   -0.5702 H   0  0  0  0  0  0  0  0  0  0  0  0
   -1.3864   -3.7383   -1.4603 H   0  0  0  0  0  0  0  0  0  0  0  0
   -2.6846   -2.3687   -3.1133 H   0  0  0  0  0  0  0  0  0  0  0  0
   -2.7472   -0.6283   -2.9146 H   0  0  0  0  0  0  0  0  0  0  0  0
   -3.8426   -1.6687   -1.9764 H   0  0  0  0  0  0  0  0  0  0  0  0
   -0.8828   -2.0663   -0.4379 H   0  0  0  0  0  0  0  0  0  0  0  0
    1.3842   -1.5823    0.1295 H   0  0  0  0  0  0  0  0  0  0  0  0
   -2.7710   -1.8249    1.0584 H   0  0  0  0  0  0  0  0  0  0  0  0
   -0.5425    0.5698    1.1051 H   0  0  0  0  0  0  0  0  0  0  0  0
   -1.2877   -0.3251   -3.3684 H   0  0  0  0  0  0  0  0  0  0  0  0
    1.3549    1.5757   -2.8300 H   0  0  0  0  0  0  0  0  0  0  0  0
    0.7888    0.2368    2.9543 H   0  0  0  0  0  0  0  0  0  0  0  0
   -1.4643   -0.8378    2.4320 H   0  0  0  0  0  0  0  0  0  0  0  0
   -2.6230    3.2574   -1.9283 H   0  0  0  0  0  0  0  0  0  0  0  0
   -3.2368    4.5547   -0.9427 H   0  0  0  0  0  0  0  0  0  0  0  0
    2.8760   -1.4619    3.4010 H   0  0  0  0  0  0  0  0  0  0  0  0
    3.0300   -2.3077    1.8457 H   0  0  0  0  0  0  0  0  0  0  0  0
    1.4765   -2.1586    2.6597 H   0  0  0  0  0  0  0  0  0  0  0  0
    4.3989    0.0487    3.2224 H   0  0  0  0  0  0  0  0  0  0  0  0
    4.4624    1.9324   -2.0929 H   0  0  0  0  0  0  0  0  0  0  0  0
    6.5877    0.9511    2.6119 H   0  0  0  0  0  0  0  0  0  0  0  0
    6.9858    1.8097    0.3204 H   0  0  0  0  0  0  0  0  0  0  0  0
   -5.3797   -0.5487   -0.2508 H   0  0  0  0  0  0  0  0  0  0  0  0
   -5.1808   -2.1175    0.5832 H   0  0  0  0  0  0  0  0  0  0  0  0
   -5.7100   -2.0335   -1.1075 H   0  0  0  0  0  0  0  0  0  0  0  0
   -4.0453   -3.4283   -1.9156 H   0  0  0  0  0  0  0  0  0  0  0  0
   -3.3628   -3.6982   -0.3016 H   0  0  0  0  0  0  0  0  0  0  0  0
   -2.3483   -3.1371   -1.6451 H   0  0  0  0  0  0  0  0  0  0  0  0
  2  5  2  0
  3  1  1  0
  4  7  1  0
  5  1  1  0
  6  2  1  0
  7  1  1  0
  8  4  2  0
  9  2  1  0
 10  6  1  0
  3 11  1  0
 12  3  1  0
 13  9  1  0
 14 13  2  0
 15  4  1  0
 16  8  1  0
 11 17  1  0
 18  7  2  0
 19  9  2  0
 20 13  1  0
  1 21  1  6
 22 15  2  0
 23  5  1  0
 10 24  1  1
 12 25  1  0
 26 15  1  0
 10 27  1  0
 28 14  1  0
 29 20  1  0
 30 31  1  0
 31 20  2  0
 32 17  1  0
 33 17  1  0
 12  6  1  0
 11  8  1  0
 10 14  1  0
 30 28  2  0
 35 38  2  0
 36 34  1  0
 37 40  1  0
 38 34  1  0
 39 35  1  0
 40 34  1  0
 41 37  2  0
 42 35  1  0
 43 39  1  0
 36 44  1  0
 45 36  1  0
 46 42  1  0
 47 46  2  0
 48 37  1  0
 49 41  1  0
 44 50  1  0
 51 40  2  0
 52 42  2  0
 53 46  1  0
 34 54  1  6
 55 48  2  0
 56 38  1  0
 43 57  1  1
 45 58  1  0
 59 48  1  0
 43 60  1  0
 61 47  1  0
 62 53  1  0
 63 64  1  0
 64 53  2  0
 65 50  1  0
 66 50  1  0
 45 39  1  0
 44 41  1  0
 43 47  1  0
 63 61  2  0
  3 68  1  6
  6 69  1  6
 11 70  1  1
 12 71  1  6
 21 72  1  0
 23 73  1  0
 24 74  1  0
 25 75  1  0
 26 76  1  0
 26 77  1  0
 27 78  1  0
 27 79  1  0
 27 80  1  0
 28 81  1  0
 29 82  1  0
 30 83  1  0
 31 84  1  0
 32 85  1  0
 32 86  1  0
 32 87  1  0
 33 88  1  0
 33 89  1  0
 33 90  1  0
 36 91  1  6
 39 92  1  6
 44 93  1  1
 45 94  1  1
 54 95  1  0
 56 96  1  0
 57 97  1  0
 58 98  1  0
 59 99  1  0
 59100  1  0
 60101  1  0
 60102  1  0
 60103  1  0
 61104  1  0
 62105  1  0
 63106  1  0
 64107  1  0
 65108  1  0
 65109  1  0
 65110  1  0
 66111  1  0
 66112  1  0
 66113  1  0
M  CHG  3  16  -1  49  -1  67   2
M  END
$$$$
