
     RDKit          3D

 67 72  0  0  0  0  0  0  0  0999 V2000
   -1.3998   -0.5219    0.5918 C   0  0  2  0  0  0  0  0  0  0  0  0
    1.0612   -0.7323    0.4434 C   0  0  0  0  0  0  0  0  0  0  0  0
   -1.2359    0.9312    0.3604 C   0  0  2  0  0  0  0  0  0  0  0  0
   -3.6555   -0.4125   -0.5158 C   0  0  0  0  0  0  0  0  0  0  0  0
   -0.1406   -1.2746    0.5600 C   0  0  0  0  0  0  0  0  0  0  0  0
    1.1675    0.7183    0.3370 C   0  0  1  0  0  0  0  0  0  0  0  0
   -2.4174   -1.1322   -0.3299 C   0  0  0  0  0  0  0  0  0  0  0  0
   -3.6281    0.9191   -0.3679 C   0  0  0  0  0  0  0  0  0  0  0  0
    2.2395   -1.6078    0.4254 C   0  0  0  0  0  0  0  0  0  0  0  0
    2.4499    1.2712   -0.1333 C   0  0  1  0  0  0  0  0  0  0  0  0
   -2.4301    1.6820   -0.0323 C   0  0  1  0  0  0  0  0  0  0  0  0
   -0.0254    1.1658   -0.5121 C   0  0  2  0  0  0  0  0  0  0  0  0
    3.5109   -1.0024    0.1225 C   0  0  0  0  0  0  0  0  0  0  0  0
    3.5811    0.3340   -0.1326 C   0  0  0  0  0  0  0  0  0  0  0  0
   -4.8880   -1.1249   -0.8535 C   0  0  0  0  0  0  0  0  0  0  0  0
   -4.8232    1.6062   -0.5482 O   0  0  0  0  0  0  0  0  0  0  0  0
   -2.6638    2.7817    0.8555 N   0  0  0  0  0  0  0  0  0  0  0  0
   -2.2229   -2.2186   -0.9234 O   0  0  0  0  0  0  0  0  0  0  0  0
    2.1673   -2.8410    0.6619 O   0  0  0  0  0  0  0  0  0  0  0  0
    4.6558   -1.7863    0.0930 C   0  0  0  0  0  0  0  0  0  0  0  0
   -1.9161   -0.6912    1.8938 O   0  0  0  0  0  0  0  0  0  0  0  0
   -4.9273   -2.3768   -0.9954 O   0  0  0  0  0  0  0  0  0  0  0  0
   -0.2346   -2.6755    0.6622 O   0  0  0  0  0  0  0  0  0  0  0  0
    2.2669    1.8583   -1.3965 O   0  0  0  0  0  0  0  0  0  0  0  0
    0.1037    2.4495   -0.9737 O   0  0  0  0  0  0  0  0  0  0  0  0
   -6.0991   -0.3739   -1.0304 N   0  0  0  0  0  0  0  0  0  0  0  0
    2.8540    2.4090    0.8024 C   0  0  0  0  0  0  0  0  0  0  0  0
    4.8395    0.8576   -0.4185 C   0  0  0  0  0  0  0  0  0  0  0  0
    4.6163   -3.1605    0.3503 O   0  0  0  0  0  0  0  0  0  0  0  0
    5.9740    0.1012   -0.4515 C   0  0  0  0  0  0  0  0  0  0  0  0
    5.9065   -1.2465   -0.1947 C   0  0  0  0  0  0  0  0  0  0  0  0
   -1.5818    3.7219    0.8891 C   0  0  0  0  0  0  0  0  0  0  0  0
   -3.1045    2.3718    2.1632 C   0  0  0  0  0  0  0  0  0  0  0  0
    1.3619    0.3558    1.5445 C   0  0  2  0  0  0  0  0  0  0  0  0
   -1.0011    0.5776    0.8410 C   0  0  0  0  0  0  0  0  0  0  0  0
    1.2367   -1.0370    1.0383 C   0  0  2  0  0  0  0  0  0  0  0  0
    3.1313    0.7104   -0.1987 C   0  0  0  0  0  0  0  0  0  0  0  0
    0.1819    1.1336    1.0600 C   0  0  0  0  0  0  0  0  0  0  0  0
   -1.2904   -0.8551    1.0458 C   0  0  1  0  0  0  0  0  0  0  0  0
    2.5976    1.0172    1.1161 C   0  0  0  0  0  0  0  0  0  0  0  0
    2.6675   -0.3272   -0.8414 C   0  0  0  0  0  0  0  0  0  0  0  0
   -2.0964    1.4246    0.3754 C   0  0  0  0  0  0  0  0  0  0  0  0
   -1.9346   -1.3860   -0.2127 C   0  0  1  0  0  0  0  0  0  0  0  0
    1.6343   -1.2544   -0.3783 C   0  0  1  0  0  0  0  0  0  0  0  0
   -0.0715   -1.6678    1.3676 C   0  0  2  0  0  0  0  0  0  0  0  0
   -3.1578    0.8139   -0.4159 C   0  0  0  0  0  0  0  0  0  0  0  0
   -3.0541   -0.5327   -0.6737 C   0  0  0  0  0  0  0  0  0  0  0  0
    4.1798    1.5842   -0.7604 C   0  0  0  0  0  0  0  0  0  0  0  0
    3.2233   -0.5749   -2.1123 O   0  0  0  0  0  0  0  0  0  0  0  0
    2.1944   -2.6110   -0.4686 N   0  0  0  0  0  0  0  0  0  0  0  0
    3.1463    1.8307    1.9171 O   0  0  0  0  0  0  0  0  0  0  0  0
   -2.0981    2.6667    0.6693 O   0  0  0  0  0  0  0  0  0  0  0  0
   -4.2066    1.5961   -0.8600 C   0  0  0  0  0  0  0  0  0  0  0  0
    1.3186    0.3065    2.9422 O   0  0  0  0  0  0  0  0  0  0  0  0
    4.6075    2.5833   -0.1098 O   0  0  0  0  0  0  0  0  0  0  0  0
    0.3826    2.5026    0.8428 O   0  0  0  0  0  0  0  0  0  0  0  0
   -0.9736   -1.5507   -1.2175 O   0  0  0  0  0  0  0  0  0  0  0  0
   -0.1054   -1.9310    2.7366 O   0  0  0  0  0  0  0  0  0  0  0  0
    4.6899    1.2578   -2.0624 N   0  0  0  0  0  0  0  0  0  0  0  0
   -2.5095   -2.7662    0.0600 C   0  0  0  0  0  0  0  0  0  0  0  0
   -4.0691   -1.1215   -1.4228 C   0  0  0  0  0  0  0  0  0  0  0  0
   -4.2491    2.9578   -0.5622 O   0  0  0  0  0  0  0  0  0  0  0  0
   -5.1182   -0.3643   -1.8729 C   0  0  0  0  0  0  0  0  0  0  0  0
   -5.2029    0.9861   -1.6031 C   0  0  0  0  0  0  0  0  0  0  0  0
    3.3486   -2.7084    0.4078 C   0  0  0  0  0  0  0  0  0  0  0  0
    1.2360   -3.6166   -0.0393 C   0  0  0  0  0  0  0  0  0  0  0  0
    0.0000    0.0000    0.0000 Ca  0  0  0  0  0 15  0  0  0  0  0  0
  2  5  2  0
  3  1  1  0
  4  7  1  0
  5  1  1  0
  6  2  1  6
  7  1  1  0
  8  4  2  0
  9  2  1  0
 10  6  1  0
  3 11  1  6
 12  3  1  0
 13  9  1  0
 14 13  2  0
 15  4  1  0
 16  8  1  0
 11 17  1  1
 18  7  2  0
 19  9  2  0
 20 13  1  0
  1 21  1  1
 22 15  2  0
 23  5  1  0
 10 24  1  0
 12 25  1  1
 26 15  1  0
 10 27  1  1
 28 14  1  0
 29 20  1  0
 30 31  1  0
 31 20  2  0
 32 17  1  0
 33 17  1  0
 12  6  1  0
 11  8  1  0
 10 14  1  0
 30 28  2  0
 35 38  2  0
 36 34  1  0
 37 40  1  0
 38 34  1  0
 39 35  1  6
 40 34  1  0
 41 37  2  0
 42 35  1  0
 43 39  1  0
 36 44  1  6
 45 36  1  0
 46 42  1  0
 47 46  2  0
 48 37  1  0
 49 41  1  0
 44 50  1  1
 51 40  2  0
 52 42  2  0
 53 46  1  0
 34 54  1  1
 55 48  2  0
 56 38  1  0
 43 57  1  0
 45 58  1  1
 59 48  1  0
 43 60  1  1
 61 47  1  0
 62 53  1  0
 63 64  1  0
 64 53  2  0
 65 50  1  0
 66 50  1  0
 45 39  1  0
 44 41  1  0
 43 47  1  0
 63 61  2  0
M  CHG  3  16  -1  49  -1  67   2
M  END
