
     RDKit          3D

113118  0  0  0  0  0  0  0  0999 V2000
   -1.2126    0.5620   -1.2470 C   0  0  2  0  0  0  0  0  0  0  0  0
    1.2834    0.3910   -0.9158 C   0  0  0  0  0  0  0  0  0  0  0  0
   -1.3360   -0.8670   -0.7292 C   0  0  2  0  0  0  0  0  0  0  0  0
   -2.6215    1.1860    0.8514 C   0  0  0  0  0  0  0  0  0  0  0  0
    0.2155    1.0824   -1.3458 C   0  0  0  0  0  0  0  0  0  0  0  0
    1.2082   -0.8682   -0.0966 C   0  0  1  0  0  0  0  0  0  0  0  0
   -2.0311    1.5894   -0.4523 C   0  0  0  0  0  0  0  0  0  0  0  0
   -2.9982   -0.1128    1.0270 C   0  0  0  0  0  0  0  0  0  0  0  0
    2.6466    0.8199   -1.3247 C   0  0  0  0  0  0  0  0  0  0  0  0
    2.1973   -0.7899    1.1366 C   0  0  1  0  0  0  0  0  0  0  0  0
   -2.7730   -1.1082   -0.1518 C   0  0  1  0  0  0  0  0  0  0  0  0
   -0.2522   -1.1841    0.3442 C   0  0  2  0  0  0  0  0  0  0  0  0
    3.7505    0.5919   -0.3708 C   0  0  0  0  0  0  0  0  0  0  0  0
    3.5424   -0.1360    0.8103 C   0  0  0  0  0  0  0  0  0  0  0  0
   -2.7200    2.2200    1.9314 C   0  0  0  0  0  0  0  0  0  0  0  0
   -3.4423   -0.7011    2.0584 O   0  0  0  0  0  0  0  0  0  0  0  0
   -3.9278   -1.2449   -1.0750 N   0  0  0  0  0  0  0  0  0  0  0  0
   -2.1692    2.7273   -0.9262 O   0  0  0  0  0  0  0  0  0  0  0  0
    2.9023    1.3235   -2.4176 O   0  0  0  0  0  0  0  0  0  0  0  0
    5.0083    1.1742   -0.6332 C   0  0  0  0  0  0  0  0  0  0  0  0
   -1.6817    0.5774   -2.6137 O   0  0  0  0  0  0  0  0  0  0  0  0
   -2.0100    3.2225    1.9630 O   0  0  0  0  0  0  0  0  0  0  0  0
    0.3717    2.3251   -1.9574 O   0  0  0  0  0  0  0  0  0  0  0  0
    1.6359    0.0105    2.1859 O   0  0  0  0  0  0  0  0  0  0  0  0
   -0.3338   -2.5864    0.6468 O   0  0  0  0  0  0  0  0  0  0  0  0
   -3.6293    1.9662    2.9131 N   0  0  0  0  0  0  0  0  0  0  0  0
    2.4086   -2.2008    1.7265 C   0  0  0  0  0  0  0  0  0  0  0  0
    4.6055   -0.1851    1.7408 C   0  0  0  0  0  0  0  0  0  0  0  0
    5.2860    1.8894   -1.7706 O   0  0  0  0  0  0  0  0  0  0  0  0
    5.8465    0.3993    1.4760 C   0  0  0  0  0  0  0  0  0  0  0  0
    6.0512    1.0709    0.2789 C   0  0  0  0  0  0  0  0  0  0  0  0
   -4.6480   -0.0522   -1.4776 C   0  0  0  0  0  0  0  0  0  0  0  0
   -3.6809   -2.1417   -2.1932 C   0  0  0  0  0  0  0  0  0  0  0  0
   -0.9829    0.1645   -1.7668 C   0  0  2  0  0  0  0  0  0  0  0  0
    1.1850    0.5047   -0.6389 C   0  0  0  0  0  0  0  0  0  0  0  0
   -1.4362   -0.7359   -0.6294 C   0  0  2  0  0  0  0  0  0  0  0  0
   -3.0739    1.6208   -1.3552 C   0  0  0  0  0  0  0  0  0  0  0  0
    0.1822    1.0438   -1.3623 C   0  0  0  0  0  0  0  0  0  0  0  0
    1.1775   -0.9705   -0.2676 C   0  0  1  0  0  0  0  0  0  0  0  0
   -2.2087    0.8936   -2.3252 C   0  0  0  0  0  0  0  0  0  0  0  0
   -3.0031    1.3181   -0.0259 C   0  0  0  0  0  0  0  0  0  0  0  0
    2.3754    1.3202   -0.2726 C   0  0  0  0  0  0  0  0  0  0  0  0
    2.1736   -1.3062    0.9001 C   0  0  1  0  0  0  0  0  0  0  0  0
   -2.1700    0.0864    0.4761 C   0  0  1  0  0  0  0  0  0  0  0  0
   -0.2538   -1.5315   -0.0021 C   0  0  2  0  0  0  0  0  0  0  0  0
    3.6156    0.5884    0.0435 C   0  0  0  0  0  0  0  0  0  0  0  0
    3.5453   -0.7044    0.5944 C   0  0  0  0  0  0  0  0  0  0  0  0
   -3.9274    2.7534   -1.8734 C   0  0  0  0  0  0  0  0  0  0  0  0
   -3.5065    1.9582    0.9472 O   0  0  0  0  0  0  0  0  0  0  0  0
   -2.8826   -0.9513    1.2936 N   0  0  0  0  0  0  0  0  0  0  0  0
   -2.3753    0.9452   -3.5483 O   0  0  0  0  0  0  0  0  0  0  0  0
    2.3939    2.5412   -0.1743 O   0  0  0  0  0  0  0  0  0  0  0  0
    4.8546    1.2112   -0.1802 C   0  0  0  0  0  0  0  0  0  0  0  0
   -0.4866   -0.6650   -2.8452 O   0  0  0  0  0  0  0  0  0  0  0  0
   -4.3929    2.8057   -3.0070 O   0  0  0  0  0  0  0  0  0  0  0  0
    0.2502    2.3424   -1.8368 O   0  0  0  0  0  0  0  0  0  0  0  0
    1.7122   -0.7274    2.1309 O   0  0  0  0  0  0  0  0  0  0  0  0
   -0.3012   -2.8860   -0.5006 O   0  0  0  0  0  0  0  0  0  0  0  0
   -4.1429    3.7778   -0.9984 N   0  0  0  0  0  0  0  0  0  0  0  0
    2.2311   -2.8221    1.1645 C   0  0  0  0  0  0  0  0  0  0  0  0
    4.7603   -1.3521    0.8898 C   0  0  0  0  0  0  0  0  0  0  0  0
    4.9701    2.4854   -0.6711 O   0  0  0  0  0  0  0  0  0  0  0  0
    5.9912   -0.7391    0.6341 C   0  0  0  0  0  0  0  0  0  0  0  0
    6.0409    0.5443    0.0999 C   0  0  0  0  0  0  0  0  0  0  0  0
   -4.2308   -1.2506    0.8100 C   0  0  0  0  0  0  0  0  0  0  0  0
   -2.9269   -0.5971    2.7136 C   0  0  0  0  0  0  0  0  0  0  0  0
    0.0000    0.0000    0.0000 Ca  0  0  0  0  0 15  0  0  0  0  0  0
   -1.1758   -1.5785   -1.5514 H   0  0  0  0  0  0  0  0  0  0  0  0
    1.5556   -1.6834   -0.7479 H   0  0  0  0  0  0  0  0  0  0  0  0
   -2.7240   -2.1190    0.2810 H   0  0  0  0  0  0  0  0  0  0  0  0
   -0.4645   -0.6403    1.2703 H   0  0  0  0  0  0  0  0  0  0  0  0
   -1.8181    1.5144   -2.8425 H   0  0  0  0  0  0  0  0  0  0  0  0
   -0.4474    2.8490   -1.8242 H   0  0  0  0  0  0  0  0  0  0  0  0
    1.6155    0.9402    1.8952 H   0  0  0  0  0  0  0  0  0  0  0  0
   -1.0530   -2.6655    1.3107 H   0  0  0  0  0  0  0  0  0  0  0  0
   -3.5351    2.4711    3.7777 H   0  0  0  0  0  0  0  0  0  0  0  0
   -3.9136    0.9762    2.9562 H   0  0  0  0  0  0  0  0  0  0  0  0
    2.8523   -2.8812    0.9913 H   0  0  0  0  0  0  0  0  0  0  0  0
    3.0493   -2.1968    2.6129 H   0  0  0  0  0  0  0  0  0  0  0  0
    1.4754   -2.6353    2.0920 H   0  0  0  0  0  0  0  0  0  0  0  0
    4.4701   -0.6623    2.7096 H   0  0  0  0  0  0  0  0  0  0  0  0
    4.4759    1.8770   -2.3310 H   0  0  0  0  0  0  0  0  0  0  0  0
    6.6429    0.3437    2.2119 H   0  0  0  0  0  0  0  0  0  0  0  0
    7.0090    1.5343    0.0629 H   0  0  0  0  0  0  0  0  0  0  0  0
   -5.5705   -0.3307   -2.0011 H   0  0  0  0  0  0  0  0  0  0  0  0
   -4.0781    0.5851   -2.1575 H   0  0  0  0  0  0  0  0  0  0  0  0
   -4.9771    0.5463   -0.6219 H   0  0  0  0  0  0  0  0  0  0  0  0
   -3.2318   -3.0802   -1.8510 H   0  0  0  0  0  0  0  0  0  0  0  0
   -3.0272   -1.7005   -2.9524 H   0  0  0  0  0  0  0  0  0  0  0  0
   -4.6216   -2.4139   -2.6828 H   0  0  0  0  0  0  0  0  0  0  0  0
   -2.1418   -1.4593   -1.0676 H   0  0  0  0  0  0  0  0  0  0  0  0
    1.5758   -1.4925   -1.1532 H   0  0  0  0  0  0  0  0  0  0  0  0
   -1.3664    0.5120    1.0985 H   0  0  0  0  0  0  0  0  0  0  0  0
   -0.4044   -1.6247    1.0781 H   0  0  0  0  0  0  0  0  0  0  0  0
   -0.7430   -0.1908   -3.6661 H   0  0  0  0  0  0  0  0  0  0  0  0
   -0.6381    2.7288   -1.9319 H   0  0  0  0  0  0  0  0  0  0  0  0
    1.7996    0.2408    2.0905 H   0  0  0  0  0  0  0  0  0  0  0  0
   -1.1836   -3.2265   -0.2599 H   0  0  0  0  0  0  0  0  0  0  0  0
   -4.0076    3.4885   -0.0162 H   0  0  0  0  0  0  0  0  0  0  0  0
   -4.9366    4.3642   -1.1984 H   0  0  0  0  0  0  0  0  0  0  0  0
    2.6058   -3.3746    0.2964 H   0  0  0  0  0  0  0  0  0  0  0  0
    2.8630   -3.0542    2.0298 H   0  0  0  0  0  0  0  0  0  0  0  0
    1.2518   -3.2300    1.4401 H   0  0  0  0  0  0  0  0  0  0  0  0
    4.7788   -2.3458    1.3312 H   0  0  0  0  0  0  0  0  0  0  0  0
    4.0730    2.8942   -0.6419 H   0  0  0  0  0  0  0  0  0  0  0  0
    6.9152   -1.2620    0.8661 H   0  0  0  0  0  0  0  0  0  0  0  0
    6.9941    1.0292   -0.0859 H   0  0  0  0  0  0  0  0  0  0  0  0
   -4.6217   -2.1315    1.3328 H   0  0  0  0  0  0  0  0  0  0  0  0
   -4.9463   -0.4374    0.9667 H   0  0  0  0  0  0  0  0  0  0  0  0
   -4.2297   -1.5106   -0.2551 H   0  0  0  0  0  0  0  0  0  0  0  0
   -1.9222   -0.3935    3.0962 H   0  0  0  0  0  0  0  0  0  0  0  0
   -3.5683    0.2581    2.9412 H   0  0  0  0  0  0  0  0  0  0  0  0
   -3.3047   -1.4482    3.2923 H   0  0  0  0  0  0  0  0  0  0  0  0
  2  5  2  0
  3  1  1  0
  4  7  1  0
  5  1  1  0
  6  2  1  0
  7  1  1  0
  8  4  2  0
  9  2  1  0
 10  6  1  0
  3 11  1  0
 12  3  1  0
 13  9  1  0
 14 13  2  0
 15  4  1  0
 16  8  1  0
 11 17  1  0
 18  7  2  0
 19  9  2  0
 20 13  1  0
  1 21  1  6
 22 15  2  0
 23  5  1  0
 10 24  1  1
 12 25  1  0
 26 15  1  0
 10 27  1  0
 28 14  1  0
 29 20  1  0
 30 31  1  0
 31 20  2  0
 32 17  1  0
 33 17  1  0
 12  6  1  0
 11  8  1  0
 10 14  1  0
 30 28  2  0
 35 38  2  0
 36 34  1  0
 37 40  1  0
 38 34  1  0
 39 35  1  0
 40 34  1  0
 41 37  2  0
 42 35  1  0
 43 39  1  0
 36 44  1  0
 45 36  1  0
 46 42  1  0
 47 46  2  0
 48 37  1  0
 49 41  1  0
 44 50  1  0
 51 40  2  0
 52 42  2  0
 53 46  1  0
 34 54  1  6
 55 48  2  0
 56 38  1  0
 43 57  1  1
 45 58  1  0
 59 48  1  0
 43 60  1  0
 61 47  1  0
 62 53  1  0
 63 64  1  0
 64 53  2  0
 65 50  1  0
 66 50  1  0
 45 39  1  0
 44 41  1  0
 43 47  1  0
 63 61  2  0
  3 68  1  6
  6 69  1  6
 11 70  1  1
 12 71  1  1
 21 72  1  0
 23 73  1  0
 24 74  1  0
 25 75  1  0
 26 76  1  0
 26 77  1  0
 27 78  1  0
 27 79  1  0
 27 80  1  0
 28 81  1  0
 29 82  1  0
 30 83  1  0
 31 84  1  0
 32 85  1  0
 32 86  1  0
 32 87  1  0
 33 88  1  0
 33 89  1  0
 33 90  1  0
 36 91  1  6
 39 92  1  6
 44 93  1  1
 45 94  1  1
 54 95  1  0
 56 96  1  0
 57 97  1  0
 58 98  1  0
 59 99  1  0
 59100  1  0
 60101  1  0
 60102  1  0
 60103  1  0
 61104  1  0
 62105  1  0
 63106  1  0
 64107  1  0
 65108  1  0
 65109  1  0
 65110  1  0
 66111  1  0
 66112  1  0
 66113  1  0
M  CHG  3  16  -1  49  -1  67   2
M  END
$$$$
