
     RDKit          3D

 98 97  0  0  0  0  0  0  0  0999 V2000
   44.4565    5.6705   11.3579 C   0  0  0  0  0  0  0  0  0  0  0  0
   44.7670    7.0867   11.0579 N   0  0  0  0  0  0  0  0  0  0  0  0
   45.7036    4.9711   11.9694 C   0  0  0  0  0  0  0  0  0  0  0  0
   47.2523    6.6128   13.2012 C   0  0  0  0  0  0  0  0  0  0  0  0
   49.1868    8.6616   13.0604 C   0  0  0  0  0  0  0  0  0  0  0  0
   46.2311    5.5070   13.3101 C   0  0  0  0  0  0  0  0  0  0  0  0
   46.9027    7.9408   13.4676 C   0  0  0  0  0  0  0  0  0  0  0  0
   48.5777    6.3218   12.8508 C   0  0  0  0  0  0  0  0  0  0  0  0
   47.8607    8.9558   13.4012 C   0  0  0  0  0  0  0  0  0  0  0  0
   49.5370    7.3353   12.7842 C   0  0  0  0  0  0  0  0  0  0  0  0
   43.2461    5.6198   12.3252 C   0  0  0  0  0  0  0  0  0  0  0  0
   44.0738    4.9602   10.0243 C   0  0  0  0  0  0  0  0  0  0  0  0
   45.1436    5.0457    9.0789 O   0  0  0  0  0  0  0  0  0  0  0  0
   42.0648    6.1310   11.7028 O   0  0  0  0  0  0  0  0  0  0  0  0
   50.2273    9.7539   13.0279 C   0  0  0  0  0  0  0  0  0  0  0  0
   50.8415    9.9782   14.4118 C   0  0  0  0  0  0  0  0  0  0  0  0
   49.1989   15.2222   15.0206 C   0  0  0  0  0  0  0  0  0  0  0  0
   50.3742   14.5315   14.3269 C   0  0  0  0  0  0  0  0  0  0  0  0
   51.9981   10.9819   14.4123 C   0  0  0  0  0  0  0  0  0  0  0  0
   51.6576   12.3942   13.9274 C   0  0  0  0  0  0  0  0  0  0  0  0
   50.5545   13.0709   14.7463 C   0  0  0  0  0  0  0  0  0  0  0  0
   49.3592   15.3356   16.5286 C   0  0  0  0  0  0  0  0  0  0  0  0
   43.9522    3.3123   11.9128 S   0  0  0  0  0  0  0  0  0  0  0  0
   44.9730    4.2108   12.8005 O   0  0  0  0  0  0  0  0  0  0  0  0
   42.6542    4.2561   11.7800 O   0  0  0  0  0  0  0  0  0  0  0  0
   44.4970    3.1390   10.5854 O   0  0  0  0  0  0  0  0  0  0  0  0
   43.5155    2.1884   12.7077 O   0  0  0  0  0  0  0  0  0  0  0  0
   45.4648    5.4145   12.2273 C   0  0  0  0  0  0  0  0  0  0  0  0
   46.4526    6.0447   13.2062 C   0  0  0  0  0  0  0  0  0  0  0  0
   47.1463    7.2911   12.6546 C   0  0  0  0  0  0  0  0  0  0  0  0
   46.2141    8.4977   12.5319 C   0  0  0  0  0  0  0  0  0  0  0  0
   46.8722    9.7102   11.8654 C   0  0  0  0  0  0  0  0  0  0  0  0
   48.1293   10.2595   12.5485 C   0  0  0  0  0  0  0  0  0  0  0  0
   47.8893   10.7219   13.9880 C   0  0  0  0  0  0  0  0  0  0  0  0
   49.1295   11.3520   14.6317 C   0  0  0  0  0  0  0  0  0  0  0  0
   49.4932   12.7129   14.0320 C   0  0  0  0  0  0  0  0  0  0  0  0
   50.6250   13.4232   14.7814 C   0  0  0  0  0  0  0  0  0  0  0  0
   51.9627   12.6790   14.8194 C   0  0  0  0  0  0  0  0  0  0  0  0
   52.5259   12.3649   13.4414 C   0  0  0  0  0  0  0  0  0  0  0  0
   43.9306    7.5096   10.6540 H   0  0  0  0  0  0  0  0  0  0  0  0
   45.4615    7.0835   10.3038 H   0  0  0  0  0  0  0  0  0  0  0  0
   46.5219    4.9550   11.2368 H   0  0  0  0  0  0  0  0  0  0  0  0
   45.4309    3.9181   12.1347 H   0  0  0  0  0  0  0  0  0  0  0  0
   46.7220    4.6745   13.8360 H   0  0  0  0  0  0  0  0  0  0  0  0
   45.4188    5.8095   13.9789 H   0  0  0  0  0  0  0  0  0  0  0  0
   45.8763    8.1960   13.7205 H   0  0  0  0  0  0  0  0  0  0  0  0
   48.8731    5.2983   12.6340 H   0  0  0  0  0  0  0  0  0  0  0  0
   47.5629    9.9781   13.6198 H   0  0  0  0  0  0  0  0  0  0  0  0
   50.5611    7.0810   12.5204 H   0  0  0  0  0  0  0  0  0  0  0  0
   43.0384    4.5901   12.6331 H   0  0  0  0  0  0  0  0  0  0  0  0
   43.4286    6.2193   13.2238 H   0  0  0  0  0  0  0  0  0  0  0  0
   43.1927    5.4178    9.5619 H   0  0  0  0  0  0  0  0  0  0  0  0
   43.8594    3.9005   10.1999 H   0  0  0  0  0  0  0  0  0  0  0  0
   44.8225    4.6378    8.2556 H   0  0  0  0  0  0  0  0  0  0  0  0
   41.4667    6.4001   12.4199 H   0  0  0  0  0  0  0  0  0  0  0  0
   49.7630   10.6737   12.6515 H   0  0  0  0  0  0  0  0  0  0  0  0
   51.0113    9.4893   12.3071 H   0  0  0  0  0  0  0  0  0  0  0  0
   50.0694   10.2983   15.1213 H   0  0  0  0  0  0  0  0  0  0  0  0
   51.2241    9.0252   14.8006 H   0  0  0  0  0  0  0  0  0  0  0  0
   48.2690   14.6901   14.7933 H   0  0  0  0  0  0  0  0  0  0  0  0
   49.0930   16.2306   14.6042 H   0  0  0  0  0  0  0  0  0  0  0  0
   50.2074   14.5771   13.2442 H   0  0  0  0  0  0  0  0  0  0  0  0
   51.2955   15.0898   14.5274 H   0  0  0  0  0  0  0  0  0  0  0  0
   52.4003   11.0453   15.4309 H   0  0  0  0  0  0  0  0  0  0  0  0
   52.8085   10.5873   13.7876 H   0  0  0  0  0  0  0  0  0  0  0  0
   52.5724   12.9989   13.9845 H   0  0  0  0  0  0  0  0  0  0  0  0
   51.3732   12.3690   12.8695 H   0  0  0  0  0  0  0  0  0  0  0  0
   49.6073   12.5385   14.6067 H   0  0  0  0  0  0  0  0  0  0  0  0
   50.8106   13.0163   15.8100 H   0  0  0  0  0  0  0  0  0  0  0  0
   49.3281   14.3539   17.0080 H   0  0  0  0  0  0  0  0  0  0  0  0
   50.3016   15.8229   16.7896 H   0  0  0  0  0  0  0  0  0  0  0  0
   48.5436   15.9307   16.9485 H   0  0  0  0  0  0  0  0  0  0  0  0
   41.8801    3.6997   12.0119 H   0  0  0  0  0  0  0  0  0  0  0  0
   45.9685    5.1988   11.2775 H   0  0  0  0  0  0  0  0  0  0  0  0
   44.6238    6.0905   12.0366 H   0  0  0  0  0  0  0  0  0  0  0  0
   47.2140    5.2969   13.4595 H   0  0  0  0  0  0  0  0  0  0  0  0
   45.9433    6.2783   14.1484 H   0  0  0  0  0  0  0  0  0  0  0  0
   47.5940    7.0629   11.6792 H   0  0  0  0  0  0  0  0  0  0  0  0
   47.9717    7.5434   13.3311 H   0  0  0  0  0  0  0  0  0  0  0  0
   45.3374    8.2298   11.9302 H   0  0  0  0  0  0  0  0  0  0  0  0
   45.8349    8.7746   13.5216 H   0  0  0  0  0  0  0  0  0  0  0  0
   47.1328    9.4436   10.8320 H   0  0  0  0  0  0  0  0  0  0  0  0
   46.1270   10.5135   11.7984 H   0  0  0  0  0  0  0  0  0  0  0  0
   48.9285    9.5091   12.5301 H   0  0  0  0  0  0  0  0  0  0  0  0
   48.4845   11.1019   11.9440 H   0  0  0  0  0  0  0  0  0  0  0  0
   47.5954    9.8605   14.6010 H   0  0  0  0  0  0  0  0  0  0  0  0
   47.0544   11.4328   14.0222 H   0  0  0  0  0  0  0  0  0  0  0  0
   48.9331   11.4798   15.7044 H   0  0  0  0  0  0  0  0  0  0  0  0
   49.9720   10.6561   14.5437 H   0  0  0  0  0  0  0  0  0  0  0  0
   49.7638   12.6078   12.9761 H   0  0  0  0  0  0  0  0  0  0  0  0
   48.6097   13.3633   14.0609 H   0  0  0  0  0  0  0  0  0  0  0  0
   50.3059   13.6155   15.8139 H   0  0  0  0  0  0  0  0  0  0  0  0
   50.7802   14.4054   14.3178 H   0  0  0  0  0  0  0  0  0  0  0  0
   51.8666   11.7520   15.3942 H   0  0  0  0  0  0  0  0  0  0  0  0
   52.6874   13.3016   15.3590 H   0  0  0  0  0  0  0  0  0  0  0  0
   52.5893   13.2680   12.8273 H   0  0  0  0  0  0  0  0  0  0  0  0
   51.9061   11.6304   12.9170 H   0  0  0  0  0  0  0  0  0  0  0  0
   53.5338   11.9456   13.5343 H   0  0  0  0  0  0  0  0  0  0  0  0
  1  2  1  0
  1  3  1  0
  3  6  1  0
  4  6  1  0
  4  7  2  0
  4  8  1  0
  5  9  2  0
  7  9  1  0
  5 10  1  0
  8 10  2  0
  1 11  1  0
  1 12  1  0
 12 13  1  0
 11 14  1  0
  5 15  1  0
 15 16  1  0
 17 18  1  0
 16 19  1  0
 19 20  1  0
 18 21  1  0
 20 21  1  0
 17 22  1  0
 23 24  1  0
 23 25  1  0
 23 26  2  0
 23 27  2  0
 24 28  1  0
 28 29  1  0
 29 30  1  0
 30 31  1  0
 31 32  1  0
 32 33  1  0
 33 34  1  0
 34 35  1  0
 35 36  1  0
 36 37  1  0
 37 38  1  0
 38 39  1  0
  2 40  1  0
  2 41  1  0
  3 42  1  0
  3 43  1  0
  6 44  1  0
  6 45  1  0
  7 46  1  0
  8 47  1  0
  9 48  1  0
 10 49  1  0
 11 50  1  0
 11 51  1  0
 12 52  1  0
 12 53  1  0
 13 54  1  0
 14 55  1  0
 15 56  1  0
 15 57  1  0
 16 58  1  0
 16 59  1  0
 17 60  1  0
 17 61  1  0
 18 62  1  0
 18 63  1  0
 19 64  1  0
 19 65  1  0
 20 66  1  0
 20 67  1  0
 21 68  1  0
 21 69  1  0
 22 70  1  0
 22 71  1  0
 22 72  1  0
 25 73  1  0
 28 74  1  0
 28 75  1  0
 29 76  1  0
 29 77  1  0
 30 78  1  0
 30 79  1  0
 31 80  1  0
 31 81  1  0
 32 82  1  0
 32 83  1  0
 33 84  1  0
 33 85  1  0
 34 86  1  0
 34 87  1  0
 35 88  1  0
 35 89  1  0
 36 90  1  0
 36 91  1  0
 37 92  1  0
 37 93  1  0
 38 94  1  0
 38 95  1  0
 39 96  1  0
 39 97  1  0
 39 98  1  0
M  END
> <Uni-Dock RESULT> 
ENERGY=   -5.613  LOWER_BOUND=    0.000  UPPER_BOUND=    0.000
INTER + INTRA:          -5.613
INTER:                  -5.613
INTRA:                   0.000
UNBOUND:                 0.000

$$$$

     RDKit          3D

 98 97  0  0  0  0  0  0  0  0999 V2000
   48.9747   11.7037   12.0594 C   0  0  0  0  0  0  0  0  0  0  0  0
   49.7771   11.2358   13.2123 N   0  0  0  0  0  0  0  0  0  0  0  0
   48.1215   10.5323   11.4953 C   0  0  0  0  0  0  0  0  0  0  0  0
   47.5642    8.7673   13.2800 C   0  0  0  0  0  0  0  0  0  0  0  0
   48.4242    6.6081   14.8794 C   0  0  0  0  0  0  0  0  0  0  0  0
   47.0691    9.9090   12.4263 C   0  0  0  0  0  0  0  0  0  0  0  0
   47.8214    8.9497   14.6429 C   0  0  0  0  0  0  0  0  0  0  0  0
   47.7542    7.4956   12.7224 C   0  0  0  0  0  0  0  0  0  0  0  0
   48.2443    7.8803   15.4365 C   0  0  0  0  0  0  0  0  0  0  0  0
   48.1767    6.4251   13.5144 C   0  0  0  0  0  0  0  0  0  0  0  0
   48.0827   12.8851   12.5198 C   0  0  0  0  0  0  0  0  0  0  0  0
   49.9525   12.2037   10.9533 C   0  0  0  0  0  0  0  0  0  0  0  0
   50.8401   11.1572   10.5500 O   0  0  0  0  0  0  0  0  0  0  0  0
   48.8741   14.0138   12.8988 O   0  0  0  0  0  0  0  0  0  0  0  0
   48.8431    5.4467   15.7469 C   0  0  0  0  0  0  0  0  0  0  0  0
   47.6322    4.7732   16.3971 C   0  0  0  0  0  0  0  0  0  0  0  0
   49.0636    5.7657   21.6445 C   0  0  0  0  0  0  0  0  0  0  0  0
   49.4252    4.6997   20.6088 C   0  0  0  0  0  0  0  0  0  0  0  0
   47.9850    3.5062   17.1816 C   0  0  0  0  0  0  0  0  0  0  0  0
   48.9700    3.6898   18.3399 C   0  0  0  0  0  0  0  0  0  0  0  0
   48.4859    4.6826   19.4008 C   0  0  0  0  0  0  0  0  0  0  0  0
   47.7050    5.5525   22.2935 C   0  0  0  0  0  0  0  0  0  0  0  0
   47.5871   12.4687   10.1588 S   0  0  0  0  0  0  0  0  0  0  0  0
   47.0807   11.3251   11.1946 O   0  0  0  0  0  0  0  0  0  0  0  0
   48.0889   13.6489   11.1328 O   0  0  0  0  0  0  0  0  0  0  0  0
   48.7420   11.9844    9.4376 O   0  0  0  0  0  0  0  0  0  0  0  0
   46.4378   13.0140    9.4749 O   0  0  0  0  0  0  0  0  0  0  0  0
   48.0532   10.7098   12.0282 C   0  0  0  0  0  0  0  0  0  0  0  0
   47.3625    9.6282   12.8554 C   0  0  0  0  0  0  0  0  0  0  0  0
   48.3270    8.8068   13.7121 C   0  0  0  0  0  0  0  0  0  0  0  0
   48.9108    9.5924   14.8876 C   0  0  0  0  0  0  0  0  0  0  0  0
   49.9699    8.8134   15.6744 C   0  0  0  0  0  0  0  0  0  0  0  0
   49.5178    7.4821   16.2842 C   0  0  0  0  0  0  0  0  0  0  0  0
   48.3612    7.6268   17.2767 C   0  0  0  0  0  0  0  0  0  0  0  0
   47.9762    6.3037   17.9482 C   0  0  0  0  0  0  0  0  0  0  0  0
   49.0347    5.7976   18.9318 C   0  0  0  0  0  0  0  0  0  0  0  0
   48.5839    4.5698   19.7295 C   0  0  0  0  0  0  0  0  0  0  0  0
   48.2439    3.3292   18.8988 C   0  0  0  0  0  0  0  0  0  0  0  0
   49.3926    2.8446   18.0270 C   0  0  0  0  0  0  0  0  0  0  0  0
   50.3263   12.0267   13.5505 H   0  0  0  0  0  0  0  0  0  0  0  0
   50.4614   10.5671   12.8440 H   0  0  0  0  0  0  0  0  0  0  0  0
   48.7787    9.7417   11.1083 H   0  0  0  0  0  0  0  0  0  0  0  0
   47.5793   10.9233   10.6215 H   0  0  0  0  0  0  0  0  0  0  0  0
   46.2603    9.5062   11.7985 H   0  0  0  0  0  0  0  0  0  0  0  0
   46.5783   10.6614   13.0521 H   0  0  0  0  0  0  0  0  0  0  0  0
   47.7026    9.9314   15.0953 H   0  0  0  0  0  0  0  0  0  0  0  0
   47.5661    7.3296   11.6646 H   0  0  0  0  0  0  0  0  0  0  0  0
   48.4304    8.0489   16.4942 H   0  0  0  0  0  0  0  0  0  0  0  0
   48.3060    5.4458   13.0590 H   0  0  0  0  0  0  0  0  0  0  0  0
   47.4157   13.2049   11.7129 H   0  0  0  0  0  0  0  0  0  0  0  0
   47.4706   12.6086   13.3853 H   0  0  0  0  0  0  0  0  0  0  0  0
   50.5697   13.0365   11.3069 H   0  0  0  0  0  0  0  0  0  0  0  0
   49.3971   12.5374   10.0702 H   0  0  0  0  0  0  0  0  0  0  0  0
   51.4568   11.5464    9.9055 H   0  0  0  0  0  0  0  0  0  0  0  0
   48.3218   14.5562   13.4862 H   0  0  0  0  0  0  0  0  0  0  0  0
   49.5455    5.8088   16.5077 H   0  0  0  0  0  0  0  0  0  0  0  0
   49.3969    4.7193   15.1400 H   0  0  0  0  0  0  0  0  0  0  0  0
   47.1094    5.4825   17.0495 H   0  0  0  0  0  0  0  0  0  0  0  0
   46.9074    4.4959   15.6203 H   0  0  0  0  0  0  0  0  0  0  0  0
   49.0933    6.7579   21.1816 H   0  0  0  0  0  0  0  0  0  0  0  0
   49.8294    5.7625   22.4287 H   0  0  0  0  0  0  0  0  0  0  0  0
   50.4492    4.8890   20.2658 H   0  0  0  0  0  0  0  0  0  0  0  0
   49.4304    3.7136   21.0867 H   0  0  0  0  0  0  0  0  0  0  0  0
   47.0566    3.0720   17.5727 H   0  0  0  0  0  0  0  0  0  0  0  0
   48.4005    2.7653   16.4879 H   0  0  0  0  0  0  0  0  0  0  0  0
   49.1258    2.7086   18.8076 H   0  0  0  0  0  0  0  0  0  0  0  0
   49.9469    4.0037   17.9552 H   0  0  0  0  0  0  0  0  0  0  0  0
   48.4344    5.6895   18.9726 H   0  0  0  0  0  0  0  0  0  0  0  0
   47.4744    4.4060   19.7177 H   0  0  0  0  0  0  0  0  0  0  0  0
   46.8936    5.6867   21.5737 H   0  0  0  0  0  0  0  0  0  0  0  0
   47.6272    4.5522   22.7262 H   0  0  0  0  0  0  0  0  0  0  0  0
   47.5546    6.2801   23.0957 H   0  0  0  0  0  0  0  0  0  0  0  0
   47.6807   14.4769   10.8007 H   0  0  0  0  0  0  0  0  0  0  0  0
   48.8431   10.2609   11.4141 H   0  0  0  0  0  0  0  0  0  0  0  0
   48.4996   11.4696   12.6794 H   0  0  0  0  0  0  0  0  0  0  0  0
   46.8327    8.9542   12.1711 H   0  0  0  0  0  0  0  0  0  0  0  0
   46.5864   10.0806   13.4838 H   0  0  0  0  0  0  0  0  0  0  0  0
   49.1371    8.4158   13.0837 H   0  0  0  0  0  0  0  0  0  0  0  0
   47.7782    7.9394   14.0981 H   0  0  0  0  0  0  0  0  0  0  0  0
   49.3854   10.5106   14.5214 H   0  0  0  0  0  0  0  0  0  0  0  0
   48.1044    9.9093   15.5579 H   0  0  0  0  0  0  0  0  0  0  0  0
   50.8230    8.6143   15.0115 H   0  0  0  0  0  0  0  0  0  0  0  0
   50.3474    9.4598   16.4775 H   0  0  0  0  0  0  0  0  0  0  0  0
   49.2383    6.7783   15.4914 H   0  0  0  0  0  0  0  0  0  0  0  0
   50.3867    7.0460   16.7903 H   0  0  0  0  0  0  0  0  0  0  0  0
   47.4761    8.0041   16.7491 H   0  0  0  0  0  0  0  0  0  0  0  0
   48.6121    8.3704   18.0434 H   0  0  0  0  0  0  0  0  0  0  0  0
   47.0334    6.4546   18.4904 H   0  0  0  0  0  0  0  0  0  0  0  0
   47.7808    5.5523   17.1742 H   0  0  0  0  0  0  0  0  0  0  0  0
   49.9689    5.5699   18.4077 H   0  0  0  0  0  0  0  0  0  0  0  0
   49.2687    6.5967   19.6467 H   0  0  0  0  0  0  0  0  0  0  0  0
   47.7049    4.8359   20.3308 H   0  0  0  0  0  0  0  0  0  0  0  0
   49.3785    4.3119   20.4408 H   0  0  0  0  0  0  0  0  0  0  0  0
   47.3657    3.5190   18.2728 H   0  0  0  0  0  0  0  0  0  0  0  0
   47.9626    2.5216   19.5862 H   0  0  0  0  0  0  0  0  0  0  0  0
   50.2989    2.6911   18.6202 H   0  0  0  0  0  0  0  0  0  0  0  0
   49.6158    3.5610   17.2298 H   0  0  0  0  0  0  0  0  0  0  0  0
   49.1299    1.8914   17.5553 H   0  0  0  0  0  0  0  0  0  0  0  0
  1  2  1  0
  1  3  1  0
  3  6  1  0
  4  6  1  0
  4  7  2  0
  4  8  1  0
  5  9  2  0
  7  9  1  0
  5 10  1  0
  8 10  2  0
  1 11  1  0
  1 12  1  0
 12 13  1  0
 11 14  1  0
  5 15  1  0
 15 16  1  0
 17 18  1  0
 16 19  1  0
 19 20  1  0
 18 21  1  0
 20 21  1  0
 17 22  1  0
 23 24  1  0
 23 25  1  0
 23 26  2  0
 23 27  2  0
 24 28  1  0
 28 29  1  0
 29 30  1  0
 30 31  1  0
 31 32  1  0
 32 33  1  0
 33 34  1  0
 34 35  1  0
 35 36  1  0
 36 37  1  0
 37 38  1  0
 38 39  1  0
  2 40  1  0
  2 41  1  0
  3 42  1  0
  3 43  1  0
  6 44  1  0
  6 45  1  0
  7 46  1  0
  8 47  1  0
  9 48  1  0
 10 49  1  0
 11 50  1  0
 11 51  1  0
 12 52  1  0
 12 53  1  0
 13 54  1  0
 14 55  1  0
 15 56  1  0
 15 57  1  0
 16 58  1  0
 16 59  1  0
 17 60  1  0
 17 61  1  0
 18 62  1  0
 18 63  1  0
 19 64  1  0
 19 65  1  0
 20 66  1  0
 20 67  1  0
 21 68  1  0
 21 69  1  0
 22 70  1  0
 22 71  1  0
 22 72  1  0
 25 73  1  0
 28 74  1  0
 28 75  1  0
 29 76  1  0
 29 77  1  0
 30 78  1  0
 30 79  1  0
 31 80  1  0
 31 81  1  0
 32 82  1  0
 32 83  1  0
 33 84  1  0
 33 85  1  0
 34 86  1  0
 34 87  1  0
 35 88  1  0
 35 89  1  0
 36 90  1  0
 36 91  1  0
 37 92  1  0
 37 93  1  0
 38 94  1  0
 38 95  1  0
 39 96  1  0
 39 97  1  0
 39 98  1  0
M  END
> <Uni-Dock RESULT> 
ENERGY=   -5.386  LOWER_BOUND=    5.513  UPPER_BOUND=    7.824
INTER + INTRA:          -5.386
INTER:                  -5.386
INTRA:                   0.000
UNBOUND:                 0.000

$$$$

     RDKit          3D

 98 97  0  0  0  0  0  0  0  0999 V2000
   48.2891   14.1335   14.6727 C   0  0  0  0  0  0  0  0  0  0  0  0
   48.3515   12.6560   14.6010 N   0  0  0  0  0  0  0  0  0  0  0  0
   47.7505   14.5758   16.0628 C   0  0  0  0  0  0  0  0  0  0  0  0
   48.2533   12.8585   17.9092 C   0  0  0  0  0  0  0  0  0  0  0  0
   47.6610   10.3762   19.1122 C   0  0  0  0  0  0  0  0  0  0  0  0
   48.5831   14.1987   17.2987 C   0  0  0  0  0  0  0  0  0  0  0  0
   49.0960   11.7578   17.7213 C   0  0  0  0  0  0  0  0  0  0  0  0
   47.1037   12.7011   18.6951 C   0  0  0  0  0  0  0  0  0  0  0  0
   48.8052   10.5289   18.3192 C   0  0  0  0  0  0  0  0  0  0  0  0
   46.8114   11.4731   19.2939 C   0  0  0  0  0  0  0  0  0  0  0  0
   49.7048   14.7056   14.4042 C   0  0  0  0  0  0  0  0  0  0  0  0
   47.3168   14.6368   13.5632 C   0  0  0  0  0  0  0  0  0  0  0  0
   46.0134   14.0744   13.7378 O   0  0  0  0  0  0  0  0  0  0  0  0
   50.1337   14.4204   13.0706 O   0  0  0  0  0  0  0  0  0  0  0  0
   47.3706    9.0589   19.7883 C   0  0  0  0  0  0  0  0  0  0  0  0
   48.0795    8.9601   21.1413 C   0  0  0  0  0  0  0  0  0  0  0  0
   51.2431    4.5957   19.9116 C   0  0  0  0  0  0  0  0  0  0  0  0
   49.8026    4.7859   20.3896 C   0  0  0  0  0  0  0  0  0  0  0  0
   47.7138    7.7013   21.9329 C   0  0  0  0  0  0  0  0  0  0  0  0
   48.0331    6.3672   21.2518 C   0  0  0  0  0  0  0  0  0  0  0  0
   49.5163    6.1958   20.9112 C   0  0  0  0  0  0  0  0  0  0  0  0
   52.2791    4.7498   21.0141 C   0  0  0  0  0  0  0  0  0  0  0  0
   48.2178   16.6014   14.8379 S   0  0  0  0  0  0  0  0  0  0  0  0
   48.5436   15.6576   16.1187 O   0  0  0  0  0  0  0  0  0  0  0  0
   49.2155   16.0397   13.7056 O   0  0  0  0  0  0  0  0  0  0  0  0
   46.8681   16.3484   14.3874 O   0  0  0  0  0  0  0  0  0  0  0  0
   48.6874   17.9381   15.1179 O   0  0  0  0  0  0  0  0  0  0  0  0
   48.2282   14.2756   16.0195 C   0  0  0  0  0  0  0  0  0  0  0  0
   48.5516   13.6115   17.3558 C   0  0  0  0  0  0  0  0  0  0  0  0
   48.1442   12.1388   17.4191 C   0  0  0  0  0  0  0  0  0  0  0  0
   49.0154   11.2323   16.5478 C   0  0  0  0  0  0  0  0  0  0  0  0
   48.5347    9.7780   16.5115 C   0  0  0  0  0  0  0  0  0  0  0  0
   48.4542    9.0571   17.8615 C   0  0  0  0  0  0  0  0  0  0  0  0
   49.7971    8.9779   18.5922 C   0  0  0  0  0  0  0  0  0  0  0  0
   49.7249    8.1776   19.8976 C   0  0  0  0  0  0  0  0  0  0  0  0
   49.5193    6.6771   19.6730 C   0  0  0  0  0  0  0  0  0  0  0  0
   49.6156    5.8522   20.9604 C   0  0  0  0  0  0  0  0  0  0  0  0
   48.5910    6.1962   22.0451 C   0  0  0  0  0  0  0  0  0  0  0  0
   47.1469    6.0605   21.5860 C   0  0  0  0  0  0  0  0  0  0  0  0
   48.7020   12.4040   13.6762 H   0  0  0  0  0  0  0  0  0  0  0  0
   47.3840   12.3179   14.6266 H   0  0  0  0  0  0  0  0  0  0  0  0
   46.7197   14.2205   16.1964 H   0  0  0  0  0  0  0  0  0  0  0  0
   47.6874   15.6740   16.0468 H   0  0  0  0  0  0  0  0  0  0  0  0
   48.3943   14.9546   18.0756 H   0  0  0  0  0  0  0  0  0  0  0  0
   49.6585   14.2699   17.1060 H   0  0  0  0  0  0  0  0  0  0  0  0
   49.9827   11.8479   17.0983 H   0  0  0  0  0  0  0  0  0  0  0  0
   46.4303   13.5400   18.8518 H   0  0  0  0  0  0  0  0  0  0  0  0
   49.4810    9.6921   18.1619 H   0  0  0  0  0  0  0  0  0  0  0  0
   45.9184   11.3806   19.9080 H   0  0  0  0  0  0  0  0  0  0  0  0
   49.7137   15.7931   14.5289 H   0  0  0  0  0  0  0  0  0  0  0  0
   50.4453   14.2733   15.0861 H   0  0  0  0  0  0  0  0  0  0  0  0
   47.6633   14.3525   12.5639 H   0  0  0  0  0  0  0  0  0  0  0  0
   47.2238   15.7275   13.5981 H   0  0  0  0  0  0  0  0  0  0  0  0
   45.4743   14.3793   12.9870 H   0  0  0  0  0  0  0  0  0  0  0  0
   51.1039   14.4746   13.0728 H   0  0  0  0  0  0  0  0  0  0  0  0
   47.6808    8.2438   19.1230 H   0  0  0  0  0  0  0  0  0  0  0  0
   46.2870    8.9491   19.9228 H   0  0  0  0  0  0  0  0  0  0  0  0
   49.1660    9.0121   21.0041 H   0  0  0  0  0  0  0  0  0  0  0  0
   47.8166    9.8312   21.7560 H   0  0  0  0  0  0  0  0  0  0  0  0
   51.4630    5.3034   19.1052 H   0  0  0  0  0  0  0  0  0  0  0  0
   51.3373    3.5917   19.4821 H   0  0  0  0  0  0  0  0  0  0  0  0
   49.1318    4.5698   19.5496 H   0  0  0  0  0  0  0  0  0  0  0  0
   49.5770    4.0505   21.1700 H   0  0  0  0  0  0  0  0  0  0  0  0
   48.2320    7.7378   22.8991 H   0  0  0  0  0  0  0  0  0  0  0  0
   46.6412    7.7260   22.1602 H   0  0  0  0  0  0  0  0  0  0  0  0
   47.7226    5.5609   21.9295 H   0  0  0  0  0  0  0  0  0  0  0  0
   47.4279    6.2547   20.3452 H   0  0  0  0  0  0  0  0  0  0  0  0
   49.8103    6.9262   20.1495 H   0  0  0  0  0  0  0  0  0  0  0  0
   50.1164    6.3922   21.8064 H   0  0  0  0  0  0  0  0  0  0  0  0
   52.3219    5.7787   21.3802 H   0  0  0  0  0  0  0  0  0  0  0  0
   52.0613    4.0877   21.8555 H   0  0  0  0  0  0  0  0  0  0  0  0
   53.2722    4.4964   20.6332 H   0  0  0  0  0  0  0  0  0  0  0  0
   49.6670   16.8205   13.3196 H   0  0  0  0  0  0  0  0  0  0  0  0
   47.1633   14.1498   15.7896 H   0  0  0  0  0  0  0  0  0  0  0  0
   48.8198   13.8298   15.2122 H   0  0  0  0  0  0  0  0  0  0  0  0
   48.0297   14.1591   18.1500 H   0  0  0  0  0  0  0  0  0  0  0  0
   49.6201   13.7204   17.5752 H   0  0  0  0  0  0  0  0  0  0  0  0
   47.0904   12.0348   17.1313 H   0  0  0  0  0  0  0  0  0  0  0  0
   48.2211   11.8134   18.4635 H   0  0  0  0  0  0  0  0  0  0  0  0
   49.0186   11.6013   15.5152 H   0  0  0  0  0  0  0  0  0  0  0  0
   50.0542   11.2747   16.8927 H   0  0  0  0  0  0  0  0  0  0  0  0
   47.5390    9.7493   16.0481 H   0  0  0  0  0  0  0  0  0  0  0  0
   49.2006    9.2113   15.8476 H   0  0  0  0  0  0  0  0  0  0  0  0
   47.7113    9.5420   18.5057 H   0  0  0  0  0  0  0  0  0  0  0  0
   48.0791    8.0458   17.6668 H   0  0  0  0  0  0  0  0  0  0  0  0
   50.1352    9.9920   18.8399 H   0  0  0  0  0  0  0  0  0  0  0  0
   50.5600    8.5429   17.9346 H   0  0  0  0  0  0  0  0  0  0  0  0
   50.6646    8.3273   20.4455 H   0  0  0  0  0  0  0  0  0  0  0  0
   48.9233    8.5854   20.5244 H   0  0  0  0  0  0  0  0  0  0  0  0
   48.5545    6.4892   19.1902 H   0  0  0  0  0  0  0  0  0  0  0  0
   50.2877    6.3113   18.9801 H   0  0  0  0  0  0  0  0  0  0  0  0
   50.6214    5.9665   21.3850 H   0  0  0  0  0  0  0  0  0  0  0  0
   49.5096    4.7923   20.6977 H   0  0  0  0  0  0  0  0  0  0  0  0
   48.7604    7.2107   22.4211 H   0  0  0  0  0  0  0  0  0  0  0  0
   48.7515    5.5223   22.8960 H   0  0  0  0  0  0  0  0  0  0  0  0
   46.9608    5.0696   21.1615 H   0  0  0  0  0  0  0  0  0  0  0  0
   46.8973    6.8143   20.8322 H   0  0  0  0  0  0  0  0  0  0  0  0
   46.4683    6.1996   22.4346 H   0  0  0  0  0  0  0  0  0  0  0  0
  1  2  1  0
  1  3  1  0
  3  6  1  0
  4  6  1  0
  4  7  2  0
  4  8  1  0
  5  9  2  0
  7  9  1  0
  5 10  1  0
  8 10  2  0
  1 11  1  0
  1 12  1  0
 12 13  1  0
 11 14  1  0
  5 15  1  0
 15 16  1  0
 17 18  1  0
 16 19  1  0
 19 20  1  0
 18 21  1  0
 20 21  1  0
 17 22  1  0
 23 24  1  0
 23 25  1  0
 23 26  2  0
 23 27  2  0
 24 28  1  0
 28 29  1  0
 29 30  1  0
 30 31  1  0
 31 32  1  0
 32 33  1  0
 33 34  1  0
 34 35  1  0
 35 36  1  0
 36 37  1  0
 37 38  1  0
 38 39  1  0
  2 40  1  0
  2 41  1  0
  3 42  1  0
  3 43  1  0
  6 44  1  0
  6 45  1  0
  7 46  1  0
  8 47  1  0
  9 48  1  0
 10 49  1  0
 11 50  1  0
 11 51  1  0
 12 52  1  0
 12 53  1  0
 13 54  1  0
 14 55  1  0
 15 56  1  0
 15 57  1  0
 16 58  1  0
 16 59  1  0
 17 60  1  0
 17 61  1  0
 18 62  1  0
 18 63  1  0
 19 64  1  0
 19 65  1  0
 20 66  1  0
 20 67  1  0
 21 68  1  0
 21 69  1  0
 22 70  1  0
 22 71  1  0
 22 72  1  0
 25 73  1  0
 28 74  1  0
 28 75  1  0
 29 76  1  0
 29 77  1  0
 30 78  1  0
 30 79  1  0
 31 80  1  0
 31 81  1  0
 32 82  1  0
 32 83  1  0
 33 84  1  0
 33 85  1  0
 34 86  1  0
 34 87  1  0
 35 88  1  0
 35 89  1  0
 36 90  1  0
 36 91  1  0
 37 92  1  0
 37 93  1  0
 38 94  1  0
 38 95  1  0
 39 96  1  0
 39 97  1  0
 39 98  1  0
M  END
> <Uni-Dock RESULT> 
ENERGY=   -5.302  LOWER_BOUND=    7.224  UPPER_BOUND=    9.821
INTER + INTRA:          -5.302
INTER:                  -5.302
INTRA:                   0.000
UNBOUND:                 0.000

$$$$

     RDKit          3D

 98 97  0  0  0  0  0  0  0  0999 V2000
   44.9597    4.8435   12.4917 C   0  0  0  0  0  0  0  0  0  0  0  0
   45.6068    4.9309   13.8205 N   0  0  0  0  0  0  0  0  0  0  0  0
   45.1951    6.1601   11.6983 C   0  0  0  0  0  0  0  0  0  0  0  0
   47.3560    7.3636   12.4003 C   0  0  0  0  0  0  0  0  0  0  0  0
   48.7238    8.9410   14.2979 C   0  0  0  0  0  0  0  0  0  0  0  0
   46.6470    6.5334   11.3585 C   0  0  0  0  0  0  0  0  0  0  0  0
   48.3108    6.7900   13.2467 C   0  0  0  0  0  0  0  0  0  0  0  0
   47.0831    8.7329   12.5219 C   0  0  0  0  0  0  0  0  0  0  0  0
   48.9909    7.5711   14.1847 C   0  0  0  0  0  0  0  0  0  0  0  0
   47.7623    9.5154   13.4589 C   0  0  0  0  0  0  0  0  0  0  0  0
   45.5334    3.6163   11.7378 C   0  0  0  0  0  0  0  0  0  0  0  0
   43.4290    4.6411   12.7050 C   0  0  0  0  0  0  0  0  0  0  0  0
   42.8745    5.7230   13.4585 O   0  0  0  0  0  0  0  0  0  0  0  0
   45.1862    2.3959   12.3964 O   0  0  0  0  0  0  0  0  0  0  0  0
   49.4878    9.7892   15.2847 C   0  0  0  0  0  0  0  0  0  0  0  0
   50.8001   10.2970   14.6823 C   0  0  0  0  0  0  0  0  0  0  0  0
   54.1839    7.7932   18.2670 C   0  0  0  0  0  0  0  0  0  0  0  0
   53.3808    9.0950   18.2676 C   0  0  0  0  0  0  0  0  0  0  0  0
   51.5532   11.2726   15.5913 C   0  0  0  0  0  0  0  0  0  0  0  0
   51.9641   10.7273   16.9622 C   0  0  0  0  0  0  0  0  0  0  0  0
   52.8677    9.4933   16.8819 C   0  0  0  0  0  0  0  0  0  0  0  0
   55.4676    7.8664   17.4550 C   0  0  0  0  0  0  0  0  0  0  0  0
   43.9278    4.7080   10.2467 S   0  0  0  0  0  0  0  0  0  0  0  0
   45.3029    5.5280   10.5188 O   0  0  0  0  0  0  0  0  0  0  0  0
   44.2103    3.2802   10.9356 O   0  0  0  0  0  0  0  0  0  0  0  0
   42.8461    5.3316   10.9746 O   0  0  0  0  0  0  0  0  0  0  0  0
   43.8298    4.4266    8.8335 O   0  0  0  0  0  0  0  0  0  0  0  0
   45.6313    5.8409   11.8654 C   0  0  0  0  0  0  0  0  0  0  0  0
   46.9145    6.6683   11.8677 C   0  0  0  0  0  0  0  0  0  0  0  0
   47.3126    7.1722   13.2556 C   0  0  0  0  0  0  0  0  0  0  0  0
   47.8086    6.0614   14.1830 C   0  0  0  0  0  0  0  0  0  0  0  0
   48.0907    6.5409   15.6106 C   0  0  0  0  0  0  0  0  0  0  0  0
   49.1275    7.6599   15.7571 C   0  0  0  0  0  0  0  0  0  0  0  0
   50.5110    7.2844   15.2198 C   0  0  0  0  0  0  0  0  0  0  0  0
   51.5625    8.3753   15.4520 C   0  0  0  0  0  0  0  0  0  0  0  0
   51.9463    8.5373   16.9253 C   0  0  0  0  0  0  0  0  0  0  0  0
   53.1147    9.5036   17.1450 C   0  0  0  0  0  0  0  0  0  0  0  0
   52.8812   10.9421   16.6749 C   0  0  0  0  0  0  0  0  0  0  0  0
   51.6782   11.6091   17.3248 C   0  0  0  0  0  0  0  0  0  0  0  0
   45.4263    4.0552   14.3124 H   0  0  0  0  0  0  0  0  0  0  0  0
   45.1006    5.6490   14.3488 H   0  0  0  0  0  0  0  0  0  0  0  0
   44.7149    7.0014   12.2163 H   0  0  0  0  0  0  0  0  0  0  0  0
   44.6626    6.0564   10.7412 H   0  0  0  0  0  0  0  0  0  0  0  0
   46.6339    7.1303   10.4343 H   0  0  0  0  0  0  0  0  0  0  0  0
   47.2479    5.6540   11.1053 H   0  0  0  0  0  0  0  0  0  0  0  0
   48.5253    5.7256   13.1873 H   0  0  0  0  0  0  0  0  0  0  0  0
   46.3416    9.2010   11.8792 H   0  0  0  0  0  0  0  0  0  0  0  0
   49.7328    7.1006   14.8250 H   0  0  0  0  0  0  0  0  0  0  0  0
   47.5394   10.5779   13.5254 H   0  0  0  0  0  0  0  0  0  0  0  0
   45.1365    3.5667   10.7189 H   0  0  0  0  0  0  0  0  0  0  0  0
   46.6267    3.6586   11.6813 H   0  0  0  0  0  0  0  0  0  0  0  0
   43.2169    3.7182   13.2552 H   0  0  0  0  0  0  0  0  0  0  0  0
   42.9085    4.5955   11.7424 H   0  0  0  0  0  0  0  0  0  0  0  0
   41.9363    5.5095   13.6055 H   0  0  0  0  0  0  0  0  0  0  0  0
   45.8342    1.7309   12.1098 H   0  0  0  0  0  0  0  0  0  0  0  0
   49.6749    9.1976   16.1892 H   0  0  0  0  0  0  0  0  0  0  0  0
   48.8644   10.6369   15.5964 H   0  0  0  0  0  0  0  0  0  0  0  0
   51.4492    9.4525   14.4224 H   0  0  0  0  0  0  0  0  0  0  0  0
   50.5922   10.8129   13.7356 H   0  0  0  0  0  0  0  0  0  0  0  0
   53.5622    6.9738   17.8905 H   0  0  0  0  0  0  0  0  0  0  0  0
   54.4400    7.5422   19.3028 H   0  0  0  0  0  0  0  0  0  0  0  0
   52.5278    8.9707   18.9451 H   0  0  0  0  0  0  0  0  0  0  0  0
   53.9956    9.9028   18.6800 H   0  0  0  0  0  0  0  0  0  0  0  0
   52.4518   11.6139   15.0629 H   0  0  0  0  0  0  0  0  0  0  0  0
   50.9321   12.1634   15.7450 H   0  0  0  0  0  0  0  0  0  0  0  0
   52.4921   11.5273   17.4979 H   0  0  0  0  0  0  0  0  0  0  0  0
   51.0729   10.4975   17.5569 H   0  0  0  0  0  0  0  0  0  0  0  0
   52.3131    8.6531   16.4501 H   0  0  0  0  0  0  0  0  0  0  0  0
   53.7122    9.7080   16.2181 H   0  0  0  0  0  0  0  0  0  0  0  0
   55.2587    7.9754   16.3877 H   0  0  0  0  0  0  0  0  0  0  0  0
   56.0908    8.7040   17.7769 H   0  0  0  0  0  0  0  0  0  0  0  0
   56.0450    6.9468   17.5831 H   0  0  0  0  0  0  0  0  0  0  0  0
   43.9589    2.5981   10.2766 H   0  0  0  0  0  0  0  0  0  0  0  0
   44.8180    6.4144   12.3260 H   0  0  0  0  0  0  0  0  0  0  0  0
   45.7698    4.9098   12.4263 H   0  0  0  0  0  0  0  0  0  0  0  0
   46.7722    7.5299   11.2040 H   0  0  0  0  0  0  0  0  0  0  0  0
   47.7317    6.0867   11.4252 H   0  0  0  0  0  0  0  0  0  0  0  0
   46.4641    7.6936   13.7162 H   0  0  0  0  0  0  0  0  0  0  0  0
   48.1095    7.9147   13.1278 H   0  0  0  0  0  0  0  0  0  0  0  0
   47.0549    5.2676   14.2478 H   0  0  0  0  0  0  0  0  0  0  0  0
   48.7067    5.5989   13.7592 H   0  0  0  0  0  0  0  0  0  0  0  0
   47.1483    6.8867   16.0569 H   0  0  0  0  0  0  0  0  0  0  0  0
   48.4159    5.6779   16.2062 H   0  0  0  0  0  0  0  0  0  0  0  0
   48.7735    8.5712   15.2607 H   0  0  0  0  0  0  0  0  0  0  0  0
   49.1978    7.8987   16.8244 H   0  0  0  0  0  0  0  0  0  0  0  0
   50.4444    7.1088   14.1386 H   0  0  0  0  0  0  0  0  0  0  0  0
   50.8493    6.3437   15.6718 H   0  0  0  0  0  0  0  0  0  0  0  0
   52.4620    8.1137   14.8793 H   0  0  0  0  0  0  0  0  0  0  0  0
   51.1915    9.3233   15.0454 H   0  0  0  0  0  0  0  0  0  0  0  0
   51.0836    8.8677   17.5133 H   0  0  0  0  0  0  0  0  0  0  0  0
   52.2379    7.5589   17.3278 H   0  0  0  0  0  0  0  0  0  0  0  0
   54.0044    9.1124   16.6348 H   0  0  0  0  0  0  0  0  0  0  0  0
   53.3530    9.5162   18.2159 H   0  0  0  0  0  0  0  0  0  0  0  0
   52.7719   10.9738   15.5858 H   0  0  0  0  0  0  0  0  0  0  0  0
   53.7766   11.5307   16.9112 H   0  0  0  0  0  0  0  0  0  0  0  0
   51.7378   11.5508   18.4155 H   0  0  0  0  0  0  0  0  0  0  0  0
   50.7424   11.1415   17.0021 H   0  0  0  0  0  0  0  0  0  0  0  0
   51.6374   12.6669   17.0428 H   0  0  0  0  0  0  0  0  0  0  0  0
  1  2  1  0
  1  3  1  0
  3  6  1  0
  4  6  1  0
  4  7  2  0
  4  8  1  0
  5  9  2  0
  7  9  1  0
  5 10  1  0
  8 10  2  0
  1 11  1  0
  1 12  1  0
 12 13  1  0
 11 14  1  0
  5 15  1  0
 15 16  1  0
 17 18  1  0
 16 19  1  0
 19 20  1  0
 18 21  1  0
 20 21  1  0
 17 22  1  0
 23 24  1  0
 23 25  1  0
 23 26  2  0
 23 27  2  0
 24 28  1  0
 28 29  1  0
 29 30  1  0
 30 31  1  0
 31 32  1  0
 32 33  1  0
 33 34  1  0
 34 35  1  0
 35 36  1  0
 36 37  1  0
 37 38  1  0
 38 39  1  0
  2 40  1  0
  2 41  1  0
  3 42  1  0
  3 43  1  0
  6 44  1  0
  6 45  1  0
  7 46  1  0
  8 47  1  0
  9 48  1  0
 10 49  1  0
 11 50  1  0
 11 51  1  0
 12 52  1  0
 12 53  1  0
 13 54  1  0
 14 55  1  0
 15 56  1  0
 15 57  1  0
 16 58  1  0
 16 59  1  0
 17 60  1  0
 17 61  1  0
 18 62  1  0
 18 63  1  0
 19 64  1  0
 19 65  1  0
 20 66  1  0
 20 67  1  0
 21 68  1  0
 21 69  1  0
 22 70  1  0
 22 71  1  0
 22 72  1  0
 25 73  1  0
 28 74  1  0
 28 75  1  0
 29 76  1  0
 29 77  1  0
 30 78  1  0
 30 79  1  0
 31 80  1  0
 31 81  1  0
 32 82  1  0
 32 83  1  0
 33 84  1  0
 33 85  1  0
 34 86  1  0
 34 87  1  0
 35 88  1  0
 35 89  1  0
 36 90  1  0
 36 91  1  0
 37 92  1  0
 37 93  1  0
 38 94  1  0
 38 95  1  0
 39 96  1  0
 39 97  1  0
 39 98  1  0
M  END
> <Uni-Dock RESULT> 
ENERGY=   -5.085  LOWER_BOUND=    2.310  UPPER_BOUND=    3.974
INTER + INTRA:          -5.085
INTER:                  -5.085
INTRA:                   0.000
UNBOUND:                 0.000

$$$$

     RDKit          3D

 98 97  0  0  0  0  0  0  0  0999 V2000
   45.9435   14.4706   11.2445 C   0  0  0  0  0  0  0  0  0  0  0  0
   44.9865   13.4288   11.6812 N   0  0  0  0  0  0  0  0  0  0  0  0
   47.3980   14.0255   11.5681 C   0  0  0  0  0  0  0  0  0  0  0  0
   47.6600   11.4683   11.6204 C   0  0  0  0  0  0  0  0  0  0  0  0
   47.2269    9.0325   12.9767 C   0  0  0  0  0  0  0  0  0  0  0  0
   47.9213   12.7557   10.8778 C   0  0  0  0  0  0  0  0  0  0  0  0
   46.6579   10.5878   11.1990 C   0  0  0  0  0  0  0  0  0  0  0  0
   48.4352   11.1233   12.7358 C   0  0  0  0  0  0  0  0  0  0  0  0
   46.4447    9.3798   11.8682 C   0  0  0  0  0  0  0  0  0  0  0  0
   48.2237    9.9158   13.4059 C   0  0  0  0  0  0  0  0  0  0  0  0
   45.7507   14.7195    9.7265 C   0  0  0  0  0  0  0  0  0  0  0  0
   45.6254   15.7841   12.0211 C   0  0  0  0  0  0  0  0  0  0  0  0
   45.7261   15.5758   13.4326 O   0  0  0  0  0  0  0  0  0  0  0  0
   44.4595   15.2687    9.4523 O   0  0  0  0  0  0  0  0  0  0  0  0
   47.0203    7.7099   13.6729 C   0  0  0  0  0  0  0  0  0  0  0  0
   47.8293    6.5965   13.0030 C   0  0  0  0  0  0  0  0  0  0  0  0
   43.5269    3.4602   11.5124 C   0  0  0  0  0  0  0  0  0  0  0  0
   44.3437    3.6359   12.7937 C   0  0  0  0  0  0  0  0  0  0  0  0
   47.7637    5.2600   13.7476 C   0  0  0  0  0  0  0  0  0  0  0  0
   46.3670    4.6533   13.9102 C   0  0  0  0  0  0  0  0  0  0  0  0
   45.6565    4.3925   12.5788 C   0  0  0  0  0  0  0  0  0  0  0  0
   44.2197    2.6134   10.4563 C   0  0  0  0  0  0  0  0  0  0  0  0
   47.5692   16.1737   10.4829 S   0  0  0  0  0  0  0  0  0  0  0  0
   47.9049   14.5849   10.4580 O   0  0  0  0  0  0  0  0  0  0  0  0
   46.1326   16.2559    9.7598 O   0  0  0  0  0  0  0  0  0  0  0  0
   47.3888   16.6039   11.8507 O   0  0  0  0  0  0  0  0  0  0  0  0
   48.4763   16.8514    9.5865 O   0  0  0  0  0  0  0  0  0  0  0  0
   47.0727   13.7208   11.2196 C   0  0  0  0  0  0  0  0  0  0  0  0
   47.6195   12.3001   11.1021 C   0  0  0  0  0  0  0  0  0  0  0  0
   46.8785   11.2874   11.9764 C   0  0  0  0  0  0  0  0  0  0  0  0
   45.4640   10.9815   11.4810 C   0  0  0  0  0  0  0  0  0  0  0  0
   44.6751   10.0639   12.4207 C   0  0  0  0  0  0  0  0  0  0  0  0
   45.2928    8.6900   12.7025 C   0  0  0  0  0  0  0  0  0  0  0  0
   45.4894    7.8396   11.4448 C   0  0  0  0  0  0  0  0  0  0  0  0
   46.0234    6.4347   11.7464 C   0  0  0  0  0  0  0  0  0  0  0  0
   44.9984    5.5390   12.4473 C   0  0  0  0  0  0  0  0  0  0  0  0
   45.4644    4.0874   12.5988 C   0  0  0  0  0  0  0  0  0  0  0  0
   46.7401    3.8842   13.4212 C   0  0  0  0  0  0  0  0  0  0  0  0
   46.6455    4.4278   14.8389 C   0  0  0  0  0  0  0  0  0  0  0  0
   44.0462   13.7575   11.4591 H   0  0  0  0  0  0  0  0  0  0  0  0
   45.0294   13.3988   12.7051 H   0  0  0  0  0  0  0  0  0  0  0  0
   47.5279   13.9286   12.6546 H   0  0  0  0  0  0  0  0  0  0  0  0
   48.0602   14.8486   11.2611 H   0  0  0  0  0  0  0  0  0  0  0  0
   49.0134   12.8495   10.7830 H   0  0  0  0  0  0  0  0  0  0  0  0
   47.5651   12.6737    9.8457 H   0  0  0  0  0  0  0  0  0  0  0  0
   46.0282   10.8419   10.3497 H   0  0  0  0  0  0  0  0  0  0  0  0
   49.2167   11.7932   13.0859 H   0  0  0  0  0  0  0  0  0  0  0  0
   45.6636    8.7113   11.5151 H   0  0  0  0  0  0  0  0  0  0  0  0
   48.8465    9.6673   14.2623 H   0  0  0  0  0  0  0  0  0  0  0  0
   46.4973   15.4269    9.3515 H   0  0  0  0  0  0  0  0  0  0  0  0
   45.8389   13.7887    9.1556 H   0  0  0  0  0  0  0  0  0  0  0  0
   44.6097   16.1384   11.8156 H   0  0  0  0  0  0  0  0  0  0  0  0
   46.3291   16.5760   11.7435 H   0  0  0  0  0  0  0  0  0  0  0  0
   45.4616   16.4102   13.8580 H   0  0  0  0  0  0  0  0  0  0  0  0
   44.2667   15.0739    8.5199 H   0  0  0  0  0  0  0  0  0  0  0  0
   45.9495    7.4721   13.6702 H   0  0  0  0  0  0  0  0  0  0  0  0
   47.3108    7.8034   14.7271 H   0  0  0  0  0  0  0  0  0  0  0  0
   47.5014    6.4621   11.9655 H   0  0  0  0  0  0  0  0  0  0  0  0
   48.8840    6.8962   12.9437 H   0  0  0  0  0  0  0  0  0  0  0  0
   43.2842    4.4410   11.0897 H   0  0  0  0  0  0  0  0  0  0  0  0
   42.5734    2.9852   11.7703 H   0  0  0  0  0  0  0  0  0  0  0  0
   43.7289    4.1810   13.5196 H   0  0  0  0  0  0  0  0  0  0  0  0
   44.5512    2.6532   13.2318 H   0  0  0  0  0  0  0  0  0  0  0  0
   48.4029    4.5398   13.2222 H   0  0  0  0  0  0  0  0  0  0  0  0
   48.2034    5.3888   14.7441 H   0  0  0  0  0  0  0  0  0  0  0  0
   46.4733    3.7056   14.4546 H   0  0  0  0  0  0  0  0  0  0  0  0
   45.7480    5.3007   14.5415 H   0  0  0  0  0  0  0  0  0  0  0  0
   45.4442    5.3432   12.0776 H   0  0  0  0  0  0  0  0  0  0  0  0
   46.3183    3.8145   11.9246 H   0  0  0  0  0  0  0  0  0  0  0  0
   45.1077    3.1145   10.0627 H   0  0  0  0  0  0  0  0  0  0  0  0
   44.5161    1.6428   10.8610 H   0  0  0  0  0  0  0  0  0  0  0  0
   43.5439    2.4366    9.6151 H   0  0  0  0  0  0  0  0  0  0  0  0
   46.2010   16.9633    9.0835 H   0  0  0  0  0  0  0  0  0  0  0  0
   47.0706   14.0330   12.2708 H   0  0  0  0  0  0  0  0  0  0  0  0
   46.0493   13.7752   10.8320 H   0  0  0  0  0  0  0  0  0  0  0  0
   48.6778   12.3113   11.3903 H   0  0  0  0  0  0  0  0  0  0  0  0
   47.6026   11.9815   10.0533 H   0  0  0  0  0  0  0  0  0  0  0  0
   46.8427   11.6501   13.0114 H   0  0  0  0  0  0  0  0  0  0  0  0
   47.4634   10.3599   11.9856 H   0  0  0  0  0  0  0  0  0  0  0  0
   44.8957   11.9139   11.3815 H   0  0  0  0  0  0  0  0  0  0  0  0
   45.5100   10.5408   10.4792 H   0  0  0  0  0  0  0  0  0  0  0  0
   44.5367   10.5805   13.3804 H   0  0  0  0  0  0  0  0  0  0  0  0
   43.6713    9.9203   11.9999 H   0  0  0  0  0  0  0  0  0  0  0  0
   46.2504    8.8053   13.2238 H   0  0  0  0  0  0  0  0  0  0  0  0
   44.6242    8.1709   13.3989 H   0  0  0  0  0  0  0  0  0  0  0  0
   46.2089    8.3354   10.7810 H   0  0  0  0  0  0  0  0  0  0  0  0
   44.5469    7.7644   10.8884 H   0  0  0  0  0  0  0  0  0  0  0  0
   46.3122    5.9651   10.7969 H   0  0  0  0  0  0  0  0  0  0  0  0
   46.9351    6.5194   12.3492 H   0  0  0  0  0  0  0  0  0  0  0  0
   44.7423    5.9450   13.4316 H   0  0  0  0  0  0  0  0  0  0  0  0
   44.0692    5.5354   11.8635 H   0  0  0  0  0  0  0  0  0  0  0  0
   45.6222    3.6557   11.6020 H   0  0  0  0  0  0  0  0  0  0  0  0
   44.6516    3.5123   13.0597 H   0  0  0  0  0  0  0  0  0  0  0  0
   47.5972    4.3382   12.9128 H   0  0  0  0  0  0  0  0  0  0  0  0
   46.9480    2.8081   13.4730 H   0  0  0  0  0  0  0  0  0  0  0  0
   45.7693    4.0263   15.3564 H   0  0  0  0  0  0  0  0  0  0  0  0
   46.5806    5.5207   14.8418 H   0  0  0  0  0  0  0  0  0  0  0  0
   47.5366    4.1449   15.4099 H   0  0  0  0  0  0  0  0  0  0  0  0
  1  2  1  0
  1  3  1  0
  3  6  1  0
  4  6  1  0
  4  7  2  0
  4  8  1  0
  5  9  2  0
  7  9  1  0
  5 10  1  0
  8 10  2  0
  1 11  1  0
  1 12  1  0
 12 13  1  0
 11 14  1  0
  5 15  1  0
 15 16  1  0
 17 18  1  0
 16 19  1  0
 19 20  1  0
 18 21  1  0
 20 21  1  0
 17 22  1  0
 23 24  1  0
 23 25  1  0
 23 26  2  0
 23 27  2  0
 24 28  1  0
 28 29  1  0
 29 30  1  0
 30 31  1  0
 31 32  1  0
 32 33  1  0
 33 34  1  0
 34 35  1  0
 35 36  1  0
 36 37  1  0
 37 38  1  0
 38 39  1  0
  2 40  1  0
  2 41  1  0
  3 42  1  0
  3 43  1  0
  6 44  1  0
  6 45  1  0
  7 46  1  0
  8 47  1  0
  9 48  1  0
 10 49  1  0
 11 50  1  0
 11 51  1  0
 12 52  1  0
 12 53  1  0
 13 54  1  0
 14 55  1  0
 15 56  1  0
 15 57  1  0
 16 58  1  0
 16 59  1  0
 17 60  1  0
 17 61  1  0
 18 62  1  0
 18 63  1  0
 19 64  1  0
 19 65  1  0
 20 66  1  0
 20 67  1  0
 21 68  1  0
 21 69  1  0
 22 70  1  0
 22 71  1  0
 22 72  1  0
 25 73  1  0
 28 74  1  0
 28 75  1  0
 29 76  1  0
 29 77  1  0
 30 78  1  0
 30 79  1  0
 31 80  1  0
 31 81  1  0
 32 82  1  0
 32 83  1  0
 33 84  1  0
 33 85  1  0
 34 86  1  0
 34 87  1  0
 35 88  1  0
 35 89  1  0
 36 90  1  0
 36 91  1  0
 37 92  1  0
 37 93  1  0
 38 94  1  0
 38 95  1  0
 39 96  1  0
 39 97  1  0
 39 98  1  0
M  END
> <Uni-Dock RESULT> 
ENERGY=   -5.054  LOWER_BOUND=    5.530  UPPER_BOUND=    8.998
INTER + INTRA:          -5.054
INTER:                  -5.054
INTRA:                   0.000
UNBOUND:                 0.000

$$$$

     RDKit          3D

 98 97  0  0  0  0  0  0  0  0999 V2000
   41.4074   12.5497   10.5360 C   0  0  0  0  0  0  0  0  0  0  0  0
   42.4226   13.5953   10.2750 N   0  0  0  0  0  0  0  0  0  0  0  0
   41.5034   11.4345    9.4565 C   0  0  0  0  0  0  0  0  0  0  0  0
   43.8647   11.2233    8.4614 C   0  0  0  0  0  0  0  0  0  0  0  0
   45.8539   12.2537    6.7463 C   0  0  0  0  0  0  0  0  0  0  0  0
   42.8154   10.6379    9.3744 C   0  0  0  0  0  0  0  0  0  0  0  0
   44.9774   11.8918    8.9831 C   0  0  0  0  0  0  0  0  0  0  0  0
   43.7509   11.0868    7.0713 C   0  0  0  0  0  0  0  0  0  0  0  0
   45.9646   12.3998    8.1346 C   0  0  0  0  0  0  0  0  0  0  0  0
   44.7371   11.5937    6.2214 C   0  0  0  0  0  0  0  0  0  0  0  0
   41.6324   11.9814   11.9607 C   0  0  0  0  0  0  0  0  0  0  0  0
   39.9967   13.2090   10.4669 C   0  0  0  0  0  0  0  0  0  0  0  0
   39.7782   13.8062    9.1857 O   0  0  0  0  0  0  0  0  0  0  0  0
   41.3979   12.9783   12.9583 O   0  0  0  0  0  0  0  0  0  0  0  0
   46.9407   12.7686    5.8351 C   0  0  0  0  0  0  0  0  0  0  0  0
   48.0532   11.7328    5.6559 C   0  0  0  0  0  0  0  0  0  0  0  0
   52.1312   14.7595    7.8418 C   0  0  0  0  0  0  0  0  0  0  0  0
   51.4715   14.6688    6.4647 C   0  0  0  0  0  0  0  0  0  0  0  0
   49.1170   12.1480    4.6355 C   0  0  0  0  0  0  0  0  0  0  0  0
   49.8689   13.4460    4.9444 C   0  0  0  0  0  0  0  0  0  0  0  0
   50.6061   13.4192    6.2865 C   0  0  0  0  0  0  0  0  0  0  0  0
   53.1196   13.6383    8.1220 C   0  0  0  0  0  0  0  0  0  0  0  0
   39.7516   10.7638   10.9742 S   0  0  0  0  0  0  0  0  0  0  0  0
   41.2071   10.4537   10.3240 O   0  0  0  0  0  0  0  0  0  0  0  0
   40.1089   11.6683   12.2577 O   0  0  0  0  0  0  0  0  0  0  0  0
   38.9867   11.5875   10.0657 O   0  0  0  0  0  0  0  0  0  0  0  0
   39.2187    9.5374   11.5198 O   0  0  0  0  0  0  0  0  0  0  0  0
   41.9423   11.5485    9.7949 C   0  0  0  0  0  0  0  0  0  0  0  0
   43.2313   11.0093    9.1791 C   0  0  0  0  0  0  0  0  0  0  0  0
   44.0604   12.0788    8.4666 C   0  0  0  0  0  0  0  0  0  0  0  0
   44.7169   13.0735    9.4255 C   0  0  0  0  0  0  0  0  0  0  0  0
   45.4453   14.2169    8.7118 C   0  0  0  0  0  0  0  0  0  0  0  0
   46.5657   13.8099    7.7487 C   0  0  0  0  0  0  0  0  0  0  0  0
   47.6941   13.0244    8.4220 C   0  0  0  0  0  0  0  0  0  0  0  0
   48.8516   12.7001    7.4707 C   0  0  0  0  0  0  0  0  0  0  0  0
   49.6648   13.9338    7.0699 C   0  0  0  0  0  0  0  0  0  0  0  0
   50.9198   13.5959    6.2587 C   0  0  0  0  0  0  0  0  0  0  0  0
   50.6746   12.8799    4.9275 C   0  0  0  0  0  0  0  0  0  0  0  0
   49.7746   13.6531    3.9753 C   0  0  0  0  0  0  0  0  0  0  0  0
   42.3255   14.3102   10.9968 H   0  0  0  0  0  0  0  0  0  0  0  0
   42.1544   14.0552    9.3988 H   0  0  0  0  0  0  0  0  0  0  0  0
   41.2668   11.8486    8.4670 H   0  0  0  0  0  0  0  0  0  0  0  0
   40.7056   10.7089    9.6744 H   0  0  0  0  0  0  0  0  0  0  0  0
   42.5783    9.6376    8.9825 H   0  0  0  0  0  0  0  0  0  0  0  0
   43.2421   10.4475   10.3646 H   0  0  0  0  0  0  0  0  0  0  0  0
   45.0784   12.0302   10.0570 H   0  0  0  0  0  0  0  0  0  0  0  0
   42.8931   10.5759    6.6412 H   0  0  0  0  0  0  0  0  0  0  0  0
   46.8219   12.9089    8.5674 H   0  0  0  0  0  0  0  0  0  0  0  0
   44.6300   11.4647    5.1467 H   0  0  0  0  0  0  0  0  0  0  0  0
   40.9499   11.1488   12.1585 H   0  0  0  0  0  0  0  0  0  0  0  0
   42.6600   11.6241   12.0897 H   0  0  0  0  0  0  0  0  0  0  0  0
   39.8829   13.9980   11.2180 H   0  0  0  0  0  0  0  0  0  0  0  0
   39.2134   12.4614   10.6313 H   0  0  0  0  0  0  0  0  0  0  0  0
   38.9112   14.2466    9.2267 H   0  0  0  0  0  0  0  0  0  0  0  0
   41.8768   12.6932   13.7544 H   0  0  0  0  0  0  0  0  0  0  0  0
   47.3382   13.7025    6.2511 H   0  0  0  0  0  0  0  0  0  0  0  0
   46.5074   13.0273    4.8605 H   0  0  0  0  0  0  0  0  0  0  0  0
   48.5265   11.5149    6.6205 H   0  0  0  0  0  0  0  0  0  0  0  0
   47.6174   10.7830    5.3187 H   0  0  0  0  0  0  0  0  0  0  0  0
   51.3623   14.7692    8.6217 H   0  0  0  0  0  0  0  0  0  0  0  0
   52.6605   15.7169    7.9114 H   0  0  0  0  0  0  0  0  0  0  0  0
   50.8493   15.5605    6.3237 H   0  0  0  0  0  0  0  0  0  0  0  0
   52.2435   14.6973    5.6877 H   0  0  0  0  0  0  0  0  0  0  0  0
   49.8441   11.3319    4.5426 H   0  0  0  0  0  0  0  0  0  0  0  0
   48.6428   12.2483    3.6517 H   0  0  0  0  0  0  0  0  0  0  0  0
   50.5940   13.6148    4.1372 H   0  0  0  0  0  0  0  0  0  0  0  0
   49.1773   14.2956    4.9168 H   0  0  0  0  0  0  0  0  0  0  0  0
   49.8830   13.3640    7.1075 H   0  0  0  0  0  0  0  0  0  0  0  0
   51.2316   12.5212    6.3359 H   0  0  0  0  0  0  0  0  0  0  0  0
   52.6145   12.6725    8.2032 H   0  0  0  0  0  0  0  0  0  0  0  0
   53.8754   13.5731    7.3357 H   0  0  0  0  0  0  0  0  0  0  0  0
   53.6331   13.8198    9.0700 H   0  0  0  0  0  0  0  0  0  0  0  0
   39.6203   11.2821   13.0157 H   0  0  0  0  0  0  0  0  0  0  0  0
   41.3501   12.0620    9.0280 H   0  0  0  0  0  0  0  0  0  0  0  0
   42.1647   12.2548   10.6025 H   0  0  0  0  0  0  0  0  0  0  0  0
   42.9693   10.2245    8.4591 H   0  0  0  0  0  0  0  0  0  0  0  0
   43.8319   10.5136    9.9506 H   0  0  0  0  0  0  0  0  0  0  0  0
   43.4304   12.6141    7.7451 H   0  0  0  0  0  0  0  0  0  0  0  0
   44.8411   11.5693    7.8891 H   0  0  0  0  0  0  0  0  0  0  0  0
   43.9545   13.5246   10.0718 H   0  0  0  0  0  0  0  0  0  0  0  0
   45.4096   12.5452   10.0896 H   0  0  0  0  0  0  0  0  0  0  0  0
   44.7076   14.8057    8.1497 H   0  0  0  0  0  0  0  0  0  0  0  0
   45.8612   14.8893    9.4735 H   0  0  0  0  0  0  0  0  0  0  0  0
   46.1555   13.2265    6.9159 H   0  0  0  0  0  0  0  0  0  0  0  0
   46.9668   14.7311    7.3106 H   0  0  0  0  0  0  0  0  0  0  0  0
   47.2976   12.0745    8.8022 H   0  0  0  0  0  0  0  0  0  0  0  0
   48.0739   13.5776    9.2900 H   0  0  0  0  0  0  0  0  0  0  0  0
   49.5179   11.9849    7.9708 H   0  0  0  0  0  0  0  0  0  0  0  0
   48.4547   12.1964    6.5816 H   0  0  0  0  0  0  0  0  0  0  0  0
   49.0435   14.6372    6.5054 H   0  0  0  0  0  0  0  0  0  0  0  0
   49.9825   14.4623    7.9777 H   0  0  0  0  0  0  0  0  0  0  0  0
   51.5848   12.9724    6.8703 H   0  0  0  0  0  0  0  0  0  0  0  0
   51.4637   14.5285    6.0634 H   0  0  0  0  0  0  0  0  0  0  0  0
   50.2516   11.8852    5.1024 H   0  0  0  0  0  0  0  0  0  0  0  0
   51.6441   12.7202    4.4393 H   0  0  0  0  0  0  0  0  0  0  0  0
   50.1485   14.6691    3.8186 H   0  0  0  0  0  0  0  0  0  0  0  0
   48.7508   13.7144    4.3581 H   0  0  0  0  0  0  0  0  0  0  0  0
   49.7377   13.1508    3.0024 H   0  0  0  0  0  0  0  0  0  0  0  0
  1  2  1  0
  1  3  1  0
  3  6  1  0
  4  6  1  0
  4  7  2  0
  4  8  1  0
  5  9  2  0
  7  9  1  0
  5 10  1  0
  8 10  2  0
  1 11  1  0
  1 12  1  0
 12 13  1  0
 11 14  1  0
  5 15  1  0
 15 16  1  0
 17 18  1  0
 16 19  1  0
 19 20  1  0
 18 21  1  0
 20 21  1  0
 17 22  1  0
 23 24  1  0
 23 25  1  0
 23 26  2  0
 23 27  2  0
 24 28  1  0
 28 29  1  0
 29 30  1  0
 30 31  1  0
 31 32  1  0
 32 33  1  0
 33 34  1  0
 34 35  1  0
 35 36  1  0
 36 37  1  0
 37 38  1  0
 38 39  1  0
  2 40  1  0
  2 41  1  0
  3 42  1  0
  3 43  1  0
  6 44  1  0
  6 45  1  0
  7 46  1  0
  8 47  1  0
  9 48  1  0
 10 49  1  0
 11 50  1  0
 11 51  1  0
 12 52  1  0
 12 53  1  0
 13 54  1  0
 14 55  1  0
 15 56  1  0
 15 57  1  0
 16 58  1  0
 16 59  1  0
 17 60  1  0
 17 61  1  0
 18 62  1  0
 18 63  1  0
 19 64  1  0
 19 65  1  0
 20 66  1  0
 20 67  1  0
 21 68  1  0
 21 69  1  0
 22 70  1  0
 22 71  1  0
 22 72  1  0
 25 73  1  0
 28 74  1  0
 28 75  1  0
 29 76  1  0
 29 77  1  0
 30 78  1  0
 30 79  1  0
 31 80  1  0
 31 81  1  0
 32 82  1  0
 32 83  1  0
 33 84  1  0
 33 85  1  0
 34 86  1  0
 34 87  1  0
 35 88  1  0
 35 89  1  0
 36 90  1  0
 36 91  1  0
 37 92  1  0
 37 93  1  0
 38 94  1  0
 38 95  1  0
 39 96  1  0
 39 97  1  0
 39 98  1  0
M  END
> <Uni-Dock RESULT> 
ENERGY=   -4.937  LOWER_BOUND=    6.684  UPPER_BOUND=    8.081
INTER + INTRA:          -4.937
INTER:                  -4.937
INTRA:                   0.000
UNBOUND:                 0.000

$$$$

     RDKit          3D

 98 97  0  0  0  0  0  0  0  0999 V2000
   45.6764    5.6451   11.8774 C   0  0  0  0  0  0  0  0  0  0  0  0
   47.1499    5.6287   11.7346 N   0  0  0  0  0  0  0  0  0  0  0  0
   45.2508    6.7660   12.8677 C   0  0  0  0  0  0  0  0  0  0  0  0
   46.9330    8.7091   12.9426 C   0  0  0  0  0  0  0  0  0  0  0  0
   49.4326    9.6958   13.8019 C   0  0  0  0  0  0  0  0  0  0  0  0
   45.5829    8.2165   12.4823 C   0  0  0  0  0  0  0  0  0  0  0  0
   47.9956    8.8362   12.0416 C   0  0  0  0  0  0  0  0  0  0  0  0
   47.1377    9.0688   14.2815 C   0  0  0  0  0  0  0  0  0  0  0  0
   49.2330    9.3277   12.4656 C   0  0  0  0  0  0  0  0  0  0  0  0
   48.3741    9.5607   14.7072 C   0  0  0  0  0  0  0  0  0  0  0  0
   45.0425    5.8534   10.4781 C   0  0  0  0  0  0  0  0  0  0  0  0
   45.2239    4.2645   12.4419 C   0  0  0  0  0  0  0  0  0  0  0  0
   45.8435    4.0051   13.7046 O   0  0  0  0  0  0  0  0  0  0  0  0
   45.3157    4.7459    9.6164 O   0  0  0  0  0  0  0  0  0  0  0  0
   50.7577   10.2629   14.2481 C   0  0  0  0  0  0  0  0  0  0  0  0
   50.8166   11.7767   14.0296 C   0  0  0  0  0  0  0  0  0  0  0  0
   55.0407   11.7646   10.4623 C   0  0  0  0  0  0  0  0  0  0  0  0
   54.9130   11.7298   11.9862 C   0  0  0  0  0  0  0  0  0  0  0  0
   52.0861   12.4263   14.5876 C   0  0  0  0  0  0  0  0  0  0  0  0
   53.4083   11.9186   14.0049 C   0  0  0  0  0  0  0  0  0  0  0  0
   53.5145   12.0967   12.4875 C   0  0  0  0  0  0  0  0  0  0  0  0
   54.8337   13.1465    9.8622 C   0  0  0  0  0  0  0  0  0  0  0  0
   43.2132    5.7263   12.1002 S   0  0  0  0  0  0  0  0  0  0  0  0
   44.1340    7.0615   12.1837 O   0  0  0  0  0  0  0  0  0  0  0  0
   43.7359    5.0042   10.7591 O   0  0  0  0  0  0  0  0  0  0  0  0
   43.5295    4.8561   13.2098 O   0  0  0  0  0  0  0  0  0  0  0  0
   41.8551    6.1197   11.8061 O   0  0  0  0  0  0  0  0  0  0  0  0
   45.5294    6.8910   12.3914 C   0  0  0  0  0  0  0  0  0  0  0  0
   46.1705    8.2719   12.5071 C   0  0  0  0  0  0  0  0  0  0  0  0
   47.6597    8.2256   12.8520 C   0  0  0  0  0  0  0  0  0  0  0  0
   48.5309    7.7143   11.7034 C   0  0  0  0  0  0  0  0  0  0  0  0
   50.0057    7.5493   12.0847 C   0  0  0  0  0  0  0  0  0  0  0  0
   50.7217    8.8093   12.5830 C   0  0  0  0  0  0  0  0  0  0  0  0
   50.7360    9.9482   11.5601 C   0  0  0  0  0  0  0  0  0  0  0  0
   51.5312   11.1706   12.0324 C   0  0  0  0  0  0  0  0  0  0  0  0
   53.0407   10.9211   12.0899 C   0  0  0  0  0  0  0  0  0  0  0  0
   53.8530   12.1833   12.3966 C   0  0  0  0  0  0  0  0  0  0  0  0
   53.5493   12.8561   13.7382 C   0  0  0  0  0  0  0  0  0  0  0  0
   53.7528   11.9437   14.9385 C   0  0  0  0  0  0  0  0  0  0  0  0
   47.3911    4.8796   11.0849 H   0  0  0  0  0  0  0  0  0  0  0  0
   47.5312    5.3366   12.6403 H   0  0  0  0  0  0  0  0  0  0  0  0
   45.6516    6.5548   13.8685 H   0  0  0  0  0  0  0  0  0  0  0  0
   44.1567    6.7073   12.9664 H   0  0  0  0  0  0  0  0  0  0  0  0
   44.8318    8.8700   12.9507 H   0  0  0  0  0  0  0  0  0  0  0  0
   45.4642    8.3928   11.4082 H   0  0  0  0  0  0  0  0  0  0  0  0
   47.8691    8.5436   11.0020 H   0  0  0  0  0  0  0  0  0  0  0  0
   46.3291    8.9743   15.0021 H   0  0  0  0  0  0  0  0  0  0  0  0
   50.0393    9.4225   11.7427 H   0  0  0  0  0  0  0  0  0  0  0  0
   48.5033    9.8428   15.7497 H   0  0  0  0  0  0  0  0  0  0  0  0
   43.9550    5.9516   10.5556 H   0  0  0  0  0  0  0  0  0  0  0  0
   45.4369    6.7523    9.9916 H   0  0  0  0  0  0  0  0  0  0  0  0
   45.4979    3.4444   11.7697 H   0  0  0  0  0  0  0  0  0  0  0  0
   44.1383    4.2439   12.5855 H   0  0  0  0  0  0  0  0  0  0  0  0
   45.5676    3.1112   13.9732 H   0  0  0  0  0  0  0  0  0  0  0  0
   45.2177    5.0710    8.7058 H   0  0  0  0  0  0  0  0  0  0  0  0
   51.5618    9.7563   13.7003 H   0  0  0  0  0  0  0  0  0  0  0  0
   50.9156   10.0298   15.3088 H   0  0  0  0  0  0  0  0  0  0  0  0
   50.7164   12.0094   12.9629 H   0  0  0  0  0  0  0  0  0  0  0  0
   49.9548   12.2503   14.5182 H   0  0  0  0  0  0  0  0  0  0  0  0
   54.3284   11.0636   10.0142 H   0  0  0  0  0  0  0  0  0  0  0  0
   56.0419   11.4119   10.1891 H   0  0  0  0  0  0  0  0  0  0  0  0
   55.1640   10.7186   12.3277 H   0  0  0  0  0  0  0  0  0  0  0  0
   55.6534   12.4049   12.4299 H   0  0  0  0  0  0  0  0  0  0  0  0
   52.0207   13.5091   14.4246 H   0  0  0  0  0  0  0  0  0  0  0  0
   52.1086   12.2816   15.6746 H   0  0  0  0  0  0  0  0  0  0  0  0
   54.2239   12.4700   14.4913 H   0  0  0  0  0  0  0  0  0  0  0  0
   53.5533   10.8644   14.2666 H   0  0  0  0  0  0  0  0  0  0  0  0
   52.7760   11.4621   11.9855 H   0  0  0  0  0  0  0  0  0  0  0  0
   53.2861   13.1367   12.2302 H   0  0  0  0  0  0  0  0  0  0  0  0
   53.8018   13.4846    9.9862 H   0  0  0  0  0  0  0  0  0  0  0  0
   55.5001   13.8801   10.3220 H   0  0  0  0  0  0  0  0  0  0  0  0
   55.0441   13.1245    8.7895 H   0  0  0  0  0  0  0  0  0  0  0  0
   42.9377    4.7753   10.2365 H   0  0  0  0  0  0  0  0  0  0  0  0
   45.7045    6.3211   13.3118 H   0  0  0  0  0  0  0  0  0  0  0  0
   45.9527    6.3371   11.5460 H   0  0  0  0  0  0  0  0  0  0  0  0
   45.6425    8.8347   13.2866 H   0  0  0  0  0  0  0  0  0  0  0  0
   46.0122    8.8334   11.5791 H   0  0  0  0  0  0  0  0  0  0  0  0
   47.8128    7.6045   13.7435 H   0  0  0  0  0  0  0  0  0  0  0  0
   47.9753    9.2422   13.1160 H   0  0  0  0  0  0  0  0  0  0  0  0
   48.1681    6.7348   11.3698 H   0  0  0  0  0  0  0  0  0  0  0  0
   48.4397    8.3856   10.8425 H   0  0  0  0  0  0  0  0  0  0  0  0
   50.0819    6.7806   12.8658 H   0  0  0  0  0  0  0  0  0  0  0  0
   50.5455    7.1578   11.2126 H   0  0  0  0  0  0  0  0  0  0  0  0
   50.2672    9.1582   13.5177 H   0  0  0  0  0  0  0  0  0  0  0  0
   51.7500    8.5213   12.8299 H   0  0  0  0  0  0  0  0  0  0  0  0
   49.7062   10.2738   11.3659 H   0  0  0  0  0  0  0  0  0  0  0  0
   51.1398    9.5923   10.6041 H   0  0  0  0  0  0  0  0  0  0  0  0
   51.3361   11.9977   11.3373 H   0  0  0  0  0  0  0  0  0  0  0  0
   51.1564   11.4850   13.0135 H   0  0  0  0  0  0  0  0  0  0  0  0
   53.2747   10.1476   12.8290 H   0  0  0  0  0  0  0  0  0  0  0  0
   53.3754   10.5324   11.1197 H   0  0  0  0  0  0  0  0  0  0  0  0
   53.6910   12.9171   11.5964 H   0  0  0  0  0  0  0  0  0  0  0  0
   54.9181   11.9221   12.3654 H   0  0  0  0  0  0  0  0  0  0  0  0
   52.5262   13.2461   13.7457 H   0  0  0  0  0  0  0  0  0  0  0  0
   54.2104   13.7253   13.8445 H   0  0  0  0  0  0  0  0  0  0  0  0
   54.7535   11.5019   14.9315 H   0  0  0  0  0  0  0  0  0  0  0  0
   53.0154   11.1345   14.9519 H   0  0  0  0  0  0  0  0  0  0  0  0
   53.6396   12.5138   15.8671 H   0  0  0  0  0  0  0  0  0  0  0  0
  1  2  1  0
  1  3  1  0
  3  6  1  0
  4  6  1  0
  4  7  2  0
  4  8  1  0
  5  9  2  0
  7  9  1  0
  5 10  1  0
  8 10  2  0
  1 11  1  0
  1 12  1  0
 12 13  1  0
 11 14  1  0
  5 15  1  0
 15 16  1  0
 17 18  1  0
 16 19  1  0
 19 20  1  0
 18 21  1  0
 20 21  1  0
 17 22  1  0
 23 24  1  0
 23 25  1  0
 23 26  2  0
 23 27  2  0
 24 28  1  0
 28 29  1  0
 29 30  1  0
 30 31  1  0
 31 32  1  0
 32 33  1  0
 33 34  1  0
 34 35  1  0
 35 36  1  0
 36 37  1  0
 37 38  1  0
 38 39  1  0
  2 40  1  0
  2 41  1  0
  3 42  1  0
  3 43  1  0
  6 44  1  0
  6 45  1  0
  7 46  1  0
  8 47  1  0
  9 48  1  0
 10 49  1  0
 11 50  1  0
 11 51  1  0
 12 52  1  0
 12 53  1  0
 13 54  1  0
 14 55  1  0
 15 56  1  0
 15 57  1  0
 16 58  1  0
 16 59  1  0
 17 60  1  0
 17 61  1  0
 18 62  1  0
 18 63  1  0
 19 64  1  0
 19 65  1  0
 20 66  1  0
 20 67  1  0
 21 68  1  0
 21 69  1  0
 22 70  1  0
 22 71  1  0
 22 72  1  0
 25 73  1  0
 28 74  1  0
 28 75  1  0
 29 76  1  0
 29 77  1  0
 30 78  1  0
 30 79  1  0
 31 80  1  0
 31 81  1  0
 32 82  1  0
 32 83  1  0
 33 84  1  0
 33 85  1  0
 34 86  1  0
 34 87  1  0
 35 88  1  0
 35 89  1  0
 36 90  1  0
 36 91  1  0
 37 92  1  0
 37 93  1  0
 38 94  1  0
 38 95  1  0
 39 96  1  0
 39 97  1  0
 39 98  1  0
M  END
> <Uni-Dock RESULT> 
ENERGY=   -4.736  LOWER_BOUND=    1.763  UPPER_BOUND=    3.495
INTER + INTRA:          -4.736
INTER:                  -4.736
INTRA:                   0.000
UNBOUND:                 0.000

$$$$

     RDKit          3D

 98 97  0  0  0  0  0  0  0  0999 V2000
   53.9541    4.3104   18.7277 C   0  0  0  0  0  0  0  0  0  0  0  0
   53.9977    5.7810   18.8935 N   0  0  0  0  0  0  0  0  0  0  0  0
   52.5634    3.7676   19.1631 C   0  0  0  0  0  0  0  0  0  0  0  0
   50.6929    5.5105   18.8902 C   0  0  0  0  0  0  0  0  0  0  0  0
   49.4306    7.8522   19.8297 C   0  0  0  0  0  0  0  0  0  0  0  0
   51.3356    4.2471   18.3723 C   0  0  0  0  0  0  0  0  0  0  0  0
   50.8743    6.7303   18.2298 C   0  0  0  0  0  0  0  0  0  0  0  0
   49.8833    5.4767   20.0337 C   0  0  0  0  0  0  0  0  0  0  0  0
   50.2470    7.8900   18.6926 C   0  0  0  0  0  0  0  0  0  0  0  0
   49.2551    6.6352   20.4976 C   0  0  0  0  0  0  0  0  0  0  0  0
   54.2594    3.9666   17.2472 C   0  0  0  0  0  0  0  0  0  0  0  0
   55.0554    3.6827   19.6347 C   0  0  0  0  0  0  0  0  0  0  0  0
   54.8461    4.0356   21.0048 O   0  0  0  0  0  0  0  0  0  0  0  0
   55.5947    4.3365   16.8950 O   0  0  0  0  0  0  0  0  0  0  0  0
   48.7234    9.0979   20.3040 C   0  0  0  0  0  0  0  0  0  0  0  0
   47.3819    9.2815   19.5903 C   0  0  0  0  0  0  0  0  0  0  0  0
   48.5823   14.0992   17.1578 C   0  0  0  0  0  0  0  0  0  0  0  0
   48.0821   13.6826   18.5419 C   0  0  0  0  0  0  0  0  0  0  0  0
   46.5590   10.4561   20.1275 C   0  0  0  0  0  0  0  0  0  0  0  0
   47.2193   11.8345   20.0303 C   0  0  0  0  0  0  0  0  0  0  0  0
   47.5834   12.2369   18.5982 C   0  0  0  0  0  0  0  0  0  0  0  0
   47.5021   14.0874   16.0875 C   0  0  0  0  0  0  0  0  0  0  0  0
   53.8363    1.8583   18.4174 S   0  0  0  0  0  0  0  0  0  0  0  0
   52.5433    2.8194   18.2129 O   0  0  0  0  0  0  0  0  0  0  0  0
   54.9753    2.5852   17.5412 O   0  0  0  0  0  0  0  0  0  0  0  0
   54.2571    1.9089   19.7990 O   0  0  0  0  0  0  0  0  0  0  0  0
   53.5913    0.6049   17.7431 O   0  0  0  0  0  0  0  0  0  0  0  0
   52.6094    4.1381   18.7380 C   0  0  0  0  0  0  0  0  0  0  0  0
   51.2664    4.8215   18.4920 C   0  0  0  0  0  0  0  0  0  0  0  0
   51.1666    6.2131   19.1184 C   0  0  0  0  0  0  0  0  0  0  0  0
   52.0355    7.2568   18.4145 C   0  0  0  0  0  0  0  0  0  0  0  0
   52.0344    8.6207   19.1125 C   0  0  0  0  0  0  0  0  0  0  0  0
   50.6692    9.2981   19.2740 C   0  0  0  0  0  0  0  0  0  0  0  0
   49.9615    9.5699   17.9440 C   0  0  0  0  0  0  0  0  0  0  0  0
   48.6395   10.3278   18.1103 C   0  0  0  0  0  0  0  0  0  0  0  0
   48.8306   11.7825   18.5477 C   0  0  0  0  0  0  0  0  0  0  0  0
   47.5292   12.5908   18.5516 C   0  0  0  0  0  0  0  0  0  0  0  0
   46.4330   12.0757   19.4886 C   0  0  0  0  0  0  0  0  0  0  0  0
   46.8632   11.9961   20.9457 C   0  0  0  0  0  0  0  0  0  0  0  0
   54.9235    6.0992   18.6051 H   0  0  0  0  0  0  0  0  0  0  0  0
   53.9478    5.9663   19.9005 H   0  0  0  0  0  0  0  0  0  0  0  0
   52.4041    3.9584   20.2331 H   0  0  0  0  0  0  0  0  0  0  0  0
   52.6000    2.6731   19.0578 H   0  0  0  0  0  0  0  0  0  0  0  0
   50.5705    3.4583   18.4269 H   0  0  0  0  0  0  0  0  0  0  0  0
   51.5492    4.3447   17.3029 H   0  0  0  0  0  0  0  0  0  0  0  0
   51.5149    6.7877   17.3530 H   0  0  0  0  0  0  0  0  0  0  0  0
   49.7310    4.5419   20.5675 H   0  0  0  0  0  0  0  0  0  0  0  0
   50.4000    8.8230   18.1561 H   0  0  0  0  0  0  0  0  0  0  0  0
   48.6233    6.5794   21.3812 H   0  0  0  0  0  0  0  0  0  0  0  0
   54.1564    2.8914   17.0695 H   0  0  0  0  0  0  0  0  0  0  0  0
   53.5827    4.4958   16.5673 H   0  0  0  0  0  0  0  0  0  0  0  0
   56.0551    4.0334   19.3567 H   0  0  0  0  0  0  0  0  0  0  0  0
   55.0403    2.5902   19.5590 H   0  0  0  0  0  0  0  0  0  0  0  0
   55.5929    3.6643   21.5065 H   0  0  0  0  0  0  0  0  0  0  0  0
   55.6112    4.4316   15.9280 H   0  0  0  0  0  0  0  0  0  0  0  0
   49.3780    9.9620   20.1360 H   0  0  0  0  0  0  0  0  0  0  0  0
   48.5672    9.0381   21.3885 H   0  0  0  0  0  0  0  0  0  0  0  0
   47.5397    9.3990   18.5118 H   0  0  0  0  0  0  0  0  0  0  0  0
   46.7798    8.3703   19.7039 H   0  0  0  0  0  0  0  0  0  0  0  0
   49.4065   13.4472   16.8492 H   0  0  0  0  0  0  0  0  0  0  0  0
   48.9936   15.1129   17.2272 H   0  0  0  0  0  0  0  0  0  0  0  0
   48.9053   13.8073   19.2552 H   0  0  0  0  0  0  0  0  0  0  0  0
   47.2834   14.3615   18.8609 H   0  0  0  0  0  0  0  0  0  0  0  0
   45.6034   10.4832   19.5897 H   0  0  0  0  0  0  0  0  0  0  0  0
   46.3128   10.2634   21.1787 H   0  0  0  0  0  0  0  0  0  0  0  0
   46.5203   12.5723   20.4462 H   0  0  0  0  0  0  0  0  0  0  0  0
   48.1124   11.8681   20.6644 H   0  0  0  0  0  0  0  0  0  0  0  0
   48.3646   11.5730   18.2121 H   0  0  0  0  0  0  0  0  0  0  0  0
   46.7033   12.1198   17.9565 H   0  0  0  0  0  0  0  0  0  0  0  0
   47.1572   13.0712   15.8802 H   0  0  0  0  0  0  0  0  0  0  0  0
   46.6440   14.6941   16.3863 H   0  0  0  0  0  0  0  0  0  0  0  0
   47.8959   14.4962   15.1530 H   0  0  0  0  0  0  0  0  0  0  0  0
   55.3847    1.8893   16.9838 H   0  0  0  0  0  0  0  0  0  0  0  0
   52.8174    4.1030   19.8141 H   0  0  0  0  0  0  0  0  0  0  0  0
   53.4184    4.6828   18.2385 H   0  0  0  0  0  0  0  0  0  0  0  0
   50.4737    4.1871   18.9072 H   0  0  0  0  0  0  0  0  0  0  0  0
   51.0686    4.8740   17.4150 H   0  0  0  0  0  0  0  0  0  0  0  0
   51.4332    6.1591   20.1814 H   0  0  0  0  0  0  0  0  0  0  0  0
   50.1175    6.5289   19.0702 H   0  0  0  0  0  0  0  0  0  0  0  0
   53.0751    6.9100   18.3765 H   0  0  0  0  0  0  0  0  0  0  0  0
   51.7104    7.3685   17.3744 H   0  0  0  0  0  0  0  0  0  0  0  0
   52.4790    8.5042   20.1104 H   0  0  0  0  0  0  0  0  0  0  0  0
   52.6989    9.2938   18.5552 H   0  0  0  0  0  0  0  0  0  0  0  0
   50.0213    8.6943   19.9204 H   0  0  0  0  0  0  0  0  0  0  0  0
   50.8370   10.2430   19.8033 H   0  0  0  0  0  0  0  0  0  0  0  0
   49.7401    8.6156   17.4496 H   0  0  0  0  0  0  0  0  0  0  0  0
   50.6242   10.1276   17.2705 H   0  0  0  0  0  0  0  0  0  0  0  0
   48.1119   10.3147   17.1476 H   0  0  0  0  0  0  0  0  0  0  0  0
   48.0065    9.7915   18.8268 H   0  0  0  0  0  0  0  0  0  0  0  0
   49.2921   11.8284   19.5397 H   0  0  0  0  0  0  0  0  0  0  0  0
   49.5300   12.2733   17.8589 H   0  0  0  0  0  0  0  0  0  0  0  0
   47.1253   12.6249   17.5315 H   0  0  0  0  0  0  0  0  0  0  0  0
   47.7690   13.6262   18.8240 H   0  0  0  0  0  0  0  0  0  0  0  0
   46.0804   11.0931   19.1582 H   0  0  0  0  0  0  0  0  0  0  0  0
   45.5721   12.7519   19.4152 H   0  0  0  0  0  0  0  0  0  0  0  0
   47.2645   12.9538   21.2901 H   0  0  0  0  0  0  0  0  0  0  0  0
   47.6270   11.2257   21.0929 H   0  0  0  0  0  0  0  0  0  0  0  0
   46.0052   11.7405   21.5772 H   0  0  0  0  0  0  0  0  0  0  0  0
  1  2  1  0
  1  3  1  0
  3  6  1  0
  4  6  1  0
  4  7  2  0
  4  8  1  0
  5  9  2  0
  7  9  1  0
  5 10  1  0
  8 10  2  0
  1 11  1  0
  1 12  1  0
 12 13  1  0
 11 14  1  0
  5 15  1  0
 15 16  1  0
 17 18  1  0
 16 19  1  0
 19 20  1  0
 18 21  1  0
 20 21  1  0
 17 22  1  0
 23 24  1  0
 23 25  1  0
 23 26  2  0
 23 27  2  0
 24 28  1  0
 28 29  1  0
 29 30  1  0
 30 31  1  0
 31 32  1  0
 32 33  1  0
 33 34  1  0
 34 35  1  0
 35 36  1  0
 36 37  1  0
 37 38  1  0
 38 39  1  0
  2 40  1  0
  2 41  1  0
  3 42  1  0
  3 43  1  0
  6 44  1  0
  6 45  1  0
  7 46  1  0
  8 47  1  0
  9 48  1  0
 10 49  1  0
 11 50  1  0
 11 51  1  0
 12 52  1  0
 12 53  1  0
 13 54  1  0
 14 55  1  0
 15 56  1  0
 15 57  1  0
 16 58  1  0
 16 59  1  0
 17 60  1  0
 17 61  1  0
 18 62  1  0
 18 63  1  0
 19 64  1  0
 19 65  1  0
 20 66  1  0
 20 67  1  0
 21 68  1  0
 21 69  1  0
 22 70  1  0
 22 71  1  0
 22 72  1  0
 25 73  1  0
 28 74  1  0
 28 75  1  0
 29 76  1  0
 29 77  1  0
 30 78  1  0
 30 79  1  0
 31 80  1  0
 31 81  1  0
 32 82  1  0
 32 83  1  0
 33 84  1  0
 33 85  1  0
 34 86  1  0
 34 87  1  0
 35 88  1  0
 35 89  1  0
 36 90  1  0
 36 91  1  0
 37 92  1  0
 37 93  1  0
 38 94  1  0
 38 95  1  0
 39 96  1  0
 39 97  1  0
 39 98  1  0
M  END
> <Uni-Dock RESULT> 
ENERGY=   -4.699  LOWER_BOUND=    7.362  UPPER_BOUND=    9.027
INTER + INTRA:          -4.699
INTER:                  -4.699
INTRA:                   0.000
UNBOUND:                 0.000

$$$$

     RDKit          3D

 98 97  0  0  0  0  0  0  0  0999 V2000
   53.5039    5.3796   20.5399 C   0  0  0  0  0  0  0  0  0  0  0  0
   52.9579    6.6848   20.1036 N   0  0  0  0  0  0  0  0  0  0  0  0
   52.6919    4.2212   19.8940 C   0  0  0  0  0  0  0  0  0  0  0  0
   51.6248    4.8924   17.6531 C   0  0  0  0  0  0  0  0  0  0  0  0
   49.6067    6.3036   16.2762 C   0  0  0  0  0  0  0  0  0  0  0  0
   52.7066    4.1137   18.3607 C   0  0  0  0  0  0  0  0  0  0  0  0
   51.9178    6.0916   16.9950 C   0  0  0  0  0  0  0  0  0  0  0  0
   50.3082    4.4128   17.6261 C   0  0  0  0  0  0  0  0  0  0  0  0
   50.9196    6.7896   16.3102 C   0  0  0  0  0  0  0  0  0  0  0  0
   49.3090    5.1092   16.9416 C   0  0  0  0  0  0  0  0  0  0  0  0
   55.0021    5.3100   20.1476 C   0  0  0  0  0  0  0  0  0  0  0  0
   53.3781    5.2901   22.0909 C   0  0  0  0  0  0  0  0  0  0  0  0
   52.0129    5.4195   22.4974 O   0  0  0  0  0  0  0  0  0  0  0  0
   55.7688    6.2850   20.8585 O   0  0  0  0  0  0  0  0  0  0  0  0
   48.5398    7.0390   15.5031 C   0  0  0  0  0  0  0  0  0  0  0  0
   48.5248    6.6128   14.0331 C   0  0  0  0  0  0  0  0  0  0  0  0
   49.7386   11.5660   11.8975 C   0  0  0  0  0  0  0  0  0  0  0  0
   48.4581   10.8803   12.3769 C   0  0  0  0  0  0  0  0  0  0  0  0
   47.3750    7.2274   13.2298 C   0  0  0  0  0  0  0  0  0  0  0  0
   47.3445    8.7574   13.1697 C   0  0  0  0  0  0  0  0  0  0  0  0
   48.6120    9.3695   12.5661 C   0  0  0  0  0  0  0  0  0  0  0  0
   50.1971   11.1122   10.5204 C   0  0  0  0  0  0  0  0  0  0  0  0
   54.4241    3.1841   21.2152 S   0  0  0  0  0  0  0  0  0  0  0  0
   53.7701    3.4344   19.7499 O   0  0  0  0  0  0  0  0  0  0  0  0
   55.4533    4.4127   21.3717 O   0  0  0  0  0  0  0  0  0  0  0  0
   53.4055    3.3431   22.2280 O   0  0  0  0  0  0  0  0  0  0  0  0
   55.2574    2.0061   21.1538 O   0  0  0  0  0  0  0  0  0  0  0  0
   52.9694    4.5948   19.5722 C   0  0  0  0  0  0  0  0  0  0  0  0
   52.4094    4.5796   18.1518 C   0  0  0  0  0  0  0  0  0  0  0  0
   51.4300    5.7200   17.8705 C   0  0  0  0  0  0  0  0  0  0  0  0
   52.1049    7.0902   17.7872 C   0  0  0  0  0  0  0  0  0  0  0  0
   51.1143    8.2482   17.6290 C   0  0  0  0  0  0  0  0  0  0  0  0
   50.1973    8.1927   16.4024 C   0  0  0  0  0  0  0  0  0  0  0  0
   50.9563    8.1796   15.0730 C   0  0  0  0  0  0  0  0  0  0  0  0
   50.0305    8.2149   13.8518 C   0  0  0  0  0  0  0  0  0  0  0  0
   49.3194    9.5591   13.6743 C   0  0  0  0  0  0  0  0  0  0  0  0
   48.5270    9.6583   12.3669 C   0  0  0  0  0  0  0  0  0  0  0  0
   47.4032    8.6327   12.1946 C   0  0  0  0  0  0  0  0  0  0  0  0
   46.3612    8.6768   13.3023 C   0  0  0  0  0  0  0  0  0  0  0  0
   53.5096    7.4178   20.5507 H   0  0  0  0  0  0  0  0  0  0  0  0
   52.0202    6.7636   20.5106 H   0  0  0  0  0  0  0  0  0  0  0  0
   51.6519    4.2497   20.2467 H   0  0  0  0  0  0  0  0  0  0  0  0
   53.1123    3.2812   20.2813 H   0  0  0  0  0  0  0  0  0  0  0  0
   52.5592    3.0561   18.0957 H   0  0  0  0  0  0  0  0  0  0  0  0
   53.6864    4.3648   17.9415 H   0  0  0  0  0  0  0  0  0  0  0  0
   52.9267    6.4964   17.0192 H   0  0  0  0  0  0  0  0  0  0  0  0
   50.0542    3.4859   18.1343 H   0  0  0  0  0  0  0  0  0  0  0  0
   51.1767    7.7154   15.8018 H   0  0  0  0  0  0  0  0  0  0  0  0
   48.2975    4.7095   16.9271 H   0  0  0  0  0  0  0  0  0  0  0  0
   55.4193    4.3257   20.3827 H   0  0  0  0  0  0  0  0  0  0  0  0
   55.1432    5.4987   19.0777 H   0  0  0  0  0  0  0  0  0  0  0  0
   53.9431    6.0858   22.5880 H   0  0  0  0  0  0  0  0  0  0  0  0
   53.7504    4.3257   22.4527 H   0  0  0  0  0  0  0  0  0  0  0  0
   52.0091    5.4135   23.4707 H   0  0  0  0  0  0  0  0  0  0  0  0
   56.5772    6.4350   20.3405 H   0  0  0  0  0  0  0  0  0  0  0  0
   48.7155    8.1178   15.5965 H   0  0  0  0  0  0  0  0  0  0  0  0
   47.5607    6.8473   15.9601 H   0  0  0  0  0  0  0  0  0  0  0  0
   49.4829    6.8557   13.5587 H   0  0  0  0  0  0  0  0  0  0  0  0
   48.4317    5.5205   13.9702 H   0  0  0  0  0  0  0  0  0  0  0  0
   50.5429   11.3982   12.6217 H   0  0  0  0  0  0  0  0  0  0  0  0
   49.5637   12.6477   11.8681 H   0  0  0  0  0  0  0  0  0  0  0  0
   48.1631   11.3341   13.3303 H   0  0  0  0  0  0  0  0  0  0  0  0
   47.6480   11.0831   11.6675 H   0  0  0  0  0  0  0  0  0  0  0  0
   47.4193    6.8343   12.2066 H   0  0  0  0  0  0  0  0  0  0  0  0
   46.4241    6.8785   13.6504 H   0  0  0  0  0  0  0  0  0  0  0  0
   46.4771    9.0530   12.5647 H   0  0  0  0  0  0  0  0  0  0  0  0
   47.1735    9.1687   14.1709 H   0  0  0  0  0  0  0  0  0  0  0  0
   49.4678    9.1758   13.2219 H   0  0  0  0  0  0  0  0  0  0  0  0
   48.8191    8.8913   11.6025 H   0  0  0  0  0  0  0  0  0  0  0  0
   50.5193   10.0678   10.5314 H   0  0  0  0  0  0  0  0  0  0  0  0
   49.3996   11.2247    9.7821 H   0  0  0  0  0  0  0  0  0  0  0  0
   51.0489   11.7139   10.1919 H   0  0  0  0  0  0  0  0  0  0  0  0
   56.3061    4.0264   21.6650 H   0  0  0  0  0  0  0  0  0  0  0  0
   52.1462    4.5967   20.2967 H   0  0  0  0  0  0  0  0  0  0  0  0
   53.5870    5.4850   19.7356 H   0  0  0  0  0  0  0  0  0  0  0  0
   51.8967    3.6232   17.9919 H   0  0  0  0  0  0  0  0  0  0  0  0
   53.2326    4.5979   17.4282 H   0  0  0  0  0  0  0  0  0  0  0  0
   50.6485    5.7336   18.6406 H   0  0  0  0  0  0  0  0  0  0  0  0
   50.9318    5.5075   16.9169 H   0  0  0  0  0  0  0  0  0  0  0  0
   52.6818    7.2761   18.7011 H   0  0  0  0  0  0  0  0  0  0  0  0
   52.8252    7.0984   16.9619 H   0  0  0  0  0  0  0  0  0  0  0  0
   50.4828    8.2944   18.5269 H   0  0  0  0  0  0  0  0  0  0  0  0
   51.6828    9.1871   17.6029 H   0  0  0  0  0  0  0  0  0  0  0  0
   49.5397    7.3173   16.4608 H   0  0  0  0  0  0  0  0  0  0  0  0
   49.5439    9.0716   16.4464 H   0  0  0  0  0  0  0  0  0  0  0  0
   51.5594    7.2651   15.0090 H   0  0  0  0  0  0  0  0  0  0  0  0
   51.6567    9.0230   15.0295 H   0  0  0  0  0  0  0  0  0  0  0  0
   50.6336    8.0134   12.9567 H   0  0  0  0  0  0  0  0  0  0  0  0
   49.2997    7.4017   13.9321 H   0  0  0  0  0  0  0  0  0  0  0  0
   48.6534    9.7566   14.5209 H   0  0  0  0  0  0  0  0  0  0  0  0
   50.0678   10.3618   13.6766 H   0  0  0  0  0  0  0  0  0  0  0  0
   49.2187    9.5601   11.5202 H   0  0  0  0  0  0  0  0  0  0  0  0
   48.0986   10.6663   12.3008 H   0  0  0  0  0  0  0  0  0  0  0  0
   47.8178    7.6216   12.1240 H   0  0  0  0  0  0  0  0  0  0  0  0
   46.9034    8.8275   11.2374 H   0  0  0  0  0  0  0  0  0  0  0  0
   45.9626    9.6879   13.4271 H   0  0  0  0  0  0  0  0  0  0  0  0
   46.7833    8.3490   14.2579 H   0  0  0  0  0  0  0  0  0  0  0  0
   45.5266    8.0101   13.0597 H   0  0  0  0  0  0  0  0  0  0  0  0
  1  2  1  0
  1  3  1  0
  3  6  1  0
  4  6  1  0
  4  7  2  0
  4  8  1  0
  5  9  2  0
  7  9  1  0
  5 10  1  0
  8 10  2  0
  1 11  1  0
  1 12  1  0
 12 13  1  0
 11 14  1  0
  5 15  1  0
 15 16  1  0
 17 18  1  0
 16 19  1  0
 19 20  1  0
 18 21  1  0
 20 21  1  0
 17 22  1  0
 23 24  1  0
 23 25  1  0
 23 26  2  0
 23 27  2  0
 24 28  1  0
 28 29  1  0
 29 30  1  0
 30 31  1  0
 31 32  1  0
 32 33  1  0
 33 34  1  0
 34 35  1  0
 35 36  1  0
 36 37  1  0
 37 38  1  0
 38 39  1  0
  2 40  1  0
  2 41  1  0
  3 42  1  0
  3 43  1  0
  6 44  1  0
  6 45  1  0
  7 46  1  0
  8 47  1  0
  9 48  1  0
 10 49  1  0
 11 50  1  0
 11 51  1  0
 12 52  1  0
 12 53  1  0
 13 54  1  0
 14 55  1  0
 15 56  1  0
 15 57  1  0
 16 58  1  0
 16 59  1  0
 17 60  1  0
 17 61  1  0
 18 62  1  0
 18 63  1  0
 19 64  1  0
 19 65  1  0
 20 66  1  0
 20 67  1  0
 21 68  1  0
 21 69  1  0
 22 70  1  0
 22 71  1  0
 22 72  1  0
 25 73  1  0
 28 74  1  0
 28 75  1  0
 29 76  1  0
 29 77  1  0
 30 78  1  0
 30 79  1  0
 31 80  1  0
 31 81  1  0
 32 82  1  0
 32 83  1  0
 33 84  1  0
 33 85  1  0
 34 86  1  0
 34 87  1  0
 35 88  1  0
 35 89  1  0
 36 90  1  0
 36 91  1  0
 37 92  1  0
 37 93  1  0
 38 94  1  0
 38 95  1  0
 39 96  1  0
 39 97  1  0
 39 98  1  0
M  END
> <Uni-Dock RESULT> 
ENERGY=   -4.566  LOWER_BOUND=    7.183  UPPER_BOUND=    9.265
INTER + INTRA:          -4.566
INTER:                  -4.566
INTRA:                   0.000
UNBOUND:                 0.000

$$$$
