
     RDKit          3D

 98 97  0  0  0  0  0  0  0  0999 V2000
   43.7279    4.8661   12.4036 C   0  0  0  0  0  0  0  0  0  0  0  0
   43.1734    4.8739   13.7909 N   0  0  0  0  0  0  0  0  0  0  0  0
   44.7091    6.0550   12.1916 C   0  0  0  0  0  0  0  0  0  0  0  0
   46.9147    7.1646   12.6948 C   0  0  0  0  0  0  0  0  0  0  0  0
   48.6974    9.2654   12.0967 C   0  0  0  0  0  0  0  0  0  0  0  0
   45.9798    6.0293   13.0498 C   0  0  0  0  0  0  0  0  0  0  0  0
   48.0769    6.9205   11.9492 C   0  0  0  0  0  0  0  0  0  0  0  0
   46.6410    8.4729   13.1118 C   0  0  0  0  0  0  0  0  0  0  0  0
   48.9661    7.9589   11.6629 C   0  0  0  0  0  0  0  0  0  0  0  0
   47.5253    9.5150   12.8249 C   0  0  0  0  0  0  0  0  0  0  0  0
   44.4269    3.5082   12.1316 C   0  0  0  0  0  0  0  0  0  0  0  0
   42.5244    5.0254   11.4215 C   0  0  0  0  0  0  0  0  0  0  0  0
   41.8680    6.2906   11.6120 O   0  0  0  0  0  0  0  0  0  0  0  0
   43.4923    2.4354   12.1674 O   0  0  0  0  0  0  0  0  0  0  0  0
   49.6908   10.3757   11.8392 C   0  0  0  0  0  0  0  0  0  0  0  0
   50.7155   10.4657   12.9756 C   0  0  0  0  0  0  0  0  0  0  0  0
   54.7082   14.6358   11.2069 C   0  0  0  0  0  0  0  0  0  0  0  0
   53.5615   13.6171   11.2667 C   0  0  0  0  0  0  0  0  0  0  0  0
   51.8726   11.4173   12.6771 C   0  0  0  0  0  0  0  0  0  0  0  0
   51.4369   12.8658   12.4799 C   0  0  0  0  0  0  0  0  0  0  0  0
   52.6160   13.8469   12.4474 C   0  0  0  0  0  0  0  0  0  0  0  0
   54.2391   16.0511   10.8996 C   0  0  0  0  0  0  0  0  0  0  0  0
   54.1648   14.1541   11.8951 S   0  0  0  0  0  0  0  0  0  0  0  0
   52.7598   13.9032   11.1095 O   0  0  0  0  0  0  0  0  0  0  0  0
   55.0829   12.9447   11.3423 O   0  0  0  0  0  0  0  0  0  0  0  0
   53.9728   13.9558   13.3140 O   0  0  0  0  0  0  0  0  0  0  0  0
   54.7597   15.3594   11.3672 O   0  0  0  0  0  0  0  0  0  0  0  0
   51.8069   13.0548   11.7261 C   0  0  0  0  0  0  0  0  0  0  0  0
   50.6740   12.8204   10.7343 C   0  0  0  0  0  0  0  0  0  0  0  0
   49.5290   11.9891   11.3101 C   0  0  0  0  0  0  0  0  0  0  0  0
   49.9108   10.5198   11.5338 C   0  0  0  0  0  0  0  0  0  0  0  0
   48.7557    9.7347   12.1567 C   0  0  0  0  0  0  0  0  0  0  0  0
   49.1382    8.2681   12.3743 C   0  0  0  0  0  0  0  0  0  0  0  0
   48.0489    7.4583   13.0849 C   0  0  0  0  0  0  0  0  0  0  0  0
   46.7724    7.3020   12.2560 C   0  0  0  0  0  0  0  0  0  0  0  0
   45.8122    6.3086   12.9162 C   0  0  0  0  0  0  0  0  0  0  0  0
   44.5323    6.1467   12.0938 C   0  0  0  0  0  0  0  0  0  0  0  0
   43.5285    5.1781   12.7165 C   0  0  0  0  0  0  0  0  0  0  0  0
   44.0525    3.7455   12.8370 C   0  0  0  0  0  0  0  0  0  0  0  0
   42.4680    5.6251   13.7988 H   0  0  0  0  0  0  0  0  0  0  0  0
   43.8824    5.1683   14.4577 H   0  0  0  0  0  0  0  0  0  0  0  0
   44.1833    7.0026   12.3675 H   0  0  0  0  0  0  0  0  0  0  0  0
   45.0054    6.0755   11.1326 H   0  0  0  0  0  0  0  0  0  0  0  0
   46.5162    5.0798   12.9231 H   0  0  0  0  0  0  0  0  0  0  0  0
   45.7372    6.1051   14.1153 H   0  0  0  0  0  0  0  0  0  0  0  0
   48.3107    5.9137   11.6066 H   0  0  0  0  0  0  0  0  0  0  0  0
   45.7364    8.6889   13.6711 H   0  0  0  0  0  0  0  0  0  0  0  0
   49.8784    7.7392   11.1102 H   0  0  0  0  0  0  0  0  0  0  0  0
   47.2955   10.5203   13.1762 H   0  0  0  0  0  0  0  0  0  0  0  0
   45.2025    3.2913   12.8755 H   0  0  0  0  0  0  0  0  0  0  0  0
   44.8923    3.5053   11.1349 H   0  0  0  0  0  0  0  0  0  0  0  0
   42.8713    4.9799   10.3791 H   0  0  0  0  0  0  0  0  0  0  0  0
   41.7711    4.2446   11.5746 H   0  0  0  0  0  0  0  0  0  0  0  0
   41.1536    6.3204   10.9485 H   0  0  0  0  0  0  0  0  0  0  0  0
   43.3186    2.2629   13.1251 H   0  0  0  0  0  0  0  0  0  0  0  0
   50.2044   10.2033   10.8817 H   0  0  0  0  0  0  0  0  0  0  0  0
   49.1521   11.3300   11.7262 H   0  0  0  0  0  0  0  0  0  0  0  0
   50.2137   10.7618   13.9060 H   0  0  0  0  0  0  0  0  0  0  0  0
   51.1451    9.4752   13.1708 H   0  0  0  0  0  0  0  0  0  0  0  0
   55.2831   14.6247   12.1441 H   0  0  0  0  0  0  0  0  0  0  0  0
   55.3924   14.3269   10.4112 H   0  0  0  0  0  0  0  0  0  0  0  0
   52.9965   13.6288   10.3218 H   0  0  0  0  0  0  0  0  0  0  0  0
   54.0120   12.6198   11.3536 H   0  0  0  0  0  0  0  0  0  0  0  0
   52.4059   11.0543   11.7940 H   0  0  0  0  0  0  0  0  0  0  0  0
   52.5786   11.3691   13.5087 H   0  0  0  0  0  0  0  0  0  0  0  0
   50.8530   12.9680   11.5585 H   0  0  0  0  0  0  0  0  0  0  0  0
   50.7761   13.1586   13.3029 H   0  0  0  0  0  0  0  0  0  0  0  0
   52.2003   14.8603   12.3953 H   0  0  0  0  0  0  0  0  0  0  0  0
   53.1759   13.7769   13.3915 H   0  0  0  0  0  0  0  0  0  0  0  0
   53.5796   16.0683   10.0209 H   0  0  0  0  0  0  0  0  0  0  0  0
   53.7001   16.4784   11.7512 H   0  0  0  0  0  0  0  0  0  0  0  0
   55.0980   16.6968   10.6832 H   0  0  0  0  0  0  0  0  0  0  0  0
   55.5007   13.2583   10.5110 H   0  0  0  0  0  0  0  0  0  0  0  0
   51.4295   13.5300   12.6330 H   0  0  0  0  0  0  0  0  0  0  0  0
   52.2869   12.1081   11.9921 H   0  0  0  0  0  0  0  0  0  0  0  0
   50.2746   13.7927   10.4038 H   0  0  0  0  0  0  0  0  0  0  0  0
   51.0714   12.3333    9.8302 H   0  0  0  0  0  0  0  0  0  0  0  0
   49.1894   12.4353   12.2528 H   0  0  0  0  0  0  0  0  0  0  0  0
   48.6829   12.0372   10.6171 H   0  0  0  0  0  0  0  0  0  0  0  0
   50.7933   10.4409   12.1827 H   0  0  0  0  0  0  0  0  0  0  0  0
   50.1687   10.0688   10.5681 H   0  0  0  0  0  0  0  0  0  0  0  0
   47.8842    9.8044   11.4921 H   0  0  0  0  0  0  0  0  0  0  0  0
   48.4732   10.1929   13.1122 H   0  0  0  0  0  0  0  0  0  0  0  0
   50.0487    8.2140   12.9860 H   0  0  0  0  0  0  0  0  0  0  0  0
   49.3757    7.8005   11.4112 H   0  0  0  0  0  0  0  0  0  0  0  0
   48.4583    6.4662   13.2960 H   0  0  0  0  0  0  0  0  0  0  0  0
   47.8137    7.9183   14.0520 H   0  0  0  0  0  0  0  0  0  0  0  0
   46.2751    8.2706   12.1478 H   0  0  0  0  0  0  0  0  0  0  0  0
   47.0288    6.9556   11.2513 H   0  0  0  0  0  0  0  0  0  0  0  0
   45.5533    6.6596   13.9268 H   0  0  0  0  0  0  0  0  0  0  0  0
   46.3175    5.3418   13.0160 H   0  0  0  0  0  0  0  0  0  0  0  0
   44.0459    7.1253   11.9883 H   0  0  0  0  0  0  0  0  0  0  0  0
   44.7764    5.8018   11.0777 H   0  0  0  0  0  0  0  0  0  0  0  0
   42.6198    5.1703   12.0995 H   0  0  0  0  0  0  0  0  0  0  0  0
   43.2408    5.5318   13.7136 H   0  0  0  0  0  0  0  0  0  0  0  0
   43.2432    3.0831   13.1570 H   0  0  0  0  0  0  0  0  0  0  0  0
   44.4389    3.3851   11.8849 H   0  0  0  0  0  0  0  0  0  0  0  0
   44.8376    3.6615   13.5967 H   0  0  0  0  0  0  0  0  0  0  0  0
  1  2  1  0
  1  3  1  0
  3  6  1  0
  4  6  1  0
  4  7  2  0
  4  8  1  0
  5  9  2  0
  7  9  1  0
  5 10  1  0
  8 10  2  0
  1 11  1  0
  1 12  1  0
 12 13  1  0
 11 14  1  0
  5 15  1  0
 15 16  1  0
 17 18  1  0
 16 19  1  0
 19 20  1  0
 18 21  1  0
 20 21  1  0
 17 22  1  0
 23 24  1  0
 23 25  1  0
 23 26  2  0
 23 27  2  0
 24 28  1  0
 28 29  1  0
 29 30  1  0
 30 31  1  0
 31 32  1  0
 32 33  1  0
 33 34  1  0
 34 35  1  0
 35 36  1  0
 36 37  1  0
 37 38  1  0
 38 39  1  0
  2 40  1  0
  2 41  1  0
  3 42  1  0
  3 43  1  0
  6 44  1  0
  6 45  1  0
  7 46  1  0
  8 47  1  0
  9 48  1  0
 10 49  1  0
 11 50  1  0
 11 51  1  0
 12 52  1  0
 12 53  1  0
 13 54  1  0
 14 55  1  0
 15 56  1  0
 15 57  1  0
 16 58  1  0
 16 59  1  0
 17 60  1  0
 17 61  1  0
 18 62  1  0
 18 63  1  0
 19 64  1  0
 19 65  1  0
 20 66  1  0
 20 67  1  0
 21 68  1  0
 21 69  1  0
 22 70  1  0
 22 71  1  0
 22 72  1  0
 25 73  1  0
 28 74  1  0
 28 75  1  0
 29 76  1  0
 29 77  1  0
 30 78  1  0
 30 79  1  0
 31 80  1  0
 31 81  1  0
 32 82  1  0
 32 83  1  0
 33 84  1  0
 33 85  1  0
 34 86  1  0
 34 87  1  0
 35 88  1  0
 35 89  1  0
 36 90  1  0
 36 91  1  0
 37 92  1  0
 37 93  1  0
 38 94  1  0
 38 95  1  0
 39 96  1  0
 39 97  1  0
 39 98  1  0
M  END
> <Uni-Dock RESULT> 
ENERGY=   -6.380  LOWER_BOUND=    0.000  UPPER_BOUND=    0.000
INTER + INTRA:          -6.380
INTER:                  -6.380
INTRA:                   0.000
UNBOUND:                 0.000

$$$$

     RDKit          3D

 98 97  0  0  0  0  0  0  0  0999 V2000
   44.0009    4.4990   11.4425 C   0  0  0  0  0  0  0  0  0  0  0  0
   42.5733    4.9041   11.6157 N   0  0  0  0  0  0  0  0  0  0  0  0
   44.9310    5.7459   11.4061 C   0  0  0  0  0  0  0  0  0  0  0  0
   45.9909    7.6981   12.5956 C   0  0  0  0  0  0  0  0  0  0  0  0
   47.8410    9.8220   12.4735 C   0  0  0  0  0  0  0  0  0  0  0  0
   44.9824    6.5748   12.6954 C   0  0  0  0  0  0  0  0  0  0  0  0
   47.2229    7.6071   13.2590 C   0  0  0  0  0  0  0  0  0  0  0  0
   45.7081    8.8484   11.8490 C   0  0  0  0  0  0  0  0  0  0  0  0
   48.1346    8.6640   13.2083 C   0  0  0  0  0  0  0  0  0  0  0  0
   46.6180    9.9063   11.7926 C   0  0  0  0  0  0  0  0  0  0  0  0
   44.4078    3.5305   12.5839 C   0  0  0  0  0  0  0  0  0  0  0  0
   44.1088    3.7505   10.0764 C   0  0  0  0  0  0  0  0  0  0  0  0
   43.7769    4.6235    8.9830 O   0  0  0  0  0  0  0  0  0  0  0  0
   43.6639    2.3189   12.5165 O   0  0  0  0  0  0  0  0  0  0  0  0
   48.8019   10.9894   12.4703 C   0  0  0  0  0  0  0  0  0  0  0  0
   48.5067   11.9424   13.6339 C   0  0  0  0  0  0  0  0  0  0  0  0
   52.9070   16.0743   13.4772 C   0  0  0  0  0  0  0  0  0  0  0  0
   52.0292   14.8382   13.2367 C   0  0  0  0  0  0  0  0  0  0  0  0
   49.5703   13.0231   13.8196 C   0  0  0  0  0  0  0  0  0  0  0  0
   49.7051   13.9593   12.6229 C   0  0  0  0  0  0  0  0  0  0  0  0
   50.5742   15.1886   12.9188 C   0  0  0  0  0  0  0  0  0  0  0  0
   53.1050   16.9228   12.2287 C   0  0  0  0  0  0  0  0  0  0  0  0
   51.9650   15.7776   13.6375 S   0  0  0  0  0  0  0  0  0  0  0  0
   51.7336   14.7040   12.4343 O   0  0  0  0  0  0  0  0  0  0  0  0
   52.7471   14.8899   14.7381 O   0  0  0  0  0  0  0  0  0  0  0  0
   50.6905   16.1635   14.1995 O   0  0  0  0  0  0  0  0  0  0  0  0
   52.9247   16.7556   13.1815 O   0  0  0  0  0  0  0  0  0  0  0  0
   50.5517   13.9230   12.4716 C   0  0  0  0  0  0  0  0  0  0  0  0
   50.6456   12.8745   11.3699 C   0  0  0  0  0  0  0  0  0  0  0  0
   49.3873   12.0179   11.2420 C   0  0  0  0  0  0  0  0  0  0  0  0
   49.1964   11.0561   12.4224 C   0  0  0  0  0  0  0  0  0  0  0  0
   47.9020   10.2540   12.2813 C   0  0  0  0  0  0  0  0  0  0  0  0
   47.7170    9.2921   13.4582 C   0  0  0  0  0  0  0  0  0  0  0  0
   46.3870    8.5327   13.4148 C   0  0  0  0  0  0  0  0  0  0  0  0
   46.2798    7.5657   12.2341 C   0  0  0  0  0  0  0  0  0  0  0  0
   45.0359    6.6823   12.3645 C   0  0  0  0  0  0  0  0  0  0  0  0
   44.9206    5.7121   11.1870 C   0  0  0  0  0  0  0  0  0  0  0  0
   43.6852    4.8164   11.2565 C   0  0  0  0  0  0  0  0  0  0  0  0
   43.6653    3.8928   12.4764 C   0  0  0  0  0  0  0  0  0  0  0  0
   42.2764    5.2585   10.6948 H   0  0  0  0  0  0  0  0  0  0  0  0
   42.5014    5.7014   12.2429 H   0  0  0  0  0  0  0  0  0  0  0  0
   44.6360    6.4015   10.5763 H   0  0  0  0  0  0  0  0  0  0  0  0
   45.9510    5.4109   11.1676 H   0  0  0  0  0  0  0  0  0  0  0  0
   45.2439    5.9430   13.5543 H   0  0  0  0  0  0  0  0  0  0  0  0
   44.0037    7.0115   12.9222 H   0  0  0  0  0  0  0  0  0  0  0  0
   47.4713    6.7210   13.8411 H   0  0  0  0  0  0  0  0  0  0  0  0
   44.7701    8.9313   11.3096 H   0  0  0  0  0  0  0  0  0  0  0  0
   49.0712    8.5838   13.7582 H   0  0  0  0  0  0  0  0  0  0  0  0
   46.3647   10.7963   11.2178 H   0  0  0  0  0  0  0  0  0  0  0  0
   44.2315    3.9679   13.5737 H   0  0  0  0  0  0  0  0  0  0  0  0
   45.4729    3.2666   12.5064 H   0  0  0  0  0  0  0  0  0  0  0  0
   45.1346    3.3876    9.9178 H   0  0  0  0  0  0  0  0  0  0  0  0
   43.4236    2.8969   10.0274 H   0  0  0  0  0  0  0  0  0  0  0  0
   43.8948    4.0911    8.1742 H   0  0  0  0  0  0  0  0  0  0  0  0
   42.7717    2.5312   12.8852 H   0  0  0  0  0  0  0  0  0  0  0  0
   49.8367   10.6220   12.5375 H   0  0  0  0  0  0  0  0  0  0  0  0
   48.7309   11.5194   11.5072 H   0  0  0  0  0  0  0  0  0  0  0  0
   47.5201   12.4036   13.4957 H   0  0  0  0  0  0  0  0  0  0  0  0
   48.4429   11.3779   14.5725 H   0  0  0  0  0  0  0  0  0  0  0  0
   52.4927   16.6895   14.2888 H   0  0  0  0  0  0  0  0  0  0  0  0
   53.8904   15.7297   13.8104 H   0  0  0  0  0  0  0  0  0  0  0  0
   52.4555   14.2239   12.4286 H   0  0  0  0  0  0  0  0  0  0  0  0
   52.0628   14.2287   14.1490 H   0  0  0  0  0  0  0  0  0  0  0  0
   50.5267   12.5397   14.0373 H   0  0  0  0  0  0  0  0  0  0  0  0
   49.3105   13.6109   14.7025 H   0  0  0  0  0  0  0  0  0  0  0  0
   50.1162   13.4222   11.7609 H   0  0  0  0  0  0  0  0  0  0  0  0
   48.7111   14.3114   12.3268 H   0  0  0  0  0  0  0  0  0  0  0  0
   50.5356   15.8397   12.0372 H   0  0  0  0  0  0  0  0  0  0  0  0
   50.1362   15.7531   13.7552 H   0  0  0  0  0  0  0  0  0  0  0  0
   53.4245   16.3065   11.3770 H   0  0  0  0  0  0  0  0  0  0  0  0
   52.1806   17.4429   11.9582 H   0  0  0  0  0  0  0  0  0  0  0  0
   53.8806   17.6776   12.4022 H   0  0  0  0  0  0  0  0  0  0  0  0
   53.7032   14.9395   14.5203 H   0  0  0  0  0  0  0  0  0  0  0  0
   49.6849   14.5669   12.3144 H   0  0  0  0  0  0  0  0  0  0  0  0
   50.4678   13.4441   13.4518 H   0  0  0  0  0  0  0  0  0  0  0  0
   50.8319   13.3764   10.4067 H   0  0  0  0  0  0  0  0  0  0  0  0
   51.5199   12.2296   11.5492 H   0  0  0  0  0  0  0  0  0  0  0  0
   48.5092   12.6678   11.1431 H   0  0  0  0  0  0  0  0  0  0  0  0
   49.4549   11.4382   10.3158 H   0  0  0  0  0  0  0  0  0  0  0  0
   49.1802   11.6048   13.3735 H   0  0  0  0  0  0  0  0  0  0  0  0
   50.0444   10.3617   12.4555 H   0  0  0  0  0  0  0  0  0  0  0  0
   47.9357    9.6950   11.3367 H   0  0  0  0  0  0  0  0  0  0  0  0
   47.0490   10.9408   12.2224 H   0  0  0  0  0  0  0  0  0  0  0  0
   47.7506    9.8554   14.4004 H   0  0  0  0  0  0  0  0  0  0  0  0
   48.5484    8.5776   13.4867 H   0  0  0  0  0  0  0  0  0  0  0  0
   46.2986    7.9662   14.3464 H   0  0  0  0  0  0  0  0  0  0  0  0
   45.5525    9.2437   13.3938 H   0  0  0  0  0  0  0  0  0  0  0  0
   46.2313    8.1250   11.2950 H   0  0  0  0  0  0  0  0  0  0  0  0
   47.1748    6.9392   12.1921 H   0  0  0  0  0  0  0  0  0  0  0  0
   44.1356    7.3141   12.4046 H   0  0  0  0  0  0  0  0  0  0  0  0
   45.0961    6.1237   13.3048 H   0  0  0  0  0  0  0  0  0  0  0  0
   44.8780    6.2849   10.2514 H   0  0  0  0  0  0  0  0  0  0  0  0
   45.8178    5.0774   11.1306 H   0  0  0  0  0  0  0  0  0  0  0  0
   43.6469    4.2009   10.3476 H   0  0  0  0  0  0  0  0  0  0  0  0
   42.7793    5.4338   11.2688 H   0  0  0  0  0  0  0  0  0  0  0  0
   42.8333    3.1880   12.3911 H   0  0  0  0  0  0  0  0  0  0  0  0
   44.5918    3.3265   12.5578 H   0  0  0  0  0  0  0  0  0  0  0  0
   43.5032    4.4494   13.4062 H   0  0  0  0  0  0  0  0  0  0  0  0
  1  2  1  0
  1  3  1  0
  3  6  1  0
  4  6  1  0
  4  7  2  0
  4  8  1  0
  5  9  2  0
  7  9  1  0
  5 10  1  0
  8 10  2  0
  1 11  1  0
  1 12  1  0
 12 13  1  0
 11 14  1  0
  5 15  1  0
 15 16  1  0
 17 18  1  0
 16 19  1  0
 19 20  1  0
 18 21  1  0
 20 21  1  0
 17 22  1  0
 23 24  1  0
 23 25  1  0
 23 26  2  0
 23 27  2  0
 24 28  1  0
 28 29  1  0
 29 30  1  0
 30 31  1  0
 31 32  1  0
 32 33  1  0
 33 34  1  0
 34 35  1  0
 35 36  1  0
 36 37  1  0
 37 38  1  0
 38 39  1  0
  2 40  1  0
  2 41  1  0
  3 42  1  0
  3 43  1  0
  6 44  1  0
  6 45  1  0
  7 46  1  0
  8 47  1  0
  9 48  1  0
 10 49  1  0
 11 50  1  0
 11 51  1  0
 12 52  1  0
 12 53  1  0
 13 54  1  0
 14 55  1  0
 15 56  1  0
 15 57  1  0
 16 58  1  0
 16 59  1  0
 17 60  1  0
 17 61  1  0
 18 62  1  0
 18 63  1  0
 19 64  1  0
 19 65  1  0
 20 66  1  0
 20 67  1  0
 21 68  1  0
 21 69  1  0
 22 70  1  0
 22 71  1  0
 22 72  1  0
 25 73  1  0
 28 74  1  0
 28 75  1  0
 29 76  1  0
 29 77  1  0
 30 78  1  0
 30 79  1  0
 31 80  1  0
 31 81  1  0
 32 82  1  0
 32 83  1  0
 33 84  1  0
 33 85  1  0
 34 86  1  0
 34 87  1  0
 35 88  1  0
 35 89  1  0
 36 90  1  0
 36 91  1  0
 37 92  1  0
 37 93  1  0
 38 94  1  0
 38 95  1  0
 39 96  1  0
 39 97  1  0
 39 98  1  0
M  END
> <Uni-Dock RESULT> 
ENERGY=   -6.179  LOWER_BOUND=    1.761  UPPER_BOUND=    2.095
INTER + INTRA:          -6.179
INTER:                  -6.179
INTRA:                   0.000
UNBOUND:                 0.000

$$$$

     RDKit          3D

 98 97  0  0  0  0  0  0  0  0999 V2000
   44.1059    4.1485   11.0791 C   0  0  0  0  0  0  0  0  0  0  0  0
   42.8209    4.9029   11.1877 N   0  0  0  0  0  0  0  0  0  0  0  0
   45.3247    5.1066   11.2127 C   0  0  0  0  0  0  0  0  0  0  0  0
   46.7414    6.6308   12.6337 C   0  0  0  0  0  0  0  0  0  0  0  0
   49.0785    8.1966   12.8197 C   0  0  0  0  0  0  0  0  0  0  0  0
   45.4732    5.8083   12.5682 C   0  0  0  0  0  0  0  0  0  0  0  0
   47.8449    6.1766   13.3699 C   0  0  0  0  0  0  0  0  0  0  0  0
   46.8309    7.8604   11.9699 C   0  0  0  0  0  0  0  0  0  0  0  0
   48.9984    6.9575   13.4720 C   0  0  0  0  0  0  0  0  0  0  0  0
   47.9835    8.6431   12.0661 C   0  0  0  0  0  0  0  0  0  0  0  0
   44.1475    3.0360   12.1594 C   0  0  0  0  0  0  0  0  0  0  0  0
   44.1381    3.4871    9.6650 C   0  0  0  0  0  0  0  0  0  0  0  0
   44.1398    4.4850    8.6295 O   0  0  0  0  0  0  0  0  0  0  0  0
   43.1262    2.0697   11.9384 O   0  0  0  0  0  0  0  0  0  0  0  0
   50.3036    9.0679   12.9817 C   0  0  0  0  0  0  0  0  0  0  0  0
   50.1616    9.9884   14.1990 C   0  0  0  0  0  0  0  0  0  0  0  0
   55.4722   12.8186   14.6963 C   0  0  0  0  0  0  0  0  0  0  0  0
   54.3309   11.8750   14.2920 C   0  0  0  0  0  0  0  0  0  0  0  0
   51.4465   10.7371   14.5484 C   0  0  0  0  0  0  0  0  0  0  0  0
   51.9228   11.6796   13.4476 C   0  0  0  0  0  0  0  0  0  0  0  0
   53.0489   12.6154   13.9059 C   0  0  0  0  0  0  0  0  0  0  0  0
   55.9912   13.6633   13.5409 C   0  0  0  0  0  0  0  0  0  0  0  0
   54.4752   12.7705   14.7658 S   0  0  0  0  0  0  0  0  0  0  0  0
   54.0829   11.8750   13.4627 O   0  0  0  0  0  0  0  0  0  0  0  0
   54.9024   11.6396   15.8381 O   0  0  0  0  0  0  0  0  0  0  0  0
   53.2981   13.4412   15.2697 O   0  0  0  0  0  0  0  0  0  0  0  0
   55.6905   13.4887   14.4615 O   0  0  0  0  0  0  0  0  0  0  0  0
   52.7415   11.4316   13.3523 C   0  0  0  0  0  0  0  0  0  0  0  0
   52.6597   10.4682   12.1745 C   0  0  0  0  0  0  0  0  0  0  0  0
   51.2399    9.9827   11.8883 C   0  0  0  0  0  0  0  0  0  0  0  0
   50.7047    9.0314   12.9668 C   0  0  0  0  0  0  0  0  0  0  0  0
   49.2653    8.6088   12.6696 C   0  0  0  0  0  0  0  0  0  0  0  0
   48.7359    7.6560   13.7450 C   0  0  0  0  0  0  0  0  0  0  0  0
   47.2646    7.2776   13.5461 C   0  0  0  0  0  0  0  0  0  0  0  0
   47.0173    6.4505   12.2830 C   0  0  0  0  0  0  0  0  0  0  0  0
   45.5816    5.9189   12.2521 C   0  0  0  0  0  0  0  0  0  0  0  0
   45.3254    5.0908   10.9914 C   0  0  0  0  0  0  0  0  0  0  0  0
   43.9001    4.5491   10.8995 C   0  0  0  0  0  0  0  0  0  0  0  0
   43.5357    3.5869   12.0323 C   0  0  0  0  0  0  0  0  0  0  0  0
   42.7077    5.3812   10.2820 H   0  0  0  0  0  0  0  0  0  0  0  0
   42.9012    5.6491   11.8739 H   0  0  0  0  0  0  0  0  0  0  0  0
   45.2827    5.8685   10.4234 H   0  0  0  0  0  0  0  0  0  0  0  0
   46.2413    4.5311   11.0172 H   0  0  0  0  0  0  0  0  0  0  0  0
   45.4865    5.0763   13.3863 H   0  0  0  0  0  0  0  0  0  0  0  0
   44.6236    6.4716   12.7636 H   0  0  0  0  0  0  0  0  0  0  0  0
   47.8047    5.2210   13.8904 H   0  0  0  0  0  0  0  0  0  0  0  0
   45.9972    8.2215   11.3763 H   0  0  0  0  0  0  0  0  0  0  0  0
   49.8305    6.5987   14.0760 H   0  0  0  0  0  0  0  0  0  0  0  0
   48.0193    9.6034   11.5530 H   0  0  0  0  0  0  0  0  0  0  0  0
   44.0029    3.4400   13.1683 H   0  0  0  0  0  0  0  0  0  0  0  0
   45.1116    2.5068   12.1330 H   0  0  0  0  0  0  0  0  0  0  0  0
   45.0460    2.8782    9.5469 H   0  0  0  0  0  0  0  0  0  0  0  0
   43.2636    2.8488    9.4968 H   0  0  0  0  0  0  0  0  0  0  0  0
   44.1880    3.9933    7.7884 H   0  0  0  0  0  0  0  0  0  0  0  0
   42.2895    2.4851   12.2616 H   0  0  0  0  0  0  0  0  0  0  0  0
   51.1991    8.4377   13.0884 H   0  0  0  0  0  0  0  0  0  0  0  0
   50.4566    9.6585   12.0645 H   0  0  0  0  0  0  0  0  0  0  0  0
   49.3429   10.7007   14.0330 H   0  0  0  0  0  0  0  0  0  0  0  0
   49.8721    9.4015   15.0797 H   0  0  0  0  0  0  0  0  0  0  0  0
   55.1598   13.4678   15.5269 H   0  0  0  0  0  0  0  0  0  0  0  0
   56.3005   12.2069   15.0657 H   0  0  0  0  0  0  0  0  0  0  0  0
   54.6547   11.2233   13.4658 H   0  0  0  0  0  0  0  0  0  0  0  0
   54.1259   11.2209   15.1493 H   0  0  0  0  0  0  0  0  0  0  0  0
   52.2234   10.0062   14.7894 H   0  0  0  0  0  0  0  0  0  0  0  0
   51.2695   11.3147   15.4581 H   0  0  0  0  0  0  0  0  0  0  0  0
   52.2565   11.1096   12.5734 H   0  0  0  0  0  0  0  0  0  0  0  0
   51.0828   12.2989   13.1150 H   0  0  0  0  0  0  0  0  0  0  0  0
   53.2570   13.3088   13.0822 H   0  0  0  0  0  0  0  0  0  0  0  0
   52.6985   13.2204   14.7551 H   0  0  0  0  0  0  0  0  0  0  0  0
   56.2155   13.0406   12.6639 H   0  0  0  0  0  0  0  0  0  0  0  0
   55.2592   14.4245   13.2528 H   0  0  0  0  0  0  0  0  0  0  0  0
   56.9163   14.1748   13.8308 H   0  0  0  0  0  0  0  0  0  0  0  0
   55.8544   11.4499   15.6914 H   0  0  0  0  0  0  0  0  0  0  0  0
   52.0868   12.2896   13.1912 H   0  0  0  0  0  0  0  0  0  0  0  0
   52.4510   10.9298   14.2802 H   0  0  0  0  0  0  0  0  0  0  0  0
   53.0532   10.9641   11.2726 H   0  0  0  0  0  0  0  0  0  0  0  0
   53.3195    9.6059   12.3580 H   0  0  0  0  0  0  0  0  0  0  0  0
   50.5707   10.8457   11.7849 H   0  0  0  0  0  0  0  0  0  0  0  0
   51.2379    9.4663   10.9230 H   0  0  0  0  0  0  0  0  0  0  0  0
   50.7460    9.5029   13.9577 H   0  0  0  0  0  0  0  0  0  0  0  0
   51.3393    8.1377   12.9989 H   0  0  0  0  0  0  0  0  0  0  0  0
   49.2375    8.1223   11.6854 H   0  0  0  0  0  0  0  0  0  0  0  0
   48.6261    9.4980   12.6108 H   0  0  0  0  0  0  0  0  0  0  0  0
   48.8298    8.1291   14.7317 H   0  0  0  0  0  0  0  0  0  0  0  0
   49.3498    6.7477   13.7698 H   0  0  0  0  0  0  0  0  0  0  0  0
   46.9515    6.6958   14.4179 H   0  0  0  0  0  0  0  0  0  0  0  0
   46.6462    8.1828   13.5283 H   0  0  0  0  0  0  0  0  0  0  0  0
   47.1974    7.0619   11.3936 H   0  0  0  0  0  0  0  0  0  0  0  0
   47.7212    5.6147   12.2494 H   0  0  0  0  0  0  0  0  0  0  0  0
   44.8740    6.7614   12.2839 H   0  0  0  0  0  0  0  0  0  0  0  0
   45.4128    5.3051   13.1435 H   0  0  0  0  0  0  0  0  0  0  0  0
   45.5143    5.7135   10.1070 H   0  0  0  0  0  0  0  0  0  0  0  0
   46.0306    4.2474   10.9429 H   0  0  0  0  0  0  0  0  0  0  0  0
   43.7854    4.0248    9.9412 H   0  0  0  0  0  0  0  0  0  0  0  0
   43.1859    5.3809   10.9020 H   0  0  0  0  0  0  0  0  0  0  0  0
   42.5614    3.1328   11.8305 H   0  0  0  0  0  0  0  0  0  0  0  0
   44.2745    2.7929   12.1287 H   0  0  0  0  0  0  0  0  0  0  0  0
   43.4406    4.1058   12.9927 H   0  0  0  0  0  0  0  0  0  0  0  0
  1  2  1  0
  1  3  1  0
  3  6  1  0
  4  6  1  0
  4  7  2  0
  4  8  1  0
  5  9  2  0
  7  9  1  0
  5 10  1  0
  8 10  2  0
  1 11  1  0
  1 12  1  0
 12 13  1  0
 11 14  1  0
  5 15  1  0
 15 16  1  0
 17 18  1  0
 16 19  1  0
 19 20  1  0
 18 21  1  0
 20 21  1  0
 17 22  1  0
 23 24  1  0
 23 25  1  0
 23 26  2  0
 23 27  2  0
 24 28  1  0
 28 29  1  0
 29 30  1  0
 30 31  1  0
 31 32  1  0
 32 33  1  0
 33 34  1  0
 34 35  1  0
 35 36  1  0
 36 37  1  0
 37 38  1  0
 38 39  1  0
  2 40  1  0
  2 41  1  0
  3 42  1  0
  3 43  1  0
  6 44  1  0
  6 45  1  0
  7 46  1  0
  8 47  1  0
  9 48  1  0
 10 49  1  0
 11 50  1  0
 11 51  1  0
 12 52  1  0
 12 53  1  0
 13 54  1  0
 14 55  1  0
 15 56  1  0
 15 57  1  0
 16 58  1  0
 16 59  1  0
 17 60  1  0
 17 61  1  0
 18 62  1  0
 18 63  1  0
 19 64  1  0
 19 65  1  0
 20 66  1  0
 20 67  1  0
 21 68  1  0
 21 69  1  0
 22 70  1  0
 22 71  1  0
 22 72  1  0
 25 73  1  0
 28 74  1  0
 28 75  1  0
 29 76  1  0
 29 77  1  0
 30 78  1  0
 30 79  1  0
 31 80  1  0
 31 81  1  0
 32 82  1  0
 32 83  1  0
 33 84  1  0
 33 85  1  0
 34 86  1  0
 34 87  1  0
 35 88  1  0
 35 89  1  0
 36 90  1  0
 36 91  1  0
 37 92  1  0
 37 93  1  0
 38 94  1  0
 38 95  1  0
 39 96  1  0
 39 97  1  0
 39 98  1  0
M  END
> <Uni-Dock RESULT> 
ENERGY=   -6.153  LOWER_BOUND=    2.029  UPPER_BOUND=    2.360
INTER + INTRA:          -6.153
INTER:                  -6.153
INTRA:                   0.000
UNBOUND:                 0.000

$$$$

     RDKit          3D

 98 97  0  0  0  0  0  0  0  0999 V2000
   39.0229   11.1370   10.7066 C   0  0  0  0  0  0  0  0  0  0  0  0
   38.6305   10.3346    9.5090 N   0  0  0  0  0  0  0  0  0  0  0  0
   40.4257   10.7085   11.2262 C   0  0  0  0  0  0  0  0  0  0  0  0
   42.9229   10.6119   10.9039 C   0  0  0  0  0  0  0  0  0  0  0  0
   45.4294    9.9648   12.0206 C   0  0  0  0  0  0  0  0  0  0  0  0
   41.5956   10.9619   10.2676 C   0  0  0  0  0  0  0  0  0  0  0  0
   43.7868   11.6238   11.3462 C   0  0  0  0  0  0  0  0  0  0  0  0
   43.3139    9.2757   11.0526 C   0  0  0  0  0  0  0  0  0  0  0  0
   45.0336   11.3039   11.8886 C   0  0  0  0  0  0  0  0  0  0  0  0
   44.5580    8.9508   11.5976 C   0  0  0  0  0  0  0  0  0  0  0  0
   38.9948   12.6469   10.3518 C   0  0  0  0  0  0  0  0  0  0  0  0
   37.9658   10.8556   11.8208 C   0  0  0  0  0  0  0  0  0  0  0  0
   37.9833    9.4713   12.2098 O   0  0  0  0  0  0  0  0  0  0  0  0
   37.6750   13.0728   10.0317 O   0  0  0  0  0  0  0  0  0  0  0  0
   46.8036    9.6226   12.5505 C   0  0  0  0  0  0  0  0  0  0  0  0
   47.8283    9.5630   11.4123 C   0  0  0  0  0  0  0  0  0  0  0  0
   53.1659    8.7119   14.1039 C   0  0  0  0  0  0  0  0  0  0  0  0
   51.6852    8.9896   13.8095 C   0  0  0  0  0  0  0  0  0  0  0  0
   49.2709    9.4380   11.8987 C   0  0  0  0  0  0  0  0  0  0  0  0
   49.5419    8.1587   12.6842 C   0  0  0  0  0  0  0  0  0  0  0  0
   51.0357    7.9149   12.9353 C   0  0  0  0  0  0  0  0  0  0  0  0
   53.3845    7.4876   14.9820 C   0  0  0  0  0  0  0  0  0  0  0  0
   52.5095    8.5825   13.3600 S   0  0  0  0  0  0  0  0  0  0  0  0
   51.0980    8.4619   14.1644 O   0  0  0  0  0  0  0  0  0  0  0  0
   52.7247   10.1825   13.2909 O   0  0  0  0  0  0  0  0  0  0  0  0
   52.3446    8.0958   12.0090 O   0  0  0  0  0  0  0  0  0  0  0  0
   53.5568    8.0917   14.2247 O   0  0  0  0  0  0  0  0  0  0  0  0
   49.9052    8.4707   13.3994 C   0  0  0  0  0  0  0  0  0  0  0  0
   48.7279    8.5404   14.3643 C   0  0  0  0  0  0  0  0  0  0  0  0
   47.3704    8.4652   13.6678 C   0  0  0  0  0  0  0  0  0  0  0  0
   47.0439    9.7264   12.8570 C   0  0  0  0  0  0  0  0  0  0  0  0
   45.7020    9.5911   12.1361 C   0  0  0  0  0  0  0  0  0  0  0  0
   45.3771   10.8529   11.3318 C   0  0  0  0  0  0  0  0  0  0  0  0
   44.0879   10.7323   10.5128 C   0  0  0  0  0  0  0  0  0  0  0  0
   42.8307   10.6107   11.3763 C   0  0  0  0  0  0  0  0  0  0  0  0
   41.5674   10.7153   10.5173 C   0  0  0  0  0  0  0  0  0  0  0  0
   40.3050   10.5941   11.3732 C   0  0  0  0  0  0  0  0  0  0  0  0
   39.0121   10.6739   10.5636 C   0  0  0  0  0  0  0  0  0  0  0  0
   38.8214   12.0103    9.8430 C   0  0  0  0  0  0  0  0  0  0  0  0
   38.3547    9.4124    9.8766 H   0  0  0  0  0  0  0  0  0  0  0  0
   39.4389   10.1543    8.9188 H   0  0  0  0  0  0  0  0  0  0  0  0
   40.4107    9.6432   11.4914 H   0  0  0  0  0  0  0  0  0  0  0  0
   40.6251   11.2426   12.1667 H   0  0  0  0  0  0  0  0  0  0  0  0
   41.6222   12.0140    9.9552 H   0  0  0  0  0  0  0  0  0  0  0  0
   41.4885   10.3720    9.3508 H   0  0  0  0  0  0  0  0  0  0  0  0
   43.5049   12.6710   11.2486 H   0  0  0  0  0  0  0  0  0  0  0  0
   42.6520    8.4755   10.7374 H   0  0  0  0  0  0  0  0  0  0  0  0
   45.7010   12.1079   12.1953 H   0  0  0  0  0  0  0  0  0  0  0  0
   44.8434    7.9032   11.6861 H   0  0  0  0  0  0  0  0  0  0  0  0
   39.6309   12.8760    9.4887 H   0  0  0  0  0  0  0  0  0  0  0  0
   39.3372   13.2513   11.2047 H   0  0  0  0  0  0  0  0  0  0  0  0
   38.1807   11.4589   12.7146 H   0  0  0  0  0  0  0  0  0  0  0  0
   36.9493   11.0826   11.4808 H   0  0  0  0  0  0  0  0  0  0  0  0
   37.3204    9.3879   12.9205 H   0  0  0  0  0  0  0  0  0  0  0  0
   37.5067   12.7554    9.1108 H   0  0  0  0  0  0  0  0  0  0  0  0
   47.1129   10.3692   13.2971 H   0  0  0  0  0  0  0  0  0  0  0  0
   46.7607    8.6602   13.0848 H   0  0  0  0  0  0  0  0  0  0  0  0
   47.5848    8.7333   10.7359 H   0  0  0  0  0  0  0  0  0  0  0  0
   47.7635   10.4731   10.8029 H   0  0  0  0  0  0  0  0  0  0  0  0
   53.7327    8.6096   13.1673 H   0  0  0  0  0  0  0  0  0  0  0  0
   53.5740    9.5807   14.6286 H   0  0  0  0  0  0  0  0  0  0  0  0
   51.1269    9.0988   14.7521 H   0  0  0  0  0  0  0  0  0  0  0  0
   51.6284    9.9572   13.2942 H   0  0  0  0  0  0  0  0  0  0  0  0
   49.5146   10.3167   12.5023 H   0  0  0  0  0  0  0  0  0  0  0  0
   49.9294    9.4660   11.0280 H   0  0  0  0  0  0  0  0  0  0  0  0
   49.0103    8.1776   13.6421 H   0  0  0  0  0  0  0  0  0  0  0  0
   49.1489    7.3026   12.1254 H   0  0  0  0  0  0  0  0  0  0  0  0
   51.1331    6.9363   13.4204 H   0  0  0  0  0  0  0  0  0  0  0  0
   51.5626    7.8505   11.9719 H   0  0  0  0  0  0  0  0  0  0  0  0
   52.7497    7.5239   15.8782 H   0  0  0  0  0  0  0  0  0  0  0  0
   53.1633    6.5671   14.4325 H   0  0  0  0  0  0  0  0  0  0  0  0
   54.4277    7.4413   15.3154 H   0  0  0  0  0  0  0  0  0  0  0  0
   53.1825   10.4466   14.1183 H   0  0  0  0  0  0  0  0  0  0  0  0
   49.8528    7.5626   12.7967 H   0  0  0  0  0  0  0  0  0  0  0  0
   49.9100    9.3403   12.7354 H   0  0  0  0  0  0  0  0  0  0  0  0
   48.8017    7.7118   15.0869 H   0  0  0  0  0  0  0  0  0  0  0  0
   48.7926    9.4659   14.9575 H   0  0  0  0  0  0  0  0  0  0  0  0
   47.3404    7.5833   13.0163 H   0  0  0  0  0  0  0  0  0  0  0  0
   46.5975    8.3196   14.4292 H   0  0  0  0  0  0  0  0  0  0  0  0
   47.8317    9.9305   12.1196 H   0  0  0  0  0  0  0  0  0  0  0  0
   46.9978   10.5846   13.5381 H   0  0  0  0  0  0  0  0  0  0  0  0
   44.9185    9.4056   12.8829 H   0  0  0  0  0  0  0  0  0  0  0  0
   45.7290    8.7201   11.4701 H   0  0  0  0  0  0  0  0  0  0  0  0
   46.1986   11.0643   10.6343 H   0  0  0  0  0  0  0  0  0  0  0  0
   45.3054   11.7141   12.0069 H   0  0  0  0  0  0  0  0  0  0  0  0
   44.0056   11.6285    9.8908 H   0  0  0  0  0  0  0  0  0  0  0  0
   44.1583    9.8766    9.8309 H   0  0  0  0  0  0  0  0  0  0  0  0
   42.8314    9.6534   11.9061 H   0  0  0  0  0  0  0  0  0  0  0  0
   42.8290   11.3998   12.1330 H   0  0  0  0  0  0  0  0  0  0  0  0
   41.5694    9.9192    9.7573 H   0  0  0  0  0  0  0  0  0  0  0  0
   41.5740   11.6780    9.9948 H   0  0  0  0  0  0  0  0  0  0  0  0
   40.3202    9.6326   11.9030 H   0  0  0  0  0  0  0  0  0  0  0  0
   40.2925   11.3808   12.1425 H   0  0  0  0  0  0  0  0  0  0  0  0
   38.1632   10.5150   11.2422 H   0  0  0  0  0  0  0  0  0  0  0  0
   38.9890    9.8680    9.8206 H   0  0  0  0  0  0  0  0  0  0  0  0
   37.8214   12.0515    9.4021 H   0  0  0  0  0  0  0  0  0  0  0  0
   38.9318   12.8482   10.5297 H   0  0  0  0  0  0  0  0  0  0  0  0
   39.5283   12.1310    9.0146 H   0  0  0  0  0  0  0  0  0  0  0  0
  1  2  1  0
  1  3  1  0
  3  6  1  0
  4  6  1  0
  4  7  2  0
  4  8  1  0
  5  9  2  0
  7  9  1  0
  5 10  1  0
  8 10  2  0
  1 11  1  0
  1 12  1  0
 12 13  1  0
 11 14  1  0
  5 15  1  0
 15 16  1  0
 17 18  1  0
 16 19  1  0
 19 20  1  0
 18 21  1  0
 20 21  1  0
 17 22  1  0
 23 24  1  0
 23 25  1  0
 23 26  2  0
 23 27  2  0
 24 28  1  0
 28 29  1  0
 29 30  1  0
 30 31  1  0
 31 32  1  0
 32 33  1  0
 33 34  1  0
 34 35  1  0
 35 36  1  0
 36 37  1  0
 37 38  1  0
 38 39  1  0
  2 40  1  0
  2 41  1  0
  3 42  1  0
  3 43  1  0
  6 44  1  0
  6 45  1  0
  7 46  1  0
  8 47  1  0
  9 48  1  0
 10 49  1  0
 11 50  1  0
 11 51  1  0
 12 52  1  0
 12 53  1  0
 13 54  1  0
 14 55  1  0
 15 56  1  0
 15 57  1  0
 16 58  1  0
 16 59  1  0
 17 60  1  0
 17 61  1  0
 18 62  1  0
 18 63  1  0
 19 64  1  0
 19 65  1  0
 20 66  1  0
 20 67  1  0
 21 68  1  0
 21 69  1  0
 22 70  1  0
 22 71  1  0
 22 72  1  0
 25 73  1  0
 28 74  1  0
 28 75  1  0
 29 76  1  0
 29 77  1  0
 30 78  1  0
 30 79  1  0
 31 80  1  0
 31 81  1  0
 32 82  1  0
 32 83  1  0
 33 84  1  0
 33 85  1  0
 34 86  1  0
 34 87  1  0
 35 88  1  0
 35 89  1  0
 36 90  1  0
 36 91  1  0
 37 92  1  0
 37 93  1  0
 38 94  1  0
 38 95  1  0
 39 96  1  0
 39 97  1  0
 39 98  1  0
M  END
> <Uni-Dock RESULT> 
ENERGY=   -5.715  LOWER_BOUND=    4.860  UPPER_BOUND=    6.402
INTER + INTRA:          -5.715
INTER:                  -5.715
INTRA:                   0.000
UNBOUND:                 0.000

$$$$

     RDKit          3D

 98 97  0  0  0  0  0  0  0  0999 V2000
   52.5084   15.1189   13.4388 C   0  0  0  0  0  0  0  0  0  0  0  0
   51.9657   16.0261   14.4945 N   0  0  0  0  0  0  0  0  0  0  0  0
   51.6893   13.7977   13.3678 C   0  0  0  0  0  0  0  0  0  0  0  0
   49.5443   12.6019   12.8037 C   0  0  0  0  0  0  0  0  0  0  0  0
   48.2126   10.1314   12.5355 C   0  0  0  0  0  0  0  0  0  0  0  0
   50.2225   13.9469   12.9457 C   0  0  0  0  0  0  0  0  0  0  0  0
   49.2810   12.0703   11.5332 C   0  0  0  0  0  0  0  0  0  0  0  0
   49.1605   11.8719   13.9352 C   0  0  0  0  0  0  0  0  0  0  0  0
   48.6108   10.8521   11.3999 C   0  0  0  0  0  0  0  0  0  0  0  0
   48.4934   10.6518   13.8070 C   0  0  0  0  0  0  0  0  0  0  0  0
   52.5060   15.8529   12.0722 C   0  0  0  0  0  0  0  0  0  0  0  0
   53.9807   14.7778   13.8315 C   0  0  0  0  0  0  0  0  0  0  0  0
   54.0287   14.0606   15.0769 O   0  0  0  0  0  0  0  0  0  0  0  0
   53.3843   16.9727   12.0913 O   0  0  0  0  0  0  0  0  0  0  0  0
   47.4332    8.8440   12.3892 C   0  0  0  0  0  0  0  0  0  0  0  0
   45.9269    9.1214   12.3322 C   0  0  0  0  0  0  0  0  0  0  0  0
   43.3539    3.7746   11.2139 C   0  0  0  0  0  0  0  0  0  0  0  0
   44.3534    4.9221   11.4148 C   0  0  0  0  0  0  0  0  0  0  0  0
   45.0957    7.8926   11.9679 C   0  0  0  0  0  0  0  0  0  0  0  0
   45.2069    6.7576   12.9809 C   0  0  0  0  0  0  0  0  0  0  0  0
   44.1749    5.6459   12.7508 C   0  0  0  0  0  0  0  0  0  0  0  0
   43.5703    2.6141   12.1753 C   0  0  0  0  0  0  0  0  0  0  0  0
   43.3841    4.6808   11.6369 S   0  0  0  0  0  0  0  0  0  0  0  0
   44.9595    4.8263   12.0253 O   0  0  0  0  0  0  0  0  0  0  0  0
   43.3822    5.0836   10.0720 O   0  0  0  0  0  0  0  0  0  0  0  0
   42.6112    5.6701   12.3532 O   0  0  0  0  0  0  0  0  0  0  0  0
   43.0459    3.2773   11.6718 O   0  0  0  0  0  0  0  0  0  0  0  0
   45.4096    6.0934   12.4723 C   0  0  0  0  0  0  0  0  0  0  0  0
   46.9279    6.0390   12.5896 C   0  0  0  0  0  0  0  0  0  0  0  0
   47.5370    7.3220   13.1520 C   0  0  0  0  0  0  0  0  0  0  0  0
   47.4506    8.5027   12.1757 C   0  0  0  0  0  0  0  0  0  0  0  0
   48.0248    9.7779   12.7944 C   0  0  0  0  0  0  0  0  0  0  0  0
   47.9414   10.9528   11.8160 C   0  0  0  0  0  0  0  0  0  0  0  0
   48.4158   12.2781   12.4210 C   0  0  0  0  0  0  0  0  0  0  0  0
   49.9082   12.2904   12.7577 C   0  0  0  0  0  0  0  0  0  0  0  0
   50.3671   13.6981   13.1484 C   0  0  0  0  0  0  0  0  0  0  0  0
   51.8589   13.7193   13.4875 C   0  0  0  0  0  0  0  0  0  0  0  0
   52.3681   15.0985   13.9024 C   0  0  0  0  0  0  0  0  0  0  0  0
   52.2423   16.1549   12.8025 C   0  0  0  0  0  0  0  0  0  0  0  0
   52.2874   15.6276   15.3887 H   0  0  0  0  0  0  0  0  0  0  0  0
   50.9509   15.9688   14.5281 H   0  0  0  0  0  0  0  0  0  0  0  0
   51.7271   13.2881   14.3395 H   0  0  0  0  0  0  0  0  0  0  0  0
   52.1871   13.1187   12.6603 H   0  0  0  0  0  0  0  0  0  0  0  0
   50.1446   14.4823   11.9904 H   0  0  0  0  0  0  0  0  0  0  0  0
   49.6606   14.5390   13.6762 H   0  0  0  0  0  0  0  0  0  0  0  0
   49.5745   12.6139   10.6365 H   0  0  0  0  0  0  0  0  0  0  0  0
   49.3737   12.2537   14.9285 H   0  0  0  0  0  0  0  0  0  0  0  0
   48.3886   10.4749   10.4028 H   0  0  0  0  0  0  0  0  0  0  0  0
   48.1915   10.1131   14.7044 H   0  0  0  0  0  0  0  0  0  0  0  0
   51.5084   16.2240   11.8090 H   0  0  0  0  0  0  0  0  0  0  0  0
   52.8481   15.1809   11.2713 H   0  0  0  0  0  0  0  0  0  0  0  0
   54.4466   14.1463   13.0613 H   0  0  0  0  0  0  0  0  0  0  0  0
   54.5861   15.6825   13.9563 H   0  0  0  0  0  0  0  0  0  0  0  0
   54.9715   13.8650   15.2332 H   0  0  0  0  0  0  0  0  0  0  0  0
   52.9026   17.6830   12.5818 H   0  0  0  0  0  0  0  0  0  0  0  0
   47.7534    8.3145   11.4796 H   0  0  0  0  0  0  0  0  0  0  0  0
   47.6728    8.1736   13.2299 H   0  0  0  0  0  0  0  0  0  0  0  0
   45.5885    9.5352   13.2911 H   0  0  0  0  0  0  0  0  0  0  0  0
   45.7174    9.8952   11.5832 H   0  0  0  0  0  0  0  0  0  0  0  0
   42.3215    4.1437   11.2954 H   0  0  0  0  0  0  0  0  0  0  0  0
   43.4760    3.3957   10.1949 H   0  0  0  0  0  0  0  0  0  0  0  0
   45.3839    4.5456   11.3233 H   0  0  0  0  0  0  0  0  0  0  0  0
   44.2034    5.6360   10.5945 H   0  0  0  0  0  0  0  0  0  0  0  0
   45.3952    7.5493   10.9737 H   0  0  0  0  0  0  0  0  0  0  0  0
   44.0500    8.1975   11.8900 H   0  0  0  0  0  0  0  0  0  0  0  0
   46.2146    6.3276   12.9650 H   0  0  0  0  0  0  0  0  0  0  0  0
   45.0538    7.1579   13.9889 H   0  0  0  0  0  0  0  0  0  0  0  0
   44.2733    4.9291   13.5749 H   0  0  0  0  0  0  0  0  0  0  0  0
   43.1616    6.0695   12.8120 H   0  0  0  0  0  0  0  0  0  0  0  0
   44.6218    2.2952   12.1817 H   0  0  0  0  0  0  0  0  0  0  0  0
   43.2815    2.8909   13.1943 H   0  0  0  0  0  0  0  0  0  0  0  0
   42.9636    1.7528   11.8729 H   0  0  0  0  0  0  0  0  0  0  0  0
   43.5749    4.2655    9.5647 H   0  0  0  0  0  0  0  0  0  0  0  0
   44.9587    6.3191   13.4400 H   0  0  0  0  0  0  0  0  0  0  0  0
   45.1070    6.8579   11.7503 H   0  0  0  0  0  0  0  0  0  0  0  0
   47.2112    5.1969   13.2415 H   0  0  0  0  0  0  0  0  0  0  0  0
   47.3655    5.8188   11.6034 H   0  0  0  0  0  0  0  0  0  0  0  0
   47.0421    7.5802   14.0962 H   0  0  0  0  0  0  0  0  0  0  0  0
   48.5883    7.1314   13.3904 H   0  0  0  0  0  0  0  0  0  0  0  0
   46.4104    8.6836   11.8740 H   0  0  0  0  0  0  0  0  0  0  0  0
   48.0197    8.2578   11.2709 H   0  0  0  0  0  0  0  0  0  0  0  0
   49.0700    9.5927   13.0758 H   0  0  0  0  0  0  0  0  0  0  0  0
   47.4782   10.0182   13.7143 H   0  0  0  0  0  0  0  0  0  0  0  0
   46.9006   11.0861   11.4917 H   0  0  0  0  0  0  0  0  0  0  0  0
   48.5269   10.7280   10.9165 H   0  0  0  0  0  0  0  0  0  0  0  0
   48.2102   13.0673   11.6921 H   0  0  0  0  0  0  0  0  0  0  0  0
   47.8277   12.5105   13.3167 H   0  0  0  0  0  0  0  0  0  0  0  0
   50.1120   11.6001   13.5819 H   0  0  0  0  0  0  0  0  0  0  0  0
   50.4809   11.9418   11.8942 H   0  0  0  0  0  0  0  0  0  0  0  0
   49.7912   14.0469   14.0192 H   0  0  0  0  0  0  0  0  0  0  0  0
   50.1630   14.3801   12.3160 H   0  0  0  0  0  0  0  0  0  0  0  0
   52.0509   13.0196   14.3115 H   0  0  0  0  0  0  0  0  0  0  0  0
   52.4475   13.3666   12.6272 H   0  0  0  0  0  0  0  0  0  0  0  0
   53.4251   15.0107   14.1877 H   0  0  0  0  0  0  0  0  0  0  0  0
   51.8209   15.4456   14.7868 H   0  0  0  0  0  0  0  0  0  0  0  0
   52.7483   17.0730   13.1142 H   0  0  0  0  0  0  0  0  0  0  0  0
   52.6912   15.8111   11.8718 H   0  0  0  0  0  0  0  0  0  0  0  0
   51.1974   16.4271   12.6167 H   0  0  0  0  0  0  0  0  0  0  0  0
  1  2  1  0
  1  3  1  0
  3  6  1  0
  4  6  1  0
  4  7  2  0
  4  8  1  0
  5  9  2  0
  7  9  1  0
  5 10  1  0
  8 10  2  0
  1 11  1  0
  1 12  1  0
 12 13  1  0
 11 14  1  0
  5 15  1  0
 15 16  1  0
 17 18  1  0
 16 19  1  0
 19 20  1  0
 18 21  1  0
 20 21  1  0
 17 22  1  0
 23 24  1  0
 23 25  1  0
 23 26  2  0
 23 27  2  0
 24 28  1  0
 28 29  1  0
 29 30  1  0
 30 31  1  0
 31 32  1  0
 32 33  1  0
 33 34  1  0
 34 35  1  0
 35 36  1  0
 36 37  1  0
 37 38  1  0
 38 39  1  0
  2 40  1  0
  2 41  1  0
  3 42  1  0
  3 43  1  0
  6 44  1  0
  6 45  1  0
  7 46  1  0
  8 47  1  0
  9 48  1  0
 10 49  1  0
 11 50  1  0
 11 51  1  0
 12 52  1  0
 12 53  1  0
 13 54  1  0
 14 55  1  0
 15 56  1  0
 15 57  1  0
 16 58  1  0
 16 59  1  0
 17 60  1  0
 17 61  1  0
 18 62  1  0
 18 63  1  0
 19 64  1  0
 19 65  1  0
 20 66  1  0
 20 67  1  0
 21 68  1  0
 21 69  1  0
 22 70  1  0
 22 71  1  0
 22 72  1  0
 25 73  1  0
 28 74  1  0
 28 75  1  0
 29 76  1  0
 29 77  1  0
 30 78  1  0
 30 79  1  0
 31 80  1  0
 31 81  1  0
 32 82  1  0
 32 83  1  0
 33 84  1  0
 33 85  1  0
 34 86  1  0
 34 87  1  0
 35 88  1  0
 35 89  1  0
 36 90  1  0
 36 91  1  0
 37 92  1  0
 37 93  1  0
 38 94  1  0
 38 95  1  0
 39 96  1  0
 39 97  1  0
 39 98  1  0
M  END
> <Uni-Dock RESULT> 
ENERGY=   -5.515  LOWER_BOUND=    3.614  UPPER_BOUND=   10.793
INTER + INTRA:          -5.515
INTER:                  -5.515
INTRA:                   0.000
UNBOUND:                 0.000

$$$$

     RDKit          3D

 98 97  0  0  0  0  0  0  0  0999 V2000
   44.1212    5.0514   11.6144 C   0  0  0  0  0  0  0  0  0  0  0  0
   44.1632    4.9969   10.1220 N   0  0  0  0  0  0  0  0  0  0  0  0
   45.4745    5.5609   12.1892 C   0  0  0  0  0  0  0  0  0  0  0  0
   47.1262    7.4361   12.5131 C   0  0  0  0  0  0  0  0  0  0  0  0
   49.5021    8.3081   13.7553 C   0  0  0  0  0  0  0  0  0  0  0  0
   45.8527    7.0010   11.8218 C   0  0  0  0  0  0  0  0  0  0  0  0
   47.0767    8.3134   13.6058 C   0  0  0  0  0  0  0  0  0  0  0  0
   48.3728    6.9789   12.0687 C   0  0  0  0  0  0  0  0  0  0  0  0
   48.2541    8.7548   14.2139 C   0  0  0  0  0  0  0  0  0  0  0  0
   49.5526    7.4147   12.6757 C   0  0  0  0  0  0  0  0  0  0  0  0
   42.9448    5.9550   12.0679 C   0  0  0  0  0  0  0  0  0  0  0  0
   43.8730    3.5969   12.1254 C   0  0  0  0  0  0  0  0  0  0  0  0
   44.9605    2.7299   11.7601 O   0  0  0  0  0  0  0  0  0  0  0  0
   41.6935    5.4000   11.6782 O   0  0  0  0  0  0  0  0  0  0  0  0
   50.7771    8.8347   14.3745 C   0  0  0  0  0  0  0  0  0  0  0  0
   51.2418   10.1113   13.6649 C   0  0  0  0  0  0  0  0  0  0  0  0
   55.9962   12.0657   16.8328 C   0  0  0  0  0  0  0  0  0  0  0  0
   54.7498   11.3115   16.3491 C   0  0  0  0  0  0  0  0  0  0  0  0
   52.3974   10.8149   14.3741 C   0  0  0  0  0  0  0  0  0  0  0  0
   53.6676    9.9740   14.4543 C   0  0  0  0  0  0  0  0  0  0  0  0
   54.8887   10.7763   14.9225 C   0  0  0  0  0  0  0  0  0  0  0  0
   57.2133   11.1673   17.0038 C   0  0  0  0  0  0  0  0  0  0  0  0
   55.4853   11.9226   15.9846 S   0  0  0  0  0  0  0  0  0  0  0  0
   54.8173   10.4570   16.2290 O   0  0  0  0  0  0  0  0  0  0  0  0
   54.4703   12.8949   16.7819 O   0  0  0  0  0  0  0  0  0  0  0  0
   55.4180   12.2619   14.5812 O   0  0  0  0  0  0  0  0  0  0  0  0
   56.7252   11.9742   16.7230 O   0  0  0  0  0  0  0  0  0  0  0  0
   53.8474   10.0152   15.2951 C   0  0  0  0  0  0  0  0  0  0  0  0
   53.2350    8.7253   15.8272 C   0  0  0  0  0  0  0  0  0  0  0  0
   52.2314    8.0912   14.8659 C   0  0  0  0  0  0  0  0  0  0  0  0
   50.9316    8.8972   14.7415 C   0  0  0  0  0  0  0  0  0  0  0  0
   49.9757    8.2571   13.7339 C   0  0  0  0  0  0  0  0  0  0  0  0
   48.6779    9.0612   13.6156 C   0  0  0  0  0  0  0  0  0  0  0  0
   47.7242    8.5158   12.5477 C   0  0  0  0  0  0  0  0  0  0  0  0
   47.1727    7.1279   12.8799 C   0  0  0  0  0  0  0  0  0  0  0  0
   46.0664    6.7319   11.8981 C   0  0  0  0  0  0  0  0  0  0  0  0
   45.5094    5.3444   12.2228 C   0  0  0  0  0  0  0  0  0  0  0  0
   44.4123    4.8899   11.2619 C   0  0  0  0  0  0  0  0  0  0  0  0
   43.1692    5.7820   11.2845 C   0  0  0  0  0  0  0  0  0  0  0  0
   44.7217    4.1612    9.8949 H   0  0  0  0  0  0  0  0  0  0  0  0
   44.6944    5.7803    9.7503 H   0  0  0  0  0  0  0  0  0  0  0  0
   46.2848    4.8913   11.8726 H   0  0  0  0  0  0  0  0  0  0  0  0
   45.4380    5.4802   13.2855 H   0  0  0  0  0  0  0  0  0  0  0  0
   45.0488    7.6967   12.0958 H   0  0  0  0  0  0  0  0  0  0  0  0
   45.9955    7.1073   10.7410 H   0  0  0  0  0  0  0  0  0  0  0  0
   46.1203    8.6791   13.9762 H   0  0  0  0  0  0  0  0  0  0  0  0
   48.4338    6.2824   11.2387 H   0  0  0  0  0  0  0  0  0  0  0  0
   48.1921    9.4614   15.0401 H   0  0  0  0  0  0  0  0  0  0  0  0
   50.5095    7.0558   12.2985 H   0  0  0  0  0  0  0  0  0  0  0  0
   43.0079    6.9585   11.6309 H   0  0  0  0  0  0  0  0  0  0  0  0
   42.9331    6.0543   13.1635 H   0  0  0  0  0  0  0  0  0  0  0  0
   43.7868    3.5850   13.2216 H   0  0  0  0  0  0  0  0  0  0  0  0
   42.9602    3.1679   11.6974 H   0  0  0  0  0  0  0  0  0  0  0  0
   44.7411    1.8573   12.1370 H   0  0  0  0  0  0  0  0  0  0  0  0
   41.6004    5.5990   10.7145 H   0  0  0  0  0  0  0  0  0  0  0  0
   50.6180    9.0351   15.4445 H   0  0  0  0  0  0  0  0  0  0  0  0
   51.5563    8.0576   14.3248 H   0  0  0  0  0  0  0  0  0  0  0  0
   51.5197    9.8803   12.6283 H   0  0  0  0  0  0  0  0  0  0  0  0
   50.4116   10.8255   13.5988 H   0  0  0  0  0  0  0  0  0  0  0  0
   56.2333   12.8956   16.1517 H   0  0  0  0  0  0  0  0  0  0  0  0
   55.7652   12.5096   17.8056 H   0  0  0  0  0  0  0  0  0  0  0  0
   54.5147   10.4880   17.0409 H   0  0  0  0  0  0  0  0  0  0  0  0
   53.9051   12.0113   16.3916 H   0  0  0  0  0  0  0  0  0  0  0  0
   52.0681   11.1076   15.3750 H   0  0  0  0  0  0  0  0  0  0  0  0
   52.6172   11.7393   13.8360 H   0  0  0  0  0  0  0  0  0  0  0  0
   53.5181    9.1170   15.1205 H   0  0  0  0  0  0  0  0  0  0  0  0
   53.8918    9.5644   13.4636 H   0  0  0  0  0  0  0  0  0  0  0  0
   55.7613   10.1151   14.8599 H   0  0  0  0  0  0  0  0  0  0  0  0
   55.0663   11.6104   14.2278 H   0  0  0  0  0  0  0  0  0  0  0  0
   56.9690   10.2780   17.6012 H   0  0  0  0  0  0  0  0  0  0  0  0
   57.5995   10.8423   16.0325 H   0  0  0  0  0  0  0  0  0  0  0  0
   58.0132   11.7073   17.5235 H   0  0  0  0  0  0  0  0  0  0  0  0
   54.7723   12.9215   17.7157 H   0  0  0  0  0  0  0  0  0  0  0  0
   54.3246    9.8423   14.3291 H   0  0  0  0  0  0  0  0  0  0  0  0
   53.0799   10.7867   15.1813 H   0  0  0  0  0  0  0  0  0  0  0  0
   54.0387    7.9992   16.0300 H   0  0  0  0  0  0  0  0  0  0  0  0
   52.7515    8.9203   16.7971 H   0  0  0  0  0  0  0  0  0  0  0  0
   52.6938    7.9720   13.8784 H   0  0  0  0  0  0  0  0  0  0  0  0
   51.9949    7.0847   15.2255 H   0  0  0  0  0  0  0  0  0  0  0  0
   51.1416    9.9306   14.4348 H   0  0  0  0  0  0  0  0  0  0  0  0
   50.4424    8.9361   15.7221 H   0  0  0  0  0  0  0  0  0  0  0  0
   49.7574    7.2311   14.0589 H   0  0  0  0  0  0  0  0  0  0  0  0
   50.4647    8.1908   12.7545 H   0  0  0  0  0  0  0  0  0  0  0  0
   48.9141   10.1014   13.3542 H   0  0  0  0  0  0  0  0  0  0  0  0
   48.1682    9.0866   14.5863 H   0  0  0  0  0  0  0  0  0  0  0  0
   46.8895    9.2174   12.4597 H   0  0  0  0  0  0  0  0  0  0  0  0
   48.2276    8.4958   11.5738 H   0  0  0  0  0  0  0  0  0  0  0  0
   47.9761    6.3862   12.8403 H   0  0  0  0  0  0  0  0  0  0  0  0
   46.7793    7.1252   13.9000 H   0  0  0  0  0  0  0  0  0  0  0  0
   46.4642    6.7330   10.8718 H   0  0  0  0  0  0  0  0  0  0  0  0
   45.2656    7.4775   11.9484 H   0  0  0  0  0  0  0  0  0  0  0  0
   46.3254    4.6108   12.1848 H   0  0  0  0  0  0  0  0  0  0  0  0
   45.1133    5.3264   13.2494 H   0  0  0  0  0  0  0  0  0  0  0  0
   44.1162    3.8659   11.5269 H   0  0  0  0  0  0  0  0  0  0  0  0
   44.8043    4.8599   10.2384 H   0  0  0  0  0  0  0  0  0  0  0  0
   42.3772    5.3252   10.6843 H   0  0  0  0  0  0  0  0  0  0  0  0
   42.7995    5.9181   12.2997 H   0  0  0  0  0  0  0  0  0  0  0  0
   43.3646    6.7643   10.8401 H   0  0  0  0  0  0  0  0  0  0  0  0
  1  2  1  0
  1  3  1  0
  3  6  1  0
  4  6  1  0
  4  7  2  0
  4  8  1  0
  5  9  2  0
  7  9  1  0
  5 10  1  0
  8 10  2  0
  1 11  1  0
  1 12  1  0
 12 13  1  0
 11 14  1  0
  5 15  1  0
 15 16  1  0
 17 18  1  0
 16 19  1  0
 19 20  1  0
 18 21  1  0
 20 21  1  0
 17 22  1  0
 23 24  1  0
 23 25  1  0
 23 26  2  0
 23 27  2  0
 24 28  1  0
 28 29  1  0
 29 30  1  0
 30 31  1  0
 31 32  1  0
 32 33  1  0
 33 34  1  0
 34 35  1  0
 35 36  1  0
 36 37  1  0
 37 38  1  0
 38 39  1  0
  2 40  1  0
  2 41  1  0
  3 42  1  0
  3 43  1  0
  6 44  1  0
  6 45  1  0
  7 46  1  0
  8 47  1  0
  9 48  1  0
 10 49  1  0
 11 50  1  0
 11 51  1  0
 12 52  1  0
 12 53  1  0
 13 54  1  0
 14 55  1  0
 15 56  1  0
 15 57  1  0
 16 58  1  0
 16 59  1  0
 17 60  1  0
 17 61  1  0
 18 62  1  0
 18 63  1  0
 19 64  1  0
 19 65  1  0
 20 66  1  0
 20 67  1  0
 21 68  1  0
 21 69  1  0
 22 70  1  0
 22 71  1  0
 22 72  1  0
 25 73  1  0
 28 74  1  0
 28 75  1  0
 29 76  1  0
 29 77  1  0
 30 78  1  0
 30 79  1  0
 31 80  1  0
 31 81  1  0
 32 82  1  0
 32 83  1  0
 33 84  1  0
 33 85  1  0
 34 86  1  0
 34 87  1  0
 35 88  1  0
 35 89  1  0
 36 90  1  0
 36 91  1  0
 37 92  1  0
 37 93  1  0
 38 94  1  0
 38 95  1  0
 39 96  1  0
 39 97  1  0
 39 98  1  0
M  END
> <Uni-Dock RESULT> 
ENERGY=   -5.507  LOWER_BOUND=    2.819  UPPER_BOUND=    3.882
INTER + INTRA:          -5.507
INTER:                  -5.507
INTRA:                   0.000
UNBOUND:                 0.000

$$$$

     RDKit          3D

 98 97  0  0  0  0  0  0  0  0999 V2000
   47.9211   10.3102   19.7242 C   0  0  0  0  0  0  0  0  0  0  0  0
   47.2338    9.0911   20.2471 N   0  0  0  0  0  0  0  0  0  0  0  0
   48.7755    9.9702   18.4689 C   0  0  0  0  0  0  0  0  0  0  0  0
   48.8969    9.2865   16.0468 C   0  0  0  0  0  0  0  0  0  0  0  0
   50.5266    8.8750   13.7832 C   0  0  0  0  0  0  0  0  0  0  0  0
   47.9918    9.4875   17.2423 C   0  0  0  0  0  0  0  0  0  0  0  0
   48.8986   10.2125   14.9939 C   0  0  0  0  0  0  0  0  0  0  0  0
   49.7388    8.1705   15.9673 C   0  0  0  0  0  0  0  0  0  0  0  0
   49.6970   10.0028   13.8672 C   0  0  0  0  0  0  0  0  0  0  0  0
   50.5415    7.9584   14.8444 C   0  0  0  0  0  0  0  0  0  0  0  0
   46.8676   11.4032   19.4049 C   0  0  0  0  0  0  0  0  0  0  0  0
   48.8680   10.8293   20.8521 C   0  0  0  0  0  0  0  0  0  0  0  0
   49.8873    9.8612   21.1550 O   0  0  0  0  0  0  0  0  0  0  0  0
   46.1975   11.8287   20.5862 O   0  0  0  0  0  0  0  0  0  0  0  0
   51.3432    8.6178   12.5369 C   0  0  0  0  0  0  0  0  0  0  0  0
   50.5393    7.8055   11.5157 C   0  0  0  0  0  0  0  0  0  0  0  0
   54.0189    7.5327    6.5885 C   0  0  0  0  0  0  0  0  0  0  0  0
   53.4213    7.8749    7.9603 C   0  0  0  0  0  0  0  0  0  0  0  0
   51.2211    7.6966   10.1530 C   0  0  0  0  0  0  0  0  0  0  0  0
   52.5645    6.9755   10.1980 C   0  0  0  0  0  0  0  0  0  0  0  0
   53.1100    6.6374    8.8045 C   0  0  0  0  0  0  0  0  0  0  0  0
   55.4075    6.9144    6.6753 C   0  0  0  0  0  0  0  0  0  0  0  0
   53.3521    7.1580    7.2334 S   0  0  0  0  0  0  0  0  0  0  0  0
   53.9040    7.7158    8.6610 O   0  0  0  0  0  0  0  0  0  0  0  0
   52.5336    8.4305    6.6659 O   0  0  0  0  0  0  0  0  0  0  0  0
   52.4093    6.0859    7.4595 O   0  0  0  0  0  0  0  0  0  0  0  0
   54.4834    7.0046    6.3492 O   0  0  0  0  0  0  0  0  0  0  0  0
   53.0756    7.5404    9.7973 C   0  0  0  0  0  0  0  0  0  0  0  0
   53.7042    8.2993   10.9596 C   0  0  0  0  0  0  0  0  0  0  0  0
   52.9529    8.1173   12.2771 C   0  0  0  0  0  0  0  0  0  0  0  0
   51.5887    8.8199   12.2894 C   0  0  0  0  0  0  0  0  0  0  0  0
   50.8483    8.5721   13.6043 C   0  0  0  0  0  0  0  0  0  0  0  0
   49.4898    9.2784   13.6151 C   0  0  0  0  0  0  0  0  0  0  0  0
   48.6652    8.9834   14.8723 C   0  0  0  0  0  0  0  0  0  0  0  0
   49.2901    9.5435   16.1517 C   0  0  0  0  0  0  0  0  0  0  0  0
   48.3238    9.4130   17.3324 C   0  0  0  0  0  0  0  0  0  0  0  0
   48.9411    9.9704   18.6166 C   0  0  0  0  0  0  0  0  0  0  0  0
   48.0253    9.8495   19.8332 C   0  0  0  0  0  0  0  0  0  0  0  0
   46.7206   10.6379   19.6992 C   0  0  0  0  0  0  0  0  0  0  0  0
   47.9658    8.5521   20.7324 H   0  0  0  0  0  0  0  0  0  0  0  0
   46.9296    8.4957   19.4808 H   0  0  0  0  0  0  0  0  0  0  0  0
   49.5266    9.2128   18.7286 H   0  0  0  0  0  0  0  0  0  0  0  0
   49.3472   10.8660   18.1855 H   0  0  0  0  0  0  0  0  0  0  0  0
   47.2082   10.2077   16.9726 H   0  0  0  0  0  0  0  0  0  0  0  0
   47.4807    8.5409   17.4487 H   0  0  0  0  0  0  0  0  0  0  0  0
   48.2586   11.0926   15.0329 H   0  0  0  0  0  0  0  0  0  0  0  0
   49.7701    7.4521   16.7802 H   0  0  0  0  0  0  0  0  0  0  0  0
   49.6573   10.7190   13.0478 H   0  0  0  0  0  0  0  0  0  0  0  0
   51.1743    7.0727   14.8018 H   0  0  0  0  0  0  0  0  0  0  0  0
   46.1029   11.0426   18.7068 H   0  0  0  0  0  0  0  0  0  0  0  0
   47.3496   12.2883   18.9638 H   0  0  0  0  0  0  0  0  0  0  0  0
   49.3678   11.7566   20.5369 H   0  0  0  0  0  0  0  0  0  0  0  0
   48.3215   11.0242   21.7815 H   0  0  0  0  0  0  0  0  0  0  0  0
   50.4455   10.2710   21.8420 H   0  0  0  0  0  0  0  0  0  0  0  0
   45.5400   11.1198   20.7917 H   0  0  0  0  0  0  0  0  0  0  0  0
   51.6591    9.5737   12.0932 H   0  0  0  0  0  0  0  0  0  0  0  0
   52.2706    8.0895   12.8095 H   0  0  0  0  0  0  0  0  0  0  0  0
   50.3339    6.8041   11.9160 H   0  0  0  0  0  0  0  0  0  0  0  0
   49.5581    8.2702   11.3573 H   0  0  0  0  0  0  0  0  0  0  0  0
   53.3450    6.8679    6.0292 H   0  0  0  0  0  0  0  0  0  0  0  0
   54.0980    8.4605    6.0143 H   0  0  0  0  0  0  0  0  0  0  0  0
   54.0983    8.5471    8.5099 H   0  0  0  0  0  0  0  0  0  0  0  0
   52.4937    8.4347    7.7844 H   0  0  0  0  0  0  0  0  0  0  0  0
   51.3398    8.7019    9.7393 H   0  0  0  0  0  0  0  0  0  0  0  0
   50.5523    7.1590    9.4776 H   0  0  0  0  0  0  0  0  0  0  0  0
   53.3028    7.5750   10.7422 H   0  0  0  0  0  0  0  0  0  0  0  0
   52.4521    6.0383   10.7536 H   0  0  0  0  0  0  0  0  0  0  0  0
   54.0229    6.0457    8.9424 H   0  0  0  0  0  0  0  0  0  0  0  0
   52.3888    5.9976    8.2749 H   0  0  0  0  0  0  0  0  0  0  0  0
   56.0697    7.5150    7.3141 H   0  0  0  0  0  0  0  0  0  0  0  0
   55.3588    5.8977    7.0780 H   0  0  0  0  0  0  0  0  0  0  0  0
   55.8628    6.8635    5.6795 H   0  0  0  0  0  0  0  0  0  0  0  0
   53.1777    8.9959    6.1872 H   0  0  0  0  0  0  0  0  0  0  0  0
   52.9988    6.4773   10.0311 H   0  0  0  0  0  0  0  0  0  0  0  0
   52.0772    7.9309    9.5783 H   0  0  0  0  0  0  0  0  0  0  0  0
   54.7436    7.9595   11.0946 H   0  0  0  0  0  0  0  0  0  0  0  0
   53.7658    9.3699   10.7096 H   0  0  0  0  0  0  0  0  0  0  0  0
   52.8245    7.0473   12.4818 H   0  0  0  0  0  0  0  0  0  0  0  0
   53.5698    8.5201   13.0867 H   0  0  0  0  0  0  0  0  0  0  0  0
   50.9657    8.4760   11.4530 H   0  0  0  0  0  0  0  0  0  0  0  0
   51.7435    9.8984   12.1651 H   0  0  0  0  0  0  0  0  0  0  0  0
   51.4710    8.9357   14.4326 H   0  0  0  0  0  0  0  0  0  0  0  0
   50.7102    7.4940   13.7505 H   0  0  0  0  0  0  0  0  0  0  0  0
   48.9021    8.9551   12.7455 H   0  0  0  0  0  0  0  0  0  0  0  0
   49.6343   10.3608   13.5149 H   0  0  0  0  0  0  0  0  0  0  0  0
   47.6777    9.4330   14.7337 H   0  0  0  0  0  0  0  0  0  0  0  0
   48.5120    7.9024   14.9723 H   0  0  0  0  0  0  0  0  0  0  0  0
   50.2173    9.0096   16.3806 H   0  0  0  0  0  0  0  0  0  0  0  0
   49.5501   10.5948   16.0019 H   0  0  0  0  0  0  0  0  0  0  0  0
   48.0645    8.3540   17.4834 H   0  0  0  0  0  0  0  0  0  0  0  0
   47.4012    9.9539   17.0955 H   0  0  0  0  0  0  0  0  0  0  0  0
   49.8725    9.4304   18.8322 H   0  0  0  0  0  0  0  0  0  0  0  0
   49.2115   11.0281   18.4783 H   0  0  0  0  0  0  0  0  0  0  0  0
   48.5671   10.2120   20.7172 H   0  0  0  0  0  0  0  0  0  0  0  0
   47.7819    8.7954   20.0113 H   0  0  0  0  0  0  0  0  0  0  0  0
   46.1815   10.6219   20.6507 H   0  0  0  0  0  0  0  0  0  0  0  0
   46.9122   11.6747   19.4272 H   0  0  0  0  0  0  0  0  0  0  0  0
   46.0492   10.1913   18.9574 H   0  0  0  0  0  0  0  0  0  0  0  0
  1  2  1  0
  1  3  1  0
  3  6  1  0
  4  6  1  0
  4  7  2  0
  4  8  1  0
  5  9  2  0
  7  9  1  0
  5 10  1  0
  8 10  2  0
  1 11  1  0
  1 12  1  0
 12 13  1  0
 11 14  1  0
  5 15  1  0
 15 16  1  0
 17 18  1  0
 16 19  1  0
 19 20  1  0
 18 21  1  0
 20 21  1  0
 17 22  1  0
 23 24  1  0
 23 25  1  0
 23 26  2  0
 23 27  2  0
 24 28  1  0
 28 29  1  0
 29 30  1  0
 30 31  1  0
 31 32  1  0
 32 33  1  0
 33 34  1  0
 34 35  1  0
 35 36  1  0
 36 37  1  0
 37 38  1  0
 38 39  1  0
  2 40  1  0
  2 41  1  0
  3 42  1  0
  3 43  1  0
  6 44  1  0
  6 45  1  0
  7 46  1  0
  8 47  1  0
  9 48  1  0
 10 49  1  0
 11 50  1  0
 11 51  1  0
 12 52  1  0
 12 53  1  0
 13 54  1  0
 14 55  1  0
 15 56  1  0
 15 57  1  0
 16 58  1  0
 16 59  1  0
 17 60  1  0
 17 61  1  0
 18 62  1  0
 18 63  1  0
 19 64  1  0
 19 65  1  0
 20 66  1  0
 20 67  1  0
 21 68  1  0
 21 69  1  0
 22 70  1  0
 22 71  1  0
 22 72  1  0
 25 73  1  0
 28 74  1  0
 28 75  1  0
 29 76  1  0
 29 77  1  0
 30 78  1  0
 30 79  1  0
 31 80  1  0
 31 81  1  0
 32 82  1  0
 32 83  1  0
 33 84  1  0
 33 85  1  0
 34 86  1  0
 34 87  1  0
 35 88  1  0
 35 89  1  0
 36 90  1  0
 36 91  1  0
 37 92  1  0
 37 93  1  0
 38 94  1  0
 38 95  1  0
 39 96  1  0
 39 97  1  0
 39 98  1  0
M  END
> <Uni-Dock RESULT> 
ENERGY=   -5.450  LOWER_BOUND=    5.707  UPPER_BOUND=    7.442
INTER + INTRA:          -5.450
INTER:                  -5.450
INTRA:                   0.000
UNBOUND:                 0.000

$$$$

     RDKit          3D

 98 97  0  0  0  0  0  0  0  0999 V2000
   44.4989    5.1934   11.5955 C   0  0  0  0  0  0  0  0  0  0  0  0
   44.9619    3.8576   12.0784 N   0  0  0  0  0  0  0  0  0  0  0  0
   45.2395    6.3405   12.3420 C   0  0  0  0  0  0  0  0  0  0  0  0
   47.3614    7.6239   12.7884 C   0  0  0  0  0  0  0  0  0  0  0  0
   48.5646    9.8434   14.0433 C   0  0  0  0  0  0  0  0  0  0  0  0
   46.7532    6.4171   12.1082 C   0  0  0  0  0  0  0  0  0  0  0  0
   47.7458    8.7436   12.0370 C   0  0  0  0  0  0  0  0  0  0  0  0
   47.5590    7.6392   14.1745 C   0  0  0  0  0  0  0  0  0  0  0  0
   48.3526    9.8384   12.6568 C   0  0  0  0  0  0  0  0  0  0  0  0
   48.1622    8.7330   14.7991 C   0  0  0  0  0  0  0  0  0  0  0  0
   44.7128    5.2939   10.0624 C   0  0  0  0  0  0  0  0  0  0  0  0
   42.9717    5.2953   11.9047 C   0  0  0  0  0  0  0  0  0  0  0  0
   42.7284    5.2454   13.3211 O   0  0  0  0  0  0  0  0  0  0  0  0
   43.9078    4.3458    9.3703 O   0  0  0  0  0  0  0  0  0  0  0  0
   49.2771   11.0023   14.7034 C   0  0  0  0  0  0  0  0  0  0  0  0
   50.7930   10.7763   14.7141 C   0  0  0  0  0  0  0  0  0  0  0  0
   53.1568   15.8688   16.9365 C   0  0  0  0  0  0  0  0  0  0  0  0
   52.2112   14.8027   16.3659 C   0  0  0  0  0  0  0  0  0  0  0  0
   51.5870   12.0001   15.1673 C   0  0  0  0  0  0  0  0  0  0  0  0
   51.2844   12.4285   16.5997 C   0  0  0  0  0  0  0  0  0  0  0  0
   52.2680   13.4791   17.1313 C   0  0  0  0  0  0  0  0  0  0  0  0
   52.7548   16.3475   18.3247 C   0  0  0  0  0  0  0  0  0  0  0  0
   53.1297   14.8765   16.8110 S   0  0  0  0  0  0  0  0  0  0  0  0
   51.5302   14.5693   16.8467 O   0  0  0  0  0  0  0  0  0  0  0  0
   53.3475   15.3628   15.2854 O   0  0  0  0  0  0  0  0  0  0  0  0
   53.8673   13.6474   16.9970 O   0  0  0  0  0  0  0  0  0  0  0  0
   53.3759   16.0441   17.6244 O   0  0  0  0  0  0  0  0  0  0  0  0
   51.1059   13.2639   16.4945 C   0  0  0  0  0  0  0  0  0  0  0  0
   49.5842   13.2690   16.4155 C   0  0  0  0  0  0  0  0  0  0  0  0
   48.9892   11.8913   16.1303 C   0  0  0  0  0  0  0  0  0  0  0  0
   49.2654   11.4051   14.7013 C   0  0  0  0  0  0  0  0  0  0  0  0
   48.6977   10.0037   14.4721 C   0  0  0  0  0  0  0  0  0  0  0  0
   48.9709    9.5235   13.0440 C   0  0  0  0  0  0  0  0  0  0  0  0
   48.5067    8.0856   12.7906 C   0  0  0  0  0  0  0  0  0  0  0  0
   46.9877    7.9176   12.8643 C   0  0  0  0  0  0  0  0  0  0  0  0
   46.5701    6.5229   12.3897 C   0  0  0  0  0  0  0  0  0  0  0  0
   45.0520    6.3461   12.4607 C   0  0  0  0  0  0  0  0  0  0  0  0
   44.5799    4.9635   12.0146 C   0  0  0  0  0  0  0  0  0  0  0  0
   44.9028    4.6476   10.5525 C   0  0  0  0  0  0  0  0  0  0  0  0
   44.5097    3.7269   12.9951 H   0  0  0  0  0  0  0  0  0  0  0  0
   45.9596    3.8744   12.2746 H   0  0  0  0  0  0  0  0  0  0  0  0
   45.0523    6.2592   13.4207 H   0  0  0  0  0  0  0  0  0  0  0  0
   44.7920    7.2980   12.0375 H   0  0  0  0  0  0  0  0  0  0  0  0
   46.9795    6.4673   11.0351 H   0  0  0  0  0  0  0  0  0  0  0  0
   47.2561    5.5204   12.4864 H   0  0  0  0  0  0  0  0  0  0  0  0
   47.5975    8.7610   10.9584 H   0  0  0  0  0  0  0  0  0  0  0  0
   47.2493    6.7926   14.7788 H   0  0  0  0  0  0  0  0  0  0  0  0
   48.6721   10.6830   12.0481 H   0  0  0  0  0  0  0  0  0  0  0  0
   48.3189    8.7109   15.8769 H   0  0  0  0  0  0  0  0  0  0  0  0
   45.7556    5.1045    9.7817 H   0  0  0  0  0  0  0  0  0  0  0  0
   44.4315    6.2926    9.6969 H   0  0  0  0  0  0  0  0  0  0  0  0
   42.5664    6.2451   11.5270 H   0  0  0  0  0  0  0  0  0  0  0  0
   42.4112    4.4702   11.4516 H   0  0  0  0  0  0  0  0  0  0  0  0
   41.7636    5.3417   13.4273 H   0  0  0  0  0  0  0  0  0  0  0  0
   44.3678    3.4771    9.4739 H   0  0  0  0  0  0  0  0  0  0  0  0
   49.0393   11.9373   14.1747 H   0  0  0  0  0  0  0  0  0  0  0  0
   48.8965   11.1295   15.7293 H   0  0  0  0  0  0  0  0  0  0  0  0
   51.0357    9.9131   15.3476 H   0  0  0  0  0  0  0  0  0  0  0  0
   51.1389   10.5133   13.7067 H   0  0  0  0  0  0  0  0  0  0  0  0
   54.1918   15.4982   16.9510 H   0  0  0  0  0  0  0  0  0  0  0  0
   53.1378   16.7311   16.2636 H   0  0  0  0  0  0  0  0  0  0  0  0
   51.1788   15.1848   16.3473 H   0  0  0  0  0  0  0  0  0  0  0  0
   52.5032   14.6290   15.3221 H   0  0  0  0  0  0  0  0  0  0  0  0
   51.3914   12.8216   14.4725 H   0  0  0  0  0  0  0  0  0  0  0  0
   52.6508   11.7682   15.0835 H   0  0  0  0  0  0  0  0  0  0  0  0
   50.2622   12.8156   16.6757 H   0  0  0  0  0  0  0  0  0  0  0  0
   51.3369   11.5534   17.2563 H   0  0  0  0  0  0  0  0  0  0  0  0
   52.0265   13.6526   18.1868 H   0  0  0  0  0  0  0  0  0  0  0  0
   53.2898   13.0734   17.0975 H   0  0  0  0  0  0  0  0  0  0  0  0
   51.6932   16.6292   18.3550 H   0  0  0  0  0  0  0  0  0  0  0  0
   52.9328   15.5694   19.0738 H   0  0  0  0  0  0  0  0  0  0  0  0
   53.3410   17.2299   18.6061 H   0  0  0  0  0  0  0  0  0  0  0  0
   53.1693   16.3281   15.2636 H   0  0  0  0  0  0  0  0  0  0  0  0
   51.4477   12.5541   17.2495 H   0  0  0  0  0  0  0  0  0  0  0  0
   51.5401   12.9932   15.5273 H   0  0  0  0  0  0  0  0  0  0  0  0
   49.1730   13.6423   17.3672 H   0  0  0  0  0  0  0  0  0  0  0  0
   49.2582   13.9837   15.6439 H   0  0  0  0  0  0  0  0  0  0  0  0
   49.3795   11.1657   16.8544 H   0  0  0  0  0  0  0  0  0  0  0  0
   47.9071   11.9414   16.2880 H   0  0  0  0  0  0  0  0  0  0  0  0
   50.3438   11.3969   14.4940 H   0  0  0  0  0  0  0  0  0  0  0  0
   48.7977   12.0995   13.9931 H   0  0  0  0  0  0  0  0  0  0  0  0
   47.6166   10.0264   14.6639 H   0  0  0  0  0  0  0  0  0  0  0  0
   49.1411    9.3055   15.1923 H   0  0  0  0  0  0  0  0  0  0  0  0
   50.0497    9.5677   12.8429 H   0  0  0  0  0  0  0  0  0  0  0  0
   48.4874   10.1984   12.3275 H   0  0  0  0  0  0  0  0  0  0  0  0
   48.8471    7.7989   11.7914 H   0  0  0  0  0  0  0  0  0  0  0  0
   48.9936    7.4063   13.5003 H   0  0  0  0  0  0  0  0  0  0  0  0
   46.6433    8.0699   13.8916 H   0  0  0  0  0  0  0  0  0  0  0  0
   46.5051    8.6782   12.2448 H   0  0  0  0  0  0  0  0  0  0  0  0
   47.0550    5.7582   13.0155 H   0  0  0  0  0  0  0  0  0  0  0  0
   46.9153    6.3820   11.3598 H   0  0  0  0  0  0  0  0  0  0  0  0
   44.7188    6.5063   13.4944 H   0  0  0  0  0  0  0  0  0  0  0  0
   44.5530    7.1088   11.8440 H   0  0  0  0  0  0  0  0  0  0  0  0
   43.4925    4.9016   12.1568 H   0  0  0  0  0  0  0  0  0  0  0  0
   45.0346    4.1934   12.6488 H   0  0  0  0  0  0  0  0  0  0  0  0
   44.4186    3.7106   10.2627 H   0  0  0  0  0  0  0  0  0  0  0  0
   44.5513    5.4379    9.8910 H   0  0  0  0  0  0  0  0  0  0  0  0
   45.9771    4.5005   10.3952 H   0  0  0  0  0  0  0  0  0  0  0  0
  1  2  1  0
  1  3  1  0
  3  6  1  0
  4  6  1  0
  4  7  2  0
  4  8  1  0
  5  9  2  0
  7  9  1  0
  5 10  1  0
  8 10  2  0
  1 11  1  0
  1 12  1  0
 12 13  1  0
 11 14  1  0
  5 15  1  0
 15 16  1  0
 17 18  1  0
 16 19  1  0
 19 20  1  0
 18 21  1  0
 20 21  1  0
 17 22  1  0
 23 24  1  0
 23 25  1  0
 23 26  2  0
 23 27  2  0
 24 28  1  0
 28 29  1  0
 29 30  1  0
 30 31  1  0
 31 32  1  0
 32 33  1  0
 33 34  1  0
 34 35  1  0
 35 36  1  0
 36 37  1  0
 37 38  1  0
 38 39  1  0
  2 40  1  0
  2 41  1  0
  3 42  1  0
  3 43  1  0
  6 44  1  0
  6 45  1  0
  7 46  1  0
  8 47  1  0
  9 48  1  0
 10 49  1  0
 11 50  1  0
 11 51  1  0
 12 52  1  0
 12 53  1  0
 13 54  1  0
 14 55  1  0
 15 56  1  0
 15 57  1  0
 16 58  1  0
 16 59  1  0
 17 60  1  0
 17 61  1  0
 18 62  1  0
 18 63  1  0
 19 64  1  0
 19 65  1  0
 20 66  1  0
 20 67  1  0
 21 68  1  0
 21 69  1  0
 22 70  1  0
 22 71  1  0
 22 72  1  0
 25 73  1  0
 28 74  1  0
 28 75  1  0
 29 76  1  0
 29 77  1  0
 30 78  1  0
 30 79  1  0
 31 80  1  0
 31 81  1  0
 32 82  1  0
 32 83  1  0
 33 84  1  0
 33 85  1  0
 34 86  1  0
 34 87  1  0
 35 88  1  0
 35 89  1  0
 36 90  1  0
 36 91  1  0
 37 92  1  0
 37 93  1  0
 38 94  1  0
 38 95  1  0
 39 96  1  0
 39 97  1  0
 39 98  1  0
M  END
> <Uni-Dock RESULT> 
ENERGY=   -5.239  LOWER_BOUND=    2.927  UPPER_BOUND=    3.535
INTER + INTRA:          -5.239
INTER:                  -5.239
INTRA:                   0.000
UNBOUND:                 0.000

$$$$

     RDKit          3D

 98 97  0  0  0  0  0  0  0  0999 V2000
   48.2310    5.8082   21.8357 C   0  0  0  0  0  0  0  0  0  0  0  0
   46.9378    5.0987   21.5989 N   0  0  0  0  0  0  0  0  0  0  0  0
   48.4202    6.9710   20.8191 C   0  0  0  0  0  0  0  0  0  0  0  0
   47.7319    9.2388   19.9633 C   0  0  0  0  0  0  0  0  0  0  0  0
   48.2800   11.3681   18.1985 C   0  0  0  0  0  0  0  0  0  0  0  0
   47.4005    8.1122   20.9172 C   0  0  0  0  0  0  0  0  0  0  0  0
   48.2883   10.4336   20.4417 C   0  0  0  0  0  0  0  0  0  0  0  0
   47.4804    9.1113   18.5917 C   0  0  0  0  0  0  0  0  0  0  0  0
   48.5490   11.4929   19.5694 C   0  0  0  0  0  0  0  0  0  0  0  0
   47.7427   10.1664   17.7152 C   0  0  0  0  0  0  0  0  0  0  0  0
   48.2776    6.3287   23.2963 C   0  0  0  0  0  0  0  0  0  0  0  0
   49.3765    4.7673   21.6289 C   0  0  0  0  0  0  0  0  0  0  0  0
   49.3958    4.2850   20.2743 O   0  0  0  0  0  0  0  0  0  0  0  0
   48.2670    5.2498   24.2246 O   0  0  0  0  0  0  0  0  0  0  0  0
   48.5050   12.5368   17.2659 C   0  0  0  0  0  0  0  0  0  0  0  0
   47.2549   13.4200   17.1863 C   0  0  0  0  0  0  0  0  0  0  0  0
   48.8555   18.1623   13.8087 C   0  0  0  0  0  0  0  0  0  0  0  0
   48.8548   16.8801   14.6527 C   0  0  0  0  0  0  0  0  0  0  0  0
   47.4834   14.7311   16.4365 C   0  0  0  0  0  0  0  0  0  0  0  0
   47.8727   14.5387   14.9742 C   0  0  0  0  0  0  0  0  0  0  0  0
   47.8387   15.8438   14.1684 C   0  0  0  0  0  0  0  0  0  0  0  0
   49.3548   17.9453   12.3869 C   0  0  0  0  0  0  0  0  0  0  0  0
   48.2043   17.4757   14.1337 S   0  0  0  0  0  0  0  0  0  0  0  0
   49.1445   16.1536   14.2820 O   0  0  0  0  0  0  0  0  0  0  0  0
   48.5125   18.2668   15.5086 O   0  0  0  0  0  0  0  0  0  0  0  0
   46.8118   17.0883   14.1444 O   0  0  0  0  0  0  0  0  0  0  0  0
   48.7585   18.2994   13.0850 O   0  0  0  0  0  0  0  0  0  0  0  0
   48.5844   15.0200   14.9217 C   0  0  0  0  0  0  0  0  0  0  0  0
   49.6929   13.9920   15.1130 C   0  0  0  0  0  0  0  0  0  0  0  0
   49.2005   12.6772   15.7149 C   0  0  0  0  0  0  0  0  0  0  0  0
   48.7903   12.8104   17.1875 C   0  0  0  0  0  0  0  0  0  0  0  0
   48.2572   11.4868   17.7373 C   0  0  0  0  0  0  0  0  0  0  0  0
   47.8532   11.6219   19.2081 C   0  0  0  0  0  0  0  0  0  0  0  0
   47.2223   10.3487   19.7811 C   0  0  0  0  0  0  0  0  0  0  0  0
   48.1968    9.1717   19.8582 C   0  0  0  0  0  0  0  0  0  0  0  0
   47.5811    8.0045   20.6349 C   0  0  0  0  0  0  0  0  0  0  0  0
   48.5490    6.8224   20.7163 C   0  0  0  0  0  0  0  0  0  0  0  0
   47.9785    5.6205   21.4669 C   0  0  0  0  0  0  0  0  0  0  0  0
   47.6544    5.9113   22.9339 C   0  0  0  0  0  0  0  0  0  0  0  0
   47.0954    4.5149   20.7645 H   0  0  0  0  0  0  0  0  0  0  0  0
   46.2124    5.7581   21.3285 H   0  0  0  0  0  0  0  0  0  0  0  0
   48.4065    6.5721   19.7963 H   0  0  0  0  0  0  0  0  0  0  0  0
   49.4269    7.3918   20.9569 H   0  0  0  0  0  0  0  0  0  0  0  0
   47.3640    8.5152   21.9378 H   0  0  0  0  0  0  0  0  0  0  0  0
   46.3891    7.7574   20.6910 H   0  0  0  0  0  0  0  0  0  0  0  0
   48.5001   10.5571   21.5026 H   0  0  0  0  0  0  0  0  0  0  0  0
   47.0705    8.1876   18.1962 H   0  0  0  0  0  0  0  0  0  0  0  0
   48.9509   12.4228   19.9690 H   0  0  0  0  0  0  0  0  0  0  0  0
   47.5216   10.0456   16.6554 H   0  0  0  0  0  0  0  0  0  0  0  0
   47.4192    6.9695   23.5297 H   0  0  0  0  0  0  0  0  0  0  0  0
   49.1981    6.9047   23.4728 H   0  0  0  0  0  0  0  0  0  0  0  0
   50.3539    5.2263   21.8366 H   0  0  0  0  0  0  0  0  0  0  0  0
   49.2532    3.8952   22.2805 H   0  0  0  0  0  0  0  0  0  0  0  0
   50.1491    3.6673   20.2243 H   0  0  0  0  0  0  0  0  0  0  0  0
   47.3294    4.9393   24.2640 H   0  0  0  0  0  0  0  0  0  0  0  0
   49.3643   13.1306   17.6113 H   0  0  0  0  0  0  0  0  0  0  0  0
   48.7787   12.1608   16.2673 H   0  0  0  0  0  0  0  0  0  0  0  0
   46.4323   12.8591   16.7237 H   0  0  0  0  0  0  0  0  0  0  0  0
   46.9113   13.6736   18.1969 H   0  0  0  0  0  0  0  0  0  0  0  0
   47.8527   18.6129   13.7910 H   0  0  0  0  0  0  0  0  0  0  0  0
   49.5194   18.8843   14.2929 H   0  0  0  0  0  0  0  0  0  0  0  0
   49.8639   16.4403   14.6719 H   0  0  0  0  0  0  0  0  0  0  0  0
   48.6146   17.1663   15.6849 H   0  0  0  0  0  0  0  0  0  0  0  0
   48.2487   15.3075   16.9638 H   0  0  0  0  0  0  0  0  0  0  0  0
   46.5636   15.3178   16.4846 H   0  0  0  0  0  0  0  0  0  0  0  0
   48.8697   14.0906   14.8991 H   0  0  0  0  0  0  0  0  0  0  0  0
   47.1772   13.8340   14.5058 H   0  0  0  0  0  0  0  0  0  0  0  0
   48.0413   15.5900   13.1210 H   0  0  0  0  0  0  0  0  0  0  0  0
   46.8255   16.2704   14.2060 H   0  0  0  0  0  0  0  0  0  0  0  0
   50.3119   17.4055   12.3808 H   0  0  0  0  0  0  0  0  0  0  0  0
   48.6274   17.3765   11.7990 H   0  0  0  0  0  0  0  0  0  0  0  0
   49.5136   18.9091   11.8895 H   0  0  0  0  0  0  0  0  0  0  0  0
   49.3059   18.8224   15.3485 H   0  0  0  0  0  0  0  0  0  0  0  0
   47.7852   14.6102   14.3019 H   0  0  0  0  0  0  0  0  0  0  0  0
   48.1684   15.3210   15.8879 H   0  0  0  0  0  0  0  0  0  0  0  0
   50.1641   13.7815   14.1394 H   0  0  0  0  0  0  0  0  0  0  0  0
   50.4855   14.4193   15.7468 H   0  0  0  0  0  0  0  0  0  0  0  0
   48.3582   12.2959   15.1248 H   0  0  0  0  0  0  0  0  0  0  0  0
   50.0023   11.9364   15.6327 H   0  0  0  0  0  0  0  0  0  0  0  0
   48.0242   13.5877   17.3099 H   0  0  0  0  0  0  0  0  0  0  0  0
   49.6658   13.1135   17.7742 H   0  0  0  0  0  0  0  0  0  0  0  0
   49.0364   10.7208   17.6273 H   0  0  0  0  0  0  0  0  0  0  0  0
   47.3956   11.1619   17.1415 H   0  0  0  0  0  0  0  0  0  0  0  0
   47.1223   12.4348   19.3138 H   0  0  0  0  0  0  0  0  0  0  0  0
   48.7273   11.9021   19.8080 H   0  0  0  0  0  0  0  0  0  0  0  0
   46.8657   10.5804   20.7889 H   0  0  0  0  0  0  0  0  0  0  0  0
   46.3432   10.0692   19.1885 H   0  0  0  0  0  0  0  0  0  0  0  0
   48.4614    8.8378   18.8503 H   0  0  0  0  0  0  0  0  0  0  0  0
   49.1208    9.4932   20.3460 H   0  0  0  0  0  0  0  0  0  0  0  0
   46.6520    7.6805   20.1416 H   0  0  0  0  0  0  0  0  0  0  0  0
   47.3238    8.3473   21.6429 H   0  0  0  0  0  0  0  0  0  0  0  0
   48.8106    6.5005   19.6997 H   0  0  0  0  0  0  0  0  0  0  0  0
   49.4861    7.1335   21.2022 H   0  0  0  0  0  0  0  0  0  0  0  0
   48.7085    4.8010   21.4229 H   0  0  0  0  0  0  0  0  0  0  0  0
   47.0669    5.2703   20.9686 H   0  0  0  0  0  0  0  0  0  0  0  0
   47.3852    4.9813   23.4427 H   0  0  0  0  0  0  0  0  0  0  0  0
   48.5078    6.3521   23.4468 H   0  0  0  0  0  0  0  0  0  0  0  0
   46.7916    6.5789   23.0358 H   0  0  0  0  0  0  0  0  0  0  0  0
  1  2  1  0
  1  3  1  0
  3  6  1  0
  4  6  1  0
  4  7  2  0
  4  8  1  0
  5  9  2  0
  7  9  1  0
  5 10  1  0
  8 10  2  0
  1 11  1  0
  1 12  1  0
 12 13  1  0
 11 14  1  0
  5 15  1  0
 15 16  1  0
 17 18  1  0
 16 19  1  0
 19 20  1  0
 18 21  1  0
 20 21  1  0
 17 22  1  0
 23 24  1  0
 23 25  1  0
 23 26  2  0
 23 27  2  0
 24 28  1  0
 28 29  1  0
 29 30  1  0
 30 31  1  0
 31 32  1  0
 32 33  1  0
 33 34  1  0
 34 35  1  0
 35 36  1  0
 36 37  1  0
 37 38  1  0
 38 39  1  0
  2 40  1  0
  2 41  1  0
  3 42  1  0
  3 43  1  0
  6 44  1  0
  6 45  1  0
  7 46  1  0
  8 47  1  0
  9 48  1  0
 10 49  1  0
 11 50  1  0
 11 51  1  0
 12 52  1  0
 12 53  1  0
 13 54  1  0
 14 55  1  0
 15 56  1  0
 15 57  1  0
 16 58  1  0
 16 59  1  0
 17 60  1  0
 17 61  1  0
 18 62  1  0
 18 63  1  0
 19 64  1  0
 19 65  1  0
 20 66  1  0
 20 67  1  0
 21 68  1  0
 21 69  1  0
 22 70  1  0
 22 71  1  0
 22 72  1  0
 25 73  1  0
 28 74  1  0
 28 75  1  0
 29 76  1  0
 29 77  1  0
 30 78  1  0
 30 79  1  0
 31 80  1  0
 31 81  1  0
 32 82  1  0
 32 83  1  0
 33 84  1  0
 33 85  1  0
 34 86  1  0
 34 87  1  0
 35 88  1  0
 35 89  1  0
 36 90  1  0
 36 91  1  0
 37 92  1  0
 37 93  1  0
 38 94  1  0
 38 95  1  0
 39 96  1  0
 39 97  1  0
 39 98  1  0
M  END
> <Uni-Dock RESULT> 
ENERGY=   -5.132  LOWER_BOUND=    7.128  UPPER_BOUND=    8.057
INTER + INTRA:          -5.132
INTER:                  -5.132
INTRA:                   0.000
UNBOUND:                 0.000

$$$$
