
     RDKit          3D

 98 97  0  0  0  0  0  0  0  0999 V2000
   49.8632   11.1219   19.8265 C   0  0  0  0  0  0  0  0  0  0  0  0
   48.5668   11.6658   20.3232 N   0  0  0  0  0  0  0  0  0  0  0  0
   49.6886   10.4048   18.4624 C   0  0  0  0  0  0  0  0  0  0  0  0
   48.6332    8.5674   17.0949 C   0  0  0  0  0  0  0  0  0  0  0  0
   48.6367    7.2438   14.6014 C   0  0  0  0  0  0  0  0  0  0  0  0
   48.6441    9.2794   18.4274 C   0  0  0  0  0  0  0  0  0  0  0  0
   49.1568    7.2744   16.9751 C   0  0  0  0  0  0  0  0  0  0  0  0
   48.1129    9.1930   15.9555 C   0  0  0  0  0  0  0  0  0  0  0  0
   49.1572    6.6199   15.7406 C   0  0  0  0  0  0  0  0  0  0  0  0
   48.1170    8.5380   14.7210 C   0  0  0  0  0  0  0  0  0  0  0  0
   50.4481   10.1708   20.9011 C   0  0  0  0  0  0  0  0  0  0  0  0
   50.8386   12.3206   19.6424 C   0  0  0  0  0  0  0  0  0  0  0  0
   50.2331   13.3504   18.8573 O   0  0  0  0  0  0  0  0  0  0  0  0
   50.4473   10.8111   22.1787 O   0  0  0  0  0  0  0  0  0  0  0  0
   48.6383    6.5332   13.2695 C   0  0  0  0  0  0  0  0  0  0  0  0
   47.6327    5.3796   13.1830 C   0  0  0  0  0  0  0  0  0  0  0  0
   45.3641    4.6592    8.9002 C   0  0  0  0  0  0  0  0  0  0  0  0
   45.1516    5.0296   10.3687 C   0  0  0  0  0  0  0  0  0  0  0  0
   46.1572    5.7920   13.2596 C   0  0  0  0  0  0  0  0  0  0  0  0
   45.6793    6.7632   12.1747 C   0  0  0  0  0  0  0  0  0  0  0  0
   45.9060    6.3110   10.7295 C   0  0  0  0  0  0  0  0  0  0  0  0
   44.5812    3.4122    8.5197 C   0  0  0  0  0  0  0  0  0  0  0  0
   49.9259   11.9190   19.8913 S   0  0  0  0  0  0  0  0  0  0  0  0
   48.9559   11.2423   18.7808 O   0  0  0  0  0  0  0  0  0  0  0  0
   51.3222   11.1474   19.6643 O   0  0  0  0  0  0  0  0  0  0  0  0
   50.1874   13.2828   19.4890 O   0  0  0  0  0  0  0  0  0  0  0  0
   49.4423   11.5836   21.2099 O   0  0  0  0  0  0  0  0  0  0  0  0
   48.6638    9.8605   18.9081 C   0  0  0  0  0  0  0  0  0  0  0  0
   47.7084    9.4321   17.7983 C   0  0  0  0  0  0  0  0  0  0  0  0
   48.1882    9.7571   16.3795 C   0  0  0  0  0  0  0  0  0  0  0  0
   49.5463    9.1677   15.9881 C   0  0  0  0  0  0  0  0  0  0  0  0
   49.6675    7.6452   16.1018 C   0  0  0  0  0  0  0  0  0  0  0  0
   48.6222    6.8380   15.3239 C   0  0  0  0  0  0  0  0  0  0  0  0
   48.6287    7.1221   13.8194 C   0  0  0  0  0  0  0  0  0  0  0  0
   47.7276    6.1744   13.0178 C   0  0  0  0  0  0  0  0  0  0  0  0
   46.2386    6.3458   13.3310 C   0  0  0  0  0  0  0  0  0  0  0  0
   45.3347    5.4046   12.5283 C   0  0  0  0  0  0  0  0  0  0  0  0
   45.3066    5.7170   11.0315 C   0  0  0  0  0  0  0  0  0  0  0  0
   44.3080    4.8318   10.3013 C   0  0  0  0  0  0  0  0  0  0  0  0
   47.9432   10.8922   20.5602 H   0  0  0  0  0  0  0  0  0  0  0  0
   48.1052   12.1447   19.5475 H   0  0  0  0  0  0  0  0  0  0  0  0
   49.4273   11.1457   17.6928 H   0  0  0  0  0  0  0  0  0  0  0  0
   50.6627    9.9929   18.1592 H   0  0  0  0  0  0  0  0  0  0  0  0
   47.6398    9.6806   18.6120 H   0  0  0  0  0  0  0  0  0  0  0  0
   48.8327    8.5492   19.2216 H   0  0  0  0  0  0  0  0  0  0  0  0
   49.5726    6.7649   17.8403 H   0  0  0  0  0  0  0  0  0  0  0  0
   47.7032   10.1981   16.0188 H   0  0  0  0  0  0  0  0  0  0  0  0
   49.5708    5.6164   15.6738 H   0  0  0  0  0  0  0  0  0  0  0  0
   47.7116    9.0519   13.8514 H   0  0  0  0  0  0  0  0  0  0  0  0
   49.8557    9.2584   21.0072 H   0  0  0  0  0  0  0  0  0  0  0  0
   51.4779    9.8848   20.6633 H   0  0  0  0  0  0  0  0  0  0  0  0
   51.7535   12.0039   19.1311 H   0  0  0  0  0  0  0  0  0  0  0  0
   51.1283   12.7669   20.6005 H   0  0  0  0  0  0  0  0  0  0  0  0
   49.5414   13.7233   19.4328 H   0  0  0  0  0  0  0  0  0  0  0  0
   49.6590   11.3936   22.1716 H   0  0  0  0  0  0  0  0  0  0  0  0
   49.6468    6.1336   13.0994 H   0  0  0  0  0  0  0  0  0  0  0  0
   48.4716    7.2500   12.4562 H   0  0  0  0  0  0  0  0  0  0  0  0
   47.8281    4.6587   13.9871 H   0  0  0  0  0  0  0  0  0  0  0  0
   47.8074    4.8362   12.2470 H   0  0  0  0  0  0  0  0  0  0  0  0
   46.4291    4.4852    8.7124 H   0  0  0  0  0  0  0  0  0  0  0  0
   45.0543    5.4883    8.2555 H   0  0  0  0  0  0  0  0  0  0  0  0
   44.0813    5.1699   10.5599 H   0  0  0  0  0  0  0  0  0  0  0  0
   45.4888    4.1983   10.9989 H   0  0  0  0  0  0  0  0  0  0  0  0
   45.9574    6.2423   14.2400 H   0  0  0  0  0  0  0  0  0  0  0  0
   45.5451    4.8830   13.2242 H   0  0  0  0  0  0  0  0  0  0  0  0
   44.6077    6.9454   12.3253 H   0  0  0  0  0  0  0  0  0  0  0  0
   46.1681    7.7339   12.3136 H   0  0  0  0  0  0  0  0  0  0  0  0
   45.5698    7.1176   10.0658 H   0  0  0  0  0  0  0  0  0  0  0  0
   46.9771    6.1824   10.5378 H   0  0  0  0  0  0  0  0  0  0  0  0
   43.5066    3.5715    8.6494 H   0  0  0  0  0  0  0  0  0  0  0  0
   44.7623    3.1572    7.4707 H   0  0  0  0  0  0  0  0  0  0  0  0
   44.8784    2.5571    9.1339 H   0  0  0  0  0  0  0  0  0  0  0  0
   51.9112   11.7720   19.1893 H   0  0  0  0  0  0  0  0  0  0  0  0
   48.1920    9.6701   19.8783 H   0  0  0  0  0  0  0  0  0  0  0  0
   49.5904    9.2790   18.8617 H   0  0  0  0  0  0  0  0  0  0  0  0
   47.5002    8.3611   17.8944 H   0  0  0  0  0  0  0  0  0  0  0  0
   46.7531    9.9498   17.9453 H   0  0  0  0  0  0  0  0  0  0  0  0
   47.4237    9.4196   15.6700 H   0  0  0  0  0  0  0  0  0  0  0  0
   48.2421   10.8465   16.2600 H   0  0  0  0  0  0  0  0  0  0  0  0
   50.3304    9.6239   16.6041 H   0  0  0  0  0  0  0  0  0  0  0  0
   49.7717    9.4715   14.9586 H   0  0  0  0  0  0  0  0  0  0  0  0
   49.6176    7.3543   17.1576 H   0  0  0  0  0  0  0  0  0  0  0  0
   50.6670    7.3535   15.7555 H   0  0  0  0  0  0  0  0  0  0  0  0
   47.6285    7.0285   15.7427 H   0  0  0  0  0  0  0  0  0  0  0  0
   48.8268    5.7722   15.4873 H   0  0  0  0  0  0  0  0  0  0  0  0
   49.6529    7.0222   13.4392 H   0  0  0  0  0  0  0  0  0  0  0  0
   48.3204    8.1561   13.6260 H   0  0  0  0  0  0  0  0  0  0  0  0
   48.0287    5.1361   13.2056 H   0  0  0  0  0  0  0  0  0  0  0  0
   47.9057    6.3685   11.9538 H   0  0  0  0  0  0  0  0  0  0  0  0
   45.9370    7.3846   13.1554 H   0  0  0  0  0  0  0  0  0  0  0  0
   46.0654    6.1406   14.3928 H   0  0  0  0  0  0  0  0  0  0  0  0
   45.6505    4.3663   12.6852 H   0  0  0  0  0  0  0  0  0  0  0  0
   44.3158    5.4884   12.9274 H   0  0  0  0  0  0  0  0  0  0  0  0
   45.0390    6.7684   10.8741 H   0  0  0  0  0  0  0  0  0  0  0  0
   46.2961    5.5634   10.5882 H   0  0  0  0  0  0  0  0  0  0  0  0
   44.3025    5.0686    9.2324 H   0  0  0  0  0  0  0  0  0  0  0  0
   44.5686    3.7738   10.4136 H   0  0  0  0  0  0  0  0  0  0  0  0
   43.2952    4.9795   10.6892 H   0  0  0  0  0  0  0  0  0  0  0  0
  1  2  1  0
  1  3  1  0
  3  6  1  0
  4  6  1  0
  4  7  2  0
  4  8  1  0
  5  9  2  0
  7  9  1  0
  5 10  1  0
  8 10  2  0
  1 11  1  0
  1 12  1  0
 12 13  1  0
 11 14  1  0
  5 15  1  0
 15 16  1  0
 17 18  1  0
 16 19  1  0
 19 20  1  0
 18 21  1  0
 20 21  1  0
 17 22  1  0
 23 24  1  0
 23 25  1  0
 23 26  2  0
 23 27  2  0
 24 28  1  0
 28 29  1  0
 29 30  1  0
 30 31  1  0
 31 32  1  0
 32 33  1  0
 33 34  1  0
 34 35  1  0
 35 36  1  0
 36 37  1  0
 37 38  1  0
 38 39  1  0
  2 40  1  0
  2 41  1  0
  3 42  1  0
  3 43  1  0
  6 44  1  0
  6 45  1  0
  7 46  1  0
  8 47  1  0
  9 48  1  0
 10 49  1  0
 11 50  1  0
 11 51  1  0
 12 52  1  0
 12 53  1  0
 13 54  1  0
 14 55  1  0
 15 56  1  0
 15 57  1  0
 16 58  1  0
 16 59  1  0
 17 60  1  0
 17 61  1  0
 18 62  1  0
 18 63  1  0
 19 64  1  0
 19 65  1  0
 20 66  1  0
 20 67  1  0
 21 68  1  0
 21 69  1  0
 22 70  1  0
 22 71  1  0
 22 72  1  0
 25 73  1  0
 28 74  1  0
 28 75  1  0
 29 76  1  0
 29 77  1  0
 30 78  1  0
 30 79  1  0
 31 80  1  0
 31 81  1  0
 32 82  1  0
 32 83  1  0
 33 84  1  0
 33 85  1  0
 34 86  1  0
 34 87  1  0
 35 88  1  0
 35 89  1  0
 36 90  1  0
 36 91  1  0
 37 92  1  0
 37 93  1  0
 38 94  1  0
 38 95  1  0
 39 96  1  0
 39 97  1  0
 39 98  1  0
M  END
> <Uni-Dock RESULT> 
ENERGY=   -5.993  LOWER_BOUND=    0.000  UPPER_BOUND=    0.000
INTER + INTRA:          -5.993
INTER:                  -5.993
INTRA:                   0.000
UNBOUND:                 0.000

$$$$

     RDKit          3D

 98 97  0  0  0  0  0  0  0  0999 V2000
   44.2444    5.5670   11.5975 C   0  0  0  0  0  0  0  0  0  0  0  0
   43.2724    6.6542   11.2874 N   0  0  0  0  0  0  0  0  0  0  0  0
   45.4724    6.1122   12.3724 C   0  0  0  0  0  0  0  0  0  0  0  0
   47.4737    7.6435   12.4689 C   0  0  0  0  0  0  0  0  0  0  0  0
   49.7966    8.3288   13.9195 C   0  0  0  0  0  0  0  0  0  0  0  0
   46.2311    7.2646   11.6977 C   0  0  0  0  0  0  0  0  0  0  0  0
   48.7431    7.3129   11.9793 C   0  0  0  0  0  0  0  0  0  0  0  0
   47.3769    8.3186   13.6917 C   0  0  0  0  0  0  0  0  0  0  0  0
   49.8923    7.6533   12.6977 C   0  0  0  0  0  0  0  0  0  0  0  0
   48.5271    8.6555   14.4103 C   0  0  0  0  0  0  0  0  0  0  0  0
   44.6635    4.8813   10.2725 C   0  0  0  0  0  0  0  0  0  0  0  0
   43.5136    4.5199   12.4874 C   0  0  0  0  0  0  0  0  0  0  0  0
   42.8846    5.1544   13.6034 O   0  0  0  0  0  0  0  0  0  0  0  0
   43.5057    4.5337    9.5101 O   0  0  0  0  0  0  0  0  0  0  0  0
   51.0404    8.6954   14.6925 C   0  0  0  0  0  0  0  0  0  0  0  0
   51.8559    9.8243   14.0522 C   0  0  0  0  0  0  0  0  0  0  0  0
   54.0465   13.0250   17.0463 C   0  0  0  0  0  0  0  0  0  0  0  0
   52.9835   12.8735   15.9573 C   0  0  0  0  0  0  0  0  0  0  0  0
   51.1597   11.1905   14.0103 C   0  0  0  0  0  0  0  0  0  0  0  0
   50.7508   11.7723   15.3678 C   0  0  0  0  0  0  0  0  0  0  0  0
   51.8753   11.9146   16.3973 C   0  0  0  0  0  0  0  0  0  0  0  0
   55.1288   14.0119   16.6371 C   0  0  0  0  0  0  0  0  0  0  0  0
   43.5466    5.3989   11.9558 S   0  0  0  0  0  0  0  0  0  0  0  0
   44.4529    6.6565   12.4347 O   0  0  0  0  0  0  0  0  0  0  0  0
   44.6047    4.1838   11.9331 O   0  0  0  0  0  0  0  0  0  0  0  0
   42.6304    5.0715   13.0252 O   0  0  0  0  0  0  0  0  0  0  0  0
   43.1008    5.6251   10.6011 O   0  0  0  0  0  0  0  0  0  0  0  0
   45.5095    7.0745   11.5864 C   0  0  0  0  0  0  0  0  0  0  0  0
   46.2067    8.2886   12.1928 C   0  0  0  0  0  0  0  0  0  0  0  0
   46.7085    8.0888   13.6271 C   0  0  0  0  0  0  0  0  0  0  0  0
   47.6818    6.9245   13.8322 C   0  0  0  0  0  0  0  0  0  0  0  0
   48.9513    6.9611   12.9762 C   0  0  0  0  0  0  0  0  0  0  0  0
   49.7939    8.2357   13.0960 C   0  0  0  0  0  0  0  0  0  0  0  0
   50.2730    8.5180   14.5226 C   0  0  0  0  0  0  0  0  0  0  0  0
   51.2769    9.6745   14.6092 C   0  0  0  0  0  0  0  0  0  0  0  0
   50.6702   11.0315   14.2415 C   0  0  0  0  0  0  0  0  0  0  0  0
   51.6685   12.1901   14.3321 C   0  0  0  0  0  0  0  0  0  0  0  0
   52.1124   12.5009   15.7621 C   0  0  0  0  0  0  0  0  0  0  0  0
   53.0085   13.7292   15.8075 C   0  0  0  0  0  0  0  0  0  0  0  0
   43.6887    7.2989   10.6133 H   0  0  0  0  0  0  0  0  0  0  0  0
   43.1388    7.2118   12.1333 H   0  0  0  0  0  0  0  0  0  0  0  0
   45.1542    6.4434   13.3717 H   0  0  0  0  0  0  0  0  0  0  0  0
   46.1721    5.2806   12.5442 H   0  0  0  0  0  0  0  0  0  0  0  0
   45.5910    8.1519   11.6177 H   0  0  0  0  0  0  0  0  0  0  0  0
   46.5132    6.9973   10.6737 H   0  0  0  0  0  0  0  0  0  0  0  0
   48.8505    6.7843   11.0358 H   0  0  0  0  0  0  0  0  0  0  0  0
   46.4038    8.5846   14.0973 H   0  0  0  0  0  0  0  0  0  0  0  0
   50.8664    7.3841   12.2964 H   0  0  0  0  0  0  0  0  0  0  0  0
   48.4203    9.1744   15.3611 H   0  0  0  0  0  0  0  0  0  0  0  0
   45.2673    5.5401    9.6431 H   0  0  0  0  0  0  0  0  0  0  0  0
   45.2360    3.9671   10.4597 H   0  0  0  0  0  0  0  0  0  0  0  0
   44.2193    3.7792   12.8773 H   0  0  0  0  0  0  0  0  0  0  0  0
   42.7349    3.9817   11.9351 H   0  0  0  0  0  0  0  0  0  0  0  0
   42.1468    5.6584   13.2155 H   0  0  0  0  0  0  0  0  0  0  0  0
   42.8478    5.2315    9.7129 H   0  0  0  0  0  0  0  0  0  0  0  0
   51.6730    7.8006   14.7615 H   0  0  0  0  0  0  0  0  0  0  0  0
   50.7835    8.9470   15.7286 H   0  0  0  0  0  0  0  0  0  0  0  0
   52.1268    9.5473   13.0254 H   0  0  0  0  0  0  0  0  0  0  0  0
   52.8038    9.9188   14.5950 H   0  0  0  0  0  0  0  0  0  0  0  0
   54.5070   12.0527   17.2524 H   0  0  0  0  0  0  0  0  0  0  0  0
   53.5833   13.3663   17.9780 H   0  0  0  0  0  0  0  0  0  0  0  0
   52.5491   13.8541   15.7305 H   0  0  0  0  0  0  0  0  0  0  0  0
   53.4614   12.5092   15.0403 H   0  0  0  0  0  0  0  0  0  0  0  0
   50.2648   11.1218   13.3792 H   0  0  0  0  0  0  0  0  0  0  0  0
   51.8242   11.8983   13.5007 H   0  0  0  0  0  0  0  0  0  0  0  0
   50.2998   12.7579   15.1969 H   0  0  0  0  0  0  0  0  0  0  0  0
   49.9583   11.1547   15.8052 H   0  0  0  0  0  0  0  0  0  0  0  0
   51.4348   12.2881   17.3302 H   0  0  0  0  0  0  0  0  0  0  0  0
   52.3002   10.9319   16.6304 H   0  0  0  0  0  0  0  0  0  0  0  0
   54.7068   15.0076   16.4718 H   0  0  0  0  0  0  0  0  0  0  0  0
   55.8862   14.0905   17.4235 H   0  0  0  0  0  0  0  0  0  0  0  0
   55.6263   13.6925   15.7166 H   0  0  0  0  0  0  0  0  0  0  0  0
   44.4221    3.6410   12.7297 H   0  0  0  0  0  0  0  0  0  0  0  0
   45.1092    7.3468   10.6037 H   0  0  0  0  0  0  0  0  0  0  0  0
   46.2210    6.2539   11.4472 H   0  0  0  0  0  0  0  0  0  0  0  0
   47.0308    8.5955   11.5399 H   0  0  0  0  0  0  0  0  0  0  0  0
   45.4955    9.1230   12.2102 H   0  0  0  0  0  0  0  0  0  0  0  0
   47.1764    9.0215   13.9630 H   0  0  0  0  0  0  0  0  0  0  0  0
   45.8477    7.9344   14.2899 H   0  0  0  0  0  0  0  0  0  0  0  0
   47.1615    5.9788   13.6388 H   0  0  0  0  0  0  0  0  0  0  0  0
   47.9624    6.8905   14.8920 H   0  0  0  0  0  0  0  0  0  0  0  0
   48.6838    6.8177   11.9228 H   0  0  0  0  0  0  0  0  0  0  0  0
   49.5744    6.1001   13.2490 H   0  0  0  0  0  0  0  0  0  0  0  0
   49.2237    9.0875   12.7107 H   0  0  0  0  0  0  0  0  0  0  0  0
   50.6675    8.1273   12.4405 H   0  0  0  0  0  0  0  0  0  0  0  0
   50.7538    7.6178   14.9249 H   0  0  0  0  0  0  0  0  0  0  0  0
   49.4192    8.7372   15.1743 H   0  0  0  0  0  0  0  0  0  0  0  0
   52.1354    9.4640   13.9592 H   0  0  0  0  0  0  0  0  0  0  0  0
   51.6577    9.7066   15.6366 H   0  0  0  0  0  0  0  0  0  0  0  0
   49.8052   11.2397   14.8814 H   0  0  0  0  0  0  0  0  0  0  0  0
   50.3009   10.9963   13.2110 H   0  0  0  0  0  0  0  0  0  0  0  0
   52.5449   11.9719   13.7102 H   0  0  0  0  0  0  0  0  0  0  0  0
   51.1934   13.0830   13.9061 H   0  0  0  0  0  0  0  0  0  0  0  0
   51.2351   12.6709   16.3972 H   0  0  0  0  0  0  0  0  0  0  0  0
   52.6620   11.6542   16.1865 H   0  0  0  0  0  0  0  0  0  0  0  0
   53.3169   13.9355   16.8375 H   0  0  0  0  0  0  0  0  0  0  0  0
   53.9116   13.5765   15.2065 H   0  0  0  0  0  0  0  0  0  0  0  0
   52.4856   14.6112   15.4242 H   0  0  0  0  0  0  0  0  0  0  0  0
  1  2  1  0
  1  3  1  0
  3  6  1  0
  4  6  1  0
  4  7  2  0
  4  8  1  0
  5  9  2  0
  7  9  1  0
  5 10  1  0
  8 10  2  0
  1 11  1  0
  1 12  1  0
 12 13  1  0
 11 14  1  0
  5 15  1  0
 15 16  1  0
 17 18  1  0
 16 19  1  0
 19 20  1  0
 18 21  1  0
 20 21  1  0
 17 22  1  0
 23 24  1  0
 23 25  1  0
 23 26  2  0
 23 27  2  0
 24 28  1  0
 28 29  1  0
 29 30  1  0
 30 31  1  0
 31 32  1  0
 32 33  1  0
 33 34  1  0
 34 35  1  0
 35 36  1  0
 36 37  1  0
 37 38  1  0
 38 39  1  0
  2 40  1  0
  2 41  1  0
  3 42  1  0
  3 43  1  0
  6 44  1  0
  6 45  1  0
  7 46  1  0
  8 47  1  0
  9 48  1  0
 10 49  1  0
 11 50  1  0
 11 51  1  0
 12 52  1  0
 12 53  1  0
 13 54  1  0
 14 55  1  0
 15 56  1  0
 15 57  1  0
 16 58  1  0
 16 59  1  0
 17 60  1  0
 17 61  1  0
 18 62  1  0
 18 63  1  0
 19 64  1  0
 19 65  1  0
 20 66  1  0
 20 67  1  0
 21 68  1  0
 21 69  1  0
 22 70  1  0
 22 71  1  0
 22 72  1  0
 25 73  1  0
 28 74  1  0
 28 75  1  0
 29 76  1  0
 29 77  1  0
 30 78  1  0
 30 79  1  0
 31 80  1  0
 31 81  1  0
 32 82  1  0
 32 83  1  0
 33 84  1  0
 33 85  1  0
 34 86  1  0
 34 87  1  0
 35 88  1  0
 35 89  1  0
 36 90  1  0
 36 91  1  0
 37 92  1  0
 37 93  1  0
 38 94  1  0
 38 95  1  0
 39 96  1  0
 39 97  1  0
 39 98  1  0
M  END
> <Uni-Dock RESULT> 
ENERGY=   -5.933  LOWER_BOUND=    5.536  UPPER_BOUND=    9.435
INTER + INTRA:          -5.933
INTER:                  -5.933
INTRA:                   0.000
UNBOUND:                 0.000

$$$$

     RDKit          3D

 98 97  0  0  0  0  0  0  0  0999 V2000
   43.9072    4.9283   11.8688 C   0  0  0  0  0  0  0  0  0  0  0  0
   43.8083    4.9642   10.3814 N   0  0  0  0  0  0  0  0  0  0  0  0
   44.9118    5.9873   12.3931 C   0  0  0  0  0  0  0  0  0  0  0  0
   47.2607    6.9019   12.4677 C   0  0  0  0  0  0  0  0  0  0  0  0
   48.9849    8.7552   13.7176 C   0  0  0  0  0  0  0  0  0  0  0  0
   46.3304    5.9100   11.8097 C   0  0  0  0  0  0  0  0  0  0  0  0
   48.2475    6.4672   13.3609 C   0  0  0  0  0  0  0  0  0  0  0  0
   47.1432    8.2725   12.2069 C   0  0  0  0  0  0  0  0  0  0  0  0
   49.1009    7.3853   13.9783 C   0  0  0  0  0  0  0  0  0  0  0  0
   47.9955    9.1895   12.8277 C   0  0  0  0  0  0  0  0  0  0  0  0
   44.3065    3.4964   12.3064 C   0  0  0  0  0  0  0  0  0  0  0  0
   42.4964    5.2466   12.4436 C   0  0  0  0  0  0  0  0  0  0  0  0
   41.9720    6.4442   11.8652 O   0  0  0  0  0  0  0  0  0  0  0  0
   43.4567    2.5343   11.6781 O   0  0  0  0  0  0  0  0  0  0  0  0
   49.9092    9.7440   14.3861 C   0  0  0  0  0  0  0  0  0  0  0  0
   51.3492    9.6952   13.8634 C   0  0  0  0  0  0  0  0  0  0  0  0
   53.7867   13.9318   13.5200 C   0  0  0  0  0  0  0  0  0  0  0  0
   53.2194   12.7595   12.7183 C   0  0  0  0  0  0  0  0  0  0  0  0
   51.5275   10.1165   12.3992 C   0  0  0  0  0  0  0  0  0  0  0  0
   51.0714   11.5384   12.0544 C   0  0  0  0  0  0  0  0  0  0  0  0
   51.7017   12.6596   12.8852 C   0  0  0  0  0  0  0  0  0  0  0  0
   55.2886   14.0678   13.3240 C   0  0  0  0  0  0  0  0  0  0  0  0
   43.1532    5.1110   11.6648 S   0  0  0  0  0  0  0  0  0  0  0  0
   44.3715    6.1442   11.3816 O   0  0  0  0  0  0  0  0  0  0  0  0
   43.3604    4.7307   13.2169 O   0  0  0  0  0  0  0  0  0  0  0  0
   41.9144    5.8555   11.6287 O   0  0  0  0  0  0  0  0  0  0  0  0
   43.3561    3.9139   10.8832 O   0  0  0  0  0  0  0  0  0  0  0  0
   45.6974    5.6529   11.4897 C   0  0  0  0  0  0  0  0  0  0  0  0
   46.6869    6.7619   11.1452 C   0  0  0  0  0  0  0  0  0  0  0  0
   46.5163    8.0482   11.9608 C   0  0  0  0  0  0  0  0  0  0  0  0
   46.6098    7.8863   13.4807 C   0  0  0  0  0  0  0  0  0  0  0  0
   47.9067    7.2618   14.0039 C   0  0  0  0  0  0  0  0  0  0  0  0
   49.1995    7.9668   13.5788 C   0  0  0  0  0  0  0  0  0  0  0  0
   49.2655    9.4333   14.0141 C   0  0  0  0  0  0  0  0  0  0  0  0
   50.6344   10.0797   13.7674 C   0  0  0  0  0  0  0  0  0  0  0  0
   50.9835   10.2101   12.2822 C   0  0  0  0  0  0  0  0  0  0  0  0
   52.3478   10.8604   12.0316 C   0  0  0  0  0  0  0  0  0  0  0  0
   52.3999   12.3373   12.4249 C   0  0  0  0  0  0  0  0  0  0  0  0
   53.7347   12.9622   12.0485 C   0  0  0  0  0  0  0  0  0  0  0  0
   44.6911    4.6494    9.9754 H   0  0  0  0  0  0  0  0  0  0  0  0
   43.7219    5.9405   10.0923 H   0  0  0  0  0  0  0  0  0  0  0  0
   44.5118    6.9939   12.2024 H   0  0  0  0  0  0  0  0  0  0  0  0
   44.9739    5.8953   13.4877 H   0  0  0  0  0  0  0  0  0  0  0  0
   46.3148    6.1144   10.7320 H   0  0  0  0  0  0  0  0  0  0  0  0
   46.7432    4.9020   11.9241 H   0  0  0  0  0  0  0  0  0  0  0  0
   48.3599    5.4103   13.5877 H   0  0  0  0  0  0  0  0  0  0  0  0
   46.3835    8.6383   11.5204 H   0  0  0  0  0  0  0  0  0  0  0  0
   49.8583    7.0222   14.6689 H   0  0  0  0  0  0  0  0  0  0  0  0
   47.8763   10.2493   12.6103 H   0  0  0  0  0  0  0  0  0  0  0  0
   45.3302    3.2488   12.0142 H   0  0  0  0  0  0  0  0  0  0  0  0
   44.2201    3.3715   13.3907 H   0  0  0  0  0  0  0  0  0  0  0  0
   42.5404    5.3900   13.5281 H   0  0  0  0  0  0  0  0  0  0  0  0
   41.7784    4.4437   12.2413 H   0  0  0  0  0  0  0  0  0  0  0  0
   41.7782    6.2060   10.9408 H   0  0  0  0  0  0  0  0  0  0  0  0
   43.2368    2.9202   10.8043 H   0  0  0  0  0  0  0  0  0  0  0  0
   49.9184    9.5258   15.4622 H   0  0  0  0  0  0  0  0  0  0  0  0
   49.5040   10.7598   14.3017 H   0  0  0  0  0  0  0  0  0  0  0  0
   51.7490    8.6796   13.9777 H   0  0  0  0  0  0  0  0  0  0  0  0
   51.9718   10.3338   14.5010 H   0  0  0  0  0  0  0  0  0  0  0  0
   53.5754   13.7889   14.5852 H   0  0  0  0  0  0  0  0  0  0  0  0
   53.2993   14.8644   13.2169 H   0  0  0  0  0  0  0  0  0  0  0  0
   53.4622   12.8897   11.6572 H   0  0  0  0  0  0  0  0  0  0  0  0
   53.7015   11.8329   13.0513 H   0  0  0  0  0  0  0  0  0  0  0  0
   50.9886    9.4135   11.7518 H   0  0  0  0  0  0  0  0  0  0  0  0
   52.5861   10.0043   12.1368 H   0  0  0  0  0  0  0  0  0  0  0  0
   51.2858   11.7197   10.9937 H   0  0  0  0  0  0  0  0  0  0  0  0
   49.9822   11.6058   12.1532 H   0  0  0  0  0  0  0  0  0  0  0  0
   51.2486   13.6086   12.5719 H   0  0  0  0  0  0  0  0  0  0  0  0
   51.4482   12.5334   13.9437 H   0  0  0  0  0  0  0  0  0  0  0  0
   55.5293   14.2615   12.2745 H   0  0  0  0  0  0  0  0  0  0  0  0
   55.6740   14.9012   13.9200 H   0  0  0  0  0  0  0  0  0  0  0  0
   55.8108   13.1579   13.6340 H   0  0  0  0  0  0  0  0  0  0  0  0
   42.6759    5.2236   13.7179 H   0  0  0  0  0  0  0  0  0  0  0  0
   45.8404    4.8184   10.7945 H   0  0  0  0  0  0  0  0  0  0  0  0
   45.8748    5.2827   12.5048 H   0  0  0  0  0  0  0  0  0  0  0  0
   47.7081    6.3791   11.2462 H   0  0  0  0  0  0  0  0  0  0  0  0
   46.5561    7.0265   10.0893 H   0  0  0  0  0  0  0  0  0  0  0  0
   47.2650    8.7741   11.6226 H   0  0  0  0  0  0  0  0  0  0  0  0
   45.5428    8.4960   11.7249 H   0  0  0  0  0  0  0  0  0  0  0  0
   45.7671    7.2796   13.8330 H   0  0  0  0  0  0  0  0  0  0  0  0
   46.4720    8.8715   13.9429 H   0  0  0  0  0  0  0  0  0  0  0  0
   47.9600    6.2142   13.6853 H   0  0  0  0  0  0  0  0  0  0  0  0
   47.8604    7.2417   15.1000 H   0  0  0  0  0  0  0  0  0  0  0  0
   49.3189    7.8865   12.4933 H   0  0  0  0  0  0  0  0  0  0  0  0
   50.0434    7.4239   14.0231 H   0  0  0  0  0  0  0  0  0  0  0  0
   49.0447    9.5001   15.0866 H   0  0  0  0  0  0  0  0  0  0  0  0
   48.4963   10.0187   13.4970 H   0  0  0  0  0  0  0  0  0  0  0  0
   51.4114    9.4998   14.2812 H   0  0  0  0  0  0  0  0  0  0  0  0
   50.6207   11.0725   14.2319 H   0  0  0  0  0  0  0  0  0  0  0  0
   50.2035   10.7791   11.7637 H   0  0  0  0  0  0  0  0  0  0  0  0
   51.0057    9.2146   11.8262 H   0  0  0  0  0  0  0  0  0  0  0  0
   53.1259   10.3051   12.5690 H   0  0  0  0  0  0  0  0  0  0  0  0
   52.5770   10.7697   10.9621 H   0  0  0  0  0  0  0  0  0  0  0  0
   51.5918   12.8855   11.9267 H   0  0  0  0  0  0  0  0  0  0  0  0
   52.2543   12.4530   13.5041 H   0  0  0  0  0  0  0  0  0  0  0  0
   53.7540   14.0179   12.3382 H   0  0  0  0  0  0  0  0  0  0  0  0
   54.5612   12.4549   12.5578 H   0  0  0  0  0  0  0  0  0  0  0  0
   53.9066   12.9010   10.9692 H   0  0  0  0  0  0  0  0  0  0  0  0
  1  2  1  0
  1  3  1  0
  3  6  1  0
  4  6  1  0
  4  7  2  0
  4  8  1  0
  5  9  2  0
  7  9  1  0
  5 10  1  0
  8 10  2  0
  1 11  1  0
  1 12  1  0
 12 13  1  0
 11 14  1  0
  5 15  1  0
 15 16  1  0
 17 18  1  0
 16 19  1  0
 19 20  1  0
 18 21  1  0
 20 21  1  0
 17 22  1  0
 23 24  1  0
 23 25  1  0
 23 26  2  0
 23 27  2  0
 24 28  1  0
 28 29  1  0
 29 30  1  0
 30 31  1  0
 31 32  1  0
 32 33  1  0
 33 34  1  0
 34 35  1  0
 35 36  1  0
 36 37  1  0
 37 38  1  0
 38 39  1  0
  2 40  1  0
  2 41  1  0
  3 42  1  0
  3 43  1  0
  6 44  1  0
  6 45  1  0
  7 46  1  0
  8 47  1  0
  9 48  1  0
 10 49  1  0
 11 50  1  0
 11 51  1  0
 12 52  1  0
 12 53  1  0
 13 54  1  0
 14 55  1  0
 15 56  1  0
 15 57  1  0
 16 58  1  0
 16 59  1  0
 17 60  1  0
 17 61  1  0
 18 62  1  0
 18 63  1  0
 19 64  1  0
 19 65  1  0
 20 66  1  0
 20 67  1  0
 21 68  1  0
 21 69  1  0
 22 70  1  0
 22 71  1  0
 22 72  1  0
 25 73  1  0
 28 74  1  0
 28 75  1  0
 29 76  1  0
 29 77  1  0
 30 78  1  0
 30 79  1  0
 31 80  1  0
 31 81  1  0
 32 82  1  0
 32 83  1  0
 33 84  1  0
 33 85  1  0
 34 86  1  0
 34 87  1  0
 35 88  1  0
 35 89  1  0
 36 90  1  0
 36 91  1  0
 37 92  1  0
 37 93  1  0
 38 94  1  0
 38 95  1  0
 39 96  1  0
 39 97  1  0
 39 98  1  0
M  END
> <Uni-Dock RESULT> 
ENERGY=   -5.635  LOWER_BOUND=    6.159  UPPER_BOUND=    9.338
INTER + INTRA:          -5.635
INTER:                  -5.635
INTRA:                   0.000
UNBOUND:                 0.000

$$$$

     RDKit          3D

 98 97  0  0  0  0  0  0  0  0999 V2000
   44.1070    5.0173   11.4990 C   0  0  0  0  0  0  0  0  0  0  0  0
   43.9445    3.9398   12.5168 N   0  0  0  0  0  0  0  0  0  0  0  0
   45.4627    5.7519   11.6666 C   0  0  0  0  0  0  0  0  0  0  0  0
   47.0174    7.1435   13.0830 C   0  0  0  0  0  0  0  0  0  0  0  0
   49.4176    8.6292   13.1105 C   0  0  0  0  0  0  0  0  0  0  0  0
   45.7317    6.3504   13.0552 C   0  0  0  0  0  0  0  0  0  0  0  0
   46.9892    8.5421   13.1428 C   0  0  0  0  0  0  0  0  0  0  0  0
   48.2573    6.4949   13.0354 C   0  0  0  0  0  0  0  0  0  0  0  0
   48.1778    9.2764   13.1572 C   0  0  0  0  0  0  0  0  0  0  0  0
   49.4451    7.2312   13.0468 C   0  0  0  0  0  0  0  0  0  0  0  0
   42.9098    5.9946   11.6135 C   0  0  0  0  0  0  0  0  0  0  0  0
   44.0683    4.3492   10.0939 C   0  0  0  0  0  0  0  0  0  0  0  0
   44.9907    3.2592   10.0256 O   0  0  0  0  0  0  0  0  0  0  0  0
   41.6792    5.2679   11.6146 O   0  0  0  0  0  0  0  0  0  0  0  0
   50.6997    9.4261   13.1270 C   0  0  0  0  0  0  0  0  0  0  0  0
   51.0089   10.0718   14.4822 C   0  0  0  0  0  0  0  0  0  0  0  0
   55.7008   10.2905   15.8772 C   0  0  0  0  0  0  0  0  0  0  0  0
   54.3320    9.7005   16.2193 C   0  0  0  0  0  0  0  0  0  0  0  0
   51.2954    9.0887   15.6243 C   0  0  0  0  0  0  0  0  0  0  0  0
   52.4771    8.1380   15.4048 C   0  0  0  0  0  0  0  0  0  0  0  0
   53.8188    8.8052   15.0896 C   0  0  0  0  0  0  0  0  0  0  0  0
   56.2406   11.1451   17.0134 C   0  0  0  0  0  0  0  0  0  0  0  0
   44.0405    4.3131   11.1206 S   0  0  0  0  0  0  0  0  0  0  0  0
   45.3419    4.6583   12.0257 O   0  0  0  0  0  0  0  0  0  0  0  0
   43.9140    5.6067   10.1683 O   0  0  0  0  0  0  0  0  0  0  0  0
   44.3876    3.2297   10.2284 O   0  0  0  0  0  0  0  0  0  0  0  0
   42.8722    4.2695   11.9682 O   0  0  0  0  0  0  0  0  0  0  0  0
   45.2687    5.7770   12.8942 C   0  0  0  0  0  0  0  0  0  0  0  0
   46.5695    5.9030   13.6817 C   0  0  0  0  0  0  0  0  0  0  0  0
   47.8357    5.9660   12.8206 C   0  0  0  0  0  0  0  0  0  0  0  0
   47.8805    7.0977   11.7901 C   0  0  0  0  0  0  0  0  0  0  0  0
   47.7193    8.5138   12.3508 C   0  0  0  0  0  0  0  0  0  0  0  0
   48.7140    8.9085   13.4480 C   0  0  0  0  0  0  0  0  0  0  0  0
   50.1768    8.8257   13.0031 C   0  0  0  0  0  0  0  0  0  0  0  0
   51.1579    9.4092   14.0276 C   0  0  0  0  0  0  0  0  0  0  0  0
   51.2145    8.6118   15.3337 C   0  0  0  0  0  0  0  0  0  0  0  0
   52.1974    9.1884   16.3576 C   0  0  0  0  0  0  0  0  0  0  0  0
   53.6613    9.0649   15.9329 C   0  0  0  0  0  0  0  0  0  0  0  0
   54.5975    9.5439   17.0319 C   0  0  0  0  0  0  0  0  0  0  0  0
   43.8535    4.3598   13.4434 H   0  0  0  0  0  0  0  0  0  0  0  0
   44.8153    3.4066   12.5566 H   0  0  0  0  0  0  0  0  0  0  0  0
   46.2831    5.0621   11.4205 H   0  0  0  0  0  0  0  0  0  0  0  0
   45.5168    6.5565   10.9181 H   0  0  0  0  0  0  0  0  0  0  0  0
   45.7998    5.5569   13.8096 H   0  0  0  0  0  0  0  0  0  0  0  0
   44.9051    6.9981   13.3660 H   0  0  0  0  0  0  0  0  0  0  0  0
   46.0421    9.0742   13.1752 H   0  0  0  0  0  0  0  0  0  0  0  0
   48.3088    5.4101   12.9850 H   0  0  0  0  0  0  0  0  0  0  0  0
   48.1287   10.3618   13.2027 H   0  0  0  0  0  0  0  0  0  0  0  0
   50.3939    6.6999   13.0024 H   0  0  0  0  0  0  0  0  0  0  0  0
   42.9362    6.5680   12.5437 H   0  0  0  0  0  0  0  0  0  0  0  0
   42.8888    6.7001   10.7767 H   0  0  0  0  0  0  0  0  0  0  0  0
   44.3399    5.0672    9.3132 H   0  0  0  0  0  0  0  0  0  0  0  0
   43.0751    3.9533    9.8532 H   0  0  0  0  0  0  0  0  0  0  0  0
   44.6038    2.5739   10.5996 H   0  0  0  0  0  0  0  0  0  0  0  0
   41.8840    4.4199   12.0615 H   0  0  0  0  0  0  0  0  0  0  0  0
   50.6165   10.2182   12.3711 H   0  0  0  0  0  0  0  0  0  0  0  0
   51.5394    8.8016   12.7984 H   0  0  0  0  0  0  0  0  0  0  0  0
   50.1712   10.7128   14.7853 H   0  0  0  0  0  0  0  0  0  0  0  0
   51.8676   10.7424   14.3594 H   0  0  0  0  0  0  0  0  0  0  0  0
   55.6245   10.9032   14.9725 H   0  0  0  0  0  0  0  0  0  0  0  0
   56.4130    9.4867   15.6631 H   0  0  0  0  0  0  0  0  0  0  0  0
   54.4059    9.1157   17.1437 H   0  0  0  0  0  0  0  0  0  0  0  0
   53.6274   10.5191   16.4073 H   0  0  0  0  0  0  0  0  0  0  0  0
   50.3984    8.4872   15.8179 H   0  0  0  0  0  0  0  0  0  0  0  0
   51.4639    9.6672   16.5403 H   0  0  0  0  0  0  0  0  0  0  0  0
   52.5914    7.5194   16.3039 H   0  0  0  0  0  0  0  0  0  0  0  0
   52.2388    7.4415   14.5932 H   0  0  0  0  0  0  0  0  0  0  0  0
   54.5553    8.0132   14.9042 H   0  0  0  0  0  0  0  0  0  0  0  0
   53.7454    9.3798   14.1595 H   0  0  0  0  0  0  0  0  0  0  0  0
   56.3755   10.5485   17.9204 H   0  0  0  0  0  0  0  0  0  0  0  0
   57.2114   11.5699   16.7391 H   0  0  0  0  0  0  0  0  0  0  0  0
   55.5608   11.9709   17.2432 H   0  0  0  0  0  0  0  0  0  0  0  0
   44.2422    5.3349    9.2846 H   0  0  0  0  0  0  0  0  0  0  0  0
   44.4379    5.6465   13.5962 H   0  0  0  0  0  0  0  0  0  0  0  0
   45.0826    6.6864   12.3136 H   0  0  0  0  0  0  0  0  0  0  0  0
   46.5110    6.7778   14.3382 H   0  0  0  0  0  0  0  0  0  0  0  0
   46.6640    5.0281   14.3358 H   0  0  0  0  0  0  0  0  0  0  0  0
   48.7033    6.0416   13.4864 H   0  0  0  0  0  0  0  0  0  0  0  0
   47.9544    5.0143   12.2873 H   0  0  0  0  0  0  0  0  0  0  0  0
   47.1006    6.9332   11.0370 H   0  0  0  0  0  0  0  0  0  0  0  0
   48.8299    7.0319   11.2446 H   0  0  0  0  0  0  0  0  0  0  0  0
   46.7024    8.6364   12.7417 H   0  0  0  0  0  0  0  0  0  0  0  0
   47.8108    9.2246   11.5200 H   0  0  0  0  0  0  0  0  0  0  0  0
   48.5493    8.2834   14.3319 H   0  0  0  0  0  0  0  0  0  0  0  0
   48.4910    9.9389   13.7529 H   0  0  0  0  0  0  0  0  0  0  0  0
   50.2980    9.3767   12.0623 H   0  0  0  0  0  0  0  0  0  0  0  0
   50.4534    7.7852   12.7968 H   0  0  0  0  0  0  0  0  0  0  0  0
   50.8883   10.4512   14.2410 H   0  0  0  0  0  0  0  0  0  0  0  0
   52.1505    9.4274   13.5630 H   0  0  0  0  0  0  0  0  0  0  0  0
   51.4723    7.5677   15.1231 H   0  0  0  0  0  0  0  0  0  0  0  0
   50.2226    8.6059   15.7982 H   0  0  0  0  0  0  0  0  0  0  0  0
   51.9543   10.2399   16.5515 H   0  0  0  0  0  0  0  0  0  0  0  0
   52.0563    8.6520   17.3046 H   0  0  0  0  0  0  0  0  0  0  0  0
   53.8935    8.0212   15.6909 H   0  0  0  0  0  0  0  0  0  0  0  0
   53.8514    9.6576   15.0319 H   0  0  0  0  0  0  0  0  0  0  0  0
   55.6397    9.4493   16.7101 H   0  0  0  0  0  0  0  0  0  0  0  0
   54.4107   10.5960   17.2734 H   0  0  0  0  0  0  0  0  0  0  0  0
   54.4668    8.9534   17.9443 H   0  0  0  0  0  0  0  0  0  0  0  0
  1  2  1  0
  1  3  1  0
  3  6  1  0
  4  6  1  0
  4  7  2  0
  4  8  1  0
  5  9  2  0
  7  9  1  0
  5 10  1  0
  8 10  2  0
  1 11  1  0
  1 12  1  0
 12 13  1  0
 11 14  1  0
  5 15  1  0
 15 16  1  0
 17 18  1  0
 16 19  1  0
 19 20  1  0
 18 21  1  0
 20 21  1  0
 17 22  1  0
 23 24  1  0
 23 25  1  0
 23 26  2  0
 23 27  2  0
 24 28  1  0
 28 29  1  0
 29 30  1  0
 30 31  1  0
 31 32  1  0
 32 33  1  0
 33 34  1  0
 34 35  1  0
 35 36  1  0
 36 37  1  0
 37 38  1  0
 38 39  1  0
  2 40  1  0
  2 41  1  0
  3 42  1  0
  3 43  1  0
  6 44  1  0
  6 45  1  0
  7 46  1  0
  8 47  1  0
  9 48  1  0
 10 49  1  0
 11 50  1  0
 11 51  1  0
 12 52  1  0
 12 53  1  0
 13 54  1  0
 14 55  1  0
 15 56  1  0
 15 57  1  0
 16 58  1  0
 16 59  1  0
 17 60  1  0
 17 61  1  0
 18 62  1  0
 18 63  1  0
 19 64  1  0
 19 65  1  0
 20 66  1  0
 20 67  1  0
 21 68  1  0
 21 69  1  0
 22 70  1  0
 22 71  1  0
 22 72  1  0
 25 73  1  0
 28 74  1  0
 28 75  1  0
 29 76  1  0
 29 77  1  0
 30 78  1  0
 30 79  1  0
 31 80  1  0
 31 81  1  0
 32 82  1  0
 32 83  1  0
 33 84  1  0
 33 85  1  0
 34 86  1  0
 34 87  1  0
 35 88  1  0
 35 89  1  0
 36 90  1  0
 36 91  1  0
 37 92  1  0
 37 93  1  0
 38 94  1  0
 38 95  1  0
 39 96  1  0
 39 97  1  0
 39 98  1  0
M  END
> <Uni-Dock RESULT> 
ENERGY=   -5.397  LOWER_BOUND=    5.936  UPPER_BOUND=    9.551
INTER + INTRA:          -5.397
INTER:                  -5.397
INTRA:                   0.000
UNBOUND:                 0.000

$$$$

     RDKit          3D

 98 97  0  0  0  0  0  0  0  0999 V2000
   51.4168   14.3499    6.7605 C   0  0  0  0  0  0  0  0  0  0  0  0
   52.1893   13.8687    7.9416 N   0  0  0  0  0  0  0  0  0  0  0  0
   49.8894   14.2058    6.9886 C   0  0  0  0  0  0  0  0  0  0  0  0
   47.8901   12.7349    7.4343 C   0  0  0  0  0  0  0  0  0  0  0  0
   45.0723   12.6390    7.5765 C   0  0  0  0  0  0  0  0  0  0  0  0
   49.3973   12.7966    7.3500 C   0  0  0  0  0  0  0  0  0  0  0  0
   47.1477   12.0909    6.4370 C   0  0  0  0  0  0  0  0  0  0  0  0
   47.2099   13.3319    8.5026 C   0  0  0  0  0  0  0  0  0  0  0  0
   45.7531   12.0433    6.5088 C   0  0  0  0  0  0  0  0  0  0  0  0
   45.8148   13.2860    8.5711 C   0  0  0  0  0  0  0  0  0  0  0  0
   51.8837   13.5664    5.5078 C   0  0  0  0  0  0  0  0  0  0  0  0
   51.7543   15.8556    6.5571 C   0  0  0  0  0  0  0  0  0  0  0  0
   51.5806   16.5828    7.7757 O   0  0  0  0  0  0  0  0  0  0  0  0
   53.3097   13.5875    5.4167 O   0  0  0  0  0  0  0  0  0  0  0  0
   43.5655   12.5848    7.6509 C   0  0  0  0  0  0  0  0  0  0  0  0
   43.0124   11.1943    7.9824 C   0  0  0  0  0  0  0  0  0  0  0  0
   39.0392   10.9512   10.8394 C   0  0  0  0  0  0  0  0  0  0  0  0
   40.5206   10.5838   10.7422 C   0  0  0  0  0  0  0  0  0  0  0  0
   43.3640   10.6673    9.3793 C   0  0  0  0  0  0  0  0  0  0  0  0
   42.8908   11.5285   10.5553 C   0  0  0  0  0  0  0  0  0  0  0  0
   41.3909   11.8338   10.5959 C   0  0  0  0  0  0  0  0  0  0  0  0
   38.1693    9.7187   11.0314 C   0  0  0  0  0  0  0  0  0  0  0  0
   51.8426   14.9619    7.0569 S   0  0  0  0  0  0  0  0  0  0  0  0
   50.6070   14.3199    7.8896 O   0  0  0  0  0  0  0  0  0  0  0  0
   51.1952   15.2289    5.6056 O   0  0  0  0  0  0  0  0  0  0  0  0
   52.1090   16.2787    7.5909 O   0  0  0  0  0  0  0  0  0  0  0  0
   52.8786   13.9675    6.9050 O   0  0  0  0  0  0  0  0  0  0  0  0
   50.0916   13.0719    7.4561 C   0  0  0  0  0  0  0  0  0  0  0  0
   48.9719   12.6249    8.3912 C   0  0  0  0  0  0  0  0  0  0  0  0
   47.8428   13.6454    8.5718 C   0  0  0  0  0  0  0  0  0  0  0  0
   47.1381   14.0882    7.2863 C   0  0  0  0  0  0  0  0  0  0  0  0
   46.5192   12.9661    6.4476 C   0  0  0  0  0  0  0  0  0  0  0  0
   45.5207   12.0644    7.1819 C   0  0  0  0  0  0  0  0  0  0  0  0
   44.3262   12.8251    7.7640 C   0  0  0  0  0  0  0  0  0  0  0  0
   43.2322   11.9052    8.3205 C   0  0  0  0  0  0  0  0  0  0  0  0
   43.6808   11.1037    9.5457 C   0  0  0  0  0  0  0  0  0  0  0  0
   42.5890   10.1876   10.1078 C   0  0  0  0  0  0  0  0  0  0  0  0
   41.4167   10.9478   10.7295 C   0  0  0  0  0  0  0  0  0  0  0  0
   40.4209    9.9958   11.3743 C   0  0  0  0  0  0  0  0  0  0  0  0
   52.0754   12.8577    8.0321 H   0  0  0  0  0  0  0  0  0  0  0  0
   51.7576   14.2562    8.7829 H   0  0  0  0  0  0  0  0  0  0  0  0
   49.5732   14.8986    7.7821 H   0  0  0  0  0  0  0  0  0  0  0  0
   49.3692   14.5397    6.0785 H   0  0  0  0  0  0  0  0  0  0  0  0
   49.8098   12.4809    8.3163 H   0  0  0  0  0  0  0  0  0  0  0  0
   49.7448   12.0631    6.6146 H   0  0  0  0  0  0  0  0  0  0  0  0
   47.6468   11.6229    5.5926 H   0  0  0  0  0  0  0  0  0  0  0  0
   47.7609   13.8418    9.2891 H   0  0  0  0  0  0  0  0  0  0  0  0
   45.1996   11.5381    5.7208 H   0  0  0  0  0  0  0  0  0  0  0  0
   45.3132   13.7646    9.4101 H   0  0  0  0  0  0  0  0  0  0  0  0
   51.5875   12.5150    5.5479 H   0  0  0  0  0  0  0  0  0  0  0  0
   51.4765   14.0020    4.5896 H   0  0  0  0  0  0  0  0  0  0  0  0
   51.0987   16.3038    5.8035 H   0  0  0  0  0  0  0  0  0  0  0  0
   52.7898   16.0053    6.2312 H   0  0  0  0  0  0  0  0  0  0  0  0
   52.3053   16.2763    8.3499 H   0  0  0  0  0  0  0  0  0  0  0  0
   53.6245   13.5963    6.3449 H   0  0  0  0  0  0  0  0  0  0  0  0
   43.1662   12.8989    6.6773 H   0  0  0  0  0  0  0  0  0  0  0  0
   43.1936   13.3272    8.3675 H   0  0  0  0  0  0  0  0  0  0  0  0
   43.3724   10.4680    7.2426 H   0  0  0  0  0  0  0  0  0  0  0  0
   41.9221   11.2185    7.8696 H   0  0  0  0  0  0  0  0  0  0  0  0
   38.7263   11.4727    9.9284 H   0  0  0  0  0  0  0  0  0  0  0  0
   38.8773   11.6388   11.6762 H   0  0  0  0  0  0  0  0  0  0  0  0
   40.8210   10.0328   11.6410 H   0  0  0  0  0  0  0  0  0  0  0  0
   40.6669    9.9148    9.8860 H   0  0  0  0  0  0  0  0  0  0  0  0
   44.4514   10.5432    9.4565 H   0  0  0  0  0  0  0  0  0  0  0  0
   42.9459    9.6588    9.4803 H   0  0  0  0  0  0  0  0  0  0  0  0
   43.1751   11.0231   11.4869 H   0  0  0  0  0  0  0  0  0  0  0  0
   43.4367   12.4786   10.5542 H   0  0  0  0  0  0  0  0  0  0  0  0
   41.2034   12.4966   11.4500 H   0  0  0  0  0  0  0  0  0  0  0  0
   41.0954   12.3942    9.7020 H   0  0  0  0  0  0  0  0  0  0  0  0
   38.4247    9.2018   11.9612 H   0  0  0  0  0  0  0  0  0  0  0  0
   37.1138   10.0045   11.0808 H   0  0  0  0  0  0  0  0  0  0  0  0
   38.2929    9.0157   10.2024 H   0  0  0  0  0  0  0  0  0  0  0  0
   51.0318   16.1945    5.5473 H   0  0  0  0  0  0  0  0  0  0  0  0
   50.8875   12.3192    7.4671 H   0  0  0  0  0  0  0  0  0  0  0  0
   49.7216   13.1592    6.4294 H   0  0  0  0  0  0  0  0  0  0  0  0
   48.5689   11.6686    8.0408 H   0  0  0  0  0  0  0  0  0  0  0  0
   49.4026   12.4375    9.3819 H   0  0  0  0  0  0  0  0  0  0  0  0
   47.1067   13.2273    9.2682 H   0  0  0  0  0  0  0  0  0  0  0  0
   48.2432   14.5394    9.0663 H   0  0  0  0  0  0  0  0  0  0  0  0
   47.8460   14.6403    6.6567 H   0  0  0  0  0  0  0  0  0  0  0  0
   46.3582   14.8126    7.5511 H   0  0  0  0  0  0  0  0  0  0  0  0
   47.3175   12.3384    6.0346 H   0  0  0  0  0  0  0  0  0  0  0  0
   46.0156   13.4200    5.5849 H   0  0  0  0  0  0  0  0  0  0  0  0
   46.0406   11.5112    7.9710 H   0  0  0  0  0  0  0  0  0  0  0  0
   45.1540   11.3144    6.4695 H   0  0  0  0  0  0  0  0  0  0  0  0
   43.8808   13.4494    6.9796 H   0  0  0  0  0  0  0  0  0  0  0  0
   44.6581   13.5050    8.5573 H   0  0  0  0  0  0  0  0  0  0  0  0
   42.8940   11.2201    7.5330 H   0  0  0  0  0  0  0  0  0  0  0  0
   42.3736   12.5333    8.5844 H   0  0  0  0  0  0  0  0  0  0  0  0
   44.0301   11.7845   10.3301 H   0  0  0  0  0  0  0  0  0  0  0  0
   44.5320   10.4707    9.2732 H   0  0  0  0  0  0  0  0  0  0  0  0
   42.2225    9.5217    9.3173 H   0  0  0  0  0  0  0  0  0  0  0  0
   43.0432    9.5472   10.8746 H   0  0  0  0  0  0  0  0  0  0  0  0
   41.7859   11.6502   11.4859 H   0  0  0  0  0  0  0  0  0  0  0  0
   40.8927   11.5354    9.9683 H   0  0  0  0  0  0  0  0  0  0  0  0
   39.5892   10.5570   11.8126 H   0  0  0  0  0  0  0  0  0  0  0  0
   40.0093    9.3008   10.6344 H   0  0  0  0  0  0  0  0  0  0  0  0
   40.8947    9.4109   12.1690 H   0  0  0  0  0  0  0  0  0  0  0  0
  1  2  1  0
  1  3  1  0
  3  6  1  0
  4  6  1  0
  4  7  2  0
  4  8  1  0
  5  9  2  0
  7  9  1  0
  5 10  1  0
  8 10  2  0
  1 11  1  0
  1 12  1  0
 12 13  1  0
 11 14  1  0
  5 15  1  0
 15 16  1  0
 17 18  1  0
 16 19  1  0
 19 20  1  0
 18 21  1  0
 20 21  1  0
 17 22  1  0
 23 24  1  0
 23 25  1  0
 23 26  2  0
 23 27  2  0
 24 28  1  0
 28 29  1  0
 29 30  1  0
 30 31  1  0
 31 32  1  0
 32 33  1  0
 33 34  1  0
 34 35  1  0
 35 36  1  0
 36 37  1  0
 37 38  1  0
 38 39  1  0
  2 40  1  0
  2 41  1  0
  3 42  1  0
  3 43  1  0
  6 44  1  0
  6 45  1  0
  7 46  1  0
  8 47  1  0
  9 48  1  0
 10 49  1  0
 11 50  1  0
 11 51  1  0
 12 52  1  0
 12 53  1  0
 13 54  1  0
 14 55  1  0
 15 56  1  0
 15 57  1  0
 16 58  1  0
 16 59  1  0
 17 60  1  0
 17 61  1  0
 18 62  1  0
 18 63  1  0
 19 64  1  0
 19 65  1  0
 20 66  1  0
 20 67  1  0
 21 68  1  0
 21 69  1  0
 22 70  1  0
 22 71  1  0
 22 72  1  0
 25 73  1  0
 28 74  1  0
 28 75  1  0
 29 76  1  0
 29 77  1  0
 30 78  1  0
 30 79  1  0
 31 80  1  0
 31 81  1  0
 32 82  1  0
 32 83  1  0
 33 84  1  0
 33 85  1  0
 34 86  1  0
 34 87  1  0
 35 88  1  0
 35 89  1  0
 36 90  1  0
 36 91  1  0
 37 92  1  0
 37 93  1  0
 38 94  1  0
 38 95  1  0
 39 96  1  0
 39 97  1  0
 39 98  1  0
M  END
> <Uni-Dock RESULT> 
ENERGY=   -5.285  LOWER_BOUND=    9.387  UPPER_BOUND=   10.774
INTER + INTRA:          -5.285
INTER:                  -5.285
INTRA:                   0.000
UNBOUND:                 0.000

$$$$

     RDKit          3D

 98 97  0  0  0  0  0  0  0  0999 V2000
   49.4431   15.9798   14.5629 C   0  0  0  0  0  0  0  0  0  0  0  0
   49.9446   15.1386   13.4386 N   0  0  0  0  0  0  0  0  0  0  0  0
   49.2930   15.1504   15.8649 C   0  0  0  0  0  0  0  0  0  0  0  0
   48.2298   13.2289   17.1045 C   0  0  0  0  0  0  0  0  0  0  0  0
   47.8996   11.9986   19.6238 C   0  0  0  0  0  0  0  0  0  0  0  0
   48.4087   13.8989   15.7623 C   0  0  0  0  0  0  0  0  0  0  0  0
   47.0069   13.3084   17.7817 C   0  0  0  0  0  0  0  0  0  0  0  0
   49.2866   12.5297   17.7000 C   0  0  0  0  0  0  0  0  0  0  0  0
   46.8443   12.6984   19.0283 C   0  0  0  0  0  0  0  0  0  0  0  0
   49.1231   11.9228   18.9481 C   0  0  0  0  0  0  0  0  0  0  0  0
   48.0999   16.6266   14.1397 C   0  0  0  0  0  0  0  0  0  0  0  0
   50.4830   17.1120   14.8058 C   0  0  0  0  0  0  0  0  0  0  0  0
   51.7981   16.5698   14.9486 O   0  0  0  0  0  0  0  0  0  0  0  0
   48.2340   17.2476   12.8595 O   0  0  0  0  0  0  0  0  0  0  0  0
   47.7199   11.3402   20.9704 C   0  0  0  0  0  0  0  0  0  0  0  0
   46.8227   10.0980   20.9365 C   0  0  0  0  0  0  0  0  0  0  0  0
   48.0006    6.3633   23.8813 C   0  0  0  0  0  0  0  0  0  0  0  0
   47.8460    6.7891   22.4207 C   0  0  0  0  0  0  0  0  0  0  0  0
   47.3776    8.9129   20.1360 C   0  0  0  0  0  0  0  0  0  0  0  0
   48.7284    8.3639   20.6077 C   0  0  0  0  0  0  0  0  0  0  0  0
   48.7973    7.9371   22.0767 C   0  0  0  0  0  0  0  0  0  0  0  0
   47.0921    5.1920   24.2210 C   0  0  0  0  0  0  0  0  0  0  0  0
   50.1476   16.2732   14.3157 S   0  0  0  0  0  0  0  0  0  0  0  0
   50.0527   14.8308   15.0522 O   0  0  0  0  0  0  0  0  0  0  0  0
   49.3256   17.2376   15.3109 O   0  0  0  0  0  0  0  0  0  0  0  0
   51.5157   16.7329   14.4014 O   0  0  0  0  0  0  0  0  0  0  0  0
   49.4316   16.2134   13.0631 O   0  0  0  0  0  0  0  0  0  0  0  0
   48.7706   14.2420   15.1962 C   0  0  0  0  0  0  0  0  0  0  0  0
   48.9028   12.8797   15.8704 C   0  0  0  0  0  0  0  0  0  0  0  0
   49.6455   12.8981   17.2109 C   0  0  0  0  0  0  0  0  0  0  0  0
   49.0558   13.8195   18.2825 C   0  0  0  0  0  0  0  0  0  0  0  0
   47.5924   13.5587   18.6509 C   0  0  0  0  0  0  0  0  0  0  0  0
   47.2681   12.1308   19.1037 C   0  0  0  0  0  0  0  0  0  0  0  0
   48.0683   11.6836   20.3301 C   0  0  0  0  0  0  0  0  0  0  0  0
   47.6030   10.3387   20.9024 C   0  0  0  0  0  0  0  0  0  0  0  0
   47.8525    9.1599   19.9574 C   0  0  0  0  0  0  0  0  0  0  0  0
   47.3940    7.8140   20.5277 C   0  0  0  0  0  0  0  0  0  0  0  0
   48.2223    7.3461   21.7251 C   0  0  0  0  0  0  0  0  0  0  0  0
   47.8026    5.9559   22.1776 C   0  0  0  0  0  0  0  0  0  0  0  0
   49.2304   14.4548   13.1822 H   0  0  0  0  0  0  0  0  0  0  0  0
   50.7277   14.5805   13.7843 H   0  0  0  0  0  0  0  0  0  0  0  0
   50.2887   14.8446   16.2181 H   0  0  0  0  0  0  0  0  0  0  0  0
   48.8882   15.8063   16.6499 H   0  0  0  0  0  0  0  0  0  0  0  0
   48.8503   13.1714   15.0700 H   0  0  0  0  0  0  0  0  0  0  0  0
   47.4242   14.1511   15.3542 H   0  0  0  0  0  0  0  0  0  0  0  0
   46.1696   13.8486   17.3477 H   0  0  0  0  0  0  0  0  0  0  0  0
   50.2483   12.4550   17.1981 H   0  0  0  0  0  0  0  0  0  0  0  0
   45.8848   12.7758   19.5342 H   0  0  0  0  0  0  0  0  0  0  0  0
   49.9645   11.3916   19.3891 H   0  0  0  0  0  0  0  0  0  0  0  0
   47.3001   15.8873   14.0473 H   0  0  0  0  0  0  0  0  0  0  0  0
   47.7803   17.3892   14.8572 H   0  0  0  0  0  0  0  0  0  0  0  0
   50.2487   17.6671   15.7199 H   0  0  0  0  0  0  0  0  0  0  0  0
   50.5126   17.8289   13.9774 H   0  0  0  0  0  0  0  0  0  0  0  0
   52.0309   16.2524   14.0576 H   0  0  0  0  0  0  0  0  0  0  0  0
   48.8822   16.6950   12.3745 H   0  0  0  0  0  0  0  0  0  0  0  0
   47.2741   12.0772   21.6515 H   0  0  0  0  0  0  0  0  0  0  0  0
   48.6960   11.0974   21.4079 H   0  0  0  0  0  0  0  0  0  0  0  0
   45.8422   10.3622   20.5202 H   0  0  0  0  0  0  0  0  0  0  0  0
   46.6321    9.7792   21.9680 H   0  0  0  0  0  0  0  0  0  0  0  0
   47.7618    7.2053   24.5400 H   0  0  0  0  0  0  0  0  0  0  0  0
   49.0396    6.0816   24.0821 H   0  0  0  0  0  0  0  0  0  0  0  0
   48.0532    5.9345   21.7661 H   0  0  0  0  0  0  0  0  0  0  0  0
   46.8064    7.0896   22.2447 H   0  0  0  0  0  0  0  0  0  0  0  0
   47.4698    9.1999   19.0810 H   0  0  0  0  0  0  0  0  0  0  0  0
   46.6343    8.1072   20.1569 H   0  0  0  0  0  0  0  0  0  0  0  0
   48.9891    7.5051   19.9764 H   0  0  0  0  0  0  0  0  0  0  0  0
   49.5086    9.1122   20.4286 H   0  0  0  0  0  0  0  0  0  0  0  0
   49.8259    7.6190   22.2887 H   0  0  0  0  0  0  0  0  0  0  0  0
   48.6009    8.7953   22.7288 H   0  0  0  0  0  0  0  0  0  0  0  0
   47.3394    4.3171   23.6127 H   0  0  0  0  0  0  0  0  0  0  0  0
   47.2073    4.9168   25.2742 H   0  0  0  0  0  0  0  0  0  0  0  0
   46.0417    5.4446   24.0485 H   0  0  0  0  0  0  0  0  0  0  0  0
   49.9921   17.7666   15.7993 H   0  0  0  0  0  0  0  0  0  0  0  0
   48.3118   14.1092   14.2103 H   0  0  0  0  0  0  0  0  0  0  0  0
   48.1237   14.9001   15.7854 H   0  0  0  0  0  0  0  0  0  0  0  0
   47.9076   12.4388   15.9920 H   0  0  0  0  0  0  0  0  0  0  0  0
   49.4587   12.2142   15.1995 H   0  0  0  0  0  0  0  0  0  0  0  0
   49.6922   11.8723   17.5946 H   0  0  0  0  0  0  0  0  0  0  0  0
   50.6872   13.1973   17.0396 H   0  0  0  0  0  0  0  0  0  0  0  0
   49.1496   14.8620   17.9555 H   0  0  0  0  0  0  0  0  0  0  0  0
   49.6744   13.7411   19.1849 H   0  0  0  0  0  0  0  0  0  0  0  0
   46.9524   13.8072   17.7962 H   0  0  0  0  0  0  0  0  0  0  0  0
   47.3104   14.2545   19.4512 H   0  0  0  0  0  0  0  0  0  0  0  0
   47.4297   11.4384   18.2708 H   0  0  0  0  0  0  0  0  0  0  0  0
   46.1972   12.0850   19.3396 H   0  0  0  0  0  0  0  0  0  0  0  0
   47.9723   12.4412   21.1176 H   0  0  0  0  0  0  0  0  0  0  0  0
   49.1347   11.6172   20.0851 H   0  0  0  0  0  0  0  0  0  0  0  0
   46.5357   10.3955   21.1502 H   0  0  0  0  0  0  0  0  0  0  0  0
   48.1390   10.1762   21.8446 H   0  0  0  0  0  0  0  0  0  0  0  0
   48.9160    9.1072   19.6985 H   0  0  0  0  0  0  0  0  0  0  0  0
   47.3064    9.3231   19.0221 H   0  0  0  0  0  0  0  0  0  0  0  0
   46.3357    7.8731   20.8086 H   0  0  0  0  0  0  0  0  0  0  0  0
   47.4676    7.0634   19.7304 H   0  0  0  0  0  0  0  0  0  0  0  0
   49.2864    7.3336   21.4614 H   0  0  0  0  0  0  0  0  0  0  0  0
   48.1041    8.0360   22.5673 H   0  0  0  0  0  0  0  0  0  0  0  0
   48.4048    5.6384   23.0351 H   0  0  0  0  0  0  0  0  0  0  0  0
   46.7495    5.9444   22.4791 H   0  0  0  0  0  0  0  0  0  0  0  0
   47.9384    5.2239   21.3751 H   0  0  0  0  0  0  0  0  0  0  0  0
  1  2  1  0
  1  3  1  0
  3  6  1  0
  4  6  1  0
  4  7  2  0
  4  8  1  0
  5  9  2  0
  7  9  1  0
  5 10  1  0
  8 10  2  0
  1 11  1  0
  1 12  1  0
 12 13  1  0
 11 14  1  0
  5 15  1  0
 15 16  1  0
 17 18  1  0
 16 19  1  0
 19 20  1  0
 18 21  1  0
 20 21  1  0
 17 22  1  0
 23 24  1  0
 23 25  1  0
 23 26  2  0
 23 27  2  0
 24 28  1  0
 28 29  1  0
 29 30  1  0
 30 31  1  0
 31 32  1  0
 32 33  1  0
 33 34  1  0
 34 35  1  0
 35 36  1  0
 36 37  1  0
 37 38  1  0
 38 39  1  0
  2 40  1  0
  2 41  1  0
  3 42  1  0
  3 43  1  0
  6 44  1  0
  6 45  1  0
  7 46  1  0
  8 47  1  0
  9 48  1  0
 10 49  1  0
 11 50  1  0
 11 51  1  0
 12 52  1  0
 12 53  1  0
 13 54  1  0
 14 55  1  0
 15 56  1  0
 15 57  1  0
 16 58  1  0
 16 59  1  0
 17 60  1  0
 17 61  1  0
 18 62  1  0
 18 63  1  0
 19 64  1  0
 19 65  1  0
 20 66  1  0
 20 67  1  0
 21 68  1  0
 21 69  1  0
 22 70  1  0
 22 71  1  0
 22 72  1  0
 25 73  1  0
 28 74  1  0
 28 75  1  0
 29 76  1  0
 29 77  1  0
 30 78  1  0
 30 79  1  0
 31 80  1  0
 31 81  1  0
 32 82  1  0
 32 83  1  0
 33 84  1  0
 33 85  1  0
 34 86  1  0
 34 87  1  0
 35 88  1  0
 35 89  1  0
 36 90  1  0
 36 91  1  0
 37 92  1  0
 37 93  1  0
 38 94  1  0
 38 95  1  0
 39 96  1  0
 39 97  1  0
 39 98  1  0
M  END
> <Uni-Dock RESULT> 
ENERGY=   -5.257  LOWER_BOUND=    6.548  UPPER_BOUND=    8.432
INTER + INTRA:          -5.257
INTER:                  -5.257
INTRA:                   0.000
UNBOUND:                 0.000

$$$$

     RDKit          3D

 98 97  0  0  0  0  0  0  0  0999 V2000
   50.2494   15.1968   12.9939 C   0  0  0  0  0  0  0  0  0  0  0  0
   49.0561   16.0770   12.8373 N   0  0  0  0  0  0  0  0  0  0  0  0
   49.9062   13.7188   12.6724 C   0  0  0  0  0  0  0  0  0  0  0  0
   48.5679   11.6416   13.1763 C   0  0  0  0  0  0  0  0  0  0  0  0
   48.2593    8.8928   12.6117 C   0  0  0  0  0  0  0  0  0  0  0  0
   48.7459   13.1118   13.4750 C   0  0  0  0  0  0  0  0  0  0  0  0
   48.9390   10.6745   14.1183 C   0  0  0  0  0  0  0  0  0  0  0  0
   48.0426   11.2210   11.9485 C   0  0  0  0  0  0  0  0  0  0  0  0
   48.7850    9.3142   13.8382 C   0  0  0  0  0  0  0  0  0  0  0  0
   47.8922    9.8601   11.6689 C   0  0  0  0  0  0  0  0  0  0  0  0
   50.7991   15.3553   14.4340 C   0  0  0  0  0  0  0  0  0  0  0  0
   51.3342   15.6896   11.9926 C   0  0  0  0  0  0  0  0  0  0  0  0
   50.7921   15.8055   10.6749 O   0  0  0  0  0  0  0  0  0  0  0  0
   50.9541   16.7398   14.7525 O   0  0  0  0  0  0  0  0  0  0  0  0
   48.0938    7.4224   12.3130 C   0  0  0  0  0  0  0  0  0  0  0  0
   46.9656    6.7535   13.1062 C   0  0  0  0  0  0  0  0  0  0  0  0
   44.3480    3.2823   10.8464 C   0  0  0  0  0  0  0  0  0  0  0  0
   44.2767    4.6698   11.4856 C   0  0  0  0  0  0  0  0  0  0  0  0
   45.5521    7.2497   12.7767 C   0  0  0  0  0  0  0  0  0  0  0  0
   45.1099    7.0829   11.3189 C   0  0  0  0  0  0  0  0  0  0  0  0
   45.1881    5.6603   10.7580 C   0  0  0  0  0  0  0  0  0  0  0  0
   43.4106    2.3017   11.5337 C   0  0  0  0  0  0  0  0  0  0  0  0
   50.4023   15.7393   12.4231 S   0  0  0  0  0  0  0  0  0  0  0  0
   49.2918   14.5780   12.1992 O   0  0  0  0  0  0  0  0  0  0  0  0
   51.6881   14.9115   12.9306 O   0  0  0  0  0  0  0  0  0  0  0  0
   50.7822   16.2544   11.1267 O   0  0  0  0  0  0  0  0  0  0  0  0
   49.9755   16.6013   13.5001 O   0  0  0  0  0  0  0  0  0  0  0  0
   48.8610   13.8439   13.3334 C   0  0  0  0  0  0  0  0  0  0  0  0
   47.7919   12.8372   12.9191 C   0  0  0  0  0  0  0  0  0  0  0  0
   48.2071   11.8921   11.7863 C   0  0  0  0  0  0  0  0  0  0  0  0
   49.4637   11.0568   12.0474 C   0  0  0  0  0  0  0  0  0  0  0  0
   49.4266   10.1738   13.2982 C   0  0  0  0  0  0  0  0  0  0  0  0
   48.2499    9.1955   13.3833 C   0  0  0  0  0  0  0  0  0  0  0  0
   48.1854    8.2160   12.2082 C   0  0  0  0  0  0  0  0  0  0  0  0
   47.1347    7.1138   12.3923 C   0  0  0  0  0  0  0  0  0  0  0  0
   45.6976    7.6424   12.3985 C   0  0  0  0  0  0  0  0  0  0  0  0
   44.6449    6.5437   12.5768 C   0  0  0  0  0  0  0  0  0  0  0  0
   44.5496    5.5922   11.3834 C   0  0  0  0  0  0  0  0  0  0  0  0
   43.4140    4.5959   11.5608 C   0  0  0  0  0  0  0  0  0  0  0  0
   48.3698   15.8491   13.5588 H   0  0  0  0  0  0  0  0  0  0  0  0
   48.5976   15.8369   11.9562 H   0  0  0  0  0  0  0  0  0  0  0  0
   49.6753   13.6236   11.6013 H   0  0  0  0  0  0  0  0  0  0  0  0
   50.8072   13.1092   12.8370 H   0  0  0  0  0  0  0  0  0  0  0  0
   47.8059   13.6272   13.2420 H   0  0  0  0  0  0  0  0  0  0  0  0
   48.9076   13.2414   14.5504 H   0  0  0  0  0  0  0  0  0  0  0  0
   49.3547   10.9696   15.0781 H   0  0  0  0  0  0  0  0  0  0  0  0
   47.7494   11.9502   11.1972 H   0  0  0  0  0  0  0  0  0  0  0  0
   49.0820    8.5830   14.5862 H   0  0  0  0  0  0  0  0  0  0  0  0
   47.4870    9.5630   10.7034 H   0  0  0  0  0  0  0  0  0  0  0  0
   50.1198   14.9359   15.1806 H   0  0  0  0  0  0  0  0  0  0  0  0
   51.7733   14.8683   14.5454 H   0  0  0  0  0  0  0  0  0  0  0  0
   52.1727   14.9869   11.9491 H   0  0  0  0  0  0  0  0  0  0  0  0
   51.7347   16.6714   12.2695 H   0  0  0  0  0  0  0  0  0  0  0  0
   50.1854   16.5659   10.7250 H   0  0  0  0  0  0  0  0  0  0  0  0
   50.2349   17.1954   14.2667 H   0  0  0  0  0  0  0  0  0  0  0  0
   49.0393    6.9187   12.5541 H   0  0  0  0  0  0  0  0  0  0  0  0
   47.9512    7.2670   11.2366 H   0  0  0  0  0  0  0  0  0  0  0  0
   47.1357    6.8956   14.1810 H   0  0  0  0  0  0  0  0  0  0  0  0
   47.0168    5.6714   12.9372 H   0  0  0  0  0  0  0  0  0  0  0  0
   45.3727    2.8998   10.9046 H   0  0  0  0  0  0  0  0  0  0  0  0
   44.0869    3.3444    9.7847 H   0  0  0  0  0  0  0  0  0  0  0  0
   43.2432    5.0344   11.4553 H   0  0  0  0  0  0  0  0  0  0  0  0
   44.5636    4.5918   12.5409 H   0  0  0  0  0  0  0  0  0  0  0  0
   45.4690    8.3105   13.0445 H   0  0  0  0  0  0  0  0  0  0  0  0
   44.8441    6.7260   13.4299 H   0  0  0  0  0  0  0  0  0  0  0  0
   44.0771    7.4427   11.2303 H   0  0  0  0  0  0  0  0  0  0  0  0
   45.7094    7.7399   10.6787 H   0  0  0  0  0  0  0  0  0  0  0  0
   44.8971    5.6969    9.7006 H   0  0  0  0  0  0  0  0  0  0  0  0
   46.2235    5.3025   10.7790 H   0  0  0  0  0  0  0  0  0  0  0  0
   42.3708    2.6314   11.4495 H   0  0  0  0  0  0  0  0  0  0  0  0
   43.4917    1.3130   11.0710 H   0  0  0  0  0  0  0  0  0  0  0  0
   43.6542    2.2013   12.5955 H   0  0  0  0  0  0  0  0  0  0  0  0
   52.3079   14.8670   12.1713 H   0  0  0  0  0  0  0  0  0  0  0  0
   48.4380   14.5275   14.0776 H   0  0  0  0  0  0  0  0  0  0  0  0
   49.7138   13.3311   13.7900 H   0  0  0  0  0  0  0  0  0  0  0  0
   47.4758   12.2640   13.7973 H   0  0  0  0  0  0  0  0  0  0  0  0
   46.9105   13.3908   12.5745 H   0  0  0  0  0  0  0  0  0  0  0  0
   47.3643   11.2271   11.5642 H   0  0  0  0  0  0  0  0  0  0  0  0
   48.3704   12.4775   10.8727 H   0  0  0  0  0  0  0  0  0  0  0  0
   50.3325   11.7220   12.1193 H   0  0  0  0  0  0  0  0  0  0  0  0
   49.6506   10.4285   11.1679 H   0  0  0  0  0  0  0  0  0  0  0  0
   49.4170   10.8092   14.1915 H   0  0  0  0  0  0  0  0  0  0  0  0
   50.3629    9.6035   13.3438 H   0  0  0  0  0  0  0  0  0  0  0  0
   47.3133    9.7573   13.4620 H   0  0  0  0  0  0  0  0  0  0  0  0
   48.3483    8.6273   14.3170 H   0  0  0  0  0  0  0  0  0  0  0  0
   49.1646    7.7370   12.0854 H   0  0  0  0  0  0  0  0  0  0  0  0
   47.9785    8.7537   11.2755 H   0  0  0  0  0  0  0  0  0  0  0  0
   47.3335    6.5701   13.3244 H   0  0  0  0  0  0  0  0  0  0  0  0
   47.2604    6.3959   11.5737 H   0  0  0  0  0  0  0  0  0  0  0  0
   45.4992    8.1960   11.4737 H   0  0  0  0  0  0  0  0  0  0  0  0
   45.5754    8.3511   13.2245 H   0  0  0  0  0  0  0  0  0  0  0  0
   44.8562    5.9744   13.4898 H   0  0  0  0  0  0  0  0  0  0  0  0
   43.6704    7.0265   12.7242 H   0  0  0  0  0  0  0  0  0  0  0  0
   44.3875    6.1635   10.4619 H   0  0  0  0  0  0  0  0  0  0  0  0
   45.4844    5.0351   11.2604 H   0  0  0  0  0  0  0  0  0  0  0  0
   43.3618    3.9232   10.6985 H   0  0  0  0  0  0  0  0  0  0  0  0
   43.5653    3.9865   12.4584 H   0  0  0  0  0  0  0  0  0  0  0  0
   42.4516    5.1094   11.6521 H   0  0  0  0  0  0  0  0  0  0  0  0
  1  2  1  0
  1  3  1  0
  3  6  1  0
  4  6  1  0
  4  7  2  0
  4  8  1  0
  5  9  2  0
  7  9  1  0
  5 10  1  0
  8 10  2  0
  1 11  1  0
  1 12  1  0
 12 13  1  0
 11 14  1  0
  5 15  1  0
 15 16  1  0
 17 18  1  0
 16 19  1  0
 19 20  1  0
 18 21  1  0
 20 21  1  0
 17 22  1  0
 23 24  1  0
 23 25  1  0
 23 26  2  0
 23 27  2  0
 24 28  1  0
 28 29  1  0
 29 30  1  0
 30 31  1  0
 31 32  1  0
 32 33  1  0
 33 34  1  0
 34 35  1  0
 35 36  1  0
 36 37  1  0
 37 38  1  0
 38 39  1  0
  2 40  1  0
  2 41  1  0
  3 42  1  0
  3 43  1  0
  6 44  1  0
  6 45  1  0
  7 46  1  0
  8 47  1  0
  9 48  1  0
 10 49  1  0
 11 50  1  0
 11 51  1  0
 12 52  1  0
 12 53  1  0
 13 54  1  0
 14 55  1  0
 15 56  1  0
 15 57  1  0
 16 58  1  0
 16 59  1  0
 17 60  1  0
 17 61  1  0
 18 62  1  0
 18 63  1  0
 19 64  1  0
 19 65  1  0
 20 66  1  0
 20 67  1  0
 21 68  1  0
 21 69  1  0
 22 70  1  0
 22 71  1  0
 22 72  1  0
 25 73  1  0
 28 74  1  0
 28 75  1  0
 29 76  1  0
 29 77  1  0
 30 78  1  0
 30 79  1  0
 31 80  1  0
 31 81  1  0
 32 82  1  0
 32 83  1  0
 33 84  1  0
 33 85  1  0
 34 86  1  0
 34 87  1  0
 35 88  1  0
 35 89  1  0
 36 90  1  0
 36 91  1  0
 37 92  1  0
 37 93  1  0
 38 94  1  0
 38 95  1  0
 39 96  1  0
 39 97  1  0
 39 98  1  0
M  END
> <Uni-Dock RESULT> 
ENERGY=   -5.184  LOWER_BOUND=    4.553  UPPER_BOUND=    5.459
INTER + INTRA:          -5.184
INTER:                  -5.184
INTRA:                   0.000
UNBOUND:                 0.000

$$$$

     RDKit          3D

 98 97  0  0  0  0  0  0  0  0999 V2000
   49.6135    5.7064   21.0893 C   0  0  0  0  0  0  0  0  0  0  0  0
   50.7483    5.2016   20.2642 N   0  0  0  0  0  0  0  0  0  0  0  0
   48.9673    6.9636   20.4510 C   0  0  0  0  0  0  0  0  0  0  0  0
   49.1787    9.3485   19.6590 C   0  0  0  0  0  0  0  0  0  0  0  0
   47.7726   11.6096   18.7210 C   0  0  0  0  0  0  0  0  0  0  0  0
   49.9202    8.1342   20.1671 C   0  0  0  0  0  0  0  0  0  0  0  0
   49.0034   10.4696   20.4792 C   0  0  0  0  0  0  0  0  0  0  0  0
   48.6426    9.3682   18.3657 C   0  0  0  0  0  0  0  0  0  0  0  0
   48.3080   11.5886   20.0136 C   0  0  0  0  0  0  0  0  0  0  0  0
   47.9447   10.4869   17.9028 C   0  0  0  0  0  0  0  0  0  0  0  0
   50.1294    5.9942   22.5219 C   0  0  0  0  0  0  0  0  0  0  0  0
   48.5458    4.5766   21.1651 C   0  0  0  0  0  0  0  0  0  0  0  0
   48.2232    4.0959   19.8580 O   0  0  0  0  0  0  0  0  0  0  0  0
   50.8573    4.8691   23.0187 O   0  0  0  0  0  0  0  0  0  0  0  0
   47.0225   12.8206   18.2213 C   0  0  0  0  0  0  0  0  0  0  0  0
   47.9191   14.0328   17.9453 C   0  0  0  0  0  0  0  0  0  0  0  0
   46.7785   16.8795   14.1239 C   0  0  0  0  0  0  0  0  0  0  0  0
   47.8421   15.9424   14.6978 C   0  0  0  0  0  0  0  0  0  0  0  0
   48.9242   13.8548   16.8003 C   0  0  0  0  0  0  0  0  0  0  0  0
   48.3216   13.5376   15.4274 C   0  0  0  0  0  0  0  0  0  0  0  0
   47.2810   14.5349   14.9106 C   0  0  0  0  0  0  0  0  0  0  0  0
   47.3391   18.2693   13.8655 C   0  0  0  0  0  0  0  0  0  0  0  0
   49.4434    4.9614   20.8452 S   0  0  0  0  0  0  0  0  0  0  0  0
   49.5213    6.1915   19.7903 O   0  0  0  0  0  0  0  0  0  0  0  0
   48.4689    5.5357   21.9928 O   0  0  0  0  0  0  0  0  0  0  0  0
   48.6968    3.8873   20.2294 O   0  0  0  0  0  0  0  0  0  0  0  0
   50.7473    4.7567   21.4311 O   0  0  0  0  0  0  0  0  0  0  0  0
   50.1075    7.4060   20.2288 C   0  0  0  0  0  0  0  0  0  0  0  0
   50.1228    8.4133   19.0829 C   0  0  0  0  0  0  0  0  0  0  0  0
   48.7561    8.6714   18.4391 C   0  0  0  0  0  0  0  0  0  0  0  0
   47.6587    9.1614   19.3881 C   0  0  0  0  0  0  0  0  0  0  0  0
   47.9739   10.4447   20.1623 C   0  0  0  0  0  0  0  0  0  0  0  0
   48.3575   11.6568   19.3063 C   0  0  0  0  0  0  0  0  0  0  0  0
   47.2756   12.0597   18.3006 C   0  0  0  0  0  0  0  0  0  0  0  0
   47.5713   13.3853   17.5877 C   0  0  0  0  0  0  0  0  0  0  0  0
   48.7972   13.3200   16.6726 C   0  0  0  0  0  0  0  0  0  0  0  0
   49.0928   14.6407   15.9545 C   0  0  0  0  0  0  0  0  0  0  0  0
   48.0345   15.0202   14.9179 C   0  0  0  0  0  0  0  0  0  0  0  0
   48.4339   16.2738   14.1545 C   0  0  0  0  0  0  0  0  0  0  0  0
   51.5130    5.8783   20.2895 H   0  0  0  0  0  0  0  0  0  0  0  0
   50.4478    5.1841   19.2877 H   0  0  0  0  0  0  0  0  0  0  0  0
   48.4739    6.6809   19.5097 H   0  0  0  0  0  0  0  0  0  0  0  0
   48.1627    7.3152   21.1139 H   0  0  0  0  0  0  0  0  0  0  0  0
   50.6682    7.8483   19.4173 H   0  0  0  0  0  0  0  0  0  0  0  0
   50.4792    8.4076   21.0683 H   0  0  0  0  0  0  0  0  0  0  0  0
   49.4032   10.4822   21.4898 H   0  0  0  0  0  0  0  0  0  0  0  0
   48.7607    8.5100   17.7085 H   0  0  0  0  0  0  0  0  0  0  0  0
   48.1846   12.4461   20.6708 H   0  0  0  0  0  0  0  0  0  0  0  0
   47.5337   10.4708   16.8952 H   0  0  0  0  0  0  0  0  0  0  0  0
   50.8134    6.8464   22.5478 H   0  0  0  0  0  0  0  0  0  0  0  0
   49.3030    6.1972   23.2107 H   0  0  0  0  0  0  0  0  0  0  0  0
   47.6220    4.9434   21.6244 H   0  0  0  0  0  0  0  0  0  0  0  0
   48.8939    3.7195   21.7526 H   0  0  0  0  0  0  0  0  0  0  0  0
   49.0209    3.6178   19.5685 H   0  0  0  0  0  0  0  0  0  0  0  0
   51.2848    4.4735   22.2303 H   0  0  0  0  0  0  0  0  0  0  0  0
   46.2809   13.0981   18.9820 H   0  0  0  0  0  0  0  0  0  0  0  0
   46.4379   12.5641   17.3294 H   0  0  0  0  0  0  0  0  0  0  0  0
   48.4780   14.2927   18.8533 H   0  0  0  0  0  0  0  0  0  0  0  0
   47.2788   14.8968   17.7323 H   0  0  0  0  0  0  0  0  0  0  0  0
   45.9370   16.9559   14.8209 H   0  0  0  0  0  0  0  0  0  0  0  0
   46.3849   16.4713   13.1870 H   0  0  0  0  0  0  0  0  0  0  0  0
   48.6967   15.8951   14.0129 H   0  0  0  0  0  0  0  0  0  0  0  0
   48.2070   16.3548   15.6458 H   0  0  0  0  0  0  0  0  0  0  0  0
   49.6320   13.0577   17.0603 H   0  0  0  0  0  0  0  0  0  0  0  0
   49.5256   14.7686   16.7271 H   0  0  0  0  0  0  0  0  0  0  0  0
   49.1406   13.4710   14.7003 H   0  0  0  0  0  0  0  0  0  0  0  0
   47.8639   12.5423   15.4515 H   0  0  0  0  0  0  0  0  0  0  0  0
   46.8981   14.1589   13.9534 H   0  0  0  0  0  0  0  0  0  0  0  0
   46.4230   14.5719   15.5910 H   0  0  0  0  0  0  0  0  0  0  0  0
   48.1511   18.2326   13.1332 H   0  0  0  0  0  0  0  0  0  0  0  0
   46.5565   18.9258   13.4719 H   0  0  0  0  0  0  0  0  0  0  0  0
   47.7264   18.7158   14.7860 H   0  0  0  0  0  0  0  0  0  0  0  0
   47.5994    5.1001   21.8630 H   0  0  0  0  0  0  0  0  0  0  0  0
   51.1367    7.2228   20.5565 H   0  0  0  0  0  0  0  0  0  0  0  0
   49.5461    7.8032   21.0807 H   0  0  0  0  0  0  0  0  0  0  0  0
   50.5625    9.3530   19.4338 H   0  0  0  0  0  0  0  0  0  0  0  0
   50.7860    8.0331   18.2969 H   0  0  0  0  0  0  0  0  0  0  0  0
   48.8878    9.3949   17.6262 H   0  0  0  0  0  0  0  0  0  0  0  0
   48.4055    7.7487   17.9598 H   0  0  0  0  0  0  0  0  0  0  0  0
   47.4246    8.3704   20.1106 H   0  0  0  0  0  0  0  0  0  0  0  0
   46.7391    9.3068   18.8082 H   0  0  0  0  0  0  0  0  0  0  0  0
   48.7846   10.2500   20.8741 H   0  0  0  0  0  0  0  0  0  0  0  0
   47.0967   10.7046   20.7680 H   0  0  0  0  0  0  0  0  0  0  0  0
   49.3012   11.4543   18.7890 H   0  0  0  0  0  0  0  0  0  0  0  0
   48.5503   12.5007   19.9809 H   0  0  0  0  0  0  0  0  0  0  0  0
   46.3172   12.1605   18.8248 H   0  0  0  0  0  0  0  0  0  0  0  0
   47.1424   11.2727   17.5492 H   0  0  0  0  0  0  0  0  0  0  0  0
   47.7067   14.1796   18.3325 H   0  0  0  0  0  0  0  0  0  0  0  0
   46.6852   13.6502   16.9995 H   0  0  0  0  0  0  0  0  0  0  0  0
   48.6703   12.5199   15.9345 H   0  0  0  0  0  0  0  0  0  0  0  0
   49.6808   13.0651   17.2675 H   0  0  0  0  0  0  0  0  0  0  0  0
   49.1969   15.4463   16.6911 H   0  0  0  0  0  0  0  0  0  0  0  0
   50.0636   14.5452   15.4518 H   0  0  0  0  0  0  0  0  0  0  0  0
   47.8932   14.1960   14.2090 H   0  0  0  0  0  0  0  0  0  0  0  0
   47.0693   15.2014   15.4025 H   0  0  0  0  0  0  0  0  0  0  0  0
   47.6649   16.5305   13.4185 H   0  0  0  0  0  0  0  0  0  0  0  0
   48.5511   17.1247   14.8344 H   0  0  0  0  0  0  0  0  0  0  0  0
   49.3793   16.1256   13.6231 H   0  0  0  0  0  0  0  0  0  0  0  0
  1  2  1  0
  1  3  1  0
  3  6  1  0
  4  6  1  0
  4  7  2  0
  4  8  1  0
  5  9  2  0
  7  9  1  0
  5 10  1  0
  8 10  2  0
  1 11  1  0
  1 12  1  0
 12 13  1  0
 11 14  1  0
  5 15  1  0
 15 16  1  0
 17 18  1  0
 16 19  1  0
 19 20  1  0
 18 21  1  0
 20 21  1  0
 17 22  1  0
 23 24  1  0
 23 25  1  0
 23 26  2  0
 23 27  2  0
 24 28  1  0
 28 29  1  0
 29 30  1  0
 30 31  1  0
 31 32  1  0
 32 33  1  0
 33 34  1  0
 34 35  1  0
 35 36  1  0
 36 37  1  0
 37 38  1  0
 38 39  1  0
  2 40  1  0
  2 41  1  0
  3 42  1  0
  3 43  1  0
  6 44  1  0
  6 45  1  0
  7 46  1  0
  8 47  1  0
  9 48  1  0
 10 49  1  0
 11 50  1  0
 11 51  1  0
 12 52  1  0
 12 53  1  0
 13 54  1  0
 14 55  1  0
 15 56  1  0
 15 57  1  0
 16 58  1  0
 16 59  1  0
 17 60  1  0
 17 61  1  0
 18 62  1  0
 18 63  1  0
 19 64  1  0
 19 65  1  0
 20 66  1  0
 20 67  1  0
 21 68  1  0
 21 69  1  0
 22 70  1  0
 22 71  1  0
 22 72  1  0
 25 73  1  0
 28 74  1  0
 28 75  1  0
 29 76  1  0
 29 77  1  0
 30 78  1  0
 30 79  1  0
 31 80  1  0
 31 81  1  0
 32 82  1  0
 32 83  1  0
 33 84  1  0
 33 85  1  0
 34 86  1  0
 34 87  1  0
 35 88  1  0
 35 89  1  0
 36 90  1  0
 36 91  1  0
 37 92  1  0
 37 93  1  0
 38 94  1  0
 38 95  1  0
 39 96  1  0
 39 97  1  0
 39 98  1  0
M  END
> <Uni-Dock RESULT> 
ENERGY=   -5.130  LOWER_BOUND=    5.850  UPPER_BOUND=    7.780
INTER + INTRA:          -5.130
INTER:                  -5.130
INTRA:                   0.000
UNBOUND:                 0.000

$$$$

     RDKit          3D

 98 97  0  0  0  0  0  0  0  0999 V2000
   48.3261    8.6427   20.2806 C   0  0  0  0  0  0  0  0  0  0  0  0
   49.5289    9.2935   20.8748 N   0  0  0  0  0  0  0  0  0  0  0  0
   48.5866    8.2068   18.8151 C   0  0  0  0  0  0  0  0  0  0  0  0
   49.1713    8.8181   16.4394 C   0  0  0  0  0  0  0  0  0  0  0  0
   49.3611    7.8740   13.7857 C   0  0  0  0  0  0  0  0  0  0  0  0
   49.0607    9.3140   17.8622 C   0  0  0  0  0  0  0  0  0  0  0  0
   48.2365    9.2120   15.4743 C   0  0  0  0  0  0  0  0  0  0  0  0
   50.2010    7.9463   16.0653 C   0  0  0  0  0  0  0  0  0  0  0  0
   48.3319    8.7447   14.1609 C   0  0  0  0  0  0  0  0  0  0  0  0
   50.2930    7.4776   14.7519 C   0  0  0  0  0  0  0  0  0  0  0  0
   47.1297    9.6224   20.3810 C   0  0  0  0  0  0  0  0  0  0  0  0
   48.0044    7.3794   21.1307 C   0  0  0  0  0  0  0  0  0  0  0  0
   49.1668    6.5609   21.2817 O   0  0  0  0  0  0  0  0  0  0  0  0
   47.0166   10.1269   21.7133 O   0  0  0  0  0  0  0  0  0  0  0  0
   49.4612    7.3719   12.3655 C   0  0  0  0  0  0  0  0  0  0  0  0
   49.9051    8.4416   11.3614 C   0  0  0  0  0  0  0  0  0  0  0  0
   52.8296    7.0372    7.6896 C   0  0  0  0  0  0  0  0  0  0  0  0
   52.7390    7.9232    8.9327 C   0  0  0  0  0  0  0  0  0  0  0  0
   51.3327    8.9679   11.5558 C   0  0  0  0  0  0  0  0  0  0  0  0
   52.4468    7.9188   11.4744 C   0  0  0  0  0  0  0  0  0  0  0  0
   52.4859    7.0874   10.1891 C   0  0  0  0  0  0  0  0  0  0  0  0
   53.1270    7.8539    6.4417 C   0  0  0  0  0  0  0  0  0  0  0  0
   48.5690    8.2094   20.9105 S   0  0  0  0  0  0  0  0  0  0  0  0
   49.4658    8.3026   19.5617 O   0  0  0  0  0  0  0  0  0  0  0  0
   47.1113    7.8208   20.3445 O   0  0  0  0  0  0  0  0  0  0  0  0
   48.9979    7.0476   21.6564 O   0  0  0  0  0  0  0  0  0  0  0  0
   48.4779    9.5199   21.5101 O   0  0  0  0  0  0  0  0  0  0  0  0
   49.1356    9.3035   18.6128 C   0  0  0  0  0  0  0  0  0  0  0  0
   50.1180    9.2510   17.4466 C   0  0  0  0  0  0  0  0  0  0  0  0
   50.2371    7.8805   16.7710 C   0  0  0  0  0  0  0  0  0  0  0  0
   48.9322    7.2969   16.2218 C   0  0  0  0  0  0  0  0  0  0  0  0
   48.1899    8.1696   15.2055 C   0  0  0  0  0  0  0  0  0  0  0  0
   49.0047    8.5968   13.9796 C   0  0  0  0  0  0  0  0  0  0  0  0
   49.5449    7.4177   13.1657 C   0  0  0  0  0  0  0  0  0  0  0  0
   50.1852    7.8388   11.8369 C   0  0  0  0  0  0  0  0  0  0  0  0
   51.4609    8.6666   12.0153 C   0  0  0  0  0  0  0  0  0  0  0  0
   52.1065    9.0846   10.6903 C   0  0  0  0  0  0  0  0  0  0  0  0
   52.6858    7.9114    9.8986 C   0  0  0  0  0  0  0  0  0  0  0  0
   53.4152    8.3922    8.6533 C   0  0  0  0  0  0  0  0  0  0  0  0
   49.6974   10.1858   20.4070 H   0  0  0  0  0  0  0  0  0  0  0  0
   50.3446    8.7216   20.6471 H   0  0  0  0  0  0  0  0  0  0  0  0
   49.3298    7.3962   18.8033 H   0  0  0  0  0  0  0  0  0  0  0  0
   47.6614    7.7669   18.4138 H   0  0  0  0  0  0  0  0  0  0  0  0
   50.0421    9.6941   18.1721 H   0  0  0  0  0  0  0  0  0  0  0  0
   48.3780   10.1699   17.8907 H   0  0  0  0  0  0  0  0  0  0  0  0
   47.4229    9.8834   15.7355 H   0  0  0  0  0  0  0  0  0  0  0  0
   50.9386    7.6214   16.7950 H   0  0  0  0  0  0  0  0  0  0  0  0
   47.5925    9.0646   13.4304 H   0  0  0  0  0  0  0  0  0  0  0  0
   51.1006    6.7958   14.4920 H   0  0  0  0  0  0  0  0  0  0  0  0
   47.2536   10.4893   19.7269 H   0  0  0  0  0  0  0  0  0  0  0  0
   46.1871    9.1295   20.1215 H   0  0  0  0  0  0  0  0  0  0  0  0
   47.2285    6.7739   20.6510 H   0  0  0  0  0  0  0  0  0  0  0  0
   47.6531    7.6378   22.1361 H   0  0  0  0  0  0  0  0  0  0  0  0
   49.7520    7.0716   21.8695 H   0  0  0  0  0  0  0  0  0  0  0  0
   47.9368   10.1725   22.0478 H   0  0  0  0  0  0  0  0  0  0  0  0
   48.4726    6.9986   12.0672 H   0  0  0  0  0  0  0  0  0  0  0  0
   50.1250    6.5001   12.3167 H   0  0  0  0  0  0  0  0  0  0  0  0
   49.2173    9.2957   11.4040 H   0  0  0  0  0  0  0  0  0  0  0  0
   49.8066    8.0303   10.3499 H   0  0  0  0  0  0  0  0  0  0  0  0
   51.8863    6.4983    7.5492 H   0  0  0  0  0  0  0  0  0  0  0  0
   53.6141    6.2847    7.8215 H   0  0  0  0  0  0  0  0  0  0  0  0
   53.6725    8.4858    9.0504 H   0  0  0  0  0  0  0  0  0  0  0  0
   51.9339    8.6540    8.7922 H   0  0  0  0  0  0  0  0  0  0  0  0
   51.4033    9.4734   12.5271 H   0  0  0  0  0  0  0  0  0  0  0  0
   51.5158    9.7467   10.8060 H   0  0  0  0  0  0  0  0  0  0  0  0
   53.4098    8.4310   11.5947 H   0  0  0  0  0  0  0  0  0  0  0  0
   52.3658    7.2343   12.3261 H   0  0  0  0  0  0  0  0  0  0  0  0
   53.2900    6.3475   10.2891 H   0  0  0  0  0  0  0  0  0  0  0  0
   51.5565    6.5176   10.0797 H   0  0  0  0  0  0  0  0  0  0  0  0
   54.0894    8.3664    6.5309 H   0  0  0  0  0  0  0  0  0  0  0  0
   53.1698    7.2016    5.5638 H   0  0  0  0  0  0  0  0  0  0  0  0
   52.3519    8.6064    6.2688 H   0  0  0  0  0  0  0  0  0  0  0  0
   46.9823    6.8678   20.5388 H   0  0  0  0  0  0  0  0  0  0  0  0
   49.1921   10.2915   19.0826 H   0  0  0  0  0  0  0  0  0  0  0  0
   48.1107    9.1550   18.2576 H   0  0  0  0  0  0  0  0  0  0  0  0
   49.8470   10.0162   16.7113 H   0  0  0  0  0  0  0  0  0  0  0  0
   51.1137    9.5170   17.8207 H   0  0  0  0  0  0  0  0  0  0  0  0
   50.9738    7.9561   15.9628 H   0  0  0  0  0  0  0  0  0  0  0  0
   50.6567    7.1629   17.4873 H   0  0  0  0  0  0  0  0  0  0  0  0
   48.2524    7.0821   17.0549 H   0  0  0  0  0  0  0  0  0  0  0  0
   49.1526    6.3230   15.7679 H   0  0  0  0  0  0  0  0  0  0  0  0
   47.8141    9.0700   15.7053 H   0  0  0  0  0  0  0  0  0  0  0  0
   47.3027    7.6211   14.8650 H   0  0  0  0  0  0  0  0  0  0  0  0
   49.8259    9.2483   14.2963 H   0  0  0  0  0  0  0  0  0  0  0  0
   48.3566    9.2070   13.3378 H   0  0  0  0  0  0  0  0  0  0  0  0
   48.7219    6.7269   12.9442 H   0  0  0  0  0  0  0  0  0  0  0  0
   50.2795    6.8546   13.7530 H   0  0  0  0  0  0  0  0  0  0  0  0
   49.4568    8.4040   11.2420 H   0  0  0  0  0  0  0  0  0  0  0  0
   50.4132    6.9258   11.2749 H   0  0  0  0  0  0  0  0  0  0  0  0
   52.1864    8.1096   12.6190 H   0  0  0  0  0  0  0  0  0  0  0  0
   51.2248    9.5820   12.5684 H   0  0  0  0  0  0  0  0  0  0  0  0
   51.3742    9.6218   10.0759 H   0  0  0  0  0  0  0  0  0  0  0  0
   52.9130    9.7946   10.9135 H   0  0  0  0  0  0  0  0  0  0  0  0
   53.3815    7.3434   10.5273 H   0  0  0  0  0  0  0  0  0  0  0  0
   51.8900    7.2247    9.5915 H   0  0  0  0  0  0  0  0  0  0  0  0
   53.8218    7.5398    8.0994 H   0  0  0  0  0  0  0  0  0  0  0  0
   52.7361    8.9369    7.9884 H   0  0  0  0  0  0  0  0  0  0  0  0
   54.2450    9.0560    8.9159 H   0  0  0  0  0  0  0  0  0  0  0  0
  1  2  1  0
  1  3  1  0
  3  6  1  0
  4  6  1  0
  4  7  2  0
  4  8  1  0
  5  9  2  0
  7  9  1  0
  5 10  1  0
  8 10  2  0
  1 11  1  0
  1 12  1  0
 12 13  1  0
 11 14  1  0
  5 15  1  0
 15 16  1  0
 17 18  1  0
 16 19  1  0
 19 20  1  0
 18 21  1  0
 20 21  1  0
 17 22  1  0
 23 24  1  0
 23 25  1  0
 23 26  2  0
 23 27  2  0
 24 28  1  0
 28 29  1  0
 29 30  1  0
 30 31  1  0
 31 32  1  0
 32 33  1  0
 33 34  1  0
 34 35  1  0
 35 36  1  0
 36 37  1  0
 37 38  1  0
 38 39  1  0
  2 40  1  0
  2 41  1  0
  3 42  1  0
  3 43  1  0
  6 44  1  0
  6 45  1  0
  7 46  1  0
  8 47  1  0
  9 48  1  0
 10 49  1  0
 11 50  1  0
 11 51  1  0
 12 52  1  0
 12 53  1  0
 13 54  1  0
 14 55  1  0
 15 56  1  0
 15 57  1  0
 16 58  1  0
 16 59  1  0
 17 60  1  0
 17 61  1  0
 18 62  1  0
 18 63  1  0
 19 64  1  0
 19 65  1  0
 20 66  1  0
 20 67  1  0
 21 68  1  0
 21 69  1  0
 22 70  1  0
 22 71  1  0
 22 72  1  0
 25 73  1  0
 28 74  1  0
 28 75  1  0
 29 76  1  0
 29 77  1  0
 30 78  1  0
 30 79  1  0
 31 80  1  0
 31 81  1  0
 32 82  1  0
 32 83  1  0
 33 84  1  0
 33 85  1  0
 34 86  1  0
 34 87  1  0
 35 88  1  0
 35 89  1  0
 36 90  1  0
 36 91  1  0
 37 92  1  0
 37 93  1  0
 38 94  1  0
 38 95  1  0
 39 96  1  0
 39 97  1  0
 39 98  1  0
M  END
> <Uni-Dock RESULT> 
ENERGY=   -4.968  LOWER_BOUND=    3.519  UPPER_BOUND=    4.915
INTER + INTRA:          -4.968
INTER:                  -4.968
INTRA:                   0.000
UNBOUND:                 0.000

$$$$
