
     RDKit          3D

 98 97  0  0  0  0  0  0  0  0999 V2000
   43.9006    4.5717   11.0397 C   0  0  0  0  0  0  0  0  0  0  0  0
   43.9649    4.3510    9.5613 N   0  0  0  0  0  0  0  0  0  0  0  0
   45.1179    5.4645   11.4105 C   0  0  0  0  0  0  0  0  0  0  0  0
   46.6166    6.5651   13.0949 C   0  0  0  0  0  0  0  0  0  0  0  0
   48.7158    8.4160   13.4148 C   0  0  0  0  0  0  0  0  0  0  0  0
   45.4857    5.5790   12.8964 C   0  0  0  0  0  0  0  0  0  0  0  0
   46.3425    7.9273   13.2683 C   0  0  0  0  0  0  0  0  0  0  0  0
   47.9493    6.1371   13.0737 C   0  0  0  0  0  0  0  0  0  0  0  0
   47.3831    8.8450   13.4266 C   0  0  0  0  0  0  0  0  0  0  0  0
   48.9899    7.0548   13.2324 C   0  0  0  0  0  0  0  0  0  0  0  0
   42.5390    5.2715   11.3257 C   0  0  0  0  0  0  0  0  0  0  0  0
   43.9555    3.1688   11.7059 C   0  0  0  0  0  0  0  0  0  0  0  0
   43.7247    3.1924   13.1069 O   0  0  0  0  0  0  0  0  0  0  0  0
   42.4586    5.8961   12.5980 O   0  0  0  0  0  0  0  0  0  0  0  0
   49.8424    9.4085   13.5639 C   0  0  0  0  0  0  0  0  0  0  0  0
   50.2532    9.9990   12.2122 C   0  0  0  0  0  0  0  0  0  0  0  0
   53.9769   11.5021   14.6059 C   0  0  0  0  0  0  0  0  0  0  0  0
   53.3886   12.8971   14.4026 C   0  0  0  0  0  0  0  0  0  0  0  0
   51.5082   10.8731   12.2935 C   0  0  0  0  0  0  0  0  0  0  0  0
   51.2942   12.1694   13.0826 C   0  0  0  0  0  0  0  0  0  0  0  0
   52.5484   13.0495   13.1298 C   0  0  0  0  0  0  0  0  0  0  0  0
   54.9228   11.4645   15.7966 C   0  0  0  0  0  0  0  0  0  0  0  0
   53.4857   10.4618   15.9705 S   0  0  0  0  0  0  0  0  0  0  0  0
   53.2056   10.5942   14.3771 O   0  0  0  0  0  0  0  0  0  0  0  0
   52.1764   11.1531   16.6036 O   0  0  0  0  0  0  0  0  0  0  0  0
   53.4807    9.0672   16.3458 O   0  0  0  0  0  0  0  0  0  0  0  0
   54.5796   11.3457   16.3035 O   0  0  0  0  0  0  0  0  0  0  0  0
   52.3369    9.6465   13.7741 C   0  0  0  0  0  0  0  0  0  0  0  0
   52.1014   10.0656   12.3261 C   0  0  0  0  0  0  0  0  0  0  0  0
   51.1899    9.1096   11.5545 C   0  0  0  0  0  0  0  0  0  0  0  0
   49.7131    9.5183   11.5141 C   0  0  0  0  0  0  0  0  0  0  0  0
   49.0296    9.5433   12.8828 C   0  0  0  0  0  0  0  0  0  0  0  0
   47.5127    9.7440   12.7833 C   0  0  0  0  0  0  0  0  0  0  0  0
   46.6878    8.4580   12.9219 C   0  0  0  0  0  0  0  0  0  0  0  0
   46.9430    7.4296   11.8188 C   0  0  0  0  0  0  0  0  0  0  0  0
   46.0675    6.1770   11.9456 C   0  0  0  0  0  0  0  0  0  0  0  0
   44.5854    6.4447   11.6684 C   0  0  0  0  0  0  0  0  0  0  0  0
   43.7454    5.1668   11.5987 C   0  0  0  0  0  0  0  0  0  0  0  0
   43.6708    4.4198   12.9213 C   0  0  0  0  0  0  0  0  0  0  0  0
   44.8573    3.9150    9.3260 H   0  0  0  0  0  0  0  0  0  0  0  0
   43.9782    5.2592    9.0939 H   0  0  0  0  0  0  0  0  0  0  0  0
   46.0087    5.0818   10.8900 H   0  0  0  0  0  0  0  0  0  0  0  0
   44.9513    6.4703   10.9981 H   0  0  0  0  0  0  0  0  0  0  0  0
   44.6391    5.8943   13.5118 H   0  0  0  0  0  0  0  0  0  0  0  0
   45.8056    4.6065   13.2877 H   0  0  0  0  0  0  0  0  0  0  0  0
   45.3128    8.2783   13.2800 H   0  0  0  0  0  0  0  0  0  0  0  0
   48.1847    5.0851   12.9327 H   0  0  0  0  0  0  0  0  0  0  0  0
   47.1459    9.8981   13.5583 H   0  0  0  0  0  0  0  0  0  0  0  0
   50.0178    6.7006   13.2108 H   0  0  0  0  0  0  0  0  0  0  0  0
   42.3603    6.0637   10.5879 H   0  0  0  0  0  0  0  0  0  0  0  0
   41.7156    4.5525   11.2353 H   0  0  0  0  0  0  0  0  0  0  0  0
   43.1935    2.5144   11.2652 H   0  0  0  0  0  0  0  0  0  0  0  0
   44.9329    2.7032   11.5309 H   0  0  0  0  0  0  0  0  0  0  0  0
   43.7371    2.2714   13.4160 H   0  0  0  0  0  0  0  0  0  0  0  0
   41.5189    6.0719   12.7702 H   0  0  0  0  0  0  0  0  0  0  0  0
   49.5282   10.2001   14.2540 H   0  0  0  0  0  0  0  0  0  0  0  0
   50.7004    8.9152   14.0383 H   0  0  0  0  0  0  0  0  0  0  0  0
   50.4544    9.1837   11.5049 H   0  0  0  0  0  0  0  0  0  0  0  0
   49.4240   10.5788   11.7871 H   0  0  0  0  0  0  0  0  0  0  0  0
   54.5196   11.1890   13.7068 H   0  0  0  0  0  0  0  0  0  0  0  0
   53.1744   10.7781   14.7812 H   0  0  0  0  0  0  0  0  0  0  0  0
   52.7781   13.1665   15.2737 H   0  0  0  0  0  0  0  0  0  0  0  0
   54.2054   13.6281   14.3589 H   0  0  0  0  0  0  0  0  0  0  0  0
   51.8113   11.1293   11.2700 H   0  0  0  0  0  0  0  0  0  0  0  0
   52.3276   10.2866   12.7203 H   0  0  0  0  0  0  0  0  0  0  0  0
   50.9438   11.9622   14.0988 H   0  0  0  0  0  0  0  0  0  0  0  0
   50.4965   12.7354   12.5849 H   0  0  0  0  0  0  0  0  0  0  0  0
   53.1745   12.8831   12.2449 H   0  0  0  0  0  0  0  0  0  0  0  0
   52.2264   14.0981   13.0835 H   0  0  0  0  0  0  0  0  0  0  0  0
   55.7712   12.1392   15.6472 H   0  0  0  0  0  0  0  0  0  0  0  0
   55.3148   10.4527   15.9363 H   0  0  0  0  0  0  0  0  0  0  0  0
   54.4079   11.7590   16.7165 H   0  0  0  0  0  0  0  0  0  0  0  0
   52.3747   12.1076   16.6927 H   0  0  0  0  0  0  0  0  0  0  0  0
   51.3984    9.6079   14.3326 H   0  0  0  0  0  0  0  0  0  0  0  0
   52.8052    8.6567   13.8042 H   0  0  0  0  0  0  0  0  0  0  0  0
   51.7241   11.0944   12.2832 H   0  0  0  0  0  0  0  0  0  0  0  0
   53.0795   10.0963   11.8281 H   0  0  0  0  0  0  0  0  0  0  0  0
   51.5399    9.0796   10.5143 H   0  0  0  0  0  0  0  0  0  0  0  0
   51.2857    8.0874   11.9384 H   0  0  0  0  0  0  0  0  0  0  0  0
   49.6256   10.5081   11.0480 H   0  0  0  0  0  0  0  0  0  0  0  0
   49.1925    8.8214   10.8488 H   0  0  0  0  0  0  0  0  0  0  0  0
   49.2600    8.6330   13.4475 H   0  0  0  0  0  0  0  0  0  0  0  0
   49.4388   10.3867   13.4522 H   0  0  0  0  0  0  0  0  0  0  0  0
   47.2062   10.4092   13.6012 H   0  0  0  0  0  0  0  0  0  0  0  0
   47.2482   10.2608   11.8533 H   0  0  0  0  0  0  0  0  0  0  0  0
   46.8886    8.0033   13.9001 H   0  0  0  0  0  0  0  0  0  0  0  0
   45.6304    8.7458   12.9219 H   0  0  0  0  0  0  0  0  0  0  0  0
   46.7899    7.8898   10.8354 H   0  0  0  0  0  0  0  0  0  0  0  0
   47.9886    7.1045   11.8637 H   0  0  0  0  0  0  0  0  0  0  0  0
   46.1958    5.7473   12.9457 H   0  0  0  0  0  0  0  0  0  0  0  0
   46.4345    5.4313   11.2300 H   0  0  0  0  0  0  0  0  0  0  0  0
   44.4884    6.9714   10.7113 H   0  0  0  0  0  0  0  0  0  0  0  0
   44.1684    7.1035   12.4378 H   0  0  0  0  0  0  0  0  0  0  0  0
   42.7274    5.4370   11.2924 H   0  0  0  0  0  0  0  0  0  0  0  0
   44.1419    4.5000   10.8244 H   0  0  0  0  0  0  0  0  0  0  0  0
   43.3118    5.0742   13.7217 H   0  0  0  0  0  0  0  0  0  0  0  0
   44.6464    4.0191   13.2114 H   0  0  0  0  0  0  0  0  0  0  0  0
   42.9776    3.5767   12.8380 H   0  0  0  0  0  0  0  0  0  0  0  0
  1  2  1  0
  1  3  1  0
  3  6  1  0
  4  6  1  0
  4  7  2  0
  4  8  1  0
  5  9  2  0
  7  9  1  0
  5 10  1  0
  8 10  2  0
  1 11  1  0
  1 12  1  0
 12 13  1  0
 11 14  1  0
  5 15  1  0
 15 16  1  0
 17 18  1  0
 16 19  1  0
 19 20  1  0
 18 21  1  0
 20 21  1  0
 17 22  1  0
 23 24  1  0
 23 25  1  0
 23 26  2  0
 23 27  2  0
 24 28  1  0
 28 29  1  0
 29 30  1  0
 30 31  1  0
 31 32  1  0
 32 33  1  0
 33 34  1  0
 34 35  1  0
 35 36  1  0
 36 37  1  0
 37 38  1  0
 38 39  1  0
  2 40  1  0
  2 41  1  0
  3 42  1  0
  3 43  1  0
  6 44  1  0
  6 45  1  0
  7 46  1  0
  8 47  1  0
  9 48  1  0
 10 49  1  0
 11 50  1  0
 11 51  1  0
 12 52  1  0
 12 53  1  0
 13 54  1  0
 14 55  1  0
 15 56  1  0
 15 57  1  0
 16 58  1  0
 16 59  1  0
 17 60  1  0
 17 61  1  0
 18 62  1  0
 18 63  1  0
 19 64  1  0
 19 65  1  0
 20 66  1  0
 20 67  1  0
 21 68  1  0
 21 69  1  0
 22 70  1  0
 22 71  1  0
 22 72  1  0
 25 73  1  0
 28 74  1  0
 28 75  1  0
 29 76  1  0
 29 77  1  0
 30 78  1  0
 30 79  1  0
 31 80  1  0
 31 81  1  0
 32 82  1  0
 32 83  1  0
 33 84  1  0
 33 85  1  0
 34 86  1  0
 34 87  1  0
 35 88  1  0
 35 89  1  0
 36 90  1  0
 36 91  1  0
 37 92  1  0
 37 93  1  0
 38 94  1  0
 38 95  1  0
 39 96  1  0
 39 97  1  0
 39 98  1  0
M  END
> <Uni-Dock RESULT> 
ENERGY=   -6.252  LOWER_BOUND=    0.000  UPPER_BOUND=    0.000
INTER + INTRA:          -6.252
INTER:                  -6.252
INTRA:                   0.000
UNBOUND:                 0.000

$$$$

     RDKit          3D

 98 97  0  0  0  0  0  0  0  0999 V2000
   43.9205    4.7307   12.2464 C   0  0  0  0  0  0  0  0  0  0  0  0
   43.8628    3.6025   13.2273 N   0  0  0  0  0  0  0  0  0  0  0  0
   45.1482    5.5999   12.6383 C   0  0  0  0  0  0  0  0  0  0  0  0
   46.5564    7.6634   12.4061 C   0  0  0  0  0  0  0  0  0  0  0  0
   48.9911    8.8601   13.1646 C   0  0  0  0  0  0  0  0  0  0  0  0
   45.2574    6.9959   12.0091 C   0  0  0  0  0  0  0  0  0  0  0  0
   47.7164    7.4556   11.6496 C   0  0  0  0  0  0  0  0  0  0  0  0
   46.6259    8.4671   13.5502 C   0  0  0  0  0  0  0  0  0  0  0  0
   48.9234    8.0486   12.0257 C   0  0  0  0  0  0  0  0  0  0  0  0
   47.8328    9.0605   13.9261 C   0  0  0  0  0  0  0  0  0  0  0  0
   44.0720    4.0865   10.8366 C   0  0  0  0  0  0  0  0  0  0  0  0
   42.5745    5.4982   12.3651 C   0  0  0  0  0  0  0  0  0  0  0  0
   42.3966    6.4964   11.3710 O   0  0  0  0  0  0  0  0  0  0  0  0
   44.5182    4.9819    9.8295 O   0  0  0  0  0  0  0  0  0  0  0  0
   50.2987    9.4844   13.5851 C   0  0  0  0  0  0  0  0  0  0  0  0
   51.1084    8.5423   14.4805 C   0  0  0  0  0  0  0  0  0  0  0  0
   53.6112   12.3930   15.3544 C   0  0  0  0  0  0  0  0  0  0  0  0
   54.7236   11.6965   14.5728 C   0  0  0  0  0  0  0  0  0  0  0  0
   52.3565    9.2016   15.0751 C   0  0  0  0  0  0  0  0  0  0  0  0
   53.4235    9.5355   14.0269 C   0  0  0  0  0  0  0  0  0  0  0  0
   54.6798   10.1659   14.6387 C   0  0  0  0  0  0  0  0  0  0  0  0
   53.8062   13.9014   15.3767 C   0  0  0  0  0  0  0  0  0  0  0  0
   52.3528   13.3627   14.5412 S   0  0  0  0  0  0  0  0  0  0  0  0
   52.5137   11.8953   15.2161 O   0  0  0  0  0  0  0  0  0  0  0  0
   52.4852   13.0302   12.9712 O   0  0  0  0  0  0  0  0  0  0  0  0
   51.0183   13.8595   14.7820 O   0  0  0  0  0  0  0  0  0  0  0  0
   53.5321   14.1322   14.8664 O   0  0  0  0  0  0  0  0  0  0  0  0
   51.3766   11.0448   15.2363 C   0  0  0  0  0  0  0  0  0  0  0  0
   51.8082    9.6801   15.7646 C   0  0  0  0  0  0  0  0  0  0  0  0
   50.6628    8.6700   15.8539 C   0  0  0  0  0  0  0  0  0  0  0  0
   50.5302    7.7368   14.6450 C   0  0  0  0  0  0  0  0  0  0  0  0
   50.1977    8.4504   13.3330 C   0  0  0  0  0  0  0  0  0  0  0  0
   49.8620    7.4758   12.1978 C   0  0  0  0  0  0  0  0  0  0  0  0
   48.3618    7.2979   11.9314 C   0  0  0  0  0  0  0  0  0  0  0  0
   47.5857    6.6958   13.1039 C   0  0  0  0  0  0  0  0  0  0  0  0
   46.0999    6.4747   12.7957 C   0  0  0  0  0  0  0  0  0  0  0  0
   45.8540    5.3668   11.7675 C   0  0  0  0  0  0  0  0  0  0  0  0
   44.3738    5.0106   11.6084 C   0  0  0  0  0  0  0  0  0  0  0  0
   43.5383    6.1430   11.0315 C   0  0  0  0  0  0  0  0  0  0  0  0
   43.7888    3.9829   14.1717 H   0  0  0  0  0  0  0  0  0  0  0  0
   44.7545    3.1043   13.2077 H   0  0  0  0  0  0  0  0  0  0  0  0
   45.1475    5.7412   13.7296 H   0  0  0  0  0  0  0  0  0  0  0  0
   46.0631    5.0299   12.4207 H   0  0  0  0  0  0  0  0  0  0  0  0
   45.2027    6.9660   10.9178 H   0  0  0  0  0  0  0  0  0  0  0  0
   44.4290    7.6317   12.3418 H   0  0  0  0  0  0  0  0  0  0  0  0
   47.6821    6.8279   10.7616 H   0  0  0  0  0  0  0  0  0  0  0  0
   45.7390    8.6353   14.1562 H   0  0  0  0  0  0  0  0  0  0  0  0
   49.8115    7.8717   11.4235 H   0  0  0  0  0  0  0  0  0  0  0  0
   47.8643    9.6795   14.8195 H   0  0  0  0  0  0  0  0  0  0  0  0
   44.8111    3.2761   10.8701 H   0  0  0  0  0  0  0  0  0  0  0  0
   43.1206    3.6444   10.5164 H   0  0  0  0  0  0  0  0  0  0  0  0
   41.7346    4.7988   12.2728 H   0  0  0  0  0  0  0  0  0  0  0  0
   42.4974    5.9800   13.3474 H   0  0  0  0  0  0  0  0  0  0  0  0
   41.5154    6.8831   11.5060 H   0  0  0  0  0  0  0  0  0  0  0  0
   44.3385    4.5601    8.9732 H   0  0  0  0  0  0  0  0  0  0  0  0
   50.8684    9.7519   12.6876 H   0  0  0  0  0  0  0  0  0  0  0  0
   50.0989   10.4272   14.1100 H   0  0  0  0  0  0  0  0  0  0  0  0
   50.4786    8.1996   15.3119 H   0  0  0  0  0  0  0  0  0  0  0  0
   51.3949    7.6436   13.9196 H   0  0  0  0  0  0  0  0  0  0  0  0
   53.5857   12.0194   16.3844 H   0  0  0  0  0  0  0  0  0  0  0  0
   52.6398   12.1785   14.8968 H   0  0  0  0  0  0  0  0  0  0  0  0
   54.6871   12.0147   13.5233 H   0  0  0  0  0  0  0  0  0  0  0  0
   55.6954   12.0246   14.9623 H   0  0  0  0  0  0  0  0  0  0  0  0
   52.7886    8.5106   15.8105 H   0  0  0  0  0  0  0  0  0  0  0  0
   52.0600   10.0971   15.6299 H   0  0  0  0  0  0  0  0  0  0  0  0
   53.0211   10.1866   13.2443 H   0  0  0  0  0  0  0  0  0  0  0  0
   53.7144    8.5979   13.5362 H   0  0  0  0  0  0  0  0  0  0  0  0
   54.8191    9.8308   15.6737 H   0  0  0  0  0  0  0  0  0  0  0  0
   55.5491    9.7972   14.0785 H   0  0  0  0  0  0  0  0  0  0  0  0
   54.7455   14.1700   15.8697 H   0  0  0  0  0  0  0  0  0  0  0  0
   52.9879   14.3804   15.9224 H   0  0  0  0  0  0  0  0  0  0  0  0
   53.8224   14.3102   14.3615 H   0  0  0  0  0  0  0  0  0  0  0  0
   53.4374   13.0813   12.7497 H   0  0  0  0  0  0  0  0  0  0  0  0
   50.9644   10.9663   14.2273 H   0  0  0  0  0  0  0  0  0  0  0  0
   50.6149   11.4756   15.8950 H   0  0  0  0  0  0  0  0  0  0  0  0
   52.6393    9.2854   15.1680 H   0  0  0  0  0  0  0  0  0  0  0  0
   52.2218    9.8313   16.7705 H   0  0  0  0  0  0  0  0  0  0  0  0
   50.8459    8.0325   16.7288 H   0  0  0  0  0  0  0  0  0  0  0  0
   49.7102    9.1790   16.0409 H   0  0  0  0  0  0  0  0  0  0  0  0
   51.4625    7.1708   14.5227 H   0  0  0  0  0  0  0  0  0  0  0  0
   49.7544    6.9995   14.8767 H   0  0  0  0  0  0  0  0  0  0  0  0
   49.3813    9.1667   13.4777 H   0  0  0  0  0  0  0  0  0  0  0  0
   51.0793    9.0260   13.0257 H   0  0  0  0  0  0  0  0  0  0  0  0
   50.3057    7.8689   11.2736 H   0  0  0  0  0  0  0  0  0  0  0  0
   50.3305    6.4999   12.3709 H   0  0  0  0  0  0  0  0  0  0  0  0
   47.9249    8.2678   11.6624 H   0  0  0  0  0  0  0  0  0  0  0  0
   48.2599    6.6539   11.0507 H   0  0  0  0  0  0  0  0  0  0  0  0
   48.0450    5.7482   13.4095 H   0  0  0  0  0  0  0  0  0  0  0  0
   47.6449    7.3747   13.9622 H   0  0  0  0  0  0  0  0  0  0  0  0
   45.6590    7.4174   12.4519 H   0  0  0  0  0  0  0  0  0  0  0  0
   45.5937    6.2101   13.7320 H   0  0  0  0  0  0  0  0  0  0  0  0
   46.3927    4.4632   12.0775 H   0  0  0  0  0  0  0  0  0  0  0  0
   46.2570    5.6585   10.7917 H   0  0  0  0  0  0  0  0  0  0  0  0
   44.2952    4.1438   10.9410 H   0  0  0  0  0  0  0  0  0  0  0  0
   43.9564    4.7044   12.5746 H   0  0  0  0  0  0  0  0  0  0  0  0
   43.9549    6.4935   10.0822 H   0  0  0  0  0  0  0  0  0  0  0  0
   43.4816    6.9909   11.7203 H   0  0  0  0  0  0  0  0  0  0  0  0
   42.5162    5.7985   10.8451 H   0  0  0  0  0  0  0  0  0  0  0  0
  1  2  1  0
  1  3  1  0
  3  6  1  0
  4  6  1  0
  4  7  2  0
  4  8  1  0
  5  9  2  0
  7  9  1  0
  5 10  1  0
  8 10  2  0
  1 11  1  0
  1 12  1  0
 12 13  1  0
 11 14  1  0
  5 15  1  0
 15 16  1  0
 17 18  1  0
 16 19  1  0
 19 20  1  0
 18 21  1  0
 20 21  1  0
 17 22  1  0
 23 24  1  0
 23 25  1  0
 23 26  2  0
 23 27  2  0
 24 28  1  0
 28 29  1  0
 29 30  1  0
 30 31  1  0
 31 32  1  0
 32 33  1  0
 33 34  1  0
 34 35  1  0
 35 36  1  0
 36 37  1  0
 37 38  1  0
 38 39  1  0
  2 40  1  0
  2 41  1  0
  3 42  1  0
  3 43  1  0
  6 44  1  0
  6 45  1  0
  7 46  1  0
  8 47  1  0
  9 48  1  0
 10 49  1  0
 11 50  1  0
 11 51  1  0
 12 52  1  0
 12 53  1  0
 13 54  1  0
 14 55  1  0
 15 56  1  0
 15 57  1  0
 16 58  1  0
 16 59  1  0
 17 60  1  0
 17 61  1  0
 18 62  1  0
 18 63  1  0
 19 64  1  0
 19 65  1  0
 20 66  1  0
 20 67  1  0
 21 68  1  0
 21 69  1  0
 22 70  1  0
 22 71  1  0
 22 72  1  0
 25 73  1  0
 28 74  1  0
 28 75  1  0
 29 76  1  0
 29 77  1  0
 30 78  1  0
 30 79  1  0
 31 80  1  0
 31 81  1  0
 32 82  1  0
 32 83  1  0
 33 84  1  0
 33 85  1  0
 34 86  1  0
 34 87  1  0
 35 88  1  0
 35 89  1  0
 36 90  1  0
 36 91  1  0
 37 92  1  0
 37 93  1  0
 38 94  1  0
 38 95  1  0
 39 96  1  0
 39 97  1  0
 39 98  1  0
M  END
> <Uni-Dock RESULT> 
ENERGY=   -5.605  LOWER_BOUND=    1.778  UPPER_BOUND=    2.772
INTER + INTRA:          -5.605
INTER:                  -5.605
INTRA:                   0.000
UNBOUND:                 0.000

$$$$

     RDKit          3D

 98 97  0  0  0  0  0  0  0  0999 V2000
   43.7280    4.6417   12.5601 C   0  0  0  0  0  0  0  0  0  0  0  0
   42.9889    4.4211   13.8421 N   0  0  0  0  0  0  0  0  0  0  0  0
   44.8356    5.6906   12.8589 C   0  0  0  0  0  0  0  0  0  0  0  0
   46.6519    7.2550   12.1182 C   0  0  0  0  0  0  0  0  0  0  0  0
   48.7314    8.9262   13.0223 C   0  0  0  0  0  0  0  0  0  0  0  0
   45.5321    6.3465   11.6584 C   0  0  0  0  0  0  0  0  0  0  0  0
   47.9382    6.7411   12.3232 C   0  0  0  0  0  0  0  0  0  0  0  0
   46.4116    8.6095   12.3777 C   0  0  0  0  0  0  0  0  0  0  0  0
   48.9692    7.5694   12.7717 C   0  0  0  0  0  0  0  0  0  0  0  0
   47.4427    9.4380   12.8257 C   0  0  0  0  0  0  0  0  0  0  0  0
   44.3126    3.2603   12.1410 C   0  0  0  0  0  0  0  0  0  0  0  0
   42.6862    5.1426   11.5216 C   0  0  0  0  0  0  0  0  0  0  0  0
   43.1948    5.2297   10.1987 O   0  0  0  0  0  0  0  0  0  0  0  0
   45.3464    3.3331   11.1708 O   0  0  0  0  0  0  0  0  0  0  0  0
   49.8384    9.8183   13.5275 C   0  0  0  0  0  0  0  0  0  0  0  0
   49.9359    9.7818   15.0552 C   0  0  0  0  0  0  0  0  0  0  0  0
   52.6549   13.5340   14.4355 C   0  0  0  0  0  0  0  0  0  0  0  0
   53.7947   12.6303   14.9021 C   0  0  0  0  0  0  0  0  0  0  0  0
   50.9246   10.8063   15.6200 C   0  0  0  0  0  0  0  0  0  0  0  0
   52.3837   10.5006   15.2647 C   0  0  0  0  0  0  0  0  0  0  0  0
   53.3651   11.5154   15.8621 C   0  0  0  0  0  0  0  0  0  0  0  0
   53.1730   14.7066   13.6168 C   0  0  0  0  0  0  0  0  0  0  0  0
   52.1376   13.5932   12.7284 S   0  0  0  0  0  0  0  0  0  0  0  0
   51.6399   12.9440   14.1304 O   0  0  0  0  0  0  0  0  0  0  0  0
   52.8483   12.3407   12.0080 O   0  0  0  0  0  0  0  0  0  0  0  0
   50.9891   13.9707   11.9383 O   0  0  0  0  0  0  0  0  0  0  0  0
   53.2080   14.5184   13.0233 O   0  0  0  0  0  0  0  0  0  0  0  0
   50.4387   12.1866   14.1226 C   0  0  0  0  0  0  0  0  0  0  0  0
   50.2641   11.5507   15.4985 C   0  0  0  0  0  0  0  0  0  0  0  0
   48.9882   10.7169   15.6281 C   0  0  0  0  0  0  0  0  0  0  0  0
   49.1705    9.2157   15.3772 C   0  0  0  0  0  0  0  0  0  0  0  0
   49.6135    8.8648   13.9553 C   0  0  0  0  0  0  0  0  0  0  0  0
   49.5773    7.3570   13.6793 C   0  0  0  0  0  0  0  0  0  0  0  0
   48.3422    6.8788   12.9052 C   0  0  0  0  0  0  0  0  0  0  0  0
   47.0196    7.0964   13.6420 C   0  0  0  0  0  0  0  0  0  0  0  0
   45.8048    6.5602   12.8750 C   0  0  0  0  0  0  0  0  0  0  0  0
   45.7693    5.0315   12.7910 C   0  0  0  0  0  0  0  0  0  0  0  0
   44.4633    4.4909   12.2033 C   0  0  0  0  0  0  0  0  0  0  0  0
   44.2516    4.8742   10.7468 C   0  0  0  0  0  0  0  0  0  0  0  0
   42.6090    5.3110   14.1674 H   0  0  0  0  0  0  0  0  0  0  0  0
   43.6561    4.1353   14.5610 H   0  0  0  0  0  0  0  0  0  0  0  0
   44.3999    6.5040   13.4582 H   0  0  0  0  0  0  0  0  0  0  0  0
   45.5911    5.2250   13.5083 H   0  0  0  0  0  0  0  0  0  0  0  0
   45.9460    5.6106   10.9641 H   0  0  0  0  0  0  0  0  0  0  0  0
   44.8182    6.9462   11.0822 H   0  0  0  0  0  0  0  0  0  0  0  0
   48.1408    5.6891   12.1336 H   0  0  0  0  0  0  0  0  0  0  0  0
   45.4185    9.0274   12.2325 H   0  0  0  0  0  0  0  0  0  0  0  0
   49.9597    7.1475   12.9251 H   0  0  0  0  0  0  0  0  0  0  0  0
   47.2333   10.4867   13.0227 H   0  0  0  0  0  0  0  0  0  0  0  0
   44.7501    2.7564   13.0121 H   0  0  0  0  0  0  0  0  0  0  0  0
   43.5163    2.6111   11.7571 H   0  0  0  0  0  0  0  0  0  0  0  0
   41.8280    4.4600   11.4922 H   0  0  0  0  0  0  0  0  0  0  0  0
   42.3114    6.1330   11.8070 H   0  0  0  0  0  0  0  0  0  0  0  0
   42.4607    5.5076    9.6259 H   0  0  0  0  0  0  0  0  0  0  0  0
   45.4574    2.4400   10.8053 H   0  0  0  0  0  0  0  0  0  0  0  0
   50.7837    9.5034   13.0705 H   0  0  0  0  0  0  0  0  0  0  0  0
   49.6624   10.8456   13.1837 H   0  0  0  0  0  0  0  0  0  0  0  0
   48.9488    9.9904   15.4880 H   0  0  0  0  0  0  0  0  0  0  0  0
   50.2134    8.7744   15.3907 H   0  0  0  0  0  0  0  0  0  0  0  0
   52.1017   13.9172   15.3005 H   0  0  0  0  0  0  0  0  0  0  0  0
   51.9541   12.9648   13.8159 H   0  0  0  0  0  0  0  0  0  0  0  0
   54.2890   12.1857   14.0291 H   0  0  0  0  0  0  0  0  0  0  0  0
   54.5520   13.2409   15.4092 H   0  0  0  0  0  0  0  0  0  0  0  0
   50.8214   10.8120   16.7128 H   0  0  0  0  0  0  0  0  0  0  0  0
   50.6403   11.8062   15.2779 H   0  0  0  0  0  0  0  0  0  0  0  0
   52.5235   10.4378   14.1809 H   0  0  0  0  0  0  0  0  0  0  0  0
   52.6256    9.5099   15.6703 H   0  0  0  0  0  0  0  0  0  0  0  0
   52.9626   11.9497   16.7852 H   0  0  0  0  0  0  0  0  0  0  0  0
   54.2757   10.9742   16.1507 H   0  0  0  0  0  0  0  0  0  0  0  0
   53.8434   15.3357   14.2101 H   0  0  0  0  0  0  0  0  0  0  0  0
   52.3392   15.3273   13.2756 H   0  0  0  0  0  0  0  0  0  0  0  0
   53.7200   14.3584   12.7349 H   0  0  0  0  0  0  0  0  0  0  0  0
   53.7853   12.3446   12.2917 H   0  0  0  0  0  0  0  0  0  0  0  0
   50.4942   11.4265   13.3394 H   0  0  0  0  0  0  0  0  0  0  0  0
   49.5942   12.8508   13.9091 H   0  0  0  0  0  0  0  0  0  0  0  0
   51.1510   10.9620   15.7619 H   0  0  0  0  0  0  0  0  0  0  0  0
   50.2284   12.3637   16.2357 H   0  0  0  0  0  0  0  0  0  0  0  0
   48.6208   10.8248   16.6571 H   0  0  0  0  0  0  0  0  0  0  0  0
   48.1985   11.1124   14.9789 H   0  0  0  0  0  0  0  0  0  0  0  0
   49.9011    8.8169   16.0925 H   0  0  0  0  0  0  0  0  0  0  0  0
   48.2200    8.7219   15.6054 H   0  0  0  0  0  0  0  0  0  0  0  0
   49.0098    9.4046   13.2172 H   0  0  0  0  0  0  0  0  0  0  0  0
   50.6501    9.2000   13.8293 H   0  0  0  0  0  0  0  0  0  0  0  0
   50.4540    7.1049   13.0683 H   0  0  0  0  0  0  0  0  0  0  0  0
   49.6797    6.7878   14.6107 H   0  0  0  0  0  0  0  0  0  0  0  0
   48.3070    7.3848   11.9322 H   0  0  0  0  0  0  0  0  0  0  0  0
   48.4789    5.8114   12.6978 H   0  0  0  0  0  0  0  0  0  0  0  0
   47.0638    6.6334   14.6350 H   0  0  0  0  0  0  0  0  0  0  0  0
   46.8636    8.1705   13.7934 H   0  0  0  0  0  0  0  0  0  0  0  0
   45.7918    6.9968   11.8698 H   0  0  0  0  0  0  0  0  0  0  0  0
   44.8988    6.9098   13.3849 H   0  0  0  0  0  0  0  0  0  0  0  0
   45.8913    4.6136   13.7975 H   0  0  0  0  0  0  0  0  0  0  0  0
   46.6088    4.6650   12.1903 H   0  0  0  0  0  0  0  0  0  0  0  0
   44.4759    3.3967   12.2780 H   0  0  0  0  0  0  0  0  0  0  0  0
   43.6121    4.8386   12.7999 H   0  0  0  0  0  0  0  0  0  0  0  0
   45.1055    4.5706   10.1332 H   0  0  0  0  0  0  0  0  0  0  0  0
   44.1075    5.9525   10.6326 H   0  0  0  0  0  0  0  0  0  0  0  0
   43.3593    4.3770   10.3533 H   0  0  0  0  0  0  0  0  0  0  0  0
  1  2  1  0
  1  3  1  0
  3  6  1  0
  4  6  1  0
  4  7  2  0
  4  8  1  0
  5  9  2  0
  7  9  1  0
  5 10  1  0
  8 10  2  0
  1 11  1  0
  1 12  1  0
 12 13  1  0
 11 14  1  0
  5 15  1  0
 15 16  1  0
 17 18  1  0
 16 19  1  0
 19 20  1  0
 18 21  1  0
 20 21  1  0
 17 22  1  0
 23 24  1  0
 23 25  1  0
 23 26  2  0
 23 27  2  0
 24 28  1  0
 28 29  1  0
 29 30  1  0
 30 31  1  0
 31 32  1  0
 32 33  1  0
 33 34  1  0
 34 35  1  0
 35 36  1  0
 36 37  1  0
 37 38  1  0
 38 39  1  0
  2 40  1  0
  2 41  1  0
  3 42  1  0
  3 43  1  0
  6 44  1  0
  6 45  1  0
  7 46  1  0
  8 47  1  0
  9 48  1  0
 10 49  1  0
 11 50  1  0
 11 51  1  0
 12 52  1  0
 12 53  1  0
 13 54  1  0
 14 55  1  0
 15 56  1  0
 15 57  1  0
 16 58  1  0
 16 59  1  0
 17 60  1  0
 17 61  1  0
 18 62  1  0
 18 63  1  0
 19 64  1  0
 19 65  1  0
 20 66  1  0
 20 67  1  0
 21 68  1  0
 21 69  1  0
 22 70  1  0
 22 71  1  0
 22 72  1  0
 25 73  1  0
 28 74  1  0
 28 75  1  0
 29 76  1  0
 29 77  1  0
 30 78  1  0
 30 79  1  0
 31 80  1  0
 31 81  1  0
 32 82  1  0
 32 83  1  0
 33 84  1  0
 33 85  1  0
 34 86  1  0
 34 87  1  0
 35 88  1  0
 35 89  1  0
 36 90  1  0
 36 91  1  0
 37 92  1  0
 37 93  1  0
 38 94  1  0
 38 95  1  0
 39 96  1  0
 39 97  1  0
 39 98  1  0
M  END
> <Uni-Dock RESULT> 
ENERGY=   -5.493  LOWER_BOUND=    2.015  UPPER_BOUND=    3.145
INTER + INTRA:          -5.493
INTER:                  -5.493
INTRA:                   0.000
UNBOUND:                 0.000

$$$$

     RDKit          3D

 98 97  0  0  0  0  0  0  0  0999 V2000
   43.6763    5.6776   11.5375 C   0  0  0  0  0  0  0  0  0  0  0  0
   42.5837    6.6335   11.1759 N   0  0  0  0  0  0  0  0  0  0  0  0
   44.9223    6.5374   11.8904 C   0  0  0  0  0  0  0  0  0  0  0  0
   47.3595    6.7718   12.4379 C   0  0  0  0  0  0  0  0  0  0  0  0
   49.3395    8.5803   13.3004 C   0  0  0  0  0  0  0  0  0  0  0  0
   46.2759    5.8191   11.9810 C   0  0  0  0  0  0  0  0  0  0  0  0
   47.6006    6.9631   13.8040 C   0  0  0  0  0  0  0  0  0  0  0  0
   48.1103    7.4991   11.5067 C   0  0  0  0  0  0  0  0  0  0  0  0
   48.5820    7.8598   14.2317 C   0  0  0  0  0  0  0  0  0  0  0  0
   49.0920    8.3955   11.9344 C   0  0  0  0  0  0  0  0  0  0  0  0
   43.1594    4.8506   12.7518 C   0  0  0  0  0  0  0  0  0  0  0  0
   43.9028    4.7655   10.2999 C   0  0  0  0  0  0  0  0  0  0  0  0
   44.7894    3.6831   10.5426 O   0  0  0  0  0  0  0  0  0  0  0  0
   44.1761    4.1666   13.4686 O   0  0  0  0  0  0  0  0  0  0  0  0
   50.3854    9.5657   13.7604 C   0  0  0  0  0  0  0  0  0  0  0  0
   49.7815   10.9509   14.0079 C   0  0  0  0  0  0  0  0  0  0  0  0
   54.2577   12.2975   14.0849 C   0  0  0  0  0  0  0  0  0  0  0  0
   54.0266   12.5494   15.5738 C   0  0  0  0  0  0  0  0  0  0  0  0
   50.8350   12.0231   14.3021 C   0  0  0  0  0  0  0  0  0  0  0  0
   51.5535   11.8162   15.6400 C   0  0  0  0  0  0  0  0  0  0  0  0
   52.5826   12.9129   15.9368 C   0  0  0  0  0  0  0  0  0  0  0  0
   55.7339   12.0988   13.7761 C   0  0  0  0  0  0  0  0  0  0  0  0
   54.7235   10.6912   13.4620 S   0  0  0  0  0  0  0  0  0  0  0  0
   53.3999   11.6266   13.5507 O   0  0  0  0  0  0  0  0  0  0  0  0
   54.4937    9.6621   14.6791 O   0  0  0  0  0  0  0  0  0  0  0  0
   54.6993    9.9386   12.2296 O   0  0  0  0  0  0  0  0  0  0  0  0
   55.8604   11.4931   13.8532 O   0  0  0  0  0  0  0  0  0  0  0  0
   52.1957   11.1295   12.9855 C   0  0  0  0  0  0  0  0  0  0  0  0
   51.0687   12.0985   13.3301 C   0  0  0  0  0  0  0  0  0  0  0  0
   49.7114   11.6839   12.7594 C   0  0  0  0  0  0  0  0  0  0  0  0
   48.8184   10.8976   13.7259 C   0  0  0  0  0  0  0  0  0  0  0  0
   49.3903    9.5433   14.1503 C   0  0  0  0  0  0  0  0  0  0  0  0
   48.3837    8.6966   14.9383 C   0  0  0  0  0  0  0  0  0  0  0  0
   47.6811    7.6092   14.1153 C   0  0  0  0  0  0  0  0  0  0  0  0
   46.8153    8.1491   12.9758 C   0  0  0  0  0  0  0  0  0  0  0  0
   46.0785    7.0488   12.2026 C   0  0  0  0  0  0  0  0  0  0  0  0
   44.9779    6.3679   13.0213 C   0  0  0  0  0  0  0  0  0  0  0  0
   44.1141    5.4135   12.1928 C   0  0  0  0  0  0  0  0  0  0  0  0
   44.8795    4.2104   11.6640 C   0  0  0  0  0  0  0  0  0  0  0  0
   42.8921    7.2157   10.3963 H   0  0  0  0  0  0  0  0  0  0  0  0
   42.4419    7.2799   11.9541 H   0  0  0  0  0  0  0  0  0  0  0  0
   45.0313    7.3290   11.1339 H   0  0  0  0  0  0  0  0  0  0  0  0
   44.7260    7.0648   12.8352 H   0  0  0  0  0  0  0  0  0  0  0  0
   46.2507    4.9684   12.6669 H   0  0  0  0  0  0  0  0  0  0  0  0
   46.5624    5.4174   11.0023 H   0  0  0  0  0  0  0  0  0  0  0  0
   47.0213    6.4116   14.5415 H   0  0  0  0  0  0  0  0  0  0  0  0
   47.9342    7.3716   10.4415 H   0  0  0  0  0  0  0  0  0  0  0  0
   48.7503    7.9928   15.2978 H   0  0  0  0  0  0  0  0  0  0  0  0
   49.6621    8.9512   11.1938 H   0  0  0  0  0  0  0  0  0  0  0  0
   42.6705    5.5126   13.4777 H   0  0  0  0  0  0  0  0  0  0  0  0
   42.4100    4.1203   12.4231 H   0  0  0  0  0  0  0  0  0  0  0  0
   42.9491    4.3332    9.9731 H   0  0  0  0  0  0  0  0  0  0  0  0
   44.3039    5.3519    9.4643 H   0  0  0  0  0  0  0  0  0  0  0  0
   44.8286    3.1551    9.7278 H   0  0  0  0  0  0  0  0  0  0  0  0
   43.7355    3.5034   14.0249 H   0  0  0  0  0  0  0  0  0  0  0  0
   50.8591    9.1804   14.6707 H   0  0  0  0  0  0  0  0  0  0  0  0
   51.1813    9.6285   13.0074 H   0  0  0  0  0  0  0  0  0  0  0  0
   49.2174   11.2659   13.1203 H   0  0  0  0  0  0  0  0  0  0  0  0
   49.0589   10.9046   14.8326 H   0  0  0  0  0  0  0  0  0  0  0  0
   53.8792   13.1423   13.4983 H   0  0  0  0  0  0  0  0  0  0  0  0
   53.7161   11.4005   13.7674 H   0  0  0  0  0  0  0  0  0  0  0  0
   54.3316   11.6639   16.1457 H   0  0  0  0  0  0  0  0  0  0  0  0
   54.6757   13.3699   15.9039 H   0  0  0  0  0  0  0  0  0  0  0  0
   50.3321   12.9986   14.3191 H   0  0  0  0  0  0  0  0  0  0  0  0
   51.5512   12.0594   13.4755 H   0  0  0  0  0  0  0  0  0  0  0  0
   52.0310   10.8323   15.6861 H   0  0  0  0  0  0  0  0  0  0  0  0
   50.7947   11.8343   16.4327 H   0  0  0  0  0  0  0  0  0  0  0  0
   52.2994   13.8545   15.4511 H   0  0  0  0  0  0  0  0  0  0  0  0
   52.5646   13.1088   17.0169 H   0  0  0  0  0  0  0  0  0  0  0  0
   56.3136   12.9907   14.0325 H   0  0  0  0  0  0  0  0  0  0  0  0
   55.8734   11.8988   12.7095 H   0  0  0  0  0  0  0  0  0  0  0  0
   56.1416   11.2516   14.3364 H   0  0  0  0  0  0  0  0  0  0  0  0
   54.8900   10.0713   15.4752 H   0  0  0  0  0  0  0  0  0  0  0  0
   51.9943   10.1311   13.3815 H   0  0  0  0  0  0  0  0  0  0  0  0
   52.3085   11.0605   11.8981 H   0  0  0  0  0  0  0  0  0  0  0  0
   51.0135   12.2491   14.4149 H   0  0  0  0  0  0  0  0  0  0  0  0
   51.3385   13.0792   12.9164 H   0  0  0  0  0  0  0  0  0  0  0  0
   49.1654   12.5991   12.4955 H   0  0  0  0  0  0  0  0  0  0  0  0
   49.8377   11.1237   11.8257 H   0  0  0  0  0  0  0  0  0  0  0  0
   48.6302   11.5067   14.6192 H   0  0  0  0  0  0  0  0  0  0  0  0
   47.8459   10.7578   13.2421 H   0  0  0  0  0  0  0  0  0  0  0  0
   49.7599    8.9891   13.2804 H   0  0  0  0  0  0  0  0  0  0  0  0
   50.2518    9.7274   14.8036 H   0  0  0  0  0  0  0  0  0  0  0  0
   48.9294    8.1854   15.7422 H   0  0  0  0  0  0  0  0  0  0  0  0
   47.6398    9.3337   15.4308 H   0  0  0  0  0  0  0  0  0  0  0  0
   48.4328    6.9205   13.7095 H   0  0  0  0  0  0  0  0  0  0  0  0
   47.0620    7.0251   14.8055 H   0  0  0  0  0  0  0  0  0  0  0  0
   46.0917    8.8743   13.3668 H   0  0  0  0  0  0  0  0  0  0  0  0
   47.4520    8.6822   12.2606 H   0  0  0  0  0  0  0  0  0  0  0  0
   46.8049    6.3072   11.8509 H   0  0  0  0  0  0  0  0  0  0  0  0
   45.6297    7.5019   11.3103 H   0  0  0  0  0  0  0  0  0  0  0  0
   44.3240    7.1355   13.4524 H   0  0  0  0  0  0  0  0  0  0  0  0
   45.4156    5.8152   13.8596 H   0  0  0  0  0  0  0  0  0  0  0  0
   43.2914    5.0544   12.8230 H   0  0  0  0  0  0  0  0  0  0  0  0
   43.6580    5.9532   11.3549 H   0  0  0  0  0  0  0  0  0  0  0  0
   45.3764    3.6729   12.4777 H   0  0  0  0  0  0  0  0  0  0  0  0
   45.6353    4.5063   10.9306 H   0  0  0  0  0  0  0  0  0  0  0  0
   44.1928    3.5155   11.1703 H   0  0  0  0  0  0  0  0  0  0  0  0
  1  2  1  0
  1  3  1  0
  3  6  1  0
  4  6  1  0
  4  7  2  0
  4  8  1  0
  5  9  2  0
  7  9  1  0
  5 10  1  0
  8 10  2  0
  1 11  1  0
  1 12  1  0
 12 13  1  0
 11 14  1  0
  5 15  1  0
 15 16  1  0
 17 18  1  0
 16 19  1  0
 19 20  1  0
 18 21  1  0
 20 21  1  0
 17 22  1  0
 23 24  1  0
 23 25  1  0
 23 26  2  0
 23 27  2  0
 24 28  1  0
 28 29  1  0
 29 30  1  0
 30 31  1  0
 31 32  1  0
 32 33  1  0
 33 34  1  0
 34 35  1  0
 35 36  1  0
 36 37  1  0
 37 38  1  0
 38 39  1  0
  2 40  1  0
  2 41  1  0
  3 42  1  0
  3 43  1  0
  6 44  1  0
  6 45  1  0
  7 46  1  0
  8 47  1  0
  9 48  1  0
 10 49  1  0
 11 50  1  0
 11 51  1  0
 12 52  1  0
 12 53  1  0
 13 54  1  0
 14 55  1  0
 15 56  1  0
 15 57  1  0
 16 58  1  0
 16 59  1  0
 17 60  1  0
 17 61  1  0
 18 62  1  0
 18 63  1  0
 19 64  1  0
 19 65  1  0
 20 66  1  0
 20 67  1  0
 21 68  1  0
 21 69  1  0
 22 70  1  0
 22 71  1  0
 22 72  1  0
 25 73  1  0
 28 74  1  0
 28 75  1  0
 29 76  1  0
 29 77  1  0
 30 78  1  0
 30 79  1  0
 31 80  1  0
 31 81  1  0
 32 82  1  0
 32 83  1  0
 33 84  1  0
 33 85  1  0
 34 86  1  0
 34 87  1  0
 35 88  1  0
 35 89  1  0
 36 90  1  0
 36 91  1  0
 37 92  1  0
 37 93  1  0
 38 94  1  0
 38 95  1  0
 39 96  1  0
 39 97  1  0
 39 98  1  0
M  END
> <Uni-Dock RESULT> 
ENERGY=   -4.838  LOWER_BOUND=    1.529  UPPER_BOUND=    2.141
INTER + INTRA:          -4.838
INTER:                  -4.838
INTRA:                   0.000
UNBOUND:                 0.000

$$$$

     RDKit          3D

 98 97  0  0  0  0  0  0  0  0999 V2000
   49.0368    6.1218   22.2121 C   0  0  0  0  0  0  0  0  0  0  0  0
   50.0960    6.4541   23.2151 N   0  0  0  0  0  0  0  0  0  0  0  0
   48.9292    7.3429   21.2562 C   0  0  0  0  0  0  0  0  0  0  0  0
   47.8058    8.5990   19.3974 C   0  0  0  0  0  0  0  0  0  0  0  0
   48.0461   10.8090   17.6673 C   0  0  0  0  0  0  0  0  0  0  0  0
   47.7035    7.4152   20.3348 C   0  0  0  0  0  0  0  0  0  0  0  0
   48.4664    8.4714   18.1693 C   0  0  0  0  0  0  0  0  0  0  0  0
   47.2743    9.8430   19.7574 C   0  0  0  0  0  0  0  0  0  0  0  0
   48.5859    9.5670   17.3117 C   0  0  0  0  0  0  0  0  0  0  0  0
   47.3934   10.9385   18.8996 C   0  0  0  0  0  0  0  0  0  0  0  0
   49.5081    4.8309   21.4792 C   0  0  0  0  0  0  0  0  0  0  0  0
   47.7287    5.8620   23.0097 C   0  0  0  0  0  0  0  0  0  0  0  0
   46.6653    5.3585   22.2146 O   0  0  0  0  0  0  0  0  0  0  0  0
   48.8372    4.5759   20.2545 O   0  0  0  0  0  0  0  0  0  0  0  0
   48.1928   11.9994   16.7520 C   0  0  0  0  0  0  0  0  0  0  0  0
   49.5050   12.7460   17.0078 C   0  0  0  0  0  0  0  0  0  0  0  0
   47.4958   16.0713   14.4074 C   0  0  0  0  0  0  0  0  0  0  0  0
   48.5532   15.7186   13.3628 C   0  0  0  0  0  0  0  0  0  0  0  0
   49.6119   14.0599   16.2277 C   0  0  0  0  0  0  0  0  0  0  0  0
   49.7254   13.8581   14.7128 C   0  0  0  0  0  0  0  0  0  0  0  0
   49.8634   15.1787   13.9468 C   0  0  0  0  0  0  0  0  0  0  0  0
   46.2887   16.7451   13.7728 C   0  0  0  0  0  0  0  0  0  0  0  0
   45.9498   15.1867   14.5193 S   0  0  0  0  0  0  0  0  0  0  0  0
   47.3745   15.2527   15.2943 O   0  0  0  0  0  0  0  0  0  0  0  0
   46.1238   13.8756   13.6008 O   0  0  0  0  0  0  0  0  0  0  0  0
   44.8953   14.9285   15.4718 O   0  0  0  0  0  0  0  0  0  0  0  0
   45.8972   16.2945   13.5927 O   0  0  0  0  0  0  0  0  0  0  0  0
   47.5570   14.4099   16.4226 C   0  0  0  0  0  0  0  0  0  0  0  0
   49.0084   14.5265   16.8782 C   0  0  0  0  0  0  0  0  0  0  0  0
   49.3327   13.6751   18.1070 C   0  0  0  0  0  0  0  0  0  0  0  0
   49.9380   12.3010   17.7980 C   0  0  0  0  0  0  0  0  0  0  0  0
   49.0093   11.3645   17.0223 C   0  0  0  0  0  0  0  0  0  0  0  0
   49.5595    9.9370   16.9196 C   0  0  0  0  0  0  0  0  0  0  0  0
   48.9502    8.9442   17.9177 C   0  0  0  0  0  0  0  0  0  0  0  0
   49.2249    9.2834   19.3837 C   0  0  0  0  0  0  0  0  0  0  0  0
   48.6552    8.2480   20.3610 C   0  0  0  0  0  0  0  0  0  0  0  0
   49.3769    6.8986   20.3007 C   0  0  0  0  0  0  0  0  0  0  0  0
   48.9437    5.9342   21.4078 C   0  0  0  0  0  0  0  0  0  0  0  0
   47.4904    5.4999   21.2964 C   0  0  0  0  0  0  0  0  0  0  0  0
   49.8380    7.3127   23.7031 H   0  0  0  0  0  0  0  0  0  0  0  0
   50.9604    6.6770   22.7184 H   0  0  0  0  0  0  0  0  0  0  0  0
   48.9305    8.2642   21.8580 H   0  0  0  0  0  0  0  0  0  0  0  0
   49.8446    7.3924   20.6489 H   0  0  0  0  0  0  0  0  0  0  0  0
   47.5787    6.5091   19.7363 H   0  0  0  0  0  0  0  0  0  0  0  0
   46.7864    7.5231   20.9252 H   0  0  0  0  0  0  0  0  0  0  0  0
   48.8919    7.5137   17.8769 H   0  0  0  0  0  0  0  0  0  0  0  0
   46.7643    9.9661   20.7097 H   0  0  0  0  0  0  0  0  0  0  0  0
   49.1045    9.4442   16.3637 H   0  0  0  0  0  0  0  0  0  0  0  0
   46.9746   11.8960   19.2002 H   0  0  0  0  0  0  0  0  0  0  0  0
   50.5741    4.9070   21.2302 H   0  0  0  0  0  0  0  0  0  0  0  0
   49.3894    3.9580   22.1326 H   0  0  0  0  0  0  0  0  0  0  0  0
   47.9129    5.1275   23.8032 H   0  0  0  0  0  0  0  0  0  0  0  0
   47.3857    6.7873   23.4884 H   0  0  0  0  0  0  0  0  0  0  0  0
   45.9156    5.1909   22.8095 H   0  0  0  0  0  0  0  0  0  0  0  0
   49.0171    3.6510   20.0183 H   0  0  0  0  0  0  0  0  0  0  0  0
   48.1378   11.6560   15.7125 H   0  0  0  0  0  0  0  0  0  0  0  0
   47.3391   12.6742   16.8943 H   0  0  0  0  0  0  0  0  0  0  0  0
   49.5881   12.9802   18.0771 H   0  0  0  0  0  0  0  0  0  0  0  0
   50.3588   12.1004   16.7659 H   0  0  0  0  0  0  0  0  0  0  0  0
   47.9235   16.7397   15.1633 H   0  0  0  0  0  0  0  0  0  0  0  0
   47.1548   15.1644   14.9175 H   0  0  0  0  0  0  0  0  0  0  0  0
   48.1409   14.9844   12.6592 H   0  0  0  0  0  0  0  0  0  0  0  0
   48.7883   16.6138   12.7739 H   0  0  0  0  0  0  0  0  0  0  0  0
   50.5043   14.5931   16.5803 H   0  0  0  0  0  0  0  0  0  0  0  0
   48.7554   14.6948   16.4743 H   0  0  0  0  0  0  0  0  0  0  0  0
   48.8767   13.2865   14.3238 H   0  0  0  0  0  0  0  0  0  0  0  0
   50.6230   13.2558   14.5225 H   0  0  0  0  0  0  0  0  0  0  0  0
   50.3388   15.9439   14.5722 H   0  0  0  0  0  0  0  0  0  0  0  0
   50.5435   15.0089   13.1017 H   0  0  0  0  0  0  0  0  0  0  0  0
   46.5713   17.6851   13.2891 H   0  0  0  0  0  0  0  0  0  0  0  0
   45.5364   16.9688   14.5350 H   0  0  0  0  0  0  0  0  0  0  0  0
   45.8277   16.0972   13.0207 H   0  0  0  0  0  0  0  0  0  0  0  0
   46.5197   14.1717   12.7559 H   0  0  0  0  0  0  0  0  0  0  0  0
   47.3089   13.3810   16.1506 H   0  0  0  0  0  0  0  0  0  0  0  0
   46.8868   14.7326   17.2267 H   0  0  0  0  0  0  0  0  0  0  0  0
   49.6882   14.2998   16.0481 H   0  0  0  0  0  0  0  0  0  0  0  0
   49.1938   15.5807   17.1229 H   0  0  0  0  0  0  0  0  0  0  0  0
   50.0730   14.2208   18.7066 H   0  0  0  0  0  0  0  0  0  0  0  0
   48.4482   13.5604   18.7441 H   0  0  0  0  0  0  0  0  0  0  0  0
   50.8693   12.4362   17.2333 H   0  0  0  0  0  0  0  0  0  0  0  0
   50.2230   11.8408   18.7500 H   0  0  0  0  0  0  0  0  0  0  0  0
   48.0071   11.3585   17.4653 H   0  0  0  0  0  0  0  0  0  0  0  0
   48.9072   11.7546   16.0023 H   0  0  0  0  0  0  0  0  0  0  0  0
   49.3313    9.5592   15.9143 H   0  0  0  0  0  0  0  0  0  0  0  0
   50.6524    9.9335   17.0068 H   0  0  0  0  0  0  0  0  0  0  0  0
   47.8671    8.8841   17.7525 H   0  0  0  0  0  0  0  0  0  0  0  0
   49.3576    7.9540   17.6845 H   0  0  0  0  0  0  0  0  0  0  0  0
   50.3038    9.3915   19.5470 H   0  0  0  0  0  0  0  0  0  0  0  0
   48.7640   10.2484   19.6231 H   0  0  0  0  0  0  0  0  0  0  0  0
   47.5853    8.1163   20.1632 H   0  0  0  0  0  0  0  0  0  0  0  0
   48.7431    8.6537   21.3761 H   0  0  0  0  0  0  0  0  0  0  0  0
   50.4570    7.0645   20.3938 H   0  0  0  0  0  0  0  0  0  0  0  0
   49.2106    6.4225   19.3284 H   0  0  0  0  0  0  0  0  0  0  0  0
   49.5795    5.0417   21.3588 H   0  0  0  0  0  0  0  0  0  0  0  0
   49.1144    6.3903   22.3897 H   0  0  0  0  0  0  0  0  0  0  0  0
   47.2829    5.0733   20.3102 H   0  0  0  0  0  0  0  0  0  0  0  0
   46.8073    6.3379   21.4632 H   0  0  0  0  0  0  0  0  0  0  0  0
   47.2679    4.7361   22.0484 H   0  0  0  0  0  0  0  0  0  0  0  0
  1  2  1  0
  1  3  1  0
  3  6  1  0
  4  6  1  0
  4  7  2  0
  4  8  1  0
  5  9  2  0
  7  9  1  0
  5 10  1  0
  8 10  2  0
  1 11  1  0
  1 12  1  0
 12 13  1  0
 11 14  1  0
  5 15  1  0
 15 16  1  0
 17 18  1  0
 16 19  1  0
 19 20  1  0
 18 21  1  0
 20 21  1  0
 17 22  1  0
 23 24  1  0
 23 25  1  0
 23 26  2  0
 23 27  2  0
 24 28  1  0
 28 29  1  0
 29 30  1  0
 30 31  1  0
 31 32  1  0
 32 33  1  0
 33 34  1  0
 34 35  1  0
 35 36  1  0
 36 37  1  0
 37 38  1  0
 38 39  1  0
  2 40  1  0
  2 41  1  0
  3 42  1  0
  3 43  1  0
  6 44  1  0
  6 45  1  0
  7 46  1  0
  8 47  1  0
  9 48  1  0
 10 49  1  0
 11 50  1  0
 11 51  1  0
 12 52  1  0
 12 53  1  0
 13 54  1  0
 14 55  1  0
 15 56  1  0
 15 57  1  0
 16 58  1  0
 16 59  1  0
 17 60  1  0
 17 61  1  0
 18 62  1  0
 18 63  1  0
 19 64  1  0
 19 65  1  0
 20 66  1  0
 20 67  1  0
 21 68  1  0
 21 69  1  0
 22 70  1  0
 22 71  1  0
 22 72  1  0
 25 73  1  0
 28 74  1  0
 28 75  1  0
 29 76  1  0
 29 77  1  0
 30 78  1  0
 30 79  1  0
 31 80  1  0
 31 81  1  0
 32 82  1  0
 32 83  1  0
 33 84  1  0
 33 85  1  0
 34 86  1  0
 34 87  1  0
 35 88  1  0
 35 89  1  0
 36 90  1  0
 36 91  1  0
 37 92  1  0
 37 93  1  0
 38 94  1  0
 38 95  1  0
 39 96  1  0
 39 97  1  0
 39 98  1  0
M  END
> <Uni-Dock RESULT> 
ENERGY=   -4.720  LOWER_BOUND=    6.863  UPPER_BOUND=    8.377
INTER + INTRA:          -4.720
INTER:                  -4.720
INTRA:                   0.000
UNBOUND:                 0.000

$$$$

     RDKit          3D

 98 97  0  0  0  0  0  0  0  0999 V2000
   52.0747   14.0765   17.5840 C   0  0  0  0  0  0  0  0  0  0  0  0
   53.5341   13.8098   17.3911 N   0  0  0  0  0  0  0  0  0  0  0  0
   51.3129   12.9214   16.8757 C   0  0  0  0  0  0  0  0  0  0  0  0
   49.2008   11.8574   16.0380 C   0  0  0  0  0  0  0  0  0  0  0  0
   48.1136    9.5017   14.9407 C   0  0  0  0  0  0  0  0  0  0  0  0
   49.8087   13.1091   16.6331 C   0  0  0  0  0  0  0  0  0  0  0  0
   48.7308   10.8359   16.8725 C   0  0  0  0  0  0  0  0  0  0  0  0
   49.1312   11.6875   14.6502 C   0  0  0  0  0  0  0  0  0  0  0  0
   48.1920    9.6679   16.3287 C   0  0  0  0  0  0  0  0  0  0  0  0
   48.5921   10.5197   14.1063 C   0  0  0  0  0  0  0  0  0  0  0  0
   51.8267   14.0996   19.1214 C   0  0  0  0  0  0  0  0  0  0  0  0
   51.7851   15.4669   16.9533 C   0  0  0  0  0  0  0  0  0  0  0  0
   50.4744   15.9490   17.2104 O   0  0  0  0  0  0  0  0  0  0  0  0
   50.4643   13.9621   19.4959 O   0  0  0  0  0  0  0  0  0  0  0  0
   47.5519    8.2317   14.3508 C   0  0  0  0  0  0  0  0  0  0  0  0
   48.6332    7.1588   14.1949 C   0  0  0  0  0  0  0  0  0  0  0  0
   45.4100    5.0595   11.5379 C   0  0  0  0  0  0  0  0  0  0  0  0
   45.3385    4.0256   12.6601 C   0  0  0  0  0  0  0  0  0  0  0  0
   48.1471    5.9200   13.4365 C   0  0  0  0  0  0  0  0  0  0  0  0
   47.0963    5.1119   14.2055 C   0  0  0  0  0  0  0  0  0  0  0  0
   46.6415    3.8583   13.4495 C   0  0  0  0  0  0  0  0  0  0  0  0
   44.1406    5.0607   10.6998 C   0  0  0  0  0  0  0  0  0  0  0  0
   44.4424    6.5588   11.5747 S   0  0  0  0  0  0  0  0  0  0  0  0
   45.9735    6.0902   11.8407 O   0  0  0  0  0  0  0  0  0  0  0  0
   43.8570    6.6697   13.0707 O   0  0  0  0  0  0  0  0  0  0  0  0
   44.4377    7.8809   10.9936 O   0  0  0  0  0  0  0  0  0  0  0  0
   43.7373    5.4499   10.9731 O   0  0  0  0  0  0  0  0  0  0  0  0
   46.9194    7.0850   12.2042 C   0  0  0  0  0  0  0  0  0  0  0  0
   48.2323    6.3922   12.5563 C   0  0  0  0  0  0  0  0  0  0  0  0
   49.3477    7.3621   12.9502 C   0  0  0  0  0  0  0  0  0  0  0  0
   49.5027    7.5885   14.4584 C   0  0  0  0  0  0  0  0  0  0  0  0
   48.2898    8.2417   15.1243 C   0  0  0  0  0  0  0  0  0  0  0  0
   48.5599    8.6475   16.5781 C   0  0  0  0  0  0  0  0  0  0  0  0
   48.8760   10.1354   16.7778 C   0  0  0  0  0  0  0  0  0  0  0  0
   50.1530   10.6027   16.0774 C   0  0  0  0  0  0  0  0  0  0  0  0
   50.4795   12.0784   16.3368 C   0  0  0  0  0  0  0  0  0  0  0  0
   50.8973   12.3600   17.7829 C   0  0  0  0  0  0  0  0  0  0  0  0
   51.4127   13.7859   17.9939 C   0  0  0  0  0  0  0  0  0  0  0  0
   50.3488   14.8512   17.7785 C   0  0  0  0  0  0  0  0  0  0  0  0
   53.7367   13.7609   16.3918 H   0  0  0  0  0  0  0  0  0  0  0  0
   53.7488   12.8794   17.7543 H   0  0  0  0  0  0  0  0  0  0  0  0
   51.7747   12.7436   15.8929 H   0  0  0  0  0  0  0  0  0  0  0  0
   51.4770   11.9948   17.4447 H   0  0  0  0  0  0  0  0  0  0  0  0
   49.2667   13.3555   17.5498 H   0  0  0  0  0  0  0  0  0  0  0  0
   49.6335   13.9392   15.9391 H   0  0  0  0  0  0  0  0  0  0  0  0
   48.7839   10.9482   17.9534 H   0  0  0  0  0  0  0  0  0  0  0  0
   49.4975   12.4647   13.9840 H   0  0  0  0  0  0  0  0  0  0  0  0
   47.8347    8.8877   16.9967 H   0  0  0  0  0  0  0  0  0  0  0  0
   48.5494   10.4081   13.0255 H   0  0  0  0  0  0  0  0  0  0  0  0
   52.3578   13.2680   19.6012 H   0  0  0  0  0  0  0  0  0  0  0  0
   52.2178   15.0277   19.5557 H   0  0  0  0  0  0  0  0  0  0  0  0
   52.4856   16.2119   17.3501 H   0  0  0  0  0  0  0  0  0  0  0  0
   51.9249   15.4273   15.8662 H   0  0  0  0  0  0  0  0  0  0  0  0
   50.4104   16.8338   16.8141 H   0  0  0  0  0  0  0  0  0  0  0  0
   50.3950   14.2372   20.4249 H   0  0  0  0  0  0  0  0  0  0  0  0
   46.7385    7.8728   14.9920 H   0  0  0  0  0  0  0  0  0  0  0  0
   47.0957    8.4540   13.3778 H   0  0  0  0  0  0  0  0  0  0  0  0
   49.4859    7.5786   13.6453 H   0  0  0  0  0  0  0  0  0  0  0  0
   49.0161    6.8642   15.1803 H   0  0  0  0  0  0  0  0  0  0  0  0
   46.2680    4.8503   10.8890 H   0  0  0  0  0  0  0  0  0  0  0  0
   45.5453    6.0614   11.9585 H   0  0  0  0  0  0  0  0  0  0  0  0
   44.5285    4.2917   13.3509 H   0  0  0  0  0  0  0  0  0  0  0  0
   45.0735    3.0504   12.2332 H   0  0  0  0  0  0  0  0  0  0  0  0
   49.0154    5.2765   13.2440 H   0  0  0  0  0  0  0  0  0  0  0  0
   47.7658    6.2250   12.4572 H   0  0  0  0  0  0  0  0  0  0  0  0
   46.2297    5.7297   14.4616 H   0  0  0  0  0  0  0  0  0  0  0  0
   47.5474    4.7953   15.1547 H   0  0  0  0  0  0  0  0  0  0  0  0
   47.4363    3.4924   12.7884 H   0  0  0  0  0  0  0  0  0  0  0  0
   46.4680    3.0639   14.1874 H   0  0  0  0  0  0  0  0  0  0  0  0
   43.9861    4.0908   10.2173 H   0  0  0  0  0  0  0  0  0  0  0  0
   44.2051    5.8223    9.9170 H   0  0  0  0  0  0  0  0  0  0  0  0
   43.2633    5.2810   11.3162 H   0  0  0  0  0  0  0  0  0  0  0  0
   43.5004    5.7879   13.3019 H   0  0  0  0  0  0  0  0  0  0  0  0
   46.5350    7.6588   13.0511 H   0  0  0  0  0  0  0  0  0  0  0  0
   47.0717    7.7648   11.3588 H   0  0  0  0  0  0  0  0  0  0  0  0
   48.0688    5.6383   13.3357 H   0  0  0  0  0  0  0  0  0  0  0  0
   48.5549    5.8272   11.6718 H   0  0  0  0  0  0  0  0  0  0  0  0
   50.2975    6.9432   12.5926 H   0  0  0  0  0  0  0  0  0  0  0  0
   49.2255    8.3231   12.4374 H   0  0  0  0  0  0  0  0  0  0  0  0
   49.7104    6.6283   14.9476 H   0  0  0  0  0  0  0  0  0  0  0  0
   50.3926    8.2078   14.6127 H   0  0  0  0  0  0  0  0  0  0  0  0
   47.9464    9.1045   14.5426 H   0  0  0  0  0  0  0  0  0  0  0  0
   47.4709    7.5121   15.1306 H   0  0  0  0  0  0  0  0  0  0  0  0
   47.6552    8.4326   17.1619 H   0  0  0  0  0  0  0  0  0  0  0  0
   49.3573    8.0331   17.0124 H   0  0  0  0  0  0  0  0  0  0  0  0
   48.0262   10.7355   16.4289 H   0  0  0  0  0  0  0  0  0  0  0  0
   48.9604   10.3101   17.8563 H   0  0  0  0  0  0  0  0  0  0  0  0
   50.9991    9.9770   16.3854 H   0  0  0  0  0  0  0  0  0  0  0  0
   50.0367   10.4781   14.9948 H   0  0  0  0  0  0  0  0  0  0  0  0
   49.6133   12.6924   16.0646 H   0  0  0  0  0  0  0  0  0  0  0  0
   51.2978   12.3688   15.6668 H   0  0  0  0  0  0  0  0  0  0  0  0
   51.6931   11.6619   18.0693 H   0  0  0  0  0  0  0  0  0  0  0  0
   50.0570   12.1808   18.4624 H   0  0  0  0  0  0  0  0  0  0  0  0
   51.7885   13.8706   19.0209 H   0  0  0  0  0  0  0  0  0  0  0  0
   52.2627   13.9789   17.3294 H   0  0  0  0  0  0  0  0  0  0  0  0
   49.4714   14.6616   18.4045 H   0  0  0  0  0  0  0  0  0  0  0  0
   50.0278   14.8921   16.7335 H   0  0  0  0  0  0  0  0  0  0  0  0
   50.7452   15.8368   18.0423 H   0  0  0  0  0  0  0  0  0  0  0  0
  1  2  1  0
  1  3  1  0
  3  6  1  0
  4  6  1  0
  4  7  2  0
  4  8  1  0
  5  9  2  0
  7  9  1  0
  5 10  1  0
  8 10  2  0
  1 11  1  0
  1 12  1  0
 12 13  1  0
 11 14  1  0
  5 15  1  0
 15 16  1  0
 17 18  1  0
 16 19  1  0
 19 20  1  0
 18 21  1  0
 20 21  1  0
 17 22  1  0
 23 24  1  0
 23 25  1  0
 23 26  2  0
 23 27  2  0
 24 28  1  0
 28 29  1  0
 29 30  1  0
 30 31  1  0
 31 32  1  0
 32 33  1  0
 33 34  1  0
 34 35  1  0
 35 36  1  0
 36 37  1  0
 37 38  1  0
 38 39  1  0
  2 40  1  0
  2 41  1  0
  3 42  1  0
  3 43  1  0
  6 44  1  0
  6 45  1  0
  7 46  1  0
  8 47  1  0
  9 48  1  0
 10 49  1  0
 11 50  1  0
 11 51  1  0
 12 52  1  0
 12 53  1  0
 13 54  1  0
 14 55  1  0
 15 56  1  0
 15 57  1  0
 16 58  1  0
 16 59  1  0
 17 60  1  0
 17 61  1  0
 18 62  1  0
 18 63  1  0
 19 64  1  0
 19 65  1  0
 20 66  1  0
 20 67  1  0
 21 68  1  0
 21 69  1  0
 22 70  1  0
 22 71  1  0
 22 72  1  0
 25 73  1  0
 28 74  1  0
 28 75  1  0
 29 76  1  0
 29 77  1  0
 30 78  1  0
 30 79  1  0
 31 80  1  0
 31 81  1  0
 32 82  1  0
 32 83  1  0
 33 84  1  0
 33 85  1  0
 34 86  1  0
 34 87  1  0
 35 88  1  0
 35 89  1  0
 36 90  1  0
 36 91  1  0
 37 92  1  0
 37 93  1  0
 38 94  1  0
 38 95  1  0
 39 96  1  0
 39 97  1  0
 39 98  1  0
M  END
> <Uni-Dock RESULT> 
ENERGY=   -4.332  LOWER_BOUND=    4.193  UPPER_BOUND=    9.680
INTER + INTRA:          -4.332
INTER:                  -4.332
INTRA:                   0.000
UNBOUND:                 0.000

$$$$

     RDKit          3D

 98 97  0  0  0  0  0  0  0  0999 V2000
   53.6990    3.9382   19.2573 C   0  0  0  0  0  0  0  0  0  0  0  0
   53.6720    2.5160   18.7938 N   0  0  0  0  0  0  0  0  0  0  0  0
   52.8340    4.7508   18.2534 C   0  0  0  0  0  0  0  0  0  0  0  0
   51.9690    6.9202   17.3366 C   0  0  0  0  0  0  0  0  0  0  0  0
   50.1182    8.0635   15.5471 C   0  0  0  0  0  0  0  0  0  0  0  0
   52.9509    6.2809   18.2947 C   0  0  0  0  0  0  0  0  0  0  0  0
   50.6648    7.2129   17.7540 C   0  0  0  0  0  0  0  0  0  0  0  0
   52.3375    7.1954   16.0144 C   0  0  0  0  0  0  0  0  0  0  0  0
   49.7471    7.7794   16.8668 C   0  0  0  0  0  0  0  0  0  0  0  0
   51.4200    7.7623   15.1273 C   0  0  0  0  0  0  0  0  0  0  0  0
   53.1070    3.9474   20.6978 C   0  0  0  0  0  0  0  0  0  0  0  0
   55.1890    4.3795   19.2658 C   0  0  0  0  0  0  0  0  0  0  0  0
   55.4039    5.6541   19.8539 O   0  0  0  0  0  0  0  0  0  0  0  0
   52.7027    5.2289   21.1556 O   0  0  0  0  0  0  0  0  0  0  0  0
   49.1222    8.6555   14.5807 C   0  0  0  0  0  0  0  0  0  0  0  0
   48.3032    7.5670   13.8813 C   0  0  0  0  0  0  0  0  0  0  0  0
   47.0742   11.0699   11.0396 C   0  0  0  0  0  0  0  0  0  0  0  0
   45.6878   10.9243   11.6641 C   0  0  0  0  0  0  0  0  0  0  0  0
   47.4078    8.1116   12.7643 C   0  0  0  0  0  0  0  0  0  0  0  0
   46.2673    8.9967   13.2787 C   0  0  0  0  0  0  0  0  0  0  0  0
   45.3605    9.5094   12.1541 C   0  0  0  0  0  0  0  0  0  0  0  0
   47.2709   12.4521   10.4356 C   0  0  0  0  0  0  0  0  0  0  0  0
   48.3416   12.0823   11.7839 S   0  0  0  0  0  0  0  0  0  0  0  0
   47.9606   10.5102   11.6500 O   0  0  0  0  0  0  0  0  0  0  0  0
   47.8129   12.4346   13.2635 O   0  0  0  0  0  0  0  0  0  0  0  0
   49.7780   12.2318   11.7750 O   0  0  0  0  0  0  0  0  0  0  0  0
   47.4839   12.8245   10.8882 O   0  0  0  0  0  0  0  0  0  0  0  0
   48.8285    9.5622   12.2538 C   0  0  0  0  0  0  0  0  0  0  0  0
   48.1870    8.1828   12.1375 C   0  0  0  0  0  0  0  0  0  0  0  0
   49.0372    7.0618   12.7380 C   0  0  0  0  0  0  0  0  0  0  0  0
   48.6829    6.6862   14.1813 C   0  0  0  0  0  0  0  0  0  0  0  0
   48.9080    7.8084   15.1967 C   0  0  0  0  0  0  0  0  0  0  0  0
   48.7507    7.3350   16.6467 C   0  0  0  0  0  0  0  0  0  0  0  0
   50.0720    7.0547   17.3740 C   0  0  0  0  0  0  0  0  0  0  0  0
   50.8955    5.9215   16.7598 C   0  0  0  0  0  0  0  0  0  0  0  0
   52.1838    5.6212   17.5354 C   0  0  0  0  0  0  0  0  0  0  0  0
   51.9300    4.9979   18.9110 C   0  0  0  0  0  0  0  0  0  0  0  0
   53.2097    4.5164   19.5994 C   0  0  0  0  0  0  0  0  0  0  0  0
   54.1656    5.6445   19.9554 C   0  0  0  0  0  0  0  0  0  0  0  0
   54.0298    2.4678   17.8390 H   0  0  0  0  0  0  0  0  0  0  0  0
   52.6996    2.2091   18.7319 H   0  0  0  0  0  0  0  0  0  0  0  0
   53.0927    4.4388   17.2304 H   0  0  0  0  0  0  0  0  0  0  0  0
   51.7813    4.4624   18.3867 H   0  0  0  0  0  0  0  0  0  0  0  0
   52.7726    6.6852   19.2945 H   0  0  0  0  0  0  0  0  0  0  0  0
   53.9617    6.5955   18.0109 H   0  0  0  0  0  0  0  0  0  0  0  0
   50.3593    6.9987   18.7760 H   0  0  0  0  0  0  0  0  0  0  0  0
   53.3427    6.9689   15.6673 H   0  0  0  0  0  0  0  0  0  0  0  0
   48.7394    7.9966   17.2133 H   0  0  0  0  0  0  0  0  0  0  0  0
   51.7271    7.9661   14.1044 H   0  0  0  0  0  0  0  0  0  0  0  0
   52.2119    3.3143   20.7413 H   0  0  0  0  0  0  0  0  0  0  0  0
   53.8318    3.5333   21.4094 H   0  0  0  0  0  0  0  0  0  0  0  0
   55.7905    3.6582   19.8325 H   0  0  0  0  0  0  0  0  0  0  0  0
   55.5828    4.4072   18.2426 H   0  0  0  0  0  0  0  0  0  0  0  0
   56.3621    5.8154   19.8488 H   0  0  0  0  0  0  0  0  0  0  0  0
   52.5928    5.1658   22.1186 H   0  0  0  0  0  0  0  0  0  0  0  0
   48.4666    9.3447   15.1255 H   0  0  0  0  0  0  0  0  0  0  0  0
   49.6539    9.2649   13.8390 H   0  0  0  0  0  0  0  0  0  0  0  0
   48.9834    6.8275   13.4389 H   0  0  0  0  0  0  0  0  0  0  0  0
   47.6930    7.0250   14.6150 H   0  0  0  0  0  0  0  0  0  0  0  0
   47.2152   10.3140   10.2587 H   0  0  0  0  0  0  0  0  0  0  0  0
   47.8467   10.9135   11.7997 H   0  0  0  0  0  0  0  0  0  0  0  0
   45.5877   11.6288   12.4995 H   0  0  0  0  0  0  0  0  0  0  0  0
   44.9294   11.2107   10.9249 H   0  0  0  0  0  0  0  0  0  0  0  0
   46.9762    7.2571   12.2271 H   0  0  0  0  0  0  0  0  0  0  0  0
   48.0253    8.6516   12.0399 H   0  0  0  0  0  0  0  0  0  0  0  0
   46.6511    9.8387   13.8634 H   0  0  0  0  0  0  0  0  0  0  0  0
   45.6576    8.3920   13.9621 H   0  0  0  0  0  0  0  0  0  0  0  0
   45.3561    8.8112   11.3084 H   0  0  0  0  0  0  0  0  0  0  0  0
   44.3312    9.5338   12.5355 H   0  0  0  0  0  0  0  0  0  0  0  0
   46.5495   12.6381    9.6342 H   0  0  0  0  0  0  0  0  0  0  0  0
   48.2766   12.5408   10.0140 H   0  0  0  0  0  0  0  0  0  0  0  0
   47.1506   13.2324   11.1937 H   0  0  0  0  0  0  0  0  0  0  0  0
   46.8791   12.7140   13.1720 H   0  0  0  0  0  0  0  0  0  0  0  0
   48.9932    9.8354   13.2990 H   0  0  0  0  0  0  0  0  0  0  0  0
   49.7916    9.5705   11.7320 H   0  0  0  0  0  0  0  0  0  0  0  0
   47.1800    8.1927   12.5715 H   0  0  0  0  0  0  0  0  0  0  0  0
   48.0386    7.9768   11.0693 H   0  0  0  0  0  0  0  0  0  0  0  0
   48.8832    6.1616   12.1285 H   0  0  0  0  0  0  0  0  0  0  0  0
   50.1041    7.3017   12.6641 H   0  0  0  0  0  0  0  0  0  0  0  0
   47.6341    6.3655   14.2233 H   0  0  0  0  0  0  0  0  0  0  0  0
   49.2804    5.8098   14.4539 H   0  0  0  0  0  0  0  0  0  0  0  0
   49.8893    8.2732   15.0492 H   0  0  0  0  0  0  0  0  0  0  0  0
   48.1546    8.5852   15.0182 H   0  0  0  0  0  0  0  0  0  0  0  0
   48.2404    8.1293   17.2072 H   0  0  0  0  0  0  0  0  0  0  0  0
   48.0988    6.4553   16.7007 H   0  0  0  0  0  0  0  0  0  0  0  0
   50.6729    7.9724   17.3987 H   0  0  0  0  0  0  0  0  0  0  0  0
   49.8279    6.8126   18.4145 H   0  0  0  0  0  0  0  0  0  0  0  0
   50.2865    5.0125   16.6883 H   0  0  0  0  0  0  0  0  0  0  0  0
   51.1842    6.1976   15.7393 H   0  0  0  0  0  0  0  0  0  0  0  0
   52.7665    6.5438   17.6375 H   0  0  0  0  0  0  0  0  0  0  0  0
   52.7880    4.9286   16.9369 H   0  0  0  0  0  0  0  0  0  0  0  0
   51.2577    4.1389   18.7976 H   0  0  0  0  0  0  0  0  0  0  0  0
   51.4223    5.7153   19.5648 H   0  0  0  0  0  0  0  0  0  0  0  0
   52.9314    3.9909   20.5210 H   0  0  0  0  0  0  0  0  0  0  0  0
   53.7254    3.7877   18.9635 H   0  0  0  0  0  0  0  0  0  0  0  0
   53.6651    6.4064   20.5610 H   0  0  0  0  0  0  0  0  0  0  0  0
   54.5716    6.1240   19.0599 H   0  0  0  0  0  0  0  0  0  0  0  0
   55.0090    5.2540   20.5336 H   0  0  0  0  0  0  0  0  0  0  0  0
  1  2  1  0
  1  3  1  0
  3  6  1  0
  4  6  1  0
  4  7  2  0
  4  8  1  0
  5  9  2  0
  7  9  1  0
  5 10  1  0
  8 10  2  0
  1 11  1  0
  1 12  1  0
 12 13  1  0
 11 14  1  0
  5 15  1  0
 15 16  1  0
 17 18  1  0
 16 19  1  0
 19 20  1  0
 18 21  1  0
 20 21  1  0
 17 22  1  0
 23 24  1  0
 23 25  1  0
 23 26  2  0
 23 27  2  0
 24 28  1  0
 28 29  1  0
 29 30  1  0
 30 31  1  0
 31 32  1  0
 32 33  1  0
 33 34  1  0
 34 35  1  0
 35 36  1  0
 36 37  1  0
 37 38  1  0
 38 39  1  0
  2 40  1  0
  2 41  1  0
  3 42  1  0
  3 43  1  0
  6 44  1  0
  6 45  1  0
  7 46  1  0
  8 47  1  0
  9 48  1  0
 10 49  1  0
 11 50  1  0
 11 51  1  0
 12 52  1  0
 12 53  1  0
 13 54  1  0
 14 55  1  0
 15 56  1  0
 15 57  1  0
 16 58  1  0
 16 59  1  0
 17 60  1  0
 17 61  1  0
 18 62  1  0
 18 63  1  0
 19 64  1  0
 19 65  1  0
 20 66  1  0
 20 67  1  0
 21 68  1  0
 21 69  1  0
 22 70  1  0
 22 71  1  0
 22 72  1  0
 25 73  1  0
 28 74  1  0
 28 75  1  0
 29 76  1  0
 29 77  1  0
 30 78  1  0
 30 79  1  0
 31 80  1  0
 31 81  1  0
 32 82  1  0
 32 83  1  0
 33 84  1  0
 33 85  1  0
 34 86  1  0
 34 87  1  0
 35 88  1  0
 35 89  1  0
 36 90  1  0
 36 91  1  0
 37 92  1  0
 37 93  1  0
 38 94  1  0
 38 95  1  0
 39 96  1  0
 39 97  1  0
 39 98  1  0
M  END
> <Uni-Dock RESULT> 
ENERGY=   -4.280  LOWER_BOUND=    5.242  UPPER_BOUND=    8.320
INTER + INTRA:          -4.280
INTER:                  -4.280
INTRA:                   0.000
UNBOUND:                 0.000

$$$$

     RDKit          3D

 98 97  0  0  0  0  0  0  0  0999 V2000
   49.0522    4.1642   17.6092 C   0  0  0  0  0  0  0  0  0  0  0  0
   49.7150    2.9920   16.9573 N   0  0  0  0  0  0  0  0  0  0  0  0
   49.2390    5.3727   16.6494 C   0  0  0  0  0  0  0  0  0  0  0  0
   49.0701    7.8198   16.1224 C   0  0  0  0  0  0  0  0  0  0  0  0
   49.3015    9.7311   14.0661 C   0  0  0  0  0  0  0  0  0  0  0  0
   48.9470    6.7724   17.2080 C   0  0  0  0  0  0  0  0  0  0  0  0
   47.9683    8.1345   15.3175 C   0  0  0  0  0  0  0  0  0  0  0  0
   50.2911    8.4620   15.8847 C   0  0  0  0  0  0  0  0  0  0  0  0
   48.0829    9.0818   14.2980 C   0  0  0  0  0  0  0  0  0  0  0  0
   50.4057    9.4096   14.8654 C   0  0  0  0  0  0  0  0  0  0  0  0
   47.5550    3.7794   17.7987 C   0  0  0  0  0  0  0  0  0  0  0  0
   49.7514    4.3694   18.9817 C   0  0  0  0  0  0  0  0  0  0  0  0
   49.1185    5.3369   19.8062 O   0  0  0  0  0  0  0  0  0  0  0  0
   46.6952    4.8811   18.0480 O   0  0  0  0  0  0  0  0  0  0  0  0
   49.4336   10.7391   12.9512 C   0  0  0  0  0  0  0  0  0  0  0  0
   49.7948   10.0649   11.6247 C   0  0  0  0  0  0  0  0  0  0  0  0
   50.7251   14.4418   10.2708 C   0  0  0  0  0  0  0  0  0  0  0  0
   49.5017   14.2902    9.3688 C   0  0  0  0  0  0  0  0  0  0  0  0
   50.1139   11.0644   10.5088 C   0  0  0  0  0  0  0  0  0  0  0  0
   48.8963   11.8782   10.0571 C   0  0  0  0  0  0  0  0  0  0  0  0
   49.2223   12.8519    8.9189 C   0  0  0  0  0  0  0  0  0  0  0  0
   51.0345   15.9051   10.5487 C   0  0  0  0  0  0  0  0  0  0  0  0
   50.5835   14.9687   11.9702 S   0  0  0  0  0  0  0  0  0  0  0  0
   50.8185   13.5964   11.1357 O   0  0  0  0  0  0  0  0  0  0  0  0
   49.0163   14.8828   12.3299 O   0  0  0  0  0  0  0  0  0  0  0  0
   51.3295   14.9144   13.2057 O   0  0  0  0  0  0  0  0  0  0  0  0
   50.7006   16.0746   11.0472 O   0  0  0  0  0  0  0  0  0  0  0  0
   50.9888   12.3929   11.8700 C   0  0  0  0  0  0  0  0  0  0  0  0
   51.0292   11.2306   10.8826 C   0  0  0  0  0  0  0  0  0  0  0  0
   51.2290    9.8690   11.5505 C   0  0  0  0  0  0  0  0  0  0  0  0
   49.9376    9.0912   11.8282 C   0  0  0  0  0  0  0  0  0  0  0  0
   48.9927    9.7742   12.8191 C   0  0  0  0  0  0  0  0  0  0  0  0
   47.8220    8.8759   13.2358 C   0  0  0  0  0  0  0  0  0  0  0  0
   47.9944    8.1932   14.5988 C   0  0  0  0  0  0  0  0  0  0  0  0
   49.1757    7.2241   14.6676 C   0  0  0  0  0  0  0  0  0  0  0  0
   49.2951    6.5114   16.0202 C   0  0  0  0  0  0  0  0  0  0  0  0
   48.1648    5.5108   16.2781 C   0  0  0  0  0  0  0  0  0  0  0  0
   48.3890    4.6588   17.5300 C   0  0  0  0  0  0  0  0  0  0  0  0
   48.3737    5.4643   18.8200 C   0  0  0  0  0  0  0  0  0  0  0  0
   50.6977    3.2125   16.7907 H   0  0  0  0  0  0  0  0  0  0  0  0
   49.3087    2.8590   16.0295 H   0  0  0  0  0  0  0  0  0  0  0  0
   50.2796    5.3827   16.2919 H   0  0  0  0  0  0  0  0  0  0  0  0
   48.6261    5.2036   15.7521 H   0  0  0  0  0  0  0  0  0  0  0  0
   47.9491    6.8452   17.6481 H   0  0  0  0  0  0  0  0  0  0  0  0
   49.6550    7.0212   18.0068 H   0  0  0  0  0  0  0  0  0  0  0  0
   47.0137    7.6396   15.4837 H   0  0  0  0  0  0  0  0  0  0  0  0
   51.1612    8.2270   16.4928 H   0  0  0  0  0  0  0  0  0  0  0  0
   47.2139    9.3088   13.6848 H   0  0  0  0  0  0  0  0  0  0  0  0
   51.3641    9.8949   14.6972 H   0  0  0  0  0  0  0  0  0  0  0  0
   47.1724    3.2964   16.8908 H   0  0  0  0  0  0  0  0  0  0  0  0
   47.4485    3.0588   18.6187 H   0  0  0  0  0  0  0  0  0  0  0  0
   49.7618    3.4264   19.5420 H   0  0  0  0  0  0  0  0  0  0  0  0
   50.7934    4.6783   18.8347 H   0  0  0  0  0  0  0  0  0  0  0  0
   49.6024    5.3579   20.6486 H   0  0  0  0  0  0  0  0  0  0  0  0
   45.8620    4.5200   18.3928 H   0  0  0  0  0  0  0  0  0  0  0  0
   48.4921   11.2933   12.8613 H   0  0  0  0  0  0  0  0  0  0  0  0
   50.1974   11.4798   13.2200 H   0  0  0  0  0  0  0  0  0  0  0  0
   50.6762    9.4266   11.7689 H   0  0  0  0  0  0  0  0  0  0  0  0
   48.9814    9.4006   11.3063 H   0  0  0  0  0  0  0  0  0  0  0  0
   51.5977   13.9736    9.8015 H   0  0  0  0  0  0  0  0  0  0  0  0
   50.5504   13.9395   11.2280 H   0  0  0  0  0  0  0  0  0  0  0  0
   48.6172   14.6868    9.8831 H   0  0  0  0  0  0  0  0  0  0  0  0
   49.6395   14.9053    8.4708 H   0  0  0  0  0  0  0  0  0  0  0  0
   50.5010   10.5023    9.6490 H   0  0  0  0  0  0  0  0  0  0  0  0
   50.9240   11.7228   10.8371 H   0  0  0  0  0  0  0  0  0  0  0  0
   48.4474   12.4195   10.8959 H   0  0  0  0  0  0  0  0  0  0  0  0
   48.1374   11.1717    9.6973 H   0  0  0  0  0  0  0  0  0  0  0  0
   50.0579   12.4789    8.3145 H   0  0  0  0  0  0  0  0  0  0  0  0
   48.3535   12.8901    8.2487 H   0  0  0  0  0  0  0  0  0  0  0  0
   51.2642   16.4418    9.6232 H   0  0  0  0  0  0  0  0  0  0  0  0
   51.8998   15.9890   11.2129 H   0  0  0  0  0  0  0  0  0  0  0  0
   50.1865   16.4008   11.0315 H   0  0  0  0  0  0  0  0  0  0  0  0
   48.5320   15.3020   11.5896 H   0  0  0  0  0  0  0  0  0  0  0  0
   50.1651   12.2812   12.5794 H   0  0  0  0  0  0  0  0  0  0  0  0
   51.9300   12.4406   12.4283 H   0  0  0  0  0  0  0  0  0  0  0  0
   50.1325   11.2349   10.2514 H   0  0  0  0  0  0  0  0  0  0  0  0
   51.8664   11.4104   10.1951 H   0  0  0  0  0  0  0  0  0  0  0  0
   51.8336    9.2500   10.8746 H   0  0  0  0  0  0  0  0  0  0  0  0
   51.8111    9.9712   12.4736 H   0  0  0  0  0  0  0  0  0  0  0  0
   49.4084    8.9216   10.8818 H   0  0  0  0  0  0  0  0  0  0  0  0
   50.2189    8.1008   12.2016 H   0  0  0  0  0  0  0  0  0  0  0  0
   49.5419   10.1224   13.7009 H   0  0  0  0  0  0  0  0  0  0  0  0
   48.5720   10.6619   12.3315 H   0  0  0  0  0  0  0  0  0  0  0  0
   46.9235    9.5031   13.3046 H   0  0  0  0  0  0  0  0  0  0  0  0
   47.6129    8.1256   12.4643 H   0  0  0  0  0  0  0  0  0  0  0  0
   48.1039    8.9600   15.3759 H   0  0  0  0  0  0  0  0  0  0  0  0
   47.0634    7.6578   14.8167 H   0  0  0  0  0  0  0  0  0  0  0  0
   49.0983    6.4819   13.8642 H   0  0  0  0  0  0  0  0  0  0  0  0
   50.1070    7.7786   14.5061 H   0  0  0  0  0  0  0  0  0  0  0  0
   49.3304    7.2598   16.8201 H   0  0  0  0  0  0  0  0  0  0  0  0
   50.2536    5.9787   16.0409 H   0  0  0  0  0  0  0  0  0  0  0  0
   48.0773    4.8378   15.4166 H   0  0  0  0  0  0  0  0  0  0  0  0
   47.2076    6.0352   16.3709 H   0  0  0  0  0  0  0  0  0  0  0  0
   47.5963    3.9024   17.5815 H   0  0  0  0  0  0  0  0  0  0  0  0
   49.3382    4.1168   17.4491 H   0  0  0  0  0  0  0  0  0  0  0  0
   47.4504    6.0451   18.9089 H   0  0  0  0  0  0  0  0  0  0  0  0
   49.2231    6.1515   18.8739 H   0  0  0  0  0  0  0  0  0  0  0  0
   48.4350    4.7933   19.6827 H   0  0  0  0  0  0  0  0  0  0  0  0
  1  2  1  0
  1  3  1  0
  3  6  1  0
  4  6  1  0
  4  7  2  0
  4  8  1  0
  5  9  2  0
  7  9  1  0
  5 10  1  0
  8 10  2  0
  1 11  1  0
  1 12  1  0
 12 13  1  0
 11 14  1  0
  5 15  1  0
 15 16  1  0
 17 18  1  0
 16 19  1  0
 19 20  1  0
 18 21  1  0
 20 21  1  0
 17 22  1  0
 23 24  1  0
 23 25  1  0
 23 26  2  0
 23 27  2  0
 24 28  1  0
 28 29  1  0
 29 30  1  0
 30 31  1  0
 31 32  1  0
 32 33  1  0
 33 34  1  0
 34 35  1  0
 35 36  1  0
 36 37  1  0
 37 38  1  0
 38 39  1  0
  2 40  1  0
  2 41  1  0
  3 42  1  0
  3 43  1  0
  6 44  1  0
  6 45  1  0
  7 46  1  0
  8 47  1  0
  9 48  1  0
 10 49  1  0
 11 50  1  0
 11 51  1  0
 12 52  1  0
 12 53  1  0
 13 54  1  0
 14 55  1  0
 15 56  1  0
 15 57  1  0
 16 58  1  0
 16 59  1  0
 17 60  1  0
 17 61  1  0
 18 62  1  0
 18 63  1  0
 19 64  1  0
 19 65  1  0
 20 66  1  0
 20 67  1  0
 21 68  1  0
 21 69  1  0
 22 70  1  0
 22 71  1  0
 22 72  1  0
 25 73  1  0
 28 74  1  0
 28 75  1  0
 29 76  1  0
 29 77  1  0
 30 78  1  0
 30 79  1  0
 31 80  1  0
 31 81  1  0
 32 82  1  0
 32 83  1  0
 33 84  1  0
 33 85  1  0
 34 86  1  0
 34 87  1  0
 35 88  1  0
 35 89  1  0
 36 90  1  0
 36 91  1  0
 37 92  1  0
 37 93  1  0
 38 94  1  0
 38 95  1  0
 39 96  1  0
 39 97  1  0
 39 98  1  0
M  END
> <Uni-Dock RESULT> 
ENERGY=   -4.076  LOWER_BOUND=    4.256  UPPER_BOUND=    5.574
INTER + INTRA:          -4.076
INTER:                  -4.076
INTRA:                   0.000
UNBOUND:                 0.000

$$$$
