
     RDKit          3D

 98 97  0  0  0  0  0  0  0  0999 V2000
   47.9662    6.6640   20.4703 C   0  0  0  0  0  0  0  0  0  0  0  0
   47.2028    6.0000   21.5623 N   0  0  0  0  0  0  0  0  0  0  0  0
   48.4717    8.0667   20.8866 C   0  0  0  0  0  0  0  0  0  0  0  0
   47.9606   10.4312   21.6121 C   0  0  0  0  0  0  0  0  0  0  0  0
   48.9910   13.0135   22.0914 C   0  0  0  0  0  0  0  0  0  0  0  0
   47.3957    9.0529   21.3635 C   0  0  0  0  0  0  0  0  0  0  0  0
   47.6696   11.4864   20.7397 C   0  0  0  0  0  0  0  0  0  0  0  0
   48.7794   10.6770   22.7214 C   0  0  0  0  0  0  0  0  0  0  0  0
   48.1777   12.7653   20.9791 C   0  0  0  0  0  0  0  0  0  0  0  0
   49.2922   11.9551   22.9570 C   0  0  0  0  0  0  0  0  0  0  0  0
   49.2085    5.7762   20.1687 C   0  0  0  0  0  0  0  0  0  0  0  0
   47.0657    6.7279   19.2026 C   0  0  0  0  0  0  0  0  0  0  0  0
   46.5214    5.4418   18.8910 O   0  0  0  0  0  0  0  0  0  0  0  0
   48.8110    4.4248   19.9123 O   0  0  0  0  0  0  0  0  0  0  0  0
   49.5360   14.3954   22.3546 C   0  0  0  0  0  0  0  0  0  0  0  0
   50.9892   14.5854   21.9063 C   0  0  0  0  0  0  0  0  0  0  0  0
   50.2769   18.0507   17.6344 C   0  0  0  0  0  0  0  0  0  0  0  0
   50.0338   16.5820   17.2868 C   0  0  0  0  0  0  0  0  0  0  0  0
   51.2213   14.5301   20.3910 C   0  0  0  0  0  0  0  0  0  0  0  0
   50.5006   15.6421   19.6226 C   0  0  0  0  0  0  0  0  0  0  0  0
   50.8567   15.6067   18.1337 C   0  0  0  0  0  0  0  0  0  0  0  0
   49.5200   18.9751   16.6927 C   0  0  0  0  0  0  0  0  0  0  0  0
   47.8188    5.3666   22.2507 S   0  0  0  0  0  0  0  0  0  0  0  0
   48.5571    6.8115   22.2659 O   0  0  0  0  0  0  0  0  0  0  0  0
   48.8786    4.4421   21.4660 O   0  0  0  0  0  0  0  0  0  0  0  0
   47.8061    4.8590   23.6038 O   0  0  0  0  0  0  0  0  0  0  0  0
   46.6204    5.4542   21.4488 O   0  0  0  0  0  0  0  0  0  0  0  0
   48.7014    7.4991   21.0322 C   0  0  0  0  0  0  0  0  0  0  0  0
   49.4720    8.7866   21.2952 C   0  0  0  0  0  0  0  0  0  0  0  0
   49.8243    9.5622   20.0268 C   0  0  0  0  0  0  0  0  0  0  0  0
   48.6367   10.0119   19.1705 C   0  0  0  0  0  0  0  0  0  0  0  0
   47.5823   10.8598   19.8890 C   0  0  0  0  0  0  0  0  0  0  0  0
   48.0988   12.1272   20.5756 C   0  0  0  0  0  0  0  0  0  0  0  0
   48.7791   13.1075   19.6188 C   0  0  0  0  0  0  0  0  0  0  0  0
   49.1386   14.4118   20.3346 C   0  0  0  0  0  0  0  0  0  0  0  0
   49.8710   15.3785   19.4015 C   0  0  0  0  0  0  0  0  0  0  0  0
   50.1813   16.6981   20.1117 C   0  0  0  0  0  0  0  0  0  0  0  0
   51.0209   17.6598   19.2686 C   0  0  0  0  0  0  0  0  0  0  0  0
   50.3201   18.1346   18.0050 C   0  0  0  0  0  0  0  0  0  0  0  0
   46.4474    6.6148   21.8654 H   0  0  0  0  0  0  0  0  0  0  0  0
   46.6944    5.2195   21.1267 H   0  0  0  0  0  0  0  0  0  0  0  0
   49.2191    7.9543   21.6864 H   0  0  0  0  0  0  0  0  0  0  0  0
   49.0086    8.5118   20.0359 H   0  0  0  0  0  0  0  0  0  0  0  0
   46.9356    8.7015   22.2954 H   0  0  0  0  0  0  0  0  0  0  0  0
   46.5857    9.1254   20.6303 H   0  0  0  0  0  0  0  0  0  0  0  0
   47.0385   11.3249   19.8684 H   0  0  0  0  0  0  0  0  0  0  0  0
   49.0191    9.8740   23.4147 H   0  0  0  0  0  0  0  0  0  0  0  0
   47.9299   13.5688   20.2902 H   0  0  0  0  0  0  0  0  0  0  0  0
   49.9231   12.1214   23.8280 H   0  0  0  0  0  0  0  0  0  0  0  0
   49.9092    5.7620   21.0116 H   0  0  0  0  0  0  0  0  0  0  0  0
   49.7462    6.1419   19.2883 H   0  0  0  0  0  0  0  0  0  0  0  0
   47.6302    7.0826   18.3349 H   0  0  0  0  0  0  0  0  0  0  0  0
   46.2132    7.3958   19.3451 H   0  0  0  0  0  0  0  0  0  0  0  0
   47.2781    4.8136   18.8971 H   0  0  0  0  0  0  0  0  0  0  0  0
   48.4936    4.0994   20.7788 H   0  0  0  0  0  0  0  0  0  0  0  0
   49.4741   14.5846   23.4355 H   0  0  0  0  0  0  0  0  0  0  0  0
   48.8855   15.1511   21.8990 H   0  0  0  0  0  0  0  0  0  0  0  0
   51.6212   13.8233   22.3804 H   0  0  0  0  0  0  0  0  0  0  0  0
   51.3438   15.5549   22.2793 H   0  0  0  0  0  0  0  0  0  0  0  0
   51.3481   18.2758   17.5767 H   0  0  0  0  0  0  0  0  0  0  0  0
   49.9548   18.2580   18.6601 H   0  0  0  0  0  0  0  0  0  0  0  0
   48.9672   16.3495   17.3939 H   0  0  0  0  0  0  0  0  0  0  0  0
   50.2878   16.4158   16.2319 H   0  0  0  0  0  0  0  0  0  0  0  0
   52.3005   14.6166   20.2118 H   0  0  0  0  0  0  0  0  0  0  0  0
   50.9225   13.5508   20.0006 H   0  0  0  0  0  0  0  0  0  0  0  0
   50.7800   16.6121   20.0498 H   0  0  0  0  0  0  0  0  0  0  0  0
   49.4162   15.5370   19.7338 H   0  0  0  0  0  0  0  0  0  0  0  0
   50.6877   14.5940   17.7471 H   0  0  0  0  0  0  0  0  0  0  0  0
   51.9248   15.8200   18.0042 H   0  0  0  0  0  0  0  0  0  0  0  0
   49.7076   20.0214   16.9548 H   0  0  0  0  0  0  0  0  0  0  0  0
   49.8351   18.8237   15.6549 H   0  0  0  0  0  0  0  0  0  0  0  0
   48.4412   18.7982   16.7539 H   0  0  0  0  0  0  0  0  0  0  0  0
   49.4560    4.0359   22.1454 H   0  0  0  0  0  0  0  0  0  0  0  0
   47.7120    7.7219   20.6204 H   0  0  0  0  0  0  0  0  0  0  0  0
   49.2499    6.8693   20.3230 H   0  0  0  0  0  0  0  0  0  0  0  0
   50.4018    8.5386   21.8231 H   0  0  0  0  0  0  0  0  0  0  0  0
   48.9078    9.4165   21.9933 H   0  0  0  0  0  0  0  0  0  0  0  0
   50.4790    8.9396   19.4040 H   0  0  0  0  0  0  0  0  0  0  0  0
   50.4221   10.4368   20.3058 H   0  0  0  0  0  0  0  0  0  0  0  0
   49.0224   10.5683   18.3074 H   0  0  0  0  0  0  0  0  0  0  0  0
   48.1403    9.1305   18.7459 H   0  0  0  0  0  0  0  0  0  0  0  0
   47.0713   10.2433   20.6378 H   0  0  0  0  0  0  0  0  0  0  0  0
   46.8132   11.1419   19.1585 H   0  0  0  0  0  0  0  0  0  0  0  0
   47.2449   12.6234   21.0528 H   0  0  0  0  0  0  0  0  0  0  0  0
   48.7889   11.8616   21.3842 H   0  0  0  0  0  0  0  0  0  0  0  0
   49.6903   12.6593   19.2078 H   0  0  0  0  0  0  0  0  0  0  0  0
   48.1126   13.3240   18.7753 H   0  0  0  0  0  0  0  0  0  0  0  0
   48.2231   14.8860   20.7091 H   0  0  0  0  0  0  0  0  0  0  0  0
   49.7704   14.1940   21.2062 H   0  0  0  0  0  0  0  0  0  0  0  0
   50.8043   14.9177   19.0533 H   0  0  0  0  0  0  0  0  0  0  0  0
   49.2497   15.5655   18.5177 H   0  0  0  0  0  0  0  0  0  0  0  0
   50.7285   16.4880   21.0389 H   0  0  0  0  0  0  0  0  0  0  0  0
   49.2450   17.1892   20.4030 H   0  0  0  0  0  0  0  0  0  0  0  0
   51.9742   17.1878   19.0034 H   0  0  0  0  0  0  0  0  0  0  0  0
   51.2642   18.5356   19.8826 H   0  0  0  0  0  0  0  0  0  0  0  0
   49.3387   18.5622   18.2332 H   0  0  0  0  0  0  0  0  0  0  0  0
   50.1851   17.3153   17.2909 H   0  0  0  0  0  0  0  0  0  0  0  0
   50.9192   18.9076   17.5119 H   0  0  0  0  0  0  0  0  0  0  0  0
  1  2  1  0
  1  3  1  0
  3  6  1  0
  4  6  1  0
  4  7  2  0
  4  8  1  0
  5  9  2  0
  7  9  1  0
  5 10  1  0
  8 10  2  0
  1 11  1  0
  1 12  1  0
 12 13  1  0
 11 14  1  0
  5 15  1  0
 15 16  1  0
 17 18  1  0
 16 19  1  0
 19 20  1  0
 18 21  1  0
 20 21  1  0
 17 22  1  0
 23 24  1  0
 23 25  1  0
 23 26  2  0
 23 27  2  0
 24 28  1  0
 28 29  1  0
 29 30  1  0
 30 31  1  0
 31 32  1  0
 32 33  1  0
 33 34  1  0
 34 35  1  0
 35 36  1  0
 36 37  1  0
 37 38  1  0
 38 39  1  0
  2 40  1  0
  2 41  1  0
  3 42  1  0
  3 43  1  0
  6 44  1  0
  6 45  1  0
  7 46  1  0
  8 47  1  0
  9 48  1  0
 10 49  1  0
 11 50  1  0
 11 51  1  0
 12 52  1  0
 12 53  1  0
 13 54  1  0
 14 55  1  0
 15 56  1  0
 15 57  1  0
 16 58  1  0
 16 59  1  0
 17 60  1  0
 17 61  1  0
 18 62  1  0
 18 63  1  0
 19 64  1  0
 19 65  1  0
 20 66  1  0
 20 67  1  0
 21 68  1  0
 21 69  1  0
 22 70  1  0
 22 71  1  0
 22 72  1  0
 25 73  1  0
 28 74  1  0
 28 75  1  0
 29 76  1  0
 29 77  1  0
 30 78  1  0
 30 79  1  0
 31 80  1  0
 31 81  1  0
 32 82  1  0
 32 83  1  0
 33 84  1  0
 33 85  1  0
 34 86  1  0
 34 87  1  0
 35 88  1  0
 35 89  1  0
 36 90  1  0
 36 91  1  0
 37 92  1  0
 37 93  1  0
 38 94  1  0
 38 95  1  0
 39 96  1  0
 39 97  1  0
 39 98  1  0
M  END
> <Uni-Dock RESULT> 
ENERGY=   -4.833  LOWER_BOUND=    0.000  UPPER_BOUND=    0.000
INTER + INTRA:          -4.833
INTER:                  -4.833
INTRA:                   0.000
UNBOUND:                 0.000

$$$$

     RDKit          3D

 98 97  0  0  0  0  0  0  0  0999 V2000
   47.9662    6.6640   20.4703 C   0  0  0  0  0  0  0  0  0  0  0  0
   47.2028    6.0000   21.5623 N   0  0  0  0  0  0  0  0  0  0  0  0
   48.4717    8.0667   20.8866 C   0  0  0  0  0  0  0  0  0  0  0  0
   47.9606   10.4312   21.6122 C   0  0  0  0  0  0  0  0  0  0  0  0
   48.9910   13.0135   22.0914 C   0  0  0  0  0  0  0  0  0  0  0  0
   47.3957    9.0529   21.3635 C   0  0  0  0  0  0  0  0  0  0  0  0
   47.6696   11.4864   20.7397 C   0  0  0  0  0  0  0  0  0  0  0  0
   48.7794   10.6770   22.7214 C   0  0  0  0  0  0  0  0  0  0  0  0
   48.1777   12.7653   20.9792 C   0  0  0  0  0  0  0  0  0  0  0  0
   49.2921   11.9551   22.9571 C   0  0  0  0  0  0  0  0  0  0  0  0
   49.2085    5.7762   20.1688 C   0  0  0  0  0  0  0  0  0  0  0  0
   47.0657    6.7279   19.2026 C   0  0  0  0  0  0  0  0  0  0  0  0
   46.5214    5.4418   18.8910 O   0  0  0  0  0  0  0  0  0  0  0  0
   48.8110    4.4248   19.9124 O   0  0  0  0  0  0  0  0  0  0  0  0
   49.5359   14.3954   22.3547 C   0  0  0  0  0  0  0  0  0  0  0  0
   50.9892   14.5854   21.9064 C   0  0  0  0  0  0  0  0  0  0  0  0
   50.2769   18.0507   17.6344 C   0  0  0  0  0  0  0  0  0  0  0  0
   50.0338   16.5820   17.2868 C   0  0  0  0  0  0  0  0  0  0  0  0
   51.2213   14.5300   20.3910 C   0  0  0  0  0  0  0  0  0  0  0  0
   50.5006   15.6421   19.6227 C   0  0  0  0  0  0  0  0  0  0  0  0
   50.8567   15.6067   18.1337 C   0  0  0  0  0  0  0  0  0  0  0  0
   49.5200   18.9751   16.6927 C   0  0  0  0  0  0  0  0  0  0  0  0
   47.8188    5.3666   22.2508 S   0  0  0  0  0  0  0  0  0  0  0  0
   48.5570    6.8115   22.2659 O   0  0  0  0  0  0  0  0  0  0  0  0
   48.8786    4.4421   21.4661 O   0  0  0  0  0  0  0  0  0  0  0  0
   47.8061    4.8590   23.6039 O   0  0  0  0  0  0  0  0  0  0  0  0
   46.6203    5.4542   21.4488 O   0  0  0  0  0  0  0  0  0  0  0  0
   48.7014    7.4991   21.0323 C   0  0  0  0  0  0  0  0  0  0  0  0
   49.4720    8.7866   21.2953 C   0  0  0  0  0  0  0  0  0  0  0  0
   49.8243    9.5621   20.0268 C   0  0  0  0  0  0  0  0  0  0  0  0
   48.6367   10.0119   19.1706 C   0  0  0  0  0  0  0  0  0  0  0  0
   47.5823   10.8598   19.8891 C   0  0  0  0  0  0  0  0  0  0  0  0
   48.0988   12.1272   20.5756 C   0  0  0  0  0  0  0  0  0  0  0  0
   48.7791   13.1075   19.6188 C   0  0  0  0  0  0  0  0  0  0  0  0
   49.1386   14.4118   20.3346 C   0  0  0  0  0  0  0  0  0  0  0  0
   49.8710   15.3785   19.4015 C   0  0  0  0  0  0  0  0  0  0  0  0
   50.1813   16.6980   20.1117 C   0  0  0  0  0  0  0  0  0  0  0  0
   51.0209   17.6598   19.2686 C   0  0  0  0  0  0  0  0  0  0  0  0
   50.3202   18.1345   18.0051 C   0  0  0  0  0  0  0  0  0  0  0  0
   46.4474    6.6148   21.8655 H   0  0  0  0  0  0  0  0  0  0  0  0
   46.6944    5.2195   21.1268 H   0  0  0  0  0  0  0  0  0  0  0  0
   49.2191    7.9543   21.6865 H   0  0  0  0  0  0  0  0  0  0  0  0
   49.0086    8.5118   20.0359 H   0  0  0  0  0  0  0  0  0  0  0  0
   46.9356    8.7014   22.2955 H   0  0  0  0  0  0  0  0  0  0  0  0
   46.5857    9.1254   20.6303 H   0  0  0  0  0  0  0  0  0  0  0  0
   47.0385   11.3249   19.8684 H   0  0  0  0  0  0  0  0  0  0  0  0
   49.0191    9.8740   23.4147 H   0  0  0  0  0  0  0  0  0  0  0  0
   47.9299   13.5688   20.2902 H   0  0  0  0  0  0  0  0  0  0  0  0
   49.9231   12.1214   23.8280 H   0  0  0  0  0  0  0  0  0  0  0  0
   49.9092    5.7620   21.0117 H   0  0  0  0  0  0  0  0  0  0  0  0
   49.7462    6.1419   19.2883 H   0  0  0  0  0  0  0  0  0  0  0  0
   47.6303    7.0825   18.3350 H   0  0  0  0  0  0  0  0  0  0  0  0
   46.2132    7.3957   19.3451 H   0  0  0  0  0  0  0  0  0  0  0  0
   47.2781    4.8135   18.8971 H   0  0  0  0  0  0  0  0  0  0  0  0
   48.4936    4.0994   20.7789 H   0  0  0  0  0  0  0  0  0  0  0  0
   49.4741   14.5846   23.4355 H   0  0  0  0  0  0  0  0  0  0  0  0
   48.8855   15.1511   21.8990 H   0  0  0  0  0  0  0  0  0  0  0  0
   51.6212   13.8233   22.3804 H   0  0  0  0  0  0  0  0  0  0  0  0
   51.3438   15.5549   22.2793 H   0  0  0  0  0  0  0  0  0  0  0  0
   51.3481   18.2758   17.5767 H   0  0  0  0  0  0  0  0  0  0  0  0
   49.9548   18.2580   18.6601 H   0  0  0  0  0  0  0  0  0  0  0  0
   48.9672   16.3494   17.3939 H   0  0  0  0  0  0  0  0  0  0  0  0
   50.2878   16.4158   16.2319 H   0  0  0  0  0  0  0  0  0  0  0  0
   52.3005   14.6166   20.2119 H   0  0  0  0  0  0  0  0  0  0  0  0
   50.9225   13.5508   20.0006 H   0  0  0  0  0  0  0  0  0  0  0  0
   50.7800   16.6121   20.0498 H   0  0  0  0  0  0  0  0  0  0  0  0
   49.4162   15.5370   19.7338 H   0  0  0  0  0  0  0  0  0  0  0  0
   50.6877   14.5939   17.7471 H   0  0  0  0  0  0  0  0  0  0  0  0
   51.9248   15.8200   18.0042 H   0  0  0  0  0  0  0  0  0  0  0  0
   49.7076   20.0214   16.9548 H   0  0  0  0  0  0  0  0  0  0  0  0
   49.8351   18.8236   15.6549 H   0  0  0  0  0  0  0  0  0  0  0  0
   48.4413   18.7982   16.7539 H   0  0  0  0  0  0  0  0  0  0  0  0
   49.4560    4.0359   22.1455 H   0  0  0  0  0  0  0  0  0  0  0  0
   47.7120    7.7219   20.6204 H   0  0  0  0  0  0  0  0  0  0  0  0
   49.2499    6.8693   20.3231 H   0  0  0  0  0  0  0  0  0  0  0  0
   50.4017    8.5386   21.8232 H   0  0  0  0  0  0  0  0  0  0  0  0
   48.9078    9.4165   21.9934 H   0  0  0  0  0  0  0  0  0  0  0  0
   50.4790    8.9396   19.4040 H   0  0  0  0  0  0  0  0  0  0  0  0
   50.4221   10.4368   20.3059 H   0  0  0  0  0  0  0  0  0  0  0  0
   49.0224   10.5682   18.3074 H   0  0  0  0  0  0  0  0  0  0  0  0
   48.1403    9.1305   18.7460 H   0  0  0  0  0  0  0  0  0  0  0  0
   47.0713   10.2433   20.6378 H   0  0  0  0  0  0  0  0  0  0  0  0
   46.8132   11.1419   19.1585 H   0  0  0  0  0  0  0  0  0  0  0  0
   47.2449   12.6234   21.0529 H   0  0  0  0  0  0  0  0  0  0  0  0
   48.7889   11.8616   21.3843 H   0  0  0  0  0  0  0  0  0  0  0  0
   49.6903   12.6592   19.2078 H   0  0  0  0  0  0  0  0  0  0  0  0
   48.1126   13.3239   18.7754 H   0  0  0  0  0  0  0  0  0  0  0  0
   48.2231   14.8860   20.7091 H   0  0  0  0  0  0  0  0  0  0  0  0
   49.7704   14.1940   21.2062 H   0  0  0  0  0  0  0  0  0  0  0  0
   50.8043   14.9176   19.0534 H   0  0  0  0  0  0  0  0  0  0  0  0
   49.2497   15.5655   18.5177 H   0  0  0  0  0  0  0  0  0  0  0  0
   50.7284   16.4879   21.0389 H   0  0  0  0  0  0  0  0  0  0  0  0
   49.2450   17.1892   20.4030 H   0  0  0  0  0  0  0  0  0  0  0  0
   51.9742   17.1877   19.0034 H   0  0  0  0  0  0  0  0  0  0  0  0
   51.2642   18.5355   19.8826 H   0  0  0  0  0  0  0  0  0  0  0  0
   49.3387   18.5622   18.2332 H   0  0  0  0  0  0  0  0  0  0  0  0
   50.1851   17.3153   17.2909 H   0  0  0  0  0  0  0  0  0  0  0  0
   50.9192   18.9076   17.5119 H   0  0  0  0  0  0  0  0  0  0  0  0
  1  2  1  0
  1  3  1  0
  3  6  1  0
  4  6  1  0
  4  7  2  0
  4  8  1  0
  5  9  2  0
  7  9  1  0
  5 10  1  0
  8 10  2  0
  1 11  1  0
  1 12  1  0
 12 13  1  0
 11 14  1  0
  5 15  1  0
 15 16  1  0
 17 18  1  0
 16 19  1  0
 19 20  1  0
 18 21  1  0
 20 21  1  0
 17 22  1  0
 23 24  1  0
 23 25  1  0
 23 26  2  0
 23 27  2  0
 24 28  1  0
 28 29  1  0
 29 30  1  0
 30 31  1  0
 31 32  1  0
 32 33  1  0
 33 34  1  0
 34 35  1  0
 35 36  1  0
 36 37  1  0
 37 38  1  0
 38 39  1  0
  2 40  1  0
  2 41  1  0
  3 42  1  0
  3 43  1  0
  6 44  1  0
  6 45  1  0
  7 46  1  0
  8 47  1  0
  9 48  1  0
 10 49  1  0
 11 50  1  0
 11 51  1  0
 12 52  1  0
 12 53  1  0
 13 54  1  0
 14 55  1  0
 15 56  1  0
 15 57  1  0
 16 58  1  0
 16 59  1  0
 17 60  1  0
 17 61  1  0
 18 62  1  0
 18 63  1  0
 19 64  1  0
 19 65  1  0
 20 66  1  0
 20 67  1  0
 21 68  1  0
 21 69  1  0
 22 70  1  0
 22 71  1  0
 22 72  1  0
 25 73  1  0
 28 74  1  0
 28 75  1  0
 29 76  1  0
 29 77  1  0
 30 78  1  0
 30 79  1  0
 31 80  1  0
 31 81  1  0
 32 82  1  0
 32 83  1  0
 33 84  1  0
 33 85  1  0
 34 86  1  0
 34 87  1  0
 35 88  1  0
 35 89  1  0
 36 90  1  0
 36 91  1  0
 37 92  1  0
 37 93  1  0
 38 94  1  0
 38 95  1  0
 39 96  1  0
 39 97  1  0
 39 98  1  0
M  END
> <Uni-Dock RESULT> 
ENERGY=   -4.833  LOWER_BOUND=    0.000  UPPER_BOUND=    0.000
INTER + INTRA:          -4.833
INTER:                  -4.833
INTRA:                   0.000
UNBOUND:                 0.000

$$$$

     RDKit          3D

 98 97  0  0  0  0  0  0  0  0999 V2000
   54.8528    4.1954   22.0842 C   0  0  0  0  0  0  0  0  0  0  0  0
   54.8204    2.7083   22.0240 N   0  0  0  0  0  0  0  0  0  0  0  0
   53.4302    4.8057   22.1011 C   0  0  0  0  0  0  0  0  0  0  0  0
   51.2069    5.1611   20.9570 C   0  0  0  0  0  0  0  0  0  0  0  0
   48.7477    6.5435   20.9851 C   0  0  0  0  0  0  0  0  0  0  0  0
   52.5173    4.4108   20.9314 C   0  0  0  0  0  0  0  0  0  0  0  0
   50.9458    6.1673   20.0196 C   0  0  0  0  0  0  0  0  0  0  0  0
   50.2307    4.8590   21.9147 C   0  0  0  0  0  0  0  0  0  0  0  0
   49.7268    6.8493   20.0323 C   0  0  0  0  0  0  0  0  0  0  0  0
   49.0141    5.5457   21.9305 C   0  0  0  0  0  0  0  0  0  0  0  0
   55.5596    4.5888   23.4140 C   0  0  0  0  0  0  0  0  0  0  0  0
   55.6929    4.7229   20.8851 C   0  0  0  0  0  0  0  0  0  0  0  0
   56.9660    4.0729   20.8215 O   0  0  0  0  0  0  0  0  0  0  0  0
   56.8303    3.9377   23.5202 O   0  0  0  0  0  0  0  0  0  0  0  0
   47.4284    7.2753   20.9966 C   0  0  0  0  0  0  0  0  0  0  0  0
   47.3486    8.3947   22.0404 C   0  0  0  0  0  0  0  0  0  0  0  0
   47.3066   12.8483   18.7345 C   0  0  0  0  0  0  0  0  0  0  0  0
   48.7031   12.2821   18.9920 C   0  0  0  0  0  0  0  0  0  0  0  0
   48.2748    9.5918   21.7912 C   0  0  0  0  0  0  0  0  0  0  0  0
   47.9658   10.3420   20.4919 C   0  0  0  0  0  0  0  0  0  0  0  0
   48.8433   11.5891   20.3505 C   0  0  0  0  0  0  0  0  0  0  0  0
   47.2545   13.6183   17.4235 C   0  0  0  0  0  0  0  0  0  0  0  0
   54.8165    2.1958   23.0199 S   0  0  0  0  0  0  0  0  0  0  0  0
   53.5709    3.2328   23.0968 O   0  0  0  0  0  0  0  0  0  0  0  0
   55.8691    2.8384   24.0556 O   0  0  0  0  0  0  0  0  0  0  0  0
   54.3996    0.9534   23.6294 O   0  0  0  0  0  0  0  0  0  0  0  0
   55.3981    2.2495   21.6986 O   0  0  0  0  0  0  0  0  0  0  0  0
   53.7560    4.5372   22.5679 C   0  0  0  0  0  0  0  0  0  0  0  0
   52.4797    5.3324   22.8118 C   0  0  0  0  0  0  0  0  0  0  0  0
   52.5880    6.8047   22.4176 C   0  0  0  0  0  0  0  0  0  0  0  0
   52.9166    7.0771   20.9466 C   0  0  0  0  0  0  0  0  0  0  0  0
   51.9633    6.4490   19.9251 C   0  0  0  0  0  0  0  0  0  0  0  0
   50.4823    6.8015   20.0886 C   0  0  0  0  0  0  0  0  0  0  0  0
   50.1962    8.3011   19.9950 C   0  0  0  0  0  0  0  0  0  0  0  0
   48.6903    8.5742   20.0174 C   0  0  0  0  0  0  0  0  0  0  0  0
   48.3935   10.0749   19.9815 C   0  0  0  0  0  0  0  0  0  0  0  0
   46.8858   10.3358   19.9536 C   0  0  0  0  0  0  0  0  0  0  0  0
   46.5236   11.8197   20.0405 C   0  0  0  0  0  0  0  0  0  0  0  0
   47.0110   12.6373   18.8544 C   0  0  0  0  0  0  0  0  0  0  0  0
   54.2595    2.4171   21.2233 H   0  0  0  0  0  0  0  0  0  0  0  0
   55.7665    2.4090   21.7545 H   0  0  0  0  0  0  0  0  0  0  0  0
   52.9319    4.5246   23.0412 H   0  0  0  0  0  0  0  0  0  0  0  0
   53.5201    5.9018   22.1264 H   0  0  0  0  0  0  0  0  0  0  0  0
   52.2942    3.3370   20.9612 H   0  0  0  0  0  0  0  0  0  0  0  0
   53.0154    4.5938   19.9736 H   0  0  0  0  0  0  0  0  0  0  0  0
   51.6861    6.4255   19.2654 H   0  0  0  0  0  0  0  0  0  0  0  0
   50.4092    4.0806   22.6530 H   0  0  0  0  0  0  0  0  0  0  0  0
   49.5464    7.6209   19.2880 H   0  0  0  0  0  0  0  0  0  0  0  0
   48.2702    5.2900   22.6825 H   0  0  0  0  0  0  0  0  0  0  0  0
   54.9646    4.3007   24.2884 H   0  0  0  0  0  0  0  0  0  0  0  0
   55.7296    5.6690   23.4618 H   0  0  0  0  0  0  0  0  0  0  0  0
   55.8602    5.8013   20.9645 H   0  0  0  0  0  0  0  0  0  0  0  0
   55.2007    4.5283   19.9296 H   0  0  0  0  0  0  0  0  0  0  0  0
   57.3506    4.1313   21.7248 H   0  0  0  0  0  0  0  0  0  0  0  0
   56.6065    2.9930   23.6429 H   0  0  0  0  0  0  0  0  0  0  0  0
   46.6358    6.5431   21.2053 H   0  0  0  0  0  0  0  0  0  0  0  0
   47.2005    7.6589   19.9952 H   0  0  0  0  0  0  0  0  0  0  0  0
   47.5729    7.9856   23.0339 H   0  0  0  0  0  0  0  0  0  0  0  0
   46.3132    8.7566   22.0830 H   0  0  0  0  0  0  0  0  0  0  0  0
   47.0163   13.5141   19.5554 H   0  0  0  0  0  0  0  0  0  0  0  0
   46.5692   12.0400   18.6936 H   0  0  0  0  0  0  0  0  0  0  0  0
   48.9688   11.5788   18.1934 H   0  0  0  0  0  0  0  0  0  0  0  0
   49.4353   13.0988   18.9487 H   0  0  0  0  0  0  0  0  0  0  0  0
   48.1655   10.2842   22.6356 H   0  0  0  0  0  0  0  0  0  0  0  0
   49.3207    9.2650   21.7952 H   0  0  0  0  0  0  0  0  0  0  0  0
   46.9077   10.6282   20.4862 H   0  0  0  0  0  0  0  0  0  0  0  0
   48.1314    9.6882   19.6292 H   0  0  0  0  0  0  0  0  0  0  0  0
   49.8951   11.3058   20.4812 H   0  0  0  0  0  0  0  0  0  0  0  0
   48.6060   12.3004   21.1511 H   0  0  0  0  0  0  0  0  0  0  0  0
   46.2489   14.0179   17.2570 H   0  0  0  0  0  0  0  0  0  0  0  0
   47.9564   14.4588   17.4326 H   0  0  0  0  0  0  0  0  0  0  0  0
   47.5060   12.9694   16.5783 H   0  0  0  0  0  0  0  0  0  0  0  0
   55.6977    2.4230   24.9263 H   0  0  0  0  0  0  0  0  0  0  0  0
   53.9669    4.4702   21.4960 H   0  0  0  0  0  0  0  0  0  0  0  0
   54.6026    5.0196   23.0690 H   0  0  0  0  0  0  0  0  0  0  0  0
   52.2268    5.2736   23.8781 H   0  0  0  0  0  0  0  0  0  0  0  0
   51.6420    4.8507   22.2936 H   0  0  0  0  0  0  0  0  0  0  0  0
   53.3621    7.2783   23.0345 H   0  0  0  0  0  0  0  0  0  0  0  0
   51.6501    7.3070   22.6787 H   0  0  0  0  0  0  0  0  0  0  0  0
   52.9477    8.1629   20.7935 H   0  0  0  0  0  0  0  0  0  0  0  0
   53.9337    6.7272   20.7306 H   0  0  0  0  0  0  0  0  0  0  0  0
   52.0660    5.3581   19.9577 H   0  0  0  0  0  0  0  0  0  0  0  0
   52.2896    6.7502   18.9212 H   0  0  0  0  0  0  0  0  0  0  0  0
   49.9230    6.2783   19.3035 H   0  0  0  0  0  0  0  0  0  0  0  0
   50.1069    6.4128   21.0419 H   0  0  0  0  0  0  0  0  0  0  0  0
   50.6700    8.8262   20.8316 H   0  0  0  0  0  0  0  0  0  0  0  0
   50.6280    8.7030   19.0707 H   0  0  0  0  0  0  0  0  0  0  0  0
   48.2189    8.0862   19.1555 H   0  0  0  0  0  0  0  0  0  0  0  0
   48.2475    8.1342   20.9210 H   0  0  0  0  0  0  0  0  0  0  0  0
   48.8361   10.5586   20.8618 H   0  0  0  0  0  0  0  0  0  0  0  0
   48.8665   10.5141   19.0953 H   0  0  0  0  0  0  0  0  0  0  0  0
   46.4150    9.8180   20.7983 H   0  0  0  0  0  0  0  0  0  0  0  0
   46.4541    9.9069   19.0412 H   0  0  0  0  0  0  0  0  0  0  0  0
   46.9221   12.2467   20.9683 H   0  0  0  0  0  0  0  0  0  0  0  0
   45.4317   11.9062   20.0988 H   0  0  0  0  0  0  0  0  0  0  0  0
   46.6735   12.2026   17.9081 H   0  0  0  0  0  0  0  0  0  0  0  0
   48.1040   12.7035   18.8365 H   0  0  0  0  0  0  0  0  0  0  0  0
   46.6189   13.6581   18.9161 H   0  0  0  0  0  0  0  0  0  0  0  0
  1  2  1  0
  1  3  1  0
  3  6  1  0
  4  6  1  0
  4  7  2  0
  4  8  1  0
  5  9  2  0
  7  9  1  0
  5 10  1  0
  8 10  2  0
  1 11  1  0
  1 12  1  0
 12 13  1  0
 11 14  1  0
  5 15  1  0
 15 16  1  0
 17 18  1  0
 16 19  1  0
 19 20  1  0
 18 21  1  0
 20 21  1  0
 17 22  1  0
 23 24  1  0
 23 25  1  0
 23 26  2  0
 23 27  2  0
 24 28  1  0
 28 29  1  0
 29 30  1  0
 30 31  1  0
 31 32  1  0
 32 33  1  0
 33 34  1  0
 34 35  1  0
 35 36  1  0
 36 37  1  0
 37 38  1  0
 38 39  1  0
  2 40  1  0
  2 41  1  0
  3 42  1  0
  3 43  1  0
  6 44  1  0
  6 45  1  0
  7 46  1  0
  8 47  1  0
  9 48  1  0
 10 49  1  0
 11 50  1  0
 11 51  1  0
 12 52  1  0
 12 53  1  0
 13 54  1  0
 14 55  1  0
 15 56  1  0
 15 57  1  0
 16 58  1  0
 16 59  1  0
 17 60  1  0
 17 61  1  0
 18 62  1  0
 18 63  1  0
 19 64  1  0
 19 65  1  0
 20 66  1  0
 20 67  1  0
 21 68  1  0
 21 69  1  0
 22 70  1  0
 22 71  1  0
 22 72  1  0
 25 73  1  0
 28 74  1  0
 28 75  1  0
 29 76  1  0
 29 77  1  0
 30 78  1  0
 30 79  1  0
 31 80  1  0
 31 81  1  0
 32 82  1  0
 32 83  1  0
 33 84  1  0
 33 85  1  0
 34 86  1  0
 34 87  1  0
 35 88  1  0
 35 89  1  0
 36 90  1  0
 36 91  1  0
 37 92  1  0
 37 93  1  0
 38 94  1  0
 38 95  1  0
 39 96  1  0
 39 97  1  0
 39 98  1  0
M  END
> <Uni-Dock RESULT> 
ENERGY=   -4.756  LOWER_BOUND=    4.363  UPPER_BOUND=    6.789
INTER + INTRA:          -4.756
INTER:                  -4.756
INTRA:                   0.000
UNBOUND:                 0.000

$$$$

     RDKit          3D

 98 97  0  0  0  0  0  0  0  0999 V2000
   52.9802   11.0598    8.0969 C   0  0  0  0  0  0  0  0  0  0  0  0
   52.1930   11.2283    6.8447 N   0  0  0  0  0  0  0  0  0  0  0  0
   53.7230    9.7021    8.1362 C   0  0  0  0  0  0  0  0  0  0  0  0
   53.6327    7.1783    8.1628 C   0  0  0  0  0  0  0  0  0  0  0  0
   55.0805    4.7818    8.5096 C   0  0  0  0  0  0  0  0  0  0  0  0
   52.8457    8.4529    7.9706 C   0  0  0  0  0  0  0  0  0  0  0  0
   53.4552    6.4001    9.3126 C   0  0  0  0  0  0  0  0  0  0  0  0
   54.5479    6.7520    7.1922 C   0  0  0  0  0  0  0  0  0  0  0  0
   54.1702    5.2123    9.4824 C   0  0  0  0  0  0  0  0  0  0  0  0
   55.2671    5.5668    7.3654 C   0  0  0  0  0  0  0  0  0  0  0  0
   54.0478   12.1920    8.1276 C   0  0  0  0  0  0  0  0  0  0  0  0
   52.0228   11.2290    9.3120 C   0  0  0  0  0  0  0  0  0  0  0  0
   51.2664   12.4393    9.2083 O   0  0  0  0  0  0  0  0  0  0  0  0
   53.4295   13.4715    7.9532 O   0  0  0  0  0  0  0  0  0  0  0  0
   55.8493    3.4962    8.6887 C   0  0  0  0  0  0  0  0  0  0  0  0
   57.2833    3.6954    9.1917 C   0  0  0  0  0  0  0  0  0  0  0  0
   56.8517    1.6021   14.3100 C   0  0  0  0  0  0  0  0  0  0  0  0
   56.3617    3.0450   14.1884 C   0  0  0  0  0  0  0  0  0  0  0  0
   57.4082    4.2405   10.6201 C   0  0  0  0  0  0  0  0  0  0  0  0
   56.8225    3.3057   11.6829 C   0  0  0  0  0  0  0  0  0  0  0  0
   57.0744    3.8449   13.0939 C   0  0  0  0  0  0  0  0  0  0  0  0
   56.1902    0.8895   15.4799 C   0  0  0  0  0  0  0  0  0  0  0  0
   52.7450   11.7199    6.0031 S   0  0  0  0  0  0  0  0  0  0  0  0
   53.6986   10.4819    6.4401 O   0  0  0  0  0  0  0  0  0  0  0  0
   53.5965   13.0008    6.4803 O   0  0  0  0  0  0  0  0  0  0  0  0
   52.7386   11.7889    4.5595 O   0  0  0  0  0  0  0  0  0  0  0  0
   51.5267   11.6775    6.7784 O   0  0  0  0  0  0  0  0  0  0  0  0
   53.8703   10.2300    7.8267 C   0  0  0  0  0  0  0  0  0  0  0  0
   54.8468    9.0709    7.9799 C   0  0  0  0  0  0  0  0  0  0  0  0
   55.2351    8.7817    9.4291 C   0  0  0  0  0  0  0  0  0  0  0  0
   54.0804    8.4172   10.3671 C   0  0  0  0  0  0  0  0  0  0  0  0
   53.2182    7.2290    9.9295 C   0  0  0  0  0  0  0  0  0  0  0  0
   53.9677    5.9193    9.6702 C   0  0  0  0  0  0  0  0  0  0  0  0
   54.7307    5.3992   10.8895 C   0  0  0  0  0  0  0  0  0  0  0  0
   55.3332    4.0198   10.6118 C   0  0  0  0  0  0  0  0  0  0  0  0
   56.1468    3.5142   11.8050 C   0  0  0  0  0  0  0  0  0  0  0  0
   56.7028    2.1139   11.5366 C   0  0  0  0  0  0  0  0  0  0  0  0
   57.6271    1.6039   12.6440 C   0  0  0  0  0  0  0  0  0  0  0  0
   56.9307    1.4195   13.9834 C   0  0  0  0  0  0  0  0  0  0  0  0
   51.5630   10.4336    6.7349 H   0  0  0  0  0  0  0  0  0  0  0  0
   51.5430   12.0068    7.0141 H   0  0  0  0  0  0  0  0  0  0  0  0
   54.4926    9.6931    7.3496 H   0  0  0  0  0  0  0  0  0  0  0  0
   54.2680    9.6290    9.0888 H   0  0  0  0  0  0  0  0  0  0  0  0
   52.3961    8.4266    6.9702 H   0  0  0  0  0  0  0  0  0  0  0  0
   52.0124    8.4690    8.6807 H   0  0  0  0  0  0  0  0  0  0  0  0
   52.7531    6.7073   10.0848 H   0  0  0  0  0  0  0  0  0  0  0  0
   54.7029    7.3385    6.2895 H   0  0  0  0  0  0  0  0  0  0  0  0
   54.0076    4.6226   10.3811 H   0  0  0  0  0  0  0  0  0  0  0  0
   55.9697    5.2551    6.5950 H   0  0  0  0  0  0  0  0  0  0  0  0
   54.7893   12.0699    7.3296 H   0  0  0  0  0  0  0  0  0  0  0  0
   54.5794   12.2024    9.0844 H   0  0  0  0  0  0  0  0  0  0  0  0
   52.5799   11.2506   10.2535 H   0  0  0  0  0  0  0  0  0  0  0  0
   51.2952   10.4164    9.3702 H   0  0  0  0  0  0  0  0  0  0  0  0
   51.9150   13.1542    9.0196 H   0  0  0  0  0  0  0  0  0  0  0  0
   53.1205   13.4643    7.0248 H   0  0  0  0  0  0  0  0  0  0  0  0
   55.8857    2.9841    7.7170 H   0  0  0  0  0  0  0  0  0  0  0  0
   55.2970    2.8142    9.3457 H   0  0  0  0  0  0  0  0  0  0  0  0
   57.8176    4.3748    8.5150 H   0  0  0  0  0  0  0  0  0  0  0  0
   57.8072    2.7324    9.1378 H   0  0  0  0  0  0  0  0  0  0  0  0
   57.9391    1.5873   14.4471 H   0  0  0  0  0  0  0  0  0  0  0  0
   56.6309    1.0460   13.3931 H   0  0  0  0  0  0  0  0  0  0  0  0
   55.2808    3.0528   14.0020 H   0  0  0  0  0  0  0  0  0  0  0  0
   56.5199    3.5599   15.1449 H   0  0  0  0  0  0  0  0  0  0  0  0
   58.4743    4.3935   10.8306 H   0  0  0  0  0  0  0  0  0  0  0  0
   56.9367    5.2272   10.6884 H   0  0  0  0  0  0  0  0  0  0  0  0
   57.2757    2.3134   11.5767 H   0  0  0  0  0  0  0  0  0  0  0  0
   55.7441    3.1896   11.5315 H   0  0  0  0  0  0  0  0  0  0  0  0
   56.7259    4.8837   13.1499 H   0  0  0  0  0  0  0  0  0  0  0  0
   58.1524    3.8622   13.2957 H   0  0  0  0  0  0  0  0  0  0  0  0
   56.5544   -0.1404   15.5529 H   0  0  0  0  0  0  0  0  0  0  0  0
   56.4120    1.3956   16.4254 H   0  0  0  0  0  0  0  0  0  0  0  0
   55.1031    0.8568   15.3541 H   0  0  0  0  0  0  0  0  0  0  0  0
   54.1453   13.2753    5.7165 H   0  0  0  0  0  0  0  0  0  0  0  0
   52.9037    9.9786    8.2746 H   0  0  0  0  0  0  0  0  0  0  0  0
   54.2684   11.1259    8.3158 H   0  0  0  0  0  0  0  0  0  0  0  0
   55.7580    9.3012    7.4130 H   0  0  0  0  0  0  0  0  0  0  0  0
   54.4325    8.1757    7.5011 H   0  0  0  0  0  0  0  0  0  0  0  0
   55.7444    9.6627    9.8396 H   0  0  0  0  0  0  0  0  0  0  0  0
   55.9780    7.9766    9.4386 H   0  0  0  0  0  0  0  0  0  0  0  0
   54.4930    8.2180   11.3638 H   0  0  0  0  0  0  0  0  0  0  0  0
   53.4273    9.2892   10.4954 H   0  0  0  0  0  0  0  0  0  0  0  0
   52.6656    7.4981    9.0218 H   0  0  0  0  0  0  0  0  0  0  0  0
   52.4579    7.0543   10.7018 H   0  0  0  0  0  0  0  0  0  0  0  0
   53.2332    5.1673    9.3572 H   0  0  0  0  0  0  0  0  0  0  0  0
   54.6575    6.0419    8.8278 H   0  0  0  0  0  0  0  0  0  0  0  0
   55.5334    6.0960   11.1549 H   0  0  0  0  0  0  0  0  0  0  0  0
   54.0544    5.3373   11.7504 H   0  0  0  0  0  0  0  0  0  0  0  0
   54.5280    3.3090   10.3891 H   0  0  0  0  0  0  0  0  0  0  0  0
   55.9769    4.0688    9.7232 H   0  0  0  0  0  0  0  0  0  0  0  0
   56.9733    4.2076   12.0069 H   0  0  0  0  0  0  0  0  0  0  0  0
   55.5079    3.4995   12.6958 H   0  0  0  0  0  0  0  0  0  0  0  0
   57.2678    2.1249   10.5964 H   0  0  0  0  0  0  0  0  0  0  0  0
   55.8745    1.4086   11.3980 H   0  0  0  0  0  0  0  0  0  0  0  0
   58.4767    2.2863   12.7637 H   0  0  0  0  0  0  0  0  0  0  0  0
   58.0419    0.6380   12.3304 H   0  0  0  0  0  0  0  0  0  0  0  0
   56.0441    0.7851   13.8848 H   0  0  0  0  0  0  0  0  0  0  0  0
   56.6252    2.3804   14.4107 H   0  0  0  0  0  0  0  0  0  0  0  0
   57.6105    0.9415   14.6968 H   0  0  0  0  0  0  0  0  0  0  0  0
  1  2  1  0
  1  3  1  0
  3  6  1  0
  4  6  1  0
  4  7  2  0
  4  8  1  0
  5  9  2  0
  7  9  1  0
  5 10  1  0
  8 10  2  0
  1 11  1  0
  1 12  1  0
 12 13  1  0
 11 14  1  0
  5 15  1  0
 15 16  1  0
 17 18  1  0
 16 19  1  0
 19 20  1  0
 18 21  1  0
 20 21  1  0
 17 22  1  0
 23 24  1  0
 23 25  1  0
 23 26  2  0
 23 27  2  0
 24 28  1  0
 28 29  1  0
 29 30  1  0
 30 31  1  0
 31 32  1  0
 32 33  1  0
 33 34  1  0
 34 35  1  0
 35 36  1  0
 36 37  1  0
 37 38  1  0
 38 39  1  0
  2 40  1  0
  2 41  1  0
  3 42  1  0
  3 43  1  0
  6 44  1  0
  6 45  1  0
  7 46  1  0
  8 47  1  0
  9 48  1  0
 10 49  1  0
 11 50  1  0
 11 51  1  0
 12 52  1  0
 12 53  1  0
 13 54  1  0
 14 55  1  0
 15 56  1  0
 15 57  1  0
 16 58  1  0
 16 59  1  0
 17 60  1  0
 17 61  1  0
 18 62  1  0
 18 63  1  0
 19 64  1  0
 19 65  1  0
 20 66  1  0
 20 67  1  0
 21 68  1  0
 21 69  1  0
 22 70  1  0
 22 71  1  0
 22 72  1  0
 25 73  1  0
 28 74  1  0
 28 75  1  0
 29 76  1  0
 29 77  1  0
 30 78  1  0
 30 79  1  0
 31 80  1  0
 31 81  1  0
 32 82  1  0
 32 83  1  0
 33 84  1  0
 33 85  1  0
 34 86  1  0
 34 87  1  0
 35 88  1  0
 35 89  1  0
 36 90  1  0
 36 91  1  0
 37 92  1  0
 37 93  1  0
 38 94  1  0
 38 95  1  0
 39 96  1  0
 39 97  1  0
 39 98  1  0
M  END
> <Uni-Dock RESULT> 
ENERGY=   -4.699  LOWER_BOUND=   12.671  UPPER_BOUND=   15.837
INTER + INTRA:          -4.699
INTER:                  -4.699
INTRA:                   0.000
UNBOUND:                 0.000

$$$$

     RDKit          3D

 98 97  0  0  0  0  0  0  0  0999 V2000
   50.4963   16.2427   18.3138 C   0  0  0  0  0  0  0  0  0  0  0  0
   49.9247   17.0852   17.2277 N   0  0  0  0  0  0  0  0  0  0  0  0
   50.1716   14.7422   18.1150 C   0  0  0  0  0  0  0  0  0  0  0  0
   48.4560   12.8967   17.9432 C   0  0  0  0  0  0  0  0  0  0  0  0
   48.0053   10.1135   17.8425 C   0  0  0  0  0  0  0  0  0  0  0  0
   48.6823   14.3891   17.9921 C   0  0  0  0  0  0  0  0  0  0  0  0
   47.8950   12.2269   19.0368 C   0  0  0  0  0  0  0  0  0  0  0  0
   48.7984   12.1603   16.8022 C   0  0  0  0  0  0  0  0  0  0  0  0
   47.6694   10.8494   18.9852 C   0  0  0  0  0  0  0  0  0  0  0  0
   48.5780   10.7816   16.7535 C   0  0  0  0  0  0  0  0  0  0  0  0
   52.0429   16.4098   18.2629 C   0  0  0  0  0  0  0  0  0  0  0  0
   49.9714   16.7706   19.6804 C   0  0  0  0  0  0  0  0  0  0  0  0
   50.1850   18.1799   19.8056 O   0  0  0  0  0  0  0  0  0  0  0  0
   52.4009   17.7955   18.3017 O   0  0  0  0  0  0  0  0  0  0  0  0
   47.7571    8.6266   17.7830 C   0  0  0  0  0  0  0  0  0  0  0  0
   49.0035    7.7777   18.0568 C   0  0  0  0  0  0  0  0  0  0  0  0
   47.6722    5.5994   22.9810 C   0  0  0  0  0  0  0  0  0  0  0  0
   48.2373    7.0173   23.0643 C   0  0  0  0  0  0  0  0  0  0  0  0
   49.5549    7.8631   19.4858 C   0  0  0  0  0  0  0  0  0  0  0  0
   48.5777    7.3503   20.5482 C   0  0  0  0  0  0  0  0  0  0  0  0
   49.2197    7.3534   21.9384 C   0  0  0  0  0  0  0  0  0  0  0  0
   46.7907    5.2834   24.1799 C   0  0  0  0  0  0  0  0  0  0  0  0
   50.6024   17.2482   16.3510 S   0  0  0  0  0  0  0  0  0  0  0  0
   50.5428   15.6353   16.5182 O   0  0  0  0  0  0  0  0  0  0  0  0
   52.1150   17.5880   16.7871 O   0  0  0  0  0  0  0  0  0  0  0  0
   50.5406   17.5519   14.9393 O   0  0  0  0  0  0  0  0  0  0  0  0
   49.7115   17.8583   17.3107 O   0  0  0  0  0  0  0  0  0  0  0  0
   50.6057   15.0986   17.8311 C   0  0  0  0  0  0  0  0  0  0  0  0
   50.5949   13.5792   17.7224 C   0  0  0  0  0  0  0  0  0  0  0  0
   50.8010   12.8659   19.0578 C   0  0  0  0  0  0  0  0  0  0  0  0
   49.7589   13.1654   20.1397 C   0  0  0  0  0  0  0  0  0  0  0  0
   48.3017   12.8953   19.7521 C   0  0  0  0  0  0  0  0  0  0  0  0
   47.9922   11.4778   19.2629 C   0  0  0  0  0  0  0  0  0  0  0  0
   48.3136   10.3919   20.2910 C   0  0  0  0  0  0  0  0  0  0  0  0
   47.8464    9.0188   19.8021 C   0  0  0  0  0  0  0  0  0  0  0  0
   48.2135    7.9160   20.7974 C   0  0  0  0  0  0  0  0  0  0  0  0
   47.6983    6.5551   20.3236 C   0  0  0  0  0  0  0  0  0  0  0  0
   48.1398    5.3934   21.2159 C   0  0  0  0  0  0  0  0  0  0  0  0
   47.5892    5.4678   22.6316 C   0  0  0  0  0  0  0  0  0  0  0  0
   48.9228   16.9071   17.1570 H   0  0  0  0  0  0  0  0  0  0  0  0
   49.9556   18.0552   17.5674 H   0  0  0  0  0  0  0  0  0  0  0  0
   50.6900   14.3807   17.2141 H   0  0  0  0  0  0  0  0  0  0  0  0
   50.6018   14.1769   18.9549 H   0  0  0  0  0  0  0  0  0  0  0  0
   48.2555   14.8270   17.0812 H   0  0  0  0  0  0  0  0  0  0  0  0
   48.1151   14.8095   18.8290 H   0  0  0  0  0  0  0  0  0  0  0  0
   47.6213   12.7722   19.9376 H   0  0  0  0  0  0  0  0  0  0  0  0
   49.2346   12.6578   15.9390 H   0  0  0  0  0  0  0  0  0  0  0  0
   47.2251   10.3551   19.8454 H   0  0  0  0  0  0  0  0  0  0  0  0
   48.8493   10.2323   15.8541 H   0  0  0  0  0  0  0  0  0  0  0  0
   52.4655   15.9831   17.3459 H   0  0  0  0  0  0  0  0  0  0  0  0
   52.5180   15.9152   19.1160 H   0  0  0  0  0  0  0  0  0  0  0  0
   50.4719   16.2707   20.5152 H   0  0  0  0  0  0  0  0  0  0  0  0
   48.8961   16.6122   19.7893 H   0  0  0  0  0  0  0  0  0  0  0  0
   51.1276   18.3374   19.5733 H   0  0  0  0  0  0  0  0  0  0  0  0
   52.0976   18.1460   17.4399 H   0  0  0  0  0  0  0  0  0  0  0  0
   47.3812    8.3850   16.7789 H   0  0  0  0  0  0  0  0  0  0  0  0
   46.9416    8.3522   18.4623 H   0  0  0  0  0  0  0  0  0  0  0  0
   49.8023    8.0650   17.3609 H   0  0  0  0  0  0  0  0  0  0  0  0
   48.7651    6.7293   17.8360 H   0  0  0  0  0  0  0  0  0  0  0  0
   48.4916    4.8728   22.9347 H   0  0  0  0  0  0  0  0  0  0  0  0
   47.0775    5.4789   22.0696 H   0  0  0  0  0  0  0  0  0  0  0  0
   47.4147    7.7429   23.0605 H   0  0  0  0  0  0  0  0  0  0  0  0
   48.7607    7.1398   24.0214 H   0  0  0  0  0  0  0  0  0  0  0  0
   50.4731    7.2638   19.5292 H   0  0  0  0  0  0  0  0  0  0  0  0
   49.8493    8.8935   19.7140 H   0  0  0  0  0  0  0  0  0  0  0  0
   48.2633    6.3337   20.2851 H   0  0  0  0  0  0  0  0  0  0  0  0
   47.6785    7.9750   20.5679 H   0  0  0  0  0  0  0  0  0  0  0  0
   49.6400    8.3469   22.1387 H   0  0  0  0  0  0  0  0  0  0  0  0
   50.0577    6.6459   21.9599 H   0  0  0  0  0  0  0  0  0  0  0  0
   46.3972    4.2645   24.1046 H   0  0  0  0  0  0  0  0  0  0  0  0
   47.3554    5.3607   25.1149 H   0  0  0  0  0  0  0  0  0  0  0  0
   45.9412    5.9721   24.2333 H   0  0  0  0  0  0  0  0  0  0  0  0
   52.6539   17.5764   15.9689 H   0  0  0  0  0  0  0  0  0  0  0  0
   49.7447   15.4476   18.4099 H   0  0  0  0  0  0  0  0  0  0  0  0
   51.5258   15.4353   18.3215 H   0  0  0  0  0  0  0  0  0  0  0  0
   51.3919   13.2700   17.0341 H   0  0  0  0  0  0  0  0  0  0  0  0
   49.6637   13.2516   17.2449 H   0  0  0  0  0  0  0  0  0  0  0  0
   51.7895   13.1341   19.4512 H   0  0  0  0  0  0  0  0  0  0  0  0
   50.8353   11.7861   18.8764 H   0  0  0  0  0  0  0  0  0  0  0  0
   50.0101   12.5820   21.0341 H   0  0  0  0  0  0  0  0  0  0  0  0
   49.8457   14.2148   20.4473 H   0  0  0  0  0  0  0  0  0  0  0  0
   47.9969   13.6051   18.9742 H   0  0  0  0  0  0  0  0  0  0  0  0
   47.6692   13.1151   20.6219 H   0  0  0  0  0  0  0  0  0  0  0  0
   46.9251   11.4332   19.0134 H   0  0  0  0  0  0  0  0  0  0  0  0
   48.5325   11.2758   18.3314 H   0  0  0  0  0  0  0  0  0  0  0  0
   49.3926   10.3598   20.4778 H   0  0  0  0  0  0  0  0  0  0  0  0
   47.8242   10.6279   21.2435 H   0  0  0  0  0  0  0  0  0  0  0  0
   46.7593    9.0346   19.6565 H   0  0  0  0  0  0  0  0  0  0  0  0
   48.3007    8.7986   18.8267 H   0  0  0  0  0  0  0  0  0  0  0  0
   49.3038    7.8771   20.9176 H   0  0  0  0  0  0  0  0  0  0  0  0
   47.7854    8.1586   21.7771 H   0  0  0  0  0  0  0  0  0  0  0  0
   48.0647    6.3652   19.3073 H   0  0  0  0  0  0  0  0  0  0  0  0
   46.6033    6.5753   20.2649 H   0  0  0  0  0  0  0  0  0  0  0  0
   49.2345    5.3455   21.2506 H   0  0  0  0  0  0  0  0  0  0  0  0
   47.7990    4.4568   20.7578 H   0  0  0  0  0  0  0  0  0  0  0  0
   46.4995    5.5717   22.6279 H   0  0  0  0  0  0  0  0  0  0  0  0
   48.0172    6.3116   23.1831 H   0  0  0  0  0  0  0  0  0  0  0  0
   47.8396    4.5533   23.1799 H   0  0  0  0  0  0  0  0  0  0  0  0
  1  2  1  0
  1  3  1  0
  3  6  1  0
  4  6  1  0
  4  7  2  0
  4  8  1  0
  5  9  2  0
  7  9  1  0
  5 10  1  0
  8 10  2  0
  1 11  1  0
  1 12  1  0
 12 13  1  0
 11 14  1  0
  5 15  1  0
 15 16  1  0
 17 18  1  0
 16 19  1  0
 19 20  1  0
 18 21  1  0
 20 21  1  0
 17 22  1  0
 23 24  1  0
 23 25  1  0
 23 26  2  0
 23 27  2  0
 24 28  1  0
 28 29  1  0
 29 30  1  0
 30 31  1  0
 31 32  1  0
 32 33  1  0
 33 34  1  0
 34 35  1  0
 35 36  1  0
 36 37  1  0
 37 38  1  0
 38 39  1  0
  2 40  1  0
  2 41  1  0
  3 42  1  0
  3 43  1  0
  6 44  1  0
  6 45  1  0
  7 46  1  0
  8 47  1  0
  9 48  1  0
 10 49  1  0
 11 50  1  0
 11 51  1  0
 12 52  1  0
 12 53  1  0
 13 54  1  0
 14 55  1  0
 15 56  1  0
 15 57  1  0
 16 58  1  0
 16 59  1  0
 17 60  1  0
 17 61  1  0
 18 62  1  0
 18 63  1  0
 19 64  1  0
 19 65  1  0
 20 66  1  0
 20 67  1  0
 21 68  1  0
 21 69  1  0
 22 70  1  0
 22 71  1  0
 22 72  1  0
 25 73  1  0
 28 74  1  0
 28 75  1  0
 29 76  1  0
 29 77  1  0
 30 78  1  0
 30 79  1  0
 31 80  1  0
 31 81  1  0
 32 82  1  0
 32 83  1  0
 33 84  1  0
 33 85  1  0
 34 86  1  0
 34 87  1  0
 35 88  1  0
 35 89  1  0
 36 90  1  0
 36 91  1  0
 37 92  1  0
 37 93  1  0
 38 94  1  0
 38 95  1  0
 39 96  1  0
 39 97  1  0
 39 98  1  0
M  END
> <Uni-Dock RESULT> 
ENERGY=   -4.690  LOWER_BOUND=    5.808  UPPER_BOUND=    9.630
INTER + INTRA:          -4.690
INTER:                  -4.690
INTRA:                   0.000
UNBOUND:                 0.000

$$$$

     RDKit          3D

 98 97  0  0  0  0  0  0  0  0999 V2000
   48.8212    6.1815   21.4381 C   0  0  0  0  0  0  0  0  0  0  0  0
   47.5914    5.6201   22.0615 N   0  0  0  0  0  0  0  0  0  0  0  0
   48.6268    7.6520   20.9951 C   0  0  0  0  0  0  0  0  0  0  0  0
   47.4355    9.3432   19.5461 C   0  0  0  0  0  0  0  0  0  0  0  0
   47.3615   12.0103   18.6295 C   0  0  0  0  0  0  0  0  0  0  0  0
   47.4602    7.9132   20.0314 C   0  0  0  0  0  0  0  0  0  0  0  0
   47.7900    9.6523   18.2278 C   0  0  0  0  0  0  0  0  0  0  0  0
   47.0527   10.3812   20.4047 C   0  0  0  0  0  0  0  0  0  0  0  0
   47.7504   10.9727   17.7738 C   0  0  0  0  0  0  0  0  0  0  0  0
   47.0190   11.7024   19.9517 C   0  0  0  0  0  0  0  0  0  0  0  0
   49.9422    6.1498   22.5174 C   0  0  0  0  0  0  0  0  0  0  0  0
   49.2349    5.2698   20.2467 C   0  0  0  0  0  0  0  0  0  0  0  0
   49.3088    3.8982   20.6480 O   0  0  0  0  0  0  0  0  0  0  0  0
   50.0732    4.8348   23.0684 O   0  0  0  0  0  0  0  0  0  0  0  0
   47.3126   13.4362   18.1391 C   0  0  0  0  0  0  0  0  0  0  0  0
   48.5351   14.2713   18.5357 C   0  0  0  0  0  0  0  0  0  0  0  0
   50.9381   14.9478   13.5826 C   0  0  0  0  0  0  0  0  0  0  0  0
   51.2509   13.6054   14.2438 C   0  0  0  0  0  0  0  0  0  0  0  0
   49.8582   13.8481   17.8850 C   0  0  0  0  0  0  0  0  0  0  0  0
   49.8583   13.9839   16.3592 C   0  0  0  0  0  0  0  0  0  0  0  0
   51.2353   13.6568   15.7743 C   0  0  0  0  0  0  0  0  0  0  0  0
   51.0747   14.8650   12.0698 C   0  0  0  0  0  0  0  0  0  0  0  0
   47.5248    5.7484   23.1721 S   0  0  0  0  0  0  0  0  0  0  0  0
   47.7793    7.2487   22.6089 O   0  0  0  0  0  0  0  0  0  0  0  0
   48.9112    5.4180   23.9220 O   0  0  0  0  0  0  0  0  0  0  0  0
   46.5378    5.8296   24.2247 O   0  0  0  0  0  0  0  0  0  0  0  0
   47.3904    4.8393   22.0575 O   0  0  0  0  0  0  0  0  0  0  0  0
   48.7318    7.4178   21.5698 C   0  0  0  0  0  0  0  0  0  0  0  0
   48.8355    8.9058   21.2603 C   0  0  0  0  0  0  0  0  0  0  0  0
   49.9321    9.2492   20.2533 C   0  0  0  0  0  0  0  0  0  0  0  0
   49.7984    8.5946   18.8750 C   0  0  0  0  0  0  0  0  0  0  0  0
   48.4768    8.8492   18.1435 C   0  0  0  0  0  0  0  0  0  0  0  0
   48.0980   10.3187   17.9402 C   0  0  0  0  0  0  0  0  0  0  0  0
   49.1299   11.1109   17.1357 C   0  0  0  0  0  0  0  0  0  0  0  0
   48.6264   12.5260   16.8413 C   0  0  0  0  0  0  0  0  0  0  0  0
   49.6739   13.3466   16.0858 C   0  0  0  0  0  0  0  0  0  0  0  0
   49.1422   14.7424   15.7525 C   0  0  0  0  0  0  0  0  0  0  0  0
   50.1873   15.6527   15.1046 C   0  0  0  0  0  0  0  0  0  0  0  0
   50.6672   15.1615   13.7476 C   0  0  0  0  0  0  0  0  0  0  0  0
   46.8072    5.7355   21.4195 H   0  0  0  0  0  0  0  0  0  0  0  0
   47.7165    4.5996   22.0800 H   0  0  0  0  0  0  0  0  0  0  0  0
   48.4865    8.2789   21.8886 H   0  0  0  0  0  0  0  0  0  0  0  0
   49.5585    8.0025   20.5271 H   0  0  0  0  0  0  0  0  0  0  0  0
   46.5008    7.7043   20.5209 H   0  0  0  0  0  0  0  0  0  0  0  0
   47.5155    7.2433   19.1671 H   0  0  0  0  0  0  0  0  0  0  0  0
   48.0940    8.8672   17.5388 H   0  0  0  0  0  0  0  0  0  0  0  0
   46.7715   10.1666   21.4332 H   0  0  0  0  0  0  0  0  0  0  0  0
   48.0231   11.1844   16.7430 H   0  0  0  0  0  0  0  0  0  0  0  0
   46.7145   12.4908   20.6372 H   0  0  0  0  0  0  0  0  0  0  0  0
   49.7266    6.8364   23.3443 H   0  0  0  0  0  0  0  0  0  0  0  0
   50.9081    6.4321   22.0866 H   0  0  0  0  0  0  0  0  0  0  0  0
   50.2089    5.5640   19.8442 H   0  0  0  0  0  0  0  0  0  0  0  0
   48.5077    5.3127   19.4329 H   0  0  0  0  0  0  0  0  0  0  0  0
   49.8565    3.8793   21.4647 H   0  0  0  0  0  0  0  0  0  0  0  0
   49.2494    4.7060   23.5806 H   0  0  0  0  0  0  0  0  0  0  0  0
   46.4133   13.9088   18.5583 H   0  0  0  0  0  0  0  0  0  0  0  0
   47.1616   13.4574   17.0535 H   0  0  0  0  0  0  0  0  0  0  0  0
   48.6613   14.2409   19.6257 H   0  0  0  0  0  0  0  0  0  0  0  0
   48.3381   15.3198   18.2777 H   0  0  0  0  0  0  0  0  0  0  0  0
   51.6171   15.7192   13.9642 H   0  0  0  0  0  0  0  0  0  0  0  0
   49.9177   15.2630   13.8239 H   0  0  0  0  0  0  0  0  0  0  0  0
   50.5376   12.8481   13.8960 H   0  0  0  0  0  0  0  0  0  0  0  0
   52.2462   13.2708   13.9239 H   0  0  0  0  0  0  0  0  0  0  0  0
   50.6544   14.4806   18.2977 H   0  0  0  0  0  0  0  0  0  0  0  0
   50.1047   12.8191   18.1694 H   0  0  0  0  0  0  0  0  0  0  0  0
   49.5727   15.0074   16.0904 H   0  0  0  0  0  0  0  0  0  0  0  0
   49.1140   13.3115   15.9197 H   0  0  0  0  0  0  0  0  0  0  0  0
   51.5637   12.6801   16.1511 H   0  0  0  0  0  0  0  0  0  0  0  0
   51.9694   14.3932   16.1238 H   0  0  0  0  0  0  0  0  0  0  0  0
   50.8496   15.8347   11.6141 H   0  0  0  0  0  0  0  0  0  0  0  0
   52.0927   14.5828   11.7813 H   0  0  0  0  0  0  0  0  0  0  0  0
   50.3820   14.1260   11.6542 H   0  0  0  0  0  0  0  0  0  0  0  0
   48.7976    5.6880   24.8570 H   0  0  0  0  0  0  0  0  0  0  0  0
   48.4074    6.8636   20.6833 H   0  0  0  0  0  0  0  0  0  0  0  0
   49.7037    7.0318   21.8964 H   0  0  0  0  0  0  0  0  0  0  0  0
   49.0365    9.4463   22.1941 H   0  0  0  0  0  0  0  0  0  0  0  0
   47.8624    9.2789   20.9194 H   0  0  0  0  0  0  0  0  0  0  0  0
   50.9021    8.9600   20.6769 H   0  0  0  0  0  0  0  0  0  0  0  0
   49.9710   10.3377   20.1355 H   0  0  0  0  0  0  0  0  0  0  0  0
   50.6314    8.9345   18.2473 H   0  0  0  0  0  0  0  0  0  0  0  0
   49.9359    7.5106   18.9727 H   0  0  0  0  0  0  0  0  0  0  0  0
   47.6626    8.3527   18.6842 H   0  0  0  0  0  0  0  0  0  0  0  0
   48.5276    8.3583   17.1630 H   0  0  0  0  0  0  0  0  0  0  0  0
   47.1339   10.3488   17.4182 H   0  0  0  0  0  0  0  0  0  0  0  0
   47.9357   10.8022   18.9100 H   0  0  0  0  0  0  0  0  0  0  0  0
   50.0721   11.1722   17.6914 H   0  0  0  0  0  0  0  0  0  0  0  0
   49.3403   10.5930   16.1923 H   0  0  0  0  0  0  0  0  0  0  0  0
   47.7064   12.4689   16.2467 H   0  0  0  0  0  0  0  0  0  0  0  0
   48.3728   13.0323   17.7824 H   0  0  0  0  0  0  0  0  0  0  0  0
   50.5829   13.4330   16.6950 H   0  0  0  0  0  0  0  0  0  0  0  0
   49.9475   12.8197   15.1642 H   0  0  0  0  0  0  0  0  0  0  0  0
   48.7922   15.2239   16.6739 H   0  0  0  0  0  0  0  0  0  0  0  0
   48.2714   14.6571   15.0913 H   0  0  0  0  0  0  0  0  0  0  0  0
   51.0460   15.7709   15.7760 H   0  0  0  0  0  0  0  0  0  0  0  0
   49.7473   16.6496   14.9792 H   0  0  0  0  0  0  0  0  0  0  0  0
   49.8256   14.9816   13.0711 H   0  0  0  0  0  0  0  0  0  0  0  0
   51.2443   14.2352   13.8389 H   0  0  0  0  0  0  0  0  0  0  0  0
   51.3175   15.9121   13.2856 H   0  0  0  0  0  0  0  0  0  0  0  0
  1  2  1  0
  1  3  1  0
  3  6  1  0
  4  6  1  0
  4  7  2  0
  4  8  1  0
  5  9  2  0
  7  9  1  0
  5 10  1  0
  8 10  2  0
  1 11  1  0
  1 12  1  0
 12 13  1  0
 11 14  1  0
  5 15  1  0
 15 16  1  0
 17 18  1  0
 16 19  1  0
 19 20  1  0
 18 21  1  0
 20 21  1  0
 17 22  1  0
 23 24  1  0
 23 25  1  0
 23 26  2  0
 23 27  2  0
 24 28  1  0
 28 29  1  0
 29 30  1  0
 30 31  1  0
 31 32  1  0
 32 33  1  0
 33 34  1  0
 34 35  1  0
 35 36  1  0
 36 37  1  0
 37 38  1  0
 38 39  1  0
  2 40  1  0
  2 41  1  0
  3 42  1  0
  3 43  1  0
  6 44  1  0
  6 45  1  0
  7 46  1  0
  8 47  1  0
  9 48  1  0
 10 49  1  0
 11 50  1  0
 11 51  1  0
 12 52  1  0
 12 53  1  0
 13 54  1  0
 14 55  1  0
 15 56  1  0
 15 57  1  0
 16 58  1  0
 16 59  1  0
 17 60  1  0
 17 61  1  0
 18 62  1  0
 18 63  1  0
 19 64  1  0
 19 65  1  0
 20 66  1  0
 20 67  1  0
 21 68  1  0
 21 69  1  0
 22 70  1  0
 22 71  1  0
 22 72  1  0
 25 73  1  0
 28 74  1  0
 28 75  1  0
 29 76  1  0
 29 77  1  0
 30 78  1  0
 30 79  1  0
 31 80  1  0
 31 81  1  0
 32 82  1  0
 32 83  1  0
 33 84  1  0
 33 85  1  0
 34 86  1  0
 34 87  1  0
 35 88  1  0
 35 89  1  0
 36 90  1  0
 36 91  1  0
 37 92  1  0
 37 93  1  0
 38 94  1  0
 38 95  1  0
 39 96  1  0
 39 97  1  0
 39 98  1  0
M  END
> <Uni-Dock RESULT> 
ENERGY=   -4.515  LOWER_BOUND=    2.280  UPPER_BOUND=    3.290
INTER + INTRA:          -4.515
INTER:                  -4.515
INTRA:                   0.000
UNBOUND:                 0.000

$$$$

     RDKit          3D

 98 97  0  0  0  0  0  0  0  0999 V2000
   53.2254   13.4105   10.8481 C   0  0  0  0  0  0  0  0  0  0  0  0
   54.6472   13.5268   11.2736 N   0  0  0  0  0  0  0  0  0  0  0  0
   52.4496   12.3736   11.6963 C   0  0  0  0  0  0  0  0  0  0  0  0
   52.1440    9.9855   12.4591 C   0  0  0  0  0  0  0  0  0  0  0  0
   50.4932    8.1521   13.8278 C   0  0  0  0  0  0  0  0  0  0  0  0
   53.0397   10.9564   11.7271 C   0  0  0  0  0  0  0  0  0  0  0  0
   51.4276    9.0104   11.7553 C   0  0  0  0  0  0  0  0  0  0  0  0
   52.0198   10.0415   13.8530 C   0  0  0  0  0  0  0  0  0  0  0  0
   50.6128    8.1012   12.4338 C   0  0  0  0  0  0  0  0  0  0  0  0
   51.2000    9.1355   14.5305 C   0  0  0  0  0  0  0  0  0  0  0  0
   52.5624   14.8016   11.0665 C   0  0  0  0  0  0  0  0  0  0  0  0
   53.1876   13.0603    9.3323 C   0  0  0  0  0  0  0  0  0  0  0  0
   53.9943   13.9662    8.5732 O   0  0  0  0  0  0  0  0  0  0  0  0
   53.3204   15.8279   10.4169 O   0  0  0  0  0  0  0  0  0  0  0  0
   49.6180    7.1673   14.5628 C   0  0  0  0  0  0  0  0  0  0  0  0
   48.2437    7.7255   14.9484 C   0  0  0  0  0  0  0  0  0  0  0  0
   44.9790    4.7783   11.5689 C   0  0  0  0  0  0  0  0  0  0  0  0
   45.6297    5.9890   10.8998 C   0  0  0  0  0  0  0  0  0  0  0  0
   47.3074    8.0348   13.7733 C   0  0  0  0  0  0  0  0  0  0  0  0
   46.9321    6.7982   12.9507 C   0  0  0  0  0  0  0  0  0  0  0  0
   45.9108    7.1454   11.8638 C   0  0  0  0  0  0  0  0  0  0  0  0
   44.6231    3.7070   10.5492 C   0  0  0  0  0  0  0  0  0  0  0  0
   54.8430   14.3020   12.0579 S   0  0  0  0  0  0  0  0  0  0  0  0
   53.6696   13.3773   12.6911 O   0  0  0  0  0  0  0  0  0  0  0  0
   54.0762   15.6884   11.7691 O   0  0  0  0  0  0  0  0  0  0  0  0
   55.7865   14.6059   13.1097 O   0  0  0  0  0  0  0  0  0  0  0  0
   55.2545   13.7449   10.7902 O   0  0  0  0  0  0  0  0  0  0  0  0
   52.6125   12.9648   11.8378 C   0  0  0  0  0  0  0  0  0  0  0  0
   51.6156   12.1686   12.6701 C   0  0  0  0  0  0  0  0  0  0  0  0
   50.3501   11.7798   11.9073 C   0  0  0  0  0  0  0  0  0  0  0  0
   50.5636   10.9151   10.6612 C   0  0  0  0  0  0  0  0  0  0  0  0
   51.3260    9.6051   10.8837 C   0  0  0  0  0  0  0  0  0  0  0  0
   50.7441    8.6650   11.9428 C   0  0  0  0  0  0  0  0  0  0  0  0
   49.3119    8.2186   11.6443 C   0  0  0  0  0  0  0  0  0  0  0  0
   48.8427    7.1697   12.6555 C   0  0  0  0  0  0  0  0  0  0  0  0
   47.3913    6.7573   12.4009 C   0  0  0  0  0  0  0  0  0  0  0  0
   46.9480    5.6726   13.3852 C   0  0  0  0  0  0  0  0  0  0  0  0
   45.4681    5.3056   13.2599 C   0  0  0  0  0  0  0  0  0  0  0  0
   45.1040    4.6877   11.9189 C   0  0  0  0  0  0  0  0  0  0  0  0
   55.0795   12.6031   11.2551 H   0  0  0  0  0  0  0  0  0  0  0  0
   55.1371   14.0179   10.5146 H   0  0  0  0  0  0  0  0  0  0  0  0
   52.3755   12.7418   12.7307 H   0  0  0  0  0  0  0  0  0  0  0  0
   51.4162   12.3194   11.3233 H   0  0  0  0  0  0  0  0  0  0  0  0
   54.0180   10.9561   12.2237 H   0  0  0  0  0  0  0  0  0  0  0  0
   53.2118   10.5873   10.7107 H   0  0  0  0  0  0  0  0  0  0  0  0
   51.5023    8.9443   10.6720 H   0  0  0  0  0  0  0  0  0  0  0  0
   52.5670   10.7891   14.4226 H   0  0  0  0  0  0  0  0  0  0  0  0
   50.0735    7.3488   11.8638 H   0  0  0  0  0  0  0  0  0  0  0  0
   51.1231    9.1973   15.6143 H   0  0  0  0  0  0  0  0  0  0  0  0
   52.5008   15.0573   12.1306 H   0  0  0  0  0  0  0  0  0  0  0  0
   51.5482   14.8205   10.6551 H   0  0  0  0  0  0  0  0  0  0  0  0
   52.1656   13.1002    8.9433 H   0  0  0  0  0  0  0  0  0  0  0  0
   53.5827   12.0607    9.1380 H   0  0  0  0  0  0  0  0  0  0  0  0
   53.7287   14.8712    8.8517 H   0  0  0  0  0  0  0  0  0  0  0  0
   54.1493   15.8782   10.9345 H   0  0  0  0  0  0  0  0  0  0  0  0
   50.1436    6.8637   15.4789 H   0  0  0  0  0  0  0  0  0  0  0  0
   49.5144    6.2451   13.9791 H   0  0  0  0  0  0  0  0  0  0  0  0
   48.3731    8.6428   15.5372 H   0  0  0  0  0  0  0  0  0  0  0  0
   47.7482    7.0027   15.6094 H   0  0  0  0  0  0  0  0  0  0  0  0
   44.0706    5.0877   12.0986 H   0  0  0  0  0  0  0  0  0  0  0  0
   45.6566    4.3426   12.3104 H   0  0  0  0  0  0  0  0  0  0  0  0
   46.5638    5.6834   10.4129 H   0  0  0  0  0  0  0  0  0  0  0  0
   44.9678    6.3597   10.1064 H   0  0  0  0  0  0  0  0  0  0  0  0
   46.3917    8.4817   14.1804 H   0  0  0  0  0  0  0  0  0  0  0  0
   47.7576    8.7940   13.1239 H   0  0  0  0  0  0  0  0  0  0  0  0
   46.5194    6.0344   13.6198 H   0  0  0  0  0  0  0  0  0  0  0  0
   47.8244    6.3720   12.4802 H   0  0  0  0  0  0  0  0  0  0  0  0
   46.2836    7.9944   11.2774 H   0  0  0  0  0  0  0  0  0  0  0  0
   44.9724    7.4709   12.3292 H   0  0  0  0  0  0  0  0  0  0  0  0
   44.1567    2.8497   11.0454 H   0  0  0  0  0  0  0  0  0  0  0  0
   43.9193    4.0915    9.8036 H   0  0  0  0  0  0  0  0  0  0  0  0
   45.5173    3.3514   10.0269 H   0  0  0  0  0  0  0  0  0  0  0  0
   54.1937   16.2471   12.5653 H   0  0  0  0  0  0  0  0  0  0  0  0
   53.0159   12.3476   11.0288 H   0  0  0  0  0  0  0  0  0  0  0  0
   52.1248   13.8457   11.4058 H   0  0  0  0  0  0  0  0  0  0  0  0
   51.3274   12.7684   13.5429 H   0  0  0  0  0  0  0  0  0  0  0  0
   52.1089   11.2814   13.0848 H   0  0  0  0  0  0  0  0  0  0  0  0
   49.8272   12.6952   11.6031 H   0  0  0  0  0  0  0  0  0  0  0  0
   49.6714   11.2634   12.5950 H   0  0  0  0  0  0  0  0  0  0  0  0
   49.5837   10.6937   10.2206 H   0  0  0  0  0  0  0  0  0  0  0  0
   51.0956   11.4994    9.9002 H   0  0  0  0  0  0  0  0  0  0  0  0
   52.3639    9.8322   11.1539 H   0  0  0  0  0  0  0  0  0  0  0  0
   51.3764    9.0708    9.9261 H   0  0  0  0  0  0  0  0  0  0  0  0
   51.3919    7.7819   12.0017 H   0  0  0  0  0  0  0  0  0  0  0  0
   50.7846    9.1400   12.9295 H   0  0  0  0  0  0  0  0  0  0  0  0
   48.6357    9.0799   11.6787 H   0  0  0  0  0  0  0  0  0  0  0  0
   49.2580    7.8014   10.6316 H   0  0  0  0  0  0  0  0  0  0  0  0
   49.4913    6.2874   12.5925 H   0  0  0  0  0  0  0  0  0  0  0  0
   48.9371    7.5691   13.6743 H   0  0  0  0  0  0  0  0  0  0  0  0
   46.7375    7.6336   12.4974 H   0  0  0  0  0  0  0  0  0  0  0  0
   47.2967    6.3911   11.3718 H   0  0  0  0  0  0  0  0  0  0  0  0
   47.1296    6.0200   14.4097 H   0  0  0  0  0  0  0  0  0  0  0  0
   47.5608    4.7740   13.2442 H   0  0  0  0  0  0  0  0  0  0  0  0
   44.8482    6.1928   13.4349 H   0  0  0  0  0  0  0  0  0  0  0  0
   45.2214    4.5889   14.0528 H   0  0  0  0  0  0  0  0  0  0  0  0
   45.7448    3.8300   11.6908 H   0  0  0  0  0  0  0  0  0  0  0  0
   45.1945    5.4155   11.1056 H   0  0  0  0  0  0  0  0  0  0  0  0
   44.0659    4.3387   11.9362 H   0  0  0  0  0  0  0  0  0  0  0  0
  1  2  1  0
  1  3  1  0
  3  6  1  0
  4  6  1  0
  4  7  2  0
  4  8  1  0
  5  9  2  0
  7  9  1  0
  5 10  1  0
  8 10  2  0
  1 11  1  0
  1 12  1  0
 12 13  1  0
 11 14  1  0
  5 15  1  0
 15 16  1  0
 17 18  1  0
 16 19  1  0
 19 20  1  0
 18 21  1  0
 20 21  1  0
 17 22  1  0
 23 24  1  0
 23 25  1  0
 23 26  2  0
 23 27  2  0
 24 28  1  0
 28 29  1  0
 29 30  1  0
 30 31  1  0
 31 32  1  0
 32 33  1  0
 33 34  1  0
 34 35  1  0
 35 36  1  0
 36 37  1  0
 37 38  1  0
 38 39  1  0
  2 40  1  0
  2 41  1  0
  3 42  1  0
  3 43  1  0
  6 44  1  0
  6 45  1  0
  7 46  1  0
  8 47  1  0
  9 48  1  0
 10 49  1  0
 11 50  1  0
 11 51  1  0
 12 52  1  0
 12 53  1  0
 13 54  1  0
 14 55  1  0
 15 56  1  0
 15 57  1  0
 16 58  1  0
 16 59  1  0
 17 60  1  0
 17 61  1  0
 18 62  1  0
 18 63  1  0
 19 64  1  0
 19 65  1  0
 20 66  1  0
 20 67  1  0
 21 68  1  0
 21 69  1  0
 22 70  1  0
 22 71  1  0
 22 72  1  0
 25 73  1  0
 28 74  1  0
 28 75  1  0
 29 76  1  0
 29 77  1  0
 30 78  1  0
 30 79  1  0
 31 80  1  0
 31 81  1  0
 32 82  1  0
 32 83  1  0
 33 84  1  0
 33 85  1  0
 34 86  1  0
 34 87  1  0
 35 88  1  0
 35 89  1  0
 36 90  1  0
 36 91  1  0
 37 92  1  0
 37 93  1  0
 38 94  1  0
 38 95  1  0
 39 96  1  0
 39 97  1  0
 39 98  1  0
M  END
> <Uni-Dock RESULT> 
ENERGY=   -4.477  LOWER_BOUND=    9.235  UPPER_BOUND=   12.423
INTER + INTRA:          -4.477
INTER:                  -4.477
INTRA:                   0.000
UNBOUND:                 0.000

$$$$

     RDKit          3D

 98 97  0  0  0  0  0  0  0  0999 V2000
   48.4270    8.9519   18.6662 C   0  0  0  0  0  0  0  0  0  0  0  0
   47.1635    9.6653   18.9992 N   0  0  0  0  0  0  0  0  0  0  0  0
   48.9890    9.3809   17.2891 C   0  0  0  0  0  0  0  0  0  0  0  0
   48.7162    9.5244   14.7824 C   0  0  0  0  0  0  0  0  0  0  0  0
   49.9580   10.1025   12.3159 C   0  0  0  0  0  0  0  0  0  0  0  0
   48.0372    9.2157   16.0955 C   0  0  0  0  0  0  0  0  0  0  0  0
   49.0325    8.4961   13.8870 C   0  0  0  0  0  0  0  0  0  0  0  0
   49.0353   10.8437   14.4373 C   0  0  0  0  0  0  0  0  0  0  0  0
   49.6446    8.7833   12.6647 C   0  0  0  0  0  0  0  0  0  0  0  0
   49.6529   11.1296   13.2172 C   0  0  0  0  0  0  0  0  0  0  0  0
   49.4741    9.3350   19.7523 C   0  0  0  0  0  0  0  0  0  0  0  0
   48.1639    7.4194   18.7302 C   0  0  0  0  0  0  0  0  0  0  0  0
   47.5478    7.0529   19.9686 O   0  0  0  0  0  0  0  0  0  0  0  0
   48.9524    9.0899   21.0629 O   0  0  0  0  0  0  0  0  0  0  0  0
   50.6140   10.4150   10.9938 C   0  0  0  0  0  0  0  0  0  0  0  0
   52.1279   10.6341   11.0885 C   0  0  0  0  0  0  0  0  0  0  0  0
   53.9632    6.1122    8.4523 C   0  0  0  0  0  0  0  0  0  0  0  0
   53.5924    5.8678    9.9151 C   0  0  0  0  0  0  0  0  0  0  0  0
   52.9483    9.3942   11.4663 C   0  0  0  0  0  0  0  0  0  0  0  0
   52.8516    8.2625   10.4385 C   0  0  0  0  0  0  0  0  0  0  0  0
   53.7752    7.0983   10.8083 C   0  0  0  0  0  0  0  0  0  0  0  0
   53.8678    4.8323    7.6356 C   0  0  0  0  0  0  0  0  0  0  0  0
   47.2975   10.6236   19.5633 S   0  0  0  0  0  0  0  0  0  0  0  0
   48.2404   10.7931   18.2536 O   0  0  0  0  0  0  0  0  0  0  0  0
   48.3745   10.5005   20.7543 O   0  0  0  0  0  0  0  0  0  0  0  0
   46.6246   11.8818   19.7931 O   0  0  0  0  0  0  0  0  0  0  0  0
   46.5823    9.3715   19.4746 O   0  0  0  0  0  0  0  0  0  0  0  0
   49.0175    9.6782   17.8431 C   0  0  0  0  0  0  0  0  0  0  0  0
   49.8547   10.1010   16.6427 C   0  0  0  0  0  0  0  0  0  0  0  0
   50.8488    9.0365   16.1810 C   0  0  0  0  0  0  0  0  0  0  0  0
   50.2392    7.6984   15.7521 C   0  0  0  0  0  0  0  0  0  0  0  0
   49.1788    7.7740   14.6491 C   0  0  0  0  0  0  0  0  0  0  0  0
   49.6114    8.4641   13.3526 C   0  0  0  0  0  0  0  0  0  0  0  0
   50.8097    7.7975   12.6750 C   0  0  0  0  0  0  0  0  0  0  0  0
   51.0984    8.4402   11.3162 C   0  0  0  0  0  0  0  0  0  0  0  0
   52.3303    7.8191   10.6541 C   0  0  0  0  0  0  0  0  0  0  0  0
   52.5808    8.4334    9.2750 C   0  0  0  0  0  0  0  0  0  0  0  0
   53.8697    7.9403    8.6146 C   0  0  0  0  0  0  0  0  0  0  0  0
   53.8656    6.4513    8.3047 C   0  0  0  0  0  0  0  0  0  0  0  0
   46.4926    9.5302   18.2428 H   0  0  0  0  0  0  0  0  0  0  0  0
   46.7334    9.1450   19.7749 H   0  0  0  0  0  0  0  0  0  0  0  0
   49.2996   10.4352   17.3426 H   0  0  0  0  0  0  0  0  0  0  0  0
   49.9073    8.8081   17.0922 H   0  0  0  0  0  0  0  0  0  0  0  0
   47.1726    9.8836   16.1958 H   0  0  0  0  0  0  0  0  0  0  0  0
   47.6355    8.1977   16.0596 H   0  0  0  0  0  0  0  0  0  0  0  0
   48.7990    7.4615   14.1289 H   0  0  0  0  0  0  0  0  0  0  0  0
   48.7987   11.6604   15.1154 H   0  0  0  0  0  0  0  0  0  0  0  0
   49.8723    7.9668   11.9841 H   0  0  0  0  0  0  0  0  0  0  0  0
   49.8874   12.1633   12.9706 H   0  0  0  0  0  0  0  0  0  0  0  0
   49.7454   10.3955   19.6957 H   0  0  0  0  0  0  0  0  0  0  0  0
   50.3893    8.7454   19.6384 H   0  0  0  0  0  0  0  0  0  0  0  0
   49.0953    6.8544   18.6282 H   0  0  0  0  0  0  0  0  0  0  0  0
   47.4838    7.0924   17.9404 H   0  0  0  0  0  0  0  0  0  0  0  0
   48.0895    7.4653   20.6784 H   0  0  0  0  0  0  0  0  0  0  0  0
   48.2468    9.7594   21.1694 H   0  0  0  0  0  0  0  0  0  0  0  0
   50.1514   11.3275   10.5925 H   0  0  0  0  0  0  0  0  0  0  0  0
   50.3781    9.6343   10.2612 H   0  0  0  0  0  0  0  0  0  0  0  0
   52.3385   11.4237   11.8212 H   0  0  0  0  0  0  0  0  0  0  0  0
   52.4859   11.0087   10.1208 H   0  0  0  0  0  0  0  0  0  0  0  0
   54.9839    6.5065    8.3866 H   0  0  0  0  0  0  0  0  0  0  0  0
   53.2959    6.8589    8.0095 H   0  0  0  0  0  0  0  0  0  0  0  0
   52.5540    5.5204    9.9791 H   0  0  0  0  0  0  0  0  0  0  0  0
   54.2196    5.0603   10.3144 H   0  0  0  0  0  0  0  0  0  0  0  0
   53.9980    9.7001   11.5598 H   0  0  0  0  0  0  0  0  0  0  0  0
   52.6452    9.0298   12.4542 H   0  0  0  0  0  0  0  0  0  0  0  0
   53.1205    8.6521    9.4499 H   0  0  0  0  0  0  0  0  0  0  0  0
   51.8215    7.8959   10.3754 H   0  0  0  0  0  0  0  0  0  0  0  0
   53.5790    6.7984   11.8452 H   0  0  0  0  0  0  0  0  0  0  0  0
   54.8204    7.4288   10.7675 H   0  0  0  0  0  0  0  0  0  0  0  0
   54.1387    5.0257    6.5926 H   0  0  0  0  0  0  0  0  0  0  0  0
   54.5451    4.0652    8.0255 H   0  0  0  0  0  0  0  0  0  0  0  0
   52.8488    4.4322    7.6528 H   0  0  0  0  0  0  0  0  0  0  0  0
   48.5242   11.4071   21.0942 H   0  0  0  0  0  0  0  0  0  0  0  0
   48.3544    8.8496   17.5751 H   0  0  0  0  0  0  0  0  0  0  0  0
   49.6693    9.3624   18.6652 H   0  0  0  0  0  0  0  0  0  0  0  0
   50.4119   11.0096   16.9048 H   0  0  0  0  0  0  0  0  0  0  0  0
   49.1936   10.3999   15.8205 H   0  0  0  0  0  0  0  0  0  0  0  0
   51.5606    8.8435   16.9934 H   0  0  0  0  0  0  0  0  0  0  0  0
   51.4421    9.4457   15.3559 H   0  0  0  0  0  0  0  0  0  0  0  0
   51.0511    7.0349   15.4295 H   0  0  0  0  0  0  0  0  0  0  0  0
   49.7947    7.2050   16.6253 H   0  0  0  0  0  0  0  0  0  0  0  0
   48.2907    8.2874   15.0358 H   0  0  0  0  0  0  0  0  0  0  0  0
   48.8548    6.7518   14.4144 H   0  0  0  0  0  0  0  0  0  0  0  0
   48.7572    8.4545   12.6648 H   0  0  0  0  0  0  0  0  0  0  0  0
   49.8364    9.5190   13.5458 H   0  0  0  0  0  0  0  0  0  0  0  0
   51.6973    7.8857   13.3111 H   0  0  0  0  0  0  0  0  0  0  0  0
   50.6101    6.7277   12.5395 H   0  0  0  0  0  0  0  0  0  0  0  0
   50.2274    8.3145   10.6614 H   0  0  0  0  0  0  0  0  0  0  0  0
   51.2553    9.5198   11.4429 H   0  0  0  0  0  0  0  0  0  0  0  0
   53.2090    7.9745   11.2932 H   0  0  0  0  0  0  0  0  0  0  0  0
   52.1815    6.7369   10.5611 H   0  0  0  0  0  0  0  0  0  0  0  0
   52.6411    9.5243    9.3723 H   0  0  0  0  0  0  0  0  0  0  0  0
   51.7290    8.2226    8.6171 H   0  0  0  0  0  0  0  0  0  0  0  0
   54.7296    8.1796    9.2511 H   0  0  0  0  0  0  0  0  0  0  0  0
   54.0102    8.4914    7.6766 H   0  0  0  0  0  0  0  0  0  0  0  0
   52.9869    6.1718    7.7148 H   0  0  0  0  0  0  0  0  0  0  0  0
   53.8740    5.8522    9.2215 H   0  0  0  0  0  0  0  0  0  0  0  0
   54.7581    6.1858    7.7281 H   0  0  0  0  0  0  0  0  0  0  0  0
  1  2  1  0
  1  3  1  0
  3  6  1  0
  4  6  1  0
  4  7  2  0
  4  8  1  0
  5  9  2  0
  7  9  1  0
  5 10  1  0
  8 10  2  0
  1 11  1  0
  1 12  1  0
 12 13  1  0
 11 14  1  0
  5 15  1  0
 15 16  1  0
 17 18  1  0
 16 19  1  0
 19 20  1  0
 18 21  1  0
 20 21  1  0
 17 22  1  0
 23 24  1  0
 23 25  1  0
 23 26  2  0
 23 27  2  0
 24 28  1  0
 28 29  1  0
 29 30  1  0
 30 31  1  0
 31 32  1  0
 32 33  1  0
 33 34  1  0
 34 35  1  0
 35 36  1  0
 36 37  1  0
 37 38  1  0
 38 39  1  0
  2 40  1  0
  2 41  1  0
  3 42  1  0
  3 43  1  0
  6 44  1  0
  6 45  1  0
  7 46  1  0
  8 47  1  0
  9 48  1  0
 10 49  1  0
 11 50  1  0
 11 51  1  0
 12 52  1  0
 12 53  1  0
 13 54  1  0
 14 55  1  0
 15 56  1  0
 15 57  1  0
 16 58  1  0
 16 59  1  0
 17 60  1  0
 17 61  1  0
 18 62  1  0
 18 63  1  0
 19 64  1  0
 19 65  1  0
 20 66  1  0
 20 67  1  0
 21 68  1  0
 21 69  1  0
 22 70  1  0
 22 71  1  0
 22 72  1  0
 25 73  1  0
 28 74  1  0
 28 75  1  0
 29 76  1  0
 29 77  1  0
 30 78  1  0
 30 79  1  0
 31 80  1  0
 31 81  1  0
 32 82  1  0
 32 83  1  0
 33 84  1  0
 33 85  1  0
 34 86  1  0
 34 87  1  0
 35 88  1  0
 35 89  1  0
 36 90  1  0
 36 91  1  0
 37 92  1  0
 37 93  1  0
 38 94  1  0
 38 95  1  0
 39 96  1  0
 39 97  1  0
 39 98  1  0
M  END
> <Uni-Dock RESULT> 
ENERGY=   -4.416  LOWER_BOUND=    7.189  UPPER_BOUND=    9.241
INTER + INTRA:          -4.416
INTER:                  -4.416
INTRA:                   0.000
UNBOUND:                 0.000

$$$$
