
     RDKit          3D

 98 97  0  0  0  0  0  0  0  0999 V2000
   44.5241    4.6049   11.7557 C   0  0  0  0  0  0  0  0  0  0  0  0
   44.3475    3.3948   12.6151 N   0  0  0  0  0  0  0  0  0  0  0  0
   45.7769    5.3664   12.2570 C   0  0  0  0  0  0  0  0  0  0  0  0
   47.3113    7.3471   12.1260 C   0  0  0  0  0  0  0  0  0  0  0  0
   49.5269    8.5957   13.3399 C   0  0  0  0  0  0  0  0  0  0  0  0
   46.1279    6.6504   11.4938 C   0  0  0  0  0  0  0  0  0  0  0  0
   47.1267    8.2561   13.1755 C   0  0  0  0  0  0  0  0  0  0  0  0
   48.6120    7.0687   11.6898 C   0  0  0  0  0  0  0  0  0  0  0  0
   48.2255    8.8779   13.7755 C   0  0  0  0  0  0  0  0  0  0  0  0
   49.7099    7.6906   12.2884 C   0  0  0  0  0  0  0  0  0  0  0  0
   43.2442    5.4622   11.9243 C   0  0  0  0  0  0  0  0  0  0  0  0
   44.6815    4.1168   10.2896 C   0  0  0  0  0  0  0  0  0  0  0  0
   44.5103    5.1591    9.3363 O   0  0  0  0  0  0  0  0  0  0  0  0
   42.0914    4.6751   11.6178 O   0  0  0  0  0  0  0  0  0  0  0  0
   50.7128    9.2790   13.9760 C   0  0  0  0  0  0  0  0  0  0  0  0
   51.0031   10.6311   13.3200 C   0  0  0  0  0  0  0  0  0  0  0  0
   55.0987   13.2376   12.6285 C   0  0  0  0  0  0  0  0  0  0  0  0
   54.8405   12.9844   14.1135 C   0  0  0  0  0  0  0  0  0  0  0  0
   52.1467   11.3967   13.9945 C   0  0  0  0  0  0  0  0  0  0  0  0
   53.5228   10.7715   13.7468 C   0  0  0  0  0  0  0  0  0  0  0  0
   54.6652   11.5033   14.4611 C   0  0  0  0  0  0  0  0  0  0  0  0
   55.3662   14.7115   12.3560 C   0  0  0  0  0  0  0  0  0  0  0  0
   43.6483    5.3883   11.1777 S   0  0  0  0  0  0  0  0  0  0  0  0
   45.0943    5.1938   11.8876 O   0  0  0  0  0  0  0  0  0  0  0  0
   42.6386    4.6797   12.2131 O   0  0  0  0  0  0  0  0  0  0  0  0
   43.3280    6.7963   11.1379 O   0  0  0  0  0  0  0  0  0  0  0  0
   43.6070    4.5540    9.9972 O   0  0  0  0  0  0  0  0  0  0  0  0
   45.2655    5.6891   13.2059 C   0  0  0  0  0  0  0  0  0  0  0  0
   46.7564    5.7992   13.5133 C   0  0  0  0  0  0  0  0  0  0  0  0
   47.4437    6.8472   12.6306 C   0  0  0  0  0  0  0  0  0  0  0  0
   48.9271    6.9828   12.9799 C   0  0  0  0  0  0  0  0  0  0  0  0
   49.6894    7.9437   12.0608 C   0  0  0  0  0  0  0  0  0  0  0  0
   49.2214    9.3958   12.1800 C   0  0  0  0  0  0  0  0  0  0  0  0
   50.0110   10.3692   11.2973 C   0  0  0  0  0  0  0  0  0  0  0  0
   51.5178   10.4603   11.5679 C   0  0  0  0  0  0  0  0  0  0  0  0
   51.8593   10.8659   13.0040 C   0  0  0  0  0  0  0  0  0  0  0  0
   53.3664   10.9457   13.2716 C   0  0  0  0  0  0  0  0  0  0  0  0
   54.1292   12.0013   12.4685 C   0  0  0  0  0  0  0  0  0  0  0  0
   53.6444   13.4206   12.7181 C   0  0  0  0  0  0  0  0  0  0  0  0
   44.3126    3.6832   13.5964 H   0  0  0  0  0  0  0  0  0  0  0  0
   45.1829    2.8091   12.5424 H   0  0  0  0  0  0  0  0  0  0  0  0
   45.6398    5.6120   13.3197 H   0  0  0  0  0  0  0  0  0  0  0  0
   46.6462    4.6927   12.2215 H   0  0  0  0  0  0  0  0  0  0  0  0
   45.2791    7.3432   11.4762 H   0  0  0  0  0  0  0  0  0  0  0  0
   46.3723    6.4280   10.4495 H   0  0  0  0  0  0  0  0  0  0  0  0
   46.1262    8.4895   13.5337 H   0  0  0  0  0  0  0  0  0  0  0  0
   48.7796    6.3638   10.8783 H   0  0  0  0  0  0  0  0  0  0  0  0
   48.0594    9.5855   14.5847 H   0  0  0  0  0  0  0  0  0  0  0  0
   50.7097    7.4652   11.9261 H   0  0  0  0  0  0  0  0  0  0  0  0
   43.2341    6.3377   11.2697 H   0  0  0  0  0  0  0  0  0  0  0  0
   43.1380    5.8172   12.9553 H   0  0  0  0  0  0  0  0  0  0  0  0
   43.9526    3.3322   10.0508 H   0  0  0  0  0  0  0  0  0  0  0  0
   45.6774    3.6845   10.1357 H   0  0  0  0  0  0  0  0  0  0  0  0
   43.5455    5.2856    9.2371 H   0  0  0  0  0  0  0  0  0  0  0  0
   42.2813    3.8006   12.0174 H   0  0  0  0  0  0  0  0  0  0  0  0
   51.5833    8.6174   13.9069 H   0  0  0  0  0  0  0  0  0  0  0  0
   50.5209    9.4116   15.0473 H   0  0  0  0  0  0  0  0  0  0  0  0
   50.1017   11.2559   13.3689 H   0  0  0  0  0  0  0  0  0  0  0  0
   51.2250   10.4953   12.2538 H   0  0  0  0  0  0  0  0  0  0  0  0
   55.9606   12.6462   12.2940 H   0  0  0  0  0  0  0  0  0  0  0  0
   54.2344   12.9249   12.0319 H   0  0  0  0  0  0  0  0  0  0  0  0
   55.6866   13.3706   14.6958 H   0  0  0  0  0  0  0  0  0  0  0  0
   53.9625   13.5515   14.4406 H   0  0  0  0  0  0  0  0  0  0  0  0
   51.9572   11.4710   15.0720 H   0  0  0  0  0  0  0  0  0  0  0  0
   52.1372   12.4195   13.5991 H   0  0  0  0  0  0  0  0  0  0  0  0
   53.7221   10.7303   12.6695 H   0  0  0  0  0  0  0  0  0  0  0  0
   53.5271    9.7334   14.0995 H   0  0  0  0  0  0  0  0  0  0  0  0
   54.5164   11.4167   15.5443 H   0  0  0  0  0  0  0  0  0  0  0  0
   55.6021   10.9772   14.2409 H   0  0  0  0  0  0  0  0  0  0  0  0
   56.2501   15.0572   12.9023 H   0  0  0  0  0  0  0  0  0  0  0  0
   55.5409   14.8742   11.2879 H   0  0  0  0  0  0  0  0  0  0  0  0
   54.5126   15.3279   12.6592 H   0  0  0  0  0  0  0  0  0  0  0  0
   42.3214    3.8599   11.7748 H   0  0  0  0  0  0  0  0  0  0  0  0
   44.7986    4.9863   13.9053 H   0  0  0  0  0  0  0  0  0  0  0  0
   44.7860    6.6685   13.3240 H   0  0  0  0  0  0  0  0  0  0  0  0
   47.2354    4.8264   13.3492 H   0  0  0  0  0  0  0  0  0  0  0  0
   46.8871    6.0618   14.5695 H   0  0  0  0  0  0  0  0  0  0  0  0
   46.9376    7.8089   12.7670 H   0  0  0  0  0  0  0  0  0  0  0  0
   47.3414    6.5717   11.5739 H   0  0  0  0  0  0  0  0  0  0  0  0
   49.0370    7.3088   14.0217 H   0  0  0  0  0  0  0  0  0  0  0  0
   49.4013    5.9964   12.9066 H   0  0  0  0  0  0  0  0  0  0  0  0
   50.7518    7.8752   12.3220 H   0  0  0  0  0  0  0  0  0  0  0  0
   49.5957    7.6099   11.0203 H   0  0  0  0  0  0  0  0  0  0  0  0
   49.2606    9.7193   13.2263 H   0  0  0  0  0  0  0  0  0  0  0  0
   48.1694    9.4653   11.8806 H   0  0  0  0  0  0  0  0  0  0  0  0
   49.5744   11.3690   11.4169 H   0  0  0  0  0  0  0  0  0  0  0  0
   49.8644   10.0918   10.2450 H   0  0  0  0  0  0  0  0  0  0  0  0
   51.9999    9.5065   11.3275 H   0  0  0  0  0  0  0  0  0  0  0  0
   51.9319   11.1959   10.8690 H   0  0  0  0  0  0  0  0  0  0  0  0
   51.4477   10.1275   13.7004 H   0  0  0  0  0  0  0  0  0  0  0  0
   51.3802   11.8211   13.2443 H   0  0  0  0  0  0  0  0  0  0  0  0
   53.8149    9.9649   13.0708 H   0  0  0  0  0  0  0  0  0  0  0  0
   53.5170   11.1397   14.3415 H   0  0  0  0  0  0  0  0  0  0  0  0
   54.0794   11.7807   11.3966 H   0  0  0  0  0  0  0  0  0  0  0  0
   55.1884   11.9451   12.7467 H   0  0  0  0  0  0  0  0  0  0  0  0
   52.6353   13.5755   12.3279 H   0  0  0  0  0  0  0  0  0  0  0  0
   53.6391   13.6555   13.7872 H   0  0  0  0  0  0  0  0  0  0  0  0
   54.3046   14.1372   12.2203 H   0  0  0  0  0  0  0  0  0  0  0  0
  1  2  1  0
  1  3  1  0
  3  6  1  0
  4  6  1  0
  4  7  2  0
  4  8  1  0
  5  9  2  0
  7  9  1  0
  5 10  1  0
  8 10  2  0
  1 11  1  0
  1 12  1  0
 12 13  1  0
 11 14  1  0
  5 15  1  0
 15 16  1  0
 17 18  1  0
 16 19  1  0
 19 20  1  0
 18 21  1  0
 20 21  1  0
 17 22  1  0
 23 24  1  0
 23 25  1  0
 23 26  2  0
 23 27  2  0
 24 28  1  0
 28 29  1  0
 29 30  1  0
 30 31  1  0
 31 32  1  0
 32 33  1  0
 33 34  1  0
 34 35  1  0
 35 36  1  0
 36 37  1  0
 37 38  1  0
 38 39  1  0
  2 40  1  0
  2 41  1  0
  3 42  1  0
  3 43  1  0
  6 44  1  0
  6 45  1  0
  7 46  1  0
  8 47  1  0
  9 48  1  0
 10 49  1  0
 11 50  1  0
 11 51  1  0
 12 52  1  0
 12 53  1  0
 13 54  1  0
 14 55  1  0
 15 56  1  0
 15 57  1  0
 16 58  1  0
 16 59  1  0
 17 60  1  0
 17 61  1  0
 18 62  1  0
 18 63  1  0
 19 64  1  0
 19 65  1  0
 20 66  1  0
 20 67  1  0
 21 68  1  0
 21 69  1  0
 22 70  1  0
 22 71  1  0
 22 72  1  0
 25 73  1  0
 28 74  1  0
 28 75  1  0
 29 76  1  0
 29 77  1  0
 30 78  1  0
 30 79  1  0
 31 80  1  0
 31 81  1  0
 32 82  1  0
 32 83  1  0
 33 84  1  0
 33 85  1  0
 34 86  1  0
 34 87  1  0
 35 88  1  0
 35 89  1  0
 36 90  1  0
 36 91  1  0
 37 92  1  0
 37 93  1  0
 38 94  1  0
 38 95  1  0
 39 96  1  0
 39 97  1  0
 39 98  1  0
M  END
> <Uni-Dock RESULT> 
ENERGY=   -5.893  LOWER_BOUND=    0.000  UPPER_BOUND=    0.000
INTER + INTRA:          -5.893
INTER:                  -5.893
INTRA:                   0.000
UNBOUND:                 0.000

$$$$

     RDKit          3D

 98 97  0  0  0  0  0  0  0  0999 V2000
   43.8755    5.0180   11.1781 C   0  0  0  0  0  0  0  0  0  0  0  0
   43.6928    4.9255    9.6975 N   0  0  0  0  0  0  0  0  0  0  0  0
   45.0606    5.9777   11.4527 C   0  0  0  0  0  0  0  0  0  0  0  0
   46.6281    7.0863   13.0677 C   0  0  0  0  0  0  0  0  0  0  0  0
   48.9007    8.7410   13.2640 C   0  0  0  0  0  0  0  0  0  0  0  0
   45.4073    6.2053   12.9299 C   0  0  0  0  0  0  0  0  0  0  0  0
   47.9137    6.5307   13.0556 C   0  0  0  0  0  0  0  0  0  0  0  0
   46.4896    8.4748   13.1788 C   0  0  0  0  0  0  0  0  0  0  0  0
   49.0410    7.3511   13.1561 C   0  0  0  0  0  0  0  0  0  0  0  0
   47.6156    9.2947   13.2803 C   0  0  0  0  0  0  0  0  0  0  0  0
   44.1886    3.5854   11.6792 C   0  0  0  0  0  0  0  0  0  0  0  0
   42.5436    5.5429   11.7805 C   0  0  0  0  0  0  0  0  0  0  0  0
   42.4576    5.3519   13.1878 O   0  0  0  0  0  0  0  0  0  0  0  0
   43.1566    2.6903   11.2596 O   0  0  0  0  0  0  0  0  0  0  0  0
   50.1166    9.6264   13.3892 C   0  0  0  0  0  0  0  0  0  0  0  0
   50.5677    9.7618   14.8456 C   0  0  0  0  0  0  0  0  0  0  0  0
   52.8179   13.3159   17.3658 C   0  0  0  0  0  0  0  0  0  0  0  0
   53.6701   12.8373   16.1908 C   0  0  0  0  0  0  0  0  0  0  0  0
   51.8518   10.5829   15.0064 C   0  0  0  0  0  0  0  0  0  0  0  0
   51.6531   12.0770   14.7344 C   0  0  0  0  0  0  0  0  0  0  0  0
   52.9445   12.8962   14.8435 C   0  0  0  0  0  0  0  0  0  0  0  0
   53.6187   13.3329   18.6605 C   0  0  0  0  0  0  0  0  0  0  0  0
   43.7083    4.1297   12.1256 S   0  0  0  0  0  0  0  0  0  0  0  0
   44.4971    5.4251   11.5487 O   0  0  0  0  0  0  0  0  0  0  0  0
   43.7422    3.1033   10.8850 O   0  0  0  0  0  0  0  0  0  0  0  0
   44.4772    3.5504   13.2026 O   0  0  0  0  0  0  0  0  0  0  0  0
   42.3127    4.4780   12.2744 O   0  0  0  0  0  0  0  0  0  0  0  0
   45.8154    5.2428   11.0574 C   0  0  0  0  0  0  0  0  0  0  0  0
   46.5145    6.5969   10.9758 C   0  0  0  0  0  0  0  0  0  0  0  0
   46.7175    7.2173   12.3629 C   0  0  0  0  0  0  0  0  0  0  0  0
   47.4613    8.5513   12.2726 C   0  0  0  0  0  0  0  0  0  0  0  0
   47.6033    9.2679   13.6200 C   0  0  0  0  0  0  0  0  0  0  0  0
   48.4755    8.5078   14.6217 C   0  0  0  0  0  0  0  0  0  0  0  0
   48.6594    9.2413   15.9553 C   0  0  0  0  0  0  0  0  0  0  0  0
   49.3241   10.6215   15.8840 C   0  0  0  0  0  0  0  0  0  0  0  0
   50.7183   10.5986   15.2521 C   0  0  0  0  0  0  0  0  0  0  0  0
   51.3739   11.9819   15.1743 C   0  0  0  0  0  0  0  0  0  0  0  0
   51.6601   12.6583   16.5166 C   0  0  0  0  0  0  0  0  0  0  0  0
   52.6021   11.8640   17.4073 C   0  0  0  0  0  0  0  0  0  0  0  0
   44.5794    4.6494    9.2673 H   0  0  0  0  0  0  0  0  0  0  0  0
   43.4992    5.8586    9.3261 H   0  0  0  0  0  0  0  0  0  0  0  0
   45.9518    5.5965   10.9340 H   0  0  0  0  0  0  0  0  0  0  0  0
   44.8479    6.9539   10.9915 H   0  0  0  0  0  0  0  0  0  0  0  0
   45.5988    5.2550   13.4409 H   0  0  0  0  0  0  0  0  0  0  0  0
   44.5733    6.6815   13.4565 H   0  0  0  0  0  0  0  0  0  0  0  0
   48.0489    5.4544   12.9698 H   0  0  0  0  0  0  0  0  0  0  0  0
   45.5009    8.9287   13.1873 H   0  0  0  0  0  0  0  0  0  0  0  0
   50.0300    6.8986   13.1513 H   0  0  0  0  0  0  0  0  0  0  0  0
   47.4822   10.3694   13.3749 H   0  0  0  0  0  0  0  0  0  0  0  0
   44.2593    3.5261   12.7685 H   0  0  0  0  0  0  0  0  0  0  0  0
   45.1339    3.2183   11.2645 H   0  0  0  0  0  0  0  0  0  0  0  0
   41.6778    5.0421   11.3291 H   0  0  0  0  0  0  0  0  0  0  0  0
   42.4309    6.6154   11.5821 H   0  0  0  0  0  0  0  0  0  0  0  0
   42.2021    4.4175   13.3237 H   0  0  0  0  0  0  0  0  0  0  0  0
   42.9497    2.9706   10.3436 H   0  0  0  0  0  0  0  0  0  0  0  0
   49.8874   10.6076   12.9593 H   0  0  0  0  0  0  0  0  0  0  0  0
   50.9281    9.2133   12.7786 H   0  0  0  0  0  0  0  0  0  0  0  0
   50.7506    8.7619   15.2603 H   0  0  0  0  0  0  0  0  0  0  0  0
   49.7660   10.2035   15.4512 H   0  0  0  0  0  0  0  0  0  0  0  0
   52.4372   14.3251   17.1632 H   0  0  0  0  0  0  0  0  0  0  0  0
   51.9513   12.6591   17.5014 H   0  0  0  0  0  0  0  0  0  0  0  0
   54.5676   13.4648   16.1194 H   0  0  0  0  0  0  0  0  0  0  0  0
   54.0258   11.8188   16.3796 H   0  0  0  0  0  0  0  0  0  0  0  0
   52.6318   10.1825   14.3479 H   0  0  0  0  0  0  0  0  0  0  0  0
   52.2041   10.4460   16.0358 H   0  0  0  0  0  0  0  0  0  0  0  0
   50.8967   12.4803   15.4179 H   0  0  0  0  0  0  0  0  0  0  0  0
   51.2587   12.2201   13.7214 H   0  0  0  0  0  0  0  0  0  0  0  0
   53.6387   12.5657   14.0612 H   0  0  0  0  0  0  0  0  0  0  0  0
   52.7086   13.9431   14.6167 H   0  0  0  0  0  0  0  0  0  0  0  0
   54.4747   14.0115   18.5834 H   0  0  0  0  0  0  0  0  0  0  0  0
   52.9905   13.6704   19.4908 H   0  0  0  0  0  0  0  0  0  0  0  0
   53.9946   12.3326   18.9028 H   0  0  0  0  0  0  0  0  0  0  0  0
   42.8211    3.0432   10.5490 H   0  0  0  0  0  0  0  0  0  0  0  0
   45.7559    4.8008   10.0564 H   0  0  0  0  0  0  0  0  0  0  0  0
   46.3865    4.5654   11.7040 H   0  0  0  0  0  0  0  0  0  0  0  0
   45.9140    7.2813   10.3645 H   0  0  0  0  0  0  0  0  0  0  0  0
   47.4847    6.4713   10.4812 H   0  0  0  0  0  0  0  0  0  0  0  0
   47.2835    6.5144   12.9834 H   0  0  0  0  0  0  0  0  0  0  0  0
   45.7466    7.3729   12.8489 H   0  0  0  0  0  0  0  0  0  0  0  0
   48.4550    8.3958   11.8346 H   0  0  0  0  0  0  0  0  0  0  0  0
   46.9169    9.2165   11.5911 H   0  0  0  0  0  0  0  0  0  0  0  0
   48.0399   10.2541   13.4236 H   0  0  0  0  0  0  0  0  0  0  0  0
   46.6100    9.4403   14.0518 H   0  0  0  0  0  0  0  0  0  0  0  0
   49.4517    8.2840   14.1771 H   0  0  0  0  0  0  0  0  0  0  0  0
   48.0146    7.5387   14.8444 H   0  0  0  0  0  0  0  0  0  0  0  0
   49.2560    8.6009   16.6173 H   0  0  0  0  0  0  0  0  0  0  0  0
   47.6785    9.3539   16.4359 H   0  0  0  0  0  0  0  0  0  0  0  0
   48.6807   11.3194   15.3373 H   0  0  0  0  0  0  0  0  0  0  0  0
   49.3902   11.0062   16.9081 H   0  0  0  0  0  0  0  0  0  0  0  0
   50.6493   10.2174   14.2276 H   0  0  0  0  0  0  0  0  0  0  0  0
   51.3632    9.9033   15.8001 H   0  0  0  0  0  0  0  0  0  0  0  0
   50.7332   12.6453   14.5803 H   0  0  0  0  0  0  0  0  0  0  0  0
   52.3162   11.8863   14.6195 H   0  0  0  0  0  0  0  0  0  0  0  0
   50.7270   12.8564   17.0553 H   0  0  0  0  0  0  0  0  0  0  0  0
   52.1159   13.6357   16.3181 H   0  0  0  0  0  0  0  0  0  0  0  0
   52.1403   10.9363   17.7550 H   0  0  0  0  0  0  0  0  0  0  0  0
   53.5271   11.6105   16.8798 H   0  0  0  0  0  0  0  0  0  0  0  0
   52.8697   12.4511   18.2910 H   0  0  0  0  0  0  0  0  0  0  0  0
  1  2  1  0
  1  3  1  0
  3  6  1  0
  4  6  1  0
  4  7  2  0
  4  8  1  0
  5  9  2  0
  7  9  1  0
  5 10  1  0
  8 10  2  0
  1 11  1  0
  1 12  1  0
 12 13  1  0
 11 14  1  0
  5 15  1  0
 15 16  1  0
 17 18  1  0
 16 19  1  0
 19 20  1  0
 18 21  1  0
 20 21  1  0
 17 22  1  0
 23 24  1  0
 23 25  1  0
 23 26  2  0
 23 27  2  0
 24 28  1  0
 28 29  1  0
 29 30  1  0
 30 31  1  0
 31 32  1  0
 32 33  1  0
 33 34  1  0
 34 35  1  0
 35 36  1  0
 36 37  1  0
 37 38  1  0
 38 39  1  0
  2 40  1  0
  2 41  1  0
  3 42  1  0
  3 43  1  0
  6 44  1  0
  6 45  1  0
  7 46  1  0
  8 47  1  0
  9 48  1  0
 10 49  1  0
 11 50  1  0
 11 51  1  0
 12 52  1  0
 12 53  1  0
 13 54  1  0
 14 55  1  0
 15 56  1  0
 15 57  1  0
 16 58  1  0
 16 59  1  0
 17 60  1  0
 17 61  1  0
 18 62  1  0
 18 63  1  0
 19 64  1  0
 19 65  1  0
 20 66  1  0
 20 67  1  0
 21 68  1  0
 21 69  1  0
 22 70  1  0
 22 71  1  0
 22 72  1  0
 25 73  1  0
 28 74  1  0
 28 75  1  0
 29 76  1  0
 29 77  1  0
 30 78  1  0
 30 79  1  0
 31 80  1  0
 31 81  1  0
 32 82  1  0
 32 83  1  0
 33 84  1  0
 33 85  1  0
 34 86  1  0
 34 87  1  0
 35 88  1  0
 35 89  1  0
 36 90  1  0
 36 91  1  0
 37 92  1  0
 37 93  1  0
 38 94  1  0
 38 95  1  0
 39 96  1  0
 39 97  1  0
 39 98  1  0
M  END
> <Uni-Dock RESULT> 
ENERGY=   -5.666  LOWER_BOUND=    1.831  UPPER_BOUND=    3.004
INTER + INTRA:          -5.666
INTER:                  -5.666
INTRA:                   0.000
UNBOUND:                 0.000

$$$$

     RDKit          3D

 98 97  0  0  0  0  0  0  0  0999 V2000
   48.1284   16.3749   13.9512 C   0  0  0  0  0  0  0  0  0  0  0  0
   48.6150   17.7740   14.1516 N   0  0  0  0  0  0  0  0  0  0  0  0
   48.3052   15.6130   15.2887 C   0  0  0  0  0  0  0  0  0  0  0  0
   48.1579   13.4872   16.6129 C   0  0  0  0  0  0  0  0  0  0  0  0
   48.7316   12.3158   19.1110 C   0  0  0  0  0  0  0  0  0  0  0  0
   47.8575   14.1454   15.2856 C   0  0  0  0  0  0  0  0  0  0  0  0
   49.4071   12.9002   16.8515 C   0  0  0  0  0  0  0  0  0  0  0  0
   47.1998   13.4829   17.6335 C   0  0  0  0  0  0  0  0  0  0  0  0
   49.6905   12.3164   18.0896 C   0  0  0  0  0  0  0  0  0  0  0  0
   47.4823   12.8987   18.8701 C   0  0  0  0  0  0  0  0  0  0  0  0
   49.0046   15.7538   12.8340 C   0  0  0  0  0  0  0  0  0  0  0  0
   46.6401   16.4568   13.5146 C   0  0  0  0  0  0  0  0  0  0  0  0
   46.1565   15.2389   12.9604 O   0  0  0  0  0  0  0  0  0  0  0  0
   48.9542   16.5766   11.6667 O   0  0  0  0  0  0  0  0  0  0  0  0
   49.0307   11.6711   20.4424 C   0  0  0  0  0  0  0  0  0  0  0  0
   48.7197   10.1725   20.4257 C   0  0  0  0  0  0  0  0  0  0  0  0
   47.2766    6.9858   23.8621 C   0  0  0  0  0  0  0  0  0  0  0  0
   48.6129    7.6330   24.2247 C   0  0  0  0  0  0  0  0  0  0  0  0
   49.0918    9.4636   21.7326 C   0  0  0  0  0  0  0  0  0  0  0  0
   48.1741    9.8301   22.9028 C   0  0  0  0  0  0  0  0  0  0  0  0
   48.5723    9.1638   24.2250 C   0  0  0  0  0  0  0  0  0  0  0  0
   47.3463    5.4692   23.9765 C   0  0  0  0  0  0  0  0  0  0  0  0
   48.1719   15.5874   12.9059 S   0  0  0  0  0  0  0  0  0  0  0  0
   48.1918   15.7714   14.5179 O   0  0  0  0  0  0  0  0  0  0  0  0
   49.2714   16.6530   12.4065 O   0  0  0  0  0  0  0  0  0  0  0  0
   48.6524   14.2656   12.5761 O   0  0  0  0  0  0  0  0  0  0  0  0
   46.9144   16.0980   12.4068 O   0  0  0  0  0  0  0  0  0  0  0  0
   49.4265   15.6046   15.1962 C   0  0  0  0  0  0  0  0  0  0  0  0
   49.1596   15.3899   16.6834 C   0  0  0  0  0  0  0  0  0  0  0  0
   48.4124   14.0768   16.9438 C   0  0  0  0  0  0  0  0  0  0  0  0
   48.1924   13.8490   18.4407 C   0  0  0  0  0  0  0  0  0  0  0  0
   47.3602   12.6013   18.7564 C   0  0  0  0  0  0  0  0  0  0  0  0
   48.0495   11.2954   18.3545 C   0  0  0  0  0  0  0  0  0  0  0  0
   47.2425   10.0413   18.7097 C   0  0  0  0  0  0  0  0  0  0  0  0
   46.9317    9.8336   20.1970 C   0  0  0  0  0  0  0  0  0  0  0  0
   48.1802    9.7611   21.0799 C   0  0  0  0  0  0  0  0  0  0  0  0
   47.8637    9.5634   22.5665 C   0  0  0  0  0  0  0  0  0  0  0  0
   47.1600    8.2537   22.9278 C   0  0  0  0  0  0  0  0  0  0  0  0
   47.9613    7.0140   22.5633 C   0  0  0  0  0  0  0  0  0  0  0  0
   49.5736   17.7471   14.5089 H   0  0  0  0  0  0  0  0  0  0  0  0
   48.0688   18.2138   14.8961 H   0  0  0  0  0  0  0  0  0  0  0  0
   49.3625   15.6604   15.5857 H   0  0  0  0  0  0  0  0  0  0  0  0
   47.7541   16.1425   16.0805 H   0  0  0  0  0  0  0  0  0  0  0  0
   48.3592   13.5818   14.4910 H   0  0  0  0  0  0  0  0  0  0  0  0
   46.7819   14.0670   15.0939 H   0  0  0  0  0  0  0  0  0  0  0  0
   50.1695   12.8906   16.0753 H   0  0  0  0  0  0  0  0  0  0  0  0
   46.2238   13.9356   17.4717 H   0  0  0  0  0  0  0  0  0  0  0  0
   50.6646   11.8603   18.2517 H   0  0  0  0  0  0  0  0  0  0  0  0
   46.7187   12.8996   19.6439 H   0  0  0  0  0  0  0  0  0  0  0  0
   48.6762   14.7507   12.5496 H   0  0  0  0  0  0  0  0  0  0  0  0
   50.0528   15.6844   13.1450 H   0  0  0  0  0  0  0  0  0  0  0  0
   46.4884   17.2412   12.7625 H   0  0  0  0  0  0  0  0  0  0  0  0
   46.0039   16.7091   14.3714 H   0  0  0  0  0  0  0  0  0  0  0  0
   46.4724   15.2130   12.0350 H   0  0  0  0  0  0  0  0  0  0  0  0
   48.9896   17.4926   12.0134 H   0  0  0  0  0  0  0  0  0  0  0  0
   48.4530   12.1804   21.2217 H   0  0  0  0  0  0  0  0  0  0  0  0
   50.0850   11.8359   20.6944 H   0  0  0  0  0  0  0  0  0  0  0  0
   49.2810    9.6974   19.6106 H   0  0  0  0  0  0  0  0  0  0  0  0
   47.6575   10.0082   20.2034 H   0  0  0  0  0  0  0  0  0  0  0  0
   46.4880    7.3623   24.5260 H   0  0  0  0  0  0  0  0  0  0  0  0
   46.9932    7.2445   22.8357 H   0  0  0  0  0  0  0  0  0  0  0  0
   48.9113    7.3024   25.2277 H   0  0  0  0  0  0  0  0  0  0  0  0
   49.3944    7.2799   23.5435 H   0  0  0  0  0  0  0  0  0  0  0  0
   50.1343    9.6857   21.9900 H   0  0  0  0  0  0  0  0  0  0  0  0
   49.0328    8.3839   21.5505 H   0  0  0  0  0  0  0  0  0  0  0  0
   47.1372    9.5751   22.6539 H   0  0  0  0  0  0  0  0  0  0  0  0
   48.1933   10.9145   23.0632 H   0  0  0  0  0  0  0  0  0  0  0  0
   49.5594    9.5367   24.5243 H   0  0  0  0  0  0  0  0  0  0  0  0
   47.8740    9.4968   25.0025 H   0  0  0  0  0  0  0  0  0  0  0  0
   47.5872    5.1637   25.0002 H   0  0  0  0  0  0  0  0  0  0  0  0
   46.3839    5.0237   23.7059 H   0  0  0  0  0  0  0  0  0  0  0  0
   48.1112    5.0598   23.3073 H   0  0  0  0  0  0  0  0  0  0  0  0
   48.7771   17.3699   11.9520 H   0  0  0  0  0  0  0  0  0  0  0  0
   50.0245   16.5127   15.0591 H   0  0  0  0  0  0  0  0  0  0  0  0
   49.9871   14.7537   14.7901 H   0  0  0  0  0  0  0  0  0  0  0  0
   48.5605   16.2229   17.0704 H   0  0  0  0  0  0  0  0  0  0  0  0
   50.1138   15.3858   17.2228 H   0  0  0  0  0  0  0  0  0  0  0  0
   48.9943   13.2509   16.5210 H   0  0  0  0  0  0  0  0  0  0  0  0
   47.4433   14.0896   16.4303 H   0  0  0  0  0  0  0  0  0  0  0  0
   49.1596   13.7832   18.9543 H   0  0  0  0  0  0  0  0  0  0  0  0
   47.6714   14.7186   18.8599 H   0  0  0  0  0  0  0  0  0  0  0  0
   47.1662   12.5998   19.8353 H   0  0  0  0  0  0  0  0  0  0  0  0
   46.3859   12.6729   18.2582 H   0  0  0  0  0  0  0  0  0  0  0  0
   49.0468   11.2419   18.8053 H   0  0  0  0  0  0  0  0  0  0  0  0
   48.2062   11.2850   17.2699 H   0  0  0  0  0  0  0  0  0  0  0  0
   47.7936    9.1659   18.3433 H   0  0  0  0  0  0  0  0  0  0  0  0
   46.2935   10.0625   18.1575 H   0  0  0  0  0  0  0  0  0  0  0  0
   46.2695   10.6290   20.5560 H   0  0  0  0  0  0  0  0  0  0  0  0
   46.3634    8.9007   20.2855 H   0  0  0  0  0  0  0  0  0  0  0  0
   48.7446   10.6958   20.9928 H   0  0  0  0  0  0  0  0  0  0  0  0
   48.8416    8.9640   20.7235 H   0  0  0  0  0  0  0  0  0  0  0  0
   47.2417   10.3988   22.9110 H   0  0  0  0  0  0  0  0  0  0  0  0
   48.8032    9.6262   23.1306 H   0  0  0  0  0  0  0  0  0  0  0  0
   46.1728    8.2033   22.4556 H   0  0  0  0  0  0  0  0  0  0  0  0
   46.9855    8.2451   24.0104 H   0  0  0  0  0  0  0  0  0  0  0  0
   48.0456    6.8936   21.4802 H   0  0  0  0  0  0  0  0  0  0  0  0
   48.9710    7.0569   22.9837 H   0  0  0  0  0  0  0  0  0  0  0  0
   47.4711    6.1190   22.9580 H   0  0  0  0  0  0  0  0  0  0  0  0
  1  2  1  0
  1  3  1  0
  3  6  1  0
  4  6  1  0
  4  7  2  0
  4  8  1  0
  5  9  2  0
  7  9  1  0
  5 10  1  0
  8 10  2  0
  1 11  1  0
  1 12  1  0
 12 13  1  0
 11 14  1  0
  5 15  1  0
 15 16  1  0
 17 18  1  0
 16 19  1  0
 19 20  1  0
 18 21  1  0
 20 21  1  0
 17 22  1  0
 23 24  1  0
 23 25  1  0
 23 26  2  0
 23 27  2  0
 24 28  1  0
 28 29  1  0
 29 30  1  0
 30 31  1  0
 31 32  1  0
 32 33  1  0
 33 34  1  0
 34 35  1  0
 35 36  1  0
 36 37  1  0
 37 38  1  0
 38 39  1  0
  2 40  1  0
  2 41  1  0
  3 42  1  0
  3 43  1  0
  6 44  1  0
  6 45  1  0
  7 46  1  0
  8 47  1  0
  9 48  1  0
 10 49  1  0
 11 50  1  0
 11 51  1  0
 12 52  1  0
 12 53  1  0
 13 54  1  0
 14 55  1  0
 15 56  1  0
 15 57  1  0
 16 58  1  0
 16 59  1  0
 17 60  1  0
 17 61  1  0
 18 62  1  0
 18 63  1  0
 19 64  1  0
 19 65  1  0
 20 66  1  0
 20 67  1  0
 21 68  1  0
 21 69  1  0
 22 70  1  0
 22 71  1  0
 22 72  1  0
 25 73  1  0
 28 74  1  0
 28 75  1  0
 29 76  1  0
 29 77  1  0
 30 78  1  0
 30 79  1  0
 31 80  1  0
 31 81  1  0
 32 82  1  0
 32 83  1  0
 33 84  1  0
 33 85  1  0
 34 86  1  0
 34 87  1  0
 35 88  1  0
 35 89  1  0
 36 90  1  0
 36 91  1  0
 37 92  1  0
 37 93  1  0
 38 94  1  0
 38 95  1  0
 39 96  1  0
 39 97  1  0
 39 98  1  0
M  END
> <Uni-Dock RESULT> 
ENERGY=   -5.231  LOWER_BOUND=    8.188  UPPER_BOUND=   10.748
INTER + INTRA:          -5.231
INTER:                  -5.231
INTRA:                   0.000
UNBOUND:                 0.000

$$$$

     RDKit          3D

 98 97  0  0  0  0  0  0  0  0999 V2000
   53.2194   13.7128   13.2896 C   0  0  0  0  0  0  0  0  0  0  0  0
   52.9759   15.1791   13.1312 N   0  0  0  0  0  0  0  0  0  0  0  0
   51.8704   12.9805   13.0784 C   0  0  0  0  0  0  0  0  0  0  0  0
   50.5298   10.8599   13.0624 C   0  0  0  0  0  0  0  0  0  0  0  0
   47.9286    9.8121   12.7845 C   0  0  0  0  0  0  0  0  0  0  0  0
   51.9139   11.4517   13.2016 C   0  0  0  0  0  0  0  0  0  0  0  0
   49.6944   10.7289   14.1789 C   0  0  0  0  0  0  0  0  0  0  0  0
   50.0532   10.4626   11.8076 C   0  0  0  0  0  0  0  0  0  0  0  0
   48.4053   10.2062   14.0417 C   0  0  0  0  0  0  0  0  0  0  0  0
   48.7656    9.9394   11.6702 C   0  0  0  0  0  0  0  0  0  0  0  0
   53.7504   13.5021   14.7301 C   0  0  0  0  0  0  0  0  0  0  0  0
   54.2826   13.3001   12.2353 C   0  0  0  0  0  0  0  0  0  0  0  0
   54.8584   12.0256   12.4974 O   0  0  0  0  0  0  0  0  0  0  0  0
   54.8984   14.3249   14.9473 O   0  0  0  0  0  0  0  0  0  0  0  0
   46.5429    9.2322   12.6379 C   0  0  0  0  0  0  0  0  0  0  0  0
   46.5339    7.7225   12.8902 C   0  0  0  0  0  0  0  0  0  0  0  0
   43.7842    4.0331   11.1952 C   0  0  0  0  0  0  0  0  0  0  0  0
   42.9342    5.0801   11.9143 C   0  0  0  0  0  0  0  0  0  0  0  0
   45.1303    7.1094   12.8363 C   0  0  0  0  0  0  0  0  0  0  0  0
   44.5431    7.0643   11.4225 C   0  0  0  0  0  0  0  0  0  0  0  0
   43.1189    6.4991   11.3688 C   0  0  0  0  0  0  0  0  0  0  0  0
   43.4863    2.6306   11.7073 C   0  0  0  0  0  0  0  0  0  0  0  0
   54.0417   13.0534   14.0667 S   0  0  0  0  0  0  0  0  0  0  0  0
   52.6224   13.1358   13.2844 O   0  0  0  0  0  0  0  0  0  0  0  0
   54.1082   14.4619   14.8448 O   0  0  0  0  0  0  0  0  0  0  0  0
   53.9750   12.0023   15.0553 O   0  0  0  0  0  0  0  0  0  0  0  0
   55.1037   13.1258   13.0878 O   0  0  0  0  0  0  0  0  0  0  0  0
   51.4491   13.3667   14.0477 C   0  0  0  0  0  0  0  0  0  0  0  0
   50.2257   12.9839   13.2195 C   0  0  0  0  0  0  0  0  0  0  0  0
   50.1864   11.4802   12.9236 C   0  0  0  0  0  0  0  0  0  0  0  0
   48.9319   11.1008   12.1341 C   0  0  0  0  0  0  0  0  0  0  0  0
   48.8888    9.6255   11.7211 C   0  0  0  0  0  0  0  0  0  0  0  0
   48.7943    8.6660   12.9094 C   0  0  0  0  0  0  0  0  0  0  0  0
   48.7042    7.1910   12.5013 C   0  0  0  0  0  0  0  0  0  0  0  0
   47.5011    6.7996   11.6346 C   0  0  0  0  0  0  0  0  0  0  0  0
   46.1503    7.1113   12.2841 C   0  0  0  0  0  0  0  0  0  0  0  0
   44.9515    6.7273   11.4096 C   0  0  0  0  0  0  0  0  0  0  0  0
   44.8036    5.2357   11.1023 C   0  0  0  0  0  0  0  0  0  0  0  0
   44.6329    4.3747   12.3438 C   0  0  0  0  0  0  0  0  0  0  0  0
   52.2264   15.4646   13.7669 H   0  0  0  0  0  0  0  0  0  0  0  0
   52.6080   15.3569   12.1936 H   0  0  0  0  0  0  0  0  0  0  0  0
   51.1382   13.3734   13.7982 H   0  0  0  0  0  0  0  0  0  0  0  0
   51.4724   13.2377   12.0852 H   0  0  0  0  0  0  0  0  0  0  0  0
   52.3328   11.1457   14.1668 H   0  0  0  0  0  0  0  0  0  0  0  0
   52.5574   11.0172   12.4290 H   0  0  0  0  0  0  0  0  0  0  0  0
   50.0405   11.0307   15.1654 H   0  0  0  0  0  0  0  0  0  0  0  0
   50.6833   10.5580   10.9258 H   0  0  0  0  0  0  0  0  0  0  0  0
   47.7753   10.1070   14.9228 H   0  0  0  0  0  0  0  0  0  0  0  0
   48.4213    9.6292   10.6869 H   0  0  0  0  0  0  0  0  0  0  0  0
   54.0407   12.4663   14.9249 H   0  0  0  0  0  0  0  0  0  0  0  0
   52.9972   13.7816   15.4750 H   0  0  0  0  0  0  0  0  0  0  0  0
   55.1034   14.0270   12.1919 H   0  0  0  0  0  0  0  0  0  0  0  0
   53.8350   13.2643   11.2349 H   0  0  0  0  0  0  0  0  0  0  0  0
   55.5352   12.1664   13.1895 H   0  0  0  0  0  0  0  0  0  0  0  0
   54.6747   15.1738   14.5116 H   0  0  0  0  0  0  0  0  0  0  0  0
   46.1658    9.4620   11.6352 H   0  0  0  0  0  0  0  0  0  0  0  0
   45.8649    9.7367   13.3364 H   0  0  0  0  0  0  0  0  0  0  0  0
   46.9538    7.5212   13.8844 H   0  0  0  0  0  0  0  0  0  0  0  0
   47.1892    7.2141   12.1715 H   0  0  0  0  0  0  0  0  0  0  0  0
   43.5895    4.0724   10.1158 H   0  0  0  0  0  0  0  0  0  0  0  0
   44.8502    4.2387   11.3444 H   0  0  0  0  0  0  0  0  0  0  0  0
   41.8745    4.8138   11.8121 H   0  0  0  0  0  0  0  0  0  0  0  0
   43.1500    5.0613   12.9879 H   0  0  0  0  0  0  0  0  0  0  0  0
   44.4589    7.6630   13.5036 H   0  0  0  0  0  0  0  0  0  0  0  0
   45.2007    6.0891   13.2319 H   0  0  0  0  0  0  0  0  0  0  0  0
   45.2007    6.4812   10.7670 H   0  0  0  0  0  0  0  0  0  0  0  0
   44.5103    8.0765   11.0024 H   0  0  0  0  0  0  0  0  0  0  0  0
   42.4516    7.1722   11.9208 H   0  0  0  0  0  0  0  0  0  0  0  0
   42.7781    6.5222   10.3265 H   0  0  0  0  0  0  0  0  0  0  0  0
   42.4367    2.3666   11.5399 H   0  0  0  0  0  0  0  0  0  0  0  0
   44.1091    1.8964   11.1869 H   0  0  0  0  0  0  0  0  0  0  0  0
   43.6927    2.5525   12.7806 H   0  0  0  0  0  0  0  0  0  0  0  0
   54.8110   14.9891   14.4056 H   0  0  0  0  0  0  0  0  0  0  0  0
   51.4017   14.4322   14.2995 H   0  0  0  0  0  0  0  0  0  0  0  0
   51.4656   12.7888   14.9798 H   0  0  0  0  0  0  0  0  0  0  0  0
   50.2415   13.5329   12.2703 H   0  0  0  0  0  0  0  0  0  0  0  0
   49.3190   13.2783   13.7606 H   0  0  0  0  0  0  0  0  0  0  0  0
   50.2109   10.9340   13.8726 H   0  0  0  0  0  0  0  0  0  0  0  0
   51.0777   11.1872   12.3555 H   0  0  0  0  0  0  0  0  0  0  0  0
   48.0356   11.3434   12.7183 H   0  0  0  0  0  0  0  0  0  0  0  0
   48.8881   11.7092   11.2224 H   0  0  0  0  0  0  0  0  0  0  0  0
   48.0183    9.4921   11.0683 H   0  0  0  0  0  0  0  0  0  0  0  0
   49.7753    9.3849   11.1219 H   0  0  0  0  0  0  0  0  0  0  0  0
   47.9416    8.9343   13.5432 H   0  0  0  0  0  0  0  0  0  0  0  0
   49.6854    8.7756   13.5381 H   0  0  0  0  0  0  0  0  0  0  0  0
   48.6870    6.5844   13.4157 H   0  0  0  0  0  0  0  0  0  0  0  0
   49.6217    6.9152   11.9646 H   0  0  0  0  0  0  0  0  0  0  0  0
   47.5659    7.2932   10.6588 H   0  0  0  0  0  0  0  0  0  0  0  0
   47.5756    5.7240   11.4377 H   0  0  0  0  0  0  0  0  0  0  0  0
   46.0765    8.1870   12.4765 H   0  0  0  0  0  0  0  0  0  0  0  0
   46.0834    6.6156   13.2586 H   0  0  0  0  0  0  0  0  0  0  0  0
   45.0156    7.2731   10.4602 H   0  0  0  0  0  0  0  0  0  0  0  0
   44.0368    7.0777   11.9049 H   0  0  0  0  0  0  0  0  0  0  0  0
   45.6595    4.8748   10.5215 H   0  0  0  0  0  0  0  0  0  0  0  0
   43.9202    5.1022   10.4664 H   0  0  0  0  0  0  0  0  0  0  0  0
   45.5431    4.3562   12.9487 H   0  0  0  0  0  0  0  0  0  0  0  0
   43.8121    4.7394   12.9694 H   0  0  0  0  0  0  0  0  0  0  0  0
   44.4049    3.3433   12.0586 H   0  0  0  0  0  0  0  0  0  0  0  0
  1  2  1  0
  1  3  1  0
  3  6  1  0
  4  6  1  0
  4  7  2  0
  4  8  1  0
  5  9  2  0
  7  9  1  0
  5 10  1  0
  8 10  2  0
  1 11  1  0
  1 12  1  0
 12 13  1  0
 11 14  1  0
  5 15  1  0
 15 16  1  0
 17 18  1  0
 16 19  1  0
 19 20  1  0
 18 21  1  0
 20 21  1  0
 17 22  1  0
 23 24  1  0
 23 25  1  0
 23 26  2  0
 23 27  2  0
 24 28  1  0
 28 29  1  0
 29 30  1  0
 30 31  1  0
 31 32  1  0
 32 33  1  0
 33 34  1  0
 34 35  1  0
 35 36  1  0
 36 37  1  0
 37 38  1  0
 38 39  1  0
  2 40  1  0
  2 41  1  0
  3 42  1  0
  3 43  1  0
  6 44  1  0
  6 45  1  0
  7 46  1  0
  8 47  1  0
  9 48  1  0
 10 49  1  0
 11 50  1  0
 11 51  1  0
 12 52  1  0
 12 53  1  0
 13 54  1  0
 14 55  1  0
 15 56  1  0
 15 57  1  0
 16 58  1  0
 16 59  1  0
 17 60  1  0
 17 61  1  0
 18 62  1  0
 18 63  1  0
 19 64  1  0
 19 65  1  0
 20 66  1  0
 20 67  1  0
 21 68  1  0
 21 69  1  0
 22 70  1  0
 22 71  1  0
 22 72  1  0
 25 73  1  0
 28 74  1  0
 28 75  1  0
 29 76  1  0
 29 77  1  0
 30 78  1  0
 30 79  1  0
 31 80  1  0
 31 81  1  0
 32 82  1  0
 32 83  1  0
 33 84  1  0
 33 85  1  0
 34 86  1  0
 34 87  1  0
 35 88  1  0
 35 89  1  0
 36 90  1  0
 36 91  1  0
 37 92  1  0
 37 93  1  0
 38 94  1  0
 38 95  1  0
 39 96  1  0
 39 97  1  0
 39 98  1  0
M  END
> <Uni-Dock RESULT> 
ENERGY=   -5.219  LOWER_BOUND=    5.920  UPPER_BOUND=   10.228
INTER + INTRA:          -5.219
INTER:                  -5.219
INTRA:                   0.000
UNBOUND:                 0.000

$$$$

     RDKit          3D

 98 97  0  0  0  0  0  0  0  0999 V2000
   53.5560    7.4887    7.7480 C   0  0  0  0  0  0  0  0  0  0  0  0
   53.5437    8.4860    6.6346 N   0  0  0  0  0  0  0  0  0  0  0  0
   52.8427    8.1265    8.9666 C   0  0  0  0  0  0  0  0  0  0  0  0
   52.1161    8.0070   11.3650 C   0  0  0  0  0  0  0  0  0  0  0  0
   50.9147    9.4652   13.4559 C   0  0  0  0  0  0  0  0  0  0  0  0
   52.7522    7.2491   10.2221 C   0  0  0  0  0  0  0  0  0  0  0  0
   52.8956    8.8008   12.2159 C   0  0  0  0  0  0  0  0  0  0  0  0
   50.7324    7.9493   11.5690 C   0  0  0  0  0  0  0  0  0  0  0  0
   52.3001    9.5215   13.2551 C   0  0  0  0  0  0  0  0  0  0  0  0
   50.1373    8.6685   12.6078 C   0  0  0  0  0  0  0  0  0  0  0  0
   55.0437    7.1913    8.0638 C   0  0  0  0  0  0  0  0  0  0  0  0
   52.8261    6.2148    7.2412 C   0  0  0  0  0  0  0  0  0  0  0  0
   53.0645    5.0759    8.0599 O   0  0  0  0  0  0  0  0  0  0  0  0
   55.7149    6.7678    6.8753 O   0  0  0  0  0  0  0  0  0  0  0  0
   50.2728   10.2299   14.5878 C   0  0  0  0  0  0  0  0  0  0  0  0
   50.2909    9.4281   15.8915 C   0  0  0  0  0  0  0  0  0  0  0  0
   47.3298    9.2676   19.7969 C   0  0  0  0  0  0  0  0  0  0  0  0
   47.8998   10.6696   19.5839 C   0  0  0  0  0  0  0  0  0  0  0  0
   49.7262   10.2046   17.0861 C   0  0  0  0  0  0  0  0  0  0  0  0
   48.2098   10.4073   17.0144 C   0  0  0  0  0  0  0  0  0  0  0  0
   47.6459   11.2276   18.1806 C   0  0  0  0  0  0  0  0  0  0  0  0
   47.5203    8.8045   21.2347 C   0  0  0  0  0  0  0  0  0  0  0  0
   54.4427    6.5877    8.0900 S   0  0  0  0  0  0  0  0  0  0  0  0
   53.2872    7.6433    8.5182 O   0  0  0  0  0  0  0  0  0  0  0  0
   55.3983    7.4649    7.1354 O   0  0  0  0  0  0  0  0  0  0  0  0
   55.2027    6.2193    9.2619 O   0  0  0  0  0  0  0  0  0  0  0  0
   53.8532    5.6020    7.2113 O   0  0  0  0  0  0  0  0  0  0  0  0
   53.6834    8.8527    9.1450 C   0  0  0  0  0  0  0  0  0  0  0  0
   52.4771    9.4796    9.8386 C   0  0  0  0  0  0  0  0  0  0  0  0
   51.9704    8.6105   10.9953 C   0  0  0  0  0  0  0  0  0  0  0  0
   50.7916    9.2710   11.7130 C   0  0  0  0  0  0  0  0  0  0  0  0
   50.1774    8.4006   12.8149 C   0  0  0  0  0  0  0  0  0  0  0  0
   51.1303    8.1410   13.9839 C   0  0  0  0  0  0  0  0  0  0  0  0
   50.5065    7.3096   15.1108 C   0  0  0  0  0  0  0  0  0  0  0  0
   49.2688    7.9085   15.7901 C   0  0  0  0  0  0  0  0  0  0  0  0
   49.5157    9.2869   16.4086 C   0  0  0  0  0  0  0  0  0  0  0  0
   48.2731    9.8852   17.0773 C   0  0  0  0  0  0  0  0  0  0  0  0
   47.7244    9.1086   18.2760 C   0  0  0  0  0  0  0  0  0  0  0  0
   48.7183    8.9753   19.4189 C   0  0  0  0  0  0  0  0  0  0  0  0
   53.9561    9.3622    6.9655 H   0  0  0  0  0  0  0  0  0  0  0  0
   52.5744    8.7204    6.4074 H   0  0  0  0  0  0  0  0  0  0  0  0
   53.3550    9.0640    9.2256 H   0  0  0  0  0  0  0  0  0  0  0  0
   51.8233    8.4204    8.6741 H   0  0  0  0  0  0  0  0  0  0  0  0
   53.7445    6.9059   10.5356 H   0  0  0  0  0  0  0  0  0  0  0  0
   52.1572    6.3504   10.0268 H   0  0  0  0  0  0  0  0  0  0  0  0
   53.9732    8.8633   12.0786 H   0  0  0  0  0  0  0  0  0  0  0  0
   50.1067    7.3418   10.9186 H   0  0  0  0  0  0  0  0  0  0  0  0
   52.9248   10.1266   13.9084 H   0  0  0  0  0  0  0  0  0  0  0  0
   49.0620    8.6003   12.7519 H   0  0  0  0  0  0  0  0  0  0  0  0
   55.1664    6.4058    8.8141 H   0  0  0  0  0  0  0  0  0  0  0  0
   55.5571    8.0861    8.4327 H   0  0  0  0  0  0  0  0  0  0  0  0
   53.1387    5.9559    6.2217 H   0  0  0  0  0  0  0  0  0  0  0  0
   51.7429    6.3821    7.2098 H   0  0  0  0  0  0  0  0  0  0  0  0
   53.9420    4.7296    7.8011 H   0  0  0  0  0  0  0  0  0  0  0  0
   55.3586    7.3523    6.1739 H   0  0  0  0  0  0  0  0  0  0  0  0
   49.2470   10.4899   14.3042 H   0  0  0  0  0  0  0  0  0  0  0  0
   50.7976   11.1831   14.7225 H   0  0  0  0  0  0  0  0  0  0  0  0
   51.3258    9.1482   16.1277 H   0  0  0  0  0  0  0  0  0  0  0  0
   49.7395    8.4875   15.7657 H   0  0  0  0  0  0  0  0  0  0  0  0
   46.2596    9.2595   19.5536 H   0  0  0  0  0  0  0  0  0  0  0  0
   47.8232    8.5498   19.1320 H   0  0  0  0  0  0  0  0  0  0  0  0
   47.4438   11.3562   20.3085 H   0  0  0  0  0  0  0  0  0  0  0  0
   48.9738   10.6713   19.7982 H   0  0  0  0  0  0  0  0  0  0  0  0
   50.2306   11.1747   17.1685 H   0  0  0  0  0  0  0  0  0  0  0  0
   49.9736    9.6400   17.9931 H   0  0  0  0  0  0  0  0  0  0  0  0
   47.7080    9.4336   16.9663 H   0  0  0  0  0  0  0  0  0  0  0  0
   47.9495   10.9327   16.0879 H   0  0  0  0  0  0  0  0  0  0  0  0
   48.0602   12.2420   18.1307 H   0  0  0  0  0  0  0  0  0  0  0  0
   46.5641   11.3346   18.0352 H   0  0  0  0  0  0  0  0  0  0  0  0
   47.0063    9.4729   21.9335 H   0  0  0  0  0  0  0  0  0  0  0  0
   47.1135    7.7969   21.3658 H   0  0  0  0  0  0  0  0  0  0  0  0
   48.5827    8.7801   21.5018 H   0  0  0  0  0  0  0  0  0  0  0  0
   55.2735    7.1195    6.2244 H   0  0  0  0  0  0  0  0  0  0  0  0
   54.0593    9.5367    8.3756 H   0  0  0  0  0  0  0  0  0  0  0  0
   54.4833    8.6748    9.8740 H   0  0  0  0  0  0  0  0  0  0  0  0
   51.6666    9.6123    9.1118 H   0  0  0  0  0  0  0  0  0  0  0  0
   52.7541   10.4712   10.2147 H   0  0  0  0  0  0  0  0  0  0  0  0
   52.7932    8.4469   11.6993 H   0  0  0  0  0  0  0  0  0  0  0  0
   51.6635    7.6273   10.6180 H   0  0  0  0  0  0  0  0  0  0  0  0
   51.1049   10.2325   12.1383 H   0  0  0  0  0  0  0  0  0  0  0  0
   50.0069    9.4917   10.9790 H   0  0  0  0  0  0  0  0  0  0  0  0
   49.2793    8.9141   13.1774 H   0  0  0  0  0  0  0  0  0  0  0  0
   49.8474    7.4456   12.3887 H   0  0  0  0  0  0  0  0  0  0  0  0
   51.5071    9.0905   14.3805 H   0  0  0  0  0  0  0  0  0  0  0  0
   52.0085    7.5933   13.6235 H   0  0  0  0  0  0  0  0  0  0  0  0
   51.2755    7.1395   15.8751 H   0  0  0  0  0  0  0  0  0  0  0  0
   50.2396    6.3205   14.7153 H   0  0  0  0  0  0  0  0  0  0  0  0
   48.4402    7.9657   15.0758 H   0  0  0  0  0  0  0  0  0  0  0  0
   48.9514    7.2066   16.5696 H   0  0  0  0  0  0  0  0  0  0  0  0
   49.8291    9.9876   15.6272 H   0  0  0  0  0  0  0  0  0  0  0  0
   50.3421    9.2301   17.1252 H   0  0  0  0  0  0  0  0  0  0  0  0
   47.4766    9.9771   16.3286 H   0  0  0  0  0  0  0  0  0  0  0  0
   48.5126   10.9070   17.3989 H   0  0  0  0  0  0  0  0  0  0  0  0
   47.3851    8.1134   17.9682 H   0  0  0  0  0  0  0  0  0  0  0  0
   46.8382    9.6353   18.6498 H   0  0  0  0  0  0  0  0  0  0  0  0
   49.5616    8.3357   19.1461 H   0  0  0  0  0  0  0  0  0  0  0  0
   49.1111    9.9521   19.7186 H   0  0  0  0  0  0  0  0  0  0  0  0
   48.2323    8.5271   20.2906 H   0  0  0  0  0  0  0  0  0  0  0  0
  1  2  1  0
  1  3  1  0
  3  6  1  0
  4  6  1  0
  4  7  2  0
  4  8  1  0
  5  9  2  0
  7  9  1  0
  5 10  1  0
  8 10  2  0
  1 11  1  0
  1 12  1  0
 12 13  1  0
 11 14  1  0
  5 15  1  0
 15 16  1  0
 17 18  1  0
 16 19  1  0
 19 20  1  0
 18 21  1  0
 20 21  1  0
 17 22  1  0
 23 24  1  0
 23 25  1  0
 23 26  2  0
 23 27  2  0
 24 28  1  0
 28 29  1  0
 29 30  1  0
 30 31  1  0
 31 32  1  0
 32 33  1  0
 33 34  1  0
 34 35  1  0
 35 36  1  0
 36 37  1  0
 37 38  1  0
 38 39  1  0
  2 40  1  0
  2 41  1  0
  3 42  1  0
  3 43  1  0
  6 44  1  0
  6 45  1  0
  7 46  1  0
  8 47  1  0
  9 48  1  0
 10 49  1  0
 11 50  1  0
 11 51  1  0
 12 52  1  0
 12 53  1  0
 13 54  1  0
 14 55  1  0
 15 56  1  0
 15 57  1  0
 16 58  1  0
 16 59  1  0
 17 60  1  0
 17 61  1  0
 18 62  1  0
 18 63  1  0
 19 64  1  0
 19 65  1  0
 20 66  1  0
 20 67  1  0
 21 68  1  0
 21 69  1  0
 22 70  1  0
 22 71  1  0
 22 72  1  0
 25 73  1  0
 28 74  1  0
 28 75  1  0
 29 76  1  0
 29 77  1  0
 30 78  1  0
 30 79  1  0
 31 80  1  0
 31 81  1  0
 32 82  1  0
 32 83  1  0
 33 84  1  0
 33 85  1  0
 34 86  1  0
 34 87  1  0
 35 88  1  0
 35 89  1  0
 36 90  1  0
 36 91  1  0
 37 92  1  0
 37 93  1  0
 38 94  1  0
 38 95  1  0
 39 96  1  0
 39 97  1  0
 39 98  1  0
M  END
> <Uni-Dock RESULT> 
ENERGY=   -5.070  LOWER_BOUND=    5.850  UPPER_BOUND=    8.240
INTER + INTRA:          -5.070
INTER:                  -5.070
INTRA:                   0.000
UNBOUND:                 0.000

$$$$

     RDKit          3D

 98 97  0  0  0  0  0  0  0  0999 V2000
   49.2108    4.0923   17.8989 C   0  0  0  0  0  0  0  0  0  0  0  0
   50.5397    3.5610   18.3303 N   0  0  0  0  0  0  0  0  0  0  0  0
   49.4619    5.2429   16.8921 C   0  0  0  0  0  0  0  0  0  0  0  0
   48.5789    7.0802   15.4296 C   0  0  0  0  0  0  0  0  0  0  0  0
   49.3309    9.2187   13.7552 C   0  0  0  0  0  0  0  0  0  0  0  0
   48.2073    5.9232   16.3288 C   0  0  0  0  0  0  0  0  0  0  0  0
   48.7921    8.3579   15.9625 C   0  0  0  0  0  0  0  0  0  0  0  0
   48.7449    6.8822   14.0538 C   0  0  0  0  0  0  0  0  0  0  0  0
   49.1620    9.4193   15.1316 C   0  0  0  0  0  0  0  0  0  0  0  0
   49.1134    7.9427   13.2232 C   0  0  0  0  0  0  0  0  0  0  0  0
   48.5022    4.6112   19.1756 C   0  0  0  0  0  0  0  0  0  0  0  0
   48.4229    2.9156   17.2608 C   0  0  0  0  0  0  0  0  0  0  0  0
   47.0330    3.1876   17.1245 O   0  0  0  0  0  0  0  0  0  0  0  0
   48.4405    3.5692   20.1517 O   0  0  0  0  0  0  0  0  0  0  0  0
   49.7141   10.3676   12.8548 C   0  0  0  0  0  0  0  0  0  0  0  0
   48.4851   11.1499   12.3850 C   0  0  0  0  0  0  0  0  0  0  0  0
   47.4594   13.7078    8.3290 C   0  0  0  0  0  0  0  0  0  0  0  0
   48.6761   14.2778    9.0575 C   0  0  0  0  0  0  0  0  0  0  0  0
   48.8380   12.3777   11.5383 C   0  0  0  0  0  0  0  0  0  0  0  0
   49.3730   12.0212   10.1483 C   0  0  0  0  0  0  0  0  0  0  0  0
   49.7759   13.2438    9.3152 C   0  0  0  0  0  0  0  0  0  0  0  0
   46.4448   14.7968    8.0088 C   0  0  0  0  0  0  0  0  0  0  0  0
   48.0802    4.2195   18.5474 S   0  0  0  0  0  0  0  0  0  0  0  0
   49.1078    4.7573   17.4126 O   0  0  0  0  0  0  0  0  0  0  0  0
   49.0320    4.0175   19.8308 O   0  0  0  0  0  0  0  0  0  0  0  0
   47.1316    5.2637   18.8577 O   0  0  0  0  0  0  0  0  0  0  0  0
   47.6650    2.8823   18.1858 O   0  0  0  0  0  0  0  0  0  0  0  0
   49.8629    5.9254   17.6918 C   0  0  0  0  0  0  0  0  0  0  0  0
   50.4140    6.4931   16.3868 C   0  0  0  0  0  0  0  0  0  0  0  0
   49.2945    6.9866   15.4630 C   0  0  0  0  0  0  0  0  0  0  0  0
   49.8605    7.5968   14.1792 C   0  0  0  0  0  0  0  0  0  0  0  0
   48.7843    8.0153   13.1714 C   0  0  0  0  0  0  0  0  0  0  0  0
   47.8929    9.1530   13.6742 C   0  0  0  0  0  0  0  0  0  0  0  0
   46.8439    9.6076   12.6528 C   0  0  0  0  0  0  0  0  0  0  0  0
   47.3823   10.1429   11.3203 C   0  0  0  0  0  0  0  0  0  0  0  0
   48.3242   11.3397   11.4761 C   0  0  0  0  0  0  0  0  0  0  0  0
   48.8671   11.8644   10.1422 C   0  0  0  0  0  0  0  0  0  0  0  0
   47.8232   12.4238    9.1735 C   0  0  0  0  0  0  0  0  0  0  0  0
   47.0464   13.6044    9.7344 C   0  0  0  0  0  0  0  0  0  0  0  0
   51.1077    4.3324   18.6903 H   0  0  0  0  0  0  0  0  0  0  0  0
   51.0461    3.2220   17.5089 H   0  0  0  0  0  0  0  0  0  0  0  0
   50.0914    6.0041   17.3747 H   0  0  0  0  0  0  0  0  0  0  0  0
   50.0577    4.8608   16.0495 H   0  0  0  0  0  0  0  0  0  0  0  0
   47.5649    6.2952   17.1348 H   0  0  0  0  0  0  0  0  0  0  0  0
   47.6056    5.2131   15.7512 H   0  0  0  0  0  0  0  0  0  0  0  0
   48.6702    8.5384   17.0285 H   0  0  0  0  0  0  0  0  0  0  0  0
   48.5876    5.8977   13.6182 H   0  0  0  0  0  0  0  0  0  0  0  0
   49.3163   10.4049   15.5650 H   0  0  0  0  0  0  0  0  0  0  0  0
   49.2271    7.7662   12.1566 H   0  0  0  0  0  0  0  0  0  0  0  0
   47.4805    4.9488   18.9829 H   0  0  0  0  0  0  0  0  0  0  0  0
   49.0505    5.4491   19.6203 H   0  0  0  0  0  0  0  0  0  0  0  0
   48.5199    2.0008   17.8589 H   0  0  0  0  0  0  0  0  0  0  0  0
   48.8175    2.6879   16.2634 H   0  0  0  0  0  0  0  0  0  0  0  0
   46.6350    3.0348   18.0048 H   0  0  0  0  0  0  0  0  0  0  0  0
   49.3133    3.1275   20.0908 H   0  0  0  0  0  0  0  0  0  0  0  0
   50.2774    9.9768   12.0003 H   0  0  0  0  0  0  0  0  0  0  0  0
   50.4032   11.0314   13.3902 H   0  0  0  0  0  0  0  0  0  0  0  0
   47.9204   11.4934   13.2615 H   0  0  0  0  0  0  0  0  0  0  0  0
   47.8096   10.4926   11.8228 H   0  0  0  0  0  0  0  0  0  0  0  0
   47.7764   13.2238    7.3964 H   0  0  0  0  0  0  0  0  0  0  0  0
   46.9686   12.9453    8.9443 H   0  0  0  0  0  0  0  0  0  0  0  0
   49.1077   15.0877    8.4557 H   0  0  0  0  0  0  0  0  0  0  0  0
   48.3638   14.7348   10.0025 H   0  0  0  0  0  0  0  0  0  0  0  0
   49.5670   12.9985   12.0727 H   0  0  0  0  0  0  0  0  0  0  0  0
   47.9266   12.9783   11.4325 H   0  0  0  0  0  0  0  0  0  0  0  0
   48.6269   11.4292    9.6051 H   0  0  0  0  0  0  0  0  0  0  0  0
   50.2596   11.3835   10.2447 H   0  0  0  0  0  0  0  0  0  0  0  0
   50.6153   13.7467    9.8107 H   0  0  0  0  0  0  0  0  0  0  0  0
   50.1605   12.8916    8.3503 H   0  0  0  0  0  0  0  0  0  0  0  0
   46.8826   15.5619    7.3589 H   0  0  0  0  0  0  0  0  0  0  0  0
   45.5783   14.3689    7.4949 H   0  0  0  0  0  0  0  0  0  0  0  0
   46.0912   15.2852    8.9236 H   0  0  0  0  0  0  0  0  0  0  0  0
   49.1033    3.0484   19.9740 H   0  0  0  0  0  0  0  0  0  0  0  0
   50.6940    5.6530   18.3522 H   0  0  0  0  0  0  0  0  0  0  0  0
   49.2484    6.6798   18.1980 H   0  0  0  0  0  0  0  0  0  0  0  0
   50.9893    5.7182   15.8660 H   0  0  0  0  0  0  0  0  0  0  0  0
   51.0970    7.3197   16.6146 H   0  0  0  0  0  0  0  0  0  0  0  0
   48.6977    7.7315   16.0001 H   0  0  0  0  0  0  0  0  0  0  0  0
   48.6260    6.1552   15.2081 H   0  0  0  0  0  0  0  0  0  0  0  0
   50.4896    8.4619   14.4229 H   0  0  0  0  0  0  0  0  0  0  0  0
   50.5120    6.8604   13.6927 H   0  0  0  0  0  0  0  0  0  0  0  0
   49.2964    8.3253   12.2531 H   0  0  0  0  0  0  0  0  0  0  0  0
   48.1650    7.1479   12.9128 H   0  0  0  0  0  0  0  0  0  0  0  0
   48.5087   10.0041   13.9860 H   0  0  0  0  0  0  0  0  0  0  0  0
   47.3536    8.8248   14.5701 H   0  0  0  0  0  0  0  0  0  0  0  0
   46.2295   10.3882   13.1192 H   0  0  0  0  0  0  0  0  0  0  0  0
   46.1686    8.7680   12.4409 H   0  0  0  0  0  0  0  0  0  0  0  0
   47.8890    9.3414   10.7718 H   0  0  0  0  0  0  0  0  0  0  0  0
   46.5186   10.4310   10.7103 H   0  0  0  0  0  0  0  0  0  0  0  0
   49.1883   11.0485   12.0828 H   0  0  0  0  0  0  0  0  0  0  0  0
   47.8173   12.1428   12.0217 H   0  0  0  0  0  0  0  0  0  0  0  0
   49.4114   11.0562    9.6381 H   0  0  0  0  0  0  0  0  0  0  0  0
   49.6064   12.6474   10.3547 H   0  0  0  0  0  0  0  0  0  0  0  0
   47.1239   11.6390    8.8647 H   0  0  0  0  0  0  0  0  0  0  0  0
   48.3402   12.7524    8.2640 H   0  0  0  0  0  0  0  0  0  0  0  0
   46.3982   13.3030   10.5613 H   0  0  0  0  0  0  0  0  0  0  0  0
   47.7208   14.3876   10.0945 H   0  0  0  0  0  0  0  0  0  0  0  0
   46.4103   14.0400    8.9580 H   0  0  0  0  0  0  0  0  0  0  0  0
  1  2  1  0
  1  3  1  0
  3  6  1  0
  4  6  1  0
  4  7  2  0
  4  8  1  0
  5  9  2  0
  7  9  1  0
  5 10  1  0
  8 10  2  0
  1 11  1  0
  1 12  1  0
 12 13  1  0
 11 14  1  0
  5 15  1  0
 15 16  1  0
 17 18  1  0
 16 19  1  0
 19 20  1  0
 18 21  1  0
 20 21  1  0
 17 22  1  0
 23 24  1  0
 23 25  1  0
 23 26  2  0
 23 27  2  0
 24 28  1  0
 28 29  1  0
 29 30  1  0
 30 31  1  0
 31 32  1  0
 32 33  1  0
 33 34  1  0
 34 35  1  0
 35 36  1  0
 36 37  1  0
 37 38  1  0
 38 39  1  0
  2 40  1  0
  2 41  1  0
  3 42  1  0
  3 43  1  0
  6 44  1  0
  6 45  1  0
  7 46  1  0
  8 47  1  0
  9 48  1  0
 10 49  1  0
 11 50  1  0
 11 51  1  0
 12 52  1  0
 12 53  1  0
 13 54  1  0
 14 55  1  0
 15 56  1  0
 15 57  1  0
 16 58  1  0
 16 59  1  0
 17 60  1  0
 17 61  1  0
 18 62  1  0
 18 63  1  0
 19 64  1  0
 19 65  1  0
 20 66  1  0
 20 67  1  0
 21 68  1  0
 21 69  1  0
 22 70  1  0
 22 71  1  0
 22 72  1  0
 25 73  1  0
 28 74  1  0
 28 75  1  0
 29 76  1  0
 29 77  1  0
 30 78  1  0
 30 79  1  0
 31 80  1  0
 31 81  1  0
 32 82  1  0
 32 83  1  0
 33 84  1  0
 33 85  1  0
 34 86  1  0
 34 87  1  0
 35 88  1  0
 35 89  1  0
 36 90  1  0
 36 91  1  0
 37 92  1  0
 37 93  1  0
 38 94  1  0
 38 95  1  0
 39 96  1  0
 39 97  1  0
 39 98  1  0
M  END
> <Uni-Dock RESULT> 
ENERGY=   -5.015  LOWER_BOUND=    4.767  UPPER_BOUND=    6.324
INTER + INTRA:          -5.015
INTER:                  -5.015
INTRA:                   0.000
UNBOUND:                 0.000

$$$$

     RDKit          3D

 98 97  0  0  0  0  0  0  0  0999 V2000
   44.1824    5.3974   12.0636 C   0  0  0  0  0  0  0  0  0  0  0  0
   42.7806    5.8629   12.2927 N   0  0  0  0  0  0  0  0  0  0  0  0
   45.1405    6.5126   12.5527 C   0  0  0  0  0  0  0  0  0  0  0  0
   47.4670    7.4098   12.8293 C   0  0  0  0  0  0  0  0  0  0  0  0
   48.9595    9.6543   13.6517 C   0  0  0  0  0  0  0  0  0  0  0  0
   46.6389    6.2199   12.4006 C   0  0  0  0  0  0  0  0  0  0  0  0
   47.7750    8.4294   11.9198 C   0  0  0  0  0  0  0  0  0  0  0  0
   47.9117    7.5228   14.1518 C   0  0  0  0  0  0  0  0  0  0  0  0
   48.5180    9.5413   12.3269 C   0  0  0  0  0  0  0  0  0  0  0  0
   48.6550    8.6329   14.5586 C   0  0  0  0  0  0  0  0  0  0  0  0
   44.3305    5.1622   10.5391 C   0  0  0  0  0  0  0  0  0  0  0  0
   44.3696    4.0740   12.8547 C   0  0  0  0  0  0  0  0  0  0  0  0
   45.5255    3.3472   12.4548 O   0  0  0  0  0  0  0  0  0  0  0  0
   43.3198    4.2576   10.0891 O   0  0  0  0  0  0  0  0  0  0  0  0
   49.7759   10.8463   14.0882 C   0  0  0  0  0  0  0  0  0  0  0  0
   51.2684   10.6354   13.8217 C   0  0  0  0  0  0  0  0  0  0  0  0
   55.3490   12.2353   16.0206 C   0  0  0  0  0  0  0  0  0  0  0  0
   54.4911   13.3967   15.5195 C   0  0  0  0  0  0  0  0  0  0  0  0
   52.1231   11.8587   14.1710 C   0  0  0  0  0  0  0  0  0  0  0  0
   52.2374   12.1071   15.6780 C   0  0  0  0  0  0  0  0  0  0  0  0
   53.0487   13.3589   16.0324 C   0  0  0  0  0  0  0  0  0  0  0  0
   56.7948   12.3774   15.5651 C   0  0  0  0  0  0  0  0  0  0  0  0
   44.7022    4.6575   11.1164 S   0  0  0  0  0  0  0  0  0  0  0  0
   44.8573    5.8641   12.1902 O   0  0  0  0  0  0  0  0  0  0  0  0
   43.3251    5.0182   10.3632 O   0  0  0  0  0  0  0  0  0  0  0  0
   45.7729    4.7450   10.1507 O   0  0  0  0  0  0  0  0  0  0  0  0
   44.4146    3.4397   11.8414 O   0  0  0  0  0  0  0  0  0  0  0  0
   44.8614    7.1970   11.7043 C   0  0  0  0  0  0  0  0  0  0  0  0
   45.4374    8.1213   12.7734 C   0  0  0  0  0  0  0  0  0  0  0  0
   46.9155    7.8218   13.0486 C   0  0  0  0  0  0  0  0  0  0  0  0
   47.4947    8.7849   14.0868 C   0  0  0  0  0  0  0  0  0  0  0  0
   48.9427    8.4688   14.4776 C   0  0  0  0  0  0  0  0  0  0  0  0
   49.9334    8.6428   13.3244 C   0  0  0  0  0  0  0  0  0  0  0  0
   51.3895    8.3729   13.7206 C   0  0  0  0  0  0  0  0  0  0  0  0
   51.9694    9.2679   14.8228 C   0  0  0  0  0  0  0  0  0  0  0  0
   51.9232   10.7609   14.4878 C   0  0  0  0  0  0  0  0  0  0  0  0
   52.4947   11.6514   15.5967 C   0  0  0  0  0  0  0  0  0  0  0  0
   53.9802   11.4558   15.9069 C   0  0  0  0  0  0  0  0  0  0  0  0
   54.8892   11.7324   14.7198 C   0  0  0  0  0  0  0  0  0  0  0  0
   42.6513    6.7715   11.8399 H   0  0  0  0  0  0  0  0  0  0  0  0
   42.6482    6.0448   13.2905 H   0  0  0  0  0  0  0  0  0  0  0  0
   44.9046    7.4423   12.0156 H   0  0  0  0  0  0  0  0  0  0  0  0
   44.9341    6.7256   13.6125 H   0  0  0  0  0  0  0  0  0  0  0  0
   46.8889    5.9719   11.3629 H   0  0  0  0  0  0  0  0  0  0  0  0
   46.9304    5.3562   13.0080 H   0  0  0  0  0  0  0  0  0  0  0  0
   47.4409    8.3662   10.8862 H   0  0  0  0  0  0  0  0  0  0  0  0
   47.6818    6.7444   14.8765 H   0  0  0  0  0  0  0  0  0  0  0  0
   48.7516   10.3186   11.6028 H   0  0  0  0  0  0  0  0  0  0  0  0
   48.9970    8.6936   15.5887 H   0  0  0  0  0  0  0  0  0  0  0  0
   45.3016    4.7380   10.2705 H   0  0  0  0  0  0  0  0  0  0  0  0
   44.2105    6.0970    9.9803 H   0  0  0  0  0  0  0  0  0  0  0  0
   43.5056    3.4094   12.7290 H   0  0  0  0  0  0  0  0  0  0  0  0
   44.4600    4.2800   13.9280 H   0  0  0  0  0  0  0  0  0  0  0  0
   45.2826    2.8737   11.6341 H   0  0  0  0  0  0  0  0  0  0  0  0
   42.5144    4.5319   10.5755 H   0  0  0  0  0  0  0  0  0  0  0  0
   49.5925   11.0323   15.1522 H   0  0  0  0  0  0  0  0  0  0  0  0
   49.4200   11.7397   13.5616 H   0  0  0  0  0  0  0  0  0  0  0  0
   51.4159   10.4117   12.7571 H   0  0  0  0  0  0  0  0  0  0  0  0
   51.6317    9.7587   14.3729 H   0  0  0  0  0  0  0  0  0  0  0  0
   55.3180   12.1951   17.1170 H   0  0  0  0  0  0  0  0  0  0  0  0
   54.9583   11.2826   15.6458 H   0  0  0  0  0  0  0  0  0  0  0  0
   54.9416   14.3426   15.8461 H   0  0  0  0  0  0  0  0  0  0  0  0
   54.4981   13.4191   14.4245 H   0  0  0  0  0  0  0  0  0  0  0  0
   51.7168   12.7479   13.6743 H   0  0  0  0  0  0  0  0  0  0  0  0
   53.1237   11.6917   13.7547 H   0  0  0  0  0  0  0  0  0  0  0  0
   52.6754   11.2283   16.1658 H   0  0  0  0  0  0  0  0  0  0  0  0
   51.2374   12.2313   16.1100 H   0  0  0  0  0  0  0  0  0  0  0  0
   52.5213   14.2409   15.6489 H   0  0  0  0  0  0  0  0  0  0  0  0
   53.0609   13.4639   17.1241 H   0  0  0  0  0  0  0  0  0  0  0  0
   57.2394   13.2998   15.9533 H   0  0  0  0  0  0  0  0  0  0  0  0
   57.3911   11.5338   15.9265 H   0  0  0  0  0  0  0  0  0  0  0  0
   56.8616   12.3979   14.4717 H   0  0  0  0  0  0  0  0  0  0  0  0
   42.6688    4.3446   10.6465 H   0  0  0  0  0  0  0  0  0  0  0  0
   43.8287    7.4906   11.4846 H   0  0  0  0  0  0  0  0  0  0  0  0
   45.4504    7.2784   10.7826 H   0  0  0  0  0  0  0  0  0  0  0  0
   44.8706    8.0001   13.7044 H   0  0  0  0  0  0  0  0  0  0  0  0
   45.3253    9.1618   12.4472 H   0  0  0  0  0  0  0  0  0  0  0  0
   47.4723    7.9049   12.1092 H   0  0  0  0  0  0  0  0  0  0  0  0
   47.0283    6.7905   13.4046 H   0  0  0  0  0  0  0  0  0  0  0  0
   47.4328    9.8154   13.7155 H   0  0  0  0  0  0  0  0  0  0  0  0
   46.8813    8.7397   14.9950 H   0  0  0  0  0  0  0  0  0  0  0  0
   49.2143    9.1380   15.3023 H   0  0  0  0  0  0  0  0  0  0  0  0
   49.0041    7.4449   14.8656 H   0  0  0  0  0  0  0  0  0  0  0  0
   49.8396    9.6469   12.8956 H   0  0  0  0  0  0  0  0  0  0  0  0
   49.6809    7.9444   12.5184 H   0  0  0  0  0  0  0  0  0  0  0  0
   52.0124    8.4776   12.8231 H   0  0  0  0  0  0  0  0  0  0  0  0
   51.4815    7.3264   14.0404 H   0  0  0  0  0  0  0  0  0  0  0  0
   51.4476    9.0837   15.7682 H   0  0  0  0  0  0  0  0  0  0  0  0
   53.0085    8.9584   14.9829 H   0  0  0  0  0  0  0  0  0  0  0  0
   50.8837   11.0688   14.3319 H   0  0  0  0  0  0  0  0  0  0  0  0
   52.4475   10.9464   13.5441 H   0  0  0  0  0  0  0  0  0  0  0  0
   51.9223   11.4832   16.5173 H   0  0  0  0  0  0  0  0  0  0  0  0
   52.3278   12.6998   15.3177 H   0  0  0  0  0  0  0  0  0  0  0  0
   54.1658   10.4433   16.2819 H   0  0  0  0  0  0  0  0  0  0  0  0
   54.2547   12.1409   16.7179 H   0  0  0  0  0  0  0  0  0  0  0  0
   54.7586   10.9872   13.9310 H   0  0  0  0  0  0  0  0  0  0  0  0
   54.6946   12.7216   14.2935 H   0  0  0  0  0  0  0  0  0  0  0  0
   55.9372   11.7019   15.0327 H   0  0  0  0  0  0  0  0  0  0  0  0
  1  2  1  0
  1  3  1  0
  3  6  1  0
  4  6  1  0
  4  7  2  0
  4  8  1  0
  5  9  2  0
  7  9  1  0
  5 10  1  0
  8 10  2  0
  1 11  1  0
  1 12  1  0
 12 13  1  0
 11 14  1  0
  5 15  1  0
 15 16  1  0
 17 18  1  0
 16 19  1  0
 19 20  1  0
 18 21  1  0
 20 21  1  0
 17 22  1  0
 23 24  1  0
 23 25  1  0
 23 26  2  0
 23 27  2  0
 24 28  1  0
 28 29  1  0
 29 30  1  0
 30 31  1  0
 31 32  1  0
 32 33  1  0
 33 34  1  0
 34 35  1  0
 35 36  1  0
 36 37  1  0
 37 38  1  0
 38 39  1  0
  2 40  1  0
  2 41  1  0
  3 42  1  0
  3 43  1  0
  6 44  1  0
  6 45  1  0
  7 46  1  0
  8 47  1  0
  9 48  1  0
 10 49  1  0
 11 50  1  0
 11 51  1  0
 12 52  1  0
 12 53  1  0
 13 54  1  0
 14 55  1  0
 15 56  1  0
 15 57  1  0
 16 58  1  0
 16 59  1  0
 17 60  1  0
 17 61  1  0
 18 62  1  0
 18 63  1  0
 19 64  1  0
 19 65  1  0
 20 66  1  0
 20 67  1  0
 21 68  1  0
 21 69  1  0
 22 70  1  0
 22 71  1  0
 22 72  1  0
 25 73  1  0
 28 74  1  0
 28 75  1  0
 29 76  1  0
 29 77  1  0
 30 78  1  0
 30 79  1  0
 31 80  1  0
 31 81  1  0
 32 82  1  0
 32 83  1  0
 33 84  1  0
 33 85  1  0
 34 86  1  0
 34 87  1  0
 35 88  1  0
 35 89  1  0
 36 90  1  0
 36 91  1  0
 37 92  1  0
 37 93  1  0
 38 94  1  0
 38 95  1  0
 39 96  1  0
 39 97  1  0
 39 98  1  0
M  END
> <Uni-Dock RESULT> 
ENERGY=   -4.865  LOWER_BOUND=    1.575  UPPER_BOUND=    2.369
INTER + INTRA:          -4.865
INTER:                  -4.865
INTRA:                   0.000
UNBOUND:                 0.000

$$$$

     RDKit          3D

 98 97  0  0  0  0  0  0  0  0999 V2000
   39.7400   15.0211    7.7750 C   0  0  0  0  0  0  0  0  0  0  0  0
   38.6216   14.4848    6.9409 N   0  0  0  0  0  0  0  0  0  0  0  0
   40.5225   13.8157    8.3542 C   0  0  0  0  0  0  0  0  0  0  0  0
   42.3483   12.9135    9.8194 C   0  0  0  0  0  0  0  0  0  0  0  0
   43.4829   10.5480   10.8486 C   0  0  0  0  0  0  0  0  0  0  0  0
   41.7209   14.1640    9.2468 C   0  0  0  0  0  0  0  0  0  0  0  0
   41.8714   12.3588   11.0138 C   0  0  0  0  0  0  0  0  0  0  0  0
   43.3962   12.2753    9.1455 C   0  0  0  0  0  0  0  0  0  0  0  0
   42.4362   11.1873   11.5260 C   0  0  0  0  0  0  0  0  0  0  0  0
   43.9615   11.1054    9.6575 C   0  0  0  0  0  0  0  0  0  0  0  0
   39.0911   15.8609    8.9042 C   0  0  0  0  0  0  0  0  0  0  0  0
   40.6239   15.9076    6.8557 C   0  0  0  0  0  0  0  0  0  0  0  0
   41.5113   16.7491    7.5828 O   0  0  0  0  0  0  0  0  0  0  0  0
   38.2386   16.8575    8.3364 O   0  0  0  0  0  0  0  0  0  0  0  0
   44.1045    9.2923   11.4093 C   0  0  0  0  0  0  0  0  0  0  0  0
   45.2174    9.6126   12.4102 C   0  0  0  0  0  0  0  0  0  0  0  0
   49.3390    7.3056   13.7279 C   0  0  0  0  0  0  0  0  0  0  0  0
   48.1061    6.4398   13.9855 C   0  0  0  0  0  0  0  0  0  0  0  0
   45.8158    8.3644   13.0681 C   0  0  0  0  0  0  0  0  0  0  0  0
   46.6647    7.5230   12.1104 C   0  0  0  0  0  0  0  0  0  0  0  0
   47.2241    6.2462   12.7487 C   0  0  0  0  0  0  0  0  0  0  0  0
   50.2307    7.3805   14.9597 C   0  0  0  0  0  0  0  0  0  0  0  0
   39.8201   16.0901    8.5270 S   0  0  0  0  0  0  0  0  0  0  0  0
   40.2471   14.5520    8.2357 O   0  0  0  0  0  0  0  0  0  0  0  0
   38.2155   16.0514    8.3948 O   0  0  0  0  0  0  0  0  0  0  0  0
   40.1453   16.4188    9.8956 O   0  0  0  0  0  0  0  0  0  0  0  0
   40.2595   16.9013    7.4134 O   0  0  0  0  0  0  0  0  0  0  0  0
   39.6807   13.5345    9.0458 C   0  0  0  0  0  0  0  0  0  0  0  0
   40.5110   12.2613    8.9096 C   0  0  0  0  0  0  0  0  0  0  0  0
   41.9252   12.4408    9.4735 C   0  0  0  0  0  0  0  0  0  0  0  0
   42.7325   11.1449    9.3750 C   0  0  0  0  0  0  0  0  0  0  0  0
   44.1885   11.2920    9.8305 C   0  0  0  0  0  0  0  0  0  0  0  0
   44.3278   11.6172   11.3194 C   0  0  0  0  0  0  0  0  0  0  0  0
   45.7827   11.7200   11.7913 C   0  0  0  0  0  0  0  0  0  0  0  0
   46.6408   10.4601   11.6231 C   0  0  0  0  0  0  0  0  0  0  0  0
   46.0782    9.2341   12.3469 C   0  0  0  0  0  0  0  0  0  0  0  0
   46.9342    7.9754   12.1672 C   0  0  0  0  0  0  0  0  0  0  0  0
   48.3493    8.0460   12.7449 C   0  0  0  0  0  0  0  0  0  0  0  0
   48.3805    8.2905   14.2452 C   0  0  0  0  0  0  0  0  0  0  0  0
   38.0629   13.8392    7.5051 H   0  0  0  0  0  0  0  0  0  0  0  0
   39.0112   13.9092    6.1905 H   0  0  0  0  0  0  0  0  0  0  0  0
   39.8272   13.1839    8.9250 H   0  0  0  0  0  0  0  0  0  0  0  0
   40.8784   13.1854    7.5253 H   0  0  0  0  0  0  0  0  0  0  0  0
   41.4202   14.8177   10.0732 H   0  0  0  0  0  0  0  0  0  0  0  0
   42.4840   14.7075    8.6792 H   0  0  0  0  0  0  0  0  0  0  0  0
   41.0575   12.8348   11.5569 H   0  0  0  0  0  0  0  0  0  0  0  0
   43.7808   12.6864    8.2144 H   0  0  0  0  0  0  0  0  0  0  0  0
   42.0552   10.7770   12.4585 H   0  0  0  0  0  0  0  0  0  0  0  0
   44.7806   10.6332    9.1209 H   0  0  0  0  0  0  0  0  0  0  0  0
   39.8300   16.3702    9.5284 H   0  0  0  0  0  0  0  0  0  0  0  0
   38.4767   15.2348    9.5606 H   0  0  0  0  0  0  0  0  0  0  0  0
   40.0099   16.5546    6.2166 H   0  0  0  0  0  0  0  0  0  0  0  0
   41.2290   15.2820    6.1887 H   0  0  0  0  0  0  0  0  0  0  0  0
   40.9808   17.5136    7.8842 H   0  0  0  0  0  0  0  0  0  0  0  0
   37.7859   16.3981    7.5985 H   0  0  0  0  0  0  0  0  0  0  0  0
   44.4876    8.6852   10.5817 H   0  0  0  0  0  0  0  0  0  0  0  0
   43.3261    8.6878   11.8897 H   0  0  0  0  0  0  0  0  0  0  0  0
   44.8137   10.2539   13.2045 H   0  0  0  0  0  0  0  0  0  0  0  0
   46.0114   10.1919   11.9217 H   0  0  0  0  0  0  0  0  0  0  0  0
   49.9151    6.8936   12.8895 H   0  0  0  0  0  0  0  0  0  0  0  0
   49.0401    8.3232   13.4525 H   0  0  0  0  0  0  0  0  0  0  0  0
   48.4290    5.4488   14.3292 H   0  0  0  0  0  0  0  0  0  0  0  0
   47.5154    6.8671   14.8028 H   0  0  0  0  0  0  0  0  0  0  0  0
   45.0137    7.7509   13.4955 H   0  0  0  0  0  0  0  0  0  0  0  0
   46.4396    8.6998   13.9054 H   0  0  0  0  0  0  0  0  0  0  0  0
   47.4853    8.1311   11.7116 H   0  0  0  0  0  0  0  0  0  0  0  0
   46.0598    7.2204   11.2475 H   0  0  0  0  0  0  0  0  0  0  0  0
   46.3867    5.5914   13.0193 H   0  0  0  0  0  0  0  0  0  0  0  0
   47.7992    5.7042   11.9881 H   0  0  0  0  0  0  0  0  0  0  0  0
   50.5875    6.3857   15.2467 H   0  0  0  0  0  0  0  0  0  0  0  0
   51.1031    8.0102   14.7588 H   0  0  0  0  0  0  0  0  0  0  0  0
   49.6897    7.8097   15.8104 H   0  0  0  0  0  0  0  0  0  0  0  0
   37.9924   16.5419    7.5735 H   0  0  0  0  0  0  0  0  0  0  0  0
   38.6583   13.3433    8.7006 H   0  0  0  0  0  0  0  0  0  0  0  0
   39.6411   13.8446   10.0972 H   0  0  0  0  0  0  0  0  0  0  0  0
   40.5827   11.9841    7.8510 H   0  0  0  0  0  0  0  0  0  0  0  0
   40.0042   11.4438    9.4353 H   0  0  0  0  0  0  0  0  0  0  0  0
   41.8496   12.7562   10.5196 H   0  0  0  0  0  0  0  0  0  0  0  0
   42.4466   13.2378    8.9294 H   0  0  0  0  0  0  0  0  0  0  0  0
   42.2443   10.3556    9.9599 H   0  0  0  0  0  0  0  0  0  0  0  0
   42.7367   10.8070    8.3314 H   0  0  0  0  0  0  0  0  0  0  0  0
   44.6993   10.3476    9.6093 H   0  0  0  0  0  0  0  0  0  0  0  0
   44.6839   12.0685    9.2352 H   0  0  0  0  0  0  0  0  0  0  0  0
   43.7888   10.8751   11.9190 H   0  0  0  0  0  0  0  0  0  0  0  0
   43.8493   12.5809   11.5282 H   0  0  0  0  0  0  0  0  0  0  0  0
   45.7782   11.9994   12.8526 H   0  0  0  0  0  0  0  0  0  0  0  0
   46.2712   12.5454   11.2565 H   0  0  0  0  0  0  0  0  0  0  0  0
   46.7712   10.2350   10.5590 H   0  0  0  0  0  0  0  0  0  0  0  0
   47.6398   10.6903   12.0107 H   0  0  0  0  0  0  0  0  0  0  0  0
   45.0815    9.0037   11.9554 H   0  0  0  0  0  0  0  0  0  0  0  0
   45.9503    9.4573   13.4116 H   0  0  0  0  0  0  0  0  0  0  0  0
   47.0066    7.7453   11.0971 H   0  0  0  0  0  0  0  0  0  0  0  0
   46.4067    7.1307   12.6288 H   0  0  0  0  0  0  0  0  0  0  0  0
   48.9356    8.8189   12.2359 H   0  0  0  0  0  0  0  0  0  0  0  0
   48.8514    7.0927   12.5407 H   0  0  0  0  0  0  0  0  0  0  0  0
   48.0207    9.2913   14.4973 H   0  0  0  0  0  0  0  0  0  0  0  0
   47.7647    7.5597   14.7789 H   0  0  0  0  0  0  0  0  0  0  0  0
   49.4048    8.2037   14.6199 H   0  0  0  0  0  0  0  0  0  0  0  0
  1  2  1  0
  1  3  1  0
  3  6  1  0
  4  6  1  0
  4  7  2  0
  4  8  1  0
  5  9  2  0
  7  9  1  0
  5 10  1  0
  8 10  2  0
  1 11  1  0
  1 12  1  0
 12 13  1  0
 11 14  1  0
  5 15  1  0
 15 16  1  0
 17 18  1  0
 16 19  1  0
 19 20  1  0
 18 21  1  0
 20 21  1  0
 17 22  1  0
 23 24  1  0
 23 25  1  0
 23 26  2  0
 23 27  2  0
 24 28  1  0
 28 29  1  0
 29 30  1  0
 30 31  1  0
 31 32  1  0
 32 33  1  0
 33 34  1  0
 34 35  1  0
 35 36  1  0
 36 37  1  0
 37 38  1  0
 38 39  1  0
  2 40  1  0
  2 41  1  0
  3 42  1  0
  3 43  1  0
  6 44  1  0
  6 45  1  0
  7 46  1  0
  8 47  1  0
  9 48  1  0
 10 49  1  0
 11 50  1  0
 11 51  1  0
 12 52  1  0
 12 53  1  0
 13 54  1  0
 14 55  1  0
 15 56  1  0
 15 57  1  0
 16 58  1  0
 16 59  1  0
 17 60  1  0
 17 61  1  0
 18 62  1  0
 18 63  1  0
 19 64  1  0
 19 65  1  0
 20 66  1  0
 20 67  1  0
 21 68  1  0
 21 69  1  0
 22 70  1  0
 22 71  1  0
 22 72  1  0
 25 73  1  0
 28 74  1  0
 28 75  1  0
 29 76  1  0
 29 77  1  0
 30 78  1  0
 30 79  1  0
 31 80  1  0
 31 81  1  0
 32 82  1  0
 32 83  1  0
 33 84  1  0
 33 85  1  0
 34 86  1  0
 34 87  1  0
 35 88  1  0
 35 89  1  0
 36 90  1  0
 36 91  1  0
 37 92  1  0
 37 93  1  0
 38 94  1  0
 38 95  1  0
 39 96  1  0
 39 97  1  0
 39 98  1  0
M  END
> <Uni-Dock RESULT> 
ENERGY=   -4.796  LOWER_BOUND=    7.414  UPPER_BOUND=    9.277
INTER + INTRA:          -4.796
INTER:                  -4.796
INTRA:                   0.000
UNBOUND:                 0.000

$$$$

     RDKit          3D

 98 97  0  0  0  0  0  0  0  0999 V2000
   52.7942    7.0224   17.4386 C   0  0  0  0  0  0  0  0  0  0  0  0
   52.5356    6.3580   18.7523 N   0  0  0  0  0  0  0  0  0  0  0  0
   51.4244    7.3458   16.7906 C   0  0  0  0  0  0  0  0  0  0  0  0
   50.0904    8.2221   14.8549 C   0  0  0  0  0  0  0  0  0  0  0  0
   47.4771    8.5492   13.8522 C   0  0  0  0  0  0  0  0  0  0  0  0
   51.4795    8.0377   15.4223 C   0  0  0  0  0  0  0  0  0  0  0  0
   49.4887    7.2088   14.0981 C   0  0  0  0  0  0  0  0  0  0  0  0
   49.3744    9.3987   15.1053 C   0  0  0  0  0  0  0  0  0  0  0  0
   48.1936    7.3723   13.5980 C   0  0  0  0  0  0  0  0  0  0  0  0
   48.0810    9.5628   14.6049 C   0  0  0  0  0  0  0  0  0  0  0  0
   53.5952    6.0127   16.5782 C   0  0  0  0  0  0  0  0  0  0  0  0
   53.6274    8.3028   17.7195 C   0  0  0  0  0  0  0  0  0  0  0  0
   54.2336    8.8383   16.5489 O   0  0  0  0  0  0  0  0  0  0  0  0
   54.7698    5.6032   17.2818 O   0  0  0  0  0  0  0  0  0  0  0  0
   46.0852    8.7335   13.2987 C   0  0  0  0  0  0  0  0  0  0  0  0
   46.1142    9.2980   11.8763 C   0  0  0  0  0  0  0  0  0  0  0  0
   43.0579   12.1509    9.3139 C   0  0  0  0  0  0  0  0  0  0  0  0
   42.3730   10.8617    9.7665 C   0  0  0  0  0  0  0  0  0  0  0  0
   44.7225    9.4185   11.2457 C   0  0  0  0  0  0  0  0  0  0  0  0
   43.8698   10.5281   11.8679 C   0  0  0  0  0  0  0  0  0  0  0  0
   42.4583   10.6201   11.2763 C   0  0  0  0  0  0  0  0  0  0  0  0
   42.8553   12.3926    7.8244 C   0  0  0  0  0  0  0  0  0  0  0  0
   53.7476    6.8509   16.5574 S   0  0  0  0  0  0  0  0  0  0  0  0
   52.2034    7.2218   16.8903 O   0  0  0  0  0  0  0  0  0  0  0  0
   53.9758    5.4830   17.3764 O   0  0  0  0  0  0  0  0  0  0  0  0
   53.8676    6.5510   15.1495 O   0  0  0  0  0  0  0  0  0  0  0  0
   54.5980    7.8177   17.2157 O   0  0  0  0  0  0  0  0  0  0  0  0
   51.2039    6.2606   16.5907 C   0  0  0  0  0  0  0  0  0  0  0  0
   49.8392    6.9434   16.5668 C   0  0  0  0  0  0  0  0  0  0  0  0
   49.7312    7.9600   15.4244 C   0  0  0  0  0  0  0  0  0  0  0  0
   48.3437    8.6032   15.3809 C   0  0  0  0  0  0  0  0  0  0  0  0
   48.2093    9.7030   14.3218 C   0  0  0  0  0  0  0  0  0  0  0  0
   48.3419    9.1835   12.8885 C   0  0  0  0  0  0  0  0  0  0  0  0
   48.1623   10.2708   11.8228 C   0  0  0  0  0  0  0  0  0  0  0  0
   46.8099   10.9939   11.8129 C   0  0  0  0  0  0  0  0  0  0  0  0
   45.6148   10.0562   11.6234 C   0  0  0  0  0  0  0  0  0  0  0  0
   44.2652   10.7827   11.6243 C   0  0  0  0  0  0  0  0  0  0  0  0
   44.0486   11.7840   10.4878 C   0  0  0  0  0  0  0  0  0  0  0  0
   44.1175   11.1560    9.1048 C   0  0  0  0  0  0  0  0  0  0  0  0
   51.9272    5.5486   18.6042 H   0  0  0  0  0  0  0  0  0  0  0  0
   51.9927    6.9906   19.3451 H   0  0  0  0  0  0  0  0  0  0  0  0
   50.8502    6.4134   16.6935 H   0  0  0  0  0  0  0  0  0  0  0  0
   50.8418    7.9789   17.4767 H   0  0  0  0  0  0  0  0  0  0  0  0
   52.0768    7.4568   14.7105 H   0  0  0  0  0  0  0  0  0  0  0  0
   51.9561    9.0207   15.5021 H   0  0  0  0  0  0  0  0  0  0  0  0
   50.0233    6.2844   13.8895 H   0  0  0  0  0  0  0  0  0  0  0  0
   49.8206   10.1980   15.6933 H   0  0  0  0  0  0  0  0  0  0  0  0
   47.7475    6.5755   13.0070 H   0  0  0  0  0  0  0  0  0  0  0  0
   47.5485   10.4892   14.8048 H   0  0  0  0  0  0  0  0  0  0  0  0
   53.9100    6.4327   15.6193 H   0  0  0  0  0  0  0  0  0  0  0  0
   53.0044    5.1140   16.3692 H   0  0  0  0  0  0  0  0  0  0  0  0
   54.4294    8.1054   18.4419 H   0  0  0  0  0  0  0  0  0  0  0  0
   52.9924    9.0844   18.1534 H   0  0  0  0  0  0  0  0  0  0  0  0
   55.0337    8.3007   16.3828 H   0  0  0  0  0  0  0  0  0  0  0  0
   54.4716    5.4931   18.2088 H   0  0  0  0  0  0  0  0  0  0  0  0
   45.5210    9.3922   13.9681 H   0  0  0  0  0  0  0  0  0  0  0  0
   45.5608    7.7707   13.3131 H   0  0  0  0  0  0  0  0  0  0  0  0
   46.7190    8.6391   11.2397 H   0  0  0  0  0  0  0  0  0  0  0  0
   46.6123   10.2759   11.8667 H   0  0  0  0  0  0  0  0  0  0  0  0
   42.6561   13.0035    9.8761 H   0  0  0  0  0  0  0  0  0  0  0  0
   44.1340   12.1025    9.5151 H   0  0  0  0  0  0  0  0  0  0  0  0
   41.3118   10.9030    9.4900 H   0  0  0  0  0  0  0  0  0  0  0  0
   42.7946   10.0070    9.2268 H   0  0  0  0  0  0  0  0  0  0  0  0
   44.1990    8.4578   11.3186 H   0  0  0  0  0  0  0  0  0  0  0  0
   44.8612    9.6242   10.1775 H   0  0  0  0  0  0  0  0  0  0  0  0
   44.3820   11.4918   11.7625 H   0  0  0  0  0  0  0  0  0  0  0  0
   43.7631   10.3536   12.9451 H   0  0  0  0  0  0  0  0  0  0  0  0
   41.9170    9.6953   11.5104 H   0  0  0  0  0  0  0  0  0  0  0  0
   41.9204   11.4249   11.7921 H   0  0  0  0  0  0  0  0  0  0  0  0
   41.7913   12.4891    7.5839 H   0  0  0  0  0  0  0  0  0  0  0  0
   43.3586   13.3148    7.5177 H   0  0  0  0  0  0  0  0  0  0  0  0
   43.2671   11.5671    7.2332 H   0  0  0  0  0  0  0  0  0  0  0  0
   54.5831    5.7007   18.1171 H   0  0  0  0  0  0  0  0  0  0  0  0
   51.2148    5.4919   17.3717 H   0  0  0  0  0  0  0  0  0  0  0  0
   51.3980    5.7787   15.6247 H   0  0  0  0  0  0  0  0  0  0  0  0
   49.6731    7.4602   17.5197 H   0  0  0  0  0  0  0  0  0  0  0  0
   49.0582    6.1818   16.4593 H   0  0  0  0  0  0  0  0  0  0  0  0
   49.9367    7.4489   14.4778 H   0  0  0  0  0  0  0  0  0  0  0  0
   50.4919    8.7410   15.5453 H   0  0  0  0  0  0  0  0  0  0  0  0
   47.5809    7.8339   15.2081 H   0  0  0  0  0  0  0  0  0  0  0  0
   48.1270    9.0478   16.3600 H   0  0  0  0  0  0  0  0  0  0  0  0
   47.2269   10.1704   14.4560 H   0  0  0  0  0  0  0  0  0  0  0  0
   48.9596   10.4821   14.5029 H   0  0  0  0  0  0  0  0  0  0  0  0
   47.6316    8.3668   12.7168 H   0  0  0  0  0  0  0  0  0  0  0  0
   49.3395    8.7520   12.7480 H   0  0  0  0  0  0  0  0  0  0  0  0
   48.3198    9.8127   10.8381 H   0  0  0  0  0  0  0  0  0  0  0  0
   48.9550   11.0209   11.9450 H   0  0  0  0  0  0  0  0  0  0  0  0
   46.6863   11.5699   12.7365 H   0  0  0  0  0  0  0  0  0  0  0  0
   46.8363   11.7263   10.9980 H   0  0  0  0  0  0  0  0  0  0  0  0
   45.5883    9.3276   12.4408 H   0  0  0  0  0  0  0  0  0  0  0  0
   45.7360    9.4819   10.6986 H   0  0  0  0  0  0  0  0  0  0  0  0
   44.1464   11.3095   12.5791 H   0  0  0  0  0  0  0  0  0  0  0  0
   43.4678   10.0293   11.5872 H   0  0  0  0  0  0  0  0  0  0  0  0
   44.7715   12.6045   10.5536 H   0  0  0  0  0  0  0  0  0  0  0  0
   43.0569   12.2352   10.6122 H   0  0  0  0  0  0  0  0  0  0  0  0
   45.1283   10.8138    8.8683 H   0  0  0  0  0  0  0  0  0  0  0  0
   43.4378   10.3020    9.0228 H   0  0  0  0  0  0  0  0  0  0  0  0
   43.8303   11.8879    8.3439 H   0  0  0  0  0  0  0  0  0  0  0  0
  1  2  1  0
  1  3  1  0
  3  6  1  0
  4  6  1  0
  4  7  2  0
  4  8  1  0
  5  9  2  0
  7  9  1  0
  5 10  1  0
  8 10  2  0
  1 11  1  0
  1 12  1  0
 12 13  1  0
 11 14  1  0
  5 15  1  0
 15 16  1  0
 17 18  1  0
 16 19  1  0
 19 20  1  0
 18 21  1  0
 20 21  1  0
 17 22  1  0
 23 24  1  0
 23 25  1  0
 23 26  2  0
 23 27  2  0
 24 28  1  0
 28 29  1  0
 29 30  1  0
 30 31  1  0
 31 32  1  0
 32 33  1  0
 33 34  1  0
 34 35  1  0
 35 36  1  0
 36 37  1  0
 37 38  1  0
 38 39  1  0
  2 40  1  0
  2 41  1  0
  3 42  1  0
  3 43  1  0
  6 44  1  0
  6 45  1  0
  7 46  1  0
  8 47  1  0
  9 48  1  0
 10 49  1  0
 11 50  1  0
 11 51  1  0
 12 52  1  0
 12 53  1  0
 13 54  1  0
 14 55  1  0
 15 56  1  0
 15 57  1  0
 16 58  1  0
 16 59  1  0
 17 60  1  0
 17 61  1  0
 18 62  1  0
 18 63  1  0
 19 64  1  0
 19 65  1  0
 20 66  1  0
 20 67  1  0
 21 68  1  0
 21 69  1  0
 22 70  1  0
 22 71  1  0
 22 72  1  0
 25 73  1  0
 28 74  1  0
 28 75  1  0
 29 76  1  0
 29 77  1  0
 30 78  1  0
 30 79  1  0
 31 80  1  0
 31 81  1  0
 32 82  1  0
 32 83  1  0
 33 84  1  0
 33 85  1  0
 34 86  1  0
 34 87  1  0
 35 88  1  0
 35 89  1  0
 36 90  1  0
 36 91  1  0
 37 92  1  0
 37 93  1  0
 38 94  1  0
 38 95  1  0
 39 96  1  0
 39 97  1  0
 39 98  1  0
M  END
> <Uni-Dock RESULT> 
ENERGY=   -4.636  LOWER_BOUND=    5.984  UPPER_BOUND=    8.855
INTER + INTRA:          -4.636
INTER:                  -4.636
INTRA:                   0.000
UNBOUND:                 0.000

$$$$
