
     RDKit          3D

 98 97  0  0  0  0  0  0  0  0999 V2000
   51.4086   13.5405   16.8415 C   0  0  0  0  0  0  0  0  0  0  0  0
   51.1334   15.0065   16.7714 N   0  0  0  0  0  0  0  0  0  0  0  0
   50.0882   12.7693   17.1121 C   0  0  0  0  0  0  0  0  0  0  0  0
   49.0488   11.5199   15.1391 C   0  0  0  0  0  0  0  0  0  0  0  0
   49.0744    9.2021   13.5239 C   0  0  0  0  0  0  0  0  0  0  0  0
   49.0226   12.7609   16.0039 C   0  0  0  0  0  0  0  0  0  0  0  0
   48.8226   10.2537   15.6974 C   0  0  0  0  0  0  0  0  0  0  0  0
   49.2663   11.6138   13.7595 C   0  0  0  0  0  0  0  0  0  0  0  0
   48.8457    9.1064   14.9005 C   0  0  0  0  0  0  0  0  0  0  0  0
   49.2766   10.4681   12.9593 C   0  0  0  0  0  0  0  0  0  0  0  0
   52.3752   13.2611   18.0294 C   0  0  0  0  0  0  0  0  0  0  0  0
   52.0916   13.1376   15.5085 C   0  0  0  0  0  0  0  0  0  0  0  0
   51.5072   13.8480   14.4156 O   0  0  0  0  0  0  0  0  0  0  0  0
   53.4950   14.1478   18.0013 O   0  0  0  0  0  0  0  0  0  0  0  0
   49.0933    7.9688   12.6565 C   0  0  0  0  0  0  0  0  0  0  0  0
   47.7462    7.6529   11.9944 C   0  0  0  0  0  0  0  0  0  0  0  0
   43.0481    4.6912   11.7386 C   0  0  0  0  0  0  0  0  0  0  0  0
   44.0496    5.2701   10.7349 C   0  0  0  0  0  0  0  0  0  0  0  0
   46.7123    7.0925   12.9782 C   0  0  0  0  0  0  0  0  0  0  0  0
   45.3562    6.7708   12.3394 C   0  0  0  0  0  0  0  0  0  0  0  0
   45.4217    5.6458   11.3042 C   0  0  0  0  0  0  0  0  0  0  0  0
   43.5467    3.4343   12.4370 C   0  0  0  0  0  0  0  0  0  0  0  0
   48.2799   13.4606   13.7633 S   0  0  0  0  0  0  0  0  0  0  0  0
   48.3783   12.5213   15.0843 O   0  0  0  0  0  0  0  0  0  0  0  0
   49.3914   12.8249   12.7865 O   0  0  0  0  0  0  0  0  0  0  0  0
   46.9946   13.2548   13.1402 O   0  0  0  0  0  0  0  0  0  0  0  0
   48.7625   14.7869   14.0756 O   0  0  0  0  0  0  0  0  0  0  0  0
   49.3798   12.8124   16.0418 C   0  0  0  0  0  0  0  0  0  0  0  0
   49.4608   11.6902   17.0734 C   0  0  0  0  0  0  0  0  0  0  0  0
   50.2052   10.4430   16.5828 C   0  0  0  0  0  0  0  0  0  0  0  0
   49.4579    9.6410   15.5135 C   0  0  0  0  0  0  0  0  0  0  0  0
   50.2246    8.3632   15.1583 C   0  0  0  0  0  0  0  0  0  0  0  0
   49.5416    7.5340   14.0665 C   0  0  0  0  0  0  0  0  0  0  0  0
   48.2484    6.8668   14.5435 C   0  0  0  0  0  0  0  0  0  0  0  0
   47.6637    5.8912   13.5201 C   0  0  0  0  0  0  0  0  0  0  0  0
   47.2557    6.4804   12.1648 C   0  0  0  0  0  0  0  0  0  0  0  0
   46.0675    7.4469   12.2126 C   0  0  0  0  0  0  0  0  0  0  0  0
   46.4721    8.9164   12.3348 C   0  0  0  0  0  0  0  0  0  0  0  0
   45.2545    9.8269   12.2798 C   0  0  0  0  0  0  0  0  0  0  0  0
   52.0393   15.4753   16.9045 H   0  0  0  0  0  0  0  0  0  0  0  0
   50.6069   15.2808   17.6031 H   0  0  0  0  0  0  0  0  0  0  0  0
   49.6204   13.2151   18.0021 H   0  0  0  0  0  0  0  0  0  0  0  0
   50.3368   11.7429   17.4101 H   0  0  0  0  0  0  0  0  0  0  0  0
   48.0306   12.7896   16.4753 H   0  0  0  0  0  0  0  0  0  0  0  0
   49.0734   13.6684   15.3944 H   0  0  0  0  0  0  0  0  0  0  0  0
   48.6201   10.1512   16.7608 H   0  0  0  0  0  0  0  0  0  0  0  0
   49.4396   12.5843   13.2976 H   0  0  0  0  0  0  0  0  0  0  0  0
   48.6721    8.1356   15.3616 H   0  0  0  0  0  0  0  0  0  0  0  0
   49.4492   10.5727   11.8903 H   0  0  0  0  0  0  0  0  0  0  0  0
   51.8656   13.4292   18.9853 H   0  0  0  0  0  0  0  0  0  0  0  0
   52.7413   12.2269   18.0207 H   0  0  0  0  0  0  0  0  0  0  0  0
   52.0159   12.0628   15.3191 H   0  0  0  0  0  0  0  0  0  0  0  0
   53.1555   13.4000   15.5077 H   0  0  0  0  0  0  0  0  0  0  0  0
   51.1989   14.6870   14.8213 H   0  0  0  0  0  0  0  0  0  0  0  0
   54.1861   13.7397   17.4504 H   0  0  0  0  0  0  0  0  0  0  0  0
   49.8463    8.1144   11.8709 H   0  0  0  0  0  0  0  0  0  0  0  0
   49.4414    7.1075   13.2403 H   0  0  0  0  0  0  0  0  0  0  0  0
   47.9342    6.9086   11.2123 H   0  0  0  0  0  0  0  0  0  0  0  0
   47.3433    8.5439   11.4983 H   0  0  0  0  0  0  0  0  0  0  0  0
   42.7779    5.4416   12.4884 H   0  0  0  0  0  0  0  0  0  0  0  0
   42.1236    4.4499   11.1992 H   0  0  0  0  0  0  0  0  0  0  0  0
   44.2018    4.5390    9.9310 H   0  0  0  0  0  0  0  0  0  0  0  0
   43.6020    6.1557   10.2658 H   0  0  0  0  0  0  0  0  0  0  0  0
   46.5336    7.8209   13.7763 H   0  0  0  0  0  0  0  0  0  0  0  0
   47.1113    6.1902   13.4582 H   0  0  0  0  0  0  0  0  0  0  0  0
   44.6724    6.4888   13.1487 H   0  0  0  0  0  0  0  0  0  0  0  0
   44.9443    7.6751   11.8752 H   0  0  0  0  0  0  0  0  0  0  0  0
   46.0502    5.9609   10.4629 H   0  0  0  0  0  0  0  0  0  0  0  0
   45.9056    4.7637   11.7379 H   0  0  0  0  0  0  0  0  0  0  0  0
   42.7434    2.9939   13.0367 H   0  0  0  0  0  0  0  0  0  0  0  0
   44.3759    3.6586   13.1132 H   0  0  0  0  0  0  0  0  0  0  0  0
   43.8774    2.6849   11.7110 H   0  0  0  0  0  0  0  0  0  0  0  0
   49.8344   13.5715   12.3318 H   0  0  0  0  0  0  0  0  0  0  0  0
   50.3504   12.9538   15.5522 H   0  0  0  0  0  0  0  0  0  0  0  0
   49.1087   13.7447   16.5510 H   0  0  0  0  0  0  0  0  0  0  0  0
   48.4539   11.4089   17.4056 H   0  0  0  0  0  0  0  0  0  0  0  0
   50.0001   12.0736   17.9487 H   0  0  0  0  0  0  0  0  0  0  0  0
   51.1940   10.7319   16.2064 H   0  0  0  0  0  0  0  0  0  0  0  0
   50.3789    9.7941   17.4506 H   0  0  0  0  0  0  0  0  0  0  0  0
   49.3374   10.2411   14.6054 H   0  0  0  0  0  0  0  0  0  0  0  0
   48.4564    9.3940   15.8834 H   0  0  0  0  0  0  0  0  0  0  0  0
   50.3656    7.7480   16.0547 H   0  0  0  0  0  0  0  0  0  0  0  0
   51.2273    8.6372   14.8053 H   0  0  0  0  0  0  0  0  0  0  0  0
   49.3531    8.1701   13.1944 H   0  0  0  0  0  0  0  0  0  0  0  0
   50.2427    6.7546   13.7440 H   0  0  0  0  0  0  0  0  0  0  0  0
   47.4956    7.6138   14.8124 H   0  0  0  0  0  0  0  0  0  0  0  0
   48.4611    6.3025   15.4617 H   0  0  0  0  0  0  0  0  0  0  0  0
   48.4001    5.0980   13.3381 H   0  0  0  0  0  0  0  0  0  0  0  0
   46.7924    5.3972   13.9693 H   0  0  0  0  0  0  0  0  0  0  0  0
   48.1127    6.9388   11.6598 H   0  0  0  0  0  0  0  0  0  0  0  0
   46.9580    5.6315   11.5349 H   0  0  0  0  0  0  0  0  0  0  0  0
   45.3829    7.1729   13.0238 H   0  0  0  0  0  0  0  0  0  0  0  0
   45.5022    7.3304   11.2775 H   0  0  0  0  0  0  0  0  0  0  0  0
   47.0021    9.1001   13.2738 H   0  0  0  0  0  0  0  0  0  0  0  0
   47.1551    9.1842   11.5201 H   0  0  0  0  0  0  0  0  0  0  0  0
   45.5577   10.8722   12.3862 H   0  0  0  0  0  0  0  0  0  0  0  0
   44.5547    9.5937   13.0895 H   0  0  0  0  0  0  0  0  0  0  0  0
   44.7271    9.7214   11.3259 H   0  0  0  0  0  0  0  0  0  0  0  0
  1  2  1  0
  1  3  1  0
  3  6  1  0
  4  6  1  0
  4  7  2  0
  4  8  1  0
  5  9  2  0
  7  9  1  0
  5 10  1  0
  8 10  2  0
  1 11  1  0
  1 12  1  0
 12 13  1  0
 11 14  1  0
  5 15  1  0
 15 16  1  0
 17 18  1  0
 16 19  1  0
 19 20  1  0
 18 21  1  0
 20 21  1  0
 17 22  1  0
 23 24  1  0
 23 25  1  0
 23 26  2  0
 23 27  2  0
 24 28  1  0
 28 29  1  0
 29 30  1  0
 30 31  1  0
 31 32  1  0
 32 33  1  0
 33 34  1  0
 34 35  1  0
 35 36  1  0
 36 37  1  0
 37 38  1  0
 38 39  1  0
  2 40  1  0
  2 41  1  0
  3 42  1  0
  3 43  1  0
  6 44  1  0
  6 45  1  0
  7 46  1  0
  8 47  1  0
  9 48  1  0
 10 49  1  0
 11 50  1  0
 11 51  1  0
 12 52  1  0
 12 53  1  0
 13 54  1  0
 14 55  1  0
 15 56  1  0
 15 57  1  0
 16 58  1  0
 16 59  1  0
 17 60  1  0
 17 61  1  0
 18 62  1  0
 18 63  1  0
 19 64  1  0
 19 65  1  0
 20 66  1  0
 20 67  1  0
 21 68  1  0
 21 69  1  0
 22 70  1  0
 22 71  1  0
 22 72  1  0
 25 73  1  0
 28 74  1  0
 28 75  1  0
 29 76  1  0
 29 77  1  0
 30 78  1  0
 30 79  1  0
 31 80  1  0
 31 81  1  0
 32 82  1  0
 32 83  1  0
 33 84  1  0
 33 85  1  0
 34 86  1  0
 34 87  1  0
 35 88  1  0
 35 89  1  0
 36 90  1  0
 36 91  1  0
 37 92  1  0
 37 93  1  0
 38 94  1  0
 38 95  1  0
 39 96  1  0
 39 97  1  0
 39 98  1  0
M  END
> <Uni-Dock RESULT> 
ENERGY=   -5.200  LOWER_BOUND=    0.000  UPPER_BOUND=    0.000
INTER + INTRA:          -5.200
INTER:                  -5.200
INTRA:                   0.000
UNBOUND:                 0.000

$$$$

     RDKit          3D

 98 97  0  0  0  0  0  0  0  0999 V2000
   51.0951   17.5859   16.6675 C   0  0  0  0  0  0  0  0  0  0  0  0
   52.2215   18.4571   17.1169 N   0  0  0  0  0  0  0  0  0  0  0  0
   51.5060   16.0928   16.7831 C   0  0  0  0  0  0  0  0  0  0  0  0
   50.5109   14.7623   18.7257 C   0  0  0  0  0  0  0  0  0  0  0  0
   48.2834   13.3454   19.7317 C   0  0  0  0  0  0  0  0  0  0  0  0
   51.7113   15.5124   18.1919 C   0  0  0  0  0  0  0  0  0  0  0  0
   50.0277   13.6230   18.0663 C   0  0  0  0  0  0  0  0  0  0  0  0
   49.8791   15.1707   19.9062 C   0  0  0  0  0  0  0  0  0  0  0  0
   48.9197   12.9285   18.5580 C   0  0  0  0  0  0  0  0  0  0  0  0
   48.7788   14.4689   20.4060 C   0  0  0  0  0  0  0  0  0  0  0  0
   50.7902   17.8813   15.1699 C   0  0  0  0  0  0  0  0  0  0  0  0
   49.8600   17.9504   17.5321 C   0  0  0  0  0  0  0  0  0  0  0  0
   50.2558   18.2117   18.8796 O   0  0  0  0  0  0  0  0  0  0  0  0
   50.6797   19.2860   14.9344 O   0  0  0  0  0  0  0  0  0  0  0  0
   47.0917   12.5961   20.2722 C   0  0  0  0  0  0  0  0  0  0  0  0
   47.4461   11.5408   21.3275 C   0  0  0  0  0  0  0  0  0  0  0  0
   48.2673    6.2424   22.7976 C   0  0  0  0  0  0  0  0  0  0  0  0
   47.6275    7.4818   23.4300 C   0  0  0  0  0  0  0  0  0  0  0  0
   48.1104   10.2952   20.7290 C   0  0  0  0  0  0  0  0  0  0  0  0
   48.4760    9.2264   21.7655 C   0  0  0  0  0  0  0  0  0  0  0  0
   47.2599    8.6100   22.4604 C   0  0  0  0  0  0  0  0  0  0  0  0
   47.3977    5.5860   21.7350 C   0  0  0  0  0  0  0  0  0  0  0  0
   51.7322   15.8179   20.6348 S   0  0  0  0  0  0  0  0  0  0  0  0
   51.5768   15.0284   19.2243 O   0  0  0  0  0  0  0  0  0  0  0  0
   50.2197   16.2592   20.9685 O   0  0  0  0  0  0  0  0  0  0  0  0
   52.1382   14.8783   21.6522 O   0  0  0  0  0  0  0  0  0  0  0  0
   52.4500   17.0542   20.4208 O   0  0  0  0  0  0  0  0  0  0  0  0
   51.5398   15.7884   18.0303 C   0  0  0  0  0  0  0  0  0  0  0  0
   51.1549   14.8964   16.8529 C   0  0  0  0  0  0  0  0  0  0  0  0
   49.6568   14.5809   16.7716 C   0  0  0  0  0  0  0  0  0  0  0  0
   49.1478   13.6446   17.8713 C   0  0  0  0  0  0  0  0  0  0  0  0
   47.6703   13.3034   17.6532 C   0  0  0  0  0  0  0  0  0  0  0  0
   47.0940   12.3948   18.7433 C   0  0  0  0  0  0  0  0  0  0  0  0
   47.6416   10.9660   18.6818 C   0  0  0  0  0  0  0  0  0  0  0  0
   46.9338   10.0102   19.6444 C   0  0  0  0  0  0  0  0  0  0  0  0
   47.0323   10.3420   21.1379 C   0  0  0  0  0  0  0  0  0  0  0  0
   48.4374   10.2148   21.7360 C   0  0  0  0  0  0  0  0  0  0  0  0
   49.2227   11.5267   21.7511 C   0  0  0  0  0  0  0  0  0  0  0  0
   50.5667   11.3535   22.4426 C   0  0  0  0  0  0  0  0  0  0  0  0
   52.0285   19.3939   16.7382 H   0  0  0  0  0  0  0  0  0  0  0  0
   53.0697   18.1775   16.6204 H   0  0  0  0  0  0  0  0  0  0  0  0
   52.4566   15.9679   16.2442 H   0  0  0  0  0  0  0  0  0  0  0  0
   50.7837   15.4863   16.2222 H   0  0  0  0  0  0  0  0  0  0  0  0
   52.5370   14.7888   18.1527 H   0  0  0  0  0  0  0  0  0  0  0  0
   52.0417   16.2820   18.8964 H   0  0  0  0  0  0  0  0  0  0  0  0
   50.5161   13.2630   17.1641 H   0  0  0  0  0  0  0  0  0  0  0  0
   50.2357   16.0485   20.4424 H   0  0  0  0  0  0  0  0  0  0  0  0
   48.5627   12.0503   18.0226 H   0  0  0  0  0  0  0  0  0  0  0  0
   48.3081   14.8109   21.3252 H   0  0  0  0  0  0  0  0  0  0  0  0
   51.6071   17.5199   14.5343 H   0  0  0  0  0  0  0  0  0  0  0  0
   49.8653   17.3924   14.8393 H   0  0  0  0  0  0  0  0  0  0  0  0
   49.1084   17.1554   17.5268 H   0  0  0  0  0  0  0  0  0  0  0  0
   49.3761   18.8660   17.1742 H   0  0  0  0  0  0  0  0  0  0  0  0
   51.1749   18.5451   18.7920 H   0  0  0  0  0  0  0  0  0  0  0  0
   49.7536   19.5433   15.0884 H   0  0  0  0  0  0  0  0  0  0  0  0
   46.4036   13.3249   20.7203 H   0  0  0  0  0  0  0  0  0  0  0  0
   46.5345   12.1361   19.4465 H   0  0  0  0  0  0  0  0  0  0  0  0
   46.5125   11.2455   21.8194 H   0  0  0  0  0  0  0  0  0  0  0  0
   48.0928   11.9724   22.1007 H   0  0  0  0  0  0  0  0  0  0  0  0
   49.2430    6.4904   22.3676 H   0  0  0  0  0  0  0  0  0  0  0  0
   48.4597    5.5125   23.5939 H   0  0  0  0  0  0  0  0  0  0  0  0
   46.7161    7.1745   23.9579 H   0  0  0  0  0  0  0  0  0  0  0  0
   48.3092    7.8752   24.1950 H   0  0  0  0  0  0  0  0  0  0  0  0
   49.0341   10.5833   20.2160 H   0  0  0  0  0  0  0  0  0  0  0  0
   47.4521    9.8551   19.9697 H   0  0  0  0  0  0  0  0  0  0  0  0
   49.0392    8.4439   21.2435 H   0  0  0  0  0  0  0  0  0  0  0  0
   49.1502    9.6569   22.5160 H   0  0  0  0  0  0  0  0  0  0  0  0
   46.7403    9.3828   23.0390 H   0  0  0  0  0  0  0  0  0  0  0  0
   46.5437    8.2488   21.7141 H   0  0  0  0  0  0  0  0  0  0  0  0
   47.8437    4.6376   21.4178 H   0  0  0  0  0  0  0  0  0  0  0  0
   47.3086    6.2195   20.8484 H   0  0  0  0  0  0  0  0  0  0  0  0
   46.3949    5.3768   22.1204 H   0  0  0  0  0  0  0  0  0  0  0  0
   50.2617   17.1602   21.3516 H   0  0  0  0  0  0  0  0  0  0  0  0
   50.8341   16.6217   18.1266 H   0  0  0  0  0  0  0  0  0  0  0  0
   52.5404   16.1995   17.8527 H   0  0  0  0  0  0  0  0  0  0  0  0
   51.7252   13.9599   16.8859 H   0  0  0  0  0  0  0  0  0  0  0  0
   51.4331   15.4177   15.9283 H   0  0  0  0  0  0  0  0  0  0  0  0
   49.0848   15.5165   16.7868 H   0  0  0  0  0  0  0  0  0  0  0  0
   49.4656   14.1140   15.7970 H   0  0  0  0  0  0  0  0  0  0  0  0
   49.2568   14.1184   18.8524 H   0  0  0  0  0  0  0  0  0  0  0  0
   49.7532   12.7311   17.8747 H   0  0  0  0  0  0  0  0  0  0  0  0
   47.5337   12.8344   16.6718 H   0  0  0  0  0  0  0  0  0  0  0  0
   47.0892   14.2348   17.6392 H   0  0  0  0  0  0  0  0  0  0  0  0
   47.2840   12.8430   19.7250 H   0  0  0  0  0  0  0  0  0  0  0  0
   46.0051   12.3612   18.6162 H   0  0  0  0  0  0  0  0  0  0  0  0
   48.7191   10.9485   18.8710 H   0  0  0  0  0  0  0  0  0  0  0  0
   47.5036   10.5794   17.6628 H   0  0  0  0  0  0  0  0  0  0  0  0
   45.8708    9.9713   19.3741 H   0  0  0  0  0  0  0  0  0  0  0  0
   47.3248    8.9978   19.4790 H   0  0  0  0  0  0  0  0  0  0  0  0
   46.6036   11.3268   21.3524 H   0  0  0  0  0  0  0  0  0  0  0  0
   46.3913    9.6183   21.6590 H   0  0  0  0  0  0  0  0  0  0  0  0
   49.0072    9.4372   21.2140 H   0  0  0  0  0  0  0  0  0  0  0  0
   48.3302    9.8750   22.7756 H   0  0  0  0  0  0  0  0  0  0  0  0
   49.3985   11.8897   20.7344 H   0  0  0  0  0  0  0  0  0  0  0  0
   48.6483   12.2992   22.2757 H   0  0  0  0  0  0  0  0  0  0  0  0
   51.1236   12.2945   22.4298 H   0  0  0  0  0  0  0  0  0  0  0  0
   51.1727   10.5950   21.9357 H   0  0  0  0  0  0  0  0  0  0  0  0
   50.4357   11.0502   23.4867 H   0  0  0  0  0  0  0  0  0  0  0  0
  1  2  1  0
  1  3  1  0
  3  6  1  0
  4  6  1  0
  4  7  2  0
  4  8  1  0
  5  9  2  0
  7  9  1  0
  5 10  1  0
  8 10  2  0
  1 11  1  0
  1 12  1  0
 12 13  1  0
 11 14  1  0
  5 15  1  0
 15 16  1  0
 17 18  1  0
 16 19  1  0
 19 20  1  0
 18 21  1  0
 20 21  1  0
 17 22  1  0
 23 24  1  0
 23 25  1  0
 23 26  2  0
 23 27  2  0
 24 28  1  0
 28 29  1  0
 29 30  1  0
 30 31  1  0
 31 32  1  0
 32 33  1  0
 33 34  1  0
 34 35  1  0
 35 36  1  0
 36 37  1  0
 37 38  1  0
 38 39  1  0
  2 40  1  0
  2 41  1  0
  3 42  1  0
  3 43  1  0
  6 44  1  0
  6 45  1  0
  7 46  1  0
  8 47  1  0
  9 48  1  0
 10 49  1  0
 11 50  1  0
 11 51  1  0
 12 52  1  0
 12 53  1  0
 13 54  1  0
 14 55  1  0
 15 56  1  0
 15 57  1  0
 16 58  1  0
 16 59  1  0
 17 60  1  0
 17 61  1  0
 18 62  1  0
 18 63  1  0
 19 64  1  0
 19 65  1  0
 20 66  1  0
 20 67  1  0
 21 68  1  0
 21 69  1  0
 22 70  1  0
 22 71  1  0
 22 72  1  0
 25 73  1  0
 28 74  1  0
 28 75  1  0
 29 76  1  0
 29 77  1  0
 30 78  1  0
 30 79  1  0
 31 80  1  0
 31 81  1  0
 32 82  1  0
 32 83  1  0
 33 84  1  0
 33 85  1  0
 34 86  1  0
 34 87  1  0
 35 88  1  0
 35 89  1  0
 36 90  1  0
 36 91  1  0
 37 92  1  0
 37 93  1  0
 38 94  1  0
 38 95  1  0
 39 96  1  0
 39 97  1  0
 39 98  1  0
M  END
> <Uni-Dock RESULT> 
ENERGY=   -4.804  LOWER_BOUND=    6.051  UPPER_BOUND=    7.878
INTER + INTRA:          -4.804
INTER:                  -4.804
INTRA:                   0.000
UNBOUND:                 0.000

$$$$

     RDKit          3D

 98 97  0  0  0  0  0  0  0  0999 V2000
   50.9736   15.4106    8.4082 C   0  0  0  0  0  0  0  0  0  0  0  0
   52.3214   15.4864    7.7697 N   0  0  0  0  0  0  0  0  0  0  0  0
   50.2596   14.1008    7.9766 C   0  0  0  0  0  0  0  0  0  0  0  0
   50.1397   12.2210    9.7047 C   0  0  0  0  0  0  0  0  0  0  0  0
   48.8352   11.1765   11.9826 C   0  0  0  0  0  0  0  0  0  0  0  0
   50.8391   12.7688    8.4801 C   0  0  0  0  0  0  0  0  0  0  0  0
   48.7782   11.8882    9.6623 C   0  0  0  0  0  0  0  0  0  0  0  0
   50.8450   12.0042   10.8942 C   0  0  0  0  0  0  0  0  0  0  0  0
   48.1306   11.3816   10.7918 C   0  0  0  0  0  0  0  0  0  0  0  0
   50.2011   11.4852   12.0208 C   0  0  0  0  0  0  0  0  0  0  0  0
   50.1098   16.6083    7.9156 C   0  0  0  0  0  0  0  0  0  0  0  0
   51.1854   15.5169    9.9411 C   0  0  0  0  0  0  0  0  0  0  0  0
   52.3595   14.8030   10.3316 O   0  0  0  0  0  0  0  0  0  0  0  0
   50.8280   17.8388    8.0214 O   0  0  0  0  0  0  0  0  0  0  0  0
   48.1444   10.6230   13.2032 C   0  0  0  0  0  0  0  0  0  0  0  0
   48.2657    9.1010   13.3507 C   0  0  0  0  0  0  0  0  0  0  0  0
   46.0956    4.0013   12.9116 C   0  0  0  0  0  0  0  0  0  0  0  0
   47.0008    4.7393   13.9023 C   0  0  0  0  0  0  0  0  0  0  0  0
   47.3883    8.3314   12.3563 C   0  0  0  0  0  0  0  0  0  0  0  0
   47.4943    6.8072   12.4832 C   0  0  0  0  0  0  0  0  0  0  0  0
   46.9735    6.2690   13.8176 C   0  0  0  0  0  0  0  0  0  0  0  0
   44.6267    4.3802   13.0335 C   0  0  0  0  0  0  0  0  0  0  0  0
   52.5452   11.5421    9.7631 S   0  0  0  0  0  0  0  0  0  0  0  0
   51.0975   11.8279    9.0853 O   0  0  0  0  0  0  0  0  0  0  0  0
   52.3565   12.0992   11.2624 O   0  0  0  0  0  0  0  0  0  0  0  0
   52.7415   10.1155    9.8582 O   0  0  0  0  0  0  0  0  0  0  0  0
   53.5395   12.4014    9.1611 O   0  0  0  0  0  0  0  0  0  0  0  0
   50.8421   13.1209    8.5680 C   0  0  0  0  0  0  0  0  0  0  0  0
   49.3676   13.2549    8.1963 C   0  0  0  0  0  0  0  0  0  0  0  0
   48.4394   13.4835    9.3949 C   0  0  0  0  0  0  0  0  0  0  0  0
   48.2770   12.2661   10.3094 C   0  0  0  0  0  0  0  0  0  0  0  0
   47.2576   12.5509   11.4169 C   0  0  0  0  0  0  0  0  0  0  0  0
   47.0769   11.3788   12.3862 C   0  0  0  0  0  0  0  0  0  0  0  0
   46.3575   10.1846   11.7528 C   0  0  0  0  0  0  0  0  0  0  0  0
   46.0090    9.0893   12.7628 C   0  0  0  0  0  0  0  0  0  0  0  0
   47.1848    8.4248   13.4883 C   0  0  0  0  0  0  0  0  0  0  0  0
   48.1007    7.5812   12.5953 C   0  0  0  0  0  0  0  0  0  0  0  0
   49.3149    8.3426   12.0625 C   0  0  0  0  0  0  0  0  0  0  0  0
   50.2308    7.4258   11.2655 C   0  0  0  0  0  0  0  0  0  0  0  0
   52.6107   16.4719    7.8261 H   0  0  0  0  0  0  0  0  0  0  0  0
   52.2166   15.3335    6.7649 H   0  0  0  0  0  0  0  0  0  0  0  0
   50.2753   14.0613    6.8776 H   0  0  0  0  0  0  0  0  0  0  0  0
   49.1970   14.1782    8.2395 H   0  0  0  0  0  0  0  0  0  0  0  0
   50.7163   12.0155    7.6898 H   0  0  0  0  0  0  0  0  0  0  0  0
   51.9194   12.8386    8.6402 H   0  0  0  0  0  0  0  0  0  0  0  0
   48.2105   12.0162    8.7438 H   0  0  0  0  0  0  0  0  0  0  0  0
   51.9042   12.2484   10.9548 H   0  0  0  0  0  0  0  0  0  0  0  0
   47.0714   11.1369   10.7319 H   0  0  0  0  0  0  0  0  0  0  0  0
   50.7754   11.3285   12.9314 H   0  0  0  0  0  0  0  0  0  0  0  0
   49.8526   16.4851    6.8571 H   0  0  0  0  0  0  0  0  0  0  0  0
   49.1738   16.6941    8.4815 H   0  0  0  0  0  0  0  0  0  0  0  0
   50.3280   15.1302   10.4998 H   0  0  0  0  0  0  0  0  0  0  0  0
   51.3429   16.5554   10.2530 H   0  0  0  0  0  0  0  0  0  0  0  0
   52.9354   14.8499    9.5380 H   0  0  0  0  0  0  0  0  0  0  0  0
   50.6732   18.2000    8.9120 H   0  0  0  0  0  0  0  0  0  0  0  0
   48.5832   11.0988   14.0901 H   0  0  0  0  0  0  0  0  0  0  0  0
   47.0887   10.9220   13.2022 H   0  0  0  0  0  0  0  0  0  0  0  0
   47.9559    8.8468   14.3706 H   0  0  0  0  0  0  0  0  0  0  0  0
   49.3109    8.7867   13.2457 H   0  0  0  0  0  0  0  0  0  0  0  0
   46.4316    4.1714   11.8838 H   0  0  0  0  0  0  0  0  0  0  0  0
   46.1965    2.9239   13.0930 H   0  0  0  0  0  0  0  0  0  0  0  0
   46.7152    4.4484   14.9211 H   0  0  0  0  0  0  0  0  0  0  0  0
   48.0320    4.3912   13.7598 H   0  0  0  0  0  0  0  0  0  0  0  0
   47.6760    8.5955   11.3331 H   0  0  0  0  0  0  0  0  0  0  0  0
   46.3408    8.6343   12.4775 H   0  0  0  0  0  0  0  0  0  0  0  0
   46.9191    6.3698   11.6587 H   0  0  0  0  0  0  0  0  0  0  0  0
   48.5372    6.4979   12.3430 H   0  0  0  0  0  0  0  0  0  0  0  0
   47.5966    6.6534   14.6337 H   0  0  0  0  0  0  0  0  0  0  0  0
   45.9592    6.6399   14.0023 H   0  0  0  0  0  0  0  0  0  0  0  0
   44.0168    3.7287   12.3992 H   0  0  0  0  0  0  0  0  0  0  0  0
   44.4543    5.4097   12.7084 H   0  0  0  0  0  0  0  0  0  0  0  0
   44.2765    4.2735   14.0650 H   0  0  0  0  0  0  0  0  0  0  0  0
   53.1954   12.5396   11.5125 H   0  0  0  0  0  0  0  0  0  0  0  0
   51.1251   13.8894    9.2967 H   0  0  0  0  0  0  0  0  0  0  0  0
   51.4500   13.2570    7.6659 H   0  0  0  0  0  0  0  0  0  0  0  0
   49.0361   12.3695    7.6399 H   0  0  0  0  0  0  0  0  0  0  0  0
   49.2642   14.1197    7.5289 H   0  0  0  0  0  0  0  0  0  0  0  0
   48.7992   14.3400    9.9777 H   0  0  0  0  0  0  0  0  0  0  0  0
   47.4525   13.7637    9.0051 H   0  0  0  0  0  0  0  0  0  0  0  0
   49.2355   12.0102   10.7730 H   0  0  0  0  0  0  0  0  0  0  0  0
   47.9580   11.4058    9.7101 H   0  0  0  0  0  0  0  0  0  0  0  0
   46.2896   12.8182   10.9770 H   0  0  0  0  0  0  0  0  0  0  0  0
   47.5925   13.4241   11.9918 H   0  0  0  0  0  0  0  0  0  0  0  0
   48.0555   11.0806   12.7789 H   0  0  0  0  0  0  0  0  0  0  0  0
   46.4877   11.7330   13.2407 H   0  0  0  0  0  0  0  0  0  0  0  0
   46.9466    9.7580   10.9353 H   0  0  0  0  0  0  0  0  0  0  0  0
   45.4195   10.5368   11.3025 H   0  0  0  0  0  0  0  0  0  0  0  0
   45.3401    9.5173   13.5203 H   0  0  0  0  0  0  0  0  0  0  0  0
   45.4259    8.3146   12.2480 H   0  0  0  0  0  0  0  0  0  0  0  0
   47.7632    9.1600   14.0580 H   0  0  0  0  0  0  0  0  0  0  0  0
   46.7463    7.7484   14.2341 H   0  0  0  0  0  0  0  0  0  0  0  0
   47.5317    7.1455   11.7656 H   0  0  0  0  0  0  0  0  0  0  0  0
   48.4695    6.7372   13.1947 H   0  0  0  0  0  0  0  0  0  0  0  0
   49.0061    9.1713   11.4189 H   0  0  0  0  0  0  0  0  0  0  0  0
   49.8802    8.7741   12.8969 H   0  0  0  0  0  0  0  0  0  0  0  0
   51.0844    7.9877   10.8764 H   0  0  0  0  0  0  0  0  0  0  0  0
   49.6997    6.9855   10.4147 H   0  0  0  0  0  0  0  0  0  0  0  0
   50.6153    6.6133   11.8910 H   0  0  0  0  0  0  0  0  0  0  0  0
  1  2  1  0
  1  3  1  0
  3  6  1  0
  4  6  1  0
  4  7  2  0
  4  8  1  0
  5  9  2  0
  7  9  1  0
  5 10  1  0
  8 10  2  0
  1 11  1  0
  1 12  1  0
 12 13  1  0
 11 14  1  0
  5 15  1  0
 15 16  1  0
 17 18  1  0
 16 19  1  0
 19 20  1  0
 18 21  1  0
 20 21  1  0
 17 22  1  0
 23 24  1  0
 23 25  1  0
 23 26  2  0
 23 27  2  0
 24 28  1  0
 28 29  1  0
 29 30  1  0
 30 31  1  0
 31 32  1  0
 32 33  1  0
 33 34  1  0
 34 35  1  0
 35 36  1  0
 36 37  1  0
 37 38  1  0
 38 39  1  0
  2 40  1  0
  2 41  1  0
  3 42  1  0
  3 43  1  0
  6 44  1  0
  6 45  1  0
  7 46  1  0
  8 47  1  0
  9 48  1  0
 10 49  1  0
 11 50  1  0
 11 51  1  0
 12 52  1  0
 12 53  1  0
 13 54  1  0
 14 55  1  0
 15 56  1  0
 15 57  1  0
 16 58  1  0
 16 59  1  0
 17 60  1  0
 17 61  1  0
 18 62  1  0
 18 63  1  0
 19 64  1  0
 19 65  1  0
 20 66  1  0
 20 67  1  0
 21 68  1  0
 21 69  1  0
 22 70  1  0
 22 71  1  0
 22 72  1  0
 25 73  1  0
 28 74  1  0
 28 75  1  0
 29 76  1  0
 29 77  1  0
 30 78  1  0
 30 79  1  0
 31 80  1  0
 31 81  1  0
 32 82  1  0
 32 83  1  0
 33 84  1  0
 33 85  1  0
 34 86  1  0
 34 87  1  0
 35 88  1  0
 35 89  1  0
 36 90  1  0
 36 91  1  0
 37 92  1  0
 37 93  1  0
 38 94  1  0
 38 95  1  0
 39 96  1  0
 39 97  1  0
 39 98  1  0
M  END
> <Uni-Dock RESULT> 
ENERGY=   -4.512  LOWER_BOUND=    4.118  UPPER_BOUND=    5.904
INTER + INTRA:          -4.512
INTER:                  -4.512
INTRA:                   0.000
UNBOUND:                 0.000

$$$$

     RDKit          3D

 98 97  0  0  0  0  0  0  0  0999 V2000
   53.5203    9.1881   17.4924 C   0  0  0  0  0  0  0  0  0  0  0  0
   53.9550    8.6043   18.7962 N   0  0  0  0  0  0  0  0  0  0  0  0
   53.2985    8.0537   16.4553 C   0  0  0  0  0  0  0  0  0  0  0  0
   50.8785    7.4389   15.9076 C   0  0  0  0  0  0  0  0  0  0  0  0
   48.5464    8.0722   14.4441 C   0  0  0  0  0  0  0  0  0  0  0  0
   52.1255    7.0878   16.6890 C   0  0  0  0  0  0  0  0  0  0  0  0
   50.8948    7.4600   14.5057 C   0  0  0  0  0  0  0  0  0  0  0  0
   49.6757    7.7173   16.5673 C   0  0  0  0  0  0  0  0  0  0  0  0
   49.7443    7.7835   13.7822 C   0  0  0  0  0  0  0  0  0  0  0  0
   48.5209    8.0281   15.8441 C   0  0  0  0  0  0  0  0  0  0  0  0
   54.6469   10.1155   16.9499 C   0  0  0  0  0  0  0  0  0  0  0  0
   52.2439   10.0254   17.7673 C   0  0  0  0  0  0  0  0  0  0  0  0
   51.4171    9.3700   18.7304 O   0  0  0  0  0  0  0  0  0  0  0  0
   55.1055   11.0141   17.9614 O   0  0  0  0  0  0  0  0  0  0  0  0
   47.2989    8.4146   13.6695 C   0  0  0  0  0  0  0  0  0  0  0  0
   46.3830    7.2136   13.4018 C   0  0  0  0  0  0  0  0  0  0  0  0
   44.3937    3.3018    9.9887 C   0  0  0  0  0  0  0  0  0  0  0  0
   43.8257    4.2139   11.0800 C   0  0  0  0  0  0  0  0  0  0  0  0
   46.9349    6.2672   12.3292 C   0  0  0  0  0  0  0  0  0  0  0  0
   46.0371    5.0572   12.0456 C   0  0  0  0  0  0  0  0  0  0  0  0
   44.6817    5.4321   11.4423 C   0  0  0  0  0  0  0  0  0  0  0  0
   44.6449    4.0178    8.6695 C   0  0  0  0  0  0  0  0  0  0  0  0
   50.2172    6.3530   18.0603 S   0  0  0  0  0  0  0  0  0  0  0  0
   51.1007    6.5707   16.7153 O   0  0  0  0  0  0  0  0  0  0  0  0
   49.2436    7.6360   18.0626 O   0  0  0  0  0  0  0  0  0  0  0  0
   49.3864    5.1856   17.8880 O   0  0  0  0  0  0  0  0  0  0  0  0
   51.0597    6.5136   19.2238 O   0  0  0  0  0  0  0  0  0  0  0  0
   52.2299    7.4220   16.7844 C   0  0  0  0  0  0  0  0  0  0  0  0
   52.7777    7.6809   15.3833 C   0  0  0  0  0  0  0  0  0  0  0  0
   51.9744    8.7092   14.5785 C   0  0  0  0  0  0  0  0  0  0  0  0
   50.5909    8.2242   14.1361 C   0  0  0  0  0  0  0  0  0  0  0  0
   49.9041    9.2723   13.2550 C   0  0  0  0  0  0  0  0  0  0  0  0
   48.4990    8.8573   12.8081 C   0  0  0  0  0  0  0  0  0  0  0  0
   48.5090    7.7136   11.7898 C   0  0  0  0  0  0  0  0  0  0  0  0
   47.1270    7.4219   11.2015 C   0  0  0  0  0  0  0  0  0  0  0  0
   46.0396    6.9814   12.1883 C   0  0  0  0  0  0  0  0  0  0  0  0
   46.2698    5.6102   12.8325 C   0  0  0  0  0  0  0  0  0  0  0  0
   46.9790    5.6754   14.1856 C   0  0  0  0  0  0  0  0  0  0  0  0
   47.0900    4.2943   14.8138 C   0  0  0  0  0  0  0  0  0  0  0  0
   54.3781    9.3756   19.3293 H   0  0  0  0  0  0  0  0  0  0  0  0
   54.7456    7.9792   18.6275 H   0  0  0  0  0  0  0  0  0  0  0  0
   54.2140    7.4446   16.4295 H   0  0  0  0  0  0  0  0  0  0  0  0
   53.2309    8.5012   15.4557 H   0  0  0  0  0  0  0  0  0  0  0  0
   52.4285    6.0858   16.3556 H   0  0  0  0  0  0  0  0  0  0  0  0
   51.9056    6.9775   17.7553 H   0  0  0  0  0  0  0  0  0  0  0  0
   51.8060    7.2182   13.9639 H   0  0  0  0  0  0  0  0  0  0  0  0
   49.6319    7.7032   17.6550 H   0  0  0  0  0  0  0  0  0  0  0  0
   49.7871    7.7974   12.6944 H   0  0  0  0  0  0  0  0  0  0  0  0
   47.6011    8.2408   16.3847 H   0  0  0  0  0  0  0  0  0  0  0  0
   55.5151    9.5222   16.6399 H   0  0  0  0  0  0  0  0  0  0  0  0
   54.3111   10.6985   16.0832 H   0  0  0  0  0  0  0  0  0  0  0  0
   51.6644   10.1984   16.8557 H   0  0  0  0  0  0  0  0  0  0  0  0
   52.4905   11.0041   18.1938 H   0  0  0  0  0  0  0  0  0  0  0  0
   52.0544    8.8609   19.2766 H   0  0  0  0  0  0  0  0  0  0  0  0
   54.5474   11.8109   17.9292 H   0  0  0  0  0  0  0  0  0  0  0  0
   46.7370    9.1657   14.2402 H   0  0  0  0  0  0  0  0  0  0  0  0
   47.5687    8.9049   12.7258 H   0  0  0  0  0  0  0  0  0  0  0  0
   45.4175    7.6086   13.0661 H   0  0  0  0  0  0  0  0  0  0  0  0
   46.1970    6.6579   14.3285 H   0  0  0  0  0  0  0  0  0  0  0  0
   45.3201    2.8274   10.3279 H   0  0  0  0  0  0  0  0  0  0  0  0
   43.6780    2.4882    9.8159 H   0  0  0  0  0  0  0  0  0  0  0  0
   42.8399    4.5725   10.7584 H   0  0  0  0  0  0  0  0  0  0  0  0
   43.6561    3.6141   11.9835 H   0  0  0  0  0  0  0  0  0  0  0  0
   47.9107    5.8837   12.6459 H   0  0  0  0  0  0  0  0  0  0  0  0
   47.1016    6.8225   11.3978 H   0  0  0  0  0  0  0  0  0  0  0  0
   46.5804    4.4019   11.3547 H   0  0  0  0  0  0  0  0  0  0  0  0
   45.8840    4.4878   12.9704 H   0  0  0  0  0  0  0  0  0  0  0  0
   44.1133    6.0283   12.1657 H   0  0  0  0  0  0  0  0  0  0  0  0
   44.8252    6.0686   10.5622 H   0  0  0  0  0  0  0  0  0  0  0  0
   44.9206    3.2939    7.8957 H   0  0  0  0  0  0  0  0  0  0  0  0
   45.4667    4.7337    8.7569 H   0  0  0  0  0  0  0  0  0  0  0  0
   43.7494    4.5494    8.3328 H   0  0  0  0  0  0  0  0  0  0  0  0
   49.1627    7.9329   18.9929 H   0  0  0  0  0  0  0  0  0  0  0  0
   51.9695    8.3671   17.2748 H   0  0  0  0  0  0  0  0  0  0  0  0
   53.0018    6.9222   17.3812 H   0  0  0  0  0  0  0  0  0  0  0  0
   52.8369    6.7409   14.8209 H   0  0  0  0  0  0  0  0  0  0  0  0
   53.7996    8.0671   15.4856 H   0  0  0  0  0  0  0  0  0  0  0  0
   51.8748    9.6327   15.1616 H   0  0  0  0  0  0  0  0  0  0  0  0
   52.5586    8.9654   13.6855 H   0  0  0  0  0  0  0  0  0  0  0  0
   49.9594    8.0330   15.0100 H   0  0  0  0  0  0  0  0  0  0  0  0
   50.6981    7.2795   13.5911 H   0  0  0  0  0  0  0  0  0  0  0  0
   50.5222    9.4874   12.3755 H   0  0  0  0  0  0  0  0  0  0  0  0
   49.8225   10.2112   13.8181 H   0  0  0  0  0  0  0  0  0  0  0  0
   47.9042    8.5898   13.6887 H   0  0  0  0  0  0  0  0  0  0  0  0
   48.0159    9.7306   12.3533 H   0  0  0  0  0  0  0  0  0  0  0  0
   48.9236    6.8003   12.2270 H   0  0  0  0  0  0  0  0  0  0  0  0
   49.1761    7.9861   10.9607 H   0  0  0  0  0  0  0  0  0  0  0  0
   46.7730    8.3238   10.6858 H   0  0  0  0  0  0  0  0  0  0  0  0
   47.2349    6.6530   10.4255 H   0  0  0  0  0  0  0  0  0  0  0  0
   45.8652    7.7476   12.9512 H   0  0  0  0  0  0  0  0  0  0  0  0
   45.1066    6.9167   11.6126 H   0  0  0  0  0  0  0  0  0  0  0  0
   46.8177    4.9522   12.1479 H   0  0  0  0  0  0  0  0  0  0  0  0
   45.2872    5.1441   12.9901 H   0  0  0  0  0  0  0  0  0  0  0  0
   47.9849    6.0921   14.0809 H   0  0  0  0  0  0  0  0  0  0  0  0
   46.4254    6.3334   14.8656 H   0  0  0  0  0  0  0  0  0  0  0  0
   47.6146    4.3545   15.7714 H   0  0  0  0  0  0  0  0  0  0  0  0
   47.6494    3.6126   14.1641 H   0  0  0  0  0  0  0  0  0  0  0  0
   46.0995    3.8640   14.9954 H   0  0  0  0  0  0  0  0  0  0  0  0
  1  2  1  0
  1  3  1  0
  3  6  1  0
  4  6  1  0
  4  7  2  0
  4  8  1  0
  5  9  2  0
  7  9  1  0
  5 10  1  0
  8 10  2  0
  1 11  1  0
  1 12  1  0
 12 13  1  0
 11 14  1  0
  5 15  1  0
 15 16  1  0
 17 18  1  0
 16 19  1  0
 19 20  1  0
 18 21  1  0
 20 21  1  0
 17 22  1  0
 23 24  1  0
 23 25  1  0
 23 26  2  0
 23 27  2  0
 24 28  1  0
 28 29  1  0
 29 30  1  0
 30 31  1  0
 31 32  1  0
 32 33  1  0
 33 34  1  0
 34 35  1  0
 35 36  1  0
 36 37  1  0
 37 38  1  0
 38 39  1  0
  2 40  1  0
  2 41  1  0
  3 42  1  0
  3 43  1  0
  6 44  1  0
  6 45  1  0
  7 46  1  0
  8 47  1  0
  9 48  1  0
 10 49  1  0
 11 50  1  0
 11 51  1  0
 12 52  1  0
 12 53  1  0
 13 54  1  0
 14 55  1  0
 15 56  1  0
 15 57  1  0
 16 58  1  0
 16 59  1  0
 17 60  1  0
 17 61  1  0
 18 62  1  0
 18 63  1  0
 19 64  1  0
 19 65  1  0
 20 66  1  0
 20 67  1  0
 21 68  1  0
 21 69  1  0
 22 70  1  0
 22 71  1  0
 22 72  1  0
 25 73  1  0
 28 74  1  0
 28 75  1  0
 29 76  1  0
 29 77  1  0
 30 78  1  0
 30 79  1  0
 31 80  1  0
 31 81  1  0
 32 82  1  0
 32 83  1  0
 33 84  1  0
 33 85  1  0
 34 86  1  0
 34 87  1  0
 35 88  1  0
 35 89  1  0
 36 90  1  0
 36 91  1  0
 37 92  1  0
 37 93  1  0
 38 94  1  0
 38 95  1  0
 39 96  1  0
 39 97  1  0
 39 98  1  0
M  END
> <Uni-Dock RESULT> 
ENERGY=   -4.317  LOWER_BOUND=    3.700  UPPER_BOUND=    4.764
INTER + INTRA:          -4.317
INTER:                  -4.317
INTRA:                   0.000
UNBOUND:                 0.000

$$$$

     RDKit          3D

 98 97  0  0  0  0  0  0  0  0999 V2000
   51.3909   17.7472   17.8132 C   0  0  0  0  0  0  0  0  0  0  0  0
   52.3754   18.6432   18.4899 N   0  0  0  0  0  0  0  0  0  0  0  0
   51.8613   16.2712   17.9216 C   0  0  0  0  0  0  0  0  0  0  0  0
   50.6344   14.7823   19.5985 C   0  0  0  0  0  0  0  0  0  0  0  0
   48.3550   13.2037   20.1404 C   0  0  0  0  0  0  0  0  0  0  0  0
   51.8621   15.6191   19.3139 C   0  0  0  0  0  0  0  0  0  0  0  0
   50.3334   13.6622   18.8105 C   0  0  0  0  0  0  0  0  0  0  0  0
   49.7927   15.0896   20.6740 C   0  0  0  0  0  0  0  0  0  0  0  0
   49.2005   12.8877   19.0719 C   0  0  0  0  0  0  0  0  0  0  0  0
   48.6664   14.3078   20.9444 C   0  0  0  0  0  0  0  0  0  0  0  0
   51.3232   18.1156   16.3023 C   0  0  0  0  0  0  0  0  0  0  0  0
   50.0104   18.0006   18.4734 C   0  0  0  0  0  0  0  0  0  0  0  0
   50.1609   18.2005   19.8799 O   0  0  0  0  0  0  0  0  0  0  0  0
   51.1735   19.5249   16.1223 O   0  0  0  0  0  0  0  0  0  0  0  0
   47.1346   12.3677   20.4331 C   0  0  0  0  0  0  0  0  0  0  0  0
   47.3681   11.2701   21.4789 C   0  0  0  0  0  0  0  0  0  0  0  0
   48.2339    5.9394   22.7989 C   0  0  0  0  0  0  0  0  0  0  0  0
   47.4282    7.1073   23.3753 C   0  0  0  0  0  0  0  0  0  0  0  0
   48.1926   10.0952   20.9397 C   0  0  0  0  0  0  0  0  0  0  0  0
   48.4410    8.9857   21.9682 C   0  0  0  0  0  0  0  0  0  0  0  0
   47.1634    8.2719   22.4154 C   0  0  0  0  0  0  0  0  0  0  0  0
   47.5922    5.3061   21.5729 C   0  0  0  0  0  0  0  0  0  0  0  0
   51.4588   15.7804   21.7373 S   0  0  0  0  0  0  0  0  0  0  0  0
   51.5855   15.0692   20.2830 O   0  0  0  0  0  0  0  0  0  0  0  0
   49.8891   16.1285   21.8318 O   0  0  0  0  0  0  0  0  0  0  0  0
   51.7427   14.8029   22.7603 O   0  0  0  0  0  0  0  0  0  0  0  0
   52.1305   17.0601   21.7102 O   0  0  0  0  0  0  0  0  0  0  0  0
   51.7044   15.8957   19.1396 C   0  0  0  0  0  0  0  0  0  0  0  0
   51.5723   15.0574   17.8708 C   0  0  0  0  0  0  0  0  0  0  0  0
   50.1291   14.6760   17.5213 C   0  0  0  0  0  0  0  0  0  0  0  0
   49.4984   13.6531   18.4706 C   0  0  0  0  0  0  0  0  0  0  0  0
   48.0997   13.2553   17.9887 C   0  0  0  0  0  0  0  0  0  0  0  0
   47.4028   12.2574   18.9185 C   0  0  0  0  0  0  0  0  0  0  0  0
   48.0335   10.8625   18.8790 C   0  0  0  0  0  0  0  0  0  0  0  0
   47.2311    9.8188   19.6586 C   0  0  0  0  0  0  0  0  0  0  0  0
   47.0606   10.0661   21.1620 C   0  0  0  0  0  0  0  0  0  0  0  0
   48.3515    9.9711   21.9822 C   0  0  0  0  0  0  0  0  0  0  0  0
   49.0472   11.3158   22.1958 C   0  0  0  0  0  0  0  0  0  0  0  0
   50.2651   11.1665   23.0953 C   0  0  0  0  0  0  0  0  0  0  0  0
   52.1950   19.5904   18.1315 H   0  0  0  0  0  0  0  0  0  0  0  0
   53.3089   18.4342   18.1308 H   0  0  0  0  0  0  0  0  0  0  0  0
   52.8939   16.2239   17.5458 H   0  0  0  0  0  0  0  0  0  0  0  0
   51.2782   15.6651   17.2168 H   0  0  0  0  0  0  0  0  0  0  0  0
   52.7227   14.9393   19.3788 H   0  0  0  0  0  0  0  0  0  0  0  0
   52.0262   16.3606   20.1018 H   0  0  0  0  0  0  0  0  0  0  0  0
   50.9848   13.3798   17.9870 H   0  0  0  0  0  0  0  0  0  0  0  0
   50.0045   15.9503   21.3061 H   0  0  0  0  0  0  0  0  0  0  0  0
   48.9882   12.0266   18.4405 H   0  0  0  0  0  0  0  0  0  0  0  0
   48.0305   14.5720   21.7867 H   0  0  0  0  0  0  0  0  0  0  0  0
   52.2537   17.8318   15.7969 H   0  0  0  0  0  0  0  0  0  0  0  0
   50.4956   17.6035   15.7958 H   0  0  0  0  0  0  0  0  0  0  0  0
   49.3168   17.1723   18.3011 H   0  0  0  0  0  0  0  0  0  0  0  0
   49.5415   18.9116   18.0851 H   0  0  0  0  0  0  0  0  0  0  0  0
   51.0613   18.5820   19.9659 H   0  0  0  0  0  0  0  0  0  0  0  0
   50.2215   19.7281   16.1301 H   0  0  0  0  0  0  0  0  0  0  0  0
   46.3411   13.0351   20.7943 H   0  0  0  0  0  0  0  0  0  0  0  0
   46.7498   11.9311   19.5030 H   0  0  0  0  0  0  0  0  0  0  0  0
   46.3840   10.9020   21.7901 H   0  0  0  0  0  0  0  0  0  0  0  0
   47.8515   11.6857   22.3710 H   0  0  0  0  0  0  0  0  0  0  0  0
   49.2518    6.2586   22.5534 H   0  0  0  0  0  0  0  0  0  0  0  0
   48.3324    5.1737   23.5787 H   0  0  0  0  0  0  0  0  0  0  0  0
   46.4606    6.7262   23.7252 H   0  0  0  0  0  0  0  0  0  0  0  0
   47.9496    7.4870   24.2635 H   0  0  0  0  0  0  0  0  0  0  0  0
   49.1709   10.4568   20.6056 H   0  0  0  0  0  0  0  0  0  0  0  0
   47.6960    9.6697   20.0588 H   0  0  0  0  0  0  0  0  0  0  0  0
   49.1269    8.2632   21.5104 H   0  0  0  0  0  0  0  0  0  0  0  0
   48.9552    9.4028   22.8426 H   0  0  0  0  0  0  0  0  0  0  0  0
   46.5115    8.9835   22.9357 H   0  0  0  0  0  0  0  0  0  0  0  0
   46.6031    7.9216   21.5414 H   0  0  0  0  0  0  0  0  0  0  0  0
   48.1380    4.4005   21.2886 H   0  0  0  0  0  0  0  0  0  0  0  0
   47.6158    5.9859   20.7170 H   0  0  0  0  0  0  0  0  0  0  0  0
   46.5528    5.0269   21.7720 H   0  0  0  0  0  0  0  0  0  0  0  0
   49.8153   17.0063   22.2613 H   0  0  0  0  0  0  0  0  0  0  0  0
   50.9462   16.6872   19.1568 H   0  0  0  0  0  0  0  0  0  0  0  0
   52.6956   16.3639   19.1549 H   0  0  0  0  0  0  0  0  0  0  0  0
   52.1817   14.1489   17.9529 H   0  0  0  0  0  0  0  0  0  0  0  0
   51.9703   15.6451   17.0341 H   0  0  0  0  0  0  0  0  0  0  0  0
   49.5102   15.5807   17.4865 H   0  0  0  0  0  0  0  0  0  0  0  0
   50.1297   14.2589   16.5062 H   0  0  0  0  0  0  0  0  0  0  0  0
   49.4155   14.0729   19.4786 H   0  0  0  0  0  0  0  0  0  0  0  0
   50.1459   12.7710   18.5307 H   0  0  0  0  0  0  0  0  0  0  0  0
   48.1553   12.8391   16.9761 H   0  0  0  0  0  0  0  0  0  0  0  0
   47.4769   14.1570   17.9233 H   0  0  0  0  0  0  0  0  0  0  0  0
   47.4009   12.6554   19.9394 H   0  0  0  0  0  0  0  0  0  0  0  0
   46.3540   12.1794   18.6074 H   0  0  0  0  0  0  0  0  0  0  0  0
   49.0637   10.8853   19.2468 H   0  0  0  0  0  0  0  0  0  0  0  0
   48.0893   10.5306   17.8333 H   0  0  0  0  0  0  0  0  0  0  0  0
   46.2318    9.7451   19.2107 H   0  0  0  0  0  0  0  0  0  0  0  0
   47.7012    8.8378   19.5113 H   0  0  0  0  0  0  0  0  0  0  0  0
   46.5468   11.0150   21.3500 H   0  0  0  0  0  0  0  0  0  0  0  0
   46.3842    9.2832   21.5301 H   0  0  0  0  0  0  0  0  0  0  0  0
   49.0437    9.2538   21.5258 H   0  0  0  0  0  0  0  0  0  0  0  0
   48.0924    9.5658   22.9702 H   0  0  0  0  0  0  0  0  0  0  0  0
   49.3688   11.7463   21.2431 H   0  0  0  0  0  0  0  0  0  0  0  0
   48.3505   12.0277   22.6538 H   0  0  0  0  0  0  0  0  0  0  0  0
   50.7618   12.1322   23.2243 H   0  0  0  0  0  0  0  0  0  0  0  0
   50.9893   10.4691   22.6609 H   0  0  0  0  0  0  0  0  0  0  0  0
   49.9797   10.7962   24.0856 H   0  0  0  0  0  0  0  0  0  0  0  0
  1  2  1  0
  1  3  1  0
  3  6  1  0
  4  6  1  0
  4  7  2  0
  4  8  1  0
  5  9  2  0
  7  9  1  0
  5 10  1  0
  8 10  2  0
  1 11  1  0
  1 12  1  0
 12 13  1  0
 11 14  1  0
  5 15  1  0
 15 16  1  0
 17 18  1  0
 16 19  1  0
 19 20  1  0
 18 21  1  0
 20 21  1  0
 17 22  1  0
 23 24  1  0
 23 25  1  0
 23 26  2  0
 23 27  2  0
 24 28  1  0
 28 29  1  0
 29 30  1  0
 30 31  1  0
 31 32  1  0
 32 33  1  0
 33 34  1  0
 34 35  1  0
 35 36  1  0
 36 37  1  0
 37 38  1  0
 38 39  1  0
  2 40  1  0
  2 41  1  0
  3 42  1  0
  3 43  1  0
  6 44  1  0
  6 45  1  0
  7 46  1  0
  8 47  1  0
  9 48  1  0
 10 49  1  0
 11 50  1  0
 11 51  1  0
 12 52  1  0
 12 53  1  0
 13 54  1  0
 14 55  1  0
 15 56  1  0
 15 57  1  0
 16 58  1  0
 16 59  1  0
 17 60  1  0
 17 61  1  0
 18 62  1  0
 18 63  1  0
 19 64  1  0
 19 65  1  0
 20 66  1  0
 20 67  1  0
 21 68  1  0
 21 69  1  0
 22 70  1  0
 22 71  1  0
 22 72  1  0
 25 73  1  0
 28 74  1  0
 28 75  1  0
 29 76  1  0
 29 77  1  0
 30 78  1  0
 30 79  1  0
 31 80  1  0
 31 81  1  0
 32 82  1  0
 32 83  1  0
 33 84  1  0
 33 85  1  0
 34 86  1  0
 34 87  1  0
 35 88  1  0
 35 89  1  0
 36 90  1  0
 36 91  1  0
 37 92  1  0
 37 93  1  0
 38 94  1  0
 38 95  1  0
 39 96  1  0
 39 97  1  0
 39 98  1  0
M  END
> <Uni-Dock RESULT> 
ENERGY=   -4.287  LOWER_BOUND=    6.294  UPPER_BOUND=    8.123
INTER + INTRA:          -4.287
INTER:                  -4.287
INTRA:                   0.000
UNBOUND:                 0.000

$$$$

     RDKit          3D

 98 97  0  0  0  0  0  0  0  0999 V2000
   55.7030    4.7190    9.4387 C   0  0  0  0  0  0  0  0  0  0  0  0
   55.8270    4.2783   10.8600 N   0  0  0  0  0  0  0  0  0  0  0  0
   54.2221    5.0626    9.1213 C   0  0  0  0  0  0  0  0  0  0  0  0
   53.6163    7.5402    8.9524 C   0  0  0  0  0  0  0  0  0  0  0  0
   53.6099    9.8744    7.3608 C   0  0  0  0  0  0  0  0  0  0  0  0
   53.6083    6.2932    9.8088 C   0  0  0  0  0  0  0  0  0  0  0  0
   52.9225    7.5763    7.7344 C   0  0  0  0  0  0  0  0  0  0  0  0
   54.2885    8.6934    9.3742 C   0  0  0  0  0  0  0  0  0  0  0  0
   52.9280    8.7272    6.9423 C   0  0  0  0  0  0  0  0  0  0  0  0
   54.2837    9.8494    8.5888 C   0  0  0  0  0  0  0  0  0  0  0  0
   56.1310    3.5495    8.5047 C   0  0  0  0  0  0  0  0  0  0  0  0
   56.6659    5.9195    9.2448 C   0  0  0  0  0  0  0  0  0  0  0  0
   56.6597    6.7542   10.4040 O   0  0  0  0  0  0  0  0  0  0  0  0
   57.3770    2.9880    8.9209 O   0  0  0  0  0  0  0  0  0  0  0  0
   53.6138   11.1225    6.5146 C   0  0  0  0  0  0  0  0  0  0  0  0
   52.5230   12.1331    6.8909 C   0  0  0  0  0  0  0  0  0  0  0  0
   47.6002   14.5320    5.9319 C   0  0  0  0  0  0  0  0  0  0  0  0
   48.9827   14.9897    6.4058 C   0  0  0  0  0  0  0  0  0  0  0  0
   51.1218   11.6933    6.4504 C   0  0  0  0  0  0  0  0  0  0  0  0
   50.0137   12.6872    6.8176 C   0  0  0  0  0  0  0  0  0  0  0  0
   50.1412   14.0338    6.1021 C   0  0  0  0  0  0  0  0  0  0  0  0
   47.5253   14.2801    4.4329 C   0  0  0  0  0  0  0  0  0  0  0  0
   53.8299    8.1959   11.3555 S   0  0  0  0  0  0  0  0  0  0  0  0
   53.2623    7.3512   10.0901 O   0  0  0  0  0  0  0  0  0  0  0  0
   55.0122    9.0725   10.7015 O   0  0  0  0  0  0  0  0  0  0  0  0
   52.8093    9.1156   11.7972 O   0  0  0  0  0  0  0  0  0  0  0  0
   54.4881    7.2998   12.2793 O   0  0  0  0  0  0  0  0  0  0  0  0
   53.9348    6.1610    9.7215 C   0  0  0  0  0  0  0  0  0  0  0  0
   53.4018    5.6501    8.3855 C   0  0  0  0  0  0  0  0  0  0  0  0
   53.9424    6.4065    7.1665 C   0  0  0  0  0  0  0  0  0  0  0  0
   53.4159    7.8377    7.0265 C   0  0  0  0  0  0  0  0  0  0  0  0
   53.9252    8.4796    5.7322 C   0  0  0  0  0  0  0  0  0  0  0  0
   53.4583    9.9273    5.5527 C   0  0  0  0  0  0  0  0  0  0  0  0
   51.9600   10.0398    5.2570 C   0  0  0  0  0  0  0  0  0  0  0  0
   51.5253   11.4610    4.8931 C   0  0  0  0  0  0  0  0  0  0  0  0
   51.7370   12.5389    5.9625 C   0  0  0  0  0  0  0  0  0  0  0  0
   50.8679   12.3848    7.2152 C   0  0  0  0  0  0  0  0  0  0  0  0
   51.5513   11.6212    8.3501 C   0  0  0  0  0  0  0  0  0  0  0  0
   50.6754   11.5873    9.5935 C   0  0  0  0  0  0  0  0  0  0  0  0
   56.7242    3.7799   10.9287 H   0  0  0  0  0  0  0  0  0  0  0  0
   55.1400    3.5425   11.0356 H   0  0  0  0  0  0  0  0  0  0  0  0
   53.6110    4.1957    9.4123 H   0  0  0  0  0  0  0  0  0  0  0  0
   54.1050    5.1358    8.0327 H   0  0  0  0  0  0  0  0  0  0  0  0
   52.5545    6.0770   10.0321 H   0  0  0  0  0  0  0  0  0  0  0  0
   54.0722    6.4794   10.7823 H   0  0  0  0  0  0  0  0  0  0  0  0
   52.3653    6.7067    7.3944 H   0  0  0  0  0  0  0  0  0  0  0  0
   54.8313    8.6962   10.3179 H   0  0  0  0  0  0  0  0  0  0  0  0
   52.3851    8.7253    5.9986 H   0  0  0  0  0  0  0  0  0  0  0  0
   54.8160   10.7298    8.9425 H   0  0  0  0  0  0  0  0  0  0  0  0
   55.3934    2.7394    8.5428 H   0  0  0  0  0  0  0  0  0  0  0  0
   56.2197    3.8748    7.4607 H   0  0  0  0  0  0  0  0  0  0  0  0
   56.4000    6.5193    8.3694 H   0  0  0  0  0  0  0  0  0  0  0  0
   57.7016    5.5859    9.1156 H   0  0  0  0  0  0  0  0  0  0  0  0
   56.4472    6.1353   11.1357 H   0  0  0  0  0  0  0  0  0  0  0  0
   58.0905    3.4874    8.4859 H   0  0  0  0  0  0  0  0  0  0  0  0
   54.5938   11.6058    6.6221 H   0  0  0  0  0  0  0  0  0  0  0  0
   53.5341   10.8541    5.4538 H   0  0  0  0  0  0  0  0  0  0  0  0
   52.7713   13.0794    6.3972 H   0  0  0  0  0  0  0  0  0  0  0  0
   52.5312   12.3235    7.9707 H   0  0  0  0  0  0  0  0  0  0  0  0
   47.2887   13.6304    6.4688 H   0  0  0  0  0  0  0  0  0  0  0  0
   46.8734   15.3113    6.1937 H   0  0  0  0  0  0  0  0  0  0  0  0
   49.2086   15.9584    5.9426 H   0  0  0  0  0  0  0  0  0  0  0  0
   48.9400   15.1678    7.4880 H   0  0  0  0  0  0  0  0  0  0  0  0
   50.8729   10.7367    6.9220 H   0  0  0  0  0  0  0  0  0  0  0  0
   51.1125   11.5225    5.3667 H   0  0  0  0  0  0  0  0  0  0  0  0
   49.0564   12.2201    6.5579 H   0  0  0  0  0  0  0  0  0  0  0  0
   50.0064   12.8459    7.9028 H   0  0  0  0  0  0  0  0  0  0  0  0
   51.0663   14.5291    6.4197 H   0  0  0  0  0  0  0  0  0  0  0  0
   50.2295   13.8782    5.0212 H   0  0  0  0  0  0  0  0  0  0  0  0
   46.4892   14.0880    4.1355 H   0  0  0  0  0  0  0  0  0  0  0  0
   48.1162   13.4056    4.1476 H   0  0  0  0  0  0  0  0  0  0  0  0
   47.8845   15.1468    3.8692 H   0  0  0  0  0  0  0  0  0  0  0  0
   55.7452    9.0957   11.3514 H   0  0  0  0  0  0  0  0  0  0  0  0
   55.0159    6.3328    9.6624 H   0  0  0  0  0  0  0  0  0  0  0  0
   53.7449    5.4053   10.4926 H   0  0  0  0  0  0  0  0  0  0  0  0
   52.3052    5.6812    8.3792 H   0  0  0  0  0  0  0  0  0  0  0  0
   53.7009    4.5995    8.2814 H   0  0  0  0  0  0  0  0  0  0  0  0
   55.0386    6.4160    7.1989 H   0  0  0  0  0  0  0  0  0  0  0  0
   53.6616    5.8399    6.2696 H   0  0  0  0  0  0  0  0  0  0  0  0
   53.7468    8.4474    7.8738 H   0  0  0  0  0  0  0  0  0  0  0  0
   52.3202    7.8206    7.0378 H   0  0  0  0  0  0  0  0  0  0  0  0
   53.6132    7.8816    4.8680 H   0  0  0  0  0  0  0  0  0  0  0  0
   55.0230    8.4708    5.7396 H   0  0  0  0  0  0  0  0  0  0  0  0
   53.7240   10.5058    6.4446 H   0  0  0  0  0  0  0  0  0  0  0  0
   54.0169   10.3625    4.7152 H   0  0  0  0  0  0  0  0  0  0  0  0
   51.3637    9.6765    6.0994 H   0  0  0  0  0  0  0  0  0  0  0  0
   51.7186    9.3869    4.4072 H   0  0  0  0  0  0  0  0  0  0  0  0
   52.0670   11.7678    3.9892 H   0  0  0  0  0  0  0  0  0  0  0  0
   50.4633   11.4394    4.6161 H   0  0  0  0  0  0  0  0  0  0  0  0
   52.7955   12.6275    6.2294 H   0  0  0  0  0  0  0  0  0  0  0  0
   51.4665   13.4956    5.4959 H   0  0  0  0  0  0  0  0  0  0  0  0
   49.9112   11.9130    6.9622 H   0  0  0  0  0  0  0  0  0  0  0  0
   50.6287   13.3920    7.5838 H   0  0  0  0  0  0  0  0  0  0  0  0
   51.7730   10.5924    8.0522 H   0  0  0  0  0  0  0  0  0  0  0  0
   52.5061   12.0989    8.5991 H   0  0  0  0  0  0  0  0  0  0  0  0
   51.1692   11.0233   10.3897 H   0  0  0  0  0  0  0  0  0  0  0  0
   49.7151   11.1045    9.3827 H   0  0  0  0  0  0  0  0  0  0  0  0
   50.4797   12.5988    9.9646 H   0  0  0  0  0  0  0  0  0  0  0  0
  1  2  1  0
  1  3  1  0
  3  6  1  0
  4  6  1  0
  4  7  2  0
  4  8  1  0
  5  9  2  0
  7  9  1  0
  5 10  1  0
  8 10  2  0
  1 11  1  0
  1 12  1  0
 12 13  1  0
 11 14  1  0
  5 15  1  0
 15 16  1  0
 17 18  1  0
 16 19  1  0
 19 20  1  0
 18 21  1  0
 20 21  1  0
 17 22  1  0
 23 24  1  0
 23 25  1  0
 23 26  2  0
 23 27  2  0
 24 28  1  0
 28 29  1  0
 29 30  1  0
 30 31  1  0
 31 32  1  0
 32 33  1  0
 33 34  1  0
 34 35  1  0
 35 36  1  0
 36 37  1  0
 37 38  1  0
 38 39  1  0
  2 40  1  0
  2 41  1  0
  3 42  1  0
  3 43  1  0
  6 44  1  0
  6 45  1  0
  7 46  1  0
  8 47  1  0
  9 48  1  0
 10 49  1  0
 11 50  1  0
 11 51  1  0
 12 52  1  0
 12 53  1  0
 13 54  1  0
 14 55  1  0
 15 56  1  0
 15 57  1  0
 16 58  1  0
 16 59  1  0
 17 60  1  0
 17 61  1  0
 18 62  1  0
 18 63  1  0
 19 64  1  0
 19 65  1  0
 20 66  1  0
 20 67  1  0
 21 68  1  0
 21 69  1  0
 22 70  1  0
 22 71  1  0
 22 72  1  0
 25 73  1  0
 28 74  1  0
 28 75  1  0
 29 76  1  0
 29 77  1  0
 30 78  1  0
 30 79  1  0
 31 80  1  0
 31 81  1  0
 32 82  1  0
 32 83  1  0
 33 84  1  0
 33 85  1  0
 34 86  1  0
 34 87  1  0
 35 88  1  0
 35 89  1  0
 36 90  1  0
 36 91  1  0
 37 92  1  0
 37 93  1  0
 38 94  1  0
 38 95  1  0
 39 96  1  0
 39 97  1  0
 39 98  1  0
M  END
> <Uni-Dock RESULT> 
ENERGY=   -4.198  LOWER_BOUND=    7.734  UPPER_BOUND=   10.081
INTER + INTRA:          -4.198
INTER:                  -4.198
INTRA:                   0.000
UNBOUND:                 0.000

$$$$

     RDKit          3D

 98 97  0  0  0  0  0  0  0  0999 V2000
   51.0646   17.0806   21.9999 C   0  0  0  0  0  0  0  0  0  0  0  0
   52.3486   17.4931   22.6410 N   0  0  0  0  0  0  0  0  0  0  0  0
   51.3342   15.9698   20.9487 C   0  0  0  0  0  0  0  0  0  0  0  0
   50.6847   13.5823   21.5907 C   0  0  0  0  0  0  0  0  0  0  0  0
   48.6170   11.6717   21.8270 C   0  0  0  0  0  0  0  0  0  0  0  0
   51.7995   14.5965   21.4598 C   0  0  0  0  0  0  0  0  0  0  0  0
   49.9464   13.1815   20.4680 C   0  0  0  0  0  0  0  0  0  0  0  0
   50.3900   12.9991   22.8287 C   0  0  0  0  0  0  0  0  0  0  0  0
   48.9169   12.2446   20.5867 C   0  0  0  0  0  0  0  0  0  0  0  0
   49.3690   12.0520   22.9460 C   0  0  0  0  0  0  0  0  0  0  0  0
   50.4528   18.3028   21.2548 C   0  0  0  0  0  0  0  0  0  0  0  0
   50.1085   16.6309   23.1354 C   0  0  0  0  0  0  0  0  0  0  0  0
   50.8310   15.9190   24.1413 O   0  0  0  0  0  0  0  0  0  0  0  0
   50.4368   19.4606   22.0917 O   0  0  0  0  0  0  0  0  0  0  0  0
   47.5122   10.6543   21.9610 C   0  0  0  0  0  0  0  0  0  0  0  0
   47.9906    9.1999   21.8671 C   0  0  0  0  0  0  0  0  0  0  0  0
   48.5771    4.4659   19.0114 C   0  0  0  0  0  0  0  0  0  0  0  0
   48.2335    4.8562   20.4520 C   0  0  0  0  0  0  0  0  0  0  0  0
   48.3651    8.7839   20.4397 C   0  0  0  0  0  0  0  0  0  0  0  0
   48.8486    7.3338   20.3209 C   0  0  0  0  0  0  0  0  0  0  0  0
   47.7698    6.3021   20.6579 C   0  0  0  0  0  0  0  0  0  0  0  0
   47.4215    4.6553   18.0394 C   0  0  0  0  0  0  0  0  0  0  0  0
   52.4184   13.1230   23.3326 S   0  0  0  0  0  0  0  0  0  0  0  0
   51.8589   13.5226   21.8615 O   0  0  0  0  0  0  0  0  0  0  0  0
   51.0786   13.0714   24.2250 O   0  0  0  0  0  0  0  0  0  0  0  0
   52.9497   11.7823   23.2805 O   0  0  0  0  0  0  0  0  0  0  0  0
   53.1910   14.2198   23.8707 O   0  0  0  0  0  0  0  0  0  0  0  0
   51.6248   14.8905   21.5811 C   0  0  0  0  0  0  0  0  0  0  0  0
   50.8869   15.0344   20.2526 C   0  0  0  0  0  0  0  0  0  0  0  0
   49.3864   14.7307   20.3352 C   0  0  0  0  0  0  0  0  0  0  0  0
   49.0523   13.2531   20.5591 C   0  0  0  0  0  0  0  0  0  0  0  0
   47.5374   13.0278   20.5257 C   0  0  0  0  0  0  0  0  0  0  0  0
   47.1388   11.5706   20.7782 C   0  0  0  0  0  0  0  0  0  0  0  0
   47.5061   10.6408   19.6182 C   0  0  0  0  0  0  0  0  0  0  0  0
   46.9459    9.2264   19.7823 C   0  0  0  0  0  0  0  0  0  0  0  0
   47.4222    8.4370   21.0072 C   0  0  0  0  0  0  0  0  0  0  0  0
   48.9067    8.0575   20.9933 C   0  0  0  0  0  0  0  0  0  0  0  0
   49.8056    9.0556   21.7239 C   0  0  0  0  0  0  0  0  0  0  0  0
   51.2480    8.5729   21.7564 C   0  0  0  0  0  0  0  0  0  0  0  0
   52.1711   18.4081   23.0762 H   0  0  0  0  0  0  0  0  0  0  0  0
   53.0247   17.7135   21.9073 H   0  0  0  0  0  0  0  0  0  0  0  0
   52.1156   16.3395   20.2687 H   0  0  0  0  0  0  0  0  0  0  0  0
   50.4426   15.8601   20.3184 H   0  0  0  0  0  0  0  0  0  0  0  0
   52.5141   14.1803   20.7364 H   0  0  0  0  0  0  0  0  0  0  0  0
   52.3623   14.6880   22.3939 H   0  0  0  0  0  0  0  0  0  0  0  0
   50.1720   13.5934   19.4874 H   0  0  0  0  0  0  0  0  0  0  0  0
   50.9502   13.2870   23.7166 H   0  0  0  0  0  0  0  0  0  0  0  0
   48.3564   11.9558   19.6991 H   0  0  0  0  0  0  0  0  0  0  0  0
   49.1625   11.6170   23.9215 H   0  0  0  0  0  0  0  0  0  0  0  0
   51.0580   18.5584   20.3771 H   0  0  0  0  0  0  0  0  0  0  0  0
   49.4310   18.0994   20.9112 H   0  0  0  0  0  0  0  0  0  0  0  0
   49.2980   15.9987   22.7608 H   0  0  0  0  0  0  0  0  0  0  0  0
   49.6523   17.4903   23.6393 H   0  0  0  0  0  0  0  0  0  0  0  0
   51.7342   16.3007   24.0935 H   0  0  0  0  0  0  0  0  0  0  0  0
   49.6035   19.4546   22.5949 H   0  0  0  0  0  0  0  0  0  0  0  0
   47.0262   10.8029   22.9342 H   0  0  0  0  0  0  0  0  0  0  0  0
   46.7341   10.8478   21.2121 H   0  0  0  0  0  0  0  0  0  0  0  0
   47.1712    8.5639   22.2204 H   0  0  0  0  0  0  0  0  0  0  0  0
   48.8402    9.0305   22.5392 H   0  0  0  0  0  0  0  0  0  0  0  0
   49.4466    5.0289   18.6576 H   0  0  0  0  0  0  0  0  0  0  0  0
   48.8723    3.4092   19.0043 H   0  0  0  0  0  0  0  0  0  0  0  0
   47.4426    4.1887   20.8163 H   0  0  0  0  0  0  0  0  0  0  0  0
   49.1111    4.6683   21.0838 H   0  0  0  0  0  0  0  0  0  0  0  0
   49.1693    9.4284   20.0692 H   0  0  0  0  0  0  0  0  0  0  0  0
   47.5066    8.9365   19.7738 H   0  0  0  0  0  0  0  0  0  0  0  0
   49.1910    7.1868   19.2898 H   0  0  0  0  0  0  0  0  0  0  0  0
   49.7194    7.1819   20.9702 H   0  0  0  0  0  0  0  0  0  0  0  0
   47.4816    6.4069   21.7104 H   0  0  0  0  0  0  0  0  0  0  0  0
   46.8665    6.4970   20.0693 H   0  0  0  0  0  0  0  0  0  0  0  0
   47.6809    4.2371   17.0613 H   0  0  0  0  0  0  0  0  0  0  0  0
   47.1951    5.7149   17.8938 H   0  0  0  0  0  0  0  0  0  0  0  0
   46.5193    4.1485   18.3962 H   0  0  0  0  0  0  0  0  0  0  0  0
   51.3015   13.4538   25.0993 H   0  0  0  0  0  0  0  0  0  0  0  0
   51.0509   15.3562   22.3907 H   0  0  0  0  0  0  0  0  0  0  0  0
   52.5939   15.3973   21.5063 H   0  0  0  0  0  0  0  0  0  0  0  0
   51.3491   14.3931   19.4920 H   0  0  0  0  0  0  0  0  0  0  0  0
   50.9954   16.0732   19.9162 H   0  0  0  0  0  0  0  0  0  0  0  0
   48.9337   15.3378   21.1284 H   0  0  0  0  0  0  0  0  0  0  0  0
   48.9270   15.0555   19.3929 H   0  0  0  0  0  0  0  0  0  0  0  0
   49.4345   12.9214   21.5301 H   0  0  0  0  0  0  0  0  0  0  0  0
   49.5440   12.6519   19.7859 H   0  0  0  0  0  0  0  0  0  0  0  0
   47.1289   13.3606   19.5644 H   0  0  0  0  0  0  0  0  0  0  0  0
   47.0686   13.6512   21.2982 H   0  0  0  0  0  0  0  0  0  0  0  0
   47.5968   11.2275   21.7126 H   0  0  0  0  0  0  0  0  0  0  0  0
   46.0527   11.5369   20.9271 H   0  0  0  0  0  0  0  0  0  0  0  0
   48.5904   10.5938   19.4790 H   0  0  0  0  0  0  0  0  0  0  0  0
   47.0962   11.0584   18.6886 H   0  0  0  0  0  0  0  0  0  0  0  0
   45.8511    9.2905   19.8238 H   0  0  0  0  0  0  0  0  0  0  0  0
   47.1809    8.6523   18.8766 H   0  0  0  0  0  0  0  0  0  0  0  0
   47.1594    8.9540   21.9364 H   0  0  0  0  0  0  0  0  0  0  0  0
   46.8482    7.5008   21.0148 H   0  0  0  0  0  0  0  0  0  0  0  0
   49.2561    7.9146   19.9640 H   0  0  0  0  0  0  0  0  0  0  0  0
   49.0091    7.0842   21.4931 H   0  0  0  0  0  0  0  0  0  0  0  0
   49.7774   10.0358   21.2395 H   0  0  0  0  0  0  0  0  0  0  0  0
   49.4519    9.1926   22.7525 H   0  0  0  0  0  0  0  0  0  0  0  0
   51.8812    9.3046   22.2659 H   0  0  0  0  0  0  0  0  0  0  0  0
   51.6380    8.4365   20.7420 H   0  0  0  0  0  0  0  0  0  0  0  0
   51.3322    7.6204   22.2902 H   0  0  0  0  0  0  0  0  0  0  0  0
  1  2  1  0
  1  3  1  0
  3  6  1  0
  4  6  1  0
  4  7  2  0
  4  8  1  0
  5  9  2  0
  7  9  1  0
  5 10  1  0
  8 10  2  0
  1 11  1  0
  1 12  1  0
 12 13  1  0
 11 14  1  0
  5 15  1  0
 15 16  1  0
 17 18  1  0
 16 19  1  0
 19 20  1  0
 18 21  1  0
 20 21  1  0
 17 22  1  0
 23 24  1  0
 23 25  1  0
 23 26  2  0
 23 27  2  0
 24 28  1  0
 28 29  1  0
 29 30  1  0
 30 31  1  0
 31 32  1  0
 32 33  1  0
 33 34  1  0
 34 35  1  0
 35 36  1  0
 36 37  1  0
 37 38  1  0
 38 39  1  0
  2 40  1  0
  2 41  1  0
  3 42  1  0
  3 43  1  0
  6 44  1  0
  6 45  1  0
  7 46  1  0
  8 47  1  0
  9 48  1  0
 10 49  1  0
 11 50  1  0
 11 51  1  0
 12 52  1  0
 12 53  1  0
 13 54  1  0
 14 55  1  0
 15 56  1  0
 15 57  1  0
 16 58  1  0
 16 59  1  0
 17 60  1  0
 17 61  1  0
 18 62  1  0
 18 63  1  0
 19 64  1  0
 19 65  1  0
 20 66  1  0
 20 67  1  0
 21 68  1  0
 21 69  1  0
 22 70  1  0
 22 71  1  0
 22 72  1  0
 25 73  1  0
 28 74  1  0
 28 75  1  0
 29 76  1  0
 29 77  1  0
 30 78  1  0
 30 79  1  0
 31 80  1  0
 31 81  1  0
 32 82  1  0
 32 83  1  0
 33 84  1  0
 33 85  1  0
 34 86  1  0
 34 87  1  0
 35 88  1  0
 35 89  1  0
 36 90  1  0
 36 91  1  0
 37 92  1  0
 37 93  1  0
 38 94  1  0
 38 95  1  0
 39 96  1  0
 39 97  1  0
 39 98  1  0
M  END
> <Uni-Dock RESULT> 
ENERGY=   -4.128  LOWER_BOUND=    6.336  UPPER_BOUND=    8.438
INTER + INTRA:          -4.128
INTER:                  -4.128
INTRA:                   0.000
UNBOUND:                 0.000

$$$$

     RDKit          3D

 98 97  0  0  0  0  0  0  0  0999 V2000
   54.1874    8.8604    7.6980 C   0  0  0  0  0  0  0  0  0  0  0  0
   55.3015    9.7933    7.3541 N   0  0  0  0  0  0  0  0  0  0  0  0
   54.3391    8.3779    9.1663 C   0  0  0  0  0  0  0  0  0  0  0  0
   52.7543    9.3986   10.8928 C   0  0  0  0  0  0  0  0  0  0  0  0
   50.1762    9.3749   12.0480 C   0  0  0  0  0  0  0  0  0  0  0  0
   54.1398    9.4130   10.2855 C   0  0  0  0  0  0  0  0  0  0  0  0
   52.2676    8.2527   11.5380 C   0  0  0  0  0  0  0  0  0  0  0  0
   51.9436   10.5390   10.8521 C   0  0  0  0  0  0  0  0  0  0  0  0
   50.9887    8.2376   12.1000 C   0  0  0  0  0  0  0  0  0  0  0  0
   50.6691   10.5291   11.4255 C   0  0  0  0  0  0  0  0  0  0  0  0
   54.2687    7.6095    6.7751 C   0  0  0  0  0  0  0  0  0  0  0  0
   52.8586    9.6160    7.4353 C   0  0  0  0  0  0  0  0  0  0  0  0
   52.9799   10.9853    7.8238 O   0  0  0  0  0  0  0  0  0  0  0  0
   54.4202    7.9889    5.4061 O   0  0  0  0  0  0  0  0  0  0  0  0
   48.7978    9.3681   12.6592 C   0  0  0  0  0  0  0  0  0  0  0  0
   48.7510    9.9043   14.0956 C   0  0  0  0  0  0  0  0  0  0  0  0
   48.4403    9.0487   19.5801 C   0  0  0  0  0  0  0  0  0  0  0  0
   47.8651   10.0570   18.5812 C   0  0  0  0  0  0  0  0  0  0  0  0
   49.3414    8.9270   15.1189 C   0  0  0  0  0  0  0  0  0  0  0  0
   49.3076    9.4422   16.5625 C   0  0  0  0  0  0  0  0  0  0  0  0
   47.8909    9.6268   17.1107 C   0  0  0  0  0  0  0  0  0  0  0  0
   47.7412    7.6972   19.5488 C   0  0  0  0  0  0  0  0  0  0  0  0
   53.6635   11.7259   10.9822 S   0  0  0  0  0  0  0  0  0  0  0  0
   53.7104   10.1065   11.0935 O   0  0  0  0  0  0  0  0  0  0  0  0
   52.1960   12.0024   10.3788 O   0  0  0  0  0  0  0  0  0  0  0  0
   53.6917   12.2852   12.3122 O   0  0  0  0  0  0  0  0  0  0  0  0
   54.5841   12.1674    9.9590 O   0  0  0  0  0  0  0  0  0  0  0  0
   54.0507    9.3638    9.9372 C   0  0  0  0  0  0  0  0  0  0  0  0
   53.8098    7.8761   10.1800 C   0  0  0  0  0  0  0  0  0  0  0  0
   52.3373    7.4588   10.0902 C   0  0  0  0  0  0  0  0  0  0  0  0
   51.4657    7.9653   11.2429 C   0  0  0  0  0  0  0  0  0  0  0  0
   50.0396    7.4179   11.1266 C   0  0  0  0  0  0  0  0  0  0  0  0
   49.1092    7.9184   12.2357 C   0  0  0  0  0  0  0  0  0  0  0  0
   49.4414    7.3248   13.6077 C   0  0  0  0  0  0  0  0  0  0  0  0
   48.4057    7.6730   14.6788 C   0  0  0  0  0  0  0  0  0  0  0  0
   48.2183    9.1614   14.9949 C   0  0  0  0  0  0  0  0  0  0  0  0
   49.4217    9.8360   15.6619 C   0  0  0  0  0  0  0  0  0  0  0  0
   50.3677   10.5238   14.6770 C   0  0  0  0  0  0  0  0  0  0  0  0
   51.4848   11.2533   15.4080 C   0  0  0  0  0  0  0  0  0  0  0  0
   55.3367    9.8320    6.3268 H   0  0  0  0  0  0  0  0  0  0  0  0
   56.1882    9.3485    7.5991 H   0  0  0  0  0  0  0  0  0  0  0  0
   55.3567    7.9762    9.2798 H   0  0  0  0  0  0  0  0  0  0  0  0
   53.6781    7.5159    9.3219 H   0  0  0  0  0  0  0  0  0  0  0  0
   54.8385    9.1817   11.1013 H   0  0  0  0  0  0  0  0  0  0  0  0
   54.4150   10.4186    9.9528 H   0  0  0  0  0  0  0  0  0  0  0  0
   52.8856    7.3613   11.6131 H   0  0  0  0  0  0  0  0  0  0  0  0
   52.2972   11.4448   10.3625 H   0  0  0  0  0  0  0  0  0  0  0  0
   50.6344    7.3323   12.5902 H   0  0  0  0  0  0  0  0  0  0  0  0
   50.0618   11.4304   11.3772 H   0  0  0  0  0  0  0  0  0  0  0  0
   55.1441    7.0011    7.0309 H   0  0  0  0  0  0  0  0  0  0  0  0
   53.3786    6.9752    6.8709 H   0  0  0  0  0  0  0  0  0  0  0  0
   52.0187    9.1641    7.9714 H   0  0  0  0  0  0  0  0  0  0  0  0
   52.6056    9.6235    6.3692 H   0  0  0  0  0  0  0  0  0  0  0  0
   53.9342   11.1789    7.7001 H   0  0  0  0  0  0  0  0  0  0  0  0
   53.5309    8.1078    5.0283 H   0  0  0  0  0  0  0  0  0  0  0  0
   48.1419    9.9855   12.0313 H   0  0  0  0  0  0  0  0  0  0  0  0
   48.3762    8.3561   12.6171 H   0  0  0  0  0  0  0  0  0  0  0  0
   47.6986   10.0855   14.3416 H   0  0  0  0  0  0  0  0  0  0  0  0
   49.2664   10.8698   14.1625 H   0  0  0  0  0  0  0  0  0  0  0  0
   49.5125    8.9081   19.4102 H   0  0  0  0  0  0  0  0  0  0  0  0
   48.3423    9.4714   20.5879 H   0  0  0  0  0  0  0  0  0  0  0  0
   46.8243   10.2683   18.8571 H   0  0  0  0  0  0  0  0  0  0  0  0
   48.4104   11.0037   18.6868 H   0  0  0  0  0  0  0  0  0  0  0  0
   50.3878    8.7225   14.8688 H   0  0  0  0  0  0  0  0  0  0  0  0
   48.8105    7.9686   15.0624 H   0  0  0  0  0  0  0  0  0  0  0  0
   49.8515    8.7183   17.1807 H   0  0  0  0  0  0  0  0  0  0  0  0
   49.8543   10.3907   16.6276 H   0  0  0  0  0  0  0  0  0  0  0  0
   47.3750   10.4029   16.5333 H   0  0  0  0  0  0  0  0  0  0  0  0
   47.3128    8.7059   16.9760 H   0  0  0  0  0  0  0  0  0  0  0  0
   48.1024    7.0683   20.3691 H   0  0  0  0  0  0  0  0  0  0  0  0
   47.9446    7.1670   18.6146 H   0  0  0  0  0  0  0  0  0  0  0  0
   46.6583    7.8110   19.6604 H   0  0  0  0  0  0  0  0  0  0  0  0
   52.2837   12.7378    9.7371 H   0  0  0  0  0  0  0  0  0  0  0  0
   53.4712    9.7100    9.0735 H   0  0  0  0  0  0  0  0  0  0  0  0
   55.1150    9.5220    9.7272 H   0  0  0  0  0  0  0  0  0  0  0  0
   54.2151    7.5819   11.1560 H   0  0  0  0  0  0  0  0  0  0  0  0
   54.3593    7.3149    9.4138 H   0  0  0  0  0  0  0  0  0  0  0  0
   51.9196    7.7954    9.1336 H   0  0  0  0  0  0  0  0  0  0  0  0
   52.3005    6.3620   10.0781 H   0  0  0  0  0  0  0  0  0  0  0  0
   51.4229    9.0595   11.2327 H   0  0  0  0  0  0  0  0  0  0  0  0
   51.9146    7.6596   12.1947 H   0  0  0  0  0  0  0  0  0  0  0  0
   50.0566    6.3218   11.1262 H   0  0  0  0  0  0  0  0  0  0  0  0
   49.6190    7.7253   10.1602 H   0  0  0  0  0  0  0  0  0  0  0  0
   49.1406    9.0133   12.2668 H   0  0  0  0  0  0  0  0  0  0  0  0
   48.0828    7.6387   11.9693 H   0  0  0  0  0  0  0  0  0  0  0  0
   50.4357    7.6363   13.9416 H   0  0  0  0  0  0  0  0  0  0  0  0
   49.4775    6.2305   13.5187 H   0  0  0  0  0  0  0  0  0  0  0  0
   47.4350    7.2669   14.3664 H   0  0  0  0  0  0  0  0  0  0  0  0
   48.6708    7.1442   15.6035 H   0  0  0  0  0  0  0  0  0  0  0  0
   47.9019    9.7168   14.1055 H   0  0  0  0  0  0  0  0  0  0  0  0
   47.3789    9.2251   15.7001 H   0  0  0  0  0  0  0  0  0  0  0  0
   49.9728    9.1151   16.2773 H   0  0  0  0  0  0  0  0  0  0  0  0
   49.0383   10.6018   16.3504 H   0  0  0  0  0  0  0  0  0  0  0  0
   50.8157    9.7980   13.9922 H   0  0  0  0  0  0  0  0  0  0  0  0
   49.8110   11.2441   14.0662 H   0  0  0  0  0  0  0  0  0  0  0  0
   52.1625   11.7247   14.6908 H   0  0  0  0  0  0  0  0  0  0  0  0
   52.0703   10.5593   16.0205 H   0  0  0  0  0  0  0  0  0  0  0  0
   51.0827   12.0356   16.0605 H   0  0  0  0  0  0  0  0  0  0  0  0
  1  2  1  0
  1  3  1  0
  3  6  1  0
  4  6  1  0
  4  7  2  0
  4  8  1  0
  5  9  2  0
  7  9  1  0
  5 10  1  0
  8 10  2  0
  1 11  1  0
  1 12  1  0
 12 13  1  0
 11 14  1  0
  5 15  1  0
 15 16  1  0
 17 18  1  0
 16 19  1  0
 19 20  1  0
 18 21  1  0
 20 21  1  0
 17 22  1  0
 23 24  1  0
 23 25  1  0
 23 26  2  0
 23 27  2  0
 24 28  1  0
 28 29  1  0
 29 30  1  0
 30 31  1  0
 31 32  1  0
 32 33  1  0
 33 34  1  0
 34 35  1  0
 35 36  1  0
 36 37  1  0
 37 38  1  0
 38 39  1  0
  2 40  1  0
  2 41  1  0
  3 42  1  0
  3 43  1  0
  6 44  1  0
  6 45  1  0
  7 46  1  0
  8 47  1  0
  9 48  1  0
 10 49  1  0
 11 50  1  0
 11 51  1  0
 12 52  1  0
 12 53  1  0
 13 54  1  0
 14 55  1  0
 15 56  1  0
 15 57  1  0
 16 58  1  0
 16 59  1  0
 17 60  1  0
 17 61  1  0
 18 62  1  0
 18 63  1  0
 19 64  1  0
 19 65  1  0
 20 66  1  0
 20 67  1  0
 21 68  1  0
 21 69  1  0
 22 70  1  0
 22 71  1  0
 22 72  1  0
 25 73  1  0
 28 74  1  0
 28 75  1  0
 29 76  1  0
 29 77  1  0
 30 78  1  0
 30 79  1  0
 31 80  1  0
 31 81  1  0
 32 82  1  0
 32 83  1  0
 33 84  1  0
 33 85  1  0
 34 86  1  0
 34 87  1  0
 35 88  1  0
 35 89  1  0
 36 90  1  0
 36 91  1  0
 37 92  1  0
 37 93  1  0
 38 94  1  0
 38 95  1  0
 39 96  1  0
 39 97  1  0
 39 98  1  0
M  END
> <Uni-Dock RESULT> 
ENERGY=   -4.008  LOWER_BOUND=    4.620  UPPER_BOUND=    7.202
INTER + INTRA:          -4.008
INTER:                  -4.008
INTRA:                   0.000
UNBOUND:                 0.000

$$$$

     RDKit          3D

 98 97  0  0  0  0  0  0  0  0999 V2000
   40.4230   11.8466   10.9523 C   0  0  0  0  0  0  0  0  0  0  0  0
   39.2734   11.9405   10.0039 N   0  0  0  0  0  0  0  0  0  0  0  0
   41.5125   10.9070   10.3676 C   0  0  0  0  0  0  0  0  0  0  0  0
   43.6112   12.0141    9.4168 C   0  0  0  0  0  0  0  0  0  0  0  0
   46.1231   13.1879    9.9589 C   0  0  0  0  0  0  0  0  0  0  0  0
   42.2710   11.3797    9.1166 C   0  0  0  0  0  0  0  0  0  0  0  0
   44.6254   11.2794   10.0476 C   0  0  0  0  0  0  0  0  0  0  0  0
   43.8770   13.3361    9.0413 C   0  0  0  0  0  0  0  0  0  0  0  0
   45.8640   11.8631   10.3251 C   0  0  0  0  0  0  0  0  0  0  0  0
   45.1202   13.9168    9.3067 C   0  0  0  0  0  0  0  0  0  0  0  0
   39.9280   11.2261   12.2913 C   0  0  0  0  0  0  0  0  0  0  0  0
   40.9298   13.2909   11.2035 C   0  0  0  0  0  0  0  0  0  0  0  0
   40.8747   14.0542    9.9972 O   0  0  0  0  0  0  0  0  0  0  0  0
   38.7387   11.8719   12.7493 O   0  0  0  0  0  0  0  0  0  0  0  0
   47.4602   13.8219   10.2485 C   0  0  0  0  0  0  0  0  0  0  0  0
   48.4544   13.7380    9.0834 C   0  0  0  0  0  0  0  0  0  0  0  0
   52.9002   11.4397    6.6623 C   0  0  0  0  0  0  0  0  0  0  0  0
   52.3283   12.8520    6.8170 C   0  0  0  0  0  0  0  0  0  0  0  0
   49.0287   12.3300    8.8868 C   0  0  0  0  0  0  0  0  0  0  0  0
   50.0241   12.2207    7.7258 C   0  0  0  0  0  0  0  0  0  0  0  0
   51.3015   13.0357    7.9395 C   0  0  0  0  0  0  0  0  0  0  0  0
   53.5868   10.9223    7.9180 C   0  0  0  0  0  0  0  0  0  0  0  0
   42.6435   13.0745    7.3699 S   0  0  0  0  0  0  0  0  0  0  0  0
   43.0116   11.8586    8.3815 O   0  0  0  0  0  0  0  0  0  0  0  0
   43.0787   14.3811    8.2048 O   0  0  0  0  0  0  0  0  0  0  0  0
   43.5061   12.9972    6.2155 O   0  0  0  0  0  0  0  0  0  0  0  0
   41.2078   13.1721    7.2330 O   0  0  0  0  0  0  0  0  0  0  0  0
   42.0783   11.5192    9.3907 C   0  0  0  0  0  0  0  0  0  0  0  0
   42.7027   10.5290   10.3704 C   0  0  0  0  0  0  0  0  0  0  0  0
   43.6582   11.1703   11.3833 C   0  0  0  0  0  0  0  0  0  0  0  0
   44.9744   11.6706   10.7811 C   0  0  0  0  0  0  0  0  0  0  0  0
   45.9059   12.2001   11.8758 C   0  0  0  0  0  0  0  0  0  0  0  0
   47.2283   12.7472   11.3299 C   0  0  0  0  0  0  0  0  0  0  0  0
   48.1524   11.6507   10.7924 C   0  0  0  0  0  0  0  0  0  0  0  0
   49.5435   12.1677   10.4199 C   0  0  0  0  0  0  0  0  0  0  0  0
   49.6086   13.2303    9.3167 C   0  0  0  0  0  0  0  0  0  0  0  0
   49.2044   12.7389    7.9227 C   0  0  0  0  0  0  0  0  0  0  0  0
   47.7330   12.9825    7.5853 C   0  0  0  0  0  0  0  0  0  0  0  0
   47.4208   12.5613    6.1571 C   0  0  0  0  0  0  0  0  0  0  0  0
   38.4790   12.2990   10.5504 H   0  0  0  0  0  0  0  0  0  0  0  0
   38.9755   10.9951    9.7562 H   0  0  0  0  0  0  0  0  0  0  0  0
   41.0247    9.9567   10.1056 H   0  0  0  0  0  0  0  0  0  0  0  0
   42.2185   10.6491   11.1670 H   0  0  0  0  0  0  0  0  0  0  0  0
   42.4764   10.5055    8.4836 H   0  0  0  0  0  0  0  0  0  0  0  0
   41.6518   12.0378    8.4992 H   0  0  0  0  0  0  0  0  0  0  0  0
   44.4598   10.2409   10.3236 H   0  0  0  0  0  0  0  0  0  0  0  0
   43.1104   13.9290    8.5453 H   0  0  0  0  0  0  0  0  0  0  0  0
   46.6313   11.2708   10.8207 H   0  0  0  0  0  0  0  0  0  0  0  0
   45.2970   14.9466    9.0037 H   0  0  0  0  0  0  0  0  0  0  0  0
   39.6772   10.1679   12.1534 H   0  0  0  0  0  0  0  0  0  0  0  0
   40.6917   11.2913   13.0763 H   0  0  0  0  0  0  0  0  0  0  0  0
   41.9534   13.3035   11.5894 H   0  0  0  0  0  0  0  0  0  0  0  0
   40.2968   13.8179   11.9261 H   0  0  0  0  0  0  0  0  0  0  0  0
   40.1350   13.6464    9.4971 H   0  0  0  0  0  0  0  0  0  0  0  0
   39.0029   12.6334   13.2951 H   0  0  0  0  0  0  0  0  0  0  0  0
   47.2920   14.8792   10.4925 H   0  0  0  0  0  0  0  0  0  0  0  0
   47.8954   13.3781   11.1526 H   0  0  0  0  0  0  0  0  0  0  0  0
   49.2748   14.4300    9.3047 H   0  0  0  0  0  0  0  0  0  0  0  0
   47.9868   14.0826    8.1534 H   0  0  0  0  0  0  0  0  0  0  0  0
   52.1158   10.7383    6.3607 H   0  0  0  0  0  0  0  0  0  0  0  0
   53.6303   11.4540    5.8434 H   0  0  0  0  0  0  0  0  0  0  0  0
   53.1577   13.5479    6.9954 H   0  0  0  0  0  0  0  0  0  0  0  0
   51.8740   13.1515    5.8637 H   0  0  0  0  0  0  0  0  0  0  0  0
   48.2136   11.6265    8.6864 H   0  0  0  0  0  0  0  0  0  0  0  0
   49.5126   11.9964    9.8132 H   0  0  0  0  0  0  0  0  0  0  0  0
   50.2773   11.1602    7.6111 H   0  0  0  0  0  0  0  0  0  0  0  0
   49.5384   12.5346    6.7939 H   0  0  0  0  0  0  0  0  0  0  0  0
   51.0505   14.1021    7.9824 H   0  0  0  0  0  0  0  0  0  0  0  0
   51.7500   12.7846    8.9070 H   0  0  0  0  0  0  0  0  0  0  0  0
   54.0887    9.9722    7.7074 H   0  0  0  0  0  0  0  0  0  0  0  0
   52.8650   10.7416    8.7191 H   0  0  0  0  0  0  0  0  0  0  0  0
   54.3399   11.6313    8.2761 H   0  0  0  0  0  0  0  0  0  0  0  0
   42.4020   15.0691    8.0341 H   0  0  0  0  0  0  0  0  0  0  0  0
   41.7387   12.4181    9.9184 H   0  0  0  0  0  0  0  0  0  0  0  0
   41.2111   11.0483    8.9133 H   0  0  0  0  0  0  0  0  0  0  0  0
   43.2271    9.7358    9.8234 H   0  0  0  0  0  0  0  0  0  0  0  0
   41.8906   10.0556   10.9365 H   0  0  0  0  0  0  0  0  0  0  0  0
   43.1479   11.9946   11.8961 H   0  0  0  0  0  0  0  0  0  0  0  0
   43.8863   10.4192   12.1501 H   0  0  0  0  0  0  0  0  0  0  0  0
   44.7812   12.4765   10.0654 H   0  0  0  0  0  0  0  0  0  0  0  0
   45.4551   10.8506   10.2356 H   0  0  0  0  0  0  0  0  0  0  0  0
   46.1081   11.4123   12.6109 H   0  0  0  0  0  0  0  0  0  0  0  0
   45.3959   13.0088   12.4155 H   0  0  0  0  0  0  0  0  0  0  0  0
   47.0182   13.4938   10.5558 H   0  0  0  0  0  0  0  0  0  0  0  0
   47.7406   13.2722   12.1452 H   0  0  0  0  0  0  0  0  0  0  0  0
   47.7047   11.1449    9.9317 H   0  0  0  0  0  0  0  0  0  0  0  0
   48.2762   10.8829   11.5681 H   0  0  0  0  0  0  0  0  0  0  0  0
   50.0106   12.5845   11.3214 H   0  0  0  0  0  0  0  0  0  0  0  0
   50.1650   11.3119   10.1258 H   0  0  0  0  0  0  0  0  0  0  0  0
   49.0410   14.1244    9.5961 H   0  0  0  0  0  0  0  0  0  0  0  0
   50.6574   13.5502    9.2563 H   0  0  0  0  0  0  0  0  0  0  0  0
   49.4504   11.6772    7.8043 H   0  0  0  0  0  0  0  0  0  0  0  0
   49.8126   13.2818    7.1859 H   0  0  0  0  0  0  0  0  0  0  0  0
   47.0785   12.4269    8.2631 H   0  0  0  0  0  0  0  0  0  0  0  0
   47.4942   14.0458    7.7041 H   0  0  0  0  0  0  0  0  0  0  0  0
   46.3623   12.7247    5.9365 H   0  0  0  0  0  0  0  0  0  0  0  0
   47.6375   11.4983    6.0064 H   0  0  0  0  0  0  0  0  0  0  0  0
   48.0110   13.1398    5.4385 H   0  0  0  0  0  0  0  0  0  0  0  0
  1  2  1  0
  1  3  1  0
  3  6  1  0
  4  6  1  0
  4  7  2  0
  4  8  1  0
  5  9  2  0
  7  9  1  0
  5 10  1  0
  8 10  2  0
  1 11  1  0
  1 12  1  0
 12 13  1  0
 11 14  1  0
  5 15  1  0
 15 16  1  0
 17 18  1  0
 16 19  1  0
 19 20  1  0
 18 21  1  0
 20 21  1  0
 17 22  1  0
 23 24  1  0
 23 25  1  0
 23 26  2  0
 23 27  2  0
 24 28  1  0
 28 29  1  0
 29 30  1  0
 30 31  1  0
 31 32  1  0
 32 33  1  0
 33 34  1  0
 34 35  1  0
 35 36  1  0
 36 37  1  0
 37 38  1  0
 38 39  1  0
  2 40  1  0
  2 41  1  0
  3 42  1  0
  3 43  1  0
  6 44  1  0
  6 45  1  0
  7 46  1  0
  8 47  1  0
  9 48  1  0
 10 49  1  0
 11 50  1  0
 11 51  1  0
 12 52  1  0
 12 53  1  0
 13 54  1  0
 14 55  1  0
 15 56  1  0
 15 57  1  0
 16 58  1  0
 16 59  1  0
 17 60  1  0
 17 61  1  0
 18 62  1  0
 18 63  1  0
 19 64  1  0
 19 65  1  0
 20 66  1  0
 20 67  1  0
 21 68  1  0
 21 69  1  0
 22 70  1  0
 22 71  1  0
 22 72  1  0
 25 73  1  0
 28 74  1  0
 28 75  1  0
 29 76  1  0
 29 77  1  0
 30 78  1  0
 30 79  1  0
 31 80  1  0
 31 81  1  0
 32 82  1  0
 32 83  1  0
 33 84  1  0
 33 85  1  0
 34 86  1  0
 34 87  1  0
 35 88  1  0
 35 89  1  0
 36 90  1  0
 36 91  1  0
 37 92  1  0
 37 93  1  0
 38 94  1  0
 38 95  1  0
 39 96  1  0
 39 97  1  0
 39 98  1  0
M  END
> <Uni-Dock RESULT> 
ENERGY=   -4.004  LOWER_BOUND=    6.643  UPPER_BOUND=    9.389
INTER + INTRA:          -4.004
INTER:                  -4.004
INTRA:                   0.000
UNBOUND:                 0.000

$$$$
