
     RDKit          3D

 98 97  0  0  0  0  0  0  0  0999 V2000
   44.4679    5.2898   12.0134 C   0  0  0  0  0  0  0  0  0  0  0  0
   45.4149    4.7092   12.9884 N   0  0  0  0  0  0  0  0  0  0  0  0
   44.9454    6.7043   11.5816 C   0  0  0  0  0  0  0  0  0  0  0  0
   45.5015    9.0743   12.1744 C   0  0  0  0  0  0  0  0  0  0  0  0
   46.4914   11.5039   11.1453 C   0  0  0  0  0  0  0  0  0  0  0  0
   44.9710    7.7603   12.6945 C   0  0  0  0  0  0  0  0  0  0  0  0
   46.8431    9.4285   12.3585 C   0  0  0  0  0  0  0  0  0  0  0  0
   44.6611    9.9413   11.4667 C   0  0  0  0  0  0  0  0  0  0  0  0
   47.3322   10.6346   11.8512 C   0  0  0  0  0  0  0  0  0  0  0  0
   45.1522   11.1443   10.9560 C   0  0  0  0  0  0  0  0  0  0  0  0
   44.4479    4.3619   10.7612 C   0  0  0  0  0  0  0  0  0  0  0  0
   43.0400    5.3264   12.6294 C   0  0  0  0  0  0  0  0  0  0  0  0
   42.1076    5.9953   11.7834 O   0  0  0  0  0  0  0  0  0  0  0  0
   43.5096    4.8025    9.7748 O   0  0  0  0  0  0  0  0  0  0  0  0
   47.0198   12.8072   10.5970 C   0  0  0  0  0  0  0  0  0  0  0  0
   47.3581   13.8441   11.6755 C   0  0  0  0  0  0  0  0  0  0  0  0
   46.0743   18.6100   10.8636 C   0  0  0  0  0  0  0  0  0  0  0  0
   45.9368   17.3299   11.6902 C   0  0  0  0  0  0  0  0  0  0  0  0
   46.1719   14.3166   12.5256 C   0  0  0  0  0  0  0  0  0  0  0  0
   45.0079   14.9488   11.7563 C   0  0  0  0  0  0  0  0  0  0  0  0
   45.3657   16.1581   10.8876 C   0  0  0  0  0  0  0  0  0  0  0  0
   47.0876   18.4978    9.7345 C   0  0  0  0  0  0  0  0  0  0  0  0
   44.6897    3.5727   11.5281 S   0  0  0  0  0  0  0  0  0  0  0  0
   44.8698    5.0520   12.1721 O   0  0  0  0  0  0  0  0  0  0  0  0
   43.0912    3.4377   11.3671 O   0  0  0  0  0  0  0  0  0  0  0  0
   45.0875    2.5850   12.5047 O   0  0  0  0  0  0  0  0  0  0  0  0
   45.2189    3.5576   10.1840 O   0  0  0  0  0  0  0  0  0  0  0  0
   44.8185    6.1685   11.2995 C   0  0  0  0  0  0  0  0  0  0  0  0
   44.8509    7.4439   12.1335 C   0  0  0  0  0  0  0  0  0  0  0  0
   44.8331    8.6860   11.2461 C   0  0  0  0  0  0  0  0  0  0  0  0
   44.8860    9.9706   12.0746 C   0  0  0  0  0  0  0  0  0  0  0  0
   44.8842   11.2082   11.1754 C   0  0  0  0  0  0  0  0  0  0  0  0
   44.9402   12.4964   11.9994 C   0  0  0  0  0  0  0  0  0  0  0  0
   44.8375   13.7641   11.1456 C   0  0  0  0  0  0  0  0  0  0  0  0
   45.9553   13.9618   10.1170 C   0  0  0  0  0  0  0  0  0  0  0  0
   47.3777   13.9845   10.6862 C   0  0  0  0  0  0  0  0  0  0  0  0
   47.6398   15.0353   11.7698 C   0  0  0  0  0  0  0  0  0  0  0  0
   47.4384   16.4711   11.2831 C   0  0  0  0  0  0  0  0  0  0  0  0
   47.8023   17.4751   12.3653 C   0  0  0  0  0  0  0  0  0  0  0  0
   46.3716    4.8318   12.6611 H   0  0  0  0  0  0  0  0  0  0  0  0
   45.3537    5.2003   13.8782 H   0  0  0  0  0  0  0  0  0  0  0  0
   44.3054    7.0766   10.7708 H   0  0  0  0  0  0  0  0  0  0  0  0
   45.9516    6.6215   11.1450 H   0  0  0  0  0  0  0  0  0  0  0  0
   45.5908    7.4281   13.5362 H   0  0  0  0  0  0  0  0  0  0  0  0
   43.9653    7.9266   13.1005 H   0  0  0  0  0  0  0  0  0  0  0  0
   47.5182    8.7697   12.8981 H   0  0  0  0  0  0  0  0  0  0  0  0
   43.6158    9.6833   11.3060 H   0  0  0  0  0  0  0  0  0  0  0  0
   48.3770   10.8917   12.0092 H   0  0  0  0  0  0  0  0  0  0  0  0
   44.4780   11.7973   10.4073 H   0  0  0  0  0  0  0  0  0  0  0  0
   45.4363    4.2994   10.2913 H   0  0  0  0  0  0  0  0  0  0  0  0
   44.1563    3.3441   11.0458 H   0  0  0  0  0  0  0  0  0  0  0  0
   43.0382    5.8494   13.5921 H   0  0  0  0  0  0  0  0  0  0  0  0
   42.6664    4.3140   12.8165 H   0  0  0  0  0  0  0  0  0  0  0  0
   42.1419    5.5227   10.9254 H   0  0  0  0  0  0  0  0  0  0  0  0
   43.9479    5.5021    9.2559 H   0  0  0  0  0  0  0  0  0  0  0  0
   47.9284   12.5865   10.0219 H   0  0  0  0  0  0  0  0  0  0  0  0
   46.3132   13.2305    9.8732 H   0  0  0  0  0  0  0  0  0  0  0  0
   48.1196   13.4355   12.3512 H   0  0  0  0  0  0  0  0  0  0  0  0
   47.8245   14.7092   11.1894 H   0  0  0  0  0  0  0  0  0  0  0  0
   45.0984   18.8912   10.4509 H   0  0  0  0  0  0  0  0  0  0  0  0
   46.3834   19.4234   11.5309 H   0  0  0  0  0  0  0  0  0  0  0  0
   46.9142   17.0628   12.1072 H   0  0  0  0  0  0  0  0  0  0  0  0
   45.2763   17.5397   12.5405 H   0  0  0  0  0  0  0  0  0  0  0  0
   45.7833   13.4707   13.1055 H   0  0  0  0  0  0  0  0  0  0  0  0
   46.5442   15.0335   13.2664 H   0  0  0  0  0  0  0  0  0  0  0  0
   44.2410   15.2488   12.4822 H   0  0  0  0  0  0  0  0  0  0  0  0
   44.5350   14.1936   11.1192 H   0  0  0  0  0  0  0  0  0  0  0  0
   44.4516   16.4874   10.3779 H   0  0  0  0  0  0  0  0  0  0  0  0
   46.0677   15.8553   10.1033 H   0  0  0  0  0  0  0  0  0  0  0  0
   48.0698   18.2029   10.1169 H   0  0  0  0  0  0  0  0  0  0  0  0
   46.7736   17.7676    8.9829 H   0  0  0  0  0  0  0  0  0  0  0  0
   47.1944   19.4636    9.2319 H   0  0  0  0  0  0  0  0  0  0  0  0
   42.9196    2.6347   10.8362 H   0  0  0  0  0  0  0  0  0  0  0  0
   43.9014    6.1310   10.7034 H   0  0  0  0  0  0  0  0  0  0  0  0
   45.6823    6.1378   10.6253 H   0  0  0  0  0  0  0  0  0  0  0  0
   45.7457    7.4408   12.7688 H   0  0  0  0  0  0  0  0  0  0  0  0
   43.9941    7.4508   12.8191 H   0  0  0  0  0  0  0  0  0  0  0  0
   43.9252    8.6824   10.6298 H   0  0  0  0  0  0  0  0  0  0  0  0
   45.6893    8.6578   10.5614 H   0  0  0  0  0  0  0  0  0  0  0  0
   45.7915    9.9703   12.6940 H   0  0  0  0  0  0  0  0  0  0  0  0
   44.0267   10.0051   12.7556 H   0  0  0  0  0  0  0  0  0  0  0  0
   45.7447   11.1575   10.4992 H   0  0  0  0  0  0  0  0  0  0  0  0
   43.9803   11.2083   10.5541 H   0  0  0  0  0  0  0  0  0  0  0  0
   44.1072   12.4999   12.7126 H   0  0  0  0  0  0  0  0  0  0  0  0
   45.8579   12.5158   12.5982 H   0  0  0  0  0  0  0  0  0  0  0  0
   44.7999   14.6321   11.8138 H   0  0  0  0  0  0  0  0  0  0  0  0
   43.8782   13.7555   10.6141 H   0  0  0  0  0  0  0  0  0  0  0  0
   45.7658   14.8967    9.5772 H   0  0  0  0  0  0  0  0  0  0  0  0
   45.8973   13.1711    9.3604 H   0  0  0  0  0  0  0  0  0  0  0  0
   48.0770   14.1491    9.8564 H   0  0  0  0  0  0  0  0  0  0  0  0
   47.6222   12.9962   11.0924 H   0  0  0  0  0  0  0  0  0  0  0  0
   48.6756   14.9159   12.1113 H   0  0  0  0  0  0  0  0  0  0  0  0
   47.0043   14.8463   12.6423 H   0  0  0  0  0  0  0  0  0  0  0  0
   48.0587   16.6557   10.3988 H   0  0  0  0  0  0  0  0  0  0  0  0
   46.3959   16.6348   10.9917 H   0  0  0  0  0  0  0  0  0  0  0  0
   47.1622   17.3499   13.2444 H   0  0  0  0  0  0  0  0  0  0  0  0
   48.8446   17.3548   12.6804 H   0  0  0  0  0  0  0  0  0  0  0  0
   47.6745   18.4972   11.9939 H   0  0  0  0  0  0  0  0  0  0  0  0
  1  2  1  0
  1  3  1  0
  3  6  1  0
  4  6  1  0
  4  7  2  0
  4  8  1  0
  5  9  2  0
  7  9  1  0
  5 10  1  0
  8 10  2  0
  1 11  1  0
  1 12  1  0
 12 13  1  0
 11 14  1  0
  5 15  1  0
 15 16  1  0
 17 18  1  0
 16 19  1  0
 19 20  1  0
 18 21  1  0
 20 21  1  0
 17 22  1  0
 23 24  1  0
 23 25  1  0
 23 26  2  0
 23 27  2  0
 24 28  1  0
 28 29  1  0
 29 30  1  0
 30 31  1  0
 31 32  1  0
 32 33  1  0
 33 34  1  0
 34 35  1  0
 35 36  1  0
 36 37  1  0
 37 38  1  0
 38 39  1  0
  2 40  1  0
  2 41  1  0
  3 42  1  0
  3 43  1  0
  6 44  1  0
  6 45  1  0
  7 46  1  0
  8 47  1  0
  9 48  1  0
 10 49  1  0
 11 50  1  0
 11 51  1  0
 12 52  1  0
 12 53  1  0
 13 54  1  0
 14 55  1  0
 15 56  1  0
 15 57  1  0
 16 58  1  0
 16 59  1  0
 17 60  1  0
 17 61  1  0
 18 62  1  0
 18 63  1  0
 19 64  1  0
 19 65  1  0
 20 66  1  0
 20 67  1  0
 21 68  1  0
 21 69  1  0
 22 70  1  0
 22 71  1  0
 22 72  1  0
 25 73  1  0
 28 74  1  0
 28 75  1  0
 29 76  1  0
 29 77  1  0
 30 78  1  0
 30 79  1  0
 31 80  1  0
 31 81  1  0
 32 82  1  0
 32 83  1  0
 33 84  1  0
 33 85  1  0
 34 86  1  0
 34 87  1  0
 35 88  1  0
 35 89  1  0
 36 90  1  0
 36 91  1  0
 37 92  1  0
 37 93  1  0
 38 94  1  0
 38 95  1  0
 39 96  1  0
 39 97  1  0
 39 98  1  0
M  END
> <Uni-Dock RESULT> 
ENERGY=   -6.028  LOWER_BOUND=    0.000  UPPER_BOUND=    0.000
INTER + INTRA:          -6.028
INTER:                  -6.028
INTRA:                   0.000
UNBOUND:                 0.000

$$$$

     RDKit          3D

 98 97  0  0  0  0  0  0  0  0999 V2000
   44.8037    4.5697   11.8281 C   0  0  0  0  0  0  0  0  0  0  0  0
   45.5812    3.3181   11.7124 N   0  0  0  0  0  0  0  0  0  0  0  0
   45.7631    5.7900   11.9039 C   0  0  0  0  0  0  0  0  0  0  0  0
   47.5921    7.0342   13.0806 C   0  0  0  0  0  0  0  0  0  0  0  0
   49.2852    9.2809   12.9163 C   0  0  0  0  0  0  0  0  0  0  0  0
   46.6687    5.8416   13.1416 C   0  0  0  0  0  0  0  0  0  0  0  0
   48.9069    6.8993   12.6198 C   0  0  0  0  0  0  0  0  0  0  0  0
   47.1292    8.3016   13.4525 C   0  0  0  0  0  0  0  0  0  0  0  0
   49.7467    8.0128   12.5420 C   0  0  0  0  0  0  0  0  0  0  0  0
   47.9680    9.4145   13.3698 C   0  0  0  0  0  0  0  0  0  0  0  0
   43.9230    4.7012   10.5489 C   0  0  0  0  0  0  0  0  0  0  0  0
   43.8702    4.4924   13.0700 C   0  0  0  0  0  0  0  0  0  0  0  0
   43.1897    5.7226   13.3073 O   0  0  0  0  0  0  0  0  0  0  0  0
   43.0784    5.8555   10.5883 O   0  0  0  0  0  0  0  0  0  0  0  0
   50.1926   10.4842   12.8322 C   0  0  0  0  0  0  0  0  0  0  0  0
   51.3289   10.4796   13.8626 C   0  0  0  0  0  0  0  0  0  0  0  0
   52.4412   14.7708   16.1799 C   0  0  0  0  0  0  0  0  0  0  0  0
   51.9479   13.3242   16.2493 C   0  0  0  0  0  0  0  0  0  0  0  0
   50.8834   10.5215   15.3299 C   0  0  0  0  0  0  0  0  0  0  0  0
   50.0228   11.7229   15.7331 C   0  0  0  0  0  0  0  0  0  0  0  0
   50.6441   13.0992   15.4792 C   0  0  0  0  0  0  0  0  0  0  0  0
   52.8409   15.2095   14.7792 C   0  0  0  0  0  0  0  0  0  0  0  0
   43.9629    3.5759   10.5879 S   0  0  0  0  0  0  0  0  0  0  0  0
   45.0570    4.2097   11.6059 O   0  0  0  0  0  0  0  0  0  0  0  0
   42.5594    3.9097   11.3078 O   0  0  0  0  0  0  0  0  0  0  0  0
   44.0945    2.1371   10.5952 O   0  0  0  0  0  0  0  0  0  0  0  0
   43.9542    4.3245    9.3524 O   0  0  0  0  0  0  0  0  0  0  0  0
   45.3017    5.6047   11.5356 C   0  0  0  0  0  0  0  0  0  0  0  0
   46.2348    5.9963   12.6755 C   0  0  0  0  0  0  0  0  0  0  0  0
   46.5650    7.4862   12.6334 C   0  0  0  0  0  0  0  0  0  0  0  0
   47.5175    7.8840   13.7621 C   0  0  0  0  0  0  0  0  0  0  0  0
   47.8545    9.3749   13.7008 C   0  0  0  0  0  0  0  0  0  0  0  0
   48.8098    9.7775   14.8263 C   0  0  0  0  0  0  0  0  0  0  0  0
   49.0953   11.2819   14.8666 C   0  0  0  0  0  0  0  0  0  0  0  0
   49.7669   11.8619   13.6179 C   0  0  0  0  0  0  0  0  0  0  0  0
   51.1017   11.2181   13.2287 C   0  0  0  0  0  0  0  0  0  0  0  0
   52.1853   11.2361   14.3115 C   0  0  0  0  0  0  0  0  0  0  0  0
   52.5926   12.6471   14.7381 C   0  0  0  0  0  0  0  0  0  0  0  0
   53.7341   12.6107   15.7418 C   0  0  0  0  0  0  0  0  0  0  0  0
   46.3079    3.4228   11.0064 H   0  0  0  0  0  0  0  0  0  0  0  0
   46.0616    3.1166   12.5872 H   0  0  0  0  0  0  0  0  0  0  0  0
   45.1794    6.7193   11.8676 H   0  0  0  0  0  0  0  0  0  0  0  0
   46.3915    5.8042   11.0011 H   0  0  0  0  0  0  0  0  0  0  0  0
   47.2662    4.9259   13.2287 H   0  0  0  0  0  0  0  0  0  0  0  0
   46.0731    5.9083   14.0606 H   0  0  0  0  0  0  0  0  0  0  0  0
   49.2884    5.9275   12.3181 H   0  0  0  0  0  0  0  0  0  0  0  0
   46.1084    8.4309   13.8077 H   0  0  0  0  0  0  0  0  0  0  0  0
   50.7658    7.8847   12.1847 H   0  0  0  0  0  0  0  0  0  0  0  0
   47.5814   10.3878   13.6620 H   0  0  0  0  0  0  0  0  0  0  0  0
   44.5367    4.7555    9.6422 H   0  0  0  0  0  0  0  0  0  0  0  0
   43.2662    3.8293   10.4473 H   0  0  0  0  0  0  0  0  0  0  0  0
   44.4375    4.2550   13.9768 H   0  0  0  0  0  0  0  0  0  0  0  0
   43.1192    3.7044   12.9490 H   0  0  0  0  0  0  0  0  0  0  0  0
   42.7071    5.9227   12.4780 H   0  0  0  0  0  0  0  0  0  0  0  0
   43.6185    6.6147   10.3009 H   0  0  0  0  0  0  0  0  0  0  0  0
   50.6292   10.5067   11.8253 H   0  0  0  0  0  0  0  0  0  0  0  0
   49.6087   11.4084   12.9167 H   0  0  0  0  0  0  0  0  0  0  0  0
   51.9491    9.5859   13.7208 H   0  0  0  0  0  0  0  0  0  0  0  0
   51.9854   11.3335   13.6574 H   0  0  0  0  0  0  0  0  0  0  0  0
   51.6680   15.4449   16.5663 H   0  0  0  0  0  0  0  0  0  0  0  0
   53.3111   14.8737   16.8396 H   0  0  0  0  0  0  0  0  0  0  0  0
   52.7309   12.6572   15.8715 H   0  0  0  0  0  0  0  0  0  0  0  0
   51.7925   13.0648   17.3038 H   0  0  0  0  0  0  0  0  0  0  0  0
   50.3288    9.6052   15.5654 H   0  0  0  0  0  0  0  0  0  0  0  0
   51.7787   10.4931   15.9616 H   0  0  0  0  0  0  0  0  0  0  0  0
   49.7879   11.6320   16.8016 H   0  0  0  0  0  0  0  0  0  0  0  0
   49.0603   11.6769   15.2122 H   0  0  0  0  0  0  0  0  0  0  0  0
   49.9140   13.8588   15.7856 H   0  0  0  0  0  0  0  0  0  0  0  0
   50.8069   13.2392   14.4052 H   0  0  0  0  0  0  0  0  0  0  0  0
   53.6027   14.5435   14.3620 H   0  0  0  0  0  0  0  0  0  0  0  0
   51.9823   15.2232   14.1013 H   0  0  0  0  0  0  0  0  0  0  0  0
   53.2540   16.2220   14.8090 H   0  0  0  0  0  0  0  0  0  0  0  0
   41.8486    3.6980   10.6705 H   0  0  0  0  0  0  0  0  0  0  0  0
   44.3569    6.1511   11.6172 H   0  0  0  0  0  0  0  0  0  0  0  0
   45.7666    5.8401   10.5712 H   0  0  0  0  0  0  0  0  0  0  0  0
   47.1537    5.3993   12.6152 H   0  0  0  0  0  0  0  0  0  0  0  0
   45.7673    5.7347   13.6332 H   0  0  0  0  0  0  0  0  0  0  0  0
   45.6383    8.0687   12.7111 H   0  0  0  0  0  0  0  0  0  0  0  0
   47.0216    7.7317   11.6670 H   0  0  0  0  0  0  0  0  0  0  0  0
   48.4413    7.2971   13.6861 H   0  0  0  0  0  0  0  0  0  0  0  0
   47.0603    7.6461   14.7305 H   0  0  0  0  0  0  0  0  0  0  0  0
   48.3059    9.5975   12.7277 H   0  0  0  0  0  0  0  0  0  0  0  0
   46.9313    9.9625   13.7745 H   0  0  0  0  0  0  0  0  0  0  0  0
   48.3684    9.4906   15.7884 H   0  0  0  0  0  0  0  0  0  0  0  0
   49.7468    9.2159   14.7381 H   0  0  0  0  0  0  0  0  0  0  0  0
   49.7143   11.4958   15.7454 H   0  0  0  0  0  0  0  0  0  0  0  0
   48.1517   11.8165   15.0297 H   0  0  0  0  0  0  0  0  0  0  0  0
   49.9146   12.9368   13.7735 H   0  0  0  0  0  0  0  0  0  0  0  0
   49.0820   11.7818   12.7662 H   0  0  0  0  0  0  0  0  0  0  0  0
   51.4834   11.7314   12.3367 H   0  0  0  0  0  0  0  0  0  0  0  0
   50.9290   10.1790   12.9253 H   0  0  0  0  0  0  0  0  0  0  0  0
   53.0657   10.7145   13.9157 H   0  0  0  0  0  0  0  0  0  0  0  0
   51.8562   10.6641   15.1864 H   0  0  0  0  0  0  0  0  0  0  0  0
   52.9036   13.2266   13.8614 H   0  0  0  0  0  0  0  0  0  0  0  0
   51.7450   13.1703   15.1924 H   0  0  0  0  0  0  0  0  0  0  0  0
   53.4354   12.0823   16.6528 H   0  0  0  0  0  0  0  0  0  0  0  0
   54.6108   12.1042   15.3236 H   0  0  0  0  0  0  0  0  0  0  0  0
   54.0285   13.6281   16.0193 H   0  0  0  0  0  0  0  0  0  0  0  0
  1  2  1  0
  1  3  1  0
  3  6  1  0
  4  6  1  0
  4  7  2  0
  4  8  1  0
  5  9  2  0
  7  9  1  0
  5 10  1  0
  8 10  2  0
  1 11  1  0
  1 12  1  0
 12 13  1  0
 11 14  1  0
  5 15  1  0
 15 16  1  0
 17 18  1  0
 16 19  1  0
 19 20  1  0
 18 21  1  0
 20 21  1  0
 17 22  1  0
 23 24  1  0
 23 25  1  0
 23 26  2  0
 23 27  2  0
 24 28  1  0
 28 29  1  0
 29 30  1  0
 30 31  1  0
 31 32  1  0
 32 33  1  0
 33 34  1  0
 34 35  1  0
 35 36  1  0
 36 37  1  0
 37 38  1  0
 38 39  1  0
  2 40  1  0
  2 41  1  0
  3 42  1  0
  3 43  1  0
  6 44  1  0
  6 45  1  0
  7 46  1  0
  8 47  1  0
  9 48  1  0
 10 49  1  0
 11 50  1  0
 11 51  1  0
 12 52  1  0
 12 53  1  0
 13 54  1  0
 14 55  1  0
 15 56  1  0
 15 57  1  0
 16 58  1  0
 16 59  1  0
 17 60  1  0
 17 61  1  0
 18 62  1  0
 18 63  1  0
 19 64  1  0
 19 65  1  0
 20 66  1  0
 20 67  1  0
 21 68  1  0
 21 69  1  0
 22 70  1  0
 22 71  1  0
 22 72  1  0
 25 73  1  0
 28 74  1  0
 28 75  1  0
 29 76  1  0
 29 77  1  0
 30 78  1  0
 30 79  1  0
 31 80  1  0
 31 81  1  0
 32 82  1  0
 32 83  1  0
 33 84  1  0
 33 85  1  0
 34 86  1  0
 34 87  1  0
 35 88  1  0
 35 89  1  0
 36 90  1  0
 36 91  1  0
 37 92  1  0
 37 93  1  0
 38 94  1  0
 38 95  1  0
 39 96  1  0
 39 97  1  0
 39 98  1  0
M  END
> <Uni-Dock RESULT> 
ENERGY=   -5.842  LOWER_BOUND=    3.964  UPPER_BOUND=    4.746
INTER + INTRA:          -5.842
INTER:                  -5.842
INTRA:                   0.000
UNBOUND:                 0.000

$$$$

     RDKit          3D

 98 97  0  0  0  0  0  0  0  0999 V2000
   44.5374    4.5522   12.1869 C   0  0  0  0  0  0  0  0  0  0  0  0
   45.0173    3.4299   13.0203 N   0  0  0  0  0  0  0  0  0  0  0  0
   45.6896    5.5653   11.9395 C   0  0  0  0  0  0  0  0  0  0  0  0
   47.3694    7.1928   12.8380 C   0  0  0  0  0  0  0  0  0  0  0  0
   49.5030    8.8882   12.1204 C   0  0  0  0  0  0  0  0  0  0  0  0
   46.2208    6.2788   13.1898 C   0  0  0  0  0  0  0  0  0  0  0  0
   48.6947    6.7744   13.0042 C   0  0  0  0  0  0  0  0  0  0  0  0
   47.1198    8.4625   12.3046 C   0  0  0  0  0  0  0  0  0  0  0  0
   49.7519    7.6167   12.6517 C   0  0  0  0  0  0  0  0  0  0  0  0
   48.1771    9.3016   11.9482 C   0  0  0  0  0  0  0  0  0  0  0  0
   44.0815    3.9649   10.8171 C   0  0  0  0  0  0  0  0  0  0  0  0
   43.3142    5.2263   12.8719 C   0  0  0  0  0  0  0  0  0  0  0  0
   42.8881    6.3966   12.1780 O   0  0  0  0  0  0  0  0  0  0  0  0
   43.5371    4.9661    9.9519 O   0  0  0  0  0  0  0  0  0  0  0  0
   50.6452    9.7985   11.7394 C   0  0  0  0  0  0  0  0  0  0  0  0
   51.4354   10.3400   12.9374 C   0  0  0  0  0  0  0  0  0  0  0  0
   52.8209   15.1461   12.8828 C   0  0  0  0  0  0  0  0  0  0  0  0
   52.0165   14.0129   13.5229 C   0  0  0  0  0  0  0  0  0  0  0  0
   50.6365   11.2231   13.9043 C   0  0  0  0  0  0  0  0  0  0  0  0
   49.9908   12.4701   13.2925 C   0  0  0  0  0  0  0  0  0  0  0  0
   50.9487   13.4363   12.5897 C   0  0  0  0  0  0  0  0  0  0  0  0
   53.6665   14.6977   11.7004 C   0  0  0  0  0  0  0  0  0  0  0  0
   43.8569    3.0601   11.4498 S   0  0  0  0  0  0  0  0  0  0  0  0
   44.7536    4.1211   12.2897 O   0  0  0  0  0  0  0  0  0  0  0  0
   42.4240    3.7923   11.3507 O   0  0  0  0  0  0  0  0  0  0  0  0
   43.6567    1.8762   12.2536 O   0  0  0  0  0  0  0  0  0  0  0  0
   44.3450    2.9746   10.0928 O   0  0  0  0  0  0  0  0  0  0  0  0
   45.3136    5.2199   11.5900 C   0  0  0  0  0  0  0  0  0  0  0  0
   45.9727    6.1566   12.5958 C   0  0  0  0  0  0  0  0  0  0  0  0
   46.6265    7.3466   11.8979 C   0  0  0  0  0  0  0  0  0  0  0  0
   47.3081    8.2812   12.8986 C   0  0  0  0  0  0  0  0  0  0  0  0
   47.9737    9.4609   12.1875 C   0  0  0  0  0  0  0  0  0  0  0  0
   48.6598   10.3976   13.1841 C   0  0  0  0  0  0  0  0  0  0  0  0
   49.2531   11.6479   12.5273 C   0  0  0  0  0  0  0  0  0  0  0  0
   50.3449   11.3925   11.4835 C   0  0  0  0  0  0  0  0  0  0  0  0
   51.5562   10.5954   11.9788 C   0  0  0  0  0  0  0  0  0  0  0  0
   52.2880   11.1871   13.1876 C   0  0  0  0  0  0  0  0  0  0  0  0
   52.8718   12.5756   12.9227 C   0  0  0  0  0  0  0  0  0  0  0  0
   53.6668   13.0756   14.1184 C   0  0  0  0  0  0  0  0  0  0  0  0
   45.9101    3.0898   12.6669 H   0  0  0  0  0  0  0  0  0  0  0  0
   45.1899    3.7440   13.9733 H   0  0  0  0  0  0  0  0  0  0  0  0
   45.3597    6.3294   11.2233 H   0  0  0  0  0  0  0  0  0  0  0  0
   46.5223    5.0425   11.4461 H   0  0  0  0  0  0  0  0  0  0  0  0
   46.5531    5.5543   13.9433 H   0  0  0  0  0  0  0  0  0  0  0  0
   45.4327    6.8763   13.6649 H   0  0  0  0  0  0  0  0  0  0  0  0
   48.9156    5.7905   13.4095 H   0  0  0  0  0  0  0  0  0  0  0  0
   46.0970    8.8062   12.1607 H   0  0  0  0  0  0  0  0  0  0  0  0
   50.7738    7.2728   12.7929 H   0  0  0  0  0  0  0  0  0  0  0  0
   47.9544   10.2815   11.5331 H   0  0  0  0  0  0  0  0  0  0  0  0
   44.9104    3.4733   10.2946 H   0  0  0  0  0  0  0  0  0  0  0  0
   43.2978    3.2130   10.9668 H   0  0  0  0  0  0  0  0  0  0  0  0
   43.5517    5.5260   13.8987 H   0  0  0  0  0  0  0  0  0  0  0  0
   42.4661    4.5358   12.9301 H   0  0  0  0  0  0  0  0  0  0  0  0
   42.7010    6.1072   11.2604 H   0  0  0  0  0  0  0  0  0  0  0  0
   44.2898    5.4085    9.5178 H   0  0  0  0  0  0  0  0  0  0  0  0
   51.3276    9.2300   11.0941 H   0  0  0  0  0  0  0  0  0  0  0  0
   50.2819   10.6269   11.1198 H   0  0  0  0  0  0  0  0  0  0  0  0
   51.8548    9.5028   13.5088 H   0  0  0  0  0  0  0  0  0  0  0  0
   52.2965   10.9028   12.5580 H   0  0  0  0  0  0  0  0  0  0  0  0
   52.1437   15.9469   12.5637 H   0  0  0  0  0  0  0  0  0  0  0  0
   53.4839   15.5749   13.6437 H   0  0  0  0  0  0  0  0  0  0  0  0
   52.7020   13.2226   13.8481 H   0  0  0  0  0  0  0  0  0  0  0  0
   51.5321   14.4037   14.4262 H   0  0  0  0  0  0  0  0  0  0  0  0
   49.8489   10.6225   14.3753 H   0  0  0  0  0  0  0  0  0  0  0  0
   51.3015   11.5270   14.7210 H   0  0  0  0  0  0  0  0  0  0  0  0
   49.4658   13.0102   14.0911 H   0  0  0  0  0  0  0  0  0  0  0  0
   49.2166   12.1702   12.5779 H   0  0  0  0  0  0  0  0  0  0  0  0
   50.3523   14.2604   12.1786 H   0  0  0  0  0  0  0  0  0  0  0  0
   51.4184   12.9359   11.7362 H   0  0  0  0  0  0  0  0  0  0  0  0
   54.3430   13.8865   11.9873 H   0  0  0  0  0  0  0  0  0  0  0  0
   53.0450   14.3541   10.8682 H   0  0  0  0  0  0  0  0  0  0  0  0
   54.2723   15.5330   11.3369 H   0  0  0  0  0  0  0  0  0  0  0  0
   41.8798    3.2813   10.7191 H   0  0  0  0  0  0  0  0  0  0  0  0
   44.5281    5.7487   11.0410 H   0  0  0  0  0  0  0  0  0  0  0  0
   46.0588    4.8498   10.8764 H   0  0  0  0  0  0  0  0  0  0  0  0
   46.7168    5.5993   13.1789 H   0  0  0  0  0  0  0  0  0  0  0  0
   45.2208    6.5015   13.3170 H   0  0  0  0  0  0  0  0  0  0  0  0
   45.8671    7.9022   11.3333 H   0  0  0  0  0  0  0  0  0  0  0  0
   47.3668    6.9839   11.1746 H   0  0  0  0  0  0  0  0  0  0  0  0
   48.0633    7.7231   13.4658 H   0  0  0  0  0  0  0  0  0  0  0  0
   46.5685    8.6514   13.6193 H   0  0  0  0  0  0  0  0  0  0  0  0
   48.7057    9.0758   11.4692 H   0  0  0  0  0  0  0  0  0  0  0  0
   47.2198   10.0183   11.6183 H   0  0  0  0  0  0  0  0  0  0  0  0
   47.9258   10.7233   13.9309 H   0  0  0  0  0  0  0  0  0  0  0  0
   49.4364    9.8530   13.7332 H   0  0  0  0  0  0  0  0  0  0  0  0
   49.6474   12.3011   13.3142 H   0  0  0  0  0  0  0  0  0  0  0  0
   48.4445   12.2131   12.0484 H   0  0  0  0  0  0  0  0  0  0  0  0
   50.6823   12.3598   11.0936 H   0  0  0  0  0  0  0  0  0  0  0  0
   49.9115   10.8669   10.6251 H   0  0  0  0  0  0  0  0  0  0  0  0
   52.2662   10.4978   11.1475 H   0  0  0  0  0  0  0  0  0  0  0  0
   51.2427    9.5746   12.2262 H   0  0  0  0  0  0  0  0  0  0  0  0
   53.1022   10.5026   13.4565 H   0  0  0  0  0  0  0  0  0  0  0  0
   51.6186   11.2249   14.0544 H   0  0  0  0  0  0  0  0  0  0  0  0
   53.5263   12.5436   12.0443 H   0  0  0  0  0  0  0  0  0  0  0  0
   52.0731   13.2934   12.7099 H   0  0  0  0  0  0  0  0  0  0  0  0
   53.0261   13.1687   15.0011 H   0  0  0  0  0  0  0  0  0  0  0  0
   54.4869   12.3910   14.3608 H   0  0  0  0  0  0  0  0  0  0  0  0
   54.0965   14.0597   13.9043 H   0  0  0  0  0  0  0  0  0  0  0  0
  1  2  1  0
  1  3  1  0
  3  6  1  0
  4  6  1  0
  4  7  2  0
  4  8  1  0
  5  9  2  0
  7  9  1  0
  5 10  1  0
  8 10  2  0
  1 11  1  0
  1 12  1  0
 12 13  1  0
 11 14  1  0
  5 15  1  0
 15 16  1  0
 17 18  1  0
 16 19  1  0
 19 20  1  0
 18 21  1  0
 20 21  1  0
 17 22  1  0
 23 24  1  0
 23 25  1  0
 23 26  2  0
 23 27  2  0
 24 28  1  0
 28 29  1  0
 29 30  1  0
 30 31  1  0
 31 32  1  0
 32 33  1  0
 33 34  1  0
 34 35  1  0
 35 36  1  0
 36 37  1  0
 37 38  1  0
 38 39  1  0
  2 40  1  0
  2 41  1  0
  3 42  1  0
  3 43  1  0
  6 44  1  0
  6 45  1  0
  7 46  1  0
  8 47  1  0
  9 48  1  0
 10 49  1  0
 11 50  1  0
 11 51  1  0
 12 52  1  0
 12 53  1  0
 13 54  1  0
 14 55  1  0
 15 56  1  0
 15 57  1  0
 16 58  1  0
 16 59  1  0
 17 60  1  0
 17 61  1  0
 18 62  1  0
 18 63  1  0
 19 64  1  0
 19 65  1  0
 20 66  1  0
 20 67  1  0
 21 68  1  0
 21 69  1  0
 22 70  1  0
 22 71  1  0
 22 72  1  0
 25 73  1  0
 28 74  1  0
 28 75  1  0
 29 76  1  0
 29 77  1  0
 30 78  1  0
 30 79  1  0
 31 80  1  0
 31 81  1  0
 32 82  1  0
 32 83  1  0
 33 84  1  0
 33 85  1  0
 34 86  1  0
 34 87  1  0
 35 88  1  0
 35 89  1  0
 36 90  1  0
 36 91  1  0
 37 92  1  0
 37 93  1  0
 38 94  1  0
 38 95  1  0
 39 96  1  0
 39 97  1  0
 39 98  1  0
M  END
> <Uni-Dock RESULT> 
ENERGY=   -5.801  LOWER_BOUND=    3.471  UPPER_BOUND=    4.246
INTER + INTRA:          -5.801
INTER:                  -5.801
INTRA:                   0.000
UNBOUND:                 0.000

$$$$

     RDKit          3D

 98 97  0  0  0  0  0  0  0  0999 V2000
   44.2884    5.8614   11.7476 C   0  0  0  0  0  0  0  0  0  0  0  0
   43.3080    6.9427   11.5151 N   0  0  0  0  0  0  0  0  0  0  0  0
   45.5715    6.4365   12.4096 C   0  0  0  0  0  0  0  0  0  0  0  0
   47.5552    7.9642   12.3164 C   0  0  0  0  0  0  0  0  0  0  0  0
   49.7634    8.9167   13.7855 C   0  0  0  0  0  0  0  0  0  0  0  0
   46.3661    7.4319   11.5539 C   0  0  0  0  0  0  0  0  0  0  0  0
   47.4905    9.1978   12.9745 C   0  0  0  0  0  0  0  0  0  0  0  0
   48.7301    7.2085   12.4038 C   0  0  0  0  0  0  0  0  0  0  0  0
   48.5866    9.6710   13.6996 C   0  0  0  0  0  0  0  0  0  0  0  0
   49.8233    7.6803   13.1327 C   0  0  0  0  0  0  0  0  0  0  0  0
   43.6381    4.8327   12.7213 C   0  0  0  0  0  0  0  0  0  0  0  0
   44.6048    5.1446   10.4038 C   0  0  0  0  0  0  0  0  0  0  0  0
   45.6420    4.1764   10.5433 O   0  0  0  0  0  0  0  0  0  0  0  0
   44.4858    3.7060   12.9651 O   0  0  0  0  0  0  0  0  0  0  0  0
   50.9480    9.4279   14.5690 C   0  0  0  0  0  0  0  0  0  0  0  0
   51.6450   10.6339   13.9267 C   0  0  0  0  0  0  0  0  0  0  0  0
   56.6457   10.7513   13.9194 C   0  0  0  0  0  0  0  0  0  0  0  0
   55.3269   10.7013   13.1455 C   0  0  0  0  0  0  0  0  0  0  0  0
   52.2659   10.3745   12.5481 C   0  0  0  0  0  0  0  0  0  0  0  0
   53.3182    9.2630   12.4874 C   0  0  0  0  0  0  0  0  0  0  0  0
   54.5172    9.4325   13.4247 C   0  0  0  0  0  0  0  0  0  0  0  0
   56.4621   10.8385   15.4270 C   0  0  0  0  0  0  0  0  0  0  0  0
   42.6902    5.1949   12.2318 S   0  0  0  0  0  0  0  0  0  0  0  0
   43.9256    6.1780   11.8540 O   0  0  0  0  0  0  0  0  0  0  0  0
   43.0284    3.8516   11.4069 O   0  0  0  0  0  0  0  0  0  0  0  0
   41.4748    5.7298   11.6623 O   0  0  0  0  0  0  0  0  0  0  0  0
   42.7688    4.8256   13.6262 O   0  0  0  0  0  0  0  0  0  0  0  0
   45.1495    6.0060   12.5491 C   0  0  0  0  0  0  0  0  0  0  0  0
   46.1990    6.9193   11.9263 C   0  0  0  0  0  0  0  0  0  0  0  0
   47.5352    6.8050   12.6559 C   0  0  0  0  0  0  0  0  0  0  0  0
   48.5887    7.7337   12.0500 C   0  0  0  0  0  0  0  0  0  0  0  0
   49.9183    7.6233   12.7984 C   0  0  0  0  0  0  0  0  0  0  0  0
   50.9751    8.5529   12.1980 C   0  0  0  0  0  0  0  0  0  0  0  0
   52.3527    8.4018   12.8506 C   0  0  0  0  0  0  0  0  0  0  0  0
   52.4157    8.7259   14.3465 C   0  0  0  0  0  0  0  0  0  0  0  0
   51.9474   10.1318   14.7361 C   0  0  0  0  0  0  0  0  0  0  0  0
   52.6775   11.2876   14.0446 C   0  0  0  0  0  0  0  0  0  0  0  0
   54.1761   11.3254   14.3472 C   0  0  0  0  0  0  0  0  0  0  0  0
   54.8344   12.5421   13.7164 C   0  0  0  0  0  0  0  0  0  0  0  0
   43.2200    7.5194   12.3500 H   0  0  0  0  0  0  0  0  0  0  0  0
   43.6317    7.5620   10.7746 H   0  0  0  0  0  0  0  0  0  0  0  0
   46.2420    5.6129   12.6884 H   0  0  0  0  0  0  0  0  0  0  0  0
   45.2951    6.9217   13.3574 H   0  0  0  0  0  0  0  0  0  0  0  0
   45.7335    8.2709   11.2393 H   0  0  0  0  0  0  0  0  0  0  0  0
   46.7267    6.9569   10.6330 H   0  0  0  0  0  0  0  0  0  0  0  0
   46.5874    9.8006   12.9284 H   0  0  0  0  0  0  0  0  0  0  0  0
   48.8005    6.2434   11.9052 H   0  0  0  0  0  0  0  0  0  0  0  0
   48.5159   10.6339   14.2001 H   0  0  0  0  0  0  0  0  0  0  0  0
   50.7222    7.0711   13.1867 H   0  0  0  0  0  0  0  0  0  0  0  0
   43.3917    5.2920   13.6856 H   0  0  0  0  0  0  0  0  0  0  0  0
   42.7053    4.4434   12.2968 H   0  0  0  0  0  0  0  0  0  0  0  0
   44.9296    5.8606    9.6408 H   0  0  0  0  0  0  0  0  0  0  0  0
   43.7168    4.6395   10.0089 H   0  0  0  0  0  0  0  0  0  0  0  0
   45.3375    3.5608   11.2427 H   0  0  0  0  0  0  0  0  0  0  0  0
   45.1191    3.9696   13.6581 H   0  0  0  0  0  0  0  0  0  0  0  0
   50.5925    9.7158   15.5669 H   0  0  0  0  0  0  0  0  0  0  0  0
   51.6695    8.6200   14.7393 H   0  0  0  0  0  0  0  0  0  0  0  0
   50.9308   11.4607   13.8280 H   0  0  0  0  0  0  0  0  0  0  0  0
   52.4213   10.9912   14.6136 H   0  0  0  0  0  0  0  0  0  0  0  0
   57.2516    9.8706   13.6764 H   0  0  0  0  0  0  0  0  0  0  0  0
   57.2122   11.6287   13.5852 H   0  0  0  0  0  0  0  0  0  0  0  0
   54.7332   11.5902   13.3863 H   0  0  0  0  0  0  0  0  0  0  0  0
   55.5556   10.7539   12.0740 H   0  0  0  0  0  0  0  0  0  0  0  0
   51.4699   10.1356   11.8325 H   0  0  0  0  0  0  0  0  0  0  0  0
   52.7109   11.3101   12.1903 H   0  0  0  0  0  0  0  0  0  0  0  0
   53.6832    9.1937   11.4545 H   0  0  0  0  0  0  0  0  0  0  0  0
   52.8463    8.2979   12.7012 H   0  0  0  0  0  0  0  0  0  0  0  0
   55.1688    8.5590   13.2975 H   0  0  0  0  0  0  0  0  0  0  0  0
   54.1776    9.4185   14.4659 H   0  0  0  0  0  0  0  0  0  0  0  0
   55.8469   11.7023   15.6978 H   0  0  0  0  0  0  0  0  0  0  0  0
   55.9905    9.9365   15.8280 H   0  0  0  0  0  0  0  0  0  0  0  0
   57.4348   10.9474   15.9156 H   0  0  0  0  0  0  0  0  0  0  0  0
   42.4101    3.1590   11.7138 H   0  0  0  0  0  0  0  0  0  0  0  0
   45.4704    4.9619   12.4813 H   0  0  0  0  0  0  0  0  0  0  0  0
   45.0035    6.2654   13.6040 H   0  0  0  0  0  0  0  0  0  0  0  0
   45.8389    7.9557   11.9483 H   0  0  0  0  0  0  0  0  0  0  0  0
   46.3187    6.6639   10.8658 H   0  0  0  0  0  0  0  0  0  0  0  0
   47.8892    5.7673   12.6106 H   0  0  0  0  0  0  0  0  0  0  0  0
   47.3953    7.0535   13.7148 H   0  0  0  0  0  0  0  0  0  0  0  0
   48.2311    8.7700   12.0912 H   0  0  0  0  0  0  0  0  0  0  0  0
   48.7360    7.4827   10.9922 H   0  0  0  0  0  0  0  0  0  0  0  0
   49.7545    7.8725   13.8526 H   0  0  0  0  0  0  0  0  0  0  0  0
   50.2756    6.5870   12.7597 H   0  0  0  0  0  0  0  0  0  0  0  0
   51.0802    8.3301   11.1294 H   0  0  0  0  0  0  0  0  0  0  0  0
   50.6365    9.5931   12.2635 H   0  0  0  0  0  0  0  0  0  0  0  0
   53.0655    9.0355   12.3105 H   0  0  0  0  0  0  0  0  0  0  0  0
   52.7011    7.3720   12.7065 H   0  0  0  0  0  0  0  0  0  0  0  0
   53.4470    8.5797   14.6878 H   0  0  0  0  0  0  0  0  0  0  0  0
   51.8179    7.9949   14.9024 H   0  0  0  0  0  0  0  0  0  0  0  0
   52.0584   10.2419   15.8226 H   0  0  0  0  0  0  0  0  0  0  0  0
   50.8742   10.2263   14.5337 H   0  0  0  0  0  0  0  0  0  0  0  0
   52.2208   12.2256   14.3841 H   0  0  0  0  0  0  0  0  0  0  0  0
   52.5184   11.2421   12.9614 H   0  0  0  0  0  0  0  0  0  0  0  0
   54.3373   11.3512   15.4309 H   0  0  0  0  0  0  0  0  0  0  0  0
   54.6677   10.4251   13.9646 H   0  0  0  0  0  0  0  0  0  0  0  0
   54.7357   12.5175   12.6265 H   0  0  0  0  0  0  0  0  0  0  0  0
   54.3798   13.4697   14.0809 H   0  0  0  0  0  0  0  0  0  0  0  0
   55.9014   12.5665   13.9612 H   0  0  0  0  0  0  0  0  0  0  0  0
  1  2  1  0
  1  3  1  0
  3  6  1  0
  4  6  1  0
  4  7  2  0
  4  8  1  0
  5  9  2  0
  7  9  1  0
  5 10  1  0
  8 10  2  0
  1 11  1  0
  1 12  1  0
 12 13  1  0
 11 14  1  0
  5 15  1  0
 15 16  1  0
 17 18  1  0
 16 19  1  0
 19 20  1  0
 18 21  1  0
 20 21  1  0
 17 22  1  0
 23 24  1  0
 23 25  1  0
 23 26  2  0
 23 27  2  0
 24 28  1  0
 28 29  1  0
 29 30  1  0
 30 31  1  0
 31 32  1  0
 32 33  1  0
 33 34  1  0
 34 35  1  0
 35 36  1  0
 36 37  1  0
 37 38  1  0
 38 39  1  0
  2 40  1  0
  2 41  1  0
  3 42  1  0
  3 43  1  0
  6 44  1  0
  6 45  1  0
  7 46  1  0
  8 47  1  0
  9 48  1  0
 10 49  1  0
 11 50  1  0
 11 51  1  0
 12 52  1  0
 12 53  1  0
 13 54  1  0
 14 55  1  0
 15 56  1  0
 15 57  1  0
 16 58  1  0
 16 59  1  0
 17 60  1  0
 17 61  1  0
 18 62  1  0
 18 63  1  0
 19 64  1  0
 19 65  1  0
 20 66  1  0
 20 67  1  0
 21 68  1  0
 21 69  1  0
 22 70  1  0
 22 71  1  0
 22 72  1  0
 25 73  1  0
 28 74  1  0
 28 75  1  0
 29 76  1  0
 29 77  1  0
 30 78  1  0
 30 79  1  0
 31 80  1  0
 31 81  1  0
 32 82  1  0
 32 83  1  0
 33 84  1  0
 33 85  1  0
 34 86  1  0
 34 87  1  0
 35 88  1  0
 35 89  1  0
 36 90  1  0
 36 91  1  0
 37 92  1  0
 37 93  1  0
 38 94  1  0
 38 95  1  0
 39 96  1  0
 39 97  1  0
 39 98  1  0
M  END
> <Uni-Dock RESULT> 
ENERGY=   -5.411  LOWER_BOUND=    4.503  UPPER_BOUND=    6.466
INTER + INTRA:          -5.411
INTER:                  -5.411
INTRA:                   0.000
UNBOUND:                 0.000

$$$$

     RDKit          3D

 98 97  0  0  0  0  0  0  0  0999 V2000
   45.0779    5.6250   11.6703 C   0  0  0  0  0  0  0  0  0  0  0  0
   45.3789    5.5590   10.2248 N   0  0  0  0  0  0  0  0  0  0  0  0
   45.7338    6.8875   12.2958 C   0  0  0  0  0  0  0  0  0  0  0  0
   47.7899    8.2070   12.8517 C   0  0  0  0  0  0  0  0  0  0  0  0
   48.7065   10.6334   13.9533 C   0  0  0  0  0  0  0  0  0  0  0  0
   47.2678    6.9152   12.2708 C   0  0  0  0  0  0  0  0  0  0  0  0
   48.1569    9.2703   12.0187 C   0  0  0  0  0  0  0  0  0  0  0  0
   47.8791    8.3688   14.2390 C   0  0  0  0  0  0  0  0  0  0  0  0
   48.6145   10.4716   12.5654 C   0  0  0  0  0  0  0  0  0  0  0  0
   48.3321    9.5715   14.7843 C   0  0  0  0  0  0  0  0  0  0  0  0
   43.5310    5.7314   11.8284 C   0  0  0  0  0  0  0  0  0  0  0  0
   45.5612    4.3199   12.3651 C   0  0  0  0  0  0  0  0  0  0  0  0
   45.4144    4.3803   13.7820 O   0  0  0  0  0  0  0  0  0  0  0  0
   43.1253    5.7385   13.2005 O   0  0  0  0  0  0  0  0  0  0  0  0
   49.2010   11.9314   14.5442 C   0  0  0  0  0  0  0  0  0  0  0  0
   50.6944   12.1922   14.3107 C   0  0  0  0  0  0  0  0  0  0  0  0
   53.3932   14.0490   18.0909 C   0  0  0  0  0  0  0  0  0  0  0  0
   53.1137   12.9148   17.1027 C   0  0  0  0  0  0  0  0  0  0  0  0
   51.6455   11.1718   14.9488 C   0  0  0  0  0  0  0  0  0  0  0  0
   51.5310   11.0100   16.4677 C   0  0  0  0  0  0  0  0  0  0  0  0
   51.7295   12.2877   17.2879 C   0  0  0  0  0  0  0  0  0  0  0  0
   52.4887   15.2572   17.9001 C   0  0  0  0  0  0  0  0  0  0  0  0
   43.5429    5.1476   10.8648 S   0  0  0  0  0  0  0  0  0  0  0  0
   45.0264    5.7213   11.1894 O   0  0  0  0  0  0  0  0  0  0  0  0
   43.3455    3.9979   11.9777 O   0  0  0  0  0  0  0  0  0  0  0  0
   43.5693    4.4779    9.5848 O   0  0  0  0  0  0  0  0  0  0  0  0
   42.5528    6.1554   11.1665 O   0  0  0  0  0  0  0  0  0  0  0  0
   45.1614    6.6580   12.2454 C   0  0  0  0  0  0  0  0  0  0  0  0
   46.6438    6.9326   12.4700 C   0  0  0  0  0  0  0  0  0  0  0  0
   46.8542    7.9638   13.5760 C   0  0  0  0  0  0  0  0  0  0  0  0
   48.3388    8.2605   13.7940 C   0  0  0  0  0  0  0  0  0  0  0  0
   48.5374    9.3065   14.8924 C   0  0  0  0  0  0  0  0  0  0  0  0
   50.0211    9.6093   15.1125 C   0  0  0  0  0  0  0  0  0  0  0  0
   50.2742   10.5761   16.2734 C   0  0  0  0  0  0  0  0  0  0  0  0
   49.6550   11.9691   16.1219 C   0  0  0  0  0  0  0  0  0  0  0  0
   50.0728   12.7426   14.8670 C   0  0  0  0  0  0  0  0  0  0  0  0
   51.5800   12.9527   14.6907 C   0  0  0  0  0  0  0  0  0  0  0  0
   52.2160   13.7602   15.8232 C   0  0  0  0  0  0  0  0  0  0  0  0
   53.6892   14.0212   15.5530 C   0  0  0  0  0  0  0  0  0  0  0  0
   45.2183    6.4675    9.7931 H   0  0  0  0  0  0  0  0  0  0  0  0
   46.3630    5.3439   10.0767 H   0  0  0  0  0  0  0  0  0  0  0  0
   45.4063    6.9934   13.3386 H   0  0  0  0  0  0  0  0  0  0  0  0
   45.3522    7.7796   11.7777 H   0  0  0  0  0  0  0  0  0  0  0  0
   47.6454    6.8004   11.2475 H   0  0  0  0  0  0  0  0  0  0  0  0
   47.6846    6.0800   12.8475 H   0  0  0  0  0  0  0  0  0  0  0  0
   48.0901    9.1729   10.9384 H   0  0  0  0  0  0  0  0  0  0  0  0
   47.5931    7.5574   14.9060 H   0  0  0  0  0  0  0  0  0  0  0  0
   48.8980   11.2834   11.8997 H   0  0  0  0  0  0  0  0  0  0  0  0
   48.3883    9.6709   15.8655 H   0  0  0  0  0  0  0  0  0  0  0  0
   43.1393    6.6366   11.3498 H   0  0  0  0  0  0  0  0  0  0  0  0
   43.0397    4.8730   11.3554 H   0  0  0  0  0  0  0  0  0  0  0  0
   46.6198    4.1296   12.1562 H   0  0  0  0  0  0  0  0  0  0  0  0
   45.0035    3.4506   12.0007 H   0  0  0  0  0  0  0  0  0  0  0  0
   44.4663    4.5703   13.9423 H   0  0  0  0  0  0  0  0  0  0  0  0
   43.2265    6.6528   13.5237 H   0  0  0  0  0  0  0  0  0  0  0  0
   48.6248   12.7485   14.0909 H   0  0  0  0  0  0  0  0  0  0  0  0
   48.9722   11.9740   15.6157 H   0  0  0  0  0  0  0  0  0  0  0  0
   50.8979   12.2195   13.2331 H   0  0  0  0  0  0  0  0  0  0  0  0
   50.9331   13.1950   14.6844 H   0  0  0  0  0  0  0  0  0  0  0  0
   53.2946   13.6785   19.1178 H   0  0  0  0  0  0  0  0  0  0  0  0
   54.4346   14.3693   17.9672 H   0  0  0  0  0  0  0  0  0  0  0  0
   53.2251   13.2915   16.0799 H   0  0  0  0  0  0  0  0  0  0  0  0
   53.8803   12.1425   17.2411 H   0  0  0  0  0  0  0  0  0  0  0  0
   51.4875   10.1909   14.4843 H   0  0  0  0  0  0  0  0  0  0  0  0
   52.6735   11.4546   14.6943 H   0  0  0  0  0  0  0  0  0  0  0  0
   52.2701   10.2645   16.7889 H   0  0  0  0  0  0  0  0  0  0  0  0
   50.5528   10.5862   16.7195 H   0  0  0  0  0  0  0  0  0  0  0  0
   51.5932   12.0318   18.3461 H   0  0  0  0  0  0  0  0  0  0  0  0
   50.9466   13.0122   17.0394 H   0  0  0  0  0  0  0  0  0  0  0  0
   52.5558   15.6396   16.8767 H   0  0  0  0  0  0  0  0  0  0  0  0
   51.4432   15.0150   18.1128 H   0  0  0  0  0  0  0  0  0  0  0  0
   52.7874   16.0582   18.5826 H   0  0  0  0  0  0  0  0  0  0  0  0
   42.4091    3.7184   11.9435 H   0  0  0  0  0  0  0  0  0  0  0  0
   44.7101    6.2555   13.1576 H   0  0  0  0  0  0  0  0  0  0  0  0
   44.6444    7.5851   11.9720 H   0  0  0  0  0  0  0  0  0  0  0  0
   47.0959    7.2800   11.5324 H   0  0  0  0  0  0  0  0  0  0  0  0
   47.1528    5.9932   12.7206 H   0  0  0  0  0  0  0  0  0  0  0  0
   46.4114    7.5945   14.5096 H   0  0  0  0  0  0  0  0  0  0  0  0
   46.3312    8.8915   13.3143 H   0  0  0  0  0  0  0  0  0  0  0  0
   48.7811    8.6245   12.8584 H   0  0  0  0  0  0  0  0  0  0  0  0
   48.8634    7.3353   14.0630 H   0  0  0  0  0  0  0  0  0  0  0  0
   48.0050   10.2220   14.6119 H   0  0  0  0  0  0  0  0  0  0  0  0
   48.0934    8.9444   15.8278 H   0  0  0  0  0  0  0  0  0  0  0  0
   50.5476    8.6724   15.3310 H   0  0  0  0  0  0  0  0  0  0  0  0
   50.4620   10.0018   14.1892 H   0  0  0  0  0  0  0  0  0  0  0  0
   51.3565   10.6725   16.4170 H   0  0  0  0  0  0  0  0  0  0  0  0
   49.8899   10.1273   17.1974 H   0  0  0  0  0  0  0  0  0  0  0  0
   49.9078   12.5574   17.0114 H   0  0  0  0  0  0  0  0  0  0  0  0
   48.5624   11.8840   16.1290 H   0  0  0  0  0  0  0  0  0  0  0  0
   49.5783   13.7223   14.8870 H   0  0  0  0  0  0  0  0  0  0  0  0
   49.6858   12.2300   13.9786 H   0  0  0  0  0  0  0  0  0  0  0  0
   51.7377   13.4818   13.7425 H   0  0  0  0  0  0  0  0  0  0  0  0
   52.0882   11.9868   14.5925 H   0  0  0  0  0  0  0  0  0  0  0  0
   51.6962   14.7184   15.9355 H   0  0  0  0  0  0  0  0  0  0  0  0
   52.1250   13.2251   16.7740 H   0  0  0  0  0  0  0  0  0  0  0  0
   54.2461   13.0810   15.4880 H   0  0  0  0  0  0  0  0  0  0  0  0
   53.8271   14.5668   14.6132 H   0  0  0  0  0  0  0  0  0  0  0  0
   54.1236   14.6190   16.3610 H   0  0  0  0  0  0  0  0  0  0  0  0
  1  2  1  0
  1  3  1  0
  3  6  1  0
  4  6  1  0
  4  7  2  0
  4  8  1  0
  5  9  2  0
  7  9  1  0
  5 10  1  0
  8 10  2  0
  1 11  1  0
  1 12  1  0
 12 13  1  0
 11 14  1  0
  5 15  1  0
 15 16  1  0
 17 18  1  0
 16 19  1  0
 19 20  1  0
 18 21  1  0
 20 21  1  0
 17 22  1  0
 23 24  1  0
 23 25  1  0
 23 26  2  0
 23 27  2  0
 24 28  1  0
 28 29  1  0
 29 30  1  0
 30 31  1  0
 31 32  1  0
 32 33  1  0
 33 34  1  0
 34 35  1  0
 35 36  1  0
 36 37  1  0
 37 38  1  0
 38 39  1  0
  2 40  1  0
  2 41  1  0
  3 42  1  0
  3 43  1  0
  6 44  1  0
  6 45  1  0
  7 46  1  0
  8 47  1  0
  9 48  1  0
 10 49  1  0
 11 50  1  0
 11 51  1  0
 12 52  1  0
 12 53  1  0
 13 54  1  0
 14 55  1  0
 15 56  1  0
 15 57  1  0
 16 58  1  0
 16 59  1  0
 17 60  1  0
 17 61  1  0
 18 62  1  0
 18 63  1  0
 19 64  1  0
 19 65  1  0
 20 66  1  0
 20 67  1  0
 21 68  1  0
 21 69  1  0
 22 70  1  0
 22 71  1  0
 22 72  1  0
 25 73  1  0
 28 74  1  0
 28 75  1  0
 29 76  1  0
 29 77  1  0
 30 78  1  0
 30 79  1  0
 31 80  1  0
 31 81  1  0
 32 82  1  0
 32 83  1  0
 33 84  1  0
 33 85  1  0
 34 86  1  0
 34 87  1  0
 35 88  1  0
 35 89  1  0
 36 90  1  0
 36 91  1  0
 37 92  1  0
 37 93  1  0
 38 94  1  0
 38 95  1  0
 39 96  1  0
 39 97  1  0
 39 98  1  0
M  END
> <Uni-Dock RESULT> 
ENERGY=   -5.317  LOWER_BOUND=    4.041  UPPER_BOUND=    5.435
INTER + INTRA:          -5.317
INTER:                  -5.317
INTRA:                   0.000
UNBOUND:                 0.000

$$$$

     RDKit          3D

 98 97  0  0  0  0  0  0  0  0999 V2000
   53.2441    7.8733    8.7259 C   0  0  0  0  0  0  0  0  0  0  0  0
   52.7890    8.9170    7.7835 N   0  0  0  0  0  0  0  0  0  0  0  0
   52.3585    7.8831   10.0029 C   0  0  0  0  0  0  0  0  0  0  0  0
   51.4985    9.0784   12.0301 C   0  0  0  0  0  0  0  0  0  0  0  0
   49.7330    8.8677   14.2164 C   0  0  0  0  0  0  0  0  0  0  0  0
   52.4379    9.1592   10.8513 C   0  0  0  0  0  0  0  0  0  0  0  0
   50.2319    9.6719   11.9788 C   0  0  0  0  0  0  0  0  0  0  0  0
   51.8725    8.3739   13.1802 C   0  0  0  0  0  0  0  0  0  0  0  0
   49.3587    9.5702   13.0643 C   0  0  0  0  0  0  0  0  0  0  0  0
   50.9970    8.2689   14.2626 C   0  0  0  0  0  0  0  0  0  0  0  0
   53.0891    6.4939    8.0171 C   0  0  0  0  0  0  0  0  0  0  0  0
   54.7463    8.0936    9.0644 C   0  0  0  0  0  0  0  0  0  0  0  0
   55.2075    7.1938   10.0695 O   0  0  0  0  0  0  0  0  0  0  0  0
   53.5637    5.4126    8.8252 O   0  0  0  0  0  0  0  0  0  0  0  0
   48.7895    8.7576   15.3895 C   0  0  0  0  0  0  0  0  0  0  0  0
   48.5727   10.0780   16.1395 C   0  0  0  0  0  0  0  0  0  0  0  0
   48.4653    9.9711   21.1393 C   0  0  0  0  0  0  0  0  0  0  0  0
   49.1253   10.4495   19.8446 C   0  0  0  0  0  0  0  0  0  0  0  0
   49.8253   10.6722   16.7960 C   0  0  0  0  0  0  0  0  0  0  0  0
   50.5325    9.7773   17.8186 C   0  0  0  0  0  0  0  0  0  0  0  0
   49.6711    9.3014   18.9917 C   0  0  0  0  0  0  0  0  0  0  0  0
   47.2092    9.1440   20.9109 C   0  0  0  0  0  0  0  0  0  0  0  0
   53.2710    7.1159    7.0954 S   0  0  0  0  0  0  0  0  0  0  0  0
   52.9720    8.0773    8.3688 O   0  0  0  0  0  0  0  0  0  0  0  0
   54.7344    6.5234    7.4221 O   0  0  0  0  0  0  0  0  0  0  0  0
   53.4154    7.9347    5.9138 O   0  0  0  0  0  0  0  0  0  0  0  0
   52.3773    5.9810    7.1199 O   0  0  0  0  0  0  0  0  0  0  0  0
   52.5091    7.4728    9.5650 C   0  0  0  0  0  0  0  0  0  0  0  0
   52.4495    8.5331   10.6584 C   0  0  0  0  0  0  0  0  0  0  0  0
   51.9235    7.9493   11.9673 C   0  0  0  0  0  0  0  0  0  0  0  0
   51.8411    9.0117   13.0646 C   0  0  0  0  0  0  0  0  0  0  0  0
   51.2977    8.4200   14.3665 C   0  0  0  0  0  0  0  0  0  0  0  0
   51.2104    9.4796   15.4670 C   0  0  0  0  0  0  0  0  0  0  0  0
   50.7677    8.9110   16.8187 C   0  0  0  0  0  0  0  0  0  0  0  0
   49.3765    8.2700   16.8436 C   0  0  0  0  0  0  0  0  0  0  0  0
   48.2246    9.1788   16.4022 C   0  0  0  0  0  0  0  0  0  0  0  0
   48.0770   10.4872   17.1854 C   0  0  0  0  0  0  0  0  0  0  0  0
   47.7996   10.2744   18.6743 C   0  0  0  0  0  0  0  0  0  0  0  0
   47.5675   11.5980   19.3855 C   0  0  0  0  0  0  0  0  0  0  0  0
   51.7758    8.8805    7.6853 H   0  0  0  0  0  0  0  0  0  0  0  0
   53.0062    9.8427    8.1473 H   0  0  0  0  0  0  0  0  0  0  0  0
   52.6246    7.0303   10.6413 H   0  0  0  0  0  0  0  0  0  0  0  0
   51.3117    7.7136    9.7104 H   0  0  0  0  0  0  0  0  0  0  0  0
   52.1909   10.0442   10.2523 H   0  0  0  0  0  0  0  0  0  0  0  0
   53.4564    9.3173   11.2273 H   0  0  0  0  0  0  0  0  0  0  0  0
   49.9145   10.2183   11.0946 H   0  0  0  0  0  0  0  0  0  0  0  0
   52.8502    7.8990   13.2396 H   0  0  0  0  0  0  0  0  0  0  0  0
   48.3808   10.0422   13.0045 H   0  0  0  0  0  0  0  0  0  0  0  0
   51.3121    7.7129   15.1422 H   0  0  0  0  0  0  0  0  0  0  0  0
   52.0444    6.2926    7.7532 H   0  0  0  0  0  0  0  0  0  0  0  0
   53.6703    6.4757    7.0876 H   0  0  0  0  0  0  0  0  0  0  0  0
   54.9235    9.1102    9.4327 H   0  0  0  0  0  0  0  0  0  0  0  0
   55.3729    7.9634    8.1756 H   0  0  0  0  0  0  0  0  0  0  0  0
   55.0207    6.2949    9.7262 H   0  0  0  0  0  0  0  0  0  0  0  0
   52.8459    5.1815    9.4434 H   0  0  0  0  0  0  0  0  0  0  0  0
   47.8218    8.4036   15.0109 H   0  0  0  0  0  0  0  0  0  0  0  0
   49.1324    7.9803   16.0827 H   0  0  0  0  0  0  0  0  0  0  0  0
   48.1611   10.8271   15.4519 H   0  0  0  0  0  0  0  0  0  0  0  0
   47.8023    9.9195   16.9034 H   0  0  0  0  0  0  0  0  0  0  0  0
   49.1834    9.3883   21.7279 H   0  0  0  0  0  0  0  0  0  0  0  0
   48.2007   10.8495   21.7400 H   0  0  0  0  0  0  0  0  0  0  0  0
   48.4040   11.0396   19.2684 H   0  0  0  0  0  0  0  0  0  0  0  0
   49.9485   11.1249   20.1082 H   0  0  0  0  0  0  0  0  0  0  0  0
   50.5477   10.9432   16.0166 H   0  0  0  0  0  0  0  0  0  0  0  0
   49.5456   11.6162   17.2777 H   0  0  0  0  0  0  0  0  0  0  0  0
   51.3968   10.3266   18.2138 H   0  0  0  0  0  0  0  0  0  0  0  0
   50.9453    8.8972   17.3136 H   0  0  0  0  0  0  0  0  0  0  0  0
   50.2919    8.6530   19.6226 H   0  0  0  0  0  0  0  0  0  0  0  0
   48.8500    8.6795   18.6193 H   0  0  0  0  0  0  0  0  0  0  0  0
   46.4791    9.6969   20.3115 H   0  0  0  0  0  0  0  0  0  0  0  0
   47.4344    8.2020   20.4021 H   0  0  0  0  0  0  0  0  0  0  0  0
   46.7449    8.8980   21.8704 H   0  0  0  0  0  0  0  0  0  0  0  0
   54.9103    5.8113    6.7755 H   0  0  0  0  0  0  0  0  0  0  0  0
   53.1877    6.6659    9.8589 H   0  0  0  0  0  0  0  0  0  0  0  0
   51.5112    7.0532    9.3931 H   0  0  0  0  0  0  0  0  0  0  0  0
   51.8125    9.3628   10.3266 H   0  0  0  0  0  0  0  0  0  0  0  0
   53.4498    8.9603   10.8043 H   0  0  0  0  0  0  0  0  0  0  0  0
   52.5800    7.1328   12.2937 H   0  0  0  0  0  0  0  0  0  0  0  0
   50.9289    7.5184   11.8011 H   0  0  0  0  0  0  0  0  0  0  0  0
   51.1888    9.8297   12.7347 H   0  0  0  0  0  0  0  0  0  0  0  0
   52.8362    9.4396   13.2381 H   0  0  0  0  0  0  0  0  0  0  0  0
   50.3067    7.9934   14.1765 H   0  0  0  0  0  0  0  0  0  0  0  0
   51.9481    7.6005   14.6960 H   0  0  0  0  0  0  0  0  0  0  0  0
   52.1977    9.9383   15.5994 H   0  0  0  0  0  0  0  0  0  0  0  0
   50.5361   10.2854   15.1553 H   0  0  0  0  0  0  0  0  0  0  0  0
   50.8128    9.7120   17.5653 H   0  0  0  0  0  0  0  0  0  0  0  0
   51.4984    8.1602   17.1428 H   0  0  0  0  0  0  0  0  0  0  0  0
   49.1826    7.9061   17.8591 H   0  0  0  0  0  0  0  0  0  0  0  0
   49.3763    7.3769   16.2085 H   0  0  0  0  0  0  0  0  0  0  0  0
   47.2889    8.6105   16.4821 H   0  0  0  0  0  0  0  0  0  0  0  0
   48.3388    9.4197   15.3390 H   0  0  0  0  0  0  0  0  0  0  0  0
   47.2461   11.0519   16.7444 H   0  0  0  0  0  0  0  0  0  0  0  0
   48.9717   11.1072   17.0592 H   0  0  0  0  0  0  0  0  0  0  0  0
   46.9163    9.6384   18.8019 H   0  0  0  0  0  0  0  0  0  0  0  0
   48.6420    9.7644   19.1525 H   0  0  0  0  0  0  0  0  0  0  0  0
   48.4544   12.2363   19.3204 H   0  0  0  0  0  0  0  0  0  0  0  0
   46.7228   12.1393   18.9454 H   0  0  0  0  0  0  0  0  0  0  0  0
   47.3480   11.4270   20.4445 H   0  0  0  0  0  0  0  0  0  0  0  0
  1  2  1  0
  1  3  1  0
  3  6  1  0
  4  6  1  0
  4  7  2  0
  4  8  1  0
  5  9  2  0
  7  9  1  0
  5 10  1  0
  8 10  2  0
  1 11  1  0
  1 12  1  0
 12 13  1  0
 11 14  1  0
  5 15  1  0
 15 16  1  0
 17 18  1  0
 16 19  1  0
 19 20  1  0
 18 21  1  0
 20 21  1  0
 17 22  1  0
 23 24  1  0
 23 25  1  0
 23 26  2  0
 23 27  2  0
 24 28  1  0
 28 29  1  0
 29 30  1  0
 30 31  1  0
 31 32  1  0
 32 33  1  0
 33 34  1  0
 34 35  1  0
 35 36  1  0
 36 37  1  0
 37 38  1  0
 38 39  1  0
  2 40  1  0
  2 41  1  0
  3 42  1  0
  3 43  1  0
  6 44  1  0
  6 45  1  0
  7 46  1  0
  8 47  1  0
  9 48  1  0
 10 49  1  0
 11 50  1  0
 11 51  1  0
 12 52  1  0
 12 53  1  0
 13 54  1  0
 14 55  1  0
 15 56  1  0
 15 57  1  0
 16 58  1  0
 16 59  1  0
 17 60  1  0
 17 61  1  0
 18 62  1  0
 18 63  1  0
 19 64  1  0
 19 65  1  0
 20 66  1  0
 20 67  1  0
 21 68  1  0
 21 69  1  0
 22 70  1  0
 22 71  1  0
 22 72  1  0
 25 73  1  0
 28 74  1  0
 28 75  1  0
 29 76  1  0
 29 77  1  0
 30 78  1  0
 30 79  1  0
 31 80  1  0
 31 81  1  0
 32 82  1  0
 32 83  1  0
 33 84  1  0
 33 85  1  0
 34 86  1  0
 34 87  1  0
 35 88  1  0
 35 89  1  0
 36 90  1  0
 36 91  1  0
 37 92  1  0
 37 93  1  0
 38 94  1  0
 38 95  1  0
 39 96  1  0
 39 97  1  0
 39 98  1  0
M  END
> <Uni-Dock RESULT> 
ENERGY=   -4.759  LOWER_BOUND=    7.078  UPPER_BOUND=    9.160
INTER + INTRA:          -4.759
INTER:                  -4.759
INTRA:                   0.000
UNBOUND:                 0.000

$$$$

     RDKit          3D

 98 97  0  0  0  0  0  0  0  0999 V2000
   48.3134   16.9571   13.1460 C   0  0  0  0  0  0  0  0  0  0  0  0
   48.3671   16.2509   11.8488 N   0  0  0  0  0  0  0  0  0  0  0  0
   48.6451   15.9747   14.3036 C   0  0  0  0  0  0  0  0  0  0  0  0
   48.0958   13.9108   15.6137 C   0  0  0  0  0  0  0  0  0  0  0  0
   48.9845   12.2374   17.6998 C   0  0  0  0  0  0  0  0  0  0  0  0
   47.6445   14.8287   14.5036 C   0  0  0  0  0  0  0  0  0  0  0  0
   48.7834   12.7255   15.3283 C   0  0  0  0  0  0  0  0  0  0  0  0
   47.8618   14.2553   16.9499 C   0  0  0  0  0  0  0  0  0  0  0  0
   49.2205   11.8947   16.3627 C   0  0  0  0  0  0  0  0  0  0  0  0
   48.3032   13.4266   17.9831 C   0  0  0  0  0  0  0  0  0  0  0  0
   49.3906   18.0832   13.1181 C   0  0  0  0  0  0  0  0  0  0  0  0
   46.9137   17.6108   13.3279 C   0  0  0  0  0  0  0  0  0  0  0  0
   46.7588   18.1972   14.6182 O   0  0  0  0  0  0  0  0  0  0  0  0
   49.3801   18.8734   14.3109 O   0  0  0  0  0  0  0  0  0  0  0  0
   49.4567   11.3398   18.8177 C   0  0  0  0  0  0  0  0  0  0  0  0
   48.6931   10.0130   18.9149 C   0  0  0  0  0  0  0  0  0  0  0  0
   47.4238    8.3386   23.4543 C   0  0  0  0  0  0  0  0  0  0  0  0
   47.0078    8.8402   22.0701 C   0  0  0  0  0  0  0  0  0  0  0  0
   47.1956   10.1397   19.2223 C   0  0  0  0  0  0  0  0  0  0  0  0
   46.8393   10.8680   20.5220 C   0  0  0  0  0  0  0  0  0  0  0  0
   47.4470   10.2815   21.7993 C   0  0  0  0  0  0  0  0  0  0  0  0
   48.9306    8.2315   23.6337 C   0  0  0  0  0  0  0  0  0  0  0  0
   49.1673   18.0626   12.0139 S   0  0  0  0  0  0  0  0  0  0  0  0
   48.5171   16.7646   12.7402 O   0  0  0  0  0  0  0  0  0  0  0  0
   48.2463   19.2755   12.5429 O   0  0  0  0  0  0  0  0  0  0  0  0
   48.9392   17.9662   10.5904 O   0  0  0  0  0  0  0  0  0  0  0  0
   50.4855   18.3127   12.5496 O   0  0  0  0  0  0  0  0  0  0  0  0
   48.8746   16.5073   14.0880 C   0  0  0  0  0  0  0  0  0  0  0  0
   48.0325   15.3468   14.6053 C   0  0  0  0  0  0  0  0  0  0  0  0
   48.3966   14.9979   16.0462 C   0  0  0  0  0  0  0  0  0  0  0  0
   47.5701   13.8207   16.5665 C   0  0  0  0  0  0  0  0  0  0  0  0
   47.9543   13.4691   18.0048 C   0  0  0  0  0  0  0  0  0  0  0  0
   47.1324   12.2897   18.5292 C   0  0  0  0  0  0  0  0  0  0  0  0
   47.4105   11.9668   20.0005 C   0  0  0  0  0  0  0  0  0  0  0  0
   48.8503   11.5587   20.3280 C   0  0  0  0  0  0  0  0  0  0  0  0
   49.3852   10.3507   19.5518 C   0  0  0  0  0  0  0  0  0  0  0  0
   48.5643    9.0640   19.6828 C   0  0  0  0  0  0  0  0  0  0  0  0
   48.4787    8.5431   21.1182 C   0  0  0  0  0  0  0  0  0  0  0  0
   47.7363    7.2177   21.1794 C   0  0  0  0  0  0  0  0  0  0  0  0
   49.2131   15.6862   11.7937 H   0  0  0  0  0  0  0  0  0  0  0  0
   47.5866   15.6025   11.7651 H   0  0  0  0  0  0  0  0  0  0  0  0
   48.7217   16.5310   15.2472 H   0  0  0  0  0  0  0  0  0  0  0  0
   49.6452   15.5496   14.1330 H   0  0  0  0  0  0  0  0  0  0  0  0
   47.5240   14.2479   13.5810 H   0  0  0  0  0  0  0  0  0  0  0  0
   46.6493   15.2163   14.7547 H   0  0  0  0  0  0  0  0  0  0  0  0
   48.9843   12.4387   14.2995 H   0  0  0  0  0  0  0  0  0  0  0  0
   47.3346   15.1756   17.1954 H   0  0  0  0  0  0  0  0  0  0  0  0
   49.7494   10.9766   16.1181 H   0  0  0  0  0  0  0  0  0  0  0  0
   48.1108   13.7203   19.0120 H   0  0  0  0  0  0  0  0  0  0  0  0
   50.3984   17.6723   12.9872 H   0  0  0  0  0  0  0  0  0  0  0  0
   49.2053   18.7671   12.2814 H   0  0  0  0  0  0  0  0  0  0  0  0
   46.1137   16.8716   13.2090 H   0  0  0  0  0  0  0  0  0  0  0  0
   46.7423   18.3888   12.5763 H   0  0  0  0  0  0  0  0  0  0  0  0
   47.4948   18.8382   14.7080 H   0  0  0  0  0  0  0  0  0  0  0  0
   49.8974   18.3879   14.9798 H   0  0  0  0  0  0  0  0  0  0  0  0
   50.5198   11.1238   18.6495 H   0  0  0  0  0  0  0  0  0  0  0  0
   49.4161   11.8711   19.7760 H   0  0  0  0  0  0  0  0  0  0  0  0
   48.8017    9.4576   17.9751 H   0  0  0  0  0  0  0  0  0  0  0  0
   49.1710    9.3943   19.6836 H   0  0  0  0  0  0  0  0  0  0  0  0
   47.0106    8.9975   24.2269 H   0  0  0  0  0  0  0  0  0  0  0  0
   46.9819    7.3475   23.6123 H   0  0  0  0  0  0  0  0  0  0  0  0
   47.4159    8.1700   21.3055 H   0  0  0  0  0  0  0  0  0  0  0  0
   45.9151    8.7770   21.9963 H   0  0  0  0  0  0  0  0  0  0  0  0
   46.6983   10.6539   18.3910 H   0  0  0  0  0  0  0  0  0  0  0  0
   46.7633    9.1326   19.2449 H   0  0  0  0  0  0  0  0  0  0  0  0
   45.7460   10.8756   20.6210 H   0  0  0  0  0  0  0  0  0  0  0  0
   47.1383   11.9192   20.4481 H   0  0  0  0  0  0  0  0  0  0  0  0
   47.1344   10.9131   22.6403 H   0  0  0  0  0  0  0  0  0  0  0  0
   48.5394   10.3445   21.7519 H   0  0  0  0  0  0  0  0  0  0  0  0
   49.3725    7.5900   22.8648 H   0  0  0  0  0  0  0  0  0  0  0  0
   49.4124    9.2127   23.5868 H   0  0  0  0  0  0  0  0  0  0  0  0
   49.1600    7.7977   24.6114 H   0  0  0  0  0  0  0  0  0  0  0  0
   48.6800   20.1089   12.2720 H   0  0  0  0  0  0  0  0  0  0  0  0
   48.6985   17.4008   14.6950 H   0  0  0  0  0  0  0  0  0  0  0  0
   49.9390   16.2497   14.1348 H   0  0  0  0  0  0  0  0  0  0  0  0
   48.1741   14.4754   13.9535 H   0  0  0  0  0  0  0  0  0  0  0  0
   46.9694   15.6091   14.5317 H   0  0  0  0  0  0  0  0  0  0  0  0
   48.2340   15.8737   16.6870 H   0  0  0  0  0  0  0  0  0  0  0  0
   49.4630   14.7486   16.1031 H   0  0  0  0  0  0  0  0  0  0  0  0
   47.7297   12.9475   15.9218 H   0  0  0  0  0  0  0  0  0  0  0  0
   46.5029   14.0700   16.5175 H   0  0  0  0  0  0  0  0  0  0  0  0
   49.0222   13.2268   18.0384 H   0  0  0  0  0  0  0  0  0  0  0  0
   47.7973   14.3422   18.6499 H   0  0  0  0  0  0  0  0  0  0  0  0
   46.0661   12.5260   18.4300 H   0  0  0  0  0  0  0  0  0  0  0  0
   47.3107   11.4055   17.9067 H   0  0  0  0  0  0  0  0  0  0  0  0
   46.7257   11.1723   20.3185 H   0  0  0  0  0  0  0  0  0  0  0  0
   47.1541   12.8423   20.6092 H   0  0  0  0  0  0  0  0  0  0  0  0
   48.9153   11.3564   21.4033 H   0  0  0  0  0  0  0  0  0  0  0  0
   49.5186   12.4087   20.1500 H   0  0  0  0  0  0  0  0  0  0  0  0
   50.4108   10.1527   19.8890 H   0  0  0  0  0  0  0  0  0  0  0  0
   49.4637   10.6077   18.4891 H   0  0  0  0  0  0  0  0  0  0  0  0
   49.0345    8.2987   19.0527 H   0  0  0  0  0  0  0  0  0  0  0  0
   47.5557    9.2156   19.2820 H   0  0  0  0  0  0  0  0  0  0  0  0
   49.4865    8.4094   21.5273 H   0  0  0  0  0  0  0  0  0  0  0  0
   47.9589    9.2640   21.7576 H   0  0  0  0  0  0  0  0  0  0  0  0
   46.7066    7.3309   20.8256 H   0  0  0  0  0  0  0  0  0  0  0  0
   48.2300    6.4604   20.5607 H   0  0  0  0  0  0  0  0  0  0  0  0
   47.7037    6.8476   22.2094 H   0  0  0  0  0  0  0  0  0  0  0  0
  1  2  1  0
  1  3  1  0
  3  6  1  0
  4  6  1  0
  4  7  2  0
  4  8  1  0
  5  9  2  0
  7  9  1  0
  5 10  1  0
  8 10  2  0
  1 11  1  0
  1 12  1  0
 12 13  1  0
 11 14  1  0
  5 15  1  0
 15 16  1  0
 17 18  1  0
 16 19  1  0
 19 20  1  0
 18 21  1  0
 20 21  1  0
 17 22  1  0
 23 24  1  0
 23 25  1  0
 23 26  2  0
 23 27  2  0
 24 28  1  0
 28 29  1  0
 29 30  1  0
 30 31  1  0
 31 32  1  0
 32 33  1  0
 33 34  1  0
 34 35  1  0
 35 36  1  0
 36 37  1  0
 37 38  1  0
 38 39  1  0
  2 40  1  0
  2 41  1  0
  3 42  1  0
  3 43  1  0
  6 44  1  0
  6 45  1  0
  7 46  1  0
  8 47  1  0
  9 48  1  0
 10 49  1  0
 11 50  1  0
 11 51  1  0
 12 52  1  0
 12 53  1  0
 13 54  1  0
 14 55  1  0
 15 56  1  0
 15 57  1  0
 16 58  1  0
 16 59  1  0
 17 60  1  0
 17 61  1  0
 18 62  1  0
 18 63  1  0
 19 64  1  0
 19 65  1  0
 20 66  1  0
 20 67  1  0
 21 68  1  0
 21 69  1  0
 22 70  1  0
 22 71  1  0
 22 72  1  0
 25 73  1  0
 28 74  1  0
 28 75  1  0
 29 76  1  0
 29 77  1  0
 30 78  1  0
 30 79  1  0
 31 80  1  0
 31 81  1  0
 32 82  1  0
 32 83  1  0
 33 84  1  0
 33 85  1  0
 34 86  1  0
 34 87  1  0
 35 88  1  0
 35 89  1  0
 36 90  1  0
 36 91  1  0
 37 92  1  0
 37 93  1  0
 38 94  1  0
 38 95  1  0
 39 96  1  0
 39 97  1  0
 39 98  1  0
M  END
> <Uni-Dock RESULT> 
ENERGY=   -4.715  LOWER_BOUND=    8.604  UPPER_BOUND=   11.438
INTER + INTRA:          -4.715
INTER:                  -4.715
INTRA:                   0.000
UNBOUND:                 0.000

$$$$

     RDKit          3D

 98 97  0  0  0  0  0  0  0  0999 V2000
   51.0368   12.6127   10.0142 C   0  0  0  0  0  0  0  0  0  0  0  0
   51.3037   13.6710    9.0177 N   0  0  0  0  0  0  0  0  0  0  0  0
   49.5643   12.1294    9.8994 C   0  0  0  0  0  0  0  0  0  0  0  0
   47.1104   12.6177   10.0333 C   0  0  0  0  0  0  0  0  0  0  0  0
   44.5471   11.5106    9.6528 C   0  0  0  0  0  0  0  0  0  0  0  0
   48.4970   13.1804   10.2320 C   0  0  0  0  0  0  0  0  0  0  0  0
   46.4029   12.8572    8.8496 C   0  0  0  0  0  0  0  0  0  0  0  0
   46.5288   11.8156   11.0218 C   0  0  0  0  0  0  0  0  0  0  0  0
   45.1308   12.3111    8.6631 C   0  0  0  0  0  0  0  0  0  0  0  0
   45.2593   11.2664   10.8324 C   0  0  0  0  0  0  0  0  0  0  0  0
   51.9848   11.4158    9.7006 C   0  0  0  0  0  0  0  0  0  0  0  0
   51.3598   13.1437   11.4402 C   0  0  0  0  0  0  0  0  0  0  0  0
   50.9989   12.2097   12.4551 O   0  0  0  0  0  0  0  0  0  0  0  0
   51.8508   10.3545   10.6509 O   0  0  0  0  0  0  0  0  0  0  0  0
   43.1725   10.9204    9.4514 C   0  0  0  0  0  0  0  0  0  0  0  0
   42.0411   11.9559    9.4756 C   0  0  0  0  0  0  0  0  0  0  0  0
   37.8291   10.8044   11.9156 C   0  0  0  0  0  0  0  0  0  0  0  0
   39.0656   11.6930   11.7665 C   0  0  0  0  0  0  0  0  0  0  0  0
   41.8706   12.7094   10.8009 C   0  0  0  0  0  0  0  0  0  0  0  0
   41.6040   11.8408   12.0342 C   0  0  0  0  0  0  0  0  0  0  0  0
   40.3783   10.9269   11.9496 C   0  0  0  0  0  0  0  0  0  0  0  0
   37.7101    9.7427   10.8327 C   0  0  0  0  0  0  0  0  0  0  0  0
   52.6495   12.2386    9.3125 S   0  0  0  0  0  0  0  0  0  0  0  0
   51.1519   12.8071    9.5758 O   0  0  0  0  0  0  0  0  0  0  0  0
   53.2139   11.9952   10.8030 O   0  0  0  0  0  0  0  0  0  0  0  0
   53.4553   13.2905    8.7365 O   0  0  0  0  0  0  0  0  0  0  0  0
   52.5753   10.9296    8.7059 O   0  0  0  0  0  0  0  0  0  0  0  0
   50.1252   11.8712    9.8599 C   0  0  0  0  0  0  0  0  0  0  0  0
   48.8559   12.6323   10.2245 C   0  0  0  0  0  0  0  0  0  0  0  0
   47.6999   11.6764   10.5087 C   0  0  0  0  0  0  0  0  0  0  0  0
   46.4164   12.4327   10.8556 C   0  0  0  0  0  0  0  0  0  0  0  0
   45.2609   11.4663   11.1223 C   0  0  0  0  0  0  0  0  0  0  0  0
   43.9734   12.2180   11.4670 C   0  0  0  0  0  0  0  0  0  0  0  0
   42.8142   11.2895   11.8419 C   0  0  0  0  0  0  0  0  0  0  0  0
   42.3650   10.3163   10.7474 C   0  0  0  0  0  0  0  0  0  0  0  0
   41.9397   10.9630    9.4251 C   0  0  0  0  0  0  0  0  0  0  0  0
   40.8153   11.9985    9.5267 C   0  0  0  0  0  0  0  0  0  0  0  0
   39.5062   11.4208   10.0666 C   0  0  0  0  0  0  0  0  0  0  0  0
   38.3996   12.4634   10.0578 C   0  0  0  0  0  0  0  0  0  0  0  0
   50.9424   13.3921    8.1072 H   0  0  0  0  0  0  0  0  0  0  0  0
   50.8124   14.5267    9.2686 H   0  0  0  0  0  0  0  0  0  0  0  0
   49.4092   11.2638   10.5570 H   0  0  0  0  0  0  0  0  0  0  0  0
   49.3917   11.7558    8.8792 H   0  0  0  0  0  0  0  0  0  0  0  0
   48.6177   14.0733    9.6065 H   0  0  0  0  0  0  0  0  0  0  0  0
   48.5903   13.5187   11.2715 H   0  0  0  0  0  0  0  0  0  0  0  0
   46.8351   13.4706    8.0634 H   0  0  0  0  0  0  0  0  0  0  0  0
   47.0635   11.6108   11.9477 H   0  0  0  0  0  0  0  0  0  0  0  0
   44.5973   12.5132    7.7373 H   0  0  0  0  0  0  0  0  0  0  0  0
   44.8329   10.6443   11.6155 H   0  0  0  0  0  0  0  0  0  0  0  0
   51.7987   11.0070    8.7006 H   0  0  0  0  0  0  0  0  0  0  0  0
   53.0315   11.7406    9.7313 H   0  0  0  0  0  0  0  0  0  0  0  0
   50.8189   14.0737   11.6475 H   0  0  0  0  0  0  0  0  0  0  0  0
   52.4271   13.3663   11.5446 H   0  0  0  0  0  0  0  0  0  0  0  0
   51.4785   11.3831   12.2372 H   0  0  0  0  0  0  0  0  0  0  0  0
   51.0804    9.8226   10.3784 H   0  0  0  0  0  0  0  0  0  0  0  0
   43.1641   10.4110    8.4790 H   0  0  0  0  0  0  0  0  0  0  0  0
   42.9827   10.1349   10.1925 H   0  0  0  0  0  0  0  0  0  0  0  0
   42.2040   12.6957    8.6822 H   0  0  0  0  0  0  0  0  0  0  0  0
   41.1026   11.4489    9.2222 H   0  0  0  0  0  0  0  0  0  0  0  0
   37.8360   10.3219   12.8999 H   0  0  0  0  0  0  0  0  0  0  0  0
   36.9370   11.4411   11.8801 H   0  0  0  0  0  0  0  0  0  0  0  0
   39.0446   12.1791   10.7848 H   0  0  0  0  0  0  0  0  0  0  0  0
   39.0071   12.4912   12.5166 H   0  0  0  0  0  0  0  0  0  0  0  0
   42.7662   13.3132   10.9911 H   0  0  0  0  0  0  0  0  0  0  0  0
   41.0515   13.4284   10.6842 H   0  0  0  0  0  0  0  0  0  0  0  0
   41.4921   12.5040   12.9018 H   0  0  0  0  0  0  0  0  0  0  0  0
   42.4828   11.2217   12.2447 H   0  0  0  0  0  0  0  0  0  0  0  0
   40.3261   10.3483   12.8805 H   0  0  0  0  0  0  0  0  0  0  0  0
   40.5126   10.2019   11.1397 H   0  0  0  0  0  0  0  0  0  0  0  0
   37.7159   10.1962    9.8365 H   0  0  0  0  0  0  0  0  0  0  0  0
   38.5268    9.0170   10.8889 H   0  0  0  0  0  0  0  0  0  0  0  0
   36.7716    9.1932   10.9505 H   0  0  0  0  0  0  0  0  0  0  0  0
   54.0538   11.5016   10.7184 H   0  0  0  0  0  0  0  0  0  0  0  0
   50.4304   11.2272   10.6905 H   0  0  0  0  0  0  0  0  0  0  0  0
   49.9499   11.2499    8.9740 H   0  0  0  0  0  0  0  0  0  0  0  0
   48.5941   13.3164    9.4074 H   0  0  0  0  0  0  0  0  0  0  0  0
   49.0517   13.2667   11.0982 H   0  0  0  0  0  0  0  0  0  0  0  0
   47.9708   11.0109   11.3380 H   0  0  0  0  0  0  0  0  0  0  0  0
   47.5247   11.0441    9.6300 H   0  0  0  0  0  0  0  0  0  0  0  0
   46.1498   13.1014   10.0278 H   0  0  0  0  0  0  0  0  0  0  0  0
   46.5866   13.0608   11.7387 H   0  0  0  0  0  0  0  0  0  0  0  0
   45.1059   10.8439   10.2342 H   0  0  0  0  0  0  0  0  0  0  0  0
   45.5274   10.7957   11.9484 H   0  0  0  0  0  0  0  0  0  0  0  0
   44.1651   12.8815   12.3188 H   0  0  0  0  0  0  0  0  0  0  0  0
   43.6853   12.8658   10.6312 H   0  0  0  0  0  0  0  0  0  0  0  0
   41.9624   11.9042   12.1544 H   0  0  0  0  0  0  0  0  0  0  0  0
   43.1003   10.7058   12.7252 H   0  0  0  0  0  0  0  0  0  0  0  0
   41.5370    9.7147   11.1396 H   0  0  0  0  0  0  0  0  0  0  0  0
   43.1715    9.6036   10.5412 H   0  0  0  0  0  0  0  0  0  0  0  0
   41.6266   10.1661    8.7382 H   0  0  0  0  0  0  0  0  0  0  0  0
   42.8096   11.4376    8.9565 H   0  0  0  0  0  0  0  0  0  0  0  0
   40.6394   12.4043    8.5226 H   0  0  0  0  0  0  0  0  0  0  0  0
   41.1331   12.8429   10.1487 H   0  0  0  0  0  0  0  0  0  0  0  0
   39.1972   10.5640    9.4572 H   0  0  0  0  0  0  0  0  0  0  0  0
   39.6393   11.0620   11.0923 H   0  0  0  0  0  0  0  0  0  0  0  0
   38.6569   13.3105   10.7016 H   0  0  0  0  0  0  0  0  0  0  0  0
   38.2238   12.8433    9.0455 H   0  0  0  0  0  0  0  0  0  0  0  0
   37.4646   12.0281   10.4255 H   0  0  0  0  0  0  0  0  0  0  0  0
  1  2  1  0
  1  3  1  0
  3  6  1  0
  4  6  1  0
  4  7  2  0
  4  8  1  0
  5  9  2  0
  7  9  1  0
  5 10  1  0
  8 10  2  0
  1 11  1  0
  1 12  1  0
 12 13  1  0
 11 14  1  0
  5 15  1  0
 15 16  1  0
 17 18  1  0
 16 19  1  0
 19 20  1  0
 18 21  1  0
 20 21  1  0
 17 22  1  0
 23 24  1  0
 23 25  1  0
 23 26  2  0
 23 27  2  0
 24 28  1  0
 28 29  1  0
 29 30  1  0
 30 31  1  0
 31 32  1  0
 32 33  1  0
 33 34  1  0
 34 35  1  0
 35 36  1  0
 36 37  1  0
 37 38  1  0
 38 39  1  0
  2 40  1  0
  2 41  1  0
  3 42  1  0
  3 43  1  0
  6 44  1  0
  6 45  1  0
  7 46  1  0
  8 47  1  0
  9 48  1  0
 10 49  1  0
 11 50  1  0
 11 51  1  0
 12 52  1  0
 12 53  1  0
 13 54  1  0
 14 55  1  0
 15 56  1  0
 15 57  1  0
 16 58  1  0
 16 59  1  0
 17 60  1  0
 17 61  1  0
 18 62  1  0
 18 63  1  0
 19 64  1  0
 19 65  1  0
 20 66  1  0
 20 67  1  0
 21 68  1  0
 21 69  1  0
 22 70  1  0
 22 71  1  0
 22 72  1  0
 25 73  1  0
 28 74  1  0
 28 75  1  0
 29 76  1  0
 29 77  1  0
 30 78  1  0
 30 79  1  0
 31 80  1  0
 31 81  1  0
 32 82  1  0
 32 83  1  0
 33 84  1  0
 33 85  1  0
 34 86  1  0
 34 87  1  0
 35 88  1  0
 35 89  1  0
 36 90  1  0
 36 91  1  0
 37 92  1  0
 37 93  1  0
 38 94  1  0
 38 95  1  0
 39 96  1  0
 39 97  1  0
 39 98  1  0
M  END
> <Uni-Dock RESULT> 
ENERGY=   -4.694  LOWER_BOUND=    5.845  UPPER_BOUND=    8.192
INTER + INTRA:          -4.694
INTER:                  -4.694
INTRA:                   0.000
UNBOUND:                 0.000

$$$$

     RDKit          3D

 98 97  0  0  0  0  0  0  0  0999 V2000
   52.7383    7.4337    9.4396 C   0  0  0  0  0  0  0  0  0  0  0  0
   51.6452    6.9237    8.5854 N   0  0  0  0  0  0  0  0  0  0  0  0
   52.2785    7.4836   10.9232 C   0  0  0  0  0  0  0  0  0  0  0  0
   50.7348    8.3815   12.6807 C   0  0  0  0  0  0  0  0  0  0  0  0
   50.0407    8.2007   15.4059 C   0  0  0  0  0  0  0  0  0  0  0  0
   51.1329    8.4583   11.2266 C   0  0  0  0  0  0  0  0  0  0  0  0
   49.6441    7.6029   13.0847 C   0  0  0  0  0  0  0  0  0  0  0  0
   51.4788    9.0635   13.6503 C   0  0  0  0  0  0  0  0  0  0  0  0
   49.2984    7.5166   14.4353 C   0  0  0  0  0  0  0  0  0  0  0  0
   51.1353    8.9727   15.0004 C   0  0  0  0  0  0  0  0  0  0  0  0
   53.9366    6.4446    9.3175 C   0  0  0  0  0  0  0  0  0  0  0  0
   53.1919    8.8314    8.9292 C   0  0  0  0  0  0  0  0  0  0  0  0
   54.1561    9.4306    9.7917 O   0  0  0  0  0  0  0  0  0  0  0  0
   55.0781    6.8811   10.0617 O   0  0  0  0  0  0  0  0  0  0  0  0
   49.6672    8.1075   16.8655 C   0  0  0  0  0  0  0  0  0  0  0  0
   48.3551    8.8191   17.2185 C   0  0  0  0  0  0  0  0  0  0  0  0
   48.1753   11.4973   21.4394 C   0  0  0  0  0  0  0  0  0  0  0  0
   48.0988   11.4359   19.9126 C   0  0  0  0  0  0  0  0  0  0  0  0
   48.3489   10.3355   16.9868 C   0  0  0  0  0  0  0  0  0  0  0  0
   49.4169   11.1316   17.7431 C   0  0  0  0  0  0  0  0  0  0  0  0
   49.4074   10.9741   19.2662 C   0  0  0  0  0  0  0  0  0  0  0  0
   48.3689   10.1373   22.0929 C   0  0  0  0  0  0  0  0  0  0  0  0
   53.5025    6.2808    8.2908 S   0  0  0  0  0  0  0  0  0  0  0  0
   52.4513    7.0993    9.2183 O   0  0  0  0  0  0  0  0  0  0  0  0
   54.6670    7.3622    8.0190 O   0  0  0  0  0  0  0  0  0  0  0  0
   52.8875    6.0114    7.0114 O   0  0  0  0  0  0  0  0  0  0  0  0
   54.1208    5.2293    9.0648 O   0  0  0  0  0  0  0  0  0  0  0  0
   52.7326    7.2108   10.6036 C   0  0  0  0  0  0  0  0  0  0  0  0
   51.7073    8.1432   11.2381 C   0  0  0  0  0  0  0  0  0  0  0  0
   51.9368    8.2772   12.7415 C   0  0  0  0  0  0  0  0  0  0  0  0
   50.8993    9.1953   13.3897 C   0  0  0  0  0  0  0  0  0  0  0  0
   51.1286    9.3096   14.8979 C   0  0  0  0  0  0  0  0  0  0  0  0
   50.0913   10.2248   15.5519 C   0  0  0  0  0  0  0  0  0  0  0  0
   50.3423   10.4508   17.0461 C   0  0  0  0  0  0  0  0  0  0  0  0
   50.2978    9.1949   17.9222 C   0  0  0  0  0  0  0  0  0  0  0  0
   48.9935    8.3934   17.8587 C   0  0  0  0  0  0  0  0  0  0  0  0
   47.7213    9.1715   18.2091 C   0  0  0  0  0  0  0  0  0  0  0  0
   47.7208    9.7216   19.6361 C   0  0  0  0  0  0  0  0  0  0  0  0
   46.4007   10.4011   19.9635 C   0  0  0  0  0  0  0  0  0  0  0  0
   51.2329    6.0925    9.0057 H   0  0  0  0  0  0  0  0  0  0  0  0
   50.8963    7.6104    8.5198 H   0  0  0  0  0  0  0  0  0  0  0  0
   53.1308    7.7470   11.5635 H   0  0  0  0  0  0  0  0  0  0  0  0
   51.9793    6.4725   11.2365 H   0  0  0  0  0  0  0  0  0  0  0  0
   50.2584    8.2426   10.6006 H   0  0  0  0  0  0  0  0  0  0  0  0
   51.4260    9.4909   10.9994 H   0  0  0  0  0  0  0  0  0  0  0  0
   49.0545    7.0577   12.3524 H   0  0  0  0  0  0  0  0  0  0  0  0
   52.3349    9.6699   13.3596 H   0  0  0  0  0  0  0  0  0  0  0  0
   48.4449    6.9090   14.7267 H   0  0  0  0  0  0  0  0  0  0  0  0
   51.7326    9.5103   15.7327 H   0  0  0  0  0  0  0  0  0  0  0  0
   53.6654    5.4400    9.6625 H   0  0  0  0  0  0  0  0  0  0  0  0
   54.2530    6.3565    8.2715 H   0  0  0  0  0  0  0  0  0  0  0  0
   52.3438    9.5217    8.8611 H   0  0  0  0  0  0  0  0  0  0  0  0
   53.6270    8.7618    7.9265 H   0  0  0  0  0  0  0  0  0  0  0  0
   54.8936    8.7877    9.8520 H   0  0  0  0  0  0  0  0  0  0  0  0
   54.9384    6.6061   10.9867 H   0  0  0  0  0  0  0  0  0  0  0  0
   49.5722    7.0442   17.1212 H   0  0  0  0  0  0  0  0  0  0  0  0
   50.4835    8.4854   17.4925 H   0  0  0  0  0  0  0  0  0  0  0  0
   47.5333    8.3828   16.6373 H   0  0  0  0  0  0  0  0  0  0  0  0
   48.1204    8.6109   18.2691 H   0  0  0  0  0  0  0  0  0  0  0  0
   48.9886   12.1667   21.7430 H   0  0  0  0  0  0  0  0  0  0  0  0
   47.2443   11.9369   21.8169 H   0  0  0  0  0  0  0  0  0  0  0  0
   47.2769   10.7736   19.6187 H   0  0  0  0  0  0  0  0  0  0  0  0
   47.8473   12.4369   19.5410 H   0  0  0  0  0  0  0  0  0  0  0  0
   48.4622   10.5377   15.9149 H   0  0  0  0  0  0  0  0  0  0  0  0
   47.3579   10.7198   17.2546 H   0  0  0  0  0  0  0  0  0  0  0  0
   49.2906   12.1938   17.4961 H   0  0  0  0  0  0  0  0  0  0  0  0
   50.4108   10.8568   17.3735 H   0  0  0  0  0  0  0  0  0  0  0  0
   50.2344   11.5712   19.6706 H   0  0  0  0  0  0  0  0  0  0  0  0
   49.6168    9.9324   19.5317 H   0  0  0  0  0  0  0  0  0  0  0  0
   47.5774    9.4427   21.7946 H   0  0  0  0  0  0  0  0  0  0  0  0
   49.3352    9.6976   21.8286 H   0  0  0  0  0  0  0  0  0  0  0  0
   48.3394   10.2391   23.1817 H   0  0  0  0  0  0  0  0  0  0  0  0
   55.4119    6.8875    7.5995 H   0  0  0  0  0  0  0  0  0  0  0  0
   53.7424    7.6083   10.7457 H   0  0  0  0  0  0  0  0  0  0  0  0
   52.6733    6.2176   11.0636 H   0  0  0  0  0  0  0  0  0  0  0  0
   50.6972    7.7637   11.0380 H   0  0  0  0  0  0  0  0  0  0  0  0
   51.7618    9.1261   10.7533 H   0  0  0  0  0  0  0  0  0  0  0  0
   52.9439    8.6728   12.9240 H   0  0  0  0  0  0  0  0  0  0  0  0
   51.8889    7.2858   13.2078 H   0  0  0  0  0  0  0  0  0  0  0  0
   49.8928    8.8013   13.2019 H   0  0  0  0  0  0  0  0  0  0  0  0
   50.9498   10.1901   12.9300 H   0  0  0  0  0  0  0  0  0  0  0  0
   51.0795    8.3092   15.3417 H   0  0  0  0  0  0  0  0  0  0  0  0
   52.1356    9.7013   15.0868 H   0  0  0  0  0  0  0  0  0  0  0  0
   50.1125   11.2014   15.0534 H   0  0  0  0  0  0  0  0  0  0  0  0
   49.0851    9.8203   15.3934 H   0  0  0  0  0  0  0  0  0  0  0  0
   49.6112   11.1788   17.4160 H   0  0  0  0  0  0  0  0  0  0  0  0
   51.3236   10.9238   17.1721 H   0  0  0  0  0  0  0  0  0  0  0  0
   50.4913    9.4911   18.9596 H   0  0  0  0  0  0  0  0  0  0  0  0
   51.1261    8.5314   17.6488 H   0  0  0  0  0  0  0  0  0  0  0  0
   49.0836    7.5366   18.5389 H   0  0  0  0  0  0  0  0  0  0  0  0
   48.8770    7.9680   16.8552 H   0  0  0  0  0  0  0  0  0  0  0  0
   46.8674    8.4934   18.0874 H   0  0  0  0  0  0  0  0  0  0  0  0
   47.5689    9.9894   17.4957 H   0  0  0  0  0  0  0  0  0  0  0  0
   47.8925    8.9078   20.3496 H   0  0  0  0  0  0  0  0  0  0  0  0
   48.5292   10.4481   19.7675 H   0  0  0  0  0  0  0  0  0  0  0  0
   46.2257   11.2536   19.2994 H   0  0  0  0  0  0  0  0  0  0  0  0
   45.5616    9.7051   19.8560 H   0  0  0  0  0  0  0  0  0  0  0  0
   46.4082   10.7689   20.9948 H   0  0  0  0  0  0  0  0  0  0  0  0
  1  2  1  0
  1  3  1  0
  3  6  1  0
  4  6  1  0
  4  7  2  0
  4  8  1  0
  5  9  2  0
  7  9  1  0
  5 10  1  0
  8 10  2  0
  1 11  1  0
  1 12  1  0
 12 13  1  0
 11 14  1  0
  5 15  1  0
 15 16  1  0
 17 18  1  0
 16 19  1  0
 19 20  1  0
 18 21  1  0
 20 21  1  0
 17 22  1  0
 23 24  1  0
 23 25  1  0
 23 26  2  0
 23 27  2  0
 24 28  1  0
 28 29  1  0
 29 30  1  0
 30 31  1  0
 31 32  1  0
 32 33  1  0
 33 34  1  0
 34 35  1  0
 35 36  1  0
 36 37  1  0
 37 38  1  0
 38 39  1  0
  2 40  1  0
  2 41  1  0
  3 42  1  0
  3 43  1  0
  6 44  1  0
  6 45  1  0
  7 46  1  0
  8 47  1  0
  9 48  1  0
 10 49  1  0
 11 50  1  0
 11 51  1  0
 12 52  1  0
 12 53  1  0
 13 54  1  0
 14 55  1  0
 15 56  1  0
 15 57  1  0
 16 58  1  0
 16 59  1  0
 17 60  1  0
 17 61  1  0
 18 62  1  0
 18 63  1  0
 19 64  1  0
 19 65  1  0
 20 66  1  0
 20 67  1  0
 21 68  1  0
 21 69  1  0
 22 70  1  0
 22 71  1  0
 22 72  1  0
 25 73  1  0
 28 74  1  0
 28 75  1  0
 29 76  1  0
 29 77  1  0
 30 78  1  0
 30 79  1  0
 31 80  1  0
 31 81  1  0
 32 82  1  0
 32 83  1  0
 33 84  1  0
 33 85  1  0
 34 86  1  0
 34 87  1  0
 35 88  1  0
 35 89  1  0
 36 90  1  0
 36 91  1  0
 37 92  1  0
 37 93  1  0
 38 94  1  0
 38 95  1  0
 39 96  1  0
 39 97  1  0
 39 98  1  0
M  END
> <Uni-Dock RESULT> 
ENERGY=   -4.316  LOWER_BOUND=    7.305  UPPER_BOUND=    9.062
INTER + INTRA:          -4.316
INTER:                  -4.316
INTRA:                   0.000
UNBOUND:                 0.000

$$$$
