
     RDKit          3D

 98 97  0  0  0  0  0  0  0  0999 V2000
   44.0027    4.7920   11.1911 C   0  0  0  0  0  0  0  0  0  0  0  0
   43.8758    4.9318    9.7211 N   0  0  0  0  0  0  0  0  0  0  0  0
   45.3053    5.4832   11.6868 C   0  0  0  0  0  0  0  0  0  0  0  0
   46.6262    7.5859   12.0959 C   0  0  0  0  0  0  0  0  0  0  0  0
   49.0257    8.6160   13.1566 C   0  0  0  0  0  0  0  0  0  0  0  0
   45.3481    7.0105   11.5334 C   0  0  0  0  0  0  0  0  0  0  0  0
   46.6560    8.1368   13.3827 C   0  0  0  0  0  0  0  0  0  0  0  0
   47.8087    7.5494   11.3468 C   0  0  0  0  0  0  0  0  0  0  0  0
   47.8452    8.6470   13.9079 C   0  0  0  0  0  0  0  0  0  0  0  0
   48.9976    8.0590   11.8727 C   0  0  0  0  0  0  0  0  0  0  0  0
   44.0984    3.2707   11.5095 C   0  0  0  0  0  0  0  0  0  0  0  0
   42.7304    5.3567   11.8711 C   0  0  0  0  0  0  0  0  0  0  0  0
   42.8004    5.2824   13.2931 O   0  0  0  0  0  0  0  0  0  0  0  0
   45.2016    2.6829   10.8084 O   0  0  0  0  0  0  0  0  0  0  0  0
   50.3182    9.1371   13.7360 C   0  0  0  0  0  0  0  0  0  0  0  0
   51.0967    8.0260   14.4450 C   0  0  0  0  0  0  0  0  0  0  0  0
   56.2606   10.4629   16.4107 C   0  0  0  0  0  0  0  0  0  0  0  0
   54.8471   10.3004   15.8511 C   0  0  0  0  0  0  0  0  0  0  0  0
   52.3813    8.5160   15.1196 C   0  0  0  0  0  0  0  0  0  0  0  0
   53.4228    9.0445   14.1294 C   0  0  0  0  0  0  0  0  0  0  0  0
   54.8089    9.2330   14.7549 C   0  0  0  0  0  0  0  0  0  0  0  0
   56.3077   11.5030   17.5178 C   0  0  0  0  0  0  0  0  0  0  0  0
   55.3373    9.8090   16.4719 S   0  0  0  0  0  0  0  0  0  0  0  0
   54.4146    9.3960   15.2022 O   0  0  0  0  0  0  0  0  0  0  0  0
   54.2957   10.5244   17.4732 O   0  0  0  0  0  0  0  0  0  0  0  0
   56.2844   10.8237   16.0674 O   0  0  0  0  0  0  0  0  0  0  0  0
   55.7693    8.6074   17.1473 O   0  0  0  0  0  0  0  0  0  0  0  0
   53.8333   10.4361   14.4337 C   0  0  0  0  0  0  0  0  0  0  0  0
   53.0889    9.8371   13.2442 C   0  0  0  0  0  0  0  0  0  0  0  0
   51.9103    8.9559   13.6724 C   0  0  0  0  0  0  0  0  0  0  0  0
   51.1716    8.4020   12.4511 C   0  0  0  0  0  0  0  0  0  0  0  0
   50.0444    7.4260   12.8040 C   0  0  0  0  0  0  0  0  0  0  0  0
   48.8776    8.0894   13.5405 C   0  0  0  0  0  0  0  0  0  0  0  0
   47.7293    7.1230   13.8486 C   0  0  0  0  0  0  0  0  0  0  0  0
   46.9672    6.6639   12.6026 C   0  0  0  0  0  0  0  0  0  0  0  0
   45.7652    5.7933   12.9801 C   0  0  0  0  0  0  0  0  0  0  0  0
   45.0054    5.3272   11.7359 C   0  0  0  0  0  0  0  0  0  0  0  0
   43.8531    4.3715   12.0541 C   0  0  0  0  0  0  0  0  0  0  0  0
   42.7231    5.0207   12.8387 C   0  0  0  0  0  0  0  0  0  0  0  0
   44.1057    5.8749    9.4199 H   0  0  0  0  0  0  0  0  0  0  0  0
   44.5856    4.3184    9.3056 H   0  0  0  0  0  0  0  0  0  0  0  0
   45.4617    5.2318   12.7451 H   0  0  0  0  0  0  0  0  0  0  0  0
   46.1678    5.0544   11.1568 H   0  0  0  0  0  0  0  0  0  0  0  0
   45.2704    7.3022   10.4800 H   0  0  0  0  0  0  0  0  0  0  0  0
   44.4973    7.4781   12.0411 H   0  0  0  0  0  0  0  0  0  0  0  0
   45.7551    8.1718   13.9899 H   0  0  0  0  0  0  0  0  0  0  0  0
   47.8134    7.1147   10.3496 H   0  0  0  0  0  0  0  0  0  0  0  0
   47.8456    9.0670   14.9116 H   0  0  0  0  0  0  0  0  0  0  0  0
   49.9056    8.0109   11.2758 H   0  0  0  0  0  0  0  0  0  0  0  0
   44.2483    3.0992   12.5808 H   0  0  0  0  0  0  0  0  0  0  0  0
   43.1872    2.7463   11.1990 H   0  0  0  0  0  0  0  0  0  0  0  0
   42.5441    6.3987   11.5891 H   0  0  0  0  0  0  0  0  0  0  0  0
   41.8474    4.7855   11.5610 H   0  0  0  0  0  0  0  0  0  0  0  0
   43.3750    6.0039   13.5995 H   0  0  0  0  0  0  0  0  0  0  0  0
   45.1882    1.7356   11.0235 H   0  0  0  0  0  0  0  0  0  0  0  0
   50.1021    9.9530   14.4368 H   0  0  0  0  0  0  0  0  0  0  0  0
   50.9159    9.5776   12.9292 H   0  0  0  0  0  0  0  0  0  0  0  0
   51.3406    7.2256   13.7356 H   0  0  0  0  0  0  0  0  0  0  0  0
   50.4612    7.5683   15.2141 H   0  0  0  0  0  0  0  0  0  0  0  0
   56.9481   10.7573   15.6093 H   0  0  0  0  0  0  0  0  0  0  0  0
   56.6158    9.5039   16.8049 H   0  0  0  0  0  0  0  0  0  0  0  0
   54.1694   10.0274   16.6675 H   0  0  0  0  0  0  0  0  0  0  0  0
   54.4983   11.2573   15.4445 H   0  0  0  0  0  0  0  0  0  0  0  0
   52.8098    7.6772   15.6813 H   0  0  0  0  0  0  0  0  0  0  0  0
   52.1290    9.2929   15.8501 H   0  0  0  0  0  0  0  0  0  0  0  0
   53.5197    8.3383   13.2950 H   0  0  0  0  0  0  0  0  0  0  0  0
   53.0862    9.9970   13.7033 H   0  0  0  0  0  0  0  0  0  0  0  0
   55.1588    8.2745   15.1584 H   0  0  0  0  0  0  0  0  0  0  0  0
   55.5098    9.5126   13.9589 H   0  0  0  0  0  0  0  0  0  0  0  0
   57.3221   11.5811   17.9181 H   0  0  0  0  0  0  0  0  0  0  0  0
   55.6388   11.2299   18.3406 H   0  0  0  0  0  0  0  0  0  0  0  0
   56.0123   12.4882   17.1458 H   0  0  0  0  0  0  0  0  0  0  0  0
   54.7191   10.5584   18.3561 H   0  0  0  0  0  0  0  0  0  0  0  0
   54.6191   11.1027   14.0612 H   0  0  0  0  0  0  0  0  0  0  0  0
   53.1482   11.0198   15.0582 H   0  0  0  0  0  0  0  0  0  0  0  0
   53.7861    9.2323   12.6515 H   0  0  0  0  0  0  0  0  0  0  0  0
   52.7263   10.6494   12.6037 H   0  0  0  0  0  0  0  0  0  0  0  0
   51.2268    9.5486   14.2903 H   0  0  0  0  0  0  0  0  0  0  0  0
   52.2699    8.1248   14.2896 H   0  0  0  0  0  0  0  0  0  0  0  0
   50.7678    9.2294   11.8543 H   0  0  0  0  0  0  0  0  0  0  0  0
   51.8888    7.8732   11.8108 H   0  0  0  0  0  0  0  0  0  0  0  0
   50.4456    6.6035   13.4086 H   0  0  0  0  0  0  0  0  0  0  0  0
   49.6852    6.9851   11.8676 H   0  0  0  0  0  0  0  0  0  0  0  0
   49.2323    8.4977   14.4939 H   0  0  0  0  0  0  0  0  0  0  0  0
   48.4986    8.9357   12.9555 H   0  0  0  0  0  0  0  0  0  0  0  0
   47.0302    7.6296   14.5257 H   0  0  0  0  0  0  0  0  0  0  0  0
   48.1162    6.2510   14.3898 H   0  0  0  0  0  0  0  0  0  0  0  0
   47.6307    6.0933   11.9428 H   0  0  0  0  0  0  0  0  0  0  0  0
   46.6218    7.5398   12.0392 H   0  0  0  0  0  0  0  0  0  0  0  0
   45.0981    6.3674   13.6332 H   0  0  0  0  0  0  0  0  0  0  0  0
   46.1097    4.9216   13.5498 H   0  0  0  0  0  0  0  0  0  0  0  0
   44.6212    6.1968   11.1886 H   0  0  0  0  0  0  0  0  0  0  0  0
   45.7016    4.8110   11.0630 H   0  0  0  0  0  0  0  0  0  0  0  0
   43.4472    3.9906   11.1096 H   0  0  0  0  0  0  0  0  0  0  0  0
   44.2295    3.5043   12.6090 H   0  0  0  0  0  0  0  0  0  0  0  0
   41.8960    4.3133   12.9610 H   0  0  0  0  0  0  0  0  0  0  0  0
   43.0503    5.3240   13.8378 H   0  0  0  0  0  0  0  0  0  0  0  0
   42.3386    5.9024   12.3167 H   0  0  0  0  0  0  0  0  0  0  0  0
  1  2  1  0
  1  3  1  0
  3  6  1  0
  4  6  1  0
  4  7  2  0
  4  8  1  0
  5  9  2  0
  7  9  1  0
  5 10  1  0
  8 10  2  0
  1 11  1  0
  1 12  1  0
 12 13  1  0
 11 14  1  0
  5 15  1  0
 15 16  1  0
 17 18  1  0
 16 19  1  0
 19 20  1  0
 18 21  1  0
 20 21  1  0
 17 22  1  0
 23 24  1  0
 23 25  1  0
 23 26  2  0
 23 27  2  0
 24 28  1  0
 28 29  1  0
 29 30  1  0
 30 31  1  0
 31 32  1  0
 32 33  1  0
 33 34  1  0
 34 35  1  0
 35 36  1  0
 36 37  1  0
 37 38  1  0
 38 39  1  0
  2 40  1  0
  2 41  1  0
  3 42  1  0
  3 43  1  0
  6 44  1  0
  6 45  1  0
  7 46  1  0
  8 47  1  0
  9 48  1  0
 10 49  1  0
 11 50  1  0
 11 51  1  0
 12 52  1  0
 12 53  1  0
 13 54  1  0
 14 55  1  0
 15 56  1  0
 15 57  1  0
 16 58  1  0
 16 59  1  0
 17 60  1  0
 17 61  1  0
 18 62  1  0
 18 63  1  0
 19 64  1  0
 19 65  1  0
 20 66  1  0
 20 67  1  0
 21 68  1  0
 21 69  1  0
 22 70  1  0
 22 71  1  0
 22 72  1  0
 25 73  1  0
 28 74  1  0
 28 75  1  0
 29 76  1  0
 29 77  1  0
 30 78  1  0
 30 79  1  0
 31 80  1  0
 31 81  1  0
 32 82  1  0
 32 83  1  0
 33 84  1  0
 33 85  1  0
 34 86  1  0
 34 87  1  0
 35 88  1  0
 35 89  1  0
 36 90  1  0
 36 91  1  0
 37 92  1  0
 37 93  1  0
 38 94  1  0
 38 95  1  0
 39 96  1  0
 39 97  1  0
 39 98  1  0
M  END
> <Uni-Dock RESULT> 
ENERGY=   -5.760  LOWER_BOUND=    0.000  UPPER_BOUND=    0.000
INTER + INTRA:          -5.760
INTER:                  -5.760
INTRA:                   0.000
UNBOUND:                 0.000

$$$$

     RDKit          3D

 98 97  0  0  0  0  0  0  0  0999 V2000
   43.9788    4.4975   11.3549 C   0  0  0  0  0  0  0  0  0  0  0  0
   42.5445    4.8697   11.3305 N   0  0  0  0  0  0  0  0  0  0  0  0
   44.8634    5.7718   11.4730 C   0  0  0  0  0  0  0  0  0  0  0  0
   45.6796    7.7296   12.8274 C   0  0  0  0  0  0  0  0  0  0  0  0
   47.4478    9.9244   12.8489 C   0  0  0  0  0  0  0  0  0  0  0  0
   44.7400    6.5477   12.7924 C   0  0  0  0  0  0  0  0  0  0  0  0
   46.9135    7.6422   13.4832 C   0  0  0  0  0  0  0  0  0  0  0  0
   45.3408    8.9226   12.1772 C   0  0  0  0  0  0  0  0  0  0  0  0
   47.7894    8.7298   13.4936 C   0  0  0  0  0  0  0  0  0  0  0  0
   46.2172   10.0097   12.1873 C   0  0  0  0  0  0  0  0  0  0  0  0
   44.3024    3.7945   10.0036 C   0  0  0  0  0  0  0  0  0  0  0  0
   44.2268    3.4891   12.5045 C   0  0  0  0  0  0  0  0  0  0  0  0
   45.5981    3.1123   12.6052 O   0  0  0  0  0  0  0  0  0  0  0  0
   43.9810    4.6557    8.9040 O   0  0  0  0  0  0  0  0  0  0  0  0
   48.4076   11.0889   12.8316 C   0  0  0  0  0  0  0  0  0  0  0  0
   49.3194   11.0388   11.6029 C   0  0  0  0  0  0  0  0  0  0  0  0
   52.8250   15.9521   11.8012 C   0  0  0  0  0  0  0  0  0  0  0  0
   51.8478   14.8433   12.1930 C   0  0  0  0  0  0  0  0  0  0  0  0
   50.3669   12.1556   11.5746 C   0  0  0  0  0  0  0  0  0  0  0  0
   49.7581   13.5555   11.4551 C   0  0  0  0  0  0  0  0  0  0  0  0
   50.7892   14.6342   11.1075 C   0  0  0  0  0  0  0  0  0  0  0  0
   53.8965   16.1531   12.8600 C   0  0  0  0  0  0  0  0  0  0  0  0
   52.5885   14.8574   11.6289 S   0  0  0  0  0  0  0  0  0  0  0  0
   51.0906   14.2493   11.4860 O   0  0  0  0  0  0  0  0  0  0  0  0
   53.2150   14.0216   12.8569 O   0  0  0  0  0  0  0  0  0  0  0  0
   52.5087   16.2337   12.0643 O   0  0  0  0  0  0  0  0  0  0  0  0
   53.3587   14.4831   10.4655 O   0  0  0  0  0  0  0  0  0  0  0  0
   50.1841   14.4504   12.5575 C   0  0  0  0  0  0  0  0  0  0  0  0
   48.8173   13.8853   12.1828 C   0  0  0  0  0  0  0  0  0  0  0  0
   48.8476   12.3678   11.9699 C   0  0  0  0  0  0  0  0  0  0  0  0
   47.4526   11.8371   11.6284 C   0  0  0  0  0  0  0  0  0  0  0  0
   47.4271   10.3411   11.2984 C   0  0  0  0  0  0  0  0  0  0  0  0
   47.7625    9.4507   12.4978 C   0  0  0  0  0  0  0  0  0  0  0  0
   47.6878    7.9539   12.1793 C   0  0  0  0  0  0  0  0  0  0  0  0
   46.2626    7.4538   11.9289 C   0  0  0  0  0  0  0  0  0  0  0  0
   46.2375    5.9356   11.7286 C   0  0  0  0  0  0  0  0  0  0  0  0
   44.8146    5.4337   11.4712 C   0  0  0  0  0  0  0  0  0  0  0  0
   44.7484    3.9355   11.1654 C   0  0  0  0  0  0  0  0  0  0  0  0
   45.1410    3.0561   12.3429 C   0  0  0  0  0  0  0  0  0  0  0  0
   42.3364    5.5789   12.0282 H   0  0  0  0  0  0  0  0  0  0  0  0
   42.3701    5.3065   10.4186 H   0  0  0  0  0  0  0  0  0  0  0  0
   45.9156    5.4900   11.3281 H   0  0  0  0  0  0  0  0  0  0  0  0
   44.6294    6.4539   10.6432 H   0  0  0  0  0  0  0  0  0  0  0  0
   43.7174    6.9129   12.9396 H   0  0  0  0  0  0  0  0  0  0  0  0
   44.9567    5.8994   13.6485 H   0  0  0  0  0  0  0  0  0  0  0  0
   47.2063    6.7261   13.9899 H   0  0  0  0  0  0  0  0  0  0  0  0
   44.3933    9.0104   11.6499 H   0  0  0  0  0  0  0  0  0  0  0  0
   48.7446    8.6380   14.0063 H   0  0  0  0  0  0  0  0  0  0  0  0
   45.9362   10.9227   11.6671 H   0  0  0  0  0  0  0  0  0  0  0  0
   45.3654    3.5400    9.9345 H   0  0  0  0  0  0  0  0  0  0  0  0
   43.7178    2.8743    9.8897 H   0  0  0  0  0  0  0  0  0  0  0  0
   43.9065    3.8867   13.4737 H   0  0  0  0  0  0  0  0  0  0  0  0
   43.6511    2.5711   12.3367 H   0  0  0  0  0  0  0  0  0  0  0  0
   46.0740    3.8395   13.0402 H   0  0  0  0  0  0  0  0  0  0  0  0
   44.1755    4.1517    8.0965 H   0  0  0  0  0  0  0  0  0  0  0  0
   49.0095   11.0804   13.7488 H   0  0  0  0  0  0  0  0  0  0  0  0
   47.8326   12.0222   12.8520 H   0  0  0  0  0  0  0  0  0  0  0  0
   48.7183   11.0802   10.6862 H   0  0  0  0  0  0  0  0  0  0  0  0
   49.8466   10.0764   11.5783 H   0  0  0  0  0  0  0  0  0  0  0  0
   52.2824   16.8930   11.6534 H   0  0  0  0  0  0  0  0  0  0  0  0
   53.3054   15.7030   10.8482 H   0  0  0  0  0  0  0  0  0  0  0  0
   52.4077   13.9161   12.3577 H   0  0  0  0  0  0  0  0  0  0  0  0
   51.3575   15.1003   13.1397 H   0  0  0  0  0  0  0  0  0  0  0  0
   51.0301   11.9759   10.7198 H   0  0  0  0  0  0  0  0  0  0  0  0
   50.9852   12.0904   12.4769 H   0  0  0  0  0  0  0  0  0  0  0  0
   48.9926   13.5511   10.6688 H   0  0  0  0  0  0  0  0  0  0  0  0
   49.2531   13.8262   12.3899 H   0  0  0  0  0  0  0  0  0  0  0  0
   51.2769   14.3784   10.1585 H   0  0  0  0  0  0  0  0  0  0  0  0
   50.2560   15.5783   10.9415 H   0  0  0  0  0  0  0  0  0  0  0  0
   54.5963   16.9315   12.5444 H   0  0  0  0  0  0  0  0  0  0  0  0
   54.4653   15.2314   13.0216 H   0  0  0  0  0  0  0  0  0  0  0  0
   53.4560   16.4581   13.8135 H   0  0  0  0  0  0  0  0  0  0  0  0
   54.1865   14.1447   12.8257 H   0  0  0  0  0  0  0  0  0  0  0  0
   50.0818   15.5227   12.7577 H   0  0  0  0  0  0  0  0  0  0  0  0
   50.5645   13.9617   13.4612 H   0  0  0  0  0  0  0  0  0  0  0  0
   48.4708   14.3655   11.2594 H   0  0  0  0  0  0  0  0  0  0  0  0
   48.0998   14.1308   12.9743 H   0  0  0  0  0  0  0  0  0  0  0  0
   49.2222   11.8866   12.8800 H   0  0  0  0  0  0  0  0  0  0  0  0
   49.5418   12.1179   11.1596 H   0  0  0  0  0  0  0  0  0  0  0  0
   46.7638   12.0424   12.4573 H   0  0  0  0  0  0  0  0  0  0  0  0
   47.0677   12.3823   10.7574 H   0  0  0  0  0  0  0  0  0  0  0  0
   48.1225   10.1337   10.4759 H   0  0  0  0  0  0  0  0  0  0  0  0
   46.4227   10.1016   10.9322 H   0  0  0  0  0  0  0  0  0  0  0  0
   48.7814    9.6667   12.8394 H   0  0  0  0  0  0  0  0  0  0  0  0
   47.0928    9.6822   13.3345 H   0  0  0  0  0  0  0  0  0  0  0  0
   48.1132    7.4036   13.0278 H   0  0  0  0  0  0  0  0  0  0  0  0
   48.3183    7.7299   11.3103 H   0  0  0  0  0  0  0  0  0  0  0  0
   45.8421    7.9400   11.0414 H   0  0  0  0  0  0  0  0  0  0  0  0
   45.6242    7.7210   12.7803 H   0  0  0  0  0  0  0  0  0  0  0  0
   46.6506    5.4498   12.6199 H   0  0  0  0  0  0  0  0  0  0  0  0
   46.8817    5.6678   10.8823 H   0  0  0  0  0  0  0  0  0  0  0  0
   44.1792    5.6607   12.3361 H   0  0  0  0  0  0  0  0  0  0  0  0
   44.3922    5.9760   10.6161 H   0  0  0  0  0  0  0  0  0  0  0  0
   43.7219    3.6863   10.8717 H   0  0  0  0  0  0  0  0  0  0  0  0
   45.3886    3.7008   10.3071 H   0  0  0  0  0  0  0  0  0  0  0  0
   44.9926    2.0011   12.0895 H   0  0  0  0  0  0  0  0  0  0  0  0
   46.1940    3.1881   12.6093 H   0  0  0  0  0  0  0  0  0  0  0  0
   44.5295    3.2813   13.2221 H   0  0  0  0  0  0  0  0  0  0  0  0
  1  2  1  0
  1  3  1  0
  3  6  1  0
  4  6  1  0
  4  7  2  0
  4  8  1  0
  5  9  2  0
  7  9  1  0
  5 10  1  0
  8 10  2  0
  1 11  1  0
  1 12  1  0
 12 13  1  0
 11 14  1  0
  5 15  1  0
 15 16  1  0
 17 18  1  0
 16 19  1  0
 19 20  1  0
 18 21  1  0
 20 21  1  0
 17 22  1  0
 23 24  1  0
 23 25  1  0
 23 26  2  0
 23 27  2  0
 24 28  1  0
 28 29  1  0
 29 30  1  0
 30 31  1  0
 31 32  1  0
 32 33  1  0
 33 34  1  0
 34 35  1  0
 35 36  1  0
 36 37  1  0
 37 38  1  0
 38 39  1  0
  2 40  1  0
  2 41  1  0
  3 42  1  0
  3 43  1  0
  6 44  1  0
  6 45  1  0
  7 46  1  0
  8 47  1  0
  9 48  1  0
 10 49  1  0
 11 50  1  0
 11 51  1  0
 12 52  1  0
 12 53  1  0
 13 54  1  0
 14 55  1  0
 15 56  1  0
 15 57  1  0
 16 58  1  0
 16 59  1  0
 17 60  1  0
 17 61  1  0
 18 62  1  0
 18 63  1  0
 19 64  1  0
 19 65  1  0
 20 66  1  0
 20 67  1  0
 21 68  1  0
 21 69  1  0
 22 70  1  0
 22 71  1  0
 22 72  1  0
 25 73  1  0
 28 74  1  0
 28 75  1  0
 29 76  1  0
 29 77  1  0
 30 78  1  0
 30 79  1  0
 31 80  1  0
 31 81  1  0
 32 82  1  0
 32 83  1  0
 33 84  1  0
 33 85  1  0
 34 86  1  0
 34 87  1  0
 35 88  1  0
 35 89  1  0
 36 90  1  0
 36 91  1  0
 37 92  1  0
 37 93  1  0
 38 94  1  0
 38 95  1  0
 39 96  1  0
 39 97  1  0
 39 98  1  0
M  END
> <Uni-Dock RESULT> 
ENERGY=   -5.634  LOWER_BOUND=    3.821  UPPER_BOUND=    4.589
INTER + INTRA:          -5.634
INTER:                  -5.634
INTRA:                   0.000
UNBOUND:                 0.000

$$$$

     RDKit          3D

 98 97  0  0  0  0  0  0  0  0999 V2000
   43.8135    4.8501   12.4605 C   0  0  0  0  0  0  0  0  0  0  0  0
   43.0280    5.0225   13.7054 N   0  0  0  0  0  0  0  0  0  0  0  0
   44.9357    5.9245   12.3792 C   0  0  0  0  0  0  0  0  0  0  0  0
   47.1066    6.8649   13.2371 C   0  0  0  0  0  0  0  0  0  0  0  0
   49.0719    8.8421   12.8217 C   0  0  0  0  0  0  0  0  0  0  0  0
   46.0405    5.8144   13.4399 C   0  0  0  0  0  0  0  0  0  0  0  0
   48.2986    6.5539   12.5715 C   0  0  0  0  0  0  0  0  0  0  0  0
   46.9040    8.1751   13.6876 C   0  0  0  0  0  0  0  0  0  0  0  0
   49.2720    7.5339   12.3658 C   0  0  0  0  0  0  0  0  0  0  0  0
   47.8774    9.1548   13.4810 C   0  0  0  0  0  0  0  0  0  0  0  0
   42.8416    5.0586   11.2619 C   0  0  0  0  0  0  0  0  0  0  0  0
   44.3652    3.4037   12.3992 C   0  0  0  0  0  0  0  0  0  0  0  0
   45.1604    3.1784   11.2376 O   0  0  0  0  0  0  0  0  0  0  0  0
   42.2214    6.3482   11.3413 O   0  0  0  0  0  0  0  0  0  0  0  0
   50.1089    9.9094   12.5708 C   0  0  0  0  0  0  0  0  0  0  0  0
   49.8394   10.6477   11.2571 C   0  0  0  0  0  0  0  0  0  0  0  0
   54.0529   14.9435   10.7465 C   0  0  0  0  0  0  0  0  0  0  0  0
   53.2786   13.7113   11.2153 C   0  0  0  0  0  0  0  0  0  0  0  0
   50.9066   11.6908   10.9135 C   0  0  0  0  0  0  0  0  0  0  0  0
   50.9689   12.8475   11.9148 C   0  0  0  0  0  0  0  0  0  0  0  0
   51.7960   14.0359   11.4133 C   0  0  0  0  0  0  0  0  0  0  0  0
   55.5226   14.6285   10.5222 C   0  0  0  0  0  0  0  0  0  0  0  0
   53.3731   14.1140   10.3810 S   0  0  0  0  0  0  0  0  0  0  0  0
   52.0969   13.5388   11.2024 O   0  0  0  0  0  0  0  0  0  0  0  0
   54.2830   12.8049   10.1406 O   0  0  0  0  0  0  0  0  0  0  0  0
   54.1362   14.9960   11.2352 O   0  0  0  0  0  0  0  0  0  0  0  0
   52.9353   14.5342    9.0701 O   0  0  0  0  0  0  0  0  0  0  0  0
   52.3208   13.0131   12.5000 C   0  0  0  0  0  0  0  0  0  0  0  0
   50.9877   12.6162   13.1271 C   0  0  0  0  0  0  0  0  0  0  0  0
   50.2900   11.4886   12.3586 C   0  0  0  0  0  0  0  0  0  0  0  0
   48.9744   11.0986   13.0379 C   0  0  0  0  0  0  0  0  0  0  0  0
   48.1703   10.0483   12.2645 C   0  0  0  0  0  0  0  0  0  0  0  0
   48.8557    8.6803   12.2104 C   0  0  0  0  0  0  0  0  0  0  0  0
   48.0279    7.6179   11.4800 C   0  0  0  0  0  0  0  0  0  0  0  0
   46.7661    7.1991   12.2393 C   0  0  0  0  0  0  0  0  0  0  0  0
   46.0414    6.0582   11.5191 C   0  0  0  0  0  0  0  0  0  0  0  0
   44.7758    5.6421   12.2726 C   0  0  0  0  0  0  0  0  0  0  0  0
   43.9614    4.5723   11.5413 C   0  0  0  0  0  0  0  0  0  0  0  0
   44.6724    3.2315   11.4373 C   0  0  0  0  0  0  0  0  0  0  0  0
   43.6347    5.1958   14.5023 H   0  0  0  0  0  0  0  0  0  0  0  0
   42.4674    5.8730   13.5833 H   0  0  0  0  0  0  0  0  0  0  0  0
   45.3987    5.8816   11.3836 H   0  0  0  0  0  0  0  0  0  0  0  0
   44.4853    6.9251   12.4462 H   0  0  0  0  0  0  0  0  0  0  0  0
   45.6294    5.9278   14.4493 H   0  0  0  0  0  0  0  0  0  0  0  0
   46.5106    4.8252   13.4132 H   0  0  0  0  0  0  0  0  0  0  0  0
   48.4799    5.5470   12.2043 H   0  0  0  0  0  0  0  0  0  0  0  0
   45.9806    8.4441   14.1959 H   0  0  0  0  0  0  0  0  0  0  0  0
   50.1889    7.2704   11.8428 H   0  0  0  0  0  0  0  0  0  0  0  0
   47.6933   10.1680   13.8315 H   0  0  0  0  0  0  0  0  0  0  0  0
   43.3729    4.9970   10.3062 H   0  0  0  0  0  0  0  0  0  0  0  0
   42.0462    4.3042   11.2652 H   0  0  0  0  0  0  0  0  0  0  0  0
   44.9661    3.1574   13.2814 H   0  0  0  0  0  0  0  0  0  0  0  0
   43.5401    2.6822   12.3706 H   0  0  0  0  0  0  0  0  0  0  0  0
   46.0305    3.5835   11.3910 H   0  0  0  0  0  0  0  0  0  0  0  0
   41.6096    6.4038   10.5886 H   0  0  0  0  0  0  0  0  0  0  0  0
   51.1061    9.4526   12.5493 H   0  0  0  0  0  0  0  0  0  0  0  0
   50.1107   10.6073   13.4164 H   0  0  0  0  0  0  0  0  0  0  0  0
   48.8555   11.1314   11.2921 H   0  0  0  0  0  0  0  0  0  0  0  0
   49.7935    9.9232   10.4338 H   0  0  0  0  0  0  0  0  0  0  0  0
   53.9646   15.7449   11.4891 H   0  0  0  0  0  0  0  0  0  0  0  0
   53.6206   15.3197    9.8123 H   0  0  0  0  0  0  0  0  0  0  0  0
   53.3944   12.9136   10.4734 H   0  0  0  0  0  0  0  0  0  0  0  0
   53.7033   13.3442   12.1573 H   0  0  0  0  0  0  0  0  0  0  0  0
   50.6827   12.0881    9.9161 H   0  0  0  0  0  0  0  0  0  0  0  0
   51.8828   11.1973   10.8481 H   0  0  0  0  0  0  0  0  0  0  0  0
   49.9513   13.2039   12.1195 H   0  0  0  0  0  0  0  0  0  0  0  0
   51.3815   12.4968   12.8682 H   0  0  0  0  0  0  0  0  0  0  0  0
   51.3684   14.4051   10.4727 H   0  0  0  0  0  0  0  0  0  0  0  0
   51.7026   14.8510   12.1413 H   0  0  0  0  0  0  0  0  0  0  0  0
   56.0477   15.5176   10.1630 H   0  0  0  0  0  0  0  0  0  0  0  0
   55.6441   13.8379    9.7743 H   0  0  0  0  0  0  0  0  0  0  0  0
   56.0018   14.3022   11.4497 H   0  0  0  0  0  0  0  0  0  0  0  0
   54.9245   13.0237    9.4332 H   0  0  0  0  0  0  0  0  0  0  0  0
   52.7962   13.7739   13.1291 H   0  0  0  0  0  0  0  0  0  0  0  0
   52.9870   12.1456   12.4385 H   0  0  0  0  0  0  0  0  0  0  0  0
   50.3266   13.4912   13.1495 H   0  0  0  0  0  0  0  0  0  0  0  0
   51.1594   12.3028   14.1633 H   0  0  0  0  0  0  0  0  0  0  0  0
   50.9596   10.6231   12.3076 H   0  0  0  0  0  0  0  0  0  0  0  0
   50.0892   11.8064   11.3292 H   0  0  0  0  0  0  0  0  0  0  0  0
   49.1743   10.7342   14.0532 H   0  0  0  0  0  0  0  0  0  0  0  0
   48.3487   11.9939   13.1426 H   0  0  0  0  0  0  0  0  0  0  0  0
   47.9782   10.4081   11.2464 H   0  0  0  0  0  0  0  0  0  0  0  0
   47.1958    9.9521   12.7559 H   0  0  0  0  0  0  0  0  0  0  0  0
   49.8139    8.7724   11.6860 H   0  0  0  0  0  0  0  0  0  0  0  0
   49.0828    8.3351   13.2259 H   0  0  0  0  0  0  0  0  0  0  0  0
   48.6621    6.7351   11.3311 H   0  0  0  0  0  0  0  0  0  0  0  0
   47.7568    7.9832   10.4820 H   0  0  0  0  0  0  0  0  0  0  0  0
   46.0845    8.0514   12.3385 H   0  0  0  0  0  0  0  0  0  0  0  0
   47.0365    6.8783   13.2532 H   0  0  0  0  0  0  0  0  0  0  0  0
   46.7211    5.2033   11.4277 H   0  0  0  0  0  0  0  0  0  0  0  0
   45.7779    6.3763   10.5031 H   0  0  0  0  0  0  0  0  0  0  0  0
   45.0420    5.2810   13.2736 H   0  0  0  0  0  0  0  0  0  0  0  0
   44.1360    6.5224   12.4126 H   0  0  0  0  0  0  0  0  0  0  0  0
   43.0181    4.4254   12.0804 H   0  0  0  0  0  0  0  0  0  0  0  0
   43.6998    4.9239   10.5366 H   0  0  0  0  0  0  0  0  0  0  0  0
   44.0087    2.4889   10.9819 H   0  0  0  0  0  0  0  0  0  0  0  0
   45.5697    3.2999   10.8150 H   0  0  0  0  0  0  0  0  0  0  0  0
   44.9627    2.8634   12.4261 H   0  0  0  0  0  0  0  0  0  0  0  0
  1  2  1  0
  1  3  1  0
  3  6  1  0
  4  6  1  0
  4  7  2  0
  4  8  1  0
  5  9  2  0
  7  9  1  0
  5 10  1  0
  8 10  2  0
  1 11  1  0
  1 12  1  0
 12 13  1  0
 11 14  1  0
  5 15  1  0
 15 16  1  0
 17 18  1  0
 16 19  1  0
 19 20  1  0
 18 21  1  0
 20 21  1  0
 17 22  1  0
 23 24  1  0
 23 25  1  0
 23 26  2  0
 23 27  2  0
 24 28  1  0
 28 29  1  0
 29 30  1  0
 30 31  1  0
 31 32  1  0
 32 33  1  0
 33 34  1  0
 34 35  1  0
 35 36  1  0
 36 37  1  0
 37 38  1  0
 38 39  1  0
  2 40  1  0
  2 41  1  0
  3 42  1  0
  3 43  1  0
  6 44  1  0
  6 45  1  0
  7 46  1  0
  8 47  1  0
  9 48  1  0
 10 49  1  0
 11 50  1  0
 11 51  1  0
 12 52  1  0
 12 53  1  0
 13 54  1  0
 14 55  1  0
 15 56  1  0
 15 57  1  0
 16 58  1  0
 16 59  1  0
 17 60  1  0
 17 61  1  0
 18 62  1  0
 18 63  1  0
 19 64  1  0
 19 65  1  0
 20 66  1  0
 20 67  1  0
 21 68  1  0
 21 69  1  0
 22 70  1  0
 22 71  1  0
 22 72  1  0
 25 73  1  0
 28 74  1  0
 28 75  1  0
 29 76  1  0
 29 77  1  0
 30 78  1  0
 30 79  1  0
 31 80  1  0
 31 81  1  0
 32 82  1  0
 32 83  1  0
 33 84  1  0
 33 85  1  0
 34 86  1  0
 34 87  1  0
 35 88  1  0
 35 89  1  0
 36 90  1  0
 36 91  1  0
 37 92  1  0
 37 93  1  0
 38 94  1  0
 38 95  1  0
 39 96  1  0
 39 97  1  0
 39 98  1  0
M  END
> <Uni-Dock RESULT> 
ENERGY=   -5.482  LOWER_BOUND=    3.558  UPPER_BOUND=    4.414
INTER + INTRA:          -5.482
INTER:                  -5.482
INTRA:                   0.000
UNBOUND:                 0.000

$$$$

     RDKit          3D

 98 97  0  0  0  0  0  0  0  0999 V2000
   48.7132    5.2985   21.2059 C   0  0  0  0  0  0  0  0  0  0  0  0
   48.3748    4.2173   20.2504 N   0  0  0  0  0  0  0  0  0  0  0  0
   48.7492    6.6711   20.4744 C   0  0  0  0  0  0  0  0  0  0  0  0
   47.5370    8.5336   19.2933 C   0  0  0  0  0  0  0  0  0  0  0  0
   47.8340   11.0753   18.1118 C   0  0  0  0  0  0  0  0  0  0  0  0
   47.4028    7.1713   19.9314 C   0  0  0  0  0  0  0  0  0  0  0  0
   47.2013    9.6920   20.0045 C   0  0  0  0  0  0  0  0  0  0  0  0
   48.0283    8.6585   17.9880 C   0  0  0  0  0  0  0  0  0  0  0  0
   47.3487   10.9511   19.4188 C   0  0  0  0  0  0  0  0  0  0  0  0
   48.1762    9.9178   17.4030 C   0  0  0  0  0  0  0  0  0  0  0  0
   50.1350    4.9994   21.7659 C   0  0  0  0  0  0  0  0  0  0  0  0
   47.7069    5.2750   22.3835 C   0  0  0  0  0  0  0  0  0  0  0  0
   47.9564    6.3140   23.3272 O   0  0  0  0  0  0  0  0  0  0  0  0
   51.0824    4.9016   20.6949 O   0  0  0  0  0  0  0  0  0  0  0  0
   48.0247   12.4372   17.4900 C   0  0  0  0  0  0  0  0  0  0  0  0
   49.4371   12.9704   17.7431 C   0  0  0  0  0  0  0  0  0  0  0  0
   49.8478   18.2956   14.9251 C   0  0  0  0  0  0  0  0  0  0  0  0
   49.2872   17.0161   15.5466 C   0  0  0  0  0  0  0  0  0  0  0  0
   49.6617   14.3845   17.2000 C   0  0  0  0  0  0  0  0  0  0  0  0
   49.5638   14.4711   15.6744 C   0  0  0  0  0  0  0  0  0  0  0  0
   50.0959   15.7924   15.1097 C   0  0  0  0  0  0  0  0  0  0  0  0
   49.0685   19.5219   15.3708 C   0  0  0  0  0  0  0  0  0  0  0  0
   50.0112   17.5578   15.7693 S   0  0  0  0  0  0  0  0  0  0  0  0
   49.8199   15.9514   15.6395 O   0  0  0  0  0  0  0  0  0  0  0  0
   49.0112   17.9569   16.9693 O   0  0  0  0  0  0  0  0  0  0  0  0
   49.5032   18.1999   14.5778 O   0  0  0  0  0  0  0  0  0  0  0  0
   51.3421   17.8327   16.2592 O   0  0  0  0  0  0  0  0  0  0  0  0
   48.5538   15.4613   15.2306 C   0  0  0  0  0  0  0  0  0  0  0  0
   48.6166   13.9439   15.0842 C   0  0  0  0  0  0  0  0  0  0  0  0
   48.9037   13.2372   16.4135 C   0  0  0  0  0  0  0  0  0  0  0  0
   48.9259   11.7174   16.2294 C   0  0  0  0  0  0  0  0  0  0  0  0
   49.3123   10.9494   17.4977 C   0  0  0  0  0  0  0  0  0  0  0  0
   48.2728   11.0652   18.6158 C   0  0  0  0  0  0  0  0  0  0  0  0
   48.6362   10.2564   19.8652 C   0  0  0  0  0  0  0  0  0  0  0  0
   48.5613    8.7417   19.6547 C   0  0  0  0  0  0  0  0  0  0  0  0
   48.8230    7.9889   20.9625 C   0  0  0  0  0  0  0  0  0  0  0  0
   48.7556    6.4742   20.7535 C   0  0  0  0  0  0  0  0  0  0  0  0
   49.1087    5.6745   22.0097 C   0  0  0  0  0  0  0  0  0  0  0  0
   48.1038    5.8408   23.1395 C   0  0  0  0  0  0  0  0  0  0  0  0
   47.6141    4.4941   19.6358 H   0  0  0  0  0  0  0  0  0  0  0  0
   49.1960    4.0897   19.6487 H   0  0  0  0  0  0  0  0  0  0  0  0
   49.1557    7.4290   21.1584 H   0  0  0  0  0  0  0  0  0  0  0  0
   49.4646    6.6195   19.6413 H   0  0  0  0  0  0  0  0  0  0  0  0
   46.9970    6.4777   19.1864 H   0  0  0  0  0  0  0  0  0  0  0  0
   46.6560    7.2285   20.7309 H   0  0  0  0  0  0  0  0  0  0  0  0
   46.8246    9.6259   21.0220 H   0  0  0  0  0  0  0  0  0  0  0  0
   48.3081    7.7738   17.4199 H   0  0  0  0  0  0  0  0  0  0  0  0
   47.0851   11.8377   19.9917 H   0  0  0  0  0  0  0  0  0  0  0  0
   48.5689    9.9902   16.3912 H   0  0  0  0  0  0  0  0  0  0  0  0
   50.4694    5.7936   22.4419 H   0  0  0  0  0  0  0  0  0  0  0  0
   50.1499    4.0497   22.3133 H   0  0  0  0  0  0  0  0  0  0  0  0
   46.6711    5.3643   22.0382 H   0  0  0  0  0  0  0  0  0  0  0  0
   47.7759    4.3238   22.9245 H   0  0  0  0  0  0  0  0  0  0  0  0
   47.6135    7.1428   22.9530 H   0  0  0  0  0  0  0  0  0  0  0  0
   51.9364    4.6855   21.1047 H   0  0  0  0  0  0  0  0  0  0  0  0
   47.2801   13.1325   17.8970 H   0  0  0  0  0  0  0  0  0  0  0  0
   47.8217   12.3672   16.4148 H   0  0  0  0  0  0  0  0  0  0  0  0
   50.1798   12.2908   17.3073 H   0  0  0  0  0  0  0  0  0  0  0  0
   49.6340   12.9848   18.8229 H   0  0  0  0  0  0  0  0  0  0  0  0
   49.8155   18.2250   13.8317 H   0  0  0  0  0  0  0  0  0  0  0  0
   50.8992   18.4164   15.2101 H   0  0  0  0  0  0  0  0  0  0  0  0
   49.3067   17.1114   16.6378 H   0  0  0  0  0  0  0  0  0  0  0  0
   48.2393   16.8893   15.2494 H   0  0  0  0  0  0  0  0  0  0  0  0
   50.6583   14.7146   17.5174 H   0  0  0  0  0  0  0  0  0  0  0  0
   48.9383   15.0655   17.6623 H   0  0  0  0  0  0  0  0  0  0  0  0
   50.1428   13.6529   15.2278 H   0  0  0  0  0  0  0  0  0  0  0  0
   48.5232   14.3355   15.3568 H   0  0  0  0  0  0  0  0  0  0  0  0
   51.1454   15.9171   15.4043 H   0  0  0  0  0  0  0  0  0  0  0  0
   50.0833   15.7278   14.0148 H   0  0  0  0  0  0  0  0  0  0  0  0
   49.5047   20.4244   14.9342 H   0  0  0  0  0  0  0  0  0  0  0  0
   49.0928   19.6268   16.4605 H   0  0  0  0  0  0  0  0  0  0  0  0
   48.0235   19.4616   15.0535 H   0  0  0  0  0  0  0  0  0  0  0  0
   49.2686   18.8512   17.2758 H   0  0  0  0  0  0  0  0  0  0  0  0
   48.2832   15.9001   14.2638 H   0  0  0  0  0  0  0  0  0  0  0  0
   47.7924   15.7426   15.9664 H   0  0  0  0  0  0  0  0  0  0  0  0
   49.4056   13.6845   14.3677 H   0  0  0  0  0  0  0  0  0  0  0  0
   47.6652   13.5847   14.6753 H   0  0  0  0  0  0  0  0  0  0  0  0
   48.1345   13.5181   17.1412 H   0  0  0  0  0  0  0  0  0  0  0  0
   49.8680   13.5707   16.8135 H   0  0  0  0  0  0  0  0  0  0  0  0
   47.9471   11.3718   15.8743 H   0  0  0  0  0  0  0  0  0  0  0  0
   49.6518   11.4642   15.4464 H   0  0  0  0  0  0  0  0  0  0  0  0
   50.2865   11.3010   17.8585 H   0  0  0  0  0  0  0  0  0  0  0  0
   49.4380    9.8970   17.2201 H   0  0  0  0  0  0  0  0  0  0  0  0
   48.1756   12.1147   18.9168 H   0  0  0  0  0  0  0  0  0  0  0  0
   47.2897   10.7496   18.2469 H   0  0  0  0  0  0  0  0  0  0  0  0
   47.9422   10.5381   20.6670 H   0  0  0  0  0  0  0  0  0  0  0  0
   49.6409   10.5350   20.2057 H   0  0  0  0  0  0  0  0  0  0  0  0
   49.2975    8.4275   18.9061 H   0  0  0  0  0  0  0  0  0  0  0  0
   47.5697    8.4725   19.2698 H   0  0  0  0  0  0  0  0  0  0  0  0
   48.0814    8.2976   21.7081 H   0  0  0  0  0  0  0  0  0  0  0  0
   49.8111    8.2639   21.3512 H   0  0  0  0  0  0  0  0  0  0  0  0
   47.7536    6.1918   20.4076 H   0  0  0  0  0  0  0  0  0  0  0  0
   49.4572    6.1902   19.9591 H   0  0  0  0  0  0  0  0  0  0  0  0
   49.1594    4.6124   21.7422 H   0  0  0  0  0  0  0  0  0  0  0  0
   50.1059    5.9588   22.3654 H   0  0  0  0  0  0  0  0  0  0  0  0
   48.3649    5.1819   23.9744 H   0  0  0  0  0  0  0  0  0  0  0  0
   48.0917    6.8672   23.5185 H   0  0  0  0  0  0  0  0  0  0  0  0
   47.0937    5.5811   22.8078 H   0  0  0  0  0  0  0  0  0  0  0  0
  1  2  1  0
  1  3  1  0
  3  6  1  0
  4  6  1  0
  4  7  2  0
  4  8  1  0
  5  9  2  0
  7  9  1  0
  5 10  1  0
  8 10  2  0
  1 11  1  0
  1 12  1  0
 12 13  1  0
 11 14  1  0
  5 15  1  0
 15 16  1  0
 17 18  1  0
 16 19  1  0
 19 20  1  0
 18 21  1  0
 20 21  1  0
 17 22  1  0
 23 24  1  0
 23 25  1  0
 23 26  2  0
 23 27  2  0
 24 28  1  0
 28 29  1  0
 29 30  1  0
 30 31  1  0
 31 32  1  0
 32 33  1  0
 33 34  1  0
 34 35  1  0
 35 36  1  0
 36 37  1  0
 37 38  1  0
 38 39  1  0
  2 40  1  0
  2 41  1  0
  3 42  1  0
  3 43  1  0
  6 44  1  0
  6 45  1  0
  7 46  1  0
  8 47  1  0
  9 48  1  0
 10 49  1  0
 11 50  1  0
 11 51  1  0
 12 52  1  0
 12 53  1  0
 13 54  1  0
 14 55  1  0
 15 56  1  0
 15 57  1  0
 16 58  1  0
 16 59  1  0
 17 60  1  0
 17 61  1  0
 18 62  1  0
 18 63  1  0
 19 64  1  0
 19 65  1  0
 20 66  1  0
 20 67  1  0
 21 68  1  0
 21 69  1  0
 22 70  1  0
 22 71  1  0
 22 72  1  0
 25 73  1  0
 28 74  1  0
 28 75  1  0
 29 76  1  0
 29 77  1  0
 30 78  1  0
 30 79  1  0
 31 80  1  0
 31 81  1  0
 32 82  1  0
 32 83  1  0
 33 84  1  0
 33 85  1  0
 34 86  1  0
 34 87  1  0
 35 88  1  0
 35 89  1  0
 36 90  1  0
 36 91  1  0
 37 92  1  0
 37 93  1  0
 38 94  1  0
 38 95  1  0
 39 96  1  0
 39 97  1  0
 39 98  1  0
M  END
> <Uni-Dock RESULT> 
ENERGY=   -4.916  LOWER_BOUND=    7.147  UPPER_BOUND=    8.709
INTER + INTRA:          -4.916
INTER:                  -4.916
INTRA:                   0.000
UNBOUND:                 0.000

$$$$

     RDKit          3D

 98 97  0  0  0  0  0  0  0  0999 V2000
   44.2754    4.4408   11.8465 C   0  0  0  0  0  0  0  0  0  0  0  0
   44.2239    3.3172   12.8117 N   0  0  0  0  0  0  0  0  0  0  0  0
   45.2304    5.5534   12.3666 C   0  0  0  0  0  0  0  0  0  0  0  0
   47.5602    6.3353   12.9089 C   0  0  0  0  0  0  0  0  0  0  0  0
   49.0979    8.5350   13.7696 C   0  0  0  0  0  0  0  0  0  0  0  0
   46.7152    5.1708   12.4497 C   0  0  0  0  0  0  0  0  0  0  0  0
   48.2504    7.1263   11.9826 C   0  0  0  0  0  0  0  0  0  0  0  0
   47.6411    6.6582   14.2691 C   0  0  0  0  0  0  0  0  0  0  0  0
   49.0122    8.2161   12.4095 C   0  0  0  0  0  0  0  0  0  0  0  0
   48.4023    7.7484   14.6953 C   0  0  0  0  0  0  0  0  0  0  0  0
   42.8389    5.0321   11.7403 C   0  0  0  0  0  0  0  0  0  0  0  0
   44.6884    3.9013   10.4542 C   0  0  0  0  0  0  0  0  0  0  0  0
   44.7889    4.9389    9.4817 O   0  0  0  0  0  0  0  0  0  0  0  0
   42.3721    5.4432   13.0315 O   0  0  0  0  0  0  0  0  0  0  0  0
   49.8940    9.7321   14.2288 C   0  0  0  0  0  0  0  0  0  0  0  0
   49.0197   10.9867   14.2992 C   0  0  0  0  0  0  0  0  0  0  0  0
   52.5084   15.4591   16.3715 C   0  0  0  0  0  0  0  0  0  0  0  0
   52.0448   14.1185   15.8009 C   0  0  0  0  0  0  0  0  0  0  0  0
   49.7948   12.2496   14.6854 C   0  0  0  0  0  0  0  0  0  0  0  0
   50.3774   12.1949   16.1004 C   0  0  0  0  0  0  0  0  0  0  0  0
   50.8691   13.5561   16.6035 C   0  0  0  0  0  0  0  0  0  0  0  0
   53.6600   16.0406   15.5683 C   0  0  0  0  0  0  0  0  0  0  0  0
   51.7179   14.9858   15.7120 S   0  0  0  0  0  0  0  0  0  0  0  0
   51.0122   13.5534   16.0021 O   0  0  0  0  0  0  0  0  0  0  0  0
   52.3541   14.7977   14.2426 O   0  0  0  0  0  0  0  0  0  0  0  0
   52.8266   15.1681   16.6217 O   0  0  0  0  0  0  0  0  0  0  0  0
   50.6920   15.9928   15.5699 O   0  0  0  0  0  0  0  0  0  0  0  0
   51.8440   12.4106   16.1139 C   0  0  0  0  0  0  0  0  0  0  0  0
   50.9958   11.1953   16.4768 C   0  0  0  0  0  0  0  0  0  0  0  0
   49.9809   10.8403   15.3845 C   0  0  0  0  0  0  0  0  0  0  0  0
   49.1743    9.5982   15.7726 C   0  0  0  0  0  0  0  0  0  0  0  0
   48.0668    9.2468   14.7738 C   0  0  0  0  0  0  0  0  0  0  0  0
   48.6007    8.8001   13.4103 C   0  0  0  0  0  0  0  0  0  0  0  0
   47.4939    8.4013   12.4287 C   0  0  0  0  0  0  0  0  0  0  0  0
   46.7733    7.1068   12.8149 C   0  0  0  0  0  0  0  0  0  0  0  0
   45.7590    6.6986   11.7425 C   0  0  0  0  0  0  0  0  0  0  0  0
   45.0321    5.4083   12.1292 C   0  0  0  0  0  0  0  0  0  0  0  0
   43.9363    5.0115   11.1372 C   0  0  0  0  0  0  0  0  0  0  0  0
   44.4680    4.6263    9.7650 C   0  0  0  0  0  0  0  0  0  0  0  0
   45.1521    3.0822   13.1528 H   0  0  0  0  0  0  0  0  0  0  0  0
   43.6974    3.6535   13.6256 H   0  0  0  0  0  0  0  0  0  0  0  0
   45.1310    6.4381   11.7224 H   0  0  0  0  0  0  0  0  0  0  0  0
   44.8976    5.8810   13.3618 H   0  0  0  0  0  0  0  0  0  0  0  0
   46.8680    4.3364   13.1434 H   0  0  0  0  0  0  0  0  0  0  0  0
   47.0854    4.8282   11.4772 H   0  0  0  0  0  0  0  0  0  0  0  0
   48.1999    6.9039   10.9198 H   0  0  0  0  0  0  0  0  0  0  0  0
   47.1032    6.0663   15.0066 H   0  0  0  0  0  0  0  0  0  0  0  0
   49.5371    8.8191   11.6715 H   0  0  0  0  0  0  0  0  0  0  0  0
   48.4422    7.9855   15.7562 H   0  0  0  0  0  0  0  0  0  0  0  0
   42.8181    5.9051   11.0793 H   0  0  0  0  0  0  0  0  0  0  0  0
   42.1350    4.2868   11.3520 H   0  0  0  0  0  0  0  0  0  0  0  0
   45.6446    3.3679   10.4893 H   0  0  0  0  0  0  0  0  0  0  0  0
   43.9436    3.1854   10.0869 H   0  0  0  0  0  0  0  0  0  0  0  0
   45.6278    5.4059    9.6323 H   0  0  0  0  0  0  0  0  0  0  0  0
   41.4669    5.7720   12.9027 H   0  0  0  0  0  0  0  0  0  0  0  0
   50.7352    9.8963   13.5440 H   0  0  0  0  0  0  0  0  0  0  0  0
   50.3355    9.5097   15.2074 H   0  0  0  0  0  0  0  0  0  0  0  0
   48.1973   10.8330   15.0088 H   0  0  0  0  0  0  0  0  0  0  0  0
   48.5505   11.1602   13.3222 H   0  0  0  0  0  0  0  0  0  0  0  0
   52.8228   15.3326   17.4140 H   0  0  0  0  0  0  0  0  0  0  0  0
   51.6750   16.1709   16.3695 H   0  0  0  0  0  0  0  0  0  0  0  0
   51.7547   14.2576   14.7538 H   0  0  0  0  0  0  0  0  0  0  0  0
   52.8759   13.4031   15.8164 H   0  0  0  0  0  0  0  0  0  0  0  0
   49.1105   13.1033   14.6092 H   0  0  0  0  0  0  0  0  0  0  0  0
   50.5951   12.4166   13.9557 H   0  0  0  0  0  0  0  0  0  0  0  0
   49.6080   11.8337   16.7946 H   0  0  0  0  0  0  0  0  0  0  0  0
   51.2039   11.4756   16.1384 H   0  0  0  0  0  0  0  0  0  0  0  0
   50.0365   14.2706   16.5912 H   0  0  0  0  0  0  0  0  0  0  0  0
   51.1721   13.4458   17.6519 H   0  0  0  0  0  0  0  0  0  0  0  0
   53.9549   17.0095   15.9801 H   0  0  0  0  0  0  0  0  0  0  0  0
   53.3720   16.1904   14.5225 H   0  0  0  0  0  0  0  0  0  0  0  0
   54.5318   15.3805   15.5947 H   0  0  0  0  0  0  0  0  0  0  0  0
   52.5596   15.6919   13.8991 H   0  0  0  0  0  0  0  0  0  0  0  0
   52.5881   12.5718   16.9018 H   0  0  0  0  0  0  0  0  0  0  0  0
   52.3693   12.2407   15.1677 H   0  0  0  0  0  0  0  0  0  0  0  0
   50.4555   11.3998   17.4092 H   0  0  0  0  0  0  0  0  0  0  0  0
   51.6564   10.3392   16.6564 H   0  0  0  0  0  0  0  0  0  0  0  0
   50.5146   10.6653   14.4440 H   0  0  0  0  0  0  0  0  0  0  0  0
   49.2988   11.6822   15.2204 H   0  0  0  0  0  0  0  0  0  0  0  0
   49.8476    8.7402   15.8917 H   0  0  0  0  0  0  0  0  0  0  0  0
   48.7063    9.7687   16.7504 H   0  0  0  0  0  0  0  0  0  0  0  0
   47.3987   10.1074   14.6472 H   0  0  0  0  0  0  0  0  0  0  0  0
   47.4678    8.4428   15.2155 H   0  0  0  0  0  0  0  0  0  0  0  0
   49.1690    9.6191   12.9543 H   0  0  0  0  0  0  0  0  0  0  0  0
   49.2981    7.9636   13.5373 H   0  0  0  0  0  0  0  0  0  0  0  0
   47.9474    8.2731   11.4379 H   0  0  0  0  0  0  0  0  0  0  0  0
   46.7678    9.2184   12.3397 H   0  0  0  0  0  0  0  0  0  0  0  0
   46.2531    7.2348   13.7709 H   0  0  0  0  0  0  0  0  0  0  0  0
   47.5078    6.3028   12.9485 H   0  0  0  0  0  0  0  0  0  0  0  0
   46.2812    6.5628   10.7886 H   0  0  0  0  0  0  0  0  0  0  0  0
   45.0292    7.5054   11.6035 H   0  0  0  0  0  0  0  0  0  0  0  0
   45.7557    4.5894   12.2246 H   0  0  0  0  0  0  0  0  0  0  0  0
   44.5692    5.5392   13.1154 H   0  0  0  0  0  0  0  0  0  0  0  0
   43.3871    4.1572   11.5502 H   0  0  0  0  0  0  0  0  0  0  0  0
   43.2146    5.8297   11.0308 H   0  0  0  0  0  0  0  0  0  0  0  0
   43.6485    4.2732    9.1302 H   0  0  0  0  0  0  0  0  0  0  0  0
   44.9340    5.4785    9.2611 H   0  0  0  0  0  0  0  0  0  0  0  0
   45.2062    3.8220    9.8416 H   0  0  0  0  0  0  0  0  0  0  0  0
  1  2  1  0
  1  3  1  0
  3  6  1  0
  4  6  1  0
  4  7  2  0
  4  8  1  0
  5  9  2  0
  7  9  1  0
  5 10  1  0
  8 10  2  0
  1 11  1  0
  1 12  1  0
 12 13  1  0
 11 14  1  0
  5 15  1  0
 15 16  1  0
 17 18  1  0
 16 19  1  0
 19 20  1  0
 18 21  1  0
 20 21  1  0
 17 22  1  0
 23 24  1  0
 23 25  1  0
 23 26  2  0
 23 27  2  0
 24 28  1  0
 28 29  1  0
 29 30  1  0
 30 31  1  0
 31 32  1  0
 32 33  1  0
 33 34  1  0
 34 35  1  0
 35 36  1  0
 36 37  1  0
 37 38  1  0
 38 39  1  0
  2 40  1  0
  2 41  1  0
  3 42  1  0
  3 43  1  0
  6 44  1  0
  6 45  1  0
  7 46  1  0
  8 47  1  0
  9 48  1  0
 10 49  1  0
 11 50  1  0
 11 51  1  0
 12 52  1  0
 12 53  1  0
 13 54  1  0
 14 55  1  0
 15 56  1  0
 15 57  1  0
 16 58  1  0
 16 59  1  0
 17 60  1  0
 17 61  1  0
 18 62  1  0
 18 63  1  0
 19 64  1  0
 19 65  1  0
 20 66  1  0
 20 67  1  0
 21 68  1  0
 21 69  1  0
 22 70  1  0
 22 71  1  0
 22 72  1  0
 25 73  1  0
 28 74  1  0
 28 75  1  0
 29 76  1  0
 29 77  1  0
 30 78  1  0
 30 79  1  0
 31 80  1  0
 31 81  1  0
 32 82  1  0
 32 83  1  0
 33 84  1  0
 33 85  1  0
 34 86  1  0
 34 87  1  0
 35 88  1  0
 35 89  1  0
 36 90  1  0
 36 91  1  0
 37 92  1  0
 37 93  1  0
 38 94  1  0
 38 95  1  0
 39 96  1  0
 39 97  1  0
 39 98  1  0
M  END
> <Uni-Dock RESULT> 
ENERGY=   -4.778  LOWER_BOUND=    3.075  UPPER_BOUND=    3.898
INTER + INTRA:          -4.778
INTER:                  -4.778
INTRA:                   0.000
UNBOUND:                 0.000

$$$$

     RDKit          3D

 98 97  0  0  0  0  0  0  0  0999 V2000
   50.0415   13.2069    5.1960 C   0  0  0  0  0  0  0  0  0  0  0  0
   49.7289   14.5023    4.5472 N   0  0  0  0  0  0  0  0  0  0  0  0
   49.7057   13.2706    6.7138 C   0  0  0  0  0  0  0  0  0  0  0  0
   47.9953   13.4131    8.5543 C   0  0  0  0  0  0  0  0  0  0  0  0
   47.6279   13.3964   11.3488 C   0  0  0  0  0  0  0  0  0  0  0  0
   48.2172   13.4199    7.0604 C   0  0  0  0  0  0  0  0  0  0  0  0
   47.5977   12.2429    9.2123 C   0  0  0  0  0  0  0  0  0  0  0  0
   48.2134   14.5732    9.3075 C   0  0  0  0  0  0  0  0  0  0  0  0
   47.4158   12.2350   10.5968 C   0  0  0  0  0  0  0  0  0  0  0  0
   48.0321   14.5646   10.6921 C   0  0  0  0  0  0  0  0  0  0  0  0
   51.5710   12.9619    5.0379 C   0  0  0  0  0  0  0  0  0  0  0  0
   49.2841   12.0713    4.4634 C   0  0  0  0  0  0  0  0  0  0  0  0
   49.5157   10.7968    5.0588 O   0  0  0  0  0  0  0  0  0  0  0  0
   52.3116   14.0493    5.6063 O   0  0  0  0  0  0  0  0  0  0  0  0
   47.4636   13.3803   12.8489 C   0  0  0  0  0  0  0  0  0  0  0  0
   48.7840   13.0485   13.5487 C   0  0  0  0  0  0  0  0  0  0  0  0
   47.7476   13.3019   19.4925 C   0  0  0  0  0  0  0  0  0  0  0  0
   47.5394   13.2494   17.9787 C   0  0  0  0  0  0  0  0  0  0  0  0
   48.6578   12.9421   15.0711 C   0  0  0  0  0  0  0  0  0  0  0  0
   48.2722   14.2636   15.7416 C   0  0  0  0  0  0  0  0  0  0  0  0
   48.4558   14.2445   17.2627 C   0  0  0  0  0  0  0  0  0  0  0  0
   46.8607   12.3006   20.2140 C   0  0  0  0  0  0  0  0  0  0  0  0
   48.1864   12.8797   18.5370 S   0  0  0  0  0  0  0  0  0  0  0  0
   48.2568   13.6758   17.1245 O   0  0  0  0  0  0  0  0  0  0  0  0
   47.3659   11.5411   18.1706 O   0  0  0  0  0  0  0  0  0  0  0  0
   47.3679   13.6240   19.4676 O   0  0  0  0  0  0  0  0  0  0  0  0
   49.5156   12.4404   18.8936 O   0  0  0  0  0  0  0  0  0  0  0  0
   47.0423   14.1415   16.5602 C   0  0  0  0  0  0  0  0  0  0  0  0
   47.3402   14.9366   15.2925 C   0  0  0  0  0  0  0  0  0  0  0  0
   47.9811   14.0771   14.1973 C   0  0  0  0  0  0  0  0  0  0  0  0
   48.2332   14.9034   12.9333 C   0  0  0  0  0  0  0  0  0  0  0  0
   48.9698   14.1340   11.8318 C   0  0  0  0  0  0  0  0  0  0  0  0
   48.1455   12.9883   11.2387 C   0  0  0  0  0  0  0  0  0  0  0  0
   48.8636   12.2514   10.1035 C   0  0  0  0  0  0  0  0  0  0  0  0
   49.0161   13.0905    8.8320 C   0  0  0  0  0  0  0  0  0  0  0  0
   49.6365   12.2680    7.6988 C   0  0  0  0  0  0  0  0  0  0  0  0
   49.7965   13.1064    6.4283 C   0  0  0  0  0  0  0  0  0  0  0  0
   50.5043   12.3586    5.2960 C   0  0  0  0  0  0  0  0  0  0  0  0
   49.7067   11.1836    4.7509 C   0  0  0  0  0  0  0  0  0  0  0  0
   48.8333   14.8652    4.8624 H   0  0  0  0  0  0  0  0  0  0  0  0
   50.4373   15.1706    4.8700 H   0  0  0  0  0  0  0  0  0  0  0  0
   50.0912   12.3649    7.2024 H   0  0  0  0  0  0  0  0  0  0  0  0
   50.2567   14.1040    7.1725 H   0  0  0  0  0  0  0  0  0  0  0  0
   47.8103   14.3524    6.6534 H   0  0  0  0  0  0  0  0  0  0  0  0
   47.6289   12.6114    6.6128 H   0  0  0  0  0  0  0  0  0  0  0  0
   47.4284   11.3255    8.6542 H   0  0  0  0  0  0  0  0  0  0  0  0
   48.5352   15.4913    8.8206 H   0  0  0  0  0  0  0  0  0  0  0  0
   47.1102   11.3132   11.0873 H   0  0  0  0  0  0  0  0  0  0  0  0
   48.2169   15.4756   11.2571 H   0  0  0  0  0  0  0  0  0  0  0  0
   51.8789   12.0413    5.5451 H   0  0  0  0  0  0  0  0  0  0  0  0
   51.8492   12.8844    3.9804 H   0  0  0  0  0  0  0  0  0  0  0  0
   48.2035   12.2493    4.4395 H   0  0  0  0  0  0  0  0  0  0  0  0
   49.6139   12.0050    3.4199 H   0  0  0  0  0  0  0  0  0  0  0  0
   48.9723   10.7421    5.8627 H   0  0  0  0  0  0  0  0  0  0  0  0
   53.2500   13.8521    5.4495 H   0  0  0  0  0  0  0  0  0  0  0  0
   46.6956   12.6470   13.1248 H   0  0  0  0  0  0  0  0  0  0  0  0
   47.0849   14.3565   13.1743 H   0  0  0  0  0  0  0  0  0  0  0  0
   49.5423   13.8006   13.2979 H   0  0  0  0  0  0  0  0  0  0  0  0
   49.1673   12.0918   13.1708 H   0  0  0  0  0  0  0  0  0  0  0  0
   47.5309   14.3099   19.8647 H   0  0  0  0  0  0  0  0  0  0  0  0
   48.7959   13.0882   19.7302 H   0  0  0  0  0  0  0  0  0  0  0  0
   47.7389   12.2316   17.6262 H   0  0  0  0  0  0  0  0  0  0  0  0
   46.4932   13.4771   17.7414 H   0  0  0  0  0  0  0  0  0  0  0  0
   49.6226   12.6037   15.4679 H   0  0  0  0  0  0  0  0  0  0  0  0
   47.9227   12.1675   15.3169 H   0  0  0  0  0  0  0  0  0  0  0  0
   48.8942   15.0708   15.3343 H   0  0  0  0  0  0  0  0  0  0  0  0
   47.2310   14.5140   15.5065 H   0  0  0  0  0  0  0  0  0  0  0  0
   49.5035   14.0202   17.4995 H   0  0  0  0  0  0  0  0  0  0  0  0
   48.2570   15.2530   17.6454 H   0  0  0  0  0  0  0  0  0  0  0  0
   47.0473   12.3395   21.2906 H   0  0  0  0  0  0  0  0  0  0  0  0
   47.0630   11.2802   19.8718 H   0  0  0  0  0  0  0  0  0  0  0  0
   45.8022   12.5177   20.0444 H   0  0  0  0  0  0  0  0  0  0  0  0
   47.5151   10.9015   18.8975 H   0  0  0  0  0  0  0  0  0  0  0  0
   46.5294   14.7938   17.2757 H   0  0  0  0  0  0  0  0  0  0  0  0
   46.3894   13.2916   16.3331 H   0  0  0  0  0  0  0  0  0  0  0  0
   48.0196   15.7622   15.5376 H   0  0  0  0  0  0  0  0  0  0  0  0
   46.4076   15.3738   14.9175 H   0  0  0  0  0  0  0  0  0  0  0  0
   47.3191   13.2339   13.9714 H   0  0  0  0  0  0  0  0  0  0  0  0
   48.9289   13.6602   14.5562 H   0  0  0  0  0  0  0  0  0  0  0  0
   47.2815   15.2840   12.5422 H   0  0  0  0  0  0  0  0  0  0  0  0
   48.8384   15.7802   13.1959 H   0  0  0  0  0  0  0  0  0  0  0  0
   49.9171   13.7453   12.2249 H   0  0  0  0  0  0  0  0  0  0  0  0
   49.2242   14.8506   11.0431 H   0  0  0  0  0  0  0  0  0  0  0  0
   47.9235   12.2544   12.0222 H   0  0  0  0  0  0  0  0  0  0  0  0
   47.1819   13.3678   10.8788 H   0  0  0  0  0  0  0  0  0  0  0  0
   48.2877   11.3483    9.8658 H   0  0  0  0  0  0  0  0  0  0  0  0
   49.8493   11.9153   10.4473 H   0  0  0  0  0  0  0  0  0  0  0  0
   49.6480   13.9639    9.0292 H   0  0  0  0  0  0  0  0  0  0  0  0
   48.0334   13.4636    8.5174 H   0  0  0  0  0  0  0  0  0  0  0  0
   48.9997   11.3992    7.4966 H   0  0  0  0  0  0  0  0  0  0  0  0
   50.6155   11.8887    8.0160 H   0  0  0  0  0  0  0  0  0  0  0  0
   48.8130   13.4492    6.0840 H   0  0  0  0  0  0  0  0  0  0  0  0
   50.3815   14.0046    6.6627 H   0  0  0  0  0  0  0  0  0  0  0  0
   50.6895   13.0636    4.4770 H   0  0  0  0  0  0  0  0  0  0  0  0
   51.4845   12.0056    5.6369 H   0  0  0  0  0  0  0  0  0  0  0  0
   50.2248   10.7442    3.8918 H   0  0  0  0  0  0  0  0  0  0  0  0
   49.5853   10.3974    5.5022 H   0  0  0  0  0  0  0  0  0  0  0  0
   48.7141   11.5031    4.4189 H   0  0  0  0  0  0  0  0  0  0  0  0
  1  2  1  0
  1  3  1  0
  3  6  1  0
  4  6  1  0
  4  7  2  0
  4  8  1  0
  5  9  2  0
  7  9  1  0
  5 10  1  0
  8 10  2  0
  1 11  1  0
  1 12  1  0
 12 13  1  0
 11 14  1  0
  5 15  1  0
 15 16  1  0
 17 18  1  0
 16 19  1  0
 19 20  1  0
 18 21  1  0
 20 21  1  0
 17 22  1  0
 23 24  1  0
 23 25  1  0
 23 26  2  0
 23 27  2  0
 24 28  1  0
 28 29  1  0
 29 30  1  0
 30 31  1  0
 31 32  1  0
 32 33  1  0
 33 34  1  0
 34 35  1  0
 35 36  1  0
 36 37  1  0
 37 38  1  0
 38 39  1  0
  2 40  1  0
  2 41  1  0
  3 42  1  0
  3 43  1  0
  6 44  1  0
  6 45  1  0
  7 46  1  0
  8 47  1  0
  9 48  1  0
 10 49  1  0
 11 50  1  0
 11 51  1  0
 12 52  1  0
 12 53  1  0
 13 54  1  0
 14 55  1  0
 15 56  1  0
 15 57  1  0
 16 58  1  0
 16 59  1  0
 17 60  1  0
 17 61  1  0
 18 62  1  0
 18 63  1  0
 19 64  1  0
 19 65  1  0
 20 66  1  0
 20 67  1  0
 21 68  1  0
 21 69  1  0
 22 70  1  0
 22 71  1  0
 22 72  1  0
 25 73  1  0
 28 74  1  0
 28 75  1  0
 29 76  1  0
 29 77  1  0
 30 78  1  0
 30 79  1  0
 31 80  1  0
 31 81  1  0
 32 82  1  0
 32 83  1  0
 33 84  1  0
 33 85  1  0
 34 86  1  0
 34 87  1  0
 35 88  1  0
 35 89  1  0
 36 90  1  0
 36 91  1  0
 37 92  1  0
 37 93  1  0
 38 94  1  0
 38 95  1  0
 39 96  1  0
 39 97  1  0
 39 98  1  0
M  END
> <Uni-Dock RESULT> 
ENERGY=   -4.341  LOWER_BOUND=    7.029  UPPER_BOUND=    8.906
INTER + INTRA:          -4.341
INTER:                  -4.341
INTRA:                   0.000
UNBOUND:                 0.000

$$$$

     RDKit          3D

 98 97  0  0  0  0  0  0  0  0999 V2000
   45.2094    5.6249   12.6278 C   0  0  0  0  0  0  0  0  0  0  0  0
   43.8351    6.0761   12.9510 N   0  0  0  0  0  0  0  0  0  0  0  0
   46.1072    6.8453   12.2747 C   0  0  0  0  0  0  0  0  0  0  0  0
   47.3085    8.9366   12.9937 C   0  0  0  0  0  0  0  0  0  0  0  0
   49.0361   10.9952   12.1441 C   0  0  0  0  0  0  0  0  0  0  0  0
   46.3835    7.8236   13.4256 C   0  0  0  0  0  0  0  0  0  0  0  0
   48.6786    8.8770   13.2761 C   0  0  0  0  0  0  0  0  0  0  0  0
   46.8114   10.0321   12.2772 C   0  0  0  0  0  0  0  0  0  0  0  0
   49.5342    9.8971   12.8549 C   0  0  0  0  0  0  0  0  0  0  0  0
   47.6675   11.0516   11.8556 C   0  0  0  0  0  0  0  0  0  0  0  0
   45.1164    4.7013   11.3776 C   0  0  0  0  0  0  0  0  0  0  0  0
   45.7674    4.7948   13.8109 C   0  0  0  0  0  0  0  0  0  0  0  0
   47.1034    4.3549   13.5786 O   0  0  0  0  0  0  0  0  0  0  0  0
   44.5007    5.3985   10.2873 O   0  0  0  0  0  0  0  0  0  0  0  0
   49.9651   12.0816   11.6599 C   0  0  0  0  0  0  0  0  0  0  0  0
   50.4792   11.7847   10.2490 C   0  0  0  0  0  0  0  0  0  0  0  0
   53.9570   16.4442    8.6175 C   0  0  0  0  0  0  0  0  0  0  0  0
   53.1212   15.4722    9.4507 C   0  0  0  0  0  0  0  0  0  0  0  0
   51.4882   12.8169    9.7375 C   0  0  0  0  0  0  0  0  0  0  0  0
   50.8900   14.2157    9.5642 C   0  0  0  0  0  0  0  0  0  0  0  0
   51.7899   15.1617    8.7623 C   0  0  0  0  0  0  0  0  0  0  0  0
   55.2929   16.7417    9.2783 C   0  0  0  0  0  0  0  0  0  0  0  0
   53.6659   15.3526    8.7050 S   0  0  0  0  0  0  0  0  0  0  0  0
   52.1831   14.8228    9.0980 O   0  0  0  0  0  0  0  0  0  0  0  0
   54.6112   14.6817    9.8255 O   0  0  0  0  0  0  0  0  0  0  0  0
   53.7348   16.7822    8.9088 O   0  0  0  0  0  0  0  0  0  0  0  0
   54.0593   14.7549    7.4501 O   0  0  0  0  0  0  0  0  0  0  0  0
   51.6303   15.2438   10.3340 C   0  0  0  0  0  0  0  0  0  0  0  0
   50.2061   14.7121   10.4637 C   0  0  0  0  0  0  0  0  0  0  0  0
   50.1526   13.1810   10.5077 C   0  0  0  0  0  0  0  0  0  0  0  0
   48.7116   12.6902   10.6711 C   0  0  0  0  0  0  0  0  0  0  0  0
   48.5709   11.1654   10.6167 C   0  0  0  0  0  0  0  0  0  0  0  0
   49.2286   10.4541   11.8022 C   0  0  0  0  0  0  0  0  0  0  0  0
   49.0443    8.9334   11.7728 C   0  0  0  0  0  0  0  0  0  0  0  0
   47.6012    8.4888   12.0257 C   0  0  0  0  0  0  0  0  0  0  0  0
   47.4983    6.9624   12.0974 C   0  0  0  0  0  0  0  0  0  0  0  0
   46.0555    6.5147   12.3434 C   0  0  0  0  0  0  0  0  0  0  0  0
   45.8829    4.9941   12.3238 C   0  0  0  0  0  0  0  0  0  0  0  0
   46.5890    4.2868   13.4705 C   0  0  0  0  0  0  0  0  0  0  0  0
   43.8486    6.8969   13.5503 H   0  0  0  0  0  0  0  0  0  0  0  0
   43.4090    6.3752   12.0669 H   0  0  0  0  0  0  0  0  0  0  0  0
   47.0679    6.4803   11.8855 H   0  0  0  0  0  0  0  0  0  0  0  0
   45.6513    7.4028   11.4440 H   0  0  0  0  0  0  0  0  0  0  0  0
   45.4530    8.2694   13.7947 H   0  0  0  0  0  0  0  0  0  0  0  0
   46.8310    7.3048   14.2804 H   0  0  0  0  0  0  0  0  0  0  0  0
   49.0937    8.0349   13.8241 H   0  0  0  0  0  0  0  0  0  0  0  0
   45.7528   10.0946   12.0345 H   0  0  0  0  0  0  0  0  0  0  0  0
   50.5959    9.8279   13.0824 H   0  0  0  0  0  0  0  0  0  0  0  0
   47.2598   11.8879   11.2920 H   0  0  0  0  0  0  0  0  0  0  0  0
   46.1097    4.3743   11.0523 H   0  0  0  0  0  0  0  0  0  0  0  0
   44.5115    3.8122   11.5902 H   0  0  0  0  0  0  0  0  0  0  0  0
   45.7482    5.3577   14.7505 H   0  0  0  0  0  0  0  0  0  0  0  0
   45.1554    3.8990   13.9697 H   0  0  0  0  0  0  0  0  0  0  0  0
   47.6951    5.1105   13.7323 H   0  0  0  0  0  0  0  0  0  0  0  0
   44.4451    4.7637    9.5539 H   0  0  0  0  0  0  0  0  0  0  0  0
   50.8075   12.1794   12.3559 H   0  0  0  0  0  0  0  0  0  0  0  0
   49.4335   13.0402   11.6870 H   0  0  0  0  0  0  0  0  0  0  0  0
   49.6380   11.7193    9.5478 H   0  0  0  0  0  0  0  0  0  0  0  0
   50.9634   10.7997   10.2365 H   0  0  0  0  0  0  0  0  0  0  0  0
   53.4078   17.3820    8.4751 H   0  0  0  0  0  0  0  0  0  0  0  0
   54.1361   16.0205    7.6227 H   0  0  0  0  0  0  0  0  0  0  0  0
   53.6922   14.5494    9.6017 H   0  0  0  0  0  0  0  0  0  0  0  0
   52.9310   15.9032   10.4410 H   0  0  0  0  0  0  0  0  0  0  0  0
   51.8716   12.4657    8.7719 H   0  0  0  0  0  0  0  0  0  0  0  0
   52.3413   12.8554   10.4241 H   0  0  0  0  0  0  0  0  0  0  0  0
   49.9289   14.1357    9.0405 H   0  0  0  0  0  0  0  0  0  0  0  0
   50.6824   14.6594   10.5450 H   0  0  0  0  0  0  0  0  0  0  0  0
   51.9770   14.7316    7.7704 H   0  0  0  0  0  0  0  0  0  0  0  0
   51.2443   16.0992    8.5997 H   0  0  0  0  0  0  0  0  0  0  0  0
   55.8811   17.4170    8.6512 H   0  0  0  0  0  0  0  0  0  0  0  0
   55.8715   15.8234    9.4230 H   0  0  0  0  0  0  0  0  0  0  0  0
   55.1530   17.2182   10.2529 H   0  0  0  0  0  0  0  0  0  0  0  0
   55.5331   14.7386    9.4989 H   0  0  0  0  0  0  0  0  0  0  0  0
   51.6052   16.3384   10.3729 H   0  0  0  0  0  0  0  0  0  0  0  0
   52.2504   14.8796   11.1604 H   0  0  0  0  0  0  0  0  0  0  0  0
   49.6125   15.0627    9.6105 H   0  0  0  0  0  0  0  0  0  0  0  0
   49.7533   15.1216   11.3741 H   0  0  0  0  0  0  0  0  0  0  0  0
   50.7692   12.8256   11.3405 H   0  0  0  0  0  0  0  0  0  0  0  0
   50.5777   12.7656    9.5870 H   0  0  0  0  0  0  0  0  0  0  0  0
   48.2965   13.0641   11.6153 H   0  0  0  0  0  0  0  0  0  0  0  0
   48.0973   13.1154    9.8673 H   0  0  0  0  0  0  0  0  0  0  0  0
   48.9941   10.7901    9.6771 H   0  0  0  0  0  0  0  0  0  0  0  0
   47.5002   10.9339   10.5969 H   0  0  0  0  0  0  0  0  0  0  0  0
   50.3057   10.6578   11.7985 H   0  0  0  0  0  0  0  0  0  0  0  0
   48.8344   10.8539   12.7440 H   0  0  0  0  0  0  0  0  0  0  0  0
   49.6906    8.4971   12.5446 H   0  0  0  0  0  0  0  0  0  0  0  0
   49.3916    8.5383   10.8105 H   0  0  0  0  0  0  0  0  0  0  0  0
   46.9473    8.8555   11.2264 H   0  0  0  0  0  0  0  0  0  0  0  0
   47.2417    8.9241   12.9665 H   0  0  0  0  0  0  0  0  0  0  0  0
   48.1462    6.5971   12.9024 H   0  0  0  0  0  0  0  0  0  0  0  0
   47.8648    6.5268   11.1599 H   0  0  0  0  0  0  0  0  0  0  0  0
   45.7023    6.9125   13.3027 H   0  0  0  0  0  0  0  0  0  0  0  0
   45.4100    6.9420   11.5657 H   0  0  0  0  0  0  0  0  0  0  0  0
   44.8121    4.7656   12.3804 H   0  0  0  0  0  0  0  0  0  0  0  0
   46.2425    4.5896   11.3706 H   0  0  0  0  0  0  0  0  0  0  0  0
   46.3591    3.2162   13.4498 H   0  0  0  0  0  0  0  0  0  0  0  0
   47.6758    4.3937   13.4001 H   0  0  0  0  0  0  0  0  0  0  0  0
   46.2629    4.6834   14.4369 H   0  0  0  0  0  0  0  0  0  0  0  0
  1  2  1  0
  1  3  1  0
  3  6  1  0
  4  6  1  0
  4  7  2  0
  4  8  1  0
  5  9  2  0
  7  9  1  0
  5 10  1  0
  8 10  2  0
  1 11  1  0
  1 12  1  0
 12 13  1  0
 11 14  1  0
  5 15  1  0
 15 16  1  0
 17 18  1  0
 16 19  1  0
 19 20  1  0
 18 21  1  0
 20 21  1  0
 17 22  1  0
 23 24  1  0
 23 25  1  0
 23 26  2  0
 23 27  2  0
 24 28  1  0
 28 29  1  0
 29 30  1  0
 30 31  1  0
 31 32  1  0
 32 33  1  0
 33 34  1  0
 34 35  1  0
 35 36  1  0
 36 37  1  0
 37 38  1  0
 38 39  1  0
  2 40  1  0
  2 41  1  0
  3 42  1  0
  3 43  1  0
  6 44  1  0
  6 45  1  0
  7 46  1  0
  8 47  1  0
  9 48  1  0
 10 49  1  0
 11 50  1  0
 11 51  1  0
 12 52  1  0
 12 53  1  0
 13 54  1  0
 14 55  1  0
 15 56  1  0
 15 57  1  0
 16 58  1  0
 16 59  1  0
 17 60  1  0
 17 61  1  0
 18 62  1  0
 18 63  1  0
 19 64  1  0
 19 65  1  0
 20 66  1  0
 20 67  1  0
 21 68  1  0
 21 69  1  0
 22 70  1  0
 22 71  1  0
 22 72  1  0
 25 73  1  0
 28 74  1  0
 28 75  1  0
 29 76  1  0
 29 77  1  0
 30 78  1  0
 30 79  1  0
 31 80  1  0
 31 81  1  0
 32 82  1  0
 32 83  1  0
 33 84  1  0
 33 85  1  0
 34 86  1  0
 34 87  1  0
 35 88  1  0
 35 89  1  0
 36 90  1  0
 36 91  1  0
 37 92  1  0
 37 93  1  0
 38 94  1  0
 38 95  1  0
 39 96  1  0
 39 97  1  0
 39 98  1  0
M  END
> <Uni-Dock RESULT> 
ENERGY=   -4.308  LOWER_BOUND=    4.914  UPPER_BOUND=    5.746
INTER + INTRA:          -4.308
INTER:                  -4.308
INTRA:                   0.000
UNBOUND:                 0.000

$$$$

     RDKit          3D

 98 97  0  0  0  0  0  0  0  0999 V2000
   53.8029   12.8957   15.0962 C   0  0  0  0  0  0  0  0  0  0  0  0
   53.6203   14.2247   14.4662 N   0  0  0  0  0  0  0  0  0  0  0  0
   52.6651   11.9305   14.6555 C   0  0  0  0  0  0  0  0  0  0  0  0
   51.5496   10.5677   12.8578 C   0  0  0  0  0  0  0  0  0  0  0  0
   49.4750    8.7358   12.3246 C   0  0  0  0  0  0  0  0  0  0  0  0
   52.6540   11.5501   13.1679 C   0  0  0  0  0  0  0  0  0  0  0  0
   51.8166    9.1959   12.7730 C   0  0  0  0  0  0  0  0  0  0  0  0
   50.2345   11.0142   12.6797 C   0  0  0  0  0  0  0  0  0  0  0  0
   50.7884    8.2886   12.5089 C   0  0  0  0  0  0  0  0  0  0  0  0
   49.2066   10.1066   12.4163 C   0  0  0  0  0  0  0  0  0  0  0  0
   53.7140   13.0932   16.6382 C   0  0  0  0  0  0  0  0  0  0  0  0
   55.2129   12.3546   14.7511 C   0  0  0  0  0  0  0  0  0  0  0  0
   55.4435   11.0598   15.3014 O   0  0  0  0  0  0  0  0  0  0  0  0
   52.4637   13.6976   16.9924 O   0  0  0  0  0  0  0  0  0  0  0  0
   48.3578    7.7531   12.0719 C   0  0  0  0  0  0  0  0  0  0  0  0
   47.7023    7.3085   13.3819 C   0  0  0  0  0  0  0  0  0  0  0  0
   43.1794    3.5834   11.9207 C   0  0  0  0  0  0  0  0  0  0  0  0
   44.4338    4.4537   11.8385 C   0  0  0  0  0  0  0  0  0  0  0  0
   46.6118    6.2506   13.1901 C   0  0  0  0  0  0  0  0  0  0  0  0
   45.4065    6.7591   12.3944 C   0  0  0  0  0  0  0  0  0  0  0  0
   44.1940    5.8256   12.4734 C   0  0  0  0  0  0  0  0  0  0  0  0
   43.4117    2.2089   11.3155 C   0  0  0  0  0  0  0  0  0  0  0  0
   44.0667    3.9441   12.5260 S   0  0  0  0  0  0  0  0  0  0  0  0
   44.6808    5.4448   12.4572 O   0  0  0  0  0  0  0  0  0  0  0  0
   45.3260    3.0083   12.1547 O   0  0  0  0  0  0  0  0  0  0  0  0
   43.0982    3.7724   11.4665 O   0  0  0  0  0  0  0  0  0  0  0  0
   43.7387    3.6348   13.8984 O   0  0  0  0  0  0  0  0  0  0  0  0
   45.1280    5.9255   11.2006 C   0  0  0  0  0  0  0  0  0  0  0  0
   45.5773    7.3770   11.3397 C   0  0  0  0  0  0  0  0  0  0  0  0
   46.7824    7.5316   12.2739 C   0  0  0  0  0  0  0  0  0  0  0  0
   47.2212    8.9959   12.3601 C   0  0  0  0  0  0  0  0  0  0  0  0
   48.3562    9.2404   13.3600 C   0  0  0  0  0  0  0  0  0  0  0  0
   49.6793    8.5919   12.9444 C   0  0  0  0  0  0  0  0  0  0  0  0
   50.8257    8.8788   13.9195 C   0  0  0  0  0  0  0  0  0  0  0  0
   51.2860   10.3389   13.9073 C   0  0  0  0  0  0  0  0  0  0  0  0
   52.5037   10.5416   14.8138 C   0  0  0  0  0  0  0  0  0  0  0  0
   52.9618   12.0020   14.8089 C   0  0  0  0  0  0  0  0  0  0  0  0
   54.1148   12.2769   15.7771 C   0  0  0  0  0  0  0  0  0  0  0  0
   55.4116   11.5810   15.3924 C   0  0  0  0  0  0  0  0  0  0  0  0
   53.3709   14.1357   13.4849 H   0  0  0  0  0  0  0  0  0  0  0  0
   52.8136   14.6598   14.9274 H   0  0  0  0  0  0  0  0  0  0  0  0
   52.7268   11.0104   15.2532 H   0  0  0  0  0  0  0  0  0  0  0  0
   51.6927   12.3761   14.9096 H   0  0  0  0  0  0  0  0  0  0  0  0
   52.5182   12.4354   12.5366 H   0  0  0  0  0  0  0  0  0  0  0  0
   53.6118   11.1094   12.8702 H   0  0  0  0  0  0  0  0  0  0  0  0
   52.8267    8.8198   12.9143 H   0  0  0  0  0  0  0  0  0  0  0  0
   49.9999   12.0740   12.7537 H   0  0  0  0  0  0  0  0  0  0  0  0
   51.0186    7.2267   12.4511 H   0  0  0  0  0  0  0  0  0  0  0  0
   48.1912   10.4762   12.2911 H   0  0  0  0  0  0  0  0  0  0  0  0
   53.7882   12.1357   17.1648 H   0  0  0  0  0  0  0  0  0  0  0  0
   54.5159   13.7488   16.9972 H   0  0  0  0  0  0  0  0  0  0  0  0
   55.3780   12.3038   13.6693 H   0  0  0  0  0  0  0  0  0  0  0  0
   55.9854   13.0195   15.1551 H   0  0  0  0  0  0  0  0  0  0  0  0
   54.9775   10.4139   14.7445 H   0  0  0  0  0  0  0  0  0  0  0  0
   52.4831   13.8207   17.9559 H   0  0  0  0  0  0  0  0  0  0  0  0
   48.7515    6.8827   11.5325 H   0  0  0  0  0  0  0  0  0  0  0  0
   47.6211    8.2178   11.4059 H   0  0  0  0  0  0  0  0  0  0  0  0
   47.2803    8.1756   13.9049 H   0  0  0  0  0  0  0  0  0  0  0  0
   48.4671    6.8923   14.0501 H   0  0  0  0  0  0  0  0  0  0  0  0
   42.3502    4.0731   11.3970 H   0  0  0  0  0  0  0  0  0  0  0  0
   42.8767    3.4673   12.9676 H   0  0  0  0  0  0  0  0  0  0  0  0
   45.2575    3.9412   12.3474 H   0  0  0  0  0  0  0  0  0  0  0  0
   44.7276    4.5805   10.7896 H   0  0  0  0  0  0  0  0  0  0  0  0
   46.2780    5.9249   14.1828 H   0  0  0  0  0  0  0  0  0  0  0  0
   47.0455    5.3738   12.6962 H   0  0  0  0  0  0  0  0  0  0  0  0
   45.1054    7.7407   12.7818 H   0  0  0  0  0  0  0  0  0  0  0  0
   45.6841    6.9027   11.3435 H   0  0  0  0  0  0  0  0  0  0  0  0
   43.8984    5.7018   13.5227 H   0  0  0  0  0  0  0  0  0  0  0  0
   43.3522    6.3122   11.9658 H   0  0  0  0  0  0  0  0  0  0  0  0
   42.5097    1.5984   11.4103 H   0  0  0  0  0  0  0  0  0  0  0  0
   44.2283    1.6886   11.8270 H   0  0  0  0  0  0  0  0  0  0  0  0
   43.6620    2.2830   10.2533 H   0  0  0  0  0  0  0  0  0  0  0  0
   45.1016    2.0963   12.4337 H   0  0  0  0  0  0  0  0  0  0  0  0
   44.3094    5.8758   10.4741 H   0  0  0  0  0  0  0  0  0  0  0  0
   45.9538    5.3034   10.8385 H   0  0  0  0  0  0  0  0  0  0  0  0
   44.7456    7.9744   11.7329 H   0  0  0  0  0  0  0  0  0  0  0  0
   45.8289    7.7699   10.3478 H   0  0  0  0  0  0  0  0  0  0  0  0
   47.6055    6.9122   11.9012 H   0  0  0  0  0  0  0  0  0  0  0  0
   46.5280    7.1671   13.2756 H   0  0  0  0  0  0  0  0  0  0  0  0
   47.5229    9.3524   11.3673 H   0  0  0  0  0  0  0  0  0  0  0  0
   46.3631    9.6073   12.6664 H   0  0  0  0  0  0  0  0  0  0  0  0
   48.0588    8.8757   14.3507 H   0  0  0  0  0  0  0  0  0  0  0  0
   48.4897   10.3243   13.4481 H   0  0  0  0  0  0  0  0  0  0  0  0
   49.5525    7.5043   12.8925 H   0  0  0  0  0  0  0  0  0  0  0  0
   49.9601    8.9259   11.9386 H   0  0  0  0  0  0  0  0  0  0  0  0
   51.6731    8.2372   13.6471 H   0  0  0  0  0  0  0  0  0  0  0  0
   50.5268    8.5919   14.9350 H   0  0  0  0  0  0  0  0  0  0  0  0
   50.4745   10.9937   14.2446 H   0  0  0  0  0  0  0  0  0  0  0  0
   51.5398   10.6360   12.8821 H   0  0  0  0  0  0  0  0  0  0  0  0
   53.3175    9.8925   14.4709 H   0  0  0  0  0  0  0  0  0  0  0  0
   52.2523   10.2374   15.8372 H   0  0  0  0  0  0  0  0  0  0  0  0
   53.2567   12.2947   13.7937 H   0  0  0  0  0  0  0  0  0  0  0  0
   52.1178   12.6436   15.0917 H   0  0  0  0  0  0  0  0  0  0  0  0
   54.2947   13.3580   15.8046 H   0  0  0  0  0  0  0  0  0  0  0  0
   53.8293   11.9780   16.7924 H   0  0  0  0  0  0  0  0  0  0  0  0
   56.2157   11.8829   16.0719 H   0  0  0  0  0  0  0  0  0  0  0  0
   55.3170   10.4926   15.4537 H   0  0  0  0  0  0  0  0  0  0  0  0
   55.7126   11.8466   14.3743 H   0  0  0  0  0  0  0  0  0  0  0  0
  1  2  1  0
  1  3  1  0
  3  6  1  0
  4  6  1  0
  4  7  2  0
  4  8  1  0
  5  9  2  0
  7  9  1  0
  5 10  1  0
  8 10  2  0
  1 11  1  0
  1 12  1  0
 12 13  1  0
 11 14  1  0
  5 15  1  0
 15 16  1  0
 17 18  1  0
 16 19  1  0
 19 20  1  0
 18 21  1  0
 20 21  1  0
 17 22  1  0
 23 24  1  0
 23 25  1  0
 23 26  2  0
 23 27  2  0
 24 28  1  0
 28 29  1  0
 29 30  1  0
 30 31  1  0
 31 32  1  0
 32 33  1  0
 33 34  1  0
 34 35  1  0
 35 36  1  0
 36 37  1  0
 37 38  1  0
 38 39  1  0
  2 40  1  0
  2 41  1  0
  3 42  1  0
  3 43  1  0
  6 44  1  0
  6 45  1  0
  7 46  1  0
  8 47  1  0
  9 48  1  0
 10 49  1  0
 11 50  1  0
 11 51  1  0
 12 52  1  0
 12 53  1  0
 13 54  1  0
 14 55  1  0
 15 56  1  0
 15 57  1  0
 16 58  1  0
 16 59  1  0
 17 60  1  0
 17 61  1  0
 18 62  1  0
 18 63  1  0
 19 64  1  0
 19 65  1  0
 20 66  1  0
 20 67  1  0
 21 68  1  0
 21 69  1  0
 22 70  1  0
 22 71  1  0
 22 72  1  0
 25 73  1  0
 28 74  1  0
 28 75  1  0
 29 76  1  0
 29 77  1  0
 30 78  1  0
 30 79  1  0
 31 80  1  0
 31 81  1  0
 32 82  1  0
 32 83  1  0
 33 84  1  0
 33 85  1  0
 34 86  1  0
 34 87  1  0
 35 88  1  0
 35 89  1  0
 36 90  1  0
 36 91  1  0
 37 92  1  0
 37 93  1  0
 38 94  1  0
 38 95  1  0
 39 96  1  0
 39 97  1  0
 39 98  1  0
M  END
> <Uni-Dock RESULT> 
ENERGY=   -4.215  LOWER_BOUND=    3.502  UPPER_BOUND=   10.366
INTER + INTRA:          -4.215
INTER:                  -4.215
INTRA:                   0.000
UNBOUND:                 0.000

$$$$

     RDKit          3D

 98 97  0  0  0  0  0  0  0  0999 V2000
   48.0198   13.4859    7.0384 C   0  0  0  0  0  0  0  0  0  0  0  0
   49.3067   13.5449    6.3056 N   0  0  0  0  0  0  0  0  0  0  0  0
   48.1702   12.6178    8.3206 C   0  0  0  0  0  0  0  0  0  0  0  0
   49.1285   12.2985   10.6257 C   0  0  0  0  0  0  0  0  0  0  0  0
   49.1553   10.6121   12.8839 C   0  0  0  0  0  0  0  0  0  0  0  0
   49.0982   13.1861    9.4041 C   0  0  0  0  0  0  0  0  0  0  0  0
   48.3382   12.5938   11.7431 C   0  0  0  0  0  0  0  0  0  0  0  0
   49.9275   11.1488   10.6456 C   0  0  0  0  0  0  0  0  0  0  0  0
   48.3518   11.7580   12.8618 C   0  0  0  0  0  0  0  0  0  0  0  0
   49.9401   10.3129   11.7641 C   0  0  0  0  0  0  0  0  0  0  0  0
   46.9786   12.8067    6.1008 C   0  0  0  0  0  0  0  0  0  0  0  0
   47.5385   14.9262    7.3448 C   0  0  0  0  0  0  0  0  0  0  0  0
   46.3169   14.9420    8.0796 O   0  0  0  0  0  0  0  0  0  0  0  0
   47.4387   11.5095    5.7014 O   0  0  0  0  0  0  0  0  0  0  0  0
   49.1455    9.6906   14.0791 C   0  0  0  0  0  0  0  0  0  0  0  0
   48.0979    8.5858   13.9199 C   0  0  0  0  0  0  0  0  0  0  0  0
   48.5361    5.0214   18.7749 C   0  0  0  0  0  0  0  0  0  0  0  0
   48.6960    6.2000   17.8142 C   0  0  0  0  0  0  0  0  0  0  0  0
   47.9908    7.6664   15.1399 C   0  0  0  0  0  0  0  0  0  0  0  0
   49.2629    6.8555   15.4019 C   0  0  0  0  0  0  0  0  0  0  0  0
   49.0568    5.7175   16.4072 C   0  0  0  0  0  0  0  0  0  0  0  0
   48.1534    5.4854   20.1706 C   0  0  0  0  0  0  0  0  0  0  0  0
   47.9980    5.6021   17.9643 S   0  0  0  0  0  0  0  0  0  0  0  0
   48.7027    6.1773   16.6202 O   0  0  0  0  0  0  0  0  0  0  0  0
   47.3618    6.9181   18.6445 O   0  0  0  0  0  0  0  0  0  0  0  0
   49.0153    5.1194   18.8711 O   0  0  0  0  0  0  0  0  0  0  0  0
   46.8764    4.7736   17.5871 O   0  0  0  0  0  0  0  0  0  0  0  0
   49.7949    7.0691   16.7690 C   0  0  0  0  0  0  0  0  0  0  0  0
   50.3642    7.4126   15.3958 C   0  0  0  0  0  0  0  0  0  0  0  0
   49.3592    8.1621   14.5143 C   0  0  0  0  0  0  0  0  0  0  0  0
   49.9796    8.5163   13.1601 C   0  0  0  0  0  0  0  0  0  0  0  0
   48.9967    9.1746   12.1862 C   0  0  0  0  0  0  0  0  0  0  0  0
   48.5360   10.5632   12.6374 C   0  0  0  0  0  0  0  0  0  0  0  0
   47.5925   11.2411   11.6386 C   0  0  0  0  0  0  0  0  0  0  0  0
   48.2791   11.6532   10.3337 C   0  0  0  0  0  0  0  0  0  0  0  0
   47.3183   12.4243    9.4239 C   0  0  0  0  0  0  0  0  0  0  0  0
   48.0002   12.8315    8.1154 C   0  0  0  0  0  0  0  0  0  0  0  0
   47.0530   13.5183    7.1287 C   0  0  0  0  0  0  0  0  0  0  0  0
   46.5504   14.8713    7.6090 C   0  0  0  0  0  0  0  0  0  0  0  0
   50.0857   13.6945    6.9411 H   0  0  0  0  0  0  0  0  0  0  0  0
   49.4508   12.6176    5.8906 H   0  0  0  0  0  0  0  0  0  0  0  0
   47.1760   12.4550    8.7595 H   0  0  0  0  0  0  0  0  0  0  0  0
   48.5307   11.6175    8.0412 H   0  0  0  0  0  0  0  0  0  0  0  0
   50.1219   13.2939    9.0281 H   0  0  0  0  0  0  0  0  0  0  0  0
   48.7785   14.1897    9.7052 H   0  0  0  0  0  0  0  0  0  0  0  0
   47.7025   13.4755   11.7529 H   0  0  0  0  0  0  0  0  0  0  0  0
   50.5403   10.8913    9.7844 H   0  0  0  0  0  0  0  0  0  0  0  0
   47.7267   12.0052   13.7173 H   0  0  0  0  0  0  0  0  0  0  0  0
   50.5616    9.4202   11.7525 H   0  0  0  0  0  0  0  0  0  0  0  0
   46.0138   12.6833    6.6044 H   0  0  0  0  0  0  0  0  0  0  0  0
   46.8217   13.4002    5.1926 H   0  0  0  0  0  0  0  0  0  0  0  0
   48.2862   15.4965    7.9068 H   0  0  0  0  0  0  0  0  0  0  0  0
   47.3616   15.4751    6.4123 H   0  0  0  0  0  0  0  0  0  0  0  0
   46.5256   14.7347    9.0059 H   0  0  0  0  0  0  0  0  0  0  0  0
   46.7644   11.1542    5.0988 H   0  0  0  0  0  0  0  0  0  0  0  0
   48.9456   10.2723   14.9875 H   0  0  0  0  0  0  0  0  0  0  0  0
   50.1470    9.2626   14.2045 H   0  0  0  0  0  0  0  0  0  0  0  0
   48.3174    7.9845   13.0290 H   0  0  0  0  0  0  0  0  0  0  0  0
   47.1131    9.0385   13.7468 H   0  0  0  0  0  0  0  0  0  0  0  0
   49.4717    4.4526   18.8274 H   0  0  0  0  0  0  0  0  0  0  0  0
   47.7642    4.3396   18.4000 H   0  0  0  0  0  0  0  0  0  0  0  0
   47.7605    6.7695   17.7895 H   0  0  0  0  0  0  0  0  0  0  0  0
   49.4782    6.8741   18.1833 H   0  0  0  0  0  0  0  0  0  0  0  0
   47.1523    6.9793   14.9733 H   0  0  0  0  0  0  0  0  0  0  0  0
   47.7400    8.2674   16.0212 H   0  0  0  0  0  0  0  0  0  0  0  0
   49.6128    6.4166   14.4589 H   0  0  0  0  0  0  0  0  0  0  0  0
   50.0611    7.5153   15.7618 H   0  0  0  0  0  0  0  0  0  0  0  0
   48.2766    5.0414   16.0357 H   0  0  0  0  0  0  0  0  0  0  0  0
   49.9823    5.1310   16.4566 H   0  0  0  0  0  0  0  0  0  0  0  0
   48.0197    4.6240   20.8304 H   0  0  0  0  0  0  0  0  0  0  0  0
   47.2138    6.0475   20.1526 H   0  0  0  0  0  0  0  0  0  0  0  0
   48.9297    6.1252   20.5999 H   0  0  0  0  0  0  0  0  0  0  0  0
   46.7055    6.6143   19.3055 H   0  0  0  0  0  0  0  0  0  0  0  0
   50.5790    6.5947   17.3696 H   0  0  0  0  0  0  0  0  0  0  0  0
   49.4637    7.9779   17.2833 H   0  0  0  0  0  0  0  0  0  0  0  0
   50.6596    6.4866   14.8874 H   0  0  0  0  0  0  0  0  0  0  0  0
   51.2657    8.0228   15.5252 H   0  0  0  0  0  0  0  0  0  0  0  0
   49.0385    9.0725   15.0323 H   0  0  0  0  0  0  0  0  0  0  0  0
   48.4671    7.5452   14.3571 H   0  0  0  0  0  0  0  0  0  0  0  0
   50.8455    9.1734   13.3086 H   0  0  0  0  0  0  0  0  0  0  0  0
   50.3575    7.5992   12.6908 H   0  0  0  0  0  0  0  0  0  0  0  0
   48.1264    8.5223   12.0446 H   0  0  0  0  0  0  0  0  0  0  0  0
   49.4971    9.2509   11.2146 H   0  0  0  0  0  0  0  0  0  0  0  0
   48.0037   10.4791   13.5919 H   0  0  0  0  0  0  0  0  0  0  0  0
   49.4058   11.2064   12.8159 H   0  0  0  0  0  0  0  0  0  0  0  0
   47.1750   12.1355   12.1178 H   0  0  0  0  0  0  0  0  0  0  0  0
   46.7474   10.5770   11.4203 H   0  0  0  0  0  0  0  0  0  0  0  0
   48.6432   10.7667    9.8021 H   0  0  0  0  0  0  0  0  0  0  0  0
   49.1514   12.2794   10.5589 H   0  0  0  0  0  0  0  0  0  0  0  0
   46.9611   13.3151    9.9531 H   0  0  0  0  0  0  0  0  0  0  0  0
   46.4427   11.8012    9.2049 H   0  0  0  0  0  0  0  0  0  0  0  0
   48.8496   13.4918    8.3298 H   0  0  0  0  0  0  0  0  0  0  0  0
   48.4087   11.9363    7.6302 H   0  0  0  0  0  0  0  0  0  0  0  0
   47.5839   13.6608    6.1801 H   0  0  0  0  0  0  0  0  0  0  0  0
   46.1972   12.8668    6.9173 H   0  0  0  0  0  0  0  0  0  0  0  0
   45.9486   15.3474    6.8276 H   0  0  0  0  0  0  0  0  0  0  0  0
   45.9208   14.7732    8.4986 H   0  0  0  0  0  0  0  0  0  0  0  0
   47.3848   15.5386    7.8459 H   0  0  0  0  0  0  0  0  0  0  0  0
  1  2  1  0
  1  3  1  0
  3  6  1  0
  4  6  1  0
  4  7  2  0
  4  8  1  0
  5  9  2  0
  7  9  1  0
  5 10  1  0
  8 10  2  0
  1 11  1  0
  1 12  1  0
 12 13  1  0
 11 14  1  0
  5 15  1  0
 15 16  1  0
 17 18  1  0
 16 19  1  0
 19 20  1  0
 18 21  1  0
 20 21  1  0
 17 22  1  0
 23 24  1  0
 23 25  1  0
 23 26  2  0
 23 27  2  0
 24 28  1  0
 28 29  1  0
 29 30  1  0
 30 31  1  0
 31 32  1  0
 32 33  1  0
 33 34  1  0
 34 35  1  0
 35 36  1  0
 36 37  1  0
 37 38  1  0
 38 39  1  0
  2 40  1  0
  2 41  1  0
  3 42  1  0
  3 43  1  0
  6 44  1  0
  6 45  1  0
  7 46  1  0
  8 47  1  0
  9 48  1  0
 10 49  1  0
 11 50  1  0
 11 51  1  0
 12 52  1  0
 12 53  1  0
 13 54  1  0
 14 55  1  0
 15 56  1  0
 15 57  1  0
 16 58  1  0
 16 59  1  0
 17 60  1  0
 17 61  1  0
 18 62  1  0
 18 63  1  0
 19 64  1  0
 19 65  1  0
 20 66  1  0
 20 67  1  0
 21 68  1  0
 21 69  1  0
 22 70  1  0
 22 71  1  0
 22 72  1  0
 25 73  1  0
 28 74  1  0
 28 75  1  0
 29 76  1  0
 29 77  1  0
 30 78  1  0
 30 79  1  0
 31 80  1  0
 31 81  1  0
 32 82  1  0
 32 83  1  0
 33 84  1  0
 33 85  1  0
 34 86  1  0
 34 87  1  0
 35 88  1  0
 35 89  1  0
 36 90  1  0
 36 91  1  0
 37 92  1  0
 37 93  1  0
 38 94  1  0
 38 95  1  0
 39 96  1  0
 39 97  1  0
 39 98  1  0
M  END
> <Uni-Dock RESULT> 
ENERGY=   -4.213  LOWER_BOUND=    5.729  UPPER_BOUND=    7.524
INTER + INTRA:          -4.213
INTER:                  -4.213
INTRA:                   0.000
UNBOUND:                 0.000

$$$$
