
     RDKit          3D

 98 97  0  0  0  0  0  0  0  0999 V2000
   52.2397   13.5039   10.0379 C   0  0  0  0  0  0  0  0  0  0  0  0
   52.7236   14.3767   11.1436 N   0  0  0  0  0  0  0  0  0  0  0  0
   51.1223   12.5441   10.5136 C   0  0  0  0  0  0  0  0  0  0  0  0
   50.3673   10.6611   12.0128 C   0  0  0  0  0  0  0  0  0  0  0  0
   48.2566    8.9332   12.7237 C   0  0  0  0  0  0  0  0  0  0  0  0
   51.5051   11.5854   11.6502 C   0  0  0  0  0  0  0  0  0  0  0  0
   50.3640    9.3290   11.5830 C   0  0  0  0  0  0  0  0  0  0  0  0
   49.2958   11.1258   12.7864 C   0  0  0  0  0  0  0  0  0  0  0  0
   49.3171    8.4725   11.9346 C   0  0  0  0  0  0  0  0  0  0  0  0
   48.2492   10.2711   13.1380 C   0  0  0  0  0  0  0  0  0  0  0  0
   51.6424   14.4369    8.9453 C   0  0  0  0  0  0  0  0  0  0  0  0
   53.4550   12.7360    9.4425 C   0  0  0  0  0  0  0  0  0  0  0  0
   54.5284   13.6304    9.1384 O   0  0  0  0  0  0  0  0  0  0  0  0
   52.6001   15.4214    8.5431 O   0  0  0  0  0  0  0  0  0  0  0  0
   47.1315    8.0079   13.1130 C   0  0  0  0  0  0  0  0  0  0  0  0
   46.0486    7.9321   12.0346 C   0  0  0  0  0  0  0  0  0  0  0  0
   43.4790    3.8275   11.0788 C   0  0  0  0  0  0  0  0  0  0  0  0
   42.8676    4.6503   12.2124 C   0  0  0  0  0  0  0  0  0  0  0  0
   44.9021    7.0177   12.4740 C   0  0  0  0  0  0  0  0  0  0  0  0
   43.8200    6.9247   11.3969 C   0  0  0  0  0  0  0  0  0  0  0  0
   42.5982    6.1088   11.8300 C   0  0  0  0  0  0  0  0  0  0  0  0
   43.6297    2.3661   11.4745 C   0  0  0  0  0  0  0  0  0  0  0  0
   43.7626    4.5858   11.0965 S   0  0  0  0  0  0  0  0  0  0  0  0
   44.8550    4.9185   12.2496 O   0  0  0  0  0  0  0  0  0  0  0  0
   42.7146    5.7952   11.2721 O   0  0  0  0  0  0  0  0  0  0  0  0
   43.0437    3.3984   11.5005 O   0  0  0  0  0  0  0  0  0  0  0  0
   44.3762    4.7103    9.7951 O   0  0  0  0  0  0  0  0  0  0  0  0
   45.9559    5.7484   11.9117 C   0  0  0  0  0  0  0  0  0  0  0  0
   46.6905    6.1060   13.1970 C   0  0  0  0  0  0  0  0  0  0  0  0
   47.9800    6.8975   12.9752 C   0  0  0  0  0  0  0  0  0  0  0  0
   47.8395    8.2145   12.2031 C   0  0  0  0  0  0  0  0  0  0  0  0
   46.9032    9.2204   12.8728 C   0  0  0  0  0  0  0  0  0  0  0  0
   46.7275   10.5270   12.0877 C   0  0  0  0  0  0  0  0  0  0  0  0
   47.9909   11.3900   11.9918 C   0  0  0  0  0  0  0  0  0  0  0  0
   48.7258   11.2303   10.6573 C   0  0  0  0  0  0  0  0  0  0  0  0
   49.9747   12.1157   10.6067 C   0  0  0  0  0  0  0  0  0  0  0  0
   50.7056   11.9665    9.2698 C   0  0  0  0  0  0  0  0  0  0  0  0
   51.8947   12.9186    9.1197 C   0  0  0  0  0  0  0  0  0  0  0  0
   53.0224   12.6431   10.1015 C   0  0  0  0  0  0  0  0  0  0  0  0
   53.0417   13.7922   11.9174 H   0  0  0  0  0  0  0  0  0  0  0  0
   53.6020   14.7987   10.8144 H   0  0  0  0  0  0  0  0  0  0  0  0
   50.2563   13.1397   10.8352 H   0  0  0  0  0  0  0  0  0  0  0  0
   50.7750   11.9534    9.6541 H   0  0  0  0  0  0  0  0  0  0  0  0
   52.3765   10.9814   11.3737 H   0  0  0  0  0  0  0  0  0  0  0  0
   51.7915   12.1418   12.5512 H   0  0  0  0  0  0  0  0  0  0  0  0
   51.1794    8.9435   10.9759 H   0  0  0  0  0  0  0  0  0  0  0  0
   49.2746   12.1591   13.1293 H   0  0  0  0  0  0  0  0  0  0  0  0
   49.3388    7.4401   11.5946 H   0  0  0  0  0  0  0  0  0  0  0  0
   47.4316   10.6550   13.7442 H   0  0  0  0  0  0  0  0  0  0  0  0
   50.7522   14.9630    9.3039 H   0  0  0  0  0  0  0  0  0  0  0  0
   51.3602   13.8647    8.0559 H   0  0  0  0  0  0  0  0  0  0  0  0
   53.8569   12.0012   10.1448 H   0  0  0  0  0  0  0  0  0  0  0  0
   53.1778   12.2089    8.5237 H   0  0  0  0  0  0  0  0  0  0  0  0
   54.1433   14.3415    8.5821 H   0  0  0  0  0  0  0  0  0  0  0  0
   52.6498   16.0358    9.3035 H   0  0  0  0  0  0  0  0  0  0  0  0
   46.6938    8.3458   14.0603 H   0  0  0  0  0  0  0  0  0  0  0  0
   47.5384    7.0090   13.3125 H   0  0  0  0  0  0  0  0  0  0  0  0
   46.4816    7.5545   11.0990 H   0  0  0  0  0  0  0  0  0  0  0  0
   45.6591    8.9366   11.8233 H   0  0  0  0  0  0  0  0  0  0  0  0
   42.8449    3.8955   10.1875 H   0  0  0  0  0  0  0  0  0  0  0  0
   44.4659    4.2204   10.8118 H   0  0  0  0  0  0  0  0  0  0  0  0
   41.9129    4.1972   12.5083 H   0  0  0  0  0  0  0  0  0  0  0  0
   43.5117    4.6068   13.0974 H   0  0  0  0  0  0  0  0  0  0  0  0
   45.3037    6.0203   12.6883 H   0  0  0  0  0  0  0  0  0  0  0  0
   44.4623    7.4002   13.4041 H   0  0  0  0  0  0  0  0  0  0  0  0
   43.4797    7.9361   11.1440 H   0  0  0  0  0  0  0  0  0  0  0  0
   44.2439    6.5057   10.4768 H   0  0  0  0  0  0  0  0  0  0  0  0
   42.1220    6.6086   12.6816 H   0  0  0  0  0  0  0  0  0  0  0  0
   41.8638    6.1304   11.0160 H   0  0  0  0  0  0  0  0  0  0  0  0
   44.0753    1.7963   10.6535 H   0  0  0  0  0  0  0  0  0  0  0  0
   44.2771    2.2622   12.3508 H   0  0  0  0  0  0  0  0  0  0  0  0
   42.6583    1.9191   11.7081 H   0  0  0  0  0  0  0  0  0  0  0  0
   42.0972    5.5374   11.9868 H   0  0  0  0  0  0  0  0  0  0  0  0
   45.5917    6.6526   11.4130 H   0  0  0  0  0  0  0  0  0  0  0  0
   46.6195    5.2054   11.2312 H   0  0  0  0  0  0  0  0  0  0  0  0
   46.9336    5.1809   13.7358 H   0  0  0  0  0  0  0  0  0  0  0  0
   46.0134    6.6545   13.8636 H   0  0  0  0  0  0  0  0  0  0  0  0
   48.6963    6.2609   12.4392 H   0  0  0  0  0  0  0  0  0  0  0  0
   48.4296    7.1060   13.9543 H   0  0  0  0  0  0  0  0  0  0  0  0
   48.8417    8.6497   12.1259 H   0  0  0  0  0  0  0  0  0  0  0  0
   47.5031    8.0138   11.1796 H   0  0  0  0  0  0  0  0  0  0  0  0
   45.9079    8.7743   12.9906 H   0  0  0  0  0  0  0  0  0  0  0  0
   47.2667    9.4456   13.8841 H   0  0  0  0  0  0  0  0  0  0  0  0
   45.9634   11.1129   12.6134 H   0  0  0  0  0  0  0  0  0  0  0  0
   46.3210   10.3171   11.0914 H   0  0  0  0  0  0  0  0  0  0  0  0
   48.6664   11.1833   12.8302 H   0  0  0  0  0  0  0  0  0  0  0  0
   47.6918   12.4417   12.0859 H   0  0  0  0  0  0  0  0  0  0  0  0
   49.0146   10.1855   10.5014 H   0  0  0  0  0  0  0  0  0  0  0  0
   48.0506   11.5012    9.8354 H   0  0  0  0  0  0  0  0  0  0  0  0
   49.6879   13.1644   10.7535 H   0  0  0  0  0  0  0  0  0  0  0  0
   50.6421   11.8402   11.4310 H   0  0  0  0  0  0  0  0  0  0  0  0
   50.0025   12.1652    8.4511 H   0  0  0  0  0  0  0  0  0  0  0  0
   51.0462   10.9302    9.1479 H   0  0  0  0  0  0  0  0  0  0  0  0
   52.2875   12.8226    8.1004 H   0  0  0  0  0  0  0  0  0  0  0  0
   51.5579   13.9551    9.2343 H   0  0  0  0  0  0  0  0  0  0  0  0
   53.8801   13.2863    9.8778 H   0  0  0  0  0  0  0  0  0  0  0  0
   52.7164   12.8468   11.1324 H   0  0  0  0  0  0  0  0  0  0  0  0
   53.3565   11.6032   10.0380 H   0  0  0  0  0  0  0  0  0  0  0  0
  1  2  1  0
  1  3  1  0
  3  6  1  0
  4  6  1  0
  4  7  2  0
  4  8  1  0
  5  9  2  0
  7  9  1  0
  5 10  1  0
  8 10  2  0
  1 11  1  0
  1 12  1  0
 12 13  1  0
 11 14  1  0
  5 15  1  0
 15 16  1  0
 17 18  1  0
 16 19  1  0
 19 20  1  0
 18 21  1  0
 20 21  1  0
 17 22  1  0
 23 24  1  0
 23 25  1  0
 23 26  2  0
 23 27  2  0
 24 28  1  0
 28 29  1  0
 29 30  1  0
 30 31  1  0
 31 32  1  0
 32 33  1  0
 33 34  1  0
 34 35  1  0
 35 36  1  0
 36 37  1  0
 37 38  1  0
 38 39  1  0
  2 40  1  0
  2 41  1  0
  3 42  1  0
  3 43  1  0
  6 44  1  0
  6 45  1  0
  7 46  1  0
  8 47  1  0
  9 48  1  0
 10 49  1  0
 11 50  1  0
 11 51  1  0
 12 52  1  0
 12 53  1  0
 13 54  1  0
 14 55  1  0
 15 56  1  0
 15 57  1  0
 16 58  1  0
 16 59  1  0
 17 60  1  0
 17 61  1  0
 18 62  1  0
 18 63  1  0
 19 64  1  0
 19 65  1  0
 20 66  1  0
 20 67  1  0
 21 68  1  0
 21 69  1  0
 22 70  1  0
 22 71  1  0
 22 72  1  0
 25 73  1  0
 28 74  1  0
 28 75  1  0
 29 76  1  0
 29 77  1  0
 30 78  1  0
 30 79  1  0
 31 80  1  0
 31 81  1  0
 32 82  1  0
 32 83  1  0
 33 84  1  0
 33 85  1  0
 34 86  1  0
 34 87  1  0
 35 88  1  0
 35 89  1  0
 36 90  1  0
 36 91  1  0
 37 92  1  0
 37 93  1  0
 38 94  1  0
 38 95  1  0
 39 96  1  0
 39 97  1  0
 39 98  1  0
M  END
> <Uni-Dock RESULT> 
ENERGY=   -6.633  LOWER_BOUND=    0.000  UPPER_BOUND=    0.000
INTER + INTRA:          -6.633
INTER:                  -6.633
INTRA:                   0.000
UNBOUND:                 0.000

$$$$

     RDKit          3D

 98 97  0  0  0  0  0  0  0  0999 V2000
   44.1920    5.2074   12.0933 C   0  0  0  0  0  0  0  0  0  0  0  0
   43.7770    4.7864   13.4605 N   0  0  0  0  0  0  0  0  0  0  0  0
   45.4407    6.1213   12.1303 C   0  0  0  0  0  0  0  0  0  0  0  0
   46.5421    8.2673   12.8684 C   0  0  0  0  0  0  0  0  0  0  0  0
   48.8697    9.8556   12.7885 C   0  0  0  0  0  0  0  0  0  0  0  0
   45.2907    7.4243   12.9285 C   0  0  0  0  0  0  0  0  0  0  0  0
   46.6082    9.3899   12.0349 C   0  0  0  0  0  0  0  0  0  0  0  0
   47.6580    7.9361   13.6481 C   0  0  0  0  0  0  0  0  0  0  0  0
   47.7625   10.1768   11.9945 C   0  0  0  0  0  0  0  0  0  0  0  0
   48.8117    8.7214   13.6083 C   0  0  0  0  0  0  0  0  0  0  0  0
   44.5617    3.9158   11.3085 C   0  0  0  0  0  0  0  0  0  0  0  0
   42.9834    5.8974   11.3974 C   0  0  0  0  0  0  0  0  0  0  0  0
   41.8056    5.0927   11.4971 O   0  0  0  0  0  0  0  0  0  0  0  0
   43.4779    2.9814   11.3341 O   0  0  0  0  0  0  0  0  0  0  0  0
   50.1121   10.7093   12.7543 C   0  0  0  0  0  0  0  0  0  0  0  0
   51.0522   10.3132   11.6139 C   0  0  0  0  0  0  0  0  0  0  0  0
   53.8312   13.5697    9.1570 C   0  0  0  0  0  0  0  0  0  0  0  0
   54.5065   13.0692   10.4335 C   0  0  0  0  0  0  0  0  0  0  0  0
   52.3211   11.1696   11.6284 C   0  0  0  0  0  0  0  0  0  0  0  0
   53.2620   10.7902   10.4837 C   0  0  0  0  0  0  0  0  0  0  0  0
   54.5958   11.5423   10.5171 C   0  0  0  0  0  0  0  0  0  0  0  0
   53.8610   15.0887    9.0742 C   0  0  0  0  0  0  0  0  0  0  0  0
   53.4865   12.8952    9.4436 S   0  0  0  0  0  0  0  0  0  0  0  0
   52.5239   13.0735   10.7379 O   0  0  0  0  0  0  0  0  0  0  0  0
   54.4378   11.6798    9.9012 O   0  0  0  0  0  0  0  0  0  0  0  0
   54.3524   14.0510    9.3765 O   0  0  0  0  0  0  0  0  0  0  0  0
   52.7045   12.4510    8.3136 O   0  0  0  0  0  0  0  0  0  0  0  0
   51.3203   12.3225   10.7876 C   0  0  0  0  0  0  0  0  0  0  0  0
   50.7258   12.4740   12.1816 C   0  0  0  0  0  0  0  0  0  0  0  0
   49.3540   11.8185   12.3458 C   0  0  0  0  0  0  0  0  0  0  0  0
   49.2791   10.3205   12.0284 C   0  0  0  0  0  0  0  0  0  0  0  0
   50.2005    9.4636   12.8967 C   0  0  0  0  0  0  0  0  0  0  0  0
   50.1598    7.9669   12.5606 C   0  0  0  0  0  0  0  0  0  0  0  0
   48.8234    7.2798   12.8639 C   0  0  0  0  0  0  0  0  0  0  0  0
   47.9424    7.1082   11.6226 C   0  0  0  0  0  0  0  0  0  0  0  0
   46.6241    6.4122   11.9746 C   0  0  0  0  0  0  0  0  0  0  0  0
   45.7458    6.2296   10.7340 C   0  0  0  0  0  0  0  0  0  0  0  0
   44.4681    5.4324   11.0081 C   0  0  0  0  0  0  0  0  0  0  0  0
   43.5024    6.1354   11.9488 C   0  0  0  0  0  0  0  0  0  0  0  0
   43.6121    5.6164   14.0313 H   0  0  0  0  0  0  0  0  0  0  0  0
   42.8303    4.3953   13.3669 H   0  0  0  0  0  0  0  0  0  0  0  0
   46.2847    5.5523   12.5449 H   0  0  0  0  0  0  0  0  0  0  0  0
   45.7270    6.3694   11.0983 H   0  0  0  0  0  0  0  0  0  0  0  0
   44.4479    8.0160   12.5541 H   0  0  0  0  0  0  0  0  0  0  0  0
   45.0729    7.2140   13.9829 H   0  0  0  0  0  0  0  0  0  0  0  0
   45.7597    9.6663   11.4139 H   0  0  0  0  0  0  0  0  0  0  0  0
   47.6313    7.0654   14.3014 H   0  0  0  0  0  0  0  0  0  0  0  0
   47.7889   11.0477   11.3442 H   0  0  0  0  0  0  0  0  0  0  0  0
   49.6625    8.4460   14.2276 H   0  0  0  0  0  0  0  0  0  0  0  0
   45.4403    3.4206   11.7335 H   0  0  0  0  0  0  0  0  0  0  0  0
   44.7782    4.1451   10.2603 H   0  0  0  0  0  0  0  0  0  0  0  0
   42.7399    6.8572   11.8602 H   0  0  0  0  0  0  0  0  0  0  0  0
   43.1873    6.0757   10.3366 H   0  0  0  0  0  0  0  0  0  0  0  0
   42.0531    4.2025   11.1660 H   0  0  0  0  0  0  0  0  0  0  0  0
   43.4709    2.6436   12.2528 H   0  0  0  0  0  0  0  0  0  0  0  0
   50.6347   10.6297   13.7154 H   0  0  0  0  0  0  0  0  0  0  0  0
   49.8231   11.7632   12.6588 H   0  0  0  0  0  0  0  0  0  0  0  0
   50.5391   10.4332   10.6507 H   0  0  0  0  0  0  0  0  0  0  0  0
   51.3218    9.2526   11.7017 H   0  0  0  0  0  0  0  0  0  0  0  0
   54.3389   13.1513    8.2805 H   0  0  0  0  0  0  0  0  0  0  0  0
   52.7877   13.2386    9.1226 H   0  0  0  0  0  0  0  0  0  0  0  0
   55.5271   13.4699   10.4788 H   0  0  0  0  0  0  0  0  0  0  0  0
   53.9860   13.4637   11.3130 H   0  0  0  0  0  0  0  0  0  0  0  0
   52.0391   12.2259   11.5469 H   0  0  0  0  0  0  0  0  0  0  0  0
   52.8397   11.0424   12.5875 H   0  0  0  0  0  0  0  0  0  0  0  0
   53.4773    9.7162   10.5391 H   0  0  0  0  0  0  0  0  0  0  0  0
   52.7636   10.9529    9.5210 H   0  0  0  0  0  0  0  0  0  0  0  0
   55.1302   11.2759   11.4365 H   0  0  0  0  0  0  0  0  0  0  0  0
   55.2165   11.1793    9.6892 H   0  0  0  0  0  0  0  0  0  0  0  0
   53.3670   15.4269    8.1583 H   0  0  0  0  0  0  0  0  0  0  0  0
   53.3414   15.5379    9.9263 H   0  0  0  0  0  0  0  0  0  0  0  0
   54.8897   15.4623    9.0611 H   0  0  0  0  0  0  0  0  0  0  0  0
   55.1610   12.0677   10.4350 H   0  0  0  0  0  0  0  0  0  0  0  0
   51.5375   11.2706   10.5747 H   0  0  0  0  0  0  0  0  0  0  0  0
   50.6263   12.7060   10.0329 H   0  0  0  0  0  0  0  0  0  0  0  0
   50.6352   13.5430   12.4144 H   0  0  0  0  0  0  0  0  0  0  0  0
   51.4309   12.0795   12.9237 H   0  0  0  0  0  0  0  0  0  0  0  0
   48.6344   12.3414   11.7020 H   0  0  0  0  0  0  0  0  0  0  0  0
   49.0154   11.9805   13.3770 H   0  0  0  0  0  0  0  0  0  0  0  0
   48.2409   10.0102   12.1879 H   0  0  0  0  0  0  0  0  0  0  0  0
   49.4996   10.1514   10.9684 H   0  0  0  0  0  0  0  0  0  0  0  0
   51.2381    9.7976   12.7726 H   0  0  0  0  0  0  0  0  0  0  0  0
   49.9496    9.6092   13.9556 H   0  0  0  0  0  0  0  0  0  0  0  0
   50.9297    7.4828   13.1739 H   0  0  0  0  0  0  0  0  0  0  0  0
   50.4537    7.8063   11.5166 H   0  0  0  0  0  0  0  0  0  0  0  0
   48.2803    7.8176   13.6499 H   0  0  0  0  0  0  0  0  0  0  0  0
   49.0382    6.2803   13.2631 H   0  0  0  0  0  0  0  0  0  0  0  0
   47.7292    8.0808   11.1665 H   0  0  0  0  0  0  0  0  0  0  0  0
   48.4816    6.5150   10.8729 H   0  0  0  0  0  0  0  0  0  0  0  0
   46.8337    5.4334   12.4236 H   0  0  0  0  0  0  0  0  0  0  0  0
   46.0933    7.0095   12.7244 H   0  0  0  0  0  0  0  0  0  0  0  0
   46.3193    5.7020    9.9615 H   0  0  0  0  0  0  0  0  0  0  0  0
   45.4850    7.2109   10.3174 H   0  0  0  0  0  0  0  0  0  0  0  0
   43.9593    5.2560   10.0528 H   0  0  0  0  0  0  0  0  0  0  0  0
   44.7242    4.4490   11.4182 H   0  0  0  0  0  0  0  0  0  0  0  0
   42.5700    5.5657   12.0237 H   0  0  0  0  0  0  0  0  0  0  0  0
   43.9173    6.2246   12.9576 H   0  0  0  0  0  0  0  0  0  0  0  0
   43.2558    7.1375   11.5854 H   0  0  0  0  0  0  0  0  0  0  0  0
  1  2  1  0
  1  3  1  0
  3  6  1  0
  4  6  1  0
  4  7  2  0
  4  8  1  0
  5  9  2  0
  7  9  1  0
  5 10  1  0
  8 10  2  0
  1 11  1  0
  1 12  1  0
 12 13  1  0
 11 14  1  0
  5 15  1  0
 15 16  1  0
 17 18  1  0
 16 19  1  0
 19 20  1  0
 18 21  1  0
 20 21  1  0
 17 22  1  0
 23 24  1  0
 23 25  1  0
 23 26  2  0
 23 27  2  0
 24 28  1  0
 28 29  1  0
 29 30  1  0
 30 31  1  0
 31 32  1  0
 32 33  1  0
 33 34  1  0
 34 35  1  0
 35 36  1  0
 36 37  1  0
 37 38  1  0
 38 39  1  0
  2 40  1  0
  2 41  1  0
  3 42  1  0
  3 43  1  0
  6 44  1  0
  6 45  1  0
  7 46  1  0
  8 47  1  0
  9 48  1  0
 10 49  1  0
 11 50  1  0
 11 51  1  0
 12 52  1  0
 12 53  1  0
 13 54  1  0
 14 55  1  0
 15 56  1  0
 15 57  1  0
 16 58  1  0
 16 59  1  0
 17 60  1  0
 17 61  1  0
 18 62  1  0
 18 63  1  0
 19 64  1  0
 19 65  1  0
 20 66  1  0
 20 67  1  0
 21 68  1  0
 21 69  1  0
 22 70  1  0
 22 71  1  0
 22 72  1  0
 25 73  1  0
 28 74  1  0
 28 75  1  0
 29 76  1  0
 29 77  1  0
 30 78  1  0
 30 79  1  0
 31 80  1  0
 31 81  1  0
 32 82  1  0
 32 83  1  0
 33 84  1  0
 33 85  1  0
 34 86  1  0
 34 87  1  0
 35 88  1  0
 35 89  1  0
 36 90  1  0
 36 91  1  0
 37 92  1  0
 37 93  1  0
 38 94  1  0
 38 95  1  0
 39 96  1  0
 39 97  1  0
 39 98  1  0
M  END
> <Uni-Dock RESULT> 
ENERGY=   -4.950  LOWER_BOUND=    3.249  UPPER_BOUND=    9.923
INTER + INTRA:          -4.950
INTER:                  -4.950
INTRA:                   0.000
UNBOUND:                 0.000

$$$$

     RDKit          3D

 98 97  0  0  0  0  0  0  0  0999 V2000
   48.0866    6.2000   21.4561 C   0  0  0  0  0  0  0  0  0  0  0  0
   46.6982    5.8052   21.8236 N   0  0  0  0  0  0  0  0  0  0  0  0
   48.1476    7.6542   20.9292 C   0  0  0  0  0  0  0  0  0  0  0  0
   47.4585    9.3774   19.2208 C   0  0  0  0  0  0  0  0  0  0  0  0
   47.7237   12.0423   18.3406 C   0  0  0  0  0  0  0  0  0  0  0  0
   47.2985    7.9493   19.6845 C   0  0  0  0  0  0  0  0  0  0  0  0
   48.2594    9.6841   18.1145 C   0  0  0  0  0  0  0  0  0  0  0  0
   46.8059   10.4185   19.8938 C   0  0  0  0  0  0  0  0  0  0  0  0
   48.3917   11.0054   17.6787 C   0  0  0  0  0  0  0  0  0  0  0  0
   46.9377   11.7389   19.4595 C   0  0  0  0  0  0  0  0  0  0  0  0
   48.9442    6.1192   22.7518 C   0  0  0  0  0  0  0  0  0  0  0  0
   48.6355    5.1790   20.4181 C   0  0  0  0  0  0  0  0  0  0  0  0
   48.4423    3.8355   20.8678 O   0  0  0  0  0  0  0  0  0  0  0  0
   48.8383    4.8224   23.3478 O   0  0  0  0  0  0  0  0  0  0  0  0
   47.8567   13.4671   17.8657 C   0  0  0  0  0  0  0  0  0  0  0  0
   49.0978   14.1528   18.4408 C   0  0  0  0  0  0  0  0  0  0  0  0
   51.7208   17.5106   15.9490 C   0  0  0  0  0  0  0  0  0  0  0  0
   50.5350   18.1267   16.6906 C   0  0  0  0  0  0  0  0  0  0  0  0
   49.1849   15.6080   17.9734 C   0  0  0  0  0  0  0  0  0  0  0  0
   50.4299   16.2988   18.5326 C   0  0  0  0  0  0  0  0  0  0  0  0
   50.5080   17.7883   18.1842 C   0  0  0  0  0  0  0  0  0  0  0  0
   51.7593   17.9607   14.4960 C   0  0  0  0  0  0  0  0  0  0  0  0
   51.4219   17.0161   16.5163 S   0  0  0  0  0  0  0  0  0  0  0  0
   50.0322   16.2610   16.1527 O   0  0  0  0  0  0  0  0  0  0  0  0
   51.1002   17.6218   17.9728 O   0  0  0  0  0  0  0  0  0  0  0  0
   51.5403   18.1637   15.6451 O   0  0  0  0  0  0  0  0  0  0  0  0
   52.4803   16.0440   16.6593 O   0  0  0  0  0  0  0  0  0  0  0  0
   49.8845   14.9036   16.5409 C   0  0  0  0  0  0  0  0  0  0  0  0
   48.4337   14.5012   16.3112 C   0  0  0  0  0  0  0  0  0  0  0  0
   48.1523   13.0202   16.5676 C   0  0  0  0  0  0  0  0  0  0  0  0
   48.5065   12.4977   17.9647 C   0  0  0  0  0  0  0  0  0  0  0  0
   47.7625   13.2124   19.0929 C   0  0  0  0  0  0  0  0  0  0  0  0
   48.1388   12.7212   20.4970 C   0  0  0  0  0  0  0  0  0  0  0  0
   47.7235   11.2773   20.8018 C   0  0  0  0  0  0  0  0  0  0  0  0
   48.8744   10.2778   20.6493 C   0  0  0  0  0  0  0  0  0  0  0  0
   48.4128    8.8530   20.9704 C   0  0  0  0  0  0  0  0  0  0  0  0
   49.5635    7.8531   20.8294 C   0  0  0  0  0  0  0  0  0  0  0  0
   49.1866    6.4316   21.2543 C   0  0  0  0  0  0  0  0  0  0  0  0
   48.1321    5.7906   20.3662 C   0  0  0  0  0  0  0  0  0  0  0  0
   46.0884    5.9324   21.0150 H   0  0  0  0  0  0  0  0  0  0  0  0
   46.7079    4.7822   21.9299 H   0  0  0  0  0  0  0  0  0  0  0  0
   47.8380    8.3362   21.7336 H   0  0  0  0  0  0  0  0  0  0  0  0
   49.1951    7.9068   20.7112 H   0  0  0  0  0  0  0  0  0  0  0  0
   47.5676    7.2782   18.8611 H   0  0  0  0  0  0  0  0  0  0  0  0
   46.2345    7.7747   19.8867 H   0  0  0  0  0  0  0  0  0  0  0  0
   48.7828    8.8969   17.5775 H   0  0  0  0  0  0  0  0  0  0  0  0
   46.1804   10.2047   20.7591 H   0  0  0  0  0  0  0  0  0  0  0  0
   49.0142   11.2192   16.8134 H   0  0  0  0  0  0  0  0  0  0  0  0
   46.4161   12.5284   19.9961 H   0  0  0  0  0  0  0  0  0  0  0  0
   48.6254    6.8561   23.4956 H   0  0  0  0  0  0  0  0  0  0  0  0
   50.0013    6.2985   22.5314 H   0  0  0  0  0  0  0  0  0  0  0  0
   48.1211    5.2583   19.4569 H   0  0  0  0  0  0  0  0  0  0  0  0
   49.7054    5.3307   20.2423 H   0  0  0  0  0  0  0  0  0  0  0  0
   48.8240    3.7913   21.7710 H   0  0  0  0  0  0  0  0  0  0  0  0
   47.9344    4.8013   23.7229 H   0  0  0  0  0  0  0  0  0  0  0  0
   46.9561   14.0286   18.1430 H   0  0  0  0  0  0  0  0  0  0  0  0
   47.8900   13.4803   16.7693 H   0  0  0  0  0  0  0  0  0  0  0  0
   50.0002   13.6117   18.1272 H   0  0  0  0  0  0  0  0  0  0  0  0
   49.0704   14.1186   19.5378 H   0  0  0  0  0  0  0  0  0  0  0  0
   52.6565   17.8001   16.4404 H   0  0  0  0  0  0  0  0  0  0  0  0
   51.6600   16.4173   15.9741 H   0  0  0  0  0  0  0  0  0  0  0  0
   50.5805   19.2188   16.5928 H   0  0  0  0  0  0  0  0  0  0  0  0
   49.5958   17.8184   16.2186 H   0  0  0  0  0  0  0  0  0  0  0  0
   49.2050   15.6298   16.8775 H   0  0  0  0  0  0  0  0  0  0  0  0
   48.2874   16.1520   18.2952 H   0  0  0  0  0  0  0  0  0  0  0  0
   50.4296   16.2060   19.6253 H   0  0  0  0  0  0  0  0  0  0  0  0
   51.3319   15.7838   18.1821 H   0  0  0  0  0  0  0  0  0  0  0  0
   49.6559   18.3045   18.6416 H   0  0  0  0  0  0  0  0  0  0  0  0
   51.4051   18.2056   18.6569 H   0  0  0  0  0  0  0  0  0  0  0  0
   52.6098   17.5036   13.9812 H   0  0  0  0  0  0  0  0  0  0  0  0
   50.8457   17.6663   13.9702 H   0  0  0  0  0  0  0  0  0  0  0  0
   51.8645   19.0477   14.4231 H   0  0  0  0  0  0  0  0  0  0  0  0
   50.6304   18.4692   17.8330 H   0  0  0  0  0  0  0  0  0  0  0  0
   50.1506   14.7951   17.5975 H   0  0  0  0  0  0  0  0  0  0  0  0
   50.5532   14.2823   15.9365 H   0  0  0  0  0  0  0  0  0  0  0  0
   48.1600   14.7372   15.2745 H   0  0  0  0  0  0  0  0  0  0  0  0
   47.7790   15.1288   16.9285 H   0  0  0  0  0  0  0  0  0  0  0  0
   48.7038   12.4238   15.8289 H   0  0  0  0  0  0  0  0  0  0  0  0
   47.0877   12.8334   16.3779 H   0  0  0  0  0  0  0  0  0  0  0  0
   48.2527   11.4324   17.9827 H   0  0  0  0  0  0  0  0  0  0  0  0
   49.5881   12.5671   18.1267 H   0  0  0  0  0  0  0  0  0  0  0  0
   47.9802   14.2869   19.0540 H   0  0  0  0  0  0  0  0  0  0  0  0
   46.6797   13.1071   18.9449 H   0  0  0  0  0  0  0  0  0  0  0  0
   47.6215   13.3740   21.2109 H   0  0  0  0  0  0  0  0  0  0  0  0
   49.2115   12.8646   20.6723 H   0  0  0  0  0  0  0  0  0  0  0  0
   46.8705   10.9797   20.1806 H   0  0  0  0  0  0  0  0  0  0  0  0
   47.3791   11.2354   21.8430 H   0  0  0  0  0  0  0  0  0  0  0  0
   49.2764   10.3087   19.6311 H   0  0  0  0  0  0  0  0  0  0  0  0
   49.6926   10.5593   21.3246 H   0  0  0  0  0  0  0  0  0  0  0  0
   48.0177    8.8164   21.9932 H   0  0  0  0  0  0  0  0  0  0  0  0
   47.5952    8.5807   20.2936 H   0  0  0  0  0  0  0  0  0  0  0  0
   50.4058    8.1839   21.4500 H   0  0  0  0  0  0  0  0  0  0  0  0
   49.9212    7.8444   19.7918 H   0  0  0  0  0  0  0  0  0  0  0  0
   50.0908    5.8117   21.2265 H   0  0  0  0  0  0  0  0  0  0  0  0
   48.8351    6.4347   22.2921 H   0  0  0  0  0  0  0  0  0  0  0  0
   47.9812    4.7457   20.6574 H   0  0  0  0  0  0  0  0  0  0  0  0
   47.1680    6.3011   20.4546 H   0  0  0  0  0  0  0  0  0  0  0  0
   48.4377    5.8061   19.3157 H   0  0  0  0  0  0  0  0  0  0  0  0
  1  2  1  0
  1  3  1  0
  3  6  1  0
  4  6  1  0
  4  7  2  0
  4  8  1  0
  5  9  2  0
  7  9  1  0
  5 10  1  0
  8 10  2  0
  1 11  1  0
  1 12  1  0
 12 13  1  0
 11 14  1  0
  5 15  1  0
 15 16  1  0
 17 18  1  0
 16 19  1  0
 19 20  1  0
 18 21  1  0
 20 21  1  0
 17 22  1  0
 23 24  1  0
 23 25  1  0
 23 26  2  0
 23 27  2  0
 24 28  1  0
 28 29  1  0
 29 30  1  0
 30 31  1  0
 31 32  1  0
 32 33  1  0
 33 34  1  0
 34 35  1  0
 35 36  1  0
 36 37  1  0
 37 38  1  0
 38 39  1  0
  2 40  1  0
  2 41  1  0
  3 42  1  0
  3 43  1  0
  6 44  1  0
  6 45  1  0
  7 46  1  0
  8 47  1  0
  9 48  1  0
 10 49  1  0
 11 50  1  0
 11 51  1  0
 12 52  1  0
 12 53  1  0
 13 54  1  0
 14 55  1  0
 15 56  1  0
 15 57  1  0
 16 58  1  0
 16 59  1  0
 17 60  1  0
 17 61  1  0
 18 62  1  0
 18 63  1  0
 19 64  1  0
 19 65  1  0
 20 66  1  0
 20 67  1  0
 21 68  1  0
 21 69  1  0
 22 70  1  0
 22 71  1  0
 22 72  1  0
 25 73  1  0
 28 74  1  0
 28 75  1  0
 29 76  1  0
 29 77  1  0
 30 78  1  0
 30 79  1  0
 31 80  1  0
 31 81  1  0
 32 82  1  0
 32 83  1  0
 33 84  1  0
 33 85  1  0
 34 86  1  0
 34 87  1  0
 35 88  1  0
 35 89  1  0
 36 90  1  0
 36 91  1  0
 37 92  1  0
 37 93  1  0
 38 94  1  0
 38 95  1  0
 39 96  1  0
 39 97  1  0
 39 98  1  0
M  END
> <Uni-Dock RESULT> 
ENERGY=   -4.686  LOWER_BOUND=    8.079  UPPER_BOUND=   12.467
INTER + INTRA:          -4.686
INTER:                  -4.686
INTRA:                   0.000
UNBOUND:                 0.000

$$$$

     RDKit          3D

 98 97  0  0  0  0  0  0  0  0999 V2000
   51.7440   16.9148   16.4657 C   0  0  0  0  0  0  0  0  0  0  0  0
   50.8691   17.8165   15.6656 N   0  0  0  0  0  0  0  0  0  0  0  0
   50.9959   15.6324   16.9038 C   0  0  0  0  0  0  0  0  0  0  0  0
   49.1104   14.5444   18.1783 C   0  0  0  0  0  0  0  0  0  0  0  0
   47.8966   12.1211   18.9536 C   0  0  0  0  0  0  0  0  0  0  0  0
   49.7432   15.8514   17.7641 C   0  0  0  0  0  0  0  0  0  0  0  0
   49.2846   14.0451   19.4743 C   0  0  0  0  0  0  0  0  0  0  0  0
   48.3382   13.8110   17.2681 C   0  0  0  0  0  0  0  0  0  0  0  0
   48.6837   12.8432   19.8585 C   0  0  0  0  0  0  0  0  0  0  0  0
   47.7377   12.6100   17.6507 C   0  0  0  0  0  0  0  0  0  0  0  0
   52.9286   16.4937   15.5491 C   0  0  0  0  0  0  0  0  0  0  0  0
   52.2994   17.7112   17.6815 C   0  0  0  0  0  0  0  0  0  0  0  0
   52.8633   18.9573   17.2646 O   0  0  0  0  0  0  0  0  0  0  0  0
   53.5943   17.6460   15.0225 O   0  0  0  0  0  0  0  0  0  0  0  0
   47.2389   10.8296   19.3692 C   0  0  0  0  0  0  0  0  0  0  0  0
   48.1775    9.6306   19.2194 C   0  0  0  0  0  0  0  0  0  0  0  0
   48.1123    5.7574   22.2784 C   0  0  0  0  0  0  0  0  0  0  0  0
   47.0975    5.6240   21.1434 C   0  0  0  0  0  0  0  0  0  0  0  0
   47.4707    8.3302   19.6105 C   0  0  0  0  0  0  0  0  0  0  0  0
   48.4050    7.1265   19.4768 C   0  0  0  0  0  0  0  0  0  0  0  0
   47.7154    5.7868   19.7514 C   0  0  0  0  0  0  0  0  0  0  0  0
   47.4696    5.4849   23.6304 C   0  0  0  0  0  0  0  0  0  0  0  0
   48.2617    6.2704   21.6700 S   0  0  0  0  0  0  0  0  0  0  0  0
   47.2982    7.5727   21.5742 O   0  0  0  0  0  0  0  0  0  0  0  0
   48.2142    5.7096   20.1617 O   0  0  0  0  0  0  0  0  0  0  0  0
   47.5794    5.2757   22.4669 O   0  0  0  0  0  0  0  0  0  0  0  0
   49.6157    6.6870   21.9506 O   0  0  0  0  0  0  0  0  0  0  0  0
   47.8859    8.8186   21.2313 C   0  0  0  0  0  0  0  0  0  0  0  0
   46.7639    9.8148   20.9702 C   0  0  0  0  0  0  0  0  0  0  0  0
   47.2487   11.2419   20.7116 C   0  0  0  0  0  0  0  0  0  0  0  0
   48.2339   11.4202   19.5506 C   0  0  0  0  0  0  0  0  0  0  0  0
   47.6760   10.9726   18.1995 C   0  0  0  0  0  0  0  0  0  0  0  0
   48.6687   11.1127   17.0378 C   0  0  0  0  0  0  0  0  0  0  0  0
   49.0411   12.5576   16.6859 C   0  0  0  0  0  0  0  0  0  0  0  0
   50.3865   12.9905   17.2767 C   0  0  0  0  0  0  0  0  0  0  0  0
   50.7174   14.4359   16.8927 C   0  0  0  0  0  0  0  0  0  0  0  0
   52.0667   14.8681   17.4727 C   0  0  0  0  0  0  0  0  0  0  0  0
   52.5016   16.2643   17.0202 C   0  0  0  0  0  0  0  0  0  0  0  0
   51.5967   17.3768   17.5251 C   0  0  0  0  0  0  0  0  0  0  0  0
   50.0342   18.0414   16.2079 H   0  0  0  0  0  0  0  0  0  0  0  0
   51.3520   18.7238   15.6234 H   0  0  0  0  0  0  0  0  0  0  0  0
   50.7095   15.0649   16.0070 H   0  0  0  0  0  0  0  0  0  0  0  0
   51.6949   14.9868   17.4543 H   0  0  0  0  0  0  0  0  0  0  0  0
   49.9845   16.4280   18.6641 H   0  0  0  0  0  0  0  0  0  0  0  0
   48.9915   16.4353   17.2187 H   0  0  0  0  0  0  0  0  0  0  0  0
   49.8843   14.5900   20.1991 H   0  0  0  0  0  0  0  0  0  0  0  0
   48.1915   14.1776   16.2533 H   0  0  0  0  0  0  0  0  0  0  0  0
   48.8278   12.4778   20.8722 H   0  0  0  0  0  0  0  0  0  0  0  0
   47.1384   12.0623   16.9267 H   0  0  0  0  0  0  0  0  0  0  0  0
   52.5910   15.8868   14.7032 H   0  0  0  0  0  0  0  0  0  0  0  0
   53.6665   15.9104   16.1090 H   0  0  0  0  0  0  0  0  0  0  0  0
   51.5146   17.9550   18.4023 H   0  0  0  0  0  0  0  0  0  0  0  0
   53.0747   17.1428   18.2054 H   0  0  0  0  0  0  0  0  0  0  0  0
   53.5024   18.7438   16.5509 H   0  0  0  0  0  0  0  0  0  0  0  0
   52.9685   18.0064   14.3617 H   0  0  0  0  0  0  0  0  0  0  0  0
   46.3332   10.6735   18.7704 H   0  0  0  0  0  0  0  0  0  0  0  0
   46.8977   10.9165   20.4081 H   0  0  0  0  0  0  0  0  0  0  0  0
   49.0639    9.7713   19.8517 H   0  0  0  0  0  0  0  0  0  0  0  0
   48.5330    9.5600   18.1830 H   0  0  0  0  0  0  0  0  0  0  0  0
   48.9369    5.0524   22.1233 H   0  0  0  0  0  0  0  0  0  0  0  0
   48.5392    6.7659   22.2918 H   0  0  0  0  0  0  0  0  0  0  0  0
   46.6342    4.6304   21.1930 H   0  0  0  0  0  0  0  0  0  0  0  0
   46.2845    6.3454   21.2802 H   0  0  0  0  0  0  0  0  0  0  0  0
   47.1148    8.4149   20.6440 H   0  0  0  0  0  0  0  0  0  0  0  0
   46.5898    8.1839   18.9720 H   0  0  0  0  0  0  0  0  0  0  0  0
   48.8070    7.0978   18.4568 H   0  0  0  0  0  0  0  0  0  0  0  0
   49.2678    7.2477   20.1422 H   0  0  0  0  0  0  0  0  0  0  0  0
   46.9296    5.6326   19.0027 H   0  0  0  0  0  0  0  0  0  0  0  0
   48.4464    4.9848   19.5938 H   0  0  0  0  0  0  0  0  0  0  0  0
   48.2096    5.5924   24.4292 H   0  0  0  0  0  0  0  0  0  0  0  0
   46.6543    6.1884   23.8256 H   0  0  0  0  0  0  0  0  0  0  0  0
   47.0668    4.4682   23.6773 H   0  0  0  0  0  0  0  0  0  0  0  0
   47.4092    5.1576   20.0867 H   0  0  0  0  0  0  0  0  0  0  0  0
   48.5064    8.6957   20.3375 H   0  0  0  0  0  0  0  0  0  0  0  0
   48.5141    9.1597   22.0604 H   0  0  0  0  0  0  0  0  0  0  0  0
   46.0890    9.8238   21.8361 H   0  0  0  0  0  0  0  0  0  0  0  0
   46.1491    9.4607   20.1334 H   0  0  0  0  0  0  0  0  0  0  0  0
   47.7232   11.6237   21.6252 H   0  0  0  0  0  0  0  0  0  0  0  0
   46.3718   11.8773   20.5342 H   0  0  0  0  0  0  0  0  0  0  0  0
   48.4843   12.4854   19.5031 H   0  0  0  0  0  0  0  0  0  0  0  0
   49.1663   10.8863   19.7661 H   0  0  0  0  0  0  0  0  0  0  0  0
   47.3845    9.9164   18.2538 H   0  0  0  0  0  0  0  0  0  0  0  0
   46.7626   11.5379   17.9723 H   0  0  0  0  0  0  0  0  0  0  0  0
   48.1905   10.6682   16.1563 H   0  0  0  0  0  0  0  0  0  0  0  0
   49.5663   10.5144   17.2339 H   0  0  0  0  0  0  0  0  0  0  0  0
   48.2465   13.2484   16.9916 H   0  0  0  0  0  0  0  0  0  0  0  0
   49.1150   12.6330   15.5936 H   0  0  0  0  0  0  0  0  0  0  0  0
   50.3734   12.8984   18.3679 H   0  0  0  0  0  0  0  0  0  0  0  0
   51.1768   12.3233   16.9093 H   0  0  0  0  0  0  0  0  0  0  0  0
   50.7403   14.5298   15.7998 H   0  0  0  0  0  0  0  0  0  0  0  0
   49.9231   15.0947   17.2613 H   0  0  0  0  0  0  0  0  0  0  0  0
   52.8379   14.1520   17.1622 H   0  0  0  0  0  0  0  0  0  0  0  0
   52.0268   14.8324   18.5689 H   0  0  0  0  0  0  0  0  0  0  0  0
   53.5181   16.4459   17.3892 H   0  0  0  0  0  0  0  0  0  0  0  0
   52.5491   16.3025   15.9261 H   0  0  0  0  0  0  0  0  0  0  0  0
   52.0153   18.3523   17.2556 H   0  0  0  0  0  0  0  0  0  0  0  0
   50.5969   17.3129   17.0844 H   0  0  0  0  0  0  0  0  0  0  0  0
   51.4984   17.3426   18.6143 H   0  0  0  0  0  0  0  0  0  0  0  0
  1  2  1  0
  1  3  1  0
  3  6  1  0
  4  6  1  0
  4  7  2  0
  4  8  1  0
  5  9  2  0
  7  9  1  0
  5 10  1  0
  8 10  2  0
  1 11  1  0
  1 12  1  0
 12 13  1  0
 11 14  1  0
  5 15  1  0
 15 16  1  0
 17 18  1  0
 16 19  1  0
 19 20  1  0
 18 21  1  0
 20 21  1  0
 17 22  1  0
 23 24  1  0
 23 25  1  0
 23 26  2  0
 23 27  2  0
 24 28  1  0
 28 29  1  0
 29 30  1  0
 30 31  1  0
 31 32  1  0
 32 33  1  0
 33 34  1  0
 34 35  1  0
 35 36  1  0
 36 37  1  0
 37 38  1  0
 38 39  1  0
  2 40  1  0
  2 41  1  0
  3 42  1  0
  3 43  1  0
  6 44  1  0
  6 45  1  0
  7 46  1  0
  8 47  1  0
  9 48  1  0
 10 49  1  0
 11 50  1  0
 11 51  1  0
 12 52  1  0
 12 53  1  0
 13 54  1  0
 14 55  1  0
 15 56  1  0
 15 57  1  0
 16 58  1  0
 16 59  1  0
 17 60  1  0
 17 61  1  0
 18 62  1  0
 18 63  1  0
 19 64  1  0
 19 65  1  0
 20 66  1  0
 20 67  1  0
 21 68  1  0
 21 69  1  0
 22 70  1  0
 22 71  1  0
 22 72  1  0
 25 73  1  0
 28 74  1  0
 28 75  1  0
 29 76  1  0
 29 77  1  0
 30 78  1  0
 30 79  1  0
 31 80  1  0
 31 81  1  0
 32 82  1  0
 32 83  1  0
 33 84  1  0
 33 85  1  0
 34 86  1  0
 34 87  1  0
 35 88  1  0
 35 89  1  0
 36 90  1  0
 36 91  1  0
 37 92  1  0
 37 93  1  0
 38 94  1  0
 38 95  1  0
 39 96  1  0
 39 97  1  0
 39 98  1  0
M  END
> <Uni-Dock RESULT> 
ENERGY=   -4.635  LOWER_BOUND=    7.474  UPPER_BOUND=    8.729
INTER + INTRA:          -4.635
INTER:                  -4.635
INTRA:                   0.000
UNBOUND:                 0.000

$$$$

     RDKit          3D

 98 97  0  0  0  0  0  0  0  0999 V2000
   45.2870    6.9748   11.7741 C   0  0  0  0  0  0  0  0  0  0  0  0
   45.3506    6.0661   10.5956 N   0  0  0  0  0  0  0  0  0  0  0  0
   46.6780    7.5569   12.1237 C   0  0  0  0  0  0  0  0  0  0  0  0
   49.0712    7.1915   12.8327 C   0  0  0  0  0  0  0  0  0  0  0  0
   51.5253    8.4006   13.5124 C   0  0  0  0  0  0  0  0  0  0  0  0
   47.7662    6.5280   12.4623 C   0  0  0  0  0  0  0  0  0  0  0  0
   49.4693    7.2878   14.1711 C   0  0  0  0  0  0  0  0  0  0  0  0
   49.9037    7.7220   11.8386 C   0  0  0  0  0  0  0  0  0  0  0  0
   50.6855    7.8881   14.5083 C   0  0  0  0  0  0  0  0  0  0  0  0
   51.1188    8.3222   12.1744 C   0  0  0  0  0  0  0  0  0  0  0  0
   44.3509    8.1571   11.3913 C   0  0  0  0  0  0  0  0  0  0  0  0
   44.6623    6.1971   12.9683 C   0  0  0  0  0  0  0  0  0  0  0  0
   43.4457    5.5531   12.5814 O   0  0  0  0  0  0  0  0  0  0  0  0
   43.0782    7.6719   10.9516 O   0  0  0  0  0  0  0  0  0  0  0  0
   52.8426    9.0391   13.8733 C   0  0  0  0  0  0  0  0  0  0  0  0
   52.6860   10.5169   14.2379 C   0  0  0  0  0  0  0  0  0  0  0  0
   55.4590   12.7599   17.6501 C   0  0  0  0  0  0  0  0  0  0  0  0
   56.1211   12.7486   16.2727 C   0  0  0  0  0  0  0  0  0  0  0  0
   54.0431   11.1476   14.5608 C   0  0  0  0  0  0  0  0  0  0  0  0
   53.8958   12.6222   14.9396 C   0  0  0  0  0  0  0  0  0  0  0  0
   55.2354   13.3294   15.1661 C   0  0  0  0  0  0  0  0  0  0  0  0
   56.4154   12.2710   18.7279 C   0  0  0  0  0  0  0  0  0  0  0  0
   54.9338   12.5909   17.0574 S   0  0  0  0  0  0  0  0  0  0  0  0
   55.0036   11.0914   16.4405 O   0  0  0  0  0  0  0  0  0  0  0  0
   54.9552   13.4989   15.7283 O   0  0  0  0  0  0  0  0  0  0  0  0
   56.1925   12.8542   17.7180 O   0  0  0  0  0  0  0  0  0  0  0  0
   53.6626   12.7876   17.7139 O   0  0  0  0  0  0  0  0  0  0  0  0
   53.7833   10.4358   16.1304 C   0  0  0  0  0  0  0  0  0  0  0  0
   54.1120    9.1678   15.3534 C   0  0  0  0  0  0  0  0  0  0  0  0
   52.8965    8.2880   15.0586 C   0  0  0  0  0  0  0  0  0  0  0  0
   51.7508    8.9553   14.2889 C   0  0  0  0  0  0  0  0  0  0  0  0
   52.1621    9.4839   12.9146 C   0  0  0  0  0  0  0  0  0  0  0  0
   51.0306   10.1866   12.1527 C   0  0  0  0  0  0  0  0  0  0  0  0
   49.8779    9.2685   11.7305 C   0  0  0  0  0  0  0  0  0  0  0  0
   48.6703    9.3522   12.6693 C   0  0  0  0  0  0  0  0  0  0  0  0
   47.5445    8.4242   12.2029 C   0  0  0  0  0  0  0  0  0  0  0  0
   46.3319    8.5137   13.1331 C   0  0  0  0  0  0  0  0  0  0  0  0
   45.1329    7.6960   12.6462 C   0  0  0  0  0  0  0  0  0  0  0  0
   45.3831    6.1964   12.6358 C   0  0  0  0  0  0  0  0  0  0  0  0
   46.0270    5.3244   10.7803 H   0  0  0  0  0  0  0  0  0  0  0  0
   44.4609    5.5502   10.5809 H   0  0  0  0  0  0  0  0  0  0  0  0
   47.0273    8.1711   11.2818 H   0  0  0  0  0  0  0  0  0  0  0  0
   46.5683    8.2481   12.9714 H   0  0  0  0  0  0  0  0  0  0  0  0
   47.4496    5.8842   13.2906 H   0  0  0  0  0  0  0  0  0  0  0  0
   47.9531    5.8620   11.6108 H   0  0  0  0  0  0  0  0  0  0  0  0
   48.8397    6.8908   14.9636 H   0  0  0  0  0  0  0  0  0  0  0  0
   49.6134    7.6620   10.7909 H   0  0  0  0  0  0  0  0  0  0  0  0
   50.9770    7.9461   15.5541 H   0  0  0  0  0  0  0  0  0  0  0  0
   51.7498    8.7214   11.3833 H   0  0  0  0  0  0  0  0  0  0  0  0
   44.7739    8.7646   10.5851 H   0  0  0  0  0  0  0  0  0  0  0  0
   44.1780    8.8117   12.2514 H   0  0  0  0  0  0  0  0  0  0  0  0
   45.3253    5.4081   13.3327 H   0  0  0  0  0  0  0  0  0  0  0  0
   44.4433    6.8679   13.8055 H   0  0  0  0  0  0  0  0  0  0  0  0
   42.8872    6.2471   12.1694 H   0  0  0  0  0  0  0  0  0  0  0  0
   43.2576    7.2855   10.0703 H   0  0  0  0  0  0  0  0  0  0  0  0
   53.5407    8.9323   13.0339 H   0  0  0  0  0  0  0  0  0  0  0  0
   53.2939    8.4884   14.7078 H   0  0  0  0  0  0  0  0  0  0  0  0
   52.0190   10.6171   15.1043 H   0  0  0  0  0  0  0  0  0  0  0  0
   52.2148   11.0598   13.4082 H   0  0  0  0  0  0  0  0  0  0  0  0
   55.1298   13.7761   17.8950 H   0  0  0  0  0  0  0  0  0  0  0  0
   54.5724   12.1168   17.6524 H   0  0  0  0  0  0  0  0  0  0  0  0
   57.0427   13.3430   16.3141 H   0  0  0  0  0  0  0  0  0  0  0  0
   56.4282   11.7299   16.0121 H   0  0  0  0  0  0  0  0  0  0  0  0
   54.5064   10.5936   15.3856 H   0  0  0  0  0  0  0  0  0  0  0  0
   54.7071   11.0564   13.6915 H   0  0  0  0  0  0  0  0  0  0  0  0
   53.3676   13.1469   14.1344 H   0  0  0  0  0  0  0  0  0  0  0  0
   53.2657   12.7175   15.8316 H   0  0  0  0  0  0  0  0  0  0  0  0
   55.8027   13.3229   14.2282 H   0  0  0  0  0  0  0  0  0  0  0  0
   55.0341   14.3834   15.3919 H   0  0  0  0  0  0  0  0  0  0  0  0
   55.9209   12.2796   19.7040 H   0  0  0  0  0  0  0  0  0  0  0  0
   56.7462   11.2480   18.5236 H   0  0  0  0  0  0  0  0  0  0  0  0
   57.2992   12.9136   18.7910 H   0  0  0  0  0  0  0  0  0  0  0  0
   55.8934   13.6062   15.4701 H   0  0  0  0  0  0  0  0  0  0  0  0
   53.1536   11.1014   15.5310 H   0  0  0  0  0  0  0  0  0  0  0  0
   53.2617   10.1891   17.0607 H   0  0  0  0  0  0  0  0  0  0  0  0
   54.8415    8.5801   15.9259 H   0  0  0  0  0  0  0  0  0  0  0  0
   54.6281    9.4339   14.4226 H   0  0  0  0  0  0  0  0  0  0  0  0
   52.4964    7.9101   16.0087 H   0  0  0  0  0  0  0  0  0  0  0  0
   53.2357    7.4076   14.4980 H   0  0  0  0  0  0  0  0  0  0  0  0
   50.9653    8.2020   14.1659 H   0  0  0  0  0  0  0  0  0  0  0  0
   51.3199    9.7654   14.8880 H   0  0  0  0  0  0  0  0  0  0  0  0
   52.9778   10.2085   13.0285 H   0  0  0  0  0  0  0  0  0  0  0  0
   52.5582    8.6601   12.3064 H   0  0  0  0  0  0  0  0  0  0  0  0
   51.4741   10.6049   11.2408 H   0  0  0  0  0  0  0  0  0  0  0  0
   50.6586   11.0399   12.7319 H   0  0  0  0  0  0  0  0  0  0  0  0
   50.2218    8.2316   11.6376 H   0  0  0  0  0  0  0  0  0  0  0  0
   49.5469    9.5767   10.7305 H   0  0  0  0  0  0  0  0  0  0  0  0
   48.9603    9.0864   13.6914 H   0  0  0  0  0  0  0  0  0  0  0  0
   48.3042   10.3865   12.6997 H   0  0  0  0  0  0  0  0  0  0  0  0
   47.2452    8.6936   11.1824 H   0  0  0  0  0  0  0  0  0  0  0  0
   47.9186    7.3947   12.1735 H   0  0  0  0  0  0  0  0  0  0  0  0
   46.0196    9.5622   13.2175 H   0  0  0  0  0  0  0  0  0  0  0  0
   46.6146    8.1872   14.1422 H   0  0  0  0  0  0  0  0  0  0  0  0
   44.2821    7.9039   13.3062 H   0  0  0  0  0  0  0  0  0  0  0  0
   44.8431    8.0234   11.6414 H   0  0  0  0  0  0  0  0  0  0  0  0
   44.4614    5.6641   12.3779 H   0  0  0  0  0  0  0  0  0  0  0  0
   46.1420    5.9207   11.8970 H   0  0  0  0  0  0  0  0  0  0  0  0
   45.7113    5.8437   13.6182 H   0  0  0  0  0  0  0  0  0  0  0  0
  1  2  1  0
  1  3  1  0
  3  6  1  0
  4  6  1  0
  4  7  2  0
  4  8  1  0
  5  9  2  0
  7  9  1  0
  5 10  1  0
  8 10  2  0
  1 11  1  0
  1 12  1  0
 12 13  1  0
 11 14  1  0
  5 15  1  0
 15 16  1  0
 17 18  1  0
 16 19  1  0
 19 20  1  0
 18 21  1  0
 20 21  1  0
 17 22  1  0
 23 24  1  0
 23 25  1  0
 23 26  2  0
 23 27  2  0
 24 28  1  0
 28 29  1  0
 29 30  1  0
 30 31  1  0
 31 32  1  0
 32 33  1  0
 33 34  1  0
 34 35  1  0
 35 36  1  0
 36 37  1  0
 37 38  1  0
 38 39  1  0
  2 40  1  0
  2 41  1  0
  3 42  1  0
  3 43  1  0
  6 44  1  0
  6 45  1  0
  7 46  1  0
  8 47  1  0
  9 48  1  0
 10 49  1  0
 11 50  1  0
 11 51  1  0
 12 52  1  0
 12 53  1  0
 13 54  1  0
 14 55  1  0
 15 56  1  0
 15 57  1  0
 16 58  1  0
 16 59  1  0
 17 60  1  0
 17 61  1  0
 18 62  1  0
 18 63  1  0
 19 64  1  0
 19 65  1  0
 20 66  1  0
 20 67  1  0
 21 68  1  0
 21 69  1  0
 22 70  1  0
 22 71  1  0
 22 72  1  0
 25 73  1  0
 28 74  1  0
 28 75  1  0
 29 76  1  0
 29 77  1  0
 30 78  1  0
 30 79  1  0
 31 80  1  0
 31 81  1  0
 32 82  1  0
 32 83  1  0
 33 84  1  0
 33 85  1  0
 34 86  1  0
 34 87  1  0
 35 88  1  0
 35 89  1  0
 36 90  1  0
 36 91  1  0
 37 92  1  0
 37 93  1  0
 38 94  1  0
 38 95  1  0
 39 96  1  0
 39 97  1  0
 39 98  1  0
M  END
> <Uni-Dock RESULT> 
ENERGY=   -4.631  LOWER_BOUND=    5.018  UPPER_BOUND=   10.175
INTER + INTRA:          -4.631
INTER:                  -4.631
INTRA:                   0.000
UNBOUND:                 0.000

$$$$

     RDKit          3D

 98 97  0  0  0  0  0  0  0  0999 V2000
   47.9362    5.6568   18.9662 C   0  0  0  0  0  0  0  0  0  0  0  0
   46.4997    5.3078   18.7841 N   0  0  0  0  0  0  0  0  0  0  0  0
   48.1124    7.1070   19.4780 C   0  0  0  0  0  0  0  0  0  0  0  0
   47.7981    9.5862   19.1344 C   0  0  0  0  0  0  0  0  0  0  0  0
   48.2535   12.1714   20.1618 C   0  0  0  0  0  0  0  0  0  0  0  0
   47.5382    8.2079   18.5749 C   0  0  0  0  0  0  0  0  0  0  0  0
   48.8106   10.3938   18.6033 C   0  0  0  0  0  0  0  0  0  0  0  0
   47.0274   10.0769   20.1964 C   0  0  0  0  0  0  0  0  0  0  0  0
   49.0371   11.6751   19.1133 C   0  0  0  0  0  0  0  0  0  0  0  0
   47.2530   11.3567   20.7068 C   0  0  0  0  0  0  0  0  0  0  0  0
   48.5094    4.6914   20.0434 C   0  0  0  0  0  0  0  0  0  0  0  0
   48.6803    5.4177   17.6208 C   0  0  0  0  0  0  0  0  0  0  0  0
   48.3913    4.1185   17.0981 O   0  0  0  0  0  0  0  0  0  0  0  0
   48.2761    3.3281   19.6754 O   0  0  0  0  0  0  0  0  0  0  0  0
   48.4893   13.5575   20.7064 C   0  0  0  0  0  0  0  0  0  0  0  0
   49.5900   13.5796   21.7690 C   0  0  0  0  0  0  0  0  0  0  0  0
   52.6876   17.3765   22.3628 C   0  0  0  0  0  0  0  0  0  0  0  0
   51.3785   17.5637   23.1291 C   0  0  0  0  0  0  0  0  0  0  0  0
   49.7796   14.9909   22.3311 C   0  0  0  0  0  0  0  0  0  0  0  0
   50.8874   15.0263   23.3853 C   0  0  0  0  0  0  0  0  0  0  0  0
   51.0438   16.3931   24.0586 C   0  0  0  0  0  0  0  0  0  0  0  0
   53.0258   18.6082   21.5359 C   0  0  0  0  0  0  0  0  0  0  0  0
   52.2759   16.6838   22.4427 S   0  0  0  0  0  0  0  0  0  0  0  0
   50.9859   16.4983   21.4756 O   0  0  0  0  0  0  0  0  0  0  0  0
   51.6659   16.3133   23.8857 O   0  0  0  0  0  0  0  0  0  0  0  0
   52.5770   18.0963   22.5087 O   0  0  0  0  0  0  0  0  0  0  0  0
   53.2769   15.6966   22.1126 O   0  0  0  0  0  0  0  0  0  0  0  0
   50.7539   15.2197   20.9042 C   0  0  0  0  0  0  0  0  0  0  0  0
   49.3787   15.2366   20.2499 C   0  0  0  0  0  0  0  0  0  0  0  0
   49.0422   13.9592   19.4796 C   0  0  0  0  0  0  0  0  0  0  0  0
   49.0994   12.6531   20.2802 C   0  0  0  0  0  0  0  0  0  0  0  0
   48.1440   12.6235   21.4733 C   0  0  0  0  0  0  0  0  0  0  0  0
   48.2216   11.3346   22.3023 C   0  0  0  0  0  0  0  0  0  0  0  0
   47.7443   10.0745   21.5712 C   0  0  0  0  0  0  0  0  0  0  0  0
   48.8962    9.2335   21.0121 C   0  0  0  0  0  0  0  0  0  0  0  0
   48.3704    7.9846   20.2981 C   0  0  0  0  0  0  0  0  0  0  0  0
   49.5198    7.1363   19.7476 C   0  0  0  0  0  0  0  0  0  0  0  0
   49.0556    5.8155   19.1284 C   0  0  0  0  0  0  0  0  0  0  0  0
   48.2019    5.9942   17.8831 C   0  0  0  0  0  0  0  0  0  0  0  0
   46.0693    5.9801   18.1481 H   0  0  0  0  0  0  0  0  0  0  0  0
   46.4815    4.4416   18.2297 H   0  0  0  0  0  0  0  0  0  0  0  0
   47.6483    7.1916   20.4708 H   0  0  0  0  0  0  0  0  0  0  0  0
   49.1837    7.2989   19.6326 H   0  0  0  0  0  0  0  0  0  0  0  0
   47.9665    8.1488   17.5680 H   0  0  0  0  0  0  0  0  0  0  0  0
   46.4543    8.0888   18.4541 H   0  0  0  0  0  0  0  0  0  0  0  0
   49.4284   10.0358   17.7834 H   0  0  0  0  0  0  0  0  0  0  0  0
   46.2366    9.4655   20.6282 H   0  0  0  0  0  0  0  0  0  0  0  0
   49.8249   12.2870   18.6810 H   0  0  0  0  0  0  0  0  0  0  0  0
   46.6371   11.7165   21.5281 H   0  0  0  0  0  0  0  0  0  0  0  0
   48.0492    4.8570   21.0224 H   0  0  0  0  0  0  0  0  0  0  0  0
   49.5903    4.8261   20.1519 H   0  0  0  0  0  0  0  0  0  0  0  0
   48.3744    6.1329   16.8529 H   0  0  0  0  0  0  0  0  0  0  0  0
   49.7645    5.5020   17.7484 H   0  0  0  0  0  0  0  0  0  0  0  0
   48.5795    3.4836   17.8226 H   0  0  0  0  0  0  0  0  0  0  0  0
   47.3144    3.2027   19.8080 H   0  0  0  0  0  0  0  0  0  0  0  0
   47.5543   13.9469   21.1274 H   0  0  0  0  0  0  0  0  0  0  0  0
   48.7468   14.2310   19.8797 H   0  0  0  0  0  0  0  0  0  0  0  0
   50.5344   13.2280   21.3331 H   0  0  0  0  0  0  0  0  0  0  0  0
   49.3382   12.8885   22.5840 H   0  0  0  0  0  0  0  0  0  0  0  0
   53.5043   17.1801   23.0666 H   0  0  0  0  0  0  0  0  0  0  0  0
   52.6166   16.5141   21.6915 H   0  0  0  0  0  0  0  0  0  0  0  0
   51.4494   18.4714   23.7417 H   0  0  0  0  0  0  0  0  0  0  0  0
   50.5542   17.7340   22.4279 H   0  0  0  0  0  0  0  0  0  0  0  0
   50.0240   15.6726   21.5080 H   0  0  0  0  0  0  0  0  0  0  0  0
   48.8383   15.3391   22.7759 H   0  0  0  0  0  0  0  0  0  0  0  0
   50.6626   14.2883   24.1648 H   0  0  0  0  0  0  0  0  0  0  0  0
   51.8391   14.7176   22.9373 H   0  0  0  0  0  0  0  0  0  0  0  0
   50.1191   16.6309   24.5970 H   0  0  0  0  0  0  0  0  0  0  0  0
   51.8274   16.3131   24.8215 H   0  0  0  0  0  0  0  0  0  0  0  0
   53.9611   18.4517   20.9901 H   0  0  0  0  0  0  0  0  0  0  0  0
   52.2377   18.8188   20.8063 H   0  0  0  0  0  0  0  0  0  0  0  0
   53.1500   19.4889   22.1738 H   0  0  0  0  0  0  0  0  0  0  0  0
   51.2396   17.1234   24.2328 H   0  0  0  0  0  0  0  0  0  0  0  0
   50.7971   14.4564   21.6881 H   0  0  0  0  0  0  0  0  0  0  0  0
   51.5287   15.0134   20.1589 H   0  0  0  0  0  0  0  0  0  0  0  0
   49.3248   16.0886   19.5596 H   0  0  0  0  0  0  0  0  0  0  0  0
   48.6150   15.4381   21.0114 H   0  0  0  0  0  0  0  0  0  0  0  0
   49.7299   13.8696   18.6284 H   0  0  0  0  0  0  0  0  0  0  0  0
   48.0380   14.0693   19.0508 H   0  0  0  0  0  0  0  0  0  0  0  0
   48.8412   11.8424   19.5905 H   0  0  0  0  0  0  0  0  0  0  0  0
   50.1252   12.4658   20.6173 H   0  0  0  0  0  0  0  0  0  0  0  0
   48.3713   13.4588   22.1471 H   0  0  0  0  0  0  0  0  0  0  0  0
   47.1139   12.7744   21.1245 H   0  0  0  0  0  0  0  0  0  0  0  0
   47.5727   11.4789   23.1750 H   0  0  0  0  0  0  0  0  0  0  0  0
   49.2364   11.1983   22.6943 H   0  0  0  0  0  0  0  0  0  0  0  0
   47.0351   10.3327   20.7759 H   0  0  0  0  0  0  0  0  0  0  0  0
   47.1935    9.4534   22.2889 H   0  0  0  0  0  0  0  0  0  0  0  0
   49.4986    9.8245   20.3142 H   0  0  0  0  0  0  0  0  0  0  0  0
   49.5602    8.9344   21.8333 H   0  0  0  0  0  0  0  0  0  0  0  0
   47.7737    7.3854   20.9971 H   0  0  0  0  0  0  0  0  0  0  0  0
   47.7074    8.2918   19.4815 H   0  0  0  0  0  0  0  0  0  0  0  0
   50.2188    6.9058   20.5613 H   0  0  0  0  0  0  0  0  0  0  0  0
   50.0826    7.7139   19.0031 H   0  0  0  0  0  0  0  0  0  0  0  0
   49.9426    5.2280   18.8627 H   0  0  0  0  0  0  0  0  0  0  0  0
   48.4987    5.2324   19.8705 H   0  0  0  0  0  0  0  0  0  0  0  0
   47.9884    5.0195   17.4316 H   0  0  0  0  0  0  0  0  0  0  0  0
   47.2431    6.4671   18.1176 H   0  0  0  0  0  0  0  0  0  0  0  0
   48.7164    6.6055   17.1357 H   0  0  0  0  0  0  0  0  0  0  0  0
  1  2  1  0
  1  3  1  0
  3  6  1  0
  4  6  1  0
  4  7  2  0
  4  8  1  0
  5  9  2  0
  7  9  1  0
  5 10  1  0
  8 10  2  0
  1 11  1  0
  1 12  1  0
 12 13  1  0
 11 14  1  0
  5 15  1  0
 15 16  1  0
 17 18  1  0
 16 19  1  0
 19 20  1  0
 18 21  1  0
 20 21  1  0
 17 22  1  0
 23 24  1  0
 23 25  1  0
 23 26  2  0
 23 27  2  0
 24 28  1  0
 28 29  1  0
 29 30  1  0
 30 31  1  0
 31 32  1  0
 32 33  1  0
 33 34  1  0
 34 35  1  0
 35 36  1  0
 36 37  1  0
 37 38  1  0
 38 39  1  0
  2 40  1  0
  2 41  1  0
  3 42  1  0
  3 43  1  0
  6 44  1  0
  6 45  1  0
  7 46  1  0
  8 47  1  0
  9 48  1  0
 10 49  1  0
 11 50  1  0
 11 51  1  0
 12 52  1  0
 12 53  1  0
 13 54  1  0
 14 55  1  0
 15 56  1  0
 15 57  1  0
 16 58  1  0
 16 59  1  0
 17 60  1  0
 17 61  1  0
 18 62  1  0
 18 63  1  0
 19 64  1  0
 19 65  1  0
 20 66  1  0
 20 67  1  0
 21 68  1  0
 21 69  1  0
 22 70  1  0
 22 71  1  0
 22 72  1  0
 25 73  1  0
 28 74  1  0
 28 75  1  0
 29 76  1  0
 29 77  1  0
 30 78  1  0
 30 79  1  0
 31 80  1  0
 31 81  1  0
 32 82  1  0
 32 83  1  0
 33 84  1  0
 33 85  1  0
 34 86  1  0
 34 87  1  0
 35 88  1  0
 35 89  1  0
 36 90  1  0
 36 91  1  0
 37 92  1  0
 37 93  1  0
 38 94  1  0
 38 95  1  0
 39 96  1  0
 39 97  1  0
 39 98  1  0
M  END
> <Uni-Dock RESULT> 
ENERGY=   -4.581  LOWER_BOUND=    9.588  UPPER_BOUND=   13.524
INTER + INTRA:          -4.581
INTER:                  -4.581
INTRA:                   0.000
UNBOUND:                 0.000

$$$$

     RDKit          3D

 98 97  0  0  0  0  0  0  0  0999 V2000
   44.5721    6.1230   11.7654 C   0  0  0  0  0  0  0  0  0  0  0  0
   43.6636    7.2266   11.3466 N   0  0  0  0  0  0  0  0  0  0  0  0
   45.8636    6.6642   12.4251 C   0  0  0  0  0  0  0  0  0  0  0  0
   47.9803    8.0267   12.2627 C   0  0  0  0  0  0  0  0  0  0  0  0
   50.3276    8.8761   13.5724 C   0  0  0  0  0  0  0  0  0  0  0  0
   46.7232    7.5881   11.5504 C   0  0  0  0  0  0  0  0  0  0  0  0
   49.2152    7.4420   11.9584 C   0  0  0  0  0  0  0  0  0  0  0  0
   47.9278    9.0277   13.2414 C   0  0  0  0  0  0  0  0  0  0  0  0
   50.3788    7.8624   12.6084 C   0  0  0  0  0  0  0  0  0  0  0  0
   49.0896    9.4482   13.8916 C   0  0  0  0  0  0  0  0  0  0  0  0
   43.8074    5.2766   12.8235 C   0  0  0  0  0  0  0  0  0  0  0  0
   44.8777    5.2332   10.5261 C   0  0  0  0  0  0  0  0  0  0  0  0
   43.6729    4.8593    9.8529 O   0  0  0  0  0  0  0  0  0  0  0  0
   42.5474    4.8382   12.3052 O   0  0  0  0  0  0  0  0  0  0  0  0
   51.5833    9.3384   14.2672 C   0  0  0  0  0  0  0  0  0  0  0  0
   51.9278    8.4655   15.4758 C   0  0  0  0  0  0  0  0  0  0  0  0
   56.5636    7.4722   16.8496 C   0  0  0  0  0  0  0  0  0  0  0  0
   56.0499    8.7887   17.4317 C   0  0  0  0  0  0  0  0  0  0  0  0
   53.1834    8.9819   16.1835 C   0  0  0  0  0  0  0  0  0  0  0  0
   53.5440    8.1079   17.3859 C   0  0  0  0  0  0  0  0  0  0  0  0
   54.7295    8.6436   18.1944 C   0  0  0  0  0  0  0  0  0  0  0  0
   57.9249    7.6507   16.1940 C   0  0  0  0  0  0  0  0  0  0  0  0
   55.7573    7.5340   16.8067 S   0  0  0  0  0  0  0  0  0  0  0  0
   55.1714    8.5102   15.6501 O   0  0  0  0  0  0  0  0  0  0  0  0
   54.9541    8.0394   18.1071 O   0  0  0  0  0  0  0  0  0  0  0  0
   57.1341    7.9070   17.0417 O   0  0  0  0  0  0  0  0  0  0  0  0
   55.3628    6.1710   16.5382 O   0  0  0  0  0  0  0  0  0  0  0  0
   54.0167    8.0904   14.9391 C   0  0  0  0  0  0  0  0  0  0  0  0
   53.5285    9.2614   14.0966 C   0  0  0  0  0  0  0  0  0  0  0  0
   52.3582    8.9173   13.1744 C   0  0  0  0  0  0  0  0  0  0  0  0
   51.1063    8.3514   13.8548 C   0  0  0  0  0  0  0  0  0  0  0  0
   50.4920    9.2946   14.8894 C   0  0  0  0  0  0  0  0  0  0  0  0
   49.2602    8.7209   15.6022 C   0  0  0  0  0  0  0  0  0  0  0  0
   48.0385    8.5131   14.6998 C   0  0  0  0  0  0  0  0  0  0  0  0
   47.8727    7.0611   14.2406 C   0  0  0  0  0  0  0  0  0  0  0  0
   46.6372    6.9029   13.3491 C   0  0  0  0  0  0  0  0  0  0  0  0
   46.4626    5.4507   12.8972 C   0  0  0  0  0  0  0  0  0  0  0  0
   45.1763    5.2140   12.1017 C   0  0  0  0  0  0  0  0  0  0  0  0
   45.1442    5.9411   10.7668 C   0  0  0  0  0  0  0  0  0  0  0  0
   44.1661    7.8540   10.7176 H   0  0  0  0  0  0  0  0  0  0  0  0
   42.9660    6.8037   10.7201 H   0  0  0  0  0  0  0  0  0  0  0  0
   45.5935    7.2040   13.3436 H   0  0  0  0  0  0  0  0  0  0  0  0
   46.4776    5.8121   12.7498 H   0  0  0  0  0  0  0  0  0  0  0  0
   47.0025    7.0903   10.6150 H   0  0  0  0  0  0  0  0  0  0  0  0
   46.1636    8.4870   11.2636 H   0  0  0  0  0  0  0  0  0  0  0  0
   49.2842    6.6583   11.2080 H   0  0  0  0  0  0  0  0  0  0  0  0
   46.9781    9.4947   13.4976 H   0  0  0  0  0  0  0  0  0  0  0  0
   51.3277    7.3982   12.3514 H   0  0  0  0  0  0  0  0  0  0  0  0
   49.0228   10.2312   14.6438 H   0  0  0  0  0  0  0  0  0  0  0  0
   43.6129    5.8481   13.7364 H   0  0  0  0  0  0  0  0  0  0  0  0
   44.3813    4.3862   13.0992 H   0  0  0  0  0  0  0  0  0  0  0  0
   45.4915    5.7575    9.7891 H   0  0  0  0  0  0  0  0  0  0  0  0
   45.4055    4.3190   10.8165 H   0  0  0  0  0  0  0  0  0  0  0  0
   43.0855    4.4718   10.5372 H   0  0  0  0  0  0  0  0  0  0  0  0
   41.9986    5.6485   12.2852 H   0  0  0  0  0  0  0  0  0  0  0  0
   51.4620   10.3823   14.5815 H   0  0  0  0  0  0  0  0  0  0  0  0
   52.4135    9.3379   13.5502 H   0  0  0  0  0  0  0  0  0  0  0  0
   52.0890    7.4290   15.1517 H   0  0  0  0  0  0  0  0  0  0  0  0
   51.0862    8.4521   16.1806 H   0  0  0  0  0  0  0  0  0  0  0  0
   56.6423    6.7212   17.6439 H   0  0  0  0  0  0  0  0  0  0  0  0
   55.8632    7.0873   16.1006 H   0  0  0  0  0  0  0  0  0  0  0  0
   56.7989    9.1886   18.1269 H   0  0  0  0  0  0  0  0  0  0  0  0
   55.9444    9.5348   16.6366 H   0  0  0  0  0  0  0  0  0  0  0  0
   54.0146    8.9969   15.4688 H   0  0  0  0  0  0  0  0  0  0  0  0
   53.0193   10.0149   16.5165 H   0  0  0  0  0  0  0  0  0  0  0  0
   52.6775    8.0462   18.0555 H   0  0  0  0  0  0  0  0  0  0  0  0
   53.7482    7.0830   17.0549 H   0  0  0  0  0  0  0  0  0  0  0  0
   54.4609    9.6209   18.6122 H   0  0  0  0  0  0  0  0  0  0  0  0
   54.8887    7.9799   19.0526 H   0  0  0  0  0  0  0  0  0  0  0  0
   58.2715    6.7000   15.7777 H   0  0  0  0  0  0  0  0  0  0  0  0
   57.8751    8.3802   15.3797 H   0  0  0  0  0  0  0  0  0  0  0  0
   58.6695    7.9935   16.9194 H   0  0  0  0  0  0  0  0  0  0  0  0
   55.4385    8.8135   18.4598 H   0  0  0  0  0  0  0  0  0  0  0  0
   53.2437    7.7794   15.6495 H   0  0  0  0  0  0  0  0  0  0  0  0
   54.2781    7.2420   14.2985 H   0  0  0  0  0  0  0  0  0  0  0  0
   54.3622    9.6301   13.4847 H   0  0  0  0  0  0  0  0  0  0  0  0
   53.2654   10.0993   14.7542 H   0  0  0  0  0  0  0  0  0  0  0  0
   52.7007    8.1892   12.4273 H   0  0  0  0  0  0  0  0  0  0  0  0
   52.0815    9.8207   12.6162 H   0  0  0  0  0  0  0  0  0  0  0  0
   50.3732    8.1546   13.0652 H   0  0  0  0  0  0  0  0  0  0  0  0
   51.3371    7.3858   14.3188 H   0  0  0  0  0  0  0  0  0  0  0  0
   51.2359    9.5285   15.6610 H   0  0  0  0  0  0  0  0  0  0  0  0
   50.2288   10.2465   14.4098 H   0  0  0  0  0  0  0  0  0  0  0  0
   48.9802    9.4409   16.3809 H   0  0  0  0  0  0  0  0  0  0  0  0
   49.5236    7.7929   16.1233 H   0  0  0  0  0  0  0  0  0  0  0  0
   48.0747    9.1879   13.8365 H   0  0  0  0  0  0  0  0  0  0  0  0
   47.1431    8.7881   15.2716 H   0  0  0  0  0  0  0  0  0  0  0  0
   48.7608    6.7285   13.6930 H   0  0  0  0  0  0  0  0  0  0  0  0
   47.7767    6.4104   15.1193 H   0  0  0  0  0  0  0  0  0  0  0  0
   45.7441    7.2268   13.8978 H   0  0  0  0  0  0  0  0  0  0  0  0
   46.7401    7.5569   12.4758 H   0  0  0  0  0  0  0  0  0  0  0  0
   46.4439    4.7989   13.7798 H   0  0  0  0  0  0  0  0  0  0  0  0
   47.3284    5.1431   12.2969 H   0  0  0  0  0  0  0  0  0  0  0  0
   45.0783    4.1377   11.9158 H   0  0  0  0  0  0  0  0  0  0  0  0
   44.3086    5.5137   12.7001 H   0  0  0  0  0  0  0  0  0  0  0  0
   44.2503    5.6523   10.2038 H   0  0  0  0  0  0  0  0  0  0  0  0
   45.1137    7.0269   10.9013 H   0  0  0  0  0  0  0  0  0  0  0  0
   46.0194    5.6914   10.1596 H   0  0  0  0  0  0  0  0  0  0  0  0
  1  2  1  0
  1  3  1  0
  3  6  1  0
  4  6  1  0
  4  7  2  0
  4  8  1  0
  5  9  2  0
  7  9  1  0
  5 10  1  0
  8 10  2  0
  1 11  1  0
  1 12  1  0
 12 13  1  0
 11 14  1  0
  5 15  1  0
 15 16  1  0
 17 18  1  0
 16 19  1  0
 19 20  1  0
 18 21  1  0
 20 21  1  0
 17 22  1  0
 23 24  1  0
 23 25  1  0
 23 26  2  0
 23 27  2  0
 24 28  1  0
 28 29  1  0
 29 30  1  0
 30 31  1  0
 31 32  1  0
 32 33  1  0
 33 34  1  0
 34 35  1  0
 35 36  1  0
 36 37  1  0
 37 38  1  0
 38 39  1  0
  2 40  1  0
  2 41  1  0
  3 42  1  0
  3 43  1  0
  6 44  1  0
  6 45  1  0
  7 46  1  0
  8 47  1  0
  9 48  1  0
 10 49  1  0
 11 50  1  0
 11 51  1  0
 12 52  1  0
 12 53  1  0
 13 54  1  0
 14 55  1  0
 15 56  1  0
 15 57  1  0
 16 58  1  0
 16 59  1  0
 17 60  1  0
 17 61  1  0
 18 62  1  0
 18 63  1  0
 19 64  1  0
 19 65  1  0
 20 66  1  0
 20 67  1  0
 21 68  1  0
 21 69  1  0
 22 70  1  0
 22 71  1  0
 22 72  1  0
 25 73  1  0
 28 74  1  0
 28 75  1  0
 29 76  1  0
 29 77  1  0
 30 78  1  0
 30 79  1  0
 31 80  1  0
 31 81  1  0
 32 82  1  0
 32 83  1  0
 33 84  1  0
 33 85  1  0
 34 86  1  0
 34 87  1  0
 35 88  1  0
 35 89  1  0
 36 90  1  0
 36 91  1  0
 37 92  1  0
 37 93  1  0
 38 94  1  0
 38 95  1  0
 39 96  1  0
 39 97  1  0
 39 98  1  0
M  END
> <Uni-Dock RESULT> 
ENERGY=   -4.566  LOWER_BOUND=    5.513  UPPER_BOUND=    9.882
INTER + INTRA:          -4.566
INTER:                  -4.566
INTRA:                   0.000
UNBOUND:                 0.000

$$$$

     RDKit          3D

 98 97  0  0  0  0  0  0  0  0999 V2000
   54.5513    2.0215   19.2196 C   0  0  0  0  0  0  0  0  0  0  0  0
   54.0089    0.6438   19.0568 N   0  0  0  0  0  0  0  0  0  0  0  0
   53.4318    3.0886   19.1545 C   0  0  0  0  0  0  0  0  0  0  0  0
   51.5834    4.2234   17.8667 C   0  0  0  0  0  0  0  0  0  0  0  0
   49.6313    6.2572   17.8691 C   0  0  0  0  0  0  0  0  0  0  0  0
   52.6180    3.1236   17.8530 C   0  0  0  0  0  0  0  0  0  0  0  0
   51.7959    5.4133   17.1607 C   0  0  0  0  0  0  0  0  0  0  0  0
   50.3930    4.0678   18.5887 C   0  0  0  0  0  0  0  0  0  0  0  0
   50.8286    6.4221   17.1627 C   0  0  0  0  0  0  0  0  0  0  0  0
   49.4261    5.0750   18.5917 C   0  0  0  0  0  0  0  0  0  0  0  0
   55.2053    2.0929   20.6295 C   0  0  0  0  0  0  0  0  0  0  0  0
   55.6455    2.2561   18.1385 C   0  0  0  0  0  0  0  0  0  0  0  0
   56.5928    1.1850   18.1260 O   0  0  0  0  0  0  0  0  0  0  0  0
   56.1770    1.0543   20.7888 O   0  0  0  0  0  0  0  0  0  0  0  0
   48.5820    7.3399   17.8639 C   0  0  0  0  0  0  0  0  0  0  0  0
   48.8461    8.4035   18.9316 C   0  0  0  0  0  0  0  0  0  0  0  0
   47.7548   13.1770   18.3093 C   0  0  0  0  0  0  0  0  0  0  0  0
   46.5662   12.3673   18.8268 C   0  0  0  0  0  0  0  0  0  0  0  0
   47.7448    9.4669   18.9289 C   0  0  0  0  0  0  0  0  0  0  0  0
   48.0066   10.5425   19.9844 C   0  0  0  0  0  0  0  0  0  0  0  0
   46.8781   11.5717   20.0980 C   0  0  0  0  0  0  0  0  0  0  0  0
   47.3648   14.0276   17.1096 C   0  0  0  0  0  0  0  0  0  0  0  0
   47.9787   12.4591   18.6098 S   0  0  0  0  0  0  0  0  0  0  0  0
   47.6851   11.1652   17.6752 O   0  0  0  0  0  0  0  0  0  0  0  0
   47.3683   11.9930   20.0246 O   0  0  0  0  0  0  0  0  0  0  0  0
   47.1194   13.5311   18.1598 O   0  0  0  0  0  0  0  0  0  0  0  0
   49.4037   12.6291   18.7709 O   0  0  0  0  0  0  0  0  0  0  0  0
   48.6690   10.1436   17.6152 C   0  0  0  0  0  0  0  0  0  0  0  0
   48.0678    8.9505   16.8840 C   0  0  0  0  0  0  0  0  0  0  0  0
   49.0590    7.8139   16.6311 C   0  0  0  0  0  0  0  0  0  0  0  0
   49.7481    7.2307   17.8702 C   0  0  0  0  0  0  0  0  0  0  0  0
   48.7750    6.6467   18.8945 C   0  0  0  0  0  0  0  0  0  0  0  0
   49.4538    6.0945   20.1550 C   0  0  0  0  0  0  0  0  0  0  0  0
   50.3346    4.8622   19.9190 C   0  0  0  0  0  0  0  0  0  0  0  0
   51.8259    5.2001   19.8271 C   0  0  0  0  0  0  0  0  0  0  0  0
   52.6636    3.9384   19.5984 C   0  0  0  0  0  0  0  0  0  0  0  0
   54.1557    4.2714   19.5169 C   0  0  0  0  0  0  0  0  0  0  0  0
   55.0481    3.0325   19.4082 C   0  0  0  0  0  0  0  0  0  0  0  0
   54.8520    2.2527   18.1179 C   0  0  0  0  0  0  0  0  0  0  0  0
   53.4943    0.5879   18.1771 H   0  0  0  0  0  0  0  0  0  0  0  0
   54.8179    0.0352   18.8744 H   0  0  0  0  0  0  0  0  0  0  0  0
   52.7412    2.9299   19.9947 H   0  0  0  0  0  0  0  0  0  0  0  0
   53.8788    4.0793   19.3192 H   0  0  0  0  0  0  0  0  0  0  0  0
   53.2739    3.2663   16.9869 H   0  0  0  0  0  0  0  0  0  0  0  0
   52.0991    2.1707   17.6906 H   0  0  0  0  0  0  0  0  0  0  0  0
   52.7135    5.5638   16.5974 H   0  0  0  0  0  0  0  0  0  0  0  0
   50.2070    3.1524   19.1484 H   0  0  0  0  0  0  0  0  0  0  0  0
   51.0127    7.3352   16.6022 H   0  0  0  0  0  0  0  0  0  0  0  0
   48.5078    4.9272   19.1558 H   0  0  0  0  0  0  0  0  0  0  0  0
   54.4636    1.9822   21.4267 H   0  0  0  0  0  0  0  0  0  0  0  0
   55.7155    3.0505   20.7745 H   0  0  0  0  0  0  0  0  0  0  0  0
   55.2212    2.3027   17.1322 H   0  0  0  0  0  0  0  0  0  0  0  0
   56.1871    3.1900   18.3205 H   0  0  0  0  0  0  0  0  0  0  0  0
   56.9045    1.0841   19.0512 H   0  0  0  0  0  0  0  0  0  0  0  0
   55.6458    0.2364   20.8729 H   0  0  0  0  0  0  0  0  0  0  0  0
   47.5940    6.8897   18.0199 H   0  0  0  0  0  0  0  0  0  0  0  0
   48.5450    7.8017   16.8696 H   0  0  0  0  0  0  0  0  0  0  0  0
   49.8178    8.8807   18.7483 H   0  0  0  0  0  0  0  0  0  0  0  0
   48.9032    7.9340   19.9224 H   0  0  0  0  0  0  0  0  0  0  0  0
   48.1339   13.8286   19.1047 H   0  0  0  0  0  0  0  0  0  0  0  0
   48.5710   12.5094   18.0132 H   0  0  0  0  0  0  0  0  0  0  0  0
   45.7382   13.0516   19.0515 H   0  0  0  0  0  0  0  0  0  0  0  0
   46.2004   11.6950   18.0431 H   0  0  0  0  0  0  0  0  0  0  0  0
   47.6929    9.9237   17.9336 H   0  0  0  0  0  0  0  0  0  0  0  0
   46.7743    8.9917   19.1218 H   0  0  0  0  0  0  0  0  0  0  0  0
   48.1262   10.0615   20.9627 H   0  0  0  0  0  0  0  0  0  0  0  0
   48.9561   11.0486   19.7744 H   0  0  0  0  0  0  0  0  0  0  0  0
   45.9634   11.0608   20.4206 H   0  0  0  0  0  0  0  0  0  0  0  0
   47.1325   12.2743   20.9005 H   0  0  0  0  0  0  0  0  0  0  0  0
   48.2298   14.5931   16.7501 H   0  0  0  0  0  0  0  0  0  0  0  0
   47.0017   13.4029   16.2876 H   0  0  0  0  0  0  0  0  0  0  0  0
   46.5790   14.7428   17.3727 H   0  0  0  0  0  0  0  0  0  0  0  0
   46.4079   12.1808   19.9979 H   0  0  0  0  0  0  0  0  0  0  0  0
   48.9653    9.8622   18.6311 H   0  0  0  0  0  0  0  0  0  0  0  0
   49.5448   10.5196   17.0767 H   0  0  0  0  0  0  0  0  0  0  0  0
   47.6681    9.2902   15.9195 H   0  0  0  0  0  0  0  0  0  0  0  0
   47.1963    8.5832   17.4401 H   0  0  0  0  0  0  0  0  0  0  0  0
   49.8365    8.1711   15.9430 H   0  0  0  0  0  0  0  0  0  0  0  0
   48.5323    7.0075   16.1050 H   0  0  0  0  0  0  0  0  0  0  0  0
   50.4219    6.4410   17.5208 H   0  0  0  0  0  0  0  0  0  0  0  0
   50.3758    7.9945   18.3431 H   0  0  0  0  0  0  0  0  0  0  0  0
   48.0708    7.4236   19.2171 H   0  0  0  0  0  0  0  0  0  0  0  0
   48.1752    5.8565   18.4242 H   0  0  0  0  0  0  0  0  0  0  0  0
   48.6526    5.8037   20.8454 H   0  0  0  0  0  0  0  0  0  0  0  0
   50.0188    6.8881   20.6581 H   0  0  0  0  0  0  0  0  0  0  0  0
   50.0078    4.3172   19.0256 H   0  0  0  0  0  0  0  0  0  0  0  0
   50.1974    4.1791   20.7669 H   0  0  0  0  0  0  0  0  0  0  0  0
   52.0086    5.9100   19.0134 H   0  0  0  0  0  0  0  0  0  0  0  0
   52.1460    5.6895   20.7560 H   0  0  0  0  0  0  0  0  0  0  0  0
   52.4899    3.2285   20.4166 H   0  0  0  0  0  0  0  0  0  0  0  0
   52.3367    3.4552   18.6707 H   0  0  0  0  0  0  0  0  0  0  0  0
   54.4499    4.8274   20.4159 H   0  0  0  0  0  0  0  0  0  0  0  0
   54.3408    4.9344   18.6619 H   0  0  0  0  0  0  0  0  0  0  0  0
   56.0948    3.3546   19.4663 H   0  0  0  0  0  0  0  0  0  0  0  0
   54.8713    2.3707   20.2635 H   0  0  0  0  0  0  0  0  0  0  0  0
   55.5857    1.4421   18.0542 H   0  0  0  0  0  0  0  0  0  0  0  0
   53.8560    1.8016   18.0683 H   0  0  0  0  0  0  0  0  0  0  0  0
   54.9851    2.8962   17.2431 H   0  0  0  0  0  0  0  0  0  0  0  0
  1  2  1  0
  1  3  1  0
  3  6  1  0
  4  6  1  0
  4  7  2  0
  4  8  1  0
  5  9  2  0
  7  9  1  0
  5 10  1  0
  8 10  2  0
  1 11  1  0
  1 12  1  0
 12 13  1  0
 11 14  1  0
  5 15  1  0
 15 16  1  0
 17 18  1  0
 16 19  1  0
 19 20  1  0
 18 21  1  0
 20 21  1  0
 17 22  1  0
 23 24  1  0
 23 25  1  0
 23 26  2  0
 23 27  2  0
 24 28  1  0
 28 29  1  0
 29 30  1  0
 30 31  1  0
 31 32  1  0
 32 33  1  0
 33 34  1  0
 34 35  1  0
 35 36  1  0
 36 37  1  0
 37 38  1  0
 38 39  1  0
  2 40  1  0
  2 41  1  0
  3 42  1  0
  3 43  1  0
  6 44  1  0
  6 45  1  0
  7 46  1  0
  8 47  1  0
  9 48  1  0
 10 49  1  0
 11 50  1  0
 11 51  1  0
 12 52  1  0
 12 53  1  0
 13 54  1  0
 14 55  1  0
 15 56  1  0
 15 57  1  0
 16 58  1  0
 16 59  1  0
 17 60  1  0
 17 61  1  0
 18 62  1  0
 18 63  1  0
 19 64  1  0
 19 65  1  0
 20 66  1  0
 20 67  1  0
 21 68  1  0
 21 69  1  0
 22 70  1  0
 22 71  1  0
 22 72  1  0
 25 73  1  0
 28 74  1  0
 28 75  1  0
 29 76  1  0
 29 77  1  0
 30 78  1  0
 30 79  1  0
 31 80  1  0
 31 81  1  0
 32 82  1  0
 32 83  1  0
 33 84  1  0
 33 85  1  0
 34 86  1  0
 34 87  1  0
 35 88  1  0
 35 89  1  0
 36 90  1  0
 36 91  1  0
 37 92  1  0
 37 93  1  0
 38 94  1  0
 38 95  1  0
 39 96  1  0
 39 97  1  0
 39 98  1  0
M  END
> <Uni-Dock RESULT> 
ENERGY=   -4.377  LOWER_BOUND=    8.589  UPPER_BOUND=   11.236
INTER + INTRA:          -4.377
INTER:                  -4.377
INTRA:                   0.000
UNBOUND:                 0.000

$$$$

     RDKit          3D

 98 97  0  0  0  0  0  0  0  0999 V2000
   55.3568    9.5497    5.3710 C   0  0  0  0  0  0  0  0  0  0  0  0
   56.2707   10.4636    4.6306 N   0  0  0  0  0  0  0  0  0  0  0  0
   53.9166   10.1129    5.4399 C   0  0  0  0  0  0  0  0  0  0  0  0
   52.3241   11.9227    6.1826 C   0  0  0  0  0  0  0  0  0  0  0  0
   49.6426   12.7853    6.2925 C   0  0  0  0  0  0  0  0  0  0  0  0
   53.7664   11.4793    6.1238 C   0  0  0  0  0  0  0  0  0  0  0  0
   51.5937   11.8230    7.3725 C   0  0  0  0  0  0  0  0  0  0  0  0
   51.6950   12.4411    5.0432 C   0  0  0  0  0  0  0  0  0  0  0  0
   50.2639   12.2498    7.4268 C   0  0  0  0  0  0  0  0  0  0  0  0
   50.3665   12.8674    5.0963 C   0  0  0  0  0  0  0  0  0  0  0  0
   55.3137    8.2082    4.5839 C   0  0  0  0  0  0  0  0  0  0  0  0
   55.9512    9.2910    6.7855 C   0  0  0  0  0  0  0  0  0  0  0  0
   57.3252    8.9040    6.7021 O   0  0  0  0  0  0  0  0  0  0  0  0
   56.6348    7.6924    4.3921 O   0  0  0  0  0  0  0  0  0  0  0  0
   48.2114   13.2560    6.3518 C   0  0  0  0  0  0  0  0  0  0  0  0
   47.2192   12.1136    6.1244 C   0  0  0  0  0  0  0  0  0  0  0  0
   42.8210   11.8797    8.3526 C   0  0  0  0  0  0  0  0  0  0  0  0
   42.7844   12.7115    7.0710 C   0  0  0  0  0  0  0  0  0  0  0  0
   45.7774   12.6278    6.1507 C   0  0  0  0  0  0  0  0  0  0  0  0
   44.7768   11.4907    5.9374 C   0  0  0  0  0  0  0  0  0  0  0  0
   43.3240   11.9672    5.8459 C   0  0  0  0  0  0  0  0  0  0  0  0
   42.1802   12.6245    9.5144 C   0  0  0  0  0  0  0  0  0  0  0  0
   43.4667   11.7484    7.8818 S   0  0  0  0  0  0  0  0  0  0  0  0
   44.6069   12.9032    7.8866 O   0  0  0  0  0  0  0  0  0  0  0  0
   43.2351   11.5158    6.3058 O   0  0  0  0  0  0  0  0  0  0  0  0
   42.2386   12.3403    8.3631 O   0  0  0  0  0  0  0  0  0  0  0  0
   44.0060   10.5305    8.4399 O   0  0  0  0  0  0  0  0  0  0  0  0
   45.9685   12.5020    7.8786 C   0  0  0  0  0  0  0  0  0  0  0  0
   46.8246   13.7390    7.6411 C   0  0  0  0  0  0  0  0  0  0  0  0
   48.3289   13.4797    7.7331 C   0  0  0  0  0  0  0  0  0  0  0  0
   48.8880   12.4070    6.7913 C   0  0  0  0  0  0  0  0  0  0  0  0
   48.6590   12.7119    5.3109 C   0  0  0  0  0  0  0  0  0  0  0  0
   49.1824   11.6251    4.3624 C   0  0  0  0  0  0  0  0  0  0  0  0
   50.7072   11.4675    4.3502 C   0  0  0  0  0  0  0  0  0  0  0  0
   51.1957   10.2983    5.2108 C   0  0  0  0  0  0  0  0  0  0  0  0
   52.7219   10.1776    5.1611 C   0  0  0  0  0  0  0  0  0  0  0  0
   53.2126    9.0032    6.0118 C   0  0  0  0  0  0  0  0  0  0  0  0
   54.7206    8.7640    5.9024 C   0  0  0  0  0  0  0  0  0  0  0  0
   55.5593    9.9014    6.4632 C   0  0  0  0  0  0  0  0  0  0  0  0
   56.2534   11.3841    5.0712 H   0  0  0  0  0  0  0  0  0  0  0  0
   57.2265   10.1428    4.8345 H   0  0  0  0  0  0  0  0  0  0  0  0
   53.5154   10.1866    4.4192 H   0  0  0  0  0  0  0  0  0  0  0  0
   53.2775    9.3848    5.9594 H   0  0  0  0  0  0  0  0  0  0  0  0
   54.1693   11.4516    7.1425 H   0  0  0  0  0  0  0  0  0  0  0  0
   54.3372   12.2489    5.5895 H   0  0  0  0  0  0  0  0  0  0  0  0
   52.0546   11.4183    8.2701 H   0  0  0  0  0  0  0  0  0  0  0  0
   52.2419   12.5250    4.1054 H   0  0  0  0  0  0  0  0  0  0  0  0
   49.7182   12.1685    8.3635 H   0  0  0  0  0  0  0  0  0  0  0  0
   49.9028   13.2714    4.1990 H   0  0  0  0  0  0  0  0  0  0  0  0
   54.8562    8.3314    3.5973 H   0  0  0  0  0  0  0  0  0  0  0  0
   54.7385    7.4540    5.1303 H   0  0  0  0  0  0  0  0  0  0  0  0
   55.9218   10.1873    7.4103 H   0  0  0  0  0  0  0  0  0  0  0  0
   55.4033    8.4984    7.3054 H   0  0  0  0  0  0  0  0  0  0  0  0
   57.3612    8.1561    6.0674 H   0  0  0  0  0  0  0  0  0  0  0  0
   57.0320    8.2864    3.7230 H   0  0  0  0  0  0  0  0  0  0  0  0
   48.0557   14.0421    5.6028 H   0  0  0  0  0  0  0  0  0  0  0  0
   48.0275   13.7301    7.3237 H   0  0  0  0  0  0  0  0  0  0  0  0
   47.3502   11.3478    6.9001 H   0  0  0  0  0  0  0  0  0  0  0  0
   47.4204   11.6287    5.1602 H   0  0  0  0  0  0  0  0  0  0  0  0
   42.2912   10.9333    8.1956 H   0  0  0  0  0  0  0  0  0  0  0  0
   43.8550   11.6378    8.6209 H   0  0  0  0  0  0  0  0  0  0  0  0
   41.7464   12.9991    6.8610 H   0  0  0  0  0  0  0  0  0  0  0  0
   43.3357   13.6472    7.2150 H   0  0  0  0  0  0  0  0  0  0  0  0
   45.5904   13.1152    7.1147 H   0  0  0  0  0  0  0  0  0  0  0  0
   45.6432   13.3865    5.3689 H   0  0  0  0  0  0  0  0  0  0  0  0
   45.0218   10.9695    5.0041 H   0  0  0  0  0  0  0  0  0  0  0  0
   44.8785   10.7486    6.7379 H   0  0  0  0  0  0  0  0  0  0  0  0
   43.2190   12.6183    4.9702 H   0  0  0  0  0  0  0  0  0  0  0  0
   42.6874   11.0953    5.6539 H   0  0  0  0  0  0  0  0  0  0  0  0
   42.2229   12.0161   10.4229 H   0  0  0  0  0  0  0  0  0  0  0  0
   42.7016   13.5663    9.7114 H   0  0  0  0  0  0  0  0  0  0  0  0
   41.1291   12.8486    9.3068 H   0  0  0  0  0  0  0  0  0  0  0  0
   42.6009   12.1986    6.0059 H   0  0  0  0  0  0  0  0  0  0  0  0
   46.1274   11.7662    7.0833 H   0  0  0  0  0  0  0  0  0  0  0  0
   46.2145   12.0469    8.8434 H   0  0  0  0  0  0  0  0  0  0  0  0
   46.5536   14.5050    8.3793 H   0  0  0  0  0  0  0  0  0  0  0  0
   46.5696   14.1778    6.6684 H   0  0  0  0  0  0  0  0  0  0  0  0
   48.5743   13.1921    8.7640 H   0  0  0  0  0  0  0  0  0  0  0  0
   48.8540   14.4251    7.5463 H   0  0  0  0  0  0  0  0  0  0  0  0
   49.9640   12.3400    6.9841 H   0  0  0  0  0  0  0  0  0  0  0  0
   48.4610   11.4295    7.0427 H   0  0  0  0  0  0  0  0  0  0  0  0
   47.5843   12.8214    5.1200 H   0  0  0  0  0  0  0  0  0  0  0  0
   49.1214   13.6748    5.0571 H   0  0  0  0  0  0  0  0  0  0  0  0
   48.8691   11.9095    3.3503 H   0  0  0  0  0  0  0  0  0  0  0  0
   48.6923   10.6683    4.5774 H   0  0  0  0  0  0  0  0  0  0  0  0
   51.1960   12.4004    4.6550 H   0  0  0  0  0  0  0  0  0  0  0  0
   51.0207   11.2763    3.3160 H   0  0  0  0  0  0  0  0  0  0  0  0
   50.8752   10.4272    6.2501 H   0  0  0  0  0  0  0  0  0  0  0  0
   50.7421    9.3663    4.8498 H   0  0  0  0  0  0  0  0  0  0  0  0
   53.0460   10.0392    4.1222 H   0  0  0  0  0  0  0  0  0  0  0  0
   53.1666   11.1122    5.5212 H   0  0  0  0  0  0  0  0  0  0  0  0
   52.6969    8.0883    5.6939 H   0  0  0  0  0  0  0  0  0  0  0  0
   52.9415    9.1685    7.0625 H   0  0  0  0  0  0  0  0  0  0  0  0
   54.9653    7.8461    6.4503 H   0  0  0  0  0  0  0  0  0  0  0  0
   54.9947    8.5919    4.8555 H   0  0  0  0  0  0  0  0  0  0  0  0
   56.6196    9.6277    6.4494 H   0  0  0  0  0  0  0  0  0  0  0  0
   55.4458   10.8144    5.8705 H   0  0  0  0  0  0  0  0  0  0  0  0
   55.2827   10.1232    7.4982 H   0  0  0  0  0  0  0  0  0  0  0  0
  1  2  1  0
  1  3  1  0
  3  6  1  0
  4  6  1  0
  4  7  2  0
  4  8  1  0
  5  9  2  0
  7  9  1  0
  5 10  1  0
  8 10  2  0
  1 11  1  0
  1 12  1  0
 12 13  1  0
 11 14  1  0
  5 15  1  0
 15 16  1  0
 17 18  1  0
 16 19  1  0
 19 20  1  0
 18 21  1  0
 20 21  1  0
 17 22  1  0
 23 24  1  0
 23 25  1  0
 23 26  2  0
 23 27  2  0
 24 28  1  0
 28 29  1  0
 29 30  1  0
 30 31  1  0
 31 32  1  0
 32 33  1  0
 33 34  1  0
 34 35  1  0
 35 36  1  0
 36 37  1  0
 37 38  1  0
 38 39  1  0
  2 40  1  0
  2 41  1  0
  3 42  1  0
  3 43  1  0
  6 44  1  0
  6 45  1  0
  7 46  1  0
  8 47  1  0
  9 48  1  0
 10 49  1  0
 11 50  1  0
 11 51  1  0
 12 52  1  0
 12 53  1  0
 13 54  1  0
 14 55  1  0
 15 56  1  0
 15 57  1  0
 16 58  1  0
 16 59  1  0
 17 60  1  0
 17 61  1  0
 18 62  1  0
 18 63  1  0
 19 64  1  0
 19 65  1  0
 20 66  1  0
 20 67  1  0
 21 68  1  0
 21 69  1  0
 22 70  1  0
 22 71  1  0
 22 72  1  0
 25 73  1  0
 28 74  1  0
 28 75  1  0
 29 76  1  0
 29 77  1  0
 30 78  1  0
 30 79  1  0
 31 80  1  0
 31 81  1  0
 32 82  1  0
 32 83  1  0
 33 84  1  0
 33 85  1  0
 34 86  1  0
 34 87  1  0
 35 88  1  0
 35 89  1  0
 36 90  1  0
 36 91  1  0
 37 92  1  0
 37 93  1  0
 38 94  1  0
 38 95  1  0
 39 96  1  0
 39 97  1  0
 39 98  1  0
M  END
> <Uni-Dock RESULT> 
ENERGY=   -4.303  LOWER_BOUND=    6.143  UPPER_BOUND=    7.659
INTER + INTRA:          -4.303
INTER:                  -4.303
INTRA:                   0.000
UNBOUND:                 0.000

$$$$
