
     RDKit          3D

 21 13  0  0  0  0  0  0  0  0999 V2000
   -0.0036    0.3775   -0.0000 O   0  0  0  0  0  0  0  0  0  0  0  0
    0.8969    0.0000    0.0000 Mg  0  0  0  0  0  2  0  0  0  0  0  0
   -0.8969    0.0000    0.0000 O   0  0  0  0  0  0  0  0  0  0  0  0
    0.8945    0.0000    0.0000 Mg  0  0  0  0  0  2  0  0  0  0  0  0
   -0.8945    0.0000    0.0000 O   0  0  0  0  0  0  0  0  0  0  0  0
    0.8932    0.0000    0.0000 Mg  0  0  0  0  0  2  0  0  0  0  0  0
   -0.8932    0.0000    0.0000 O   0  0  0  0  0  0  0  0  0  0  0  0
   -0.0019    0.0445   -0.0000 Si  0  0  0  0  0  4  0  0  0  0  0  0
   -1.5712   -0.0223   -0.0000 O   0  0  0  0  0  0  0  0  0  0  0  0
    1.5731   -0.0222    0.0000 O   0  0  0  0  0  0  0  0  0  0  0  0
   -0.0324    0.0280    0.0000 Si  0  0  0  0  0  4  0  0  0  0  0  0
    1.5476    0.0885    0.0000 O   0  0  0  0  0  0  0  0  0  0  0  0
   -1.5152   -0.5205    0.0000 O   0  0  0  0  0  0  0  0  0  0  0  0
   -0.0012    0.1210   -0.0000 Si  0  0  0  0  0  4  0  0  0  0  0  0
   -1.5528   -0.0606   -0.0000 O   0  0  0  0  0  0  0  0  0  0  0  0
    1.5540   -0.0604    0.0000 O   0  0  0  0  0  0  0  0  0  0  0  0
    0.0063    0.2001    0.0000 Si  0  0  0  0  0  4  0  0  0  0  0  0
   -1.5654    0.2675    0.0000 O   0  0  0  0  0  0  0  0  0  0  0  0
    1.5591    0.4981    0.0000 O   0  0  0  0  0  0  0  0  0  0  0  0
   -0.8051   -0.1900   -0.0000 H   0  0  0  0  0  0  0  0  0  0  0  0
    0.8086   -0.1875    0.0000 H   0  0  0  0  0  0  0  0  0  0  0  0
  2  3  2  0
  4  5  2  0
  6  7  2  0
  8  9  2  0
  8 10  2  0
 11 12  2  0
 11 13  2  0
 14 15  2  0
 14 16  2  0
 17 18  2  0
 17 19  2  0
  1 20  1  0
  1 21  1  0
M  END
$$$$
