
     RDKit          3D

 21 13  0  0  0  0  0  0  0  0999 V2000
   -0.0002    0.3715   -0.0000 O   0  0  0  0  0  0  0  0  0  0  0  0
    0.8991    0.0000    0.0000 Mg  0  0  0  0  0  2  0  0  0  0  0  0
   -0.8991    0.0000    0.0000 O   0  0  0  0  0  0  0  0  0  0  0  0
    0.8903    0.0000    0.0000 Mg  0  0  0  0  0  2  0  0  0  0  0  0
   -0.8903    0.0000    0.0000 O   0  0  0  0  0  0  0  0  0  0  0  0
    0.8961    0.0000    0.0000 Mg  0  0  0  0  0  2  0  0  0  0  0  0
   -0.8961    0.0000    0.0000 O   0  0  0  0  0  0  0  0  0  0  0  0
   -0.0048    0.0567   -0.0000 Si  0  0  0  0  0  4  0  0  0  0  0  0
    1.5713   -0.0282    0.0000 O   0  0  0  0  0  0  0  0  0  0  0  0
   -1.5665   -0.0285   -0.0000 O   0  0  0  0  0  0  0  0  0  0  0  0
    0.0039   -0.8643    0.0000 Si  0  0  0  0  0  4  0  0  0  0  0  0
    1.5163   -0.3917    0.0000 O   0  0  0  0  0  0  0  0  0  0  0  0
   -1.5201   -0.4289    0.0000 O   0  0  0  0  0  0  0  0  0  0  0  0
   -0.0007    0.1675   -0.0000 Si  0  0  0  0  0  4  0  0  0  0  0  0
    1.5569   -0.0837    0.0000 O   0  0  0  0  0  0  0  0  0  0  0  0
   -1.5561   -0.0838   -0.0000 O   0  0  0  0  0  0  0  0  0  0  0  0
   -0.0507    0.2144    0.0000 Si  0  0  0  0  0  4  0  0  0  0  0  0
   -1.4824   -0.4600    0.0000 O   0  0  0  0  0  0  0  0  0  0  0  0
    1.5331    0.1999    0.0000 O   0  0  0  0  0  0  0  0  0  0  0  0
   -0.8094   -0.1858   -0.0000 H   0  0  0  0  0  0  0  0  0  0  0  0
    0.8096   -0.1856    0.0000 H   0  0  0  0  0  0  0  0  0  0  0  0
  2  3  2  0
  4  5  2  0
  6  7  2  0
  8  9  2  0
  8 10  2  0
 11 12  2  0
 11 13  2  0
 14 15  2  0
 14 16  2  0
 17 18  2  0
 17 19  2  0
  1 20  1  0
  1 21  1  0
M  END
$$$$
