
     RDKit          3D

 21 13  0  0  0  0  0  0  0  0999 V2000
   -0.0040    0.3802   -0.0000 O   0  0  0  0  0  0  0  0  0  0  0  0
    0.8928    0.0000    0.0000 Mg  0  0  0  0  0  2  0  0  0  0  0  0
   -0.8928    0.0000    0.0000 O   0  0  0  0  0  0  0  0  0  0  0  0
    0.8922    0.0000    0.0000 Mg  0  0  0  0  0  2  0  0  0  0  0  0
   -0.8922    0.0000    0.0000 O   0  0  0  0  0  0  0  0  0  0  0  0
    0.8932    0.0000    0.0000 Mg  0  0  0  0  0  2  0  0  0  0  0  0
   -0.8932    0.0000    0.0000 O   0  0  0  0  0  0  0  0  0  0  0  0
   -0.0007    0.1406   -0.0000 Si  0  0  0  0  0  4  0  0  0  0  0  0
    1.5631   -0.0702    0.0000 O   0  0  0  0  0  0  0  0  0  0  0  0
   -1.5624   -0.0703   -0.0000 O   0  0  0  0  0  0  0  0  0  0  0  0
   -0.0006    0.0801   -0.0000 Si  0  0  0  0  0  4  0  0  0  0  0  0
    1.5585   -0.0400    0.0000 O   0  0  0  0  0  0  0  0  0  0  0  0
   -1.5580   -0.0401   -0.0000 O   0  0  0  0  0  0  0  0  0  0  0  0
   -0.0023    0.1582   -0.0000 Si  0  0  0  0  0  4  0  0  0  0  0  0
   -1.5533   -0.0793   -0.0000 O   0  0  0  0  0  0  0  0  0  0  0  0
    1.5556   -0.0789    0.0000 O   0  0  0  0  0  0  0  0  0  0  0  0
   -0.0028    0.0974   -0.0000 Si  0  0  0  0  0  4  0  0  0  0  0  0
   -1.5597   -0.0488   -0.0000 O   0  0  0  0  0  0  0  0  0  0  0  0
    1.5625   -0.0486    0.0000 O   0  0  0  0  0  0  0  0  0  0  0  0
    0.8131   -0.1887    0.0000 H   0  0  0  0  0  0  0  0  0  0  0  0
   -0.8092   -0.1915   -0.0000 H   0  0  0  0  0  0  0  0  0  0  0  0
  2  3  2  0
  4  5  2  0
  6  7  2  0
  8  9  2  0
  8 10  2  0
 11 12  2  0
 11 13  2  0
 14 15  2  0
 14 16  2  0
 17 18  2  0
 17 19  2  0
  1 20  1  0
  1 21  1  0
M  END
$$$$
