
     RDKit          3D

 21 13  0  0  0  0  0  0  0  0999 V2000
   -0.0018    0.3726   -0.0000 O   0  0  0  0  0  0  0  0  0  0  0  0
    0.8984    0.0000    0.0000 Mg  0  0  0  0  0  2  0  0  0  0  0  0
   -0.8984    0.0000    0.0000 O   0  0  0  0  0  0  0  0  0  0  0  0
    0.8926    0.0000    0.0000 Mg  0  0  0  0  0  2  0  0  0  0  0  0
   -0.8926    0.0000    0.0000 O   0  0  0  0  0  0  0  0  0  0  0  0
    0.8960    0.0000    0.0000 Mg  0  0  0  0  0  2  0  0  0  0  0  0
   -0.8960    0.0000    0.0000 O   0  0  0  0  0  0  0  0  0  0  0  0
   -0.0019    0.1748   -0.0000 Si  0  0  0  0  0  4  0  0  0  0  0  0
    1.5548   -0.0872    0.0000 O   0  0  0  0  0  0  0  0  0  0  0  0
   -1.5529   -0.0876   -0.0000 O   0  0  0  0  0  0  0  0  0  0  0  0
   -0.0043    0.1085   -0.0000 Si  0  0  0  0  0  4  0  0  0  0  0  0
    1.5614   -0.0540    0.0000 O   0  0  0  0  0  0  0  0  0  0  0  0
   -1.5571   -0.0545   -0.0000 O   0  0  0  0  0  0  0  0  0  0  0  0
   -0.0037    0.1514   -0.0000 Si  0  0  0  0  0  4  0  0  0  0  0  0
    1.5534   -0.0754    0.0000 O   0  0  0  0  0  0  0  0  0  0  0  0
   -1.5497   -0.0760   -0.0000 O   0  0  0  0  0  0  0  0  0  0  0  0
   -0.0015    0.1252   -0.0000 Si  0  0  0  0  0  4  0  0  0  0  0  0
    1.5602   -0.0625    0.0000 O   0  0  0  0  0  0  0  0  0  0  0  0
   -1.5586   -0.0627   -0.0000 O   0  0  0  0  0  0  0  0  0  0  0  0
   -0.8075   -0.1870   -0.0000 H   0  0  0  0  0  0  0  0  0  0  0  0
    0.8093   -0.1857    0.0000 H   0  0  0  0  0  0  0  0  0  0  0  0
  2  3  2  0
  4  5  2  0
  6  7  2  0
  8  9  2  0
  8 10  2  0
 11 12  2  0
 11 13  2  0
 14 15  2  0
 14 16  2  0
 17 18  2  0
 17 19  2  0
  1 20  1  0
  1 21  1  0
M  END
$$$$
