
     RDKit          3D

 68 69  0  0  0  0  0  0  0  0999 V2000
   51.4859    6.0792   17.9758 C   0  0  0  0  0  0  0  0  0  0  0  0
   48.9243    4.6486   18.4315 C   0  0  0  0  0  0  0  0  0  0  0  0
   50.1826    4.3023   19.1002 C   0  0  0  0  0  0  0  0  0  0  0  0
   51.3503    4.9047   18.8433 C   0  0  0  0  0  0  0  0  0  0  0  0
   48.7662    4.9635   17.2696 O   0  0  0  0  0  0  0  0  0  0  0  0
   50.7204    7.0160   17.8737 O   0  0  0  0  0  0  0  0  0  0  0  0
   52.6509    6.0215   17.3128 O   0  0  0  0  0  0  0  0  0  0  0  0
   47.9020    4.5127   19.2896 O   0  0  0  0  0  0  0  0  0  0  0  0
   50.2987    4.9185   17.7391 C   0  0  0  0  0  0  0  0  0  0  0  0
   50.7068    5.9858   16.7820 C   0  0  0  0  0  0  0  0  0  0  0  0
   51.0573    3.6440   17.7604 C   0  0  0  0  0  0  0  0  0  0  0  0
   49.3222    5.1214   18.6685 C   0  0  0  0  0  0  0  0  0  0  0  0
   47.4183    5.6905   20.9685 N   0  0  0  0  0  0  0  0  0  0  0  0
   49.7059    6.4577   15.9902 N   0  0  0  0  0  0  0  0  0  0  0  0
   52.0337    6.4257   16.6608 C   0  0  0  0  0  0  0  0  0  0  0  0
   52.3903    3.6556   18.2051 C   0  0  0  0  0  0  0  0  0  0  0  0
   48.5225    6.4148   18.7984 C   0  0  0  0  0  0  0  0  0  0  0  0
   48.9565    4.1133   19.7558 C   0  0  0  0  0  0  0  0  0  0  0  0
   53.0200    4.9606   18.6233 C   0  0  0  0  0  0  0  0  0  0  0  0
   53.2286    5.9075   17.4362 C   0  0  0  0  0  0  0  0  0  0  0  0
   48.6093    4.8298   21.0710 C   0  0  0  0  0  0  0  0  0  0  0  0
   47.2287    6.2320   19.6126 C   0  0  0  0  0  0  0  0  0  0  0  0
   50.4734    2.4474   17.3261 C   0  0  0  0  0  0  0  0  0  0  0  0
   47.4535    6.7438   21.9789 C   0  0  0  0  0  0  0  0  0  0  0  0
   50.0056    7.4025   15.0771 C   0  0  0  0  0  0  0  0  0  0  0  0
   52.2945    7.4128   15.6921 C   0  0  0  0  0  0  0  0  0  0  0  0
   53.1164    2.4580   18.2314 C   0  0  0  0  0  0  0  0  0  0  0  0
   51.2732    7.9120   14.8941 C   0  0  0  0  0  0  0  0  0  0  0  0
   51.2055    1.2609   17.3552 C   0  0  0  0  0  0  0  0  0  0  0  0
   52.5233    1.2662   17.8105 C   0  0  0  0  0  0  0  0  0  0  0  0
   49.5520    5.3631   19.5466 C   0  0  0  0  0  0  0  0  0  0  0  0
   51.7774    4.9505   17.5732 C   0  0  0  0  0  0  0  0  0  0  0  0
   50.6617    5.8810   17.3873 C   0  0  0  0  0  0  0  0  0  0  0  0
   49.6437    6.0361   18.2442 C   0  0  0  0  0  0  0  0  0  0  0  0
   52.9505    5.2269   17.4102 O   0  0  0  0  0  0  0  0  0  0  0  0
   50.4520    4.9028   20.2196 O   0  0  0  0  0  0  0  0  0  0  0  0
   48.2738    5.3525   19.9577 O   0  0  0  0  0  0  0  0  0  0  0  0
   51.3527    3.7040   17.8243 O   0  0  0  0  0  0  0  0  0  0  0  0
   50.1281    3.4834   19.8073 H   0  0  0  0  0  0  0  0  0  0  0  0
   52.2640    4.5596   19.3119 H   0  0  0  0  0  0  0  0  0  0  0  0
   52.6384    6.8299   16.7584 H   0  0  0  0  0  0  0  0  0  0  0  0
   47.1217    4.7783   18.7591 H   0  0  0  0  0  0  0  0  0  0  0  0
   49.1502    7.1733   19.2826 H   0  0  0  0  0  0  0  0  0  0  0  0
   48.2209    6.8018   17.8225 H   0  0  0  0  0  0  0  0  0  0  0  0
   49.7775    3.4223   19.9710 H   0  0  0  0  0  0  0  0  0  0  0  0
   48.1030    3.5112   19.4198 H   0  0  0  0  0  0  0  0  0  0  0  0
   52.4133    5.4359   19.4045 H   0  0  0  0  0  0  0  0  0  0  0  0
   53.9952    4.7632   19.0869 H   0  0  0  0  0  0  0  0  0  0  0  0
   53.7721    6.7815   17.8206 H   0  0  0  0  0  0  0  0  0  0  0  0
   53.8935    5.4135   16.7140 H   0  0  0  0  0  0  0  0  0  0  0  0
   48.4286    4.0804   21.8509 H   0  0  0  0  0  0  0  0  0  0  0  0
   49.4878    5.4113   21.3850 H   0  0  0  0  0  0  0  0  0  0  0  0
   46.6749    7.1793   19.6394 H   0  0  0  0  0  0  0  0  0  0  0  0
   46.5755    5.5348   19.0707 H   0  0  0  0  0  0  0  0  0  0  0  0
   49.4477    2.4407   16.9645 H   0  0  0  0  0  0  0  0  0  0  0  0
   48.2784    7.4465   21.8155 H   0  0  0  0  0  0  0  0  0  0  0  0
   46.5146    7.3086   21.9790 H   0  0  0  0  0  0  0  0  0  0  0  0
   47.5589    6.3132   22.9810 H   0  0  0  0  0  0  0  0  0  0  0  0
   49.1691    7.7465   14.4762 H   0  0  0  0  0  0  0  0  0  0  0  0
   53.3063    7.7871   15.5504 H   0  0  0  0  0  0  0  0  0  0  0  0
   54.1485    2.4448   18.5729 H   0  0  0  0  0  0  0  0  0  0  0  0
   51.4654    8.6692   14.1431 H   0  0  0  0  0  0  0  0  0  0  0  0
   50.7480    0.3337   17.0205 H   0  0  0  0  0  0  0  0  0  0  0  0
   53.0925    0.3403   17.8313 H   0  0  0  0  0  0  0  0  0  0  0  0
   50.7181    6.4756   16.4835 H   0  0  0  0  0  0  0  0  0  0  0  0
   48.8390    6.7243   18.0130 H   0  0  0  0  0  0  0  0  0  0  0  0
   48.3121    4.8914   20.8217 H   0  0  0  0  0  0  0  0  0  0  0  0
   52.1774    3.1943   17.9610 H   0  0  0  0  0  0  0  0  0  0  0  0
  2  3  1  0
  3  4  2  0
  4  1  1  0
  5  2  2  0
  6  1  2  0
  7  1  1  0
  8  2  1  0
 10  9  1  0
 11  9  1  0
 12  9  2  3
 13 21  1  0
 14 10  2  0
 15 10  1  0
 16 11  2  0
 17 12  1  0
 18 12  1  0
 19 16  1  0
 20 15  1  0
 21 18  1  0
 22 17  1  0
 23 11  1  0
 24 13  1  0
 25 14  1  0
 26 15  2  0
 27 16  1  0
 28 26  1  0
 29 23  2  0
 30 29  1  0
 22 13  1  0
 20 19  1  0
 27 30  2  0
 25 28  2  0
 32 33  1  0
 33 34  2  0
 34 31  1  0
 35 32  2  0
 36 31  2  0
 37 31  1  0
 38 32  1  0
  3 39  1  0
  4 40  1  0
  7 41  1  0
  8 42  1  0
 17 43  1  0
 17 44  1  0
 18 45  1  0
 18 46  1  0
 19 47  1  0
 19 48  1  0
 20 49  1  0
 20 50  1  0
 21 51  1  0
 21 52  1  0
 22 53  1  0
 22 54  1  0
 23 55  1  0
 24 56  1  0
 24 57  1  0
 24 58  1  0
 25 59  1  0
 26 60  1  0
 27 61  1  0
 28 62  1  0
 29 63  1  0
 30 64  1  0
 33 65  1  0
 34 66  1  0
 37 67  1  0
 38 68  1  0
M  END
> <Uni-Dock RESULT> 
ENERGY=   -5.794  LOWER_BOUND=    0.000  UPPER_BOUND=    0.000
INTER + INTRA:          -5.794
INTER:                  -5.794
INTRA:                   0.000
UNBOUND:                 0.000

$$$$

     RDKit          3D

 68 69  0  0  0  0  0  0  0  0999 V2000
   49.0126    3.6070   17.9875 C   0  0  0  0  0  0  0  0  0  0  0  0
   49.3653    6.5269   18.3947 C   0  0  0  0  0  0  0  0  0  0  0  0
   48.1305    5.9164   17.8920 C   0  0  0  0  0  0  0  0  0  0  0  0
   47.9963    4.6072   17.6456 C   0  0  0  0  0  0  0  0  0  0  0  0
   50.5072    6.2323   18.1058 O   0  0  0  0  0  0  0  0  0  0  0  0
   49.7230    3.5806   18.9717 O   0  0  0  0  0  0  0  0  0  0  0  0
   49.0252    2.6375   17.0601 O   0  0  0  0  0  0  0  0  0  0  0  0
   49.0666    7.5460   19.2145 O   0  0  0  0  0  0  0  0  0  0  0  0
   49.4050    5.1883   17.5899 C   0  0  0  0  0  0  0  0  0  0  0  0
   50.3414    4.0322   17.6807 C   0  0  0  0  0  0  0  0  0  0  0  0
   48.6654    5.4164   16.3244 C   0  0  0  0  0  0  0  0  0  0  0  0
   49.1261    5.9738   18.6686 C   0  0  0  0  0  0  0  0  0  0  0  0
   48.2236    7.4880   21.1448 N   0  0  0  0  0  0  0  0  0  0  0  0
   51.6005    4.3463   18.0901 N   0  0  0  0  0  0  0  0  0  0  0  0
   49.9728    2.7298   17.3109 C   0  0  0  0  0  0  0  0  0  0  0  0
   47.6912    4.4832   15.9306 C   0  0  0  0  0  0  0  0  0  0  0  0
   49.7628    5.7933   20.0438 C   0  0  0  0  0  0  0  0  0  0  0  0
   48.0785    7.0851   18.6667 C   0  0  0  0  0  0  0  0  0  0  0  0
   47.4415    3.2674   16.7873 C   0  0  0  0  0  0  0  0  0  0  0  0
   48.6259    2.2947   16.7684 C   0  0  0  0  0  0  0  0  0  0  0  0
   47.3425    7.1448   20.0152 C   0  0  0  0  0  0  0  0  0  0  0  0
   49.6101    7.0391   20.9354 C   0  0  0  0  0  0  0  0  0  0  0  0
   48.9401    6.5266   15.5162 C   0  0  0  0  0  0  0  0  0  0  0  0
   47.6706    6.9904   22.4011 C   0  0  0  0  0  0  0  0  0  0  0  0
   52.5126    3.3572   18.1660 C   0  0  0  0  0  0  0  0  0  0  0  0
   50.9619    1.7332   17.4074 C   0  0  0  0  0  0  0  0  0  0  0  0
   46.9850    4.6887   14.7386 C   0  0  0  0  0  0  0  0  0  0  0  0
   52.2435    2.0445   17.8429 C   0  0  0  0  0  0  0  0  0  0  0  0
   48.2320    6.7211   14.3307 C   0  0  0  0  0  0  0  0  0  0  0  0
   47.2540    5.8054   13.9449 C   0  0  0  0  0  0  0  0  0  0  0  0
   48.3554    5.8125   19.1808 C   0  0  0  0  0  0  0  0  0  0  0  0
   48.8842    4.0181   16.8319 C   0  0  0  0  0  0  0  0  0  0  0  0
   49.8219    4.2450   17.9339 C   0  0  0  0  0  0  0  0  0  0  0  0
   49.6085    5.0784   18.9609 C   0  0  0  0  0  0  0  0  0  0  0  0
   48.5719    2.9267   16.3956 O   0  0  0  0  0  0  0  0  0  0  0  0
   47.2455    5.5454   18.7669 O   0  0  0  0  0  0  0  0  0  0  0  0
   48.5856    6.8634   19.9843 O   0  0  0  0  0  0  0  0  0  0  0  0
   48.4957    5.1671   16.2610 O   0  0  0  0  0  0  0  0  0  0  0  0
   47.3177    6.6026   17.6867 H   0  0  0  0  0  0  0  0  0  0  0  0
   47.0860    4.2194   17.2044 H   0  0  0  0  0  0  0  0  0  0  0  0
   49.7368    2.0372   17.3670 H   0  0  0  0  0  0  0  0  0  0  0  0
   49.9449    7.8712   19.5041 H   0  0  0  0  0  0  0  0  0  0  0  0
   49.2964    4.9336   20.5409 H   0  0  0  0  0  0  0  0  0  0  0  0
   50.8346    5.5969   19.9690 H   0  0  0  0  0  0  0  0  0  0  0  0
   47.3208    6.9367   17.8911 H   0  0  0  0  0  0  0  0  0  0  0  0
   48.5690    8.0455   18.4640 H   0  0  0  0  0  0  0  0  0  0  0  0
   47.2005    3.5748   17.8128 H   0  0  0  0  0  0  0  0  0  0  0  0
   46.5515    2.7395   16.4212 H   0  0  0  0  0  0  0  0  0  0  0  0
   48.3158    1.4078   17.3377 H   0  0  0  0  0  0  0  0  0  0  0  0
   48.7854    1.9660   15.7320 H   0  0  0  0  0  0  0  0  0  0  0  0
   46.5465    7.8966   19.9564 H   0  0  0  0  0  0  0  0  0  0  0  0
   46.8532    6.1743   20.1801 H   0  0  0  0  0  0  0  0  0  0  0  0
   50.1193    6.8699   21.8928 H   0  0  0  0  0  0  0  0  0  0  0  0
   50.1546    7.8690   20.4652 H   0  0  0  0  0  0  0  0  0  0  0  0
   49.7067    7.2396   15.8108 H   0  0  0  0  0  0  0  0  0  0  0  0
   47.6427    5.8954   22.4359 H   0  0  0  0  0  0  0  0  0  0  0  0
   48.2633    7.3472   23.2506 H   0  0  0  0  0  0  0  0  0  0  0  0
   46.6525    7.3674   22.5502 H   0  0  0  0  0  0  0  0  0  0  0  0
   53.4987    3.6626   18.5026 H   0  0  0  0  0  0  0  0  0  0  0  0
   50.7337    0.7065   17.1284 H   0  0  0  0  0  0  0  0  0  0  0  0
   46.2264    3.9796   14.4163 H   0  0  0  0  0  0  0  0  0  0  0  0
   53.0125    1.2845   17.9167 H   0  0  0  0  0  0  0  0  0  0  0  0
   48.4456    7.5856   13.7077 H   0  0  0  0  0  0  0  0  0  0  0  0
   46.7040    5.9584   13.0198 H   0  0  0  0  0  0  0  0  0  0  0  0
   50.7325    3.6611   17.8767 H   0  0  0  0  0  0  0  0  0  0  0  0
   50.3715    5.2132   19.7187 H   0  0  0  0  0  0  0  0  0  0  0  0
   47.7050    7.2846   20.0729 H   0  0  0  0  0  0  0  0  0  0  0  0
   47.8560    4.8878   15.5744 H   0  0  0  0  0  0  0  0  0  0  0  0
  2  3  1  0
  3  4  2  0
  4  1  1  0
  5  2  2  0
  6  1  2  0
  7  1  1  0
  8  2  1  0
 10  9  1  0
 11  9  1  0
 12  9  2  3
 13 21  1  0
 14 10  2  0
 15 10  1  0
 16 11  2  0
 17 12  1  0
 18 12  1  0
 19 16  1  0
 20 15  1  0
 21 18  1  0
 22 17  1  0
 23 11  1  0
 24 13  1  0
 25 14  1  0
 26 15  2  0
 27 16  1  0
 28 26  1  0
 29 23  2  0
 30 29  1  0
 22 13  1  0
 20 19  1  0
 27 30  2  0
 25 28  2  0
 32 33  1  0
 33 34  2  0
 34 31  1  0
 35 32  2  0
 36 31  2  0
 37 31  1  0
 38 32  1  0
  3 39  1  0
  4 40  1  0
  7 41  1  0
  8 42  1  0
 17 43  1  0
 17 44  1  0
 18 45  1  0
 18 46  1  0
 19 47  1  0
 19 48  1  0
 20 49  1  0
 20 50  1  0
 21 51  1  0
 21 52  1  0
 22 53  1  0
 22 54  1  0
 23 55  1  0
 24 56  1  0
 24 57  1  0
 24 58  1  0
 25 59  1  0
 26 60  1  0
 27 61  1  0
 28 62  1  0
 29 63  1  0
 30 64  1  0
 33 65  1  0
 34 66  1  0
 37 67  1  0
 38 68  1  0
M  END
> <Uni-Dock RESULT> 
ENERGY=   -5.783  LOWER_BOUND=    1.763  UPPER_BOUND=    4.122
INTER + INTRA:          -5.783
INTER:                  -5.783
INTRA:                   0.000
UNBOUND:                 0.000

$$$$

     RDKit          3D

 68 69  0  0  0  0  0  0  0  0999 V2000
   44.3079   12.2673    9.6982 C   0  0  0  0  0  0  0  0  0  0  0  0
   42.0559   10.4913   10.4665 C   0  0  0  0  0  0  0  0  0  0  0  0
   43.0199   11.0464   11.4218 C   0  0  0  0  0  0  0  0  0  0  0  0
   44.0734   11.7918   11.0654 C   0  0  0  0  0  0  0  0  0  0  0  0
   42.2831   10.0480    9.3592 O   0  0  0  0  0  0  0  0  0  0  0  0
   43.4805   12.6454    8.8942 O   0  0  0  0  0  0  0  0  0  0  0  0
   45.6255   12.2914    9.4460 O   0  0  0  0  0  0  0  0  0  0  0  0
   40.8312   10.4770   11.0139 O   0  0  0  0  0  0  0  0  0  0  0  0
   43.5172   10.8250   10.0256 C   0  0  0  0  0  0  0  0  0  0  0  0
   44.0524   11.2702    8.7076 C   0  0  0  0  0  0  0  0  0  0  0  0
   44.4280   10.1442   10.9782 C   0  0  0  0  0  0  0  0  0  0  0  0
   42.2480   11.1232   10.4239 C   0  0  0  0  0  0  0  0  0  0  0  0
   39.5631   12.0990   11.4620 N   0  0  0  0  0  0  0  0  0  0  0  0
   43.3463   10.8381    7.6277 N   0  0  0  0  0  0  0  0  0  0  0  0
   45.2302   12.0229    8.5850 C   0  0  0  0  0  0  0  0  0  0  0  0
   45.4791   10.8781   11.5537 C   0  0  0  0  0  0  0  0  0  0  0  0
   41.2407   11.8847    9.5666 C   0  0  0  0  0  0  0  0  0  0  0  0
   41.6931   10.8085   11.8114 C   0  0  0  0  0  0  0  0  0  0  0  0
   45.6685   12.3246   11.1711 C   0  0  0  0  0  0  0  0  0  0  0  0
   46.1276   12.4818    9.7172 C   0  0  0  0  0  0  0  0  0  0  0  0
   40.7652   11.9340   12.2972 C   0  0  0  0  0  0  0  0  0  0  0  0
   39.7927   11.7121   10.0601 C   0  0  0  0  0  0  0  0  0  0  0  0
   44.2670    8.7882   11.2892 C   0  0  0  0  0  0  0  0  0  0  0  0
   39.0366   13.4560   11.5765 C   0  0  0  0  0  0  0  0  0  0  0  0
   43.7881   11.1743    6.3997 C   0  0  0  0  0  0  0  0  0  0  0  0
   45.6494   12.3472    7.2813 C   0  0  0  0  0  0  0  0  0  0  0  0
   46.3447   10.2466   12.4560 C   0  0  0  0  0  0  0  0  0  0  0  0
   44.9221   11.9251    6.1759 C   0  0  0  0  0  0  0  0  0  0  0  0
   45.1351    8.1688   12.1878 C   0  0  0  0  0  0  0  0  0  0  0  0
   46.1696    8.8981   12.7725 C   0  0  0  0  0  0  0  0  0  0  0  0
   42.0919   11.8630   10.9812 C   0  0  0  0  0  0  0  0  0  0  0  0
   44.9223   11.2990   10.1521 C   0  0  0  0  0  0  0  0  0  0  0  0
   43.8072   11.4996    9.2240 C   0  0  0  0  0  0  0  0  0  0  0  0
   42.5353   11.7074    9.5895 C   0  0  0  0  0  0  0  0  0  0  0  0
   46.0041   11.8491   10.0717 O   0  0  0  0  0  0  0  0  0  0  0  0
   42.7475   12.2032   11.9451 O   0  0  0  0  0  0  0  0  0  0  0  0
   40.7757   11.6102   11.0642 O   0  0  0  0  0  0  0  0  0  0  0  0
   44.6635   10.3319   11.0435 O   0  0  0  0  0  0  0  0  0  0  0  0
   42.8553   10.7845   12.4600 H   0  0  0  0  0  0  0  0  0  0  0  0
   44.7962   12.1146   11.8049 H   0  0  0  0  0  0  0  0  0  0  0  0
   45.6745   12.6031    8.5178 H   0  0  0  0  0  0  0  0  0  0  0  0
   40.2669   10.1090   10.3018 H   0  0  0  0  0  0  0  0  0  0  0  0
   41.5011   12.9505    9.5753 H   0  0  0  0  0  0  0  0  0  0  0  0
   41.2558   11.5440    8.5290 H   0  0  0  0  0  0  0  0  0  0  0  0
   42.4859   10.6983   12.5578 H   0  0  0  0  0  0  0  0  0  0  0  0
   41.1444    9.8590   11.7758 H   0  0  0  0  0  0  0  0  0  0  0  0
   44.7430   12.8849   11.3548 H   0  0  0  0  0  0  0  0  0  0  0  0
   46.4231   12.7794   11.8257 H   0  0  0  0  0  0  0  0  0  0  0  0
   46.3273   13.5510    9.5625 H   0  0  0  0  0  0  0  0  0  0  0  0
   47.0878   11.9601    9.6007 H   0  0  0  0  0  0  0  0  0  0  0  0
   40.4463   11.7181   13.3239 H   0  0  0  0  0  0  0  0  0  0  0  0
   41.3484   12.8652   12.3336 H   0  0  0  0  0  0  0  0  0  0  0  0
   39.1093   12.2447    9.3864 H   0  0  0  0  0  0  0  0  0  0  0  0
   39.5194   10.6525    9.9647 H   0  0  0  0  0  0  0  0  0  0  0  0
   43.4650    8.2147   10.8302 H   0  0  0  0  0  0  0  0  0  0  0  0
   39.7251   14.2029   11.1652 H   0  0  0  0  0  0  0  0  0  0  0  0
   38.0794   13.5431   11.0506 H   0  0  0  0  0  0  0  0  0  0  0  0
   38.8407   13.7062   12.6252 H   0  0  0  0  0  0  0  0  0  0  0  0
   43.1846   10.8076    5.5749 H   0  0  0  0  0  0  0  0  0  0  0  0
   46.5588   12.9243    7.1262 H   0  0  0  0  0  0  0  0  0  0  0  0
   47.1635   10.7965   12.9134 H   0  0  0  0  0  0  0  0  0  0  0  0
   45.2395   12.1668    5.1683 H   0  0  0  0  0  0  0  0  0  0  0  0
   45.0051    7.1173   12.4293 H   0  0  0  0  0  0  0  0  0  0  0  0
   46.8458    8.4130   13.4719 H   0  0  0  0  0  0  0  0  0  0  0  0
   44.0856   11.4860    8.1771 H   0  0  0  0  0  0  0  0  0  0  0  0
   41.7637   11.8129    8.8357 H   0  0  0  0  0  0  0  0  0  0  0  0
   40.5747   11.7384   12.0149 H   0  0  0  0  0  0  0  0  0  0  0  0
   45.4563   10.3186   11.6178 H   0  0  0  0  0  0  0  0  0  0  0  0
  2  3  1  0
  3  4  2  0
  4  1  1  0
  5  2  2  0
  6  1  2  0
  7  1  1  0
  8  2  1  0
 10  9  1  0
 11  9  1  0
 12  9  2  3
 13 21  1  0
 14 10  2  0
 15 10  1  0
 16 11  2  0
 17 12  1  0
 18 12  1  0
 19 16  1  0
 20 15  1  0
 21 18  1  0
 22 17  1  0
 23 11  1  0
 24 13  1  0
 25 14  1  0
 26 15  2  0
 27 16  1  0
 28 26  1  0
 29 23  2  0
 30 29  1  0
 22 13  1  0
 20 19  1  0
 27 30  2  0
 25 28  2  0
 32 33  1  0
 33 34  2  0
 34 31  1  0
 35 32  2  0
 36 31  2  0
 37 31  1  0
 38 32  1  0
  3 39  1  0
  4 40  1  0
  7 41  1  0
  8 42  1  0
 17 43  1  0
 17 44  1  0
 18 45  1  0
 18 46  1  0
 19 47  1  0
 19 48  1  0
 20 49  1  0
 20 50  1  0
 21 51  1  0
 21 52  1  0
 22 53  1  0
 22 54  1  0
 23 55  1  0
 24 56  1  0
 24 57  1  0
 24 58  1  0
 25 59  1  0
 26 60  1  0
 27 61  1  0
 28 62  1  0
 29 63  1  0
 30 64  1  0
 33 65  1  0
 34 66  1  0
 37 67  1  0
 38 68  1  0
M  END
> <Uni-Dock RESULT> 
ENERGY=   -5.591  LOWER_BOUND=    9.852  UPPER_BOUND=   12.324
INTER + INTRA:          -5.591
INTER:                  -5.591
INTRA:                   0.000
UNBOUND:                 0.000

$$$$

     RDKit          3D

 68 69  0  0  0  0  0  0  0  0999 V2000
   41.7459   11.2236    9.8658 C   0  0  0  0  0  0  0  0  0  0  0  0
   43.9167   12.7272    8.5083 C   0  0  0  0  0  0  0  0  0  0  0  0
   43.9998   11.3034    8.8489 C   0  0  0  0  0  0  0  0  0  0  0  0
   43.0478   10.6438    9.5207 C   0  0  0  0  0  0  0  0  0  0  0  0
   43.4531   13.6236    9.1833 O   0  0  0  0  0  0  0  0  0  0  0  0
   41.0696   11.9759    9.1944 O   0  0  0  0  0  0  0  0  0  0  0  0
   41.3400   10.7521   11.0545 O   0  0  0  0  0  0  0  0  0  0  0  0
   44.4989   12.9441    7.3192 O   0  0  0  0  0  0  0  0  0  0  0  0
   43.1369   12.1511    9.7335 C   0  0  0  0  0  0  0  0  0  0  0  0
   41.8400   12.5685   10.3382 C   0  0  0  0  0  0  0  0  0  0  0  0
   44.1176   11.4183   10.5712 C   0  0  0  0  0  0  0  0  0  0  0  0
   43.4008   12.3251    8.4074 C   0  0  0  0  0  0  0  0  0  0  0  0
   43.8421   12.3723    5.4004 N   0  0  0  0  0  0  0  0  0  0  0  0
   41.5417   13.8887   10.1977 N   0  0  0  0  0  0  0  0  0  0  0  0
   41.0196   11.6831   11.0535 C   0  0  0  0  0  0  0  0  0  0  0  0
   43.8016   10.1199   11.0062 C   0  0  0  0  0  0  0  0  0  0  0  0
   42.4422   12.9949    7.4267 C   0  0  0  0  0  0  0  0  0  0  0  0
   44.6537   11.7988    7.7106 C   0  0  0  0  0  0  0  0  0  0  0  0
   42.4703    9.5176   10.6331 C   0  0  0  0  0  0  0  0  0  0  0  0
   41.3020   10.2204   11.3335 C   0  0  0  0  0  0  0  0  0  0  0  0
   44.3237   11.3039    6.2930 C   0  0  0  0  0  0  0  0  0  0  0  0
   43.1391   13.4415    6.1287 C   0  0  0  0  0  0  0  0  0  0  0  0
   45.3308   12.0080   10.9475 C   0  0  0  0  0  0  0  0  0  0  0  0
   43.0287   11.8175    4.3224 C   0  0  0  0  0  0  0  0  0  0  0  0
   40.3995   14.3471   10.7466 C   0  0  0  0  0  0  0  0  0  0  0  0
   39.8386   12.2114   11.6077 C   0  0  0  0  0  0  0  0  0  0  0  0
   44.7204    9.4173   11.7963 C   0  0  0  0  0  0  0  0  0  0  0  0
   39.5195   13.5540   11.4512 C   0  0  0  0  0  0  0  0  0  0  0  0
   46.2379   11.3002   11.7354 C   0  0  0  0  0  0  0  0  0  0  0  0
   45.9342   10.0060   12.1556 C   0  0  0  0  0  0  0  0  0  0  0  0
   43.2687   11.6166    7.8050 C   0  0  0  0  0  0  0  0  0  0  0  0
   42.6472   11.1334   10.7028 C   0  0  0  0  0  0  0  0  0  0  0  0
   42.0630   12.2053    9.8936 C   0  0  0  0  0  0  0  0  0  0  0  0
   42.3704   12.4518    8.6132 C   0  0  0  0  0  0  0  0  0  0  0  0
   42.0171   10.3737   11.4135 O   0  0  0  0  0  0  0  0  0  0  0  0
   43.5636   10.4505    7.9722 O   0  0  0  0  0  0  0  0  0  0  0  0
   43.7253   12.3275    6.7614 O   0  0  0  0  0  0  0  0  0  0  0  0
   43.9872   11.1590   10.6748 O   0  0  0  0  0  0  0  0  0  0  0  0
   44.9147   10.8033    8.5549 H   0  0  0  0  0  0  0  0  0  0  0  0
   43.1930    9.6103    9.8111 H   0  0  0  0  0  0  0  0  0  0  0  0
   40.4824   11.2047   11.1989 H   0  0  0  0  0  0  0  0  0  0  0  0
   44.3783   13.9066    7.1780 H   0  0  0  0  0  0  0  0  0  0  0  0
   41.6368   12.2915    7.1810 H   0  0  0  0  0  0  0  0  0  0  0  0
   41.9867   13.8899    7.8562 H   0  0  0  0  0  0  0  0  0  0  0  0
   45.1039   10.9594    8.2495 H   0  0  0  0  0  0  0  0  0  0  0  0
   45.4050   12.5971    7.6640 H   0  0  0  0  0  0  0  0  0  0  0  0
   42.3437    9.5344    9.5432 H   0  0  0  0  0  0  0  0  0  0  0  0
   42.4578    8.4568   10.9149 H   0  0  0  0  0  0  0  0  0  0  0  0
   40.3943    9.6577   11.0762 H   0  0  0  0  0  0  0  0  0  0  0  0
   41.4401   10.1196   12.4191 H   0  0  0  0  0  0  0  0  0  0  0  0
   45.2233   10.8613    5.8489 H   0  0  0  0  0  0  0  0  0  0  0  0
   43.5803   10.4984    6.3772 H   0  0  0  0  0  0  0  0  0  0  0  0
   42.4153   13.9513    5.4800 H   0  0  0  0  0  0  0  0  0  0  0  0
   43.8839   14.2079    6.3828 H   0  0  0  0  0  0  0  0  0  0  0  0
   45.5683   13.0197   10.6267 H   0  0  0  0  0  0  0  0  0  0  0  0
   42.0993   11.3707    4.6933 H   0  0  0  0  0  0  0  0  0  0  0  0
   42.7708   12.5956    3.5954 H   0  0  0  0  0  0  0  0  0  0  0  0
   43.5868   11.0504    3.7741 H   0  0  0  0  0  0  0  0  0  0  0  0
   40.2087   15.4060   10.6002 H   0  0  0  0  0  0  0  0  0  0  0  0
   39.1674   11.5719   12.1774 H   0  0  0  0  0  0  0  0  0  0  0  0
   44.4960    8.4113   12.1423 H   0  0  0  0  0  0  0  0  0  0  0  0
   38.6144   13.9703   11.8777 H   0  0  0  0  0  0  0  0  0  0  0  0
   47.1799   11.7598   12.0226 H   0  0  0  0  0  0  0  0  0  0  0  0
   46.6424    9.4564   12.7707 H   0  0  0  0  0  0  0  0  0  0  0  0
   41.3219   12.8045   10.4086 H   0  0  0  0  0  0  0  0  0  0  0  0
   41.9151   13.2887    8.0965 H   0  0  0  0  0  0  0  0  0  0  0  0
   44.3062   11.6962    6.2874 H   0  0  0  0  0  0  0  0  0  0  0  0
   44.2517   10.3869   11.2156 H   0  0  0  0  0  0  0  0  0  0  0  0
  2  3  1  0
  3  4  2  0
  4  1  1  0
  5  2  2  0
  6  1  2  0
  7  1  1  0
  8  2  1  0
 10  9  1  0
 11  9  1  0
 12  9  2  3
 13 21  1  0
 14 10  2  0
 15 10  1  0
 16 11  2  0
 17 12  1  0
 18 12  1  0
 19 16  1  0
 20 15  1  0
 21 18  1  0
 22 17  1  0
 23 11  1  0
 24 13  1  0
 25 14  1  0
 26 15  2  0
 27 16  1  0
 28 26  1  0
 29 23  2  0
 30 29  1  0
 22 13  1  0
 20 19  1  0
 27 30  2  0
 25 28  2  0
 32 33  1  0
 33 34  2  0
 34 31  1  0
 35 32  2  0
 36 31  2  0
 37 31  1  0
 38 32  1  0
  3 39  1  0
  4 40  1  0
  7 41  1  0
  8 42  1  0
 17 43  1  0
 17 44  1  0
 18 45  1  0
 18 46  1  0
 19 47  1  0
 19 48  1  0
 20 49  1  0
 20 50  1  0
 21 51  1  0
 21 52  1  0
 22 53  1  0
 22 54  1  0
 23 55  1  0
 24 56  1  0
 24 57  1  0
 24 58  1  0
 25 59  1  0
 26 60  1  0
 27 61  1  0
 28 62  1  0
 29 63  1  0
 30 64  1  0
 33 65  1  0
 34 66  1  0
 37 67  1  0
 38 68  1  0
M  END
> <Uni-Dock RESULT> 
ENERGY=   -5.038  LOWER_BOUND=   10.863  UPPER_BOUND=   14.005
INTER + INTRA:          -5.038
INTER:                  -5.038
INTRA:                   0.000
UNBOUND:                 0.000

$$$$

     RDKit          3D

 68 69  0  0  0  0  0  0  0  0999 V2000
   47.5768    7.4398   12.4331 C   0  0  0  0  0  0  0  0  0  0  0  0
   49.5963    9.4123   13.3533 C   0  0  0  0  0  0  0  0  0  0  0  0
   49.6922    7.9702   13.6011 C   0  0  0  0  0  0  0  0  0  0  0  0
   48.7476    7.0910   13.2442 C   0  0  0  0  0  0  0  0  0  0  0  0
   48.6037   10.1090   13.4135 O   0  0  0  0  0  0  0  0  0  0  0  0
   47.5269    8.2166   11.5015 O   0  0  0  0  0  0  0  0  0  0  0  0
   46.5193    6.7143   12.8275 O   0  0  0  0  0  0  0  0  0  0  0  0
   50.8147    9.9103   13.0939 O   0  0  0  0  0  0  0  0  0  0  0  0
   48.3096    8.5338   13.4717 C   0  0  0  0  0  0  0  0  0  0  0  0
   46.9768    8.6772   12.8199 C   0  0  0  0  0  0  0  0  0  0  0  0
   48.4090    7.7816   14.7463 C   0  0  0  0  0  0  0  0  0  0  0  0
   49.4527    8.9772   12.8757 C   0  0  0  0  0  0  0  0  0  0  0  0
   52.0261    9.6251   11.3936 N   0  0  0  0  0  0  0  0  0  0  0  0
   46.6202    9.9560   12.5217 N   0  0  0  0  0  0  0  0  0  0  0  0
   46.1263    7.5852   12.5897 C   0  0  0  0  0  0  0  0  0  0  0  0
   48.1662    6.3975   14.7376 C   0  0  0  0  0  0  0  0  0  0  0  0
   49.4905    9.6967   11.5303 C   0  0  0  0  0  0  0  0  0  0  0  0
   50.8539    8.7393   13.4345 C   0  0  0  0  0  0  0  0  0  0  0  0
   47.7884    5.7201   13.4442 C   0  0  0  0  0  0  0  0  0  0  0  0
   46.3967    6.1399   12.9579 C   0  0  0  0  0  0  0  0  0  0  0  0
   51.8575    8.4762   12.3000 C   0  0  0  0  0  0  0  0  0  0  0  0
   50.8118   10.4524   11.2995 C   0  0  0  0  0  0  0  0  0  0  0  0
   48.7165    8.4320   15.9479 C   0  0  0  0  0  0  0  0  0  0  0  0
   52.4915    9.1844   10.0818 C   0  0  0  0  0  0  0  0  0  0  0  0
   45.4141   10.1680   11.9592 C   0  0  0  0  0  0  0  0  0  0  0  0
   44.8778    7.8597   12.0010 C   0  0  0  0  0  0  0  0  0  0  0  0
   48.2588    5.6760   15.9347 C   0  0  0  0  0  0  0  0  0  0  0  0
   44.5162    9.1609   11.6769 C   0  0  0  0  0  0  0  0  0  0  0  0
   48.8050    7.7045   17.1343 C   0  0  0  0  0  0  0  0  0  0  0  0
   48.5799    6.3286   17.1264 C   0  0  0  0  0  0  0  0  0  0  0  0
   49.9921    8.3802   12.3911 C   0  0  0  0  0  0  0  0  0  0  0  0
   47.4898    7.3054   13.6560 C   0  0  0  0  0  0  0  0  0  0  0  0
   47.5320    8.4303   12.7191 C   0  0  0  0  0  0  0  0  0  0  0  0
   48.6501    8.9414   12.1868 C   0  0  0  0  0  0  0  0  0  0  0  0
   46.7295    6.3595   13.5762 O   0  0  0  0  0  0  0  0  0  0  0  0
   50.2926    7.2465   12.7057 O   0  0  0  0  0  0  0  0  0  0  0  0
   50.9161    9.3188   12.1297 O   0  0  0  0  0  0  0  0  0  0  0  0
   48.3074    7.4942   14.7015 O   0  0  0  0  0  0  0  0  0  0  0  0
   50.5747    7.6442   14.1381 H   0  0  0  0  0  0  0  0  0  0  0  0
   48.8347    6.0464   13.5176 H   0  0  0  0  0  0  0  0  0  0  0  0
   45.7967    7.0281   12.2439 H   0  0  0  0  0  0  0  0  0  0  0  0
   50.6426   10.8613   12.9297 H   0  0  0  0  0  0  0  0  0  0  0  0
   49.3509    8.9598   10.7295 H   0  0  0  0  0  0  0  0  0  0  0  0
   48.6925   10.4379   11.4472 H   0  0  0  0  0  0  0  0  0  0  0  0
   50.8897    7.8748   14.1047 H   0  0  0  0  0  0  0  0  0  0  0  0
   51.1661    9.6158   14.0160 H   0  0  0  0  0  0  0  0  0  0  0  0
   48.5498    5.9208   12.6799 H   0  0  0  0  0  0  0  0  0  0  0  0
   47.7938    4.6319   13.5870 H   0  0  0  0  0  0  0  0  0  0  0  0
   46.1744    5.5302   12.0714 H   0  0  0  0  0  0  0  0  0  0  0  0
   45.6638    5.8594   13.7272 H   0  0  0  0  0  0  0  0  0  0  0  0
   52.8342    8.2320   12.7344 H   0  0  0  0  0  0  0  0  0  0  0  0
   51.5226    7.5867   11.7477 H   0  0  0  0  0  0  0  0  0  0  0  0
   50.7685   10.9828   10.3396 H   0  0  0  0  0  0  0  0  0  0  0  0
   50.8949   11.2421   12.0585 H   0  0  0  0  0  0  0  0  0  0  0  0
   48.8865    9.5061   15.9588 H   0  0  0  0  0  0  0  0  0  0  0  0
   51.7464    8.5705    9.5632 H   0  0  0  0  0  0  0  0  0  0  0  0
   52.7292   10.0462    9.4483 H   0  0  0  0  0  0  0  0  0  0  0  0
   53.4149    8.6020   10.1761 H   0  0  0  0  0  0  0  0  0  0  0  0
   45.1832   11.2056   11.7378 H   0  0  0  0  0  0  0  0  0  0  0  0
   44.1756    7.0520   11.8047 H   0  0  0  0  0  0  0  0  0  0  0  0
   48.0760    4.6044   15.9497 H   0  0  0  0  0  0  0  0  0  0  0  0
   43.5555    9.3821   11.2269 H   0  0  0  0  0  0  0  0  0  0  0  0
   49.0471    8.2121   18.0642 H   0  0  0  0  0  0  0  0  0  0  0  0
   48.6484    5.7636   18.0527 H   0  0  0  0  0  0  0  0  0  0  0  0
   46.5614    8.8333   12.4565 H   0  0  0  0  0  0  0  0  0  0  0  0
   48.5947    9.7987   11.5261 H   0  0  0  0  0  0  0  0  0  0  0  0
   51.7662    8.8581   12.2898 H   0  0  0  0  0  0  0  0  0  0  0  0
   48.2161    6.6730   15.2268 H   0  0  0  0  0  0  0  0  0  0  0  0
  2  3  1  0
  3  4  2  0
  4  1  1  0
  5  2  2  0
  6  1  2  0
  7  1  1  0
  8  2  1  0
 10  9  1  0
 11  9  1  0
 12  9  2  3
 13 21  1  0
 14 10  2  0
 15 10  1  0
 16 11  2  0
 17 12  1  0
 18 12  1  0
 19 16  1  0
 20 15  1  0
 21 18  1  0
 22 17  1  0
 23 11  1  0
 24 13  1  0
 25 14  1  0
 26 15  2  0
 27 16  1  0
 28 26  1  0
 29 23  2  0
 30 29  1  0
 22 13  1  0
 20 19  1  0
 27 30  2  0
 25 28  2  0
 32 33  1  0
 33 34  2  0
 34 31  1  0
 35 32  2  0
 36 31  2  0
 37 31  1  0
 38 32  1  0
  3 39  1  0
  4 40  1  0
  7 41  1  0
  8 42  1  0
 17 43  1  0
 17 44  1  0
 18 45  1  0
 18 46  1  0
 19 47  1  0
 19 48  1  0
 20 49  1  0
 20 50  1  0
 21 51  1  0
 21 52  1  0
 22 53  1  0
 22 54  1  0
 23 55  1  0
 24 56  1  0
 24 57  1  0
 24 58  1  0
 25 59  1  0
 26 60  1  0
 27 61  1  0
 28 62  1  0
 29 63  1  0
 30 64  1  0
 33 65  1  0
 34 66  1  0
 37 67  1  0
 38 68  1  0
M  END
> <Uni-Dock RESULT> 
ENERGY=   -4.902  LOWER_BOUND=    4.385  UPPER_BOUND=    7.598
INTER + INTRA:          -4.902
INTER:                  -4.902
INTRA:                   0.000
UNBOUND:                 0.000

$$$$

     RDKit          3D

 68 69  0  0  0  0  0  0  0  0999 V2000
   49.9861    6.9487   18.4083 C   0  0  0  0  0  0  0  0  0  0  0  0
   47.5371    6.2513   19.9353 C   0  0  0  0  0  0  0  0  0  0  0  0
   48.6685    5.3380   19.7461 C   0  0  0  0  0  0  0  0  0  0  0  0
   49.7420    5.6299   19.0012 C   0  0  0  0  0  0  0  0  0  0  0  0
   47.0474    7.0023   19.1164 O   0  0  0  0  0  0  0  0  0  0  0  0
   49.7458    8.0347   18.8949 O   0  0  0  0  0  0  0  0  0  0  0  0
   50.5944    6.8067   17.2209 O   0  0  0  0  0  0  0  0  0  0  0  0
   47.0414    6.1095   21.1739 O   0  0  0  0  0  0  0  0  0  0  0  0
   48.4407    6.3499   18.6645 C   0  0  0  0  0  0  0  0  0  0  0  0
   48.8145    7.5285   17.8322 C   0  0  0  0  0  0  0  0  0  0  0  0
   48.4934    4.9968   18.0590 C   0  0  0  0  0  0  0  0  0  0  0  0
   48.1597    6.4683   19.9932 C   0  0  0  0  0  0  0  0  0  0  0  0
   47.8981    6.6733   23.0145 N   0  0  0  0  0  0  0  0  0  0  0  0
   47.8878    8.5244   17.8012 N   0  0  0  0  0  0  0  0  0  0  0  0
   50.0015    7.5811   17.0857 C   0  0  0  0  0  0  0  0  0  0  0  0
   49.7431    4.4608   17.7042 C   0  0  0  0  0  0  0  0  0  0  0  0
   48.1480    7.7943   20.7487 C   0  0  0  0  0  0  0  0  0  0  0  0
   47.9014    5.2820   20.9196 C   0  0  0  0  0  0  0  0  0  0  0  0
   50.9897    5.2807   17.9238 C   0  0  0  0  0  0  0  0  0  0  0  0
   51.0542    6.4947   16.9903 C   0  0  0  0  0  0  0  0  0  0  0  0
   48.5077    5.5322   22.3101 C   0  0  0  0  0  0  0  0  0  0  0  0
   47.3986    7.7050   22.0905 C   0  0  0  0  0  0  0  0  0  0  0  0
   47.3233    4.2656   17.8192 C   0  0  0  0  0  0  0  0  0  0  0  0
   48.8215    7.2237   24.0025 C   0  0  0  0  0  0  0  0  0  0  0  0
   48.1416    9.6096   17.0436 C   0  0  0  0  0  0  0  0  0  0  0  0
   50.2190    8.7354   16.3104 C   0  0  0  0  0  0  0  0  0  0  0  0
   49.8058    3.1833   17.1332 C   0  0  0  0  0  0  0  0  0  0  0  0
   49.2854    9.7635   16.2900 C   0  0  0  0  0  0  0  0  0  0  0  0
   47.3968    2.9950   17.2491 C   0  0  0  0  0  0  0  0  0  0  0  0
   48.6363    2.4540   16.9103 C   0  0  0  0  0  0  0  0  0  0  0  0
   48.8258    6.2934   20.6319 C   0  0  0  0  0  0  0  0  0  0  0  0
   49.5504    6.0145   17.7312 C   0  0  0  0  0  0  0  0  0  0  0  0
   48.9947    7.2263   18.3377 C   0  0  0  0  0  0  0  0  0  0  0  0
   48.6288    7.3410   19.6213 C   0  0  0  0  0  0  0  0  0  0  0  0
   50.5267    5.9820   17.0067 O   0  0  0  0  0  0  0  0  0  0  0  0
   49.6265    5.3805   20.6216 O   0  0  0  0  0  0  0  0  0  0  0  0
   47.9896    6.5000   21.6620 O   0  0  0  0  0  0  0  0  0  0  0  0
   48.7804    4.9415   17.9614 O   0  0  0  0  0  0  0  0  0  0  0  0
   48.5741    4.3694   20.2221 H   0  0  0  0  0  0  0  0  0  0  0  0
   50.5155    4.8901   18.8344 H   0  0  0  0  0  0  0  0  0  0  0  0
   50.6972    7.7292   16.9053 H   0  0  0  0  0  0  0  0  0  0  0  0
   46.3118    6.7634   21.2043 H   0  0  0  0  0  0  0  0  0  0  0  0
   49.1833    8.1071   20.9330 H   0  0  0  0  0  0  0  0  0  0  0  0
   47.6569    8.5818   20.1728 H   0  0  0  0  0  0  0  0  0  0  0  0
   48.3414    4.3559   20.5369 H   0  0  0  0  0  0  0  0  0  0  0  0
   46.8199    5.1179   21.0058 H   0  0  0  0  0  0  0  0  0  0  0  0
   51.0553    5.5884   18.9752 H   0  0  0  0  0  0  0  0  0  0  0  0
   51.8739    4.6558   17.7440 H   0  0  0  0  0  0  0  0  0  0  0  0
   52.0302    6.9705   17.1572 H   0  0  0  0  0  0  0  0  0  0  0  0
   51.0518    6.1321   15.9529 H   0  0  0  0  0  0  0  0  0  0  0  0
   48.3754    4.6347   22.9260 H   0  0  0  0  0  0  0  0  0  0  0  0
   49.5904    5.6790   22.1888 H   0  0  0  0  0  0  0  0  0  0  0  0
   47.3857    8.6921   22.5702 H   0  0  0  0  0  0  0  0  0  0  0  0
   46.3448    7.4749   21.8828 H   0  0  0  0  0  0  0  0  0  0  0  0
   46.3543    4.6871   18.0765 H   0  0  0  0  0  0  0  0  0  0  0  0
   49.7084    7.6684   23.5372 H   0  0  0  0  0  0  0  0  0  0  0  0
   48.3263    7.9928   24.6055 H   0  0  0  0  0  0  0  0  0  0  0  0
   49.1500    6.4442   24.6991 H   0  0  0  0  0  0  0  0  0  0  0  0
   47.3715   10.3748   17.0594 H   0  0  0  0  0  0  0  0  0  0  0  0
   51.1199    8.8279   15.7071 H   0  0  0  0  0  0  0  0  0  0  0  0
   50.7626    2.7497   16.8525 H   0  0  0  0  0  0  0  0  0  0  0  0
   49.4427   10.6541   15.6930 H   0  0  0  0  0  0  0  0  0  0  0  0
   46.4869    2.4292   17.0677 H   0  0  0  0  0  0  0  0  0  0  0  0
   48.6912    1.4638   16.4650 H   0  0  0  0  0  0  0  0  0  0  0  0
   48.9079    8.0682   17.6615 H   0  0  0  0  0  0  0  0  0  0  0  0
   48.1935    8.2658   19.9816 H   0  0  0  0  0  0  0  0  0  0  0  0
   48.1922    5.7636   22.2762 H   0  0  0  0  0  0  0  0  0  0  0  0
   49.2685    4.2036   17.5421 H   0  0  0  0  0  0  0  0  0  0  0  0
  2  3  1  0
  3  4  2  0
  4  1  1  0
  5  2  2  0
  6  1  2  0
  7  1  1  0
  8  2  1  0
 10  9  1  0
 11  9  1  0
 12  9  2  3
 13 21  1  0
 14 10  2  0
 15 10  1  0
 16 11  2  0
 17 12  1  0
 18 12  1  0
 19 16  1  0
 20 15  1  0
 21 18  1  0
 22 17  1  0
 23 11  1  0
 24 13  1  0
 25 14  1  0
 26 15  2  0
 27 16  1  0
 28 26  1  0
 29 23  2  0
 30 29  1  0
 22 13  1  0
 20 19  1  0
 27 30  2  0
 25 28  2  0
 32 33  1  0
 33 34  2  0
 34 31  1  0
 35 32  2  0
 36 31  2  0
 37 31  1  0
 38 32  1  0
  3 39  1  0
  4 40  1  0
  7 41  1  0
  8 42  1  0
 17 43  1  0
 17 44  1  0
 18 45  1  0
 18 46  1  0
 19 47  1  0
 19 48  1  0
 20 49  1  0
 20 50  1  0
 21 51  1  0
 21 52  1  0
 22 53  1  0
 22 54  1  0
 23 55  1  0
 24 56  1  0
 24 57  1  0
 24 58  1  0
 25 59  1  0
 26 60  1  0
 27 61  1  0
 28 62  1  0
 29 63  1  0
 30 64  1  0
 33 65  1  0
 34 66  1  0
 37 67  1  0
 38 68  1  0
M  END
> <Uni-Dock RESULT> 
ENERGY=   -4.879  LOWER_BOUND=    1.721  UPPER_BOUND=    2.630
INTER + INTRA:          -4.879
INTER:                  -4.879
INTRA:                   0.000
UNBOUND:                 0.000

$$$$

     RDKit          3D

 68 69  0  0  0  0  0  0  0  0999 V2000
   47.4790    9.1035   13.4312 C   0  0  0  0  0  0  0  0  0  0  0  0
   49.7625    7.3398   14.1320 C   0  0  0  0  0  0  0  0  0  0  0  0
   49.8719    8.7938   13.9777 C   0  0  0  0  0  0  0  0  0  0  0  0
   48.8565    9.5786   13.5960 C   0  0  0  0  0  0  0  0  0  0  0  0
   49.1263    6.5684   13.4432 O   0  0  0  0  0  0  0  0  0  0  0  0
   46.8914    8.2875   14.1115 O   0  0  0  0  0  0  0  0  0  0  0  0
   46.8920    9.7571   12.4171 O   0  0  0  0  0  0  0  0  0  0  0  0
   50.5386    6.9314   15.1472 O   0  0  0  0  0  0  0  0  0  0  0  0
   48.8086    8.1158   13.1681 C   0  0  0  0  0  0  0  0  0  0  0  0
   47.3987    7.8387   12.7720 C   0  0  0  0  0  0  0  0  0  0  0  0
   49.6629    8.9254   12.2652 C   0  0  0  0  0  0  0  0  0  0  0  0
   49.3006    7.7418   14.3833 C   0  0  0  0  0  0  0  0  0  0  0  0
   50.2843    7.2430   17.2156 N   0  0  0  0  0  0  0  0  0  0  0  0
   47.0478    6.5241   12.7869 N   0  0  0  0  0  0  0  0  0  0  0  0
   46.5186    8.8482   12.3534 C   0  0  0  0  0  0  0  0  0  0  0  0
   49.3556   10.2839   12.0785 C   0  0  0  0  0  0  0  0  0  0  0  0
   48.4984    6.9729   15.4294 C   0  0  0  0  0  0  0  0  0  0  0  0
   50.6914    8.1148   14.8921 C   0  0  0  0  0  0  0  0  0  0  0  0
   48.1569   10.8748   12.7775 C   0  0  0  0  0  0  0  0  0  0  0  0
   46.8372   10.3246   12.2250 C   0  0  0  0  0  0  0  0  0  0  0  0
   50.6604    8.4109   16.4004 C   0  0  0  0  0  0  0  0  0  0  0  0
   49.3926    6.3174   16.4975 C   0  0  0  0  0  0  0  0  0  0  0  0
   50.7460    8.3520   11.5874 C   0  0  0  0  0  0  0  0  0  0  0  0
   49.7204    7.6654   18.4944 C   0  0  0  0  0  0  0  0  0  0  0  0
   45.7971    6.1927   12.4099 C   0  0  0  0  0  0  0  0  0  0  0  0
   45.2246    8.4500   11.9691 C   0  0  0  0  0  0  0  0  0  0  0  0
   50.1560   11.0592   11.2297 C   0  0  0  0  0  0  0  0  0  0  0  0
   44.8547    7.1116   12.0006 C   0  0  0  0  0  0  0  0  0  0  0  0
   51.5357    9.1324   10.7437 C   0  0  0  0  0  0  0  0  0  0  0  0
   51.2429   10.4842   10.5684 C   0  0  0  0  0  0  0  0  0  0  0  0
   49.3272    8.3599   15.0900 C   0  0  0  0  0  0  0  0  0  0  0  0
   48.2146    9.2806   12.4573 C   0  0  0  0  0  0  0  0  0  0  0  0
   47.7224    8.1252   13.2107 C   0  0  0  0  0  0  0  0  0  0  0  0
   48.2440    7.6845   14.3632 C   0  0  0  0  0  0  0  0  0  0  0  0
   47.5141   10.1581   11.9897 O   0  0  0  0  0  0  0  0  0  0  0  0
   49.6600    9.5262   15.0288 O   0  0  0  0  0  0  0  0  0  0  0  0
   49.9219    7.4889   15.9210 O   0  0  0  0  0  0  0  0  0  0  0  0
   49.5325    9.2016   12.2246 O   0  0  0  0  0  0  0  0  0  0  0  0
   50.8553    9.2118   14.1561 H   0  0  0  0  0  0  0  0  0  0  0  0
   49.0113   10.6372   13.4258 H   0  0  0  0  0  0  0  0  0  0  0  0
   45.9954    9.3622   12.3796 H   0  0  0  0  0  0  0  0  0  0  0  0
   50.3851    5.9637   15.1773 H   0  0  0  0  0  0  0  0  0  0  0  0
   47.7985    7.6626   15.9176 H   0  0  0  0  0  0  0  0  0  0  0  0
   47.9155    6.1671   14.9779 H   0  0  0  0  0  0  0  0  0  0  0  0
   51.0872    9.0062   14.3957 H   0  0  0  0  0  0  0  0  0  0  0  0
   51.3860    7.2909   14.6856 H   0  0  0  0  0  0  0  0  0  0  0  0
   48.2325   10.7049   13.8590 H   0  0  0  0  0  0  0  0  0  0  0  0
   48.1604   11.9649   12.6495 H   0  0  0  0  0  0  0  0  0  0  0  0
   46.0302   10.8773   12.7251 H   0  0  0  0  0  0  0  0  0  0  0  0
   46.7792   10.5765   11.1569 H   0  0  0  0  0  0  0  0  0  0  0  0
   51.6527    8.7508   16.7198 H   0  0  0  0  0  0  0  0  0  0  0  0
   49.9671    9.2471   16.5697 H   0  0  0  0  0  0  0  0  0  0  0  0
   48.7696    5.7462   17.1976 H   0  0  0  0  0  0  0  0  0  0  0  0
   50.0274    5.5689   16.0042 H   0  0  0  0  0  0  0  0  0  0  0  0
   50.9735    7.2964   11.7170 H   0  0  0  0  0  0  0  0  0  0  0  0
   48.7690    8.1954   18.3721 H   0  0  0  0  0  0  0  0  0  0  0  0
   49.5519    6.8003   19.1451 H   0  0  0  0  0  0  0  0  0  0  0  0
   50.4178    8.3238   19.0244 H   0  0  0  0  0  0  0  0  0  0  0  0
   45.5695    5.1316   12.4455 H   0  0  0  0  0  0  0  0  0  0  0  0
   44.5020    9.1897   11.6303 H   0  0  0  0  0  0  0  0  0  0  0  0
   49.9363   12.1123   11.0724 H   0  0  0  0  0  0  0  0  0  0  0  0
   43.8619    6.7953   11.7029 H   0  0  0  0  0  0  0  0  0  0  0  0
   52.3774    8.6847   10.2220 H   0  0  0  0  0  0  0  0  0  0  0  0
   51.8592   11.0905    9.9094 H   0  0  0  0  0  0  0  0  0  0  0  0
   46.8625    7.6348   12.7707 H   0  0  0  0  0  0  0  0  0  0  0  0
   47.8393    6.7990   14.8393 H   0  0  0  0  0  0  0  0  0  0  0  0
   50.6193    8.0228   16.3560 H   0  0  0  0  0  0  0  0  0  0  0  0
   49.7415   10.0337   11.7528 H   0  0  0  0  0  0  0  0  0  0  0  0
  2  3  1  0
  3  4  2  0
  4  1  1  0
  5  2  2  0
  6  1  2  0
  7  1  1  0
  8  2  1  0
 10  9  1  0
 11  9  1  0
 12  9  2  3
 13 21  1  0
 14 10  2  0
 15 10  1  0
 16 11  2  0
 17 12  1  0
 18 12  1  0
 19 16  1  0
 20 15  1  0
 21 18  1  0
 22 17  1  0
 23 11  1  0
 24 13  1  0
 25 14  1  0
 26 15  2  0
 27 16  1  0
 28 26  1  0
 29 23  2  0
 30 29  1  0
 22 13  1  0
 20 19  1  0
 27 30  2  0
 25 28  2  0
 32 33  1  0
 33 34  2  0
 34 31  1  0
 35 32  2  0
 36 31  2  0
 37 31  1  0
 38 32  1  0
  3 39  1  0
  4 40  1  0
  7 41  1  0
  8 42  1  0
 17 43  1  0
 17 44  1  0
 18 45  1  0
 18 46  1  0
 19 47  1  0
 19 48  1  0
 20 49  1  0
 20 50  1  0
 21 51  1  0
 21 52  1  0
 22 53  1  0
 22 54  1  0
 23 55  1  0
 24 56  1  0
 24 57  1  0
 24 58  1  0
 25 59  1  0
 26 60  1  0
 27 61  1  0
 28 62  1  0
 29 63  1  0
 30 64  1  0
 33 65  1  0
 34 66  1  0
 37 67  1  0
 38 68  1  0
M  END
> <Uni-Dock RESULT> 
ENERGY=   -4.620  LOWER_BOUND=    3.930  UPPER_BOUND=    7.089
INTER + INTRA:          -4.620
INTER:                  -4.620
INTRA:                   0.000
UNBOUND:                 0.000

$$$$

     RDKit          3D

 68 69  0  0  0  0  0  0  0  0999 V2000
   44.1313   11.1872   11.1804 C   0  0  0  0  0  0  0  0  0  0  0  0
   45.8433   13.5311   10.5548 C   0  0  0  0  0  0  0  0  0  0  0  0
   44.5519   13.2690    9.9115 C   0  0  0  0  0  0  0  0  0  0  0  0
   43.8136   12.1770   10.1461 C   0  0  0  0  0  0  0  0  0  0  0  0
   46.7098   12.7263   10.8297 O   0  0  0  0  0  0  0  0  0  0  0  0
   44.5888   11.3932   12.2859 O   0  0  0  0  0  0  0  0  0  0  0  0
   43.7828    9.9622   10.7584 O   0  0  0  0  0  0  0  0  0  0  0  0
   45.9874   14.8485   10.7633 O   0  0  0  0  0  0  0  0  0  0  0  0
   45.3156   12.0702   10.3863 C   0  0  0  0  0  0  0  0  0  0  0  0
   45.5215   10.8631   11.2361 C   0  0  0  0  0  0  0  0  0  0  0  0
   44.9734   11.8909    8.9541 C   0  0  0  0  0  0  0  0  0  0  0  0
   45.3235   13.3284   10.9109 C   0  0  0  0  0  0  0  0  0  0  0  0
   44.9726   16.0907   12.1297 N   0  0  0  0  0  0  0  0  0  0  0  0
   46.6976   10.8385   11.9200 N   0  0  0  0  0  0  0  0  0  0  0  0
   44.6035    9.8027   11.2786 C   0  0  0  0  0  0  0  0  0  0  0  0
   43.7273   11.3342    8.6192 C   0  0  0  0  0  0  0  0  0  0  0  0
   45.5867   13.6387   12.3818 C   0  0  0  0  0  0  0  0  0  0  0  0
   44.9880   14.5872   10.1139 C   0  0  0  0  0  0  0  0  0  0  0  0
   42.7851   10.9124    9.7187 C   0  0  0  0  0  0  0  0  0  0  0  0
   43.3100    9.6995   10.4950 C   0  0  0  0  0  0  0  0  0  0  0  0
   44.2039   15.5884   10.9778 C   0  0  0  0  0  0  0  0  0  0  0  0
   45.9594   15.1135   12.6187 C   0  0  0  0  0  0  0  0  0  0  0  0
   45.8770   12.2454    7.9446 C   0  0  0  0  0  0  0  0  0  0  0  0
   44.0774   16.5429   13.1908 C   0  0  0  0  0  0  0  0  0  0  0  0
   46.9687    9.7630   12.6855 C   0  0  0  0  0  0  0  0  0  0  0  0
   44.9337    8.7028   12.0921 C   0  0  0  0  0  0  0  0  0  0  0  0
   43.3920   11.1616    7.2701 C   0  0  0  0  0  0  0  0  0  0  0  0
   46.1240    8.6807   12.8075 C   0  0  0  0  0  0  0  0  0  0  0  0
   45.5338   12.0683    6.6047 C   0  0  0  0  0  0  0  0  0  0  0  0
   44.2921   11.5306    6.2687 C   0  0  0  0  0  0  0  0  0  0  0  0
   44.5141   13.7507   11.1317 C   0  0  0  0  0  0  0  0  0  0  0  0
   44.3877   10.9752    9.9928 C   0  0  0  0  0  0  0  0  0  0  0  0
   45.1501   11.3517   11.1852 C   0  0  0  0  0  0  0  0  0  0  0  0
   45.2451   12.5965   11.6712 C   0  0  0  0  0  0  0  0  0  0  0  0
   43.6328   10.0244    9.9192 O   0  0  0  0  0  0  0  0  0  0  0  0
   43.4895   13.7533   10.4799 O   0  0  0  0  0  0  0  0  0  0  0  0
   45.1278   14.8853   11.5046 O   0  0  0  0  0  0  0  0  0  0  0  0
   44.7120   11.7291    8.9328 O   0  0  0  0  0  0  0  0  0  0  0  0
   44.2313   14.0063    9.1855 H   0  0  0  0  0  0  0  0  0  0  0  0
   42.9025   11.9968    9.5883 H   0  0  0  0  0  0  0  0  0  0  0  0
   44.0463    9.3809   11.5025 H   0  0  0  0  0  0  0  0  0  0  0  0
   46.8605   14.9159   11.2038 H   0  0  0  0  0  0  0  0  0  0  0  0
   44.6882   13.3951   12.9624 H   0  0  0  0  0  0  0  0  0  0  0  0
   46.4132   13.0441   12.7774 H   0  0  0  0  0  0  0  0  0  0  0  0
   44.3736   14.3679    9.2351 H   0  0  0  0  0  0  0  0  0  0  0  0
   45.9171   15.0479    9.7554 H   0  0  0  0  0  0  0  0  0  0  0  0
   42.5926   11.7576   10.3917 H   0  0  0  0  0  0  0  0  0  0  0  0
   41.8108   10.6532    9.2849 H   0  0  0  0  0  0  0  0  0  0  0  0
   42.5212    9.4121   11.2036 H   0  0  0  0  0  0  0  0  0  0  0  0
   43.4238    8.8630    9.7913 H   0  0  0  0  0  0  0  0  0  0  0  0
   43.9103   16.4440   10.3582 H   0  0  0  0  0  0  0  0  0  0  0  0
   43.2759   15.1004   11.3083 H   0  0  0  0  0  0  0  0  0  0  0  0
   46.1771   15.2708   13.6829 H   0  0  0  0  0  0  0  0  0  0  0  0
   46.9060   15.3179   12.1005 H   0  0  0  0  0  0  0  0  0  0  0  0
   46.8490   12.6593    8.2033 H   0  0  0  0  0  0  0  0  0  0  0  0
   43.4987   15.7187   13.6230 H   0  0  0  0  0  0  0  0  0  0  0  0
   44.6456   17.0238   13.9947 H   0  0  0  0  0  0  0  0  0  0  0  0
   43.3774   17.2950   12.8099 H   0  0  0  0  0  0  0  0  0  0  0  0
   47.9175    9.7980   13.2124 H   0  0  0  0  0  0  0  0  0  0  0  0
   44.2615    7.8497   12.1587 H   0  0  0  0  0  0  0  0  0  0  0  0
   42.4327   10.7339    6.9894 H   0  0  0  0  0  0  0  0  0  0  0  0
   46.3883    7.8364   13.4333 H   0  0  0  0  0  0  0  0  0  0  0  0
   46.2364   12.3476    5.8240 H   0  0  0  0  0  0  0  0  0  0  0  0
   44.0270   11.3924    5.2235 H   0  0  0  0  0  0  0  0  0  0  0  0
   45.6419   10.5253   11.6839 H   0  0  0  0  0  0  0  0  0  0  0  0
   45.8596   12.7944   12.5418 H   0  0  0  0  0  0  0  0  0  0  0  0
   44.5756   15.5895   11.1048 H   0  0  0  0  0  0  0  0  0  0  0  0
   44.1203   11.4080    8.2219 H   0  0  0  0  0  0  0  0  0  0  0  0
  2  3  1  0
  3  4  2  0
  4  1  1  0
  5  2  2  0
  6  1  2  0
  7  1  1  0
  8  2  1  0
 10  9  1  0
 11  9  1  0
 12  9  2  3
 13 21  1  0
 14 10  2  0
 15 10  1  0
 16 11  2  0
 17 12  1  0
 18 12  1  0
 19 16  1  0
 20 15  1  0
 21 18  1  0
 22 17  1  0
 23 11  1  0
 24 13  1  0
 25 14  1  0
 26 15  2  0
 27 16  1  0
 28 26  1  0
 29 23  2  0
 30 29  1  0
 22 13  1  0
 20 19  1  0
 27 30  2  0
 25 28  2  0
 32 33  1  0
 33 34  2  0
 34 31  1  0
 35 32  2  0
 36 31  2  0
 37 31  1  0
 38 32  1  0
  3 39  1  0
  4 40  1  0
  7 41  1  0
  8 42  1  0
 17 43  1  0
 17 44  1  0
 18 45  1  0
 18 46  1  0
 19 47  1  0
 19 48  1  0
 20 49  1  0
 20 50  1  0
 21 51  1  0
 21 52  1  0
 22 53  1  0
 22 54  1  0
 23 55  1  0
 24 56  1  0
 24 57  1  0
 24 58  1  0
 25 59  1  0
 26 60  1  0
 27 61  1  0
 28 62  1  0
 29 63  1  0
 30 64  1  0
 33 65  1  0
 34 66  1  0
 37 67  1  0
 38 68  1  0
M  END
> <Uni-Dock RESULT> 
ENERGY=   -4.602  LOWER_BOUND=    9.308  UPPER_BOUND=   12.539
INTER + INTRA:          -4.602
INTER:                  -4.602
INTRA:                   0.000
UNBOUND:                 0.000

$$$$

     RDKit          3D

 68 69  0  0  0  0  0  0  0  0999 V2000
   49.1336    7.8988   18.9881 C   0  0  0  0  0  0  0  0  0  0  0  0
   49.2578    5.3670   20.5343 C   0  0  0  0  0  0  0  0  0  0  0  0
   49.7231    5.5016   19.1503 C   0  0  0  0  0  0  0  0  0  0  0  0
   49.6045    6.6259   18.4330 C   0  0  0  0  0  0  0  0  0  0  0  0
   48.2581    5.8471   21.0287 O   0  0  0  0  0  0  0  0  0  0  0  0
   49.3628    8.3558   20.0893 O   0  0  0  0  0  0  0  0  0  0  0  0
   48.4266    8.5639   18.0618 O   0  0  0  0  0  0  0  0  0  0  0  0
   50.0835    4.5571   21.2141 O   0  0  0  0  0  0  0  0  0  0  0  0
   48.6127    6.4154   19.5720 C   0  0  0  0  0  0  0  0  0  0  0  0
   48.0099    7.7484   19.8573 C   0  0  0  0  0  0  0  0  0  0  0  0
   48.2034    5.6894   18.3449 C   0  0  0  0  0  0  0  0  0  0  0  0
   49.6079    5.8961   20.3456 C   0  0  0  0  0  0  0  0  0  0  0  0
   52.0650    4.9093   21.8380 N   0  0  0  0  0  0  0  0  0  0  0  0
   47.4529    7.8720   21.0927 N   0  0  0  0  0  0  0  0  0  0  0  0
   47.9623    8.7765   18.9036 C   0  0  0  0  0  0  0  0  0  0  0  0
   48.5619    6.2177   17.0930 C   0  0  0  0  0  0  0  0  0  0  0  0
   50.1688    6.5811   21.5888 C   0  0  0  0  0  0  0  0  0  0  0  0
   50.3505    4.6008   20.0243 C   0  0  0  0  0  0  0  0  0  0  0  0
   49.3279    7.5152   17.0287 C   0  0  0  0  0  0  0  0  0  0  0  0
   48.4796    8.7093   17.4804 C   0  0  0  0  0  0  0  0  0  0  0  0
   51.8379    4.7172   20.3953 C   0  0  0  0  0  0  0  0  0  0  0  0
   50.9521    5.6143   22.4953 C   0  0  0  0  0  0  0  0  0  0  0  0
   47.4531    4.5092   18.4191 C   0  0  0  0  0  0  0  0  0  0  0  0
   53.3468    5.5665   22.0763 C   0  0  0  0  0  0  0  0  0  0  0  0
   46.8598    9.0393   21.4118 C   0  0  0  0  0  0  0  0  0  0  0  0
   47.3313    9.9750   19.2859 C   0  0  0  0  0  0  0  0  0  0  0  0
   48.1826    5.5402   15.9271 C   0  0  0  0  0  0  0  0  0  0  0  0
   46.7778   10.1136   20.5522 C   0  0  0  0  0  0  0  0  0  0  0  0
   47.0796    3.8433   17.2522 C   0  0  0  0  0  0  0  0  0  0  0  0
   47.4470    4.3564   16.0090 C   0  0  0  0  0  0  0  0  0  0  0  0
   50.5049    5.9912   20.0838 C   0  0  0  0  0  0  0  0  0  0  0  0
   48.3898    7.1810   18.3153 C   0  0  0  0  0  0  0  0  0  0  0  0
   48.5552    7.4883   19.7378 C   0  0  0  0  0  0  0  0  0  0  0  0
   49.4689    6.9269   20.5407 C   0  0  0  0  0  0  0  0  0  0  0  0
   48.2602    8.0087   17.4336 O   0  0  0  0  0  0  0  0  0  0  0  0
   50.9576    5.8592   18.9647 O   0  0  0  0  0  0  0  0  0  0  0  0
   50.9573    5.2774   21.1273 O   0  0  0  0  0  0  0  0  0  0  0  0
   48.2676    5.8637   18.0990 O   0  0  0  0  0  0  0  0  0  0  0  0
   50.1467    4.6076   18.7088 H   0  0  0  0  0  0  0  0  0  0  0  0
   49.8977    6.6485   17.3904 H   0  0  0  0  0  0  0  0  0  0  0  0
   48.1484    9.3795   18.5291 H   0  0  0  0  0  0  0  0  0  0  0  0
   49.7004    4.5454   22.1163 H   0  0  0  0  0  0  0  0  0  0  0  0
   50.8298    7.3989   21.2757 H   0  0  0  0  0  0  0  0  0  0  0  0
   49.3753    7.0084   22.2059 H   0  0  0  0  0  0  0  0  0  0  0  0
   50.3014    4.3500   18.9601 H   0  0  0  0  0  0  0  0  0  0  0  0
   49.8897    3.7721   20.5764 H   0  0  0  0  0  0  0  0  0  0  0  0
   50.2469    7.4376   17.6233 H   0  0  0  0  0  0  0  0  0  0  0  0
   49.6584    7.6932   15.9973 H   0  0  0  0  0  0  0  0  0  0  0  0
   49.0855    9.6099   17.3106 H   0  0  0  0  0  0  0  0  0  0  0  0
   47.6079    8.7839   16.8154 H   0  0  0  0  0  0  0  0  0  0  0  0
   52.3584    3.8045   20.0816 H   0  0  0  0  0  0  0  0  0  0  0  0
   52.2702    5.5457   19.8164 H   0  0  0  0  0  0  0  0  0  0  0  0
   51.2963    6.1480   23.3904 H   0  0  0  0  0  0  0  0  0  0  0  0
   50.2564    4.8506   22.8682 H   0  0  0  0  0  0  0  0  0  0  0  0
   47.1594    4.1095   19.3870 H   0  0  0  0  0  0  0  0  0  0  0  0
   53.3652    6.5908   21.6869 H   0  0  0  0  0  0  0  0  0  0  0  0
   53.5677    5.6016   23.1489 H   0  0  0  0  0  0  0  0  0  0  0  0
   54.1617    5.0034   21.6078 H   0  0  0  0  0  0  0  0  0  0  0  0
   46.4367    9.0848   22.4108 H   0  0  0  0  0  0  0  0  0  0  0  0
   47.2601   10.8041   18.5847 H   0  0  0  0  0  0  0  0  0  0  0  0
   48.4508    5.9311   14.9487 H   0  0  0  0  0  0  0  0  0  0  0  0
   46.2867   11.0313   20.8539 H   0  0  0  0  0  0  0  0  0  0  0  0
   46.5002    2.9259   17.3138 H   0  0  0  0  0  0  0  0  0  0  0  0
   47.1538    3.8362   15.1006 H   0  0  0  0  0  0  0  0  0  0  0  0
   47.8759    8.2422   20.1168 H   0  0  0  0  0  0  0  0  0  0  0  0
   49.5012    7.1871   21.5923 H   0  0  0  0  0  0  0  0  0  0  0  0
   51.6350    4.6909   20.7305 H   0  0  0  0  0  0  0  0  0  0  0  0
   48.1993    5.7874   17.1253 H   0  0  0  0  0  0  0  0  0  0  0  0
  2  3  1  0
  3  4  2  0
  4  1  1  0
  5  2  2  0
  6  1  2  0
  7  1  1  0
  8  2  1  0
 10  9  1  0
 11  9  1  0
 12  9  2  3
 13 21  1  0
 14 10  2  0
 15 10  1  0
 16 11  2  0
 17 12  1  0
 18 12  1  0
 19 16  1  0
 20 15  1  0
 21 18  1  0
 22 17  1  0
 23 11  1  0
 24 13  1  0
 25 14  1  0
 26 15  2  0
 27 16  1  0
 28 26  1  0
 29 23  2  0
 30 29  1  0
 22 13  1  0
 20 19  1  0
 27 30  2  0
 25 28  2  0
 32 33  1  0
 33 34  2  0
 34 31  1  0
 35 32  2  0
 36 31  2  0
 37 31  1  0
 38 32  1  0
  3 39  1  0
  4 40  1  0
  7 41  1  0
  8 42  1  0
 17 43  1  0
 17 44  1  0
 18 45  1  0
 18 46  1  0
 19 47  1  0
 19 48  1  0
 20 49  1  0
 20 50  1  0
 21 51  1  0
 21 52  1  0
 22 53  1  0
 22 54  1  0
 23 55  1  0
 24 56  1  0
 24 57  1  0
 24 58  1  0
 25 59  1  0
 26 60  1  0
 27 61  1  0
 28 62  1  0
 29 63  1  0
 30 64  1  0
 33 65  1  0
 34 66  1  0
 37 67  1  0
 38 68  1  0
M  END
> <Uni-Dock RESULT> 
ENERGY=   -4.552  LOWER_BOUND=    2.451  UPPER_BOUND=    4.376
INTER + INTRA:          -4.552
INTER:                  -4.552
INTRA:                   0.000
UNBOUND:                 0.000

$$$$
