
     RDKit          3D

 68 69  0  0  0  0  0  0  0  0999 V2000
   41.2695   11.6620   10.5610 C   0  0  0  0  0  0  0  0  0  0  0  0
   43.6106    9.7910   10.3887 C   0  0  0  0  0  0  0  0  0  0  0  0
   43.6630   11.2219   10.0584 C   0  0  0  0  0  0  0  0  0  0  0  0
   42.6044   12.0428   10.0951 C   0  0  0  0  0  0  0  0  0  0  0  0
   42.6427    9.0576   10.4066 O   0  0  0  0  0  0  0  0  0  0  0  0
   40.2305   11.8988    9.9744 O   0  0  0  0  0  0  0  0  0  0  0  0
   41.3049   11.1318   11.7915 O   0  0  0  0  0  0  0  0  0  0  0  0
   44.8516    9.3435   10.6443 O   0  0  0  0  0  0  0  0  0  0  0  0
   42.9762   10.3088   10.1679 C   0  0  0  0  0  0  0  0  0  0  0  0
   43.5599    9.1921   10.9619 C   0  0  0  0  0  0  0  0  0  0  0  0
   43.8498   11.0765    9.2471 C   0  0  0  0  0  0  0  0  0  0  0  0
   41.6879   10.7087   10.3643 C   0  0  0  0  0  0  0  0  0  0  0  0
   38.9157   11.7635   11.0266 N   0  0  0  0  0  0  0  0  0  0  0  0
   42.8709    8.0200   10.8805 N   0  0  0  0  0  0  0  0  0  0  0  0
   44.7399    9.3281   11.7084 C   0  0  0  0  0  0  0  0  0  0  0  0
   44.8607   11.8852    9.7947 C   0  0  0  0  0  0  0  0  0  0  0  0
   41.0378   11.8828    9.6377 C   0  0  0  0  0  0  0  0  0  0  0  0
   40.7524   10.0813   11.3949 C   0  0  0  0  0  0  0  0  0  0  0  0
   45.0579   11.9138   11.2904 C   0  0  0  0  0  0  0  0  0  0  0  0
   45.5942   10.5762   11.8172 C   0  0  0  0  0  0  0  0  0  0  0  0
   39.8213   11.1396   12.0090 C   0  0  0  0  0  0  0  0  0  0  0  0
   39.5004   11.8156    9.6761 C   0  0  0  0  0  0  0  0  0  0  0  0
   43.7214   10.9666    7.8570 C   0  0  0  0  0  0  0  0  0  0  0  0
   38.4846   13.0790   11.4932 C   0  0  0  0  0  0  0  0  0  0  0  0
   43.3463    6.9567   11.5577 C   0  0  0  0  0  0  0  0  0  0  0  0
   45.1957    8.1865   12.3926 C   0  0  0  0  0  0  0  0  0  0  0  0
   45.7008   12.6114    8.9407 C   0  0  0  0  0  0  0  0  0  0  0  0
   44.4936    6.9893   12.3224 C   0  0  0  0  0  0  0  0  0  0  0  0
   44.5649   11.6903    7.0146 C   0  0  0  0  0  0  0  0  0  0  0  0
   45.5482   12.5170    7.5564 C   0  0  0  0  0  0  0  0  0  0  0  0
   41.4201   11.8547   10.2662 C   0  0  0  0  0  0  0  0  0  0  0  0
   43.4340    9.6849   10.7673 C   0  0  0  0  0  0  0  0  0  0  0  0
   43.7131   10.9232   10.0273 C   0  0  0  0  0  0  0  0  0  0  0  0
   42.7972   11.8663    9.7672 C   0  0  0  0  0  0  0  0  0  0  0  0
   42.3654    9.1302   10.9267 O   0  0  0  0  0  0  0  0  0  0  0  0
   40.4323   12.0850    9.5938 O   0  0  0  0  0  0  0  0  0  0  0  0
   41.3720   11.6937   11.5958 O   0  0  0  0  0  0  0  0  0  0  0  0
   44.5837    9.1754   11.2411 O   0  0  0  0  0  0  0  0  0  0  0  0
   44.6266   11.5933    9.7304 H   0  0  0  0  0  0  0  0  0  0  0  0
   42.6873   13.0672    9.7529 H   0  0  0  0  0  0  0  0  0  0  0  0
   40.3738   10.8897   11.9735 H   0  0  0  0  0  0  0  0  0  0  0  0
   44.7187    8.3937   10.8487 H   0  0  0  0  0  0  0  0  0  0  0  0
   41.3303   11.9119    8.5836 H   0  0  0  0  0  0  0  0  0  0  0  0
   41.3720   12.8192   10.1021 H   0  0  0  0  0  0  0  0  0  0  0  0
   41.3063    9.6245   12.2209 H   0  0  0  0  0  0  0  0  0  0  0  0
   40.1571    9.2935   10.9175 H   0  0  0  0  0  0  0  0  0  0  0  0
   44.1204   12.1883   11.7905 H   0  0  0  0  0  0  0  0  0  0  0  0
   45.7740   12.7042   11.5492 H   0  0  0  0  0  0  0  0  0  0  0  0
   45.8222   10.7250   12.8808 H   0  0  0  0  0  0  0  0  0  0  0  0
   46.5478   10.3615   11.3157 H   0  0  0  0  0  0  0  0  0  0  0  0
   40.4473   11.8994   12.4973 H   0  0  0  0  0  0  0  0  0  0  0  0
   39.2167   10.6743   12.7953 H   0  0  0  0  0  0  0  0  0  0  0  0
   39.1817   10.9075    9.1468 H   0  0  0  0  0  0  0  0  0  0  0  0
   39.0811   12.6466    9.0949 H   0  0  0  0  0  0  0  0  0  0  0  0
   42.9644   10.3132    7.4287 H   0  0  0  0  0  0  0  0  0  0  0  0
   39.3222   13.7782   11.5954 H   0  0  0  0  0  0  0  0  0  0  0  0
   37.7541   13.5215   10.8031 H   0  0  0  0  0  0  0  0  0  0  0  0
   37.9835   12.9935   12.4625 H   0  0  0  0  0  0  0  0  0  0  0  0
   42.7591    6.0479   11.4627 H   0  0  0  0  0  0  0  0  0  0  0  0
   46.1102    8.2280   12.9801 H   0  0  0  0  0  0  0  0  0  0  0  0
   46.4883   13.2425    9.3456 H   0  0  0  0  0  0  0  0  0  0  0  0
   44.8370    6.1040   12.8455 H   0  0  0  0  0  0  0  0  0  0  0  0
   44.4578   11.6037    5.9360 H   0  0  0  0  0  0  0  0  0  0  0  0
   46.2068   13.0774    6.8981 H   0  0  0  0  0  0  0  0  0  0  0  0
   44.7232   11.0272    9.6482 H   0  0  0  0  0  0  0  0  0  0  0  0
   43.0403   12.7138    9.1370 H   0  0  0  0  0  0  0  0  0  0  0  0
   40.4146   11.6713   11.7996 H   0  0  0  0  0  0  0  0  0  0  0  0
   44.3008    8.3623   11.7106 H   0  0  0  0  0  0  0  0  0  0  0  0
  2  3  1  0
  3  4  2  0
  4  1  1  0
  5  2  2  0
  6  1  2  0
  7  1  1  0
  8  2  1  0
 10  9  1  0
 11  9  1  0
 12  9  2  3
 13 21  1  0
 14 10  2  0
 15 10  1  0
 16 11  2  0
 17 12  1  0
 18 12  1  0
 19 16  1  0
 20 15  1  0
 21 18  1  0
 22 17  1  0
 23 11  1  0
 24 13  1  0
 25 14  1  0
 26 15  2  0
 27 16  1  0
 28 26  1  0
 29 23  2  0
 30 29  1  0
 22 13  1  0
 20 19  1  0
 27 30  2  0
 25 28  2  0
 32 33  1  0
 33 34  2  0
 34 31  1  0
 35 32  2  0
 36 31  2  0
 37 31  1  0
 38 32  1  0
  3 39  1  0
  4 40  1  0
  7 41  1  0
  8 42  1  0
 17 43  1  0
 17 44  1  0
 18 45  1  0
 18 46  1  0
 19 47  1  0
 19 48  1  0
 20 49  1  0
 20 50  1  0
 21 51  1  0
 21 52  1  0
 22 53  1  0
 22 54  1  0
 23 55  1  0
 24 56  1  0
 24 57  1  0
 24 58  1  0
 25 59  1  0
 26 60  1  0
 27 61  1  0
 28 62  1  0
 29 63  1  0
 30 64  1  0
 33 65  1  0
 34 66  1  0
 37 67  1  0
 38 68  1  0
M  END
> <Uni-Dock RESULT> 
ENERGY=   -6.369  LOWER_BOUND=    0.000  UPPER_BOUND=    0.000
INTER + INTRA:          -6.369
INTER:                  -6.369
INTRA:                   0.000
UNBOUND:                 0.000

$$$$

     RDKit          3D

 68 69  0  0  0  0  0  0  0  0999 V2000
   46.4063    6.0840   12.5042 C   0  0  0  0  0  0  0  0  0  0  0  0
   47.2202    8.9453   12.9069 C   0  0  0  0  0  0  0  0  0  0  0  0
   48.0919    7.7891   13.1571 C   0  0  0  0  0  0  0  0  0  0  0  0
   47.7089    6.5125   13.0176 C   0  0  0  0  0  0  0  0  0  0  0  0
   46.0065    8.9808   12.8797 O   0  0  0  0  0  0  0  0  0  0  0  0
   45.6933    5.2445   13.0205 O   0  0  0  0  0  0  0  0  0  0  0  0
   46.1387    6.6298   11.3096 O   0  0  0  0  0  0  0  0  0  0  0  0
   47.9716   10.0472   12.7433 O   0  0  0  0  0  0  0  0  0  0  0  0
   47.0033    8.1405   13.0638 C   0  0  0  0  0  0  0  0  0  0  0  0
   46.8362    9.4460   12.3669 C   0  0  0  0  0  0  0  0  0  0  0  0
   48.1513    7.9526   13.9841 C   0  0  0  0  0  0  0  0  0  0  0  0
   46.1901    7.0847   12.7769 C   0  0  0  0  0  0  0  0  0  0  0  0
   44.5556    4.6738   11.9096 N   0  0  0  0  0  0  0  0  0  0  0  0
   45.5932    9.9915   12.4787 N   0  0  0  0  0  0  0  0  0  0  0  0
   47.8823   10.0771   11.6774 C   0  0  0  0  0  0  0  0  0  0  0  0
   49.4493    7.9245   13.4455 C   0  0  0  0  0  0  0  0  0  0  0  0
   46.3372    5.6993   13.3998 C   0  0  0  0  0  0  0  0  0  0  0  0
   45.0744    7.1314   11.7359 C   0  0  0  0  0  0  0  0  0  0  0  0
   49.6411    8.1312   11.9631 C   0  0  0  0  0  0  0  0  0  0  0  0
   49.3043    9.5678   11.5428 C   0  0  0  0  0  0  0  0  0  0  0  0
   44.9388    5.7807   11.0138 C   0  0  0  0  0  0  0  0  0  0  0  0
   45.0481    4.8659   13.2840 C   0  0  0  0  0  0  0  0  0  0  0  0
   47.9694    7.8599   15.3695 C   0  0  0  0  0  0  0  0  0  0  0  0
   44.9748    3.3927   11.3464 C   0  0  0  0  0  0  0  0  0  0  0  0
   45.3679   11.1821   11.8894 C   0  0  0  0  0  0  0  0  0  0  0  0
   47.5956   11.3204   11.0847 C   0  0  0  0  0  0  0  0  0  0  0  0
   50.5467    7.7561   14.2999 C   0  0  0  0  0  0  0  0  0  0  0  0
   46.3274   11.8795   11.1860 C   0  0  0  0  0  0  0  0  0  0  0  0
   49.0681    7.6963   16.2126 C   0  0  0  0  0  0  0  0  0  0  0  0
   50.3541    7.6372   15.6773 C   0  0  0  0  0  0  0  0  0  0  0  0
   46.6380    5.9921   12.7950 C   0  0  0  0  0  0  0  0  0  0  0  0
   47.0186    8.9583   12.5261 C   0  0  0  0  0  0  0  0  0  0  0  0
   47.9586    8.0581   13.2078 C   0  0  0  0  0  0  0  0  0  0  0  0
   47.7598    6.7421   13.3648 C   0  0  0  0  0  0  0  0  0  0  0  0
   45.8283    8.8014   12.3423 O   0  0  0  0  0  0  0  0  0  0  0  0
   45.9620    5.1810   13.4000 O   0  0  0  0  0  0  0  0  0  0  0  0
   46.5183    6.1976   11.4762 O   0  0  0  0  0  0  0  0  0  0  0  0
   47.6618   10.0744   12.1438 O   0  0  0  0  0  0  0  0  0  0  0  0
   49.0886    8.0207   13.5139 H   0  0  0  0  0  0  0  0  0  0  0  0
   48.3690    5.7030   13.3046 H   0  0  0  0  0  0  0  0  0  0  0  0
   45.2424    6.3008   11.0927 H   0  0  0  0  0  0  0  0  0  0  0  0
   47.3131   10.7565   12.5868 H   0  0  0  0  0  0  0  0  0  0  0  0
   46.5817    5.7637   14.4645 H   0  0  0  0  0  0  0  0  0  0  0  0
   47.1584    5.1690   12.9010 H   0  0  0  0  0  0  0  0  0  0  0  0
   45.2672    7.8868   10.9678 H   0  0  0  0  0  0  0  0  0  0  0  0
   44.1272    7.3888   12.2253 H   0  0  0  0  0  0  0  0  0  0  0  0
   49.0432    7.4039   11.3993 H   0  0  0  0  0  0  0  0  0  0  0  0
   50.6858    7.9248   11.6979 H   0  0  0  0  0  0  0  0  0  0  0  0
   49.5867    9.6615   10.4860 H   0  0  0  0  0  0  0  0  0  0  0  0
   49.9500   10.2559   12.1055 H   0  0  0  0  0  0  0  0  0  0  0  0
   45.8947    5.5646   10.5167 H   0  0  0  0  0  0  0  0  0  0  0  0
   44.1841    5.8687   10.2245 H   0  0  0  0  0  0  0  0  0  0  0  0
   44.2554    5.3771   13.8467 H   0  0  0  0  0  0  0  0  0  0  0  0
   45.1849    3.9038   13.7937 H   0  0  0  0  0  0  0  0  0  0  0  0
   46.9694    7.9183   15.7938 H   0  0  0  0  0  0  0  0  0  0  0  0
   46.0638    3.3187   11.2489 H   0  0  0  0  0  0  0  0  0  0  0  0
   44.6314    2.5571   11.9704 H   0  0  0  0  0  0  0  0  0  0  0  0
   44.5270    3.2467   10.3584 H   0  0  0  0  0  0  0  0  0  0  0  0
   44.3607   11.5718   12.0050 H   0  0  0  0  0  0  0  0  0  0  0  0
   48.3693   11.8620   10.5450 H   0  0  0  0  0  0  0  0  0  0  0  0
   51.5583    7.7316   13.9018 H   0  0  0  0  0  0  0  0  0  0  0  0
   46.0968   12.8371   10.7332 H   0  0  0  0  0  0  0  0  0  0  0  0
   48.9200    7.6212   17.2872 H   0  0  0  0  0  0  0  0  0  0  0  0
   51.2093    7.5134   16.3364 H   0  0  0  0  0  0  0  0  0  0  0  0
   48.8370    8.5297   13.6333 H   0  0  0  0  0  0  0  0  0  0  0  0
   48.4444    6.1466   13.9575 H   0  0  0  0  0  0  0  0  0  0  0  0
   45.7286    5.6768   11.2235 H   0  0  0  0  0  0  0  0  0  0  0  0
   46.9633   10.6065   11.7072 H   0  0  0  0  0  0  0  0  0  0  0  0
  2  3  1  0
  3  4  2  0
  4  1  1  0
  5  2  2  0
  6  1  2  0
  7  1  1  0
  8  2  1  0
 10  9  1  0
 11  9  1  0
 12  9  2  3
 13 21  1  0
 14 10  2  0
 15 10  1  0
 16 11  2  0
 17 12  1  0
 18 12  1  0
 19 16  1  0
 20 15  1  0
 21 18  1  0
 22 17  1  0
 23 11  1  0
 24 13  1  0
 25 14  1  0
 26 15  2  0
 27 16  1  0
 28 26  1  0
 29 23  2  0
 30 29  1  0
 22 13  1  0
 20 19  1  0
 27 30  2  0
 25 28  2  0
 32 33  1  0
 33 34  2  0
 34 31  1  0
 35 32  2  0
 36 31  2  0
 37 31  1  0
 38 32  1  0
  3 39  1  0
  4 40  1  0
  7 41  1  0
  8 42  1  0
 17 43  1  0
 17 44  1  0
 18 45  1  0
 18 46  1  0
 19 47  1  0
 19 48  1  0
 20 49  1  0
 20 50  1  0
 21 51  1  0
 21 52  1  0
 22 53  1  0
 22 54  1  0
 23 55  1  0
 24 56  1  0
 24 57  1  0
 24 58  1  0
 25 59  1  0
 26 60  1  0
 27 61  1  0
 28 62  1  0
 29 63  1  0
 30 64  1  0
 33 65  1  0
 34 66  1  0
 37 67  1  0
 38 68  1  0
M  END
> <Uni-Dock RESULT> 
ENERGY=   -6.173  LOWER_BOUND=    4.040  UPPER_BOUND=    7.070
INTER + INTRA:          -6.173
INTER:                  -6.173
INTRA:                   0.000
UNBOUND:                 0.000

$$$$

     RDKit          3D

 68 69  0  0  0  0  0  0  0  0999 V2000
   51.3365    5.5499   21.4170 C   0  0  0  0  0  0  0  0  0  0  0  0
   48.5143    5.1093   20.4936 C   0  0  0  0  0  0  0  0  0  0  0  0
   48.9339    6.1841   21.4035 C   0  0  0  0  0  0  0  0  0  0  0  0
   50.1876    6.3493   21.8470 C   0  0  0  0  0  0  0  0  0  0  0  0
   49.0705    4.0531   20.2694 O   0  0  0  0  0  0  0  0  0  0  0  0
   52.1546    5.0446   22.1620 O   0  0  0  0  0  0  0  0  0  0  0  0
   51.4679    5.5456   20.0832 O   0  0  0  0  0  0  0  0  0  0  0  0
   47.3379    5.4317   19.9300 O   0  0  0  0  0  0  0  0  0  0  0  0
   49.2027    5.1487   20.9875 C   0  0  0  0  0  0  0  0  0  0  0  0
   48.4951    4.7898   19.7272 C   0  0  0  0  0  0  0  0  0  0  0  0
   48.4696    5.8876   22.0444 C   0  0  0  0  0  0  0  0  0  0  0  0
   50.5378    4.9147   21.1317 C   0  0  0  0  0  0  0  0  0  0  0  0
   53.5599    4.6482   21.3121 N   0  0  0  0  0  0  0  0  0  0  0  0
   48.6059    3.4802   19.3698 N   0  0  0  0  0  0  0  0  0  0  0  0
   47.7499    5.7182   18.9850 C   0  0  0  0  0  0  0  0  0  0  0  0
   48.0766    7.2131   21.7910 C   0  0  0  0  0  0  0  0  0  0  0  0
   51.3461    5.3104   22.3643 C   0  0  0  0  0  0  0  0  0  0  0  0
   51.4131    4.2959   20.0447 C   0  0  0  0  0  0  0  0  0  0  0  0
   48.3680    7.8278   20.4441 C   0  0  0  0  0  0  0  0  0  0  0  0
   47.5338    7.1784   19.3321 C   0  0  0  0  0  0  0  0  0  0  0  0
   52.8242    4.9066   20.0606 C   0  0  0  0  0  0  0  0  0  0  0  0
   52.6655    4.5252   22.4755 C   0  0  0  0  0  0  0  0  0  0  0  0
   48.1181    5.2755   23.2539 C   0  0  0  0  0  0  0  0  0  0  0  0
   54.5939    5.6600   21.5147 C   0  0  0  0  0  0  0  0  0  0  0  0
   47.9781    3.0733   18.2492 C   0  0  0  0  0  0  0  0  0  0  0  0
   47.1102    5.2408   17.8264 C   0  0  0  0  0  0  0  0  0  0  0  0
   47.3762    7.9244   22.7739 C   0  0  0  0  0  0  0  0  0  0  0  0
   47.2260    3.9082   17.4496 C   0  0  0  0  0  0  0  0  0  0  0  0
   47.4175    5.9902   24.2250 C   0  0  0  0  0  0  0  0  0  0  0  0
   47.0537    7.3151   23.9877 C   0  0  0  0  0  0  0  0  0  0  0  0
   51.1929    5.6810   21.7470 C   0  0  0  0  0  0  0  0  0  0  0  0
   48.7400    5.0635   20.1292 C   0  0  0  0  0  0  0  0  0  0  0  0
   48.7631    5.9561   21.2961 C   0  0  0  0  0  0  0  0  0  0  0  0
   49.8517    6.1908   22.0417 C   0  0  0  0  0  0  0  0  0  0  0  0
   49.4967    4.1503   19.8674 O   0  0  0  0  0  0  0  0  0  0  0  0
   51.9381    5.1668   22.5601 O   0  0  0  0  0  0  0  0  0  0  0  0
   51.5723    5.9683   20.4942 O   0  0  0  0  0  0  0  0  0  0  0  0
   47.6841    5.3639   19.3542 O   0  0  0  0  0  0  0  0  0  0  0  0
   48.1451    6.8422   21.7484 H   0  0  0  0  0  0  0  0  0  0  0  0
   50.4166    7.1057   22.5879 H   0  0  0  0  0  0  0  0  0  0  0  0
   52.2354    4.9596   19.9212 H   0  0  0  0  0  0  0  0  0  0  0  0
   47.1401    4.6659   19.3505 H   0  0  0  0  0  0  0  0  0  0  0  0
   50.7856    5.1258   23.2860 H   0  0  0  0  0  0  0  0  0  0  0  0
   51.5657    6.3846   22.3176 H   0  0  0  0  0  0  0  0  0  0  0  0
   51.0014    4.4678   19.0453 H   0  0  0  0  0  0  0  0  0  0  0  0
   51.4749    3.2116   20.1973 H   0  0  0  0  0  0  0  0  0  0  0  0
   49.4409    7.7626   20.2226 H   0  0  0  0  0  0  0  0  0  0  0  0
   48.1365    8.9001   20.4743 H   0  0  0  0  0  0  0  0  0  0  0  0
   47.7155    7.7619   18.4200 H   0  0  0  0  0  0  0  0  0  0  0  0
   46.4701    7.2993   19.5789 H   0  0  0  0  0  0  0  0  0  0  0  0
   52.7281    5.9868   19.8827 H   0  0  0  0  0  0  0  0  0  0  0  0
   53.4025    4.4981   19.2246 H   0  0  0  0  0  0  0  0  0  0  0  0
   52.4240    3.4599   22.5909 H   0  0  0  0  0  0  0  0  0  0  0  0
   53.1819    4.8029   23.4031 H   0  0  0  0  0  0  0  0  0  0  0  0
   48.3881    4.2381   23.4392 H   0  0  0  0  0  0  0  0  0  0  0  0
   54.1737    6.6653   21.6315 H   0  0  0  0  0  0  0  0  0  0  0  0
   55.1943    5.4364   22.4064 H   0  0  0  0  0  0  0  0  0  0  0  0
   55.2876    5.6699   20.6681 H   0  0  0  0  0  0  0  0  0  0  0  0
   48.1005    2.0218   18.0066 H   0  0  0  0  0  0  0  0  0  0  0  0
   46.5102    5.9115   17.2154 H   0  0  0  0  0  0  0  0  0  0  0  0
   47.0640    8.9508   22.5963 H   0  0  0  0  0  0  0  0  0  0  0  0
   46.7365    3.5307   16.5590 H   0  0  0  0  0  0  0  0  0  0  0  0
   47.1508    5.5105   25.1636 H   0  0  0  0  0  0  0  0  0  0  0  0
   46.5046    7.8691   24.7443 H   0  0  0  0  0  0  0  0  0  0  0  0
   47.8131    6.4031   21.5653 H   0  0  0  0  0  0  0  0  0  0  0  0
   49.7849    6.7858   22.9450 H   0  0  0  0  0  0  0  0  0  0  0  0
   52.4559    5.5548   20.4110 H   0  0  0  0  0  0  0  0  0  0  0  0
   47.7505    4.7242   18.6139 H   0  0  0  0  0  0  0  0  0  0  0  0
  2  3  1  0
  3  4  2  0
  4  1  1  0
  5  2  2  0
  6  1  2  0
  7  1  1  0
  8  2  1  0
 10  9  1  0
 11  9  1  0
 12  9  2  3
 13 21  1  0
 14 10  2  0
 15 10  1  0
 16 11  2  0
 17 12  1  0
 18 12  1  0
 19 16  1  0
 20 15  1  0
 21 18  1  0
 22 17  1  0
 23 11  1  0
 24 13  1  0
 25 14  1  0
 26 15  2  0
 27 16  1  0
 28 26  1  0
 29 23  2  0
 30 29  1  0
 22 13  1  0
 20 19  1  0
 27 30  2  0
 25 28  2  0
 32 33  1  0
 33 34  2  0
 34 31  1  0
 35 32  2  0
 36 31  2  0
 37 31  1  0
 38 32  1  0
  3 39  1  0
  4 40  1  0
  7 41  1  0
  8 42  1  0
 17 43  1  0
 17 44  1  0
 18 45  1  0
 18 46  1  0
 19 47  1  0
 19 48  1  0
 20 49  1  0
 20 50  1  0
 21 51  1  0
 21 52  1  0
 22 53  1  0
 22 54  1  0
 23 55  1  0
 24 56  1  0
 24 57  1  0
 24 58  1  0
 25 59  1  0
 26 60  1  0
 27 61  1  0
 28 62  1  0
 29 63  1  0
 30 64  1  0
 33 65  1  0
 34 66  1  0
 37 67  1  0
 38 68  1  0
M  END
> <Uni-Dock RESULT> 
ENERGY=   -5.706  LOWER_BOUND=   10.922  UPPER_BOUND=   14.365
INTER + INTRA:          -5.706
INTER:                  -5.706
INTRA:                   0.000
UNBOUND:                 0.000

$$$$

     RDKit          3D

 68 69  0  0  0  0  0  0  0  0999 V2000
   49.6335    6.5150   17.0639 C   0  0  0  0  0  0  0  0  0  0  0  0
   49.4850    4.8236   19.5395 C   0  0  0  0  0  0  0  0  0  0  0  0
   50.5514    4.7330   18.5325 C   0  0  0  0  0  0  0  0  0  0  0  0
   50.5890    5.4600   17.4074 C   0  0  0  0  0  0  0  0  0  0  0  0
   48.3583    5.2570   19.4056 O   0  0  0  0  0  0  0  0  0  0  0  0
   49.0764    6.6304   15.9887 O   0  0  0  0  0  0  0  0  0  0  0  0
   49.5374    7.4341   18.0346 O   0  0  0  0  0  0  0  0  0  0  0  0
   49.9144    4.2938   20.6973 O   0  0  0  0  0  0  0  0  0  0  0  0
   49.4691    5.0626   18.7259 C   0  0  0  0  0  0  0  0  0  0  0  0
   49.1270    5.2366   20.1648 C   0  0  0  0  0  0  0  0  0  0  0  0
   50.3501    3.9398   18.3215 C   0  0  0  0  0  0  0  0  0  0  0  0
   49.0842    5.9845   17.7984 C   0  0  0  0  0  0  0  0  0  0  0  0
   48.4655    8.1950   15.8066 N   0  0  0  0  0  0  0  0  0  0  0  0
   47.7954    5.3715   20.4172 N   0  0  0  0  0  0  0  0  0  0  0  0
   50.0948    5.2313   21.1805 C   0  0  0  0  0  0  0  0  0  0  0  0
   51.6968    3.9613   18.7237 C   0  0  0  0  0  0  0  0  0  0  0  0
   49.4489    5.9108   16.3183 C   0  0  0  0  0  0  0  0  0  0  0  0
   48.3034    7.2523   18.1356 C   0  0  0  0  0  0  0  0  0  0  0  0
   52.1940    5.0938   19.5880 C   0  0  0  0  0  0  0  0  0  0  0  0
   51.5878    5.0403   20.9965 C   0  0  0  0  0  0  0  0  0  0  0  0
   48.7391    8.4220   17.2376 C   0  0  0  0  0  0  0  0  0  0  0  0
   48.5178    6.7689   15.4429 C   0  0  0  0  0  0  0  0  0  0  0  0
   49.8547    2.8450   17.6024 C   0  0  0  0  0  0  0  0  0  0  0  0
   49.3550    9.0086   14.9813 C   0  0  0  0  0  0  0  0  0  0  0  0
   47.4042    5.5158   21.6984 C   0  0  0  0  0  0  0  0  0  0  0  0
   49.6329    5.3805   22.5010 C   0  0  0  0  0  0  0  0  0  0  0  0
   52.5422    2.9057   18.3583 C   0  0  0  0  0  0  0  0  0  0  0  0
   48.2768    5.5282   22.7663 C   0  0  0  0  0  0  0  0  0  0  0  0
   50.7029    1.7969   17.2464 C   0  0  0  0  0  0  0  0  0  0  0  0
   52.0464    1.8312   17.6179 C   0  0  0  0  0  0  0  0  0  0  0  0
   49.7996    6.2179   16.8882 C   0  0  0  0  0  0  0  0  0  0  0  0
   49.3916    5.2169   19.6893 C   0  0  0  0  0  0  0  0  0  0  0  0
   50.3399    4.6361   18.7289 C   0  0  0  0  0  0  0  0  0  0  0  0
   50.4835    5.0583   17.4652 C   0  0  0  0  0  0  0  0  0  0  0  0
   48.3803    5.8482   19.4575 O   0  0  0  0  0  0  0  0  0  0  0  0
   49.2463    6.2336   15.8044 O   0  0  0  0  0  0  0  0  0  0  0  0
   49.9671    7.3187   17.6339 O   0  0  0  0  0  0  0  0  0  0  0  0
   49.7727    4.9078   20.9404 O   0  0  0  0  0  0  0  0  0  0  0  0
   51.3185    3.9925   18.7261 H   0  0  0  0  0  0  0  0  0  0  0  0
   51.3532    5.2830   16.6604 H   0  0  0  0  0  0  0  0  0  0  0  0
   48.8547    8.0553   17.7079 H   0  0  0  0  0  0  0  0  0  0  0  0
   49.1464    4.3951   21.2983 H   0  0  0  0  0  0  0  0  0  0  0  0
   49.3862    4.8851   15.9419 H   0  0  0  0  0  0  0  0  0  0  0  0
   50.4844    6.2504   16.1884 H   0  0  0  0  0  0  0  0  0  0  0  0
   48.4665    7.5661   19.1712 H   0  0  0  0  0  0  0  0  0  0  0  0
   47.2300    7.0658   18.0094 H   0  0  0  0  0  0  0  0  0  0  0  0
   51.9873    6.0573   19.1050 H   0  0  0  0  0  0  0  0  0  0  0  0
   53.2864    5.0343   19.6747 H   0  0  0  0  0  0  0  0  0  0  0  0
   52.0922    5.8168   21.5865 H   0  0  0  0  0  0  0  0  0  0  0  0
   51.8501    4.0757   21.4522 H   0  0  0  0  0  0  0  0  0  0  0  0
   49.8111    8.5967   17.4050 H   0  0  0  0  0  0  0  0  0  0  0  0
   48.2168    9.3319   17.5532 H   0  0  0  0  0  0  0  0  0  0  0  0
   47.4978    6.3713   15.5319 H   0  0  0  0  0  0  0  0  0  0  0  0
   48.7835    6.6392   14.3862 H   0  0  0  0  0  0  0  0  0  0  0  0
   48.8046    2.8068   17.3210 H   0  0  0  0  0  0  0  0  0  0  0  0
   50.4086    8.7403   15.1178 H   0  0  0  0  0  0  0  0  0  0  0  0
   49.1116    8.9010   13.9161 H   0  0  0  0  0  0  0  0  0  0  0  0
   49.2328   10.0693   15.2220 H   0  0  0  0  0  0  0  0  0  0  0  0
   46.3334    5.6229   21.8455 H   0  0  0  0  0  0  0  0  0  0  0  0
   50.3353    5.3745   23.3316 H   0  0  0  0  0  0  0  0  0  0  0  0
   53.5870    2.9047   18.6598 H   0  0  0  0  0  0  0  0  0  0  0  0
   47.9110    5.6432   23.7803 H   0  0  0  0  0  0  0  0  0  0  0  0
   50.3132    0.9514   16.6847 H   0  0  0  0  0  0  0  0  0  0  0  0
   52.7049    1.0117   17.3426 H   0  0  0  0  0  0  0  0  0  0  0  0
   50.9129    3.7887   19.0875 H   0  0  0  0  0  0  0  0  0  0  0  0
   51.1327    4.5302   16.7766 H   0  0  0  0  0  0  0  0  0  0  0  0
   49.4459    8.0046   17.1686 H   0  0  0  0  0  0  0  0  0  0  0  0
   49.0885    5.3299   21.5020 H   0  0  0  0  0  0  0  0  0  0  0  0
  2  3  1  0
  3  4  2  0
  4  1  1  0
  5  2  2  0
  6  1  2  0
  7  1  1  0
  8  2  1  0
 10  9  1  0
 11  9  1  0
 12  9  2  3
 13 21  1  0
 14 10  2  0
 15 10  1  0
 16 11  2  0
 17 12  1  0
 18 12  1  0
 19 16  1  0
 20 15  1  0
 21 18  1  0
 22 17  1  0
 23 11  1  0
 24 13  1  0
 25 14  1  0
 26 15  2  0
 27 16  1  0
 28 26  1  0
 29 23  2  0
 30 29  1  0
 22 13  1  0
 20 19  1  0
 27 30  2  0
 25 28  2  0
 32 33  1  0
 33 34  2  0
 34 31  1  0
 35 32  2  0
 36 31  2  0
 37 31  1  0
 38 32  1  0
  3 39  1  0
  4 40  1  0
  7 41  1  0
  8 42  1  0
 17 43  1  0
 17 44  1  0
 18 45  1  0
 18 46  1  0
 19 47  1  0
 19 48  1  0
 20 49  1  0
 20 50  1  0
 21 51  1  0
 21 52  1  0
 22 53  1  0
 22 54  1  0
 23 55  1  0
 24 56  1  0
 24 57  1  0
 24 58  1  0
 25 59  1  0
 26 60  1  0
 27 61  1  0
 28 62  1  0
 29 63  1  0
 30 64  1  0
 33 65  1  0
 34 66  1  0
 37 67  1  0
 38 68  1  0
M  END
> <Uni-Dock RESULT> 
ENERGY=   -5.644  LOWER_BOUND=    8.981  UPPER_BOUND=   12.278
INTER + INTRA:          -5.644
INTER:                  -5.644
INTRA:                   0.000
UNBOUND:                 0.000

$$$$

     RDKit          3D

 68 69  0  0  0  0  0  0  0  0999 V2000
   46.0552    6.6131   12.2941 C   0  0  0  0  0  0  0  0  0  0  0  0
   48.3526    6.5893   14.2261 C   0  0  0  0  0  0  0  0  0  0  0  0
   48.1037    7.6520   13.2423 C   0  0  0  0  0  0  0  0  0  0  0  0
   47.1015    7.6357   12.3528 C   0  0  0  0  0  0  0  0  0  0  0  0
   47.9708    5.4366   14.2017 O   0  0  0  0  0  0  0  0  0  0  0  0
   45.6917    6.0421   11.2833 O   0  0  0  0  0  0  0  0  0  0  0  0
   45.4369    6.4661   13.4742 O   0  0  0  0  0  0  0  0  0  0  0  0
   49.1446    7.0596   15.2045 O   0  0  0  0  0  0  0  0  0  0  0  0
   47.9063    6.5525   13.5058 C   0  0  0  0  0  0  0  0  0  0  0  0
   48.1452    6.2104   14.9355 C   0  0  0  0  0  0  0  0  0  0  0  0
   48.8226    7.4997   12.8250 C   0  0  0  0  0  0  0  0  0  0  0  0
   46.7960    6.1036   12.8547 C   0  0  0  0  0  0  0  0  0  0  0  0
   44.1769    5.3324   11.5199 N   0  0  0  0  0  0  0  0  0  0  0  0
   48.1664    4.8747   15.2013 N   0  0  0  0  0  0  0  0  0  0  0  0
   48.3610    7.1838   15.9224 C   0  0  0  0  0  0  0  0  0  0  0  0
   48.8250    8.8452   13.2318 C   0  0  0  0  0  0  0  0  0  0  0  0
   46.4484    6.4617   11.4125 C   0  0  0  0  0  0  0  0  0  0  0  0
   45.7161    5.2467   13.5105 C   0  0  0  0  0  0  0  0  0  0  0  0
   47.9359    9.2761   14.3722 C   0  0  0  0  0  0  0  0  0  0  0  0
   48.4019    8.6845   15.7090 C   0  0  0  0  0  0  0  0  0  0  0  0
   44.3240    5.6013   12.9622 C   0  0  0  0  0  0  0  0  0  0  0  0
   45.4477    5.4721   10.7889 C   0  0  0  0  0  0  0  0  0  0  0  0
   49.7141    7.0694   11.8345 C   0  0  0  0  0  0  0  0  0  0  0  0
   43.1182    6.1628   10.9510 C   0  0  0  0  0  0  0  0  0  0  0  0
   48.3947    4.4844   16.4706 C   0  0  0  0  0  0  0  0  0  0  0  0
   48.5995    6.7228   17.2301 C   0  0  0  0  0  0  0  0  0  0  0  0
   49.6893    9.7530   12.6061 C   0  0  0  0  0  0  0  0  0  0  0  0
   48.6135    5.3621   17.5116 C   0  0  0  0  0  0  0  0  0  0  0  0
   50.5736    7.9795   11.2199 C   0  0  0  0  0  0  0  0  0  0  0  0
   50.5556    9.3207   11.6005 C   0  0  0  0  0  0  0  0  0  0  0  0
   46.2834    6.7963   12.0471 C   0  0  0  0  0  0  0  0  0  0  0  0
   48.0204    6.4723   14.4747 C   0  0  0  0  0  0  0  0  0  0  0  0
   48.2627    7.4485   13.4036 C   0  0  0  0  0  0  0  0  0  0  0  0
   47.5099    7.5562   12.3001 C   0  0  0  0  0  0  0  0  0  0  0  0
   47.4148    5.4216   14.4099 O   0  0  0  0  0  0  0  0  0  0  0  0
   46.0133    6.2354   11.0015 O   0  0  0  0  0  0  0  0  0  0  0  0
   45.4138    6.8994   13.0615 O   0  0  0  0  0  0  0  0  0  0  0  0
   48.6281    6.8810   15.6014 O   0  0  0  0  0  0  0  0  0  0  0  0
   48.8194    8.4657   13.2386 H   0  0  0  0  0  0  0  0  0  0  0  0
   47.0241    8.4042   11.5934 H   0  0  0  0  0  0  0  0  0  0  0  0
   44.7950    5.7432   13.3185 H   0  0  0  0  0  0  0  0  0  0  0  0
   49.2561    6.2910   15.8030 H   0  0  0  0  0  0  0  0  0  0  0  0
   47.3379    6.4612   10.7750 H   0  0  0  0  0  0  0  0  0  0  0  0
   46.0221    7.4727   11.3884 H   0  0  0  0  0  0  0  0  0  0  0  0
   45.6810    5.3970   14.5940 H   0  0  0  0  0  0  0  0  0  0  0  0
   45.9291    4.1863   13.3284 H   0  0  0  0  0  0  0  0  0  0  0  0
   46.8933    9.0055   14.1622 H   0  0  0  0  0  0  0  0  0  0  0  0
   47.9477   10.3707   14.4509 H   0  0  0  0  0  0  0  0  0  0  0  0
   47.7813    9.1431   16.4901 H   0  0  0  0  0  0  0  0  0  0  0  0
   49.4348    9.0105   15.8930 H   0  0  0  0  0  0  0  0  0  0  0  0
   44.1335    6.6613   13.1809 H   0  0  0  0  0  0  0  0  0  0  0  0
   43.5662    5.0249   13.5042 H   0  0  0  0  0  0  0  0  0  0  0  0
   45.9177    4.4798   10.7582 H   0  0  0  0  0  0  0  0  0  0  0  0
   45.2732    5.7378    9.7386 H   0  0  0  0  0  0  0  0  0  0  0  0
   49.7415    6.0218   11.5427 H   0  0  0  0  0  0  0  0  0  0  0  0
   43.3465    7.2323   11.0214 H   0  0  0  0  0  0  0  0  0  0  0  0
   42.9521    5.9191    9.8934 H   0  0  0  0  0  0  0  0  0  0  0  0
   42.1702    5.9756   11.4651 H   0  0  0  0  0  0  0  0  0  0  0  0
   48.3982    3.4101   16.6302 H   0  0  0  0  0  0  0  0  0  0  0  0
   48.7832    7.4301   18.0358 H   0  0  0  0  0  0  0  0  0  0  0  0
   49.7053   10.7978   12.9068 H   0  0  0  0  0  0  0  0  0  0  0  0
   48.7969    4.9970   18.5157 H   0  0  0  0  0  0  0  0  0  0  0  0
   51.2609    7.6399   10.4488 H   0  0  0  0  0  0  0  0  0  0  0  0
   51.2288   10.0276   11.1229 H   0  0  0  0  0  0  0  0  0  0  0  0
   49.1374    8.0764   13.5283 H   0  0  0  0  0  0  0  0  0  0  0  0
   47.7928    8.2325   11.5020 H   0  0  0  0  0  0  0  0  0  0  0  0
   44.6626    6.3326   12.7912 H   0  0  0  0  0  0  0  0  0  0  0  0
   48.4153    6.1756   16.2485 H   0  0  0  0  0  0  0  0  0  0  0  0
  2  3  1  0
  3  4  2  0
  4  1  1  0
  5  2  2  0
  6  1  2  0
  7  1  1  0
  8  2  1  0
 10  9  1  0
 11  9  1  0
 12  9  2  3
 13 21  1  0
 14 10  2  0
 15 10  1  0
 16 11  2  0
 17 12  1  0
 18 12  1  0
 19 16  1  0
 20 15  1  0
 21 18  1  0
 22 17  1  0
 23 11  1  0
 24 13  1  0
 25 14  1  0
 26 15  2  0
 27 16  1  0
 28 26  1  0
 29 23  2  0
 30 29  1  0
 22 13  1  0
 20 19  1  0
 27 30  2  0
 25 28  2  0
 32 33  1  0
 33 34  2  0
 34 31  1  0
 35 32  2  0
 36 31  2  0
 37 31  1  0
 38 32  1  0
  3 39  1  0
  4 40  1  0
  7 41  1  0
  8 42  1  0
 17 43  1  0
 17 44  1  0
 18 45  1  0
 18 46  1  0
 19 47  1  0
 19 48  1  0
 20 49  1  0
 20 50  1  0
 21 51  1  0
 21 52  1  0
 22 53  1  0
 22 54  1  0
 23 55  1  0
 24 56  1  0
 24 57  1  0
 24 58  1  0
 25 59  1  0
 26 60  1  0
 27 61  1  0
 28 62  1  0
 29 63  1  0
 30 64  1  0
 33 65  1  0
 34 66  1  0
 37 67  1  0
 38 68  1  0
M  END
> <Uni-Dock RESULT> 
ENERGY=   -5.349  LOWER_BOUND=    5.367  UPPER_BOUND=    7.086
INTER + INTRA:          -5.349
INTER:                  -5.349
INTRA:                   0.000
UNBOUND:                 0.000

$$$$

     RDKit          3D

 68 69  0  0  0  0  0  0  0  0999 V2000
   52.4135    6.3661   17.4130 C   0  0  0  0  0  0  0  0  0  0  0  0
   52.2998    3.5928   18.5564 C   0  0  0  0  0  0  0  0  0  0  0  0
   51.1407    4.4863   18.4237 C   0  0  0  0  0  0  0  0  0  0  0  0
   51.2054    5.7394   17.9531 C   0  0  0  0  0  0  0  0  0  0  0  0
   53.4765    3.8891   18.6074 O   0  0  0  0  0  0  0  0  0  0  0  0
   52.8200    7.4730   17.7118 O   0  0  0  0  0  0  0  0  0  0  0  0
   52.9613    5.6298   16.4362 O   0  0  0  0  0  0  0  0  0  0  0  0
   51.8769    2.3222   18.6672 O   0  0  0  0  0  0  0  0  0  0  0  0
   52.2854    4.4385   18.4930 C   0  0  0  0  0  0  0  0  0  0  0  0
   52.8636    3.0975   18.2007 C   0  0  0  0  0  0  0  0  0  0  0  0
   51.0182    4.5295   19.2588 C   0  0  0  0  0  0  0  0  0  0  0  0
   52.8372    5.5685   17.9670 C   0  0  0  0  0  0  0  0  0  0  0  0
   53.9112    8.0333   16.5500 N   0  0  0  0  0  0  0  0  0  0  0  0
   54.1787    2.9649   18.5295 N   0  0  0  0  0  0  0  0  0  0  0  0
   52.1075    2.0472   17.6592 C   0  0  0  0  0  0  0  0  0  0  0  0
   49.8355    4.0585   18.6630 C   0  0  0  0  0  0  0  0  0  0  0  0
   52.2677    6.9702   18.1671 C   0  0  0  0  0  0  0  0  0  0  0  0
   54.0534    5.5686   17.0442 C   0  0  0  0  0  0  0  0  0  0  0  0
   49.8945    3.4358   17.2898 C   0  0  0  0  0  0  0  0  0  0  0  0
   50.6328    2.0908   17.3087 C   0  0  0  0  0  0  0  0  0  0  0  0
   53.9372    6.6732   15.9809 C   0  0  0  0  0  0  0  0  0  0  0  0
   53.3098    8.0697   17.8938 C   0  0  0  0  0  0  0  0  0  0  0  0
   50.9909    5.0192   20.5705 C   0  0  0  0  0  0  0  0  0  0  0  0
   53.2597    8.9603   15.6279 C   0  0  0  0  0  0  0  0  0  0  0  0
   54.7699    1.7740   18.3113 C   0  0  0  0  0  0  0  0  0  0  0  0
   52.7713    0.8236   17.4557 C   0  0  0  0  0  0  0  0  0  0  0  0
   48.6303    4.1287   19.3738 C   0  0  0  0  0  0  0  0  0  0  0  0
   54.1153    0.6827   17.7797 C   0  0  0  0  0  0  0  0  0  0  0  0
   49.7872    5.0816   21.2717 C   0  0  0  0  0  0  0  0  0  0  0  0
   48.6076    4.6436   20.6710 C   0  0  0  0  0  0  0  0  0  0  0  0
   52.1306    6.4613   17.6531 C   0  0  0  0  0  0  0  0  0  0  0  0
   52.5455    3.5395   18.2063 C   0  0  0  0  0  0  0  0  0  0  0  0
   51.3297    4.2870   18.5551 C   0  0  0  0  0  0  0  0  0  0  0  0
   51.1695    5.6012   18.3474 C   0  0  0  0  0  0  0  0  0  0  0  0
   53.6716    3.9675   18.0520 O   0  0  0  0  0  0  0  0  0  0  0  0
   52.4974    7.5543   18.0427 O   0  0  0  0  0  0  0  0  0  0  0  0
   52.4671    5.9675   16.4536 O   0  0  0  0  0  0  0  0  0  0  0  0
   52.2582    2.2298   18.1175 O   0  0  0  0  0  0  0  0  0  0  0  0
   50.1969    4.0868   18.7755 H   0  0  0  0  0  0  0  0  0  0  0  0
   50.3318    6.3798   17.9646 H   0  0  0  0  0  0  0  0  0  0  0  0
   53.7665    6.1274   16.1856 H   0  0  0  0  0  0  0  0  0  0  0  0
   52.7070    1.8075   18.7526 H   0  0  0  0  0  0  0  0  0  0  0  0
   51.9120    7.1145   19.1920 H   0  0  0  0  0  0  0  0  0  0  0  0
   51.4110    7.1067   17.4951 H   0  0  0  0  0  0  0  0  0  0  0  0
   54.1572    4.6194   16.5094 H   0  0  0  0  0  0  0  0  0  0  0  0
   54.9636    5.7174   17.6378 H   0  0  0  0  0  0  0  0  0  0  0  0
   50.3580    4.1312   16.5786 H   0  0  0  0  0  0  0  0  0  0  0  0
   48.8746    3.2699   16.9200 H   0  0  0  0  0  0  0  0  0  0  0  0
   50.5216    1.6562   16.3066 H   0  0  0  0  0  0  0  0  0  0  0  0
   50.1137    1.4182   18.0051 H   0  0  0  0  0  0  0  0  0  0  0  0
   53.0299    6.4818   15.3911 H   0  0  0  0  0  0  0  0  0  0  0  0
   54.7850    6.5993   15.2910 H   0  0  0  0  0  0  0  0  0  0  0  0
   54.1262    7.9592   18.6202 H   0  0  0  0  0  0  0  0  0  0  0  0
   52.8712    9.0531   18.1048 H   0  0  0  0  0  0  0  0  0  0  0  0
   51.9102    5.3503   21.0487 H   0  0  0  0  0  0  0  0  0  0  0  0
   52.2091    8.7024   15.4534 H   0  0  0  0  0  0  0  0  0  0  0  0
   53.2988    9.9887   16.0105 H   0  0  0  0  0  0  0  0  0  0  0  0
   53.7800    8.9674   14.6649 H   0  0  0  0  0  0  0  0  0  0  0  0
   55.8191    1.7214   18.5871 H   0  0  0  0  0  0  0  0  0  0  0  0
   52.2348   -0.0301   17.0476 H   0  0  0  0  0  0  0  0  0  0  0  0
   47.7050    3.7696   18.9295 H   0  0  0  0  0  0  0  0  0  0  0  0
   54.6355   -0.2561   17.6272 H   0  0  0  0  0  0  0  0  0  0  0  0
   49.7718    5.4664   22.2886 H   0  0  0  0  0  0  0  0  0  0  0  0
   47.6712    4.6897   21.2206 H   0  0  0  0  0  0  0  0  0  0  0  0
   50.5507    3.7154   19.0466 H   0  0  0  0  0  0  0  0  0  0  0  0
   50.2868    6.1145   18.7105 H   0  0  0  0  0  0  0  0  0  0  0  0
   53.1264    6.6042   16.1091 H   0  0  0  0  0  0  0  0  0  0  0  0
   53.1182    1.8189   17.8869 H   0  0  0  0  0  0  0  0  0  0  0  0
  2  3  1  0
  3  4  2  0
  4  1  1  0
  5  2  2  0
  6  1  2  0
  7  1  1  0
  8  2  1  0
 10  9  1  0
 11  9  1  0
 12  9  2  3
 13 21  1  0
 14 10  2  0
 15 10  1  0
 16 11  2  0
 17 12  1  0
 18 12  1  0
 19 16  1  0
 20 15  1  0
 21 18  1  0
 22 17  1  0
 23 11  1  0
 24 13  1  0
 25 14  1  0
 26 15  2  0
 27 16  1  0
 28 26  1  0
 29 23  2  0
 30 29  1  0
 22 13  1  0
 20 19  1  0
 27 30  2  0
 25 28  2  0
 32 33  1  0
 33 34  2  0
 34 31  1  0
 35 32  2  0
 36 31  2  0
 37 31  1  0
 38 32  1  0
  3 39  1  0
  4 40  1  0
  7 41  1  0
  8 42  1  0
 17 43  1  0
 17 44  1  0
 18 45  1  0
 18 46  1  0
 19 47  1  0
 19 48  1  0
 20 49  1  0
 20 50  1  0
 21 51  1  0
 21 52  1  0
 22 53  1  0
 22 54  1  0
 23 55  1  0
 24 56  1  0
 24 57  1  0
 24 58  1  0
 25 59  1  0
 26 60  1  0
 27 61  1  0
 28 62  1  0
 29 63  1  0
 30 64  1  0
 33 65  1  0
 34 66  1  0
 37 67  1  0
 38 68  1  0
M  END
> <Uni-Dock RESULT> 
ENERGY=   -5.287  LOWER_BOUND=   12.139  UPPER_BOUND=   14.071
INTER + INTRA:          -5.287
INTER:                  -5.287
INTRA:                   0.000
UNBOUND:                 0.000

$$$$

     RDKit          3D

 68 69  0  0  0  0  0  0  0  0999 V2000
   43.7238   11.6777    7.6364 C   0  0  0  0  0  0  0  0  0  0  0  0
   44.3964   11.6911   10.5620 C   0  0  0  0  0  0  0  0  0  0  0  0
   43.1886   11.0813    9.9886 C   0  0  0  0  0  0  0  0  0  0  0  0
   42.8720   11.1167    8.6870 C   0  0  0  0  0  0  0  0  0  0  0  0
   45.0931   12.5675   10.0912 O   0  0  0  0  0  0  0  0  0  0  0  0
   43.3511   12.4462    6.7703 O   0  0  0  0  0  0  0  0  0  0  0  0
   44.9514   11.1398    7.6516 O   0  0  0  0  0  0  0  0  0  0  0  0
   44.6347   11.1617   11.7738 O   0  0  0  0  0  0  0  0  0  0  0  0
   44.0160   11.8593    9.8228 C   0  0  0  0  0  0  0  0  0  0  0  0
   45.2180   11.6712   10.6818 C   0  0  0  0  0  0  0  0  0  0  0  0
   42.6705   11.6105   10.3955 C   0  0  0  0  0  0  0  0  0  0  0  0
   44.1417   12.1381    8.4944 C   0  0  0  0  0  0  0  0  0  0  0  0
   44.4525   12.4695    5.4894 N   0  0  0  0  0  0  0  0  0  0  0  0
   46.0836   12.7228   10.6811 N   0  0  0  0  0  0  0  0  0  0  0  0
   45.4264   10.5177   11.4525 C   0  0  0  0  0  0  0  0  0  0  0  0
   42.3183   10.2946   10.7420 C   0  0  0  0  0  0  0  0  0  0  0  0
   42.9623   12.2818    7.5365 C   0  0  0  0  0  0  0  0  0  0  0  0
   45.4834   12.2655    7.7773 C   0  0  0  0  0  0  0  0  0  0  0  0
   43.3276    9.1867   10.5665 C   0  0  0  0  0  0  0  0  0  0  0  0
   44.4966    9.3238   11.5507 C   0  0  0  0  0  0  0  0  0  0  0  0
   45.3942   11.7209    6.3422 C   0  0  0  0  0  0  0  0  0  0  0  0
   43.3382   13.0507    6.2570 C   0  0  0  0  0  0  0  0  0  0  0  0
   41.7775   12.6599   10.6455 C   0  0  0  0  0  0  0  0  0  0  0  0
   43.9864   11.6324    4.3866 C   0  0  0  0  0  0  0  0  0  0  0  0
   47.1878   12.6357   11.4483 C   0  0  0  0  0  0  0  0  0  0  0  0
   46.5921   10.4795   12.2393 C   0  0  0  0  0  0  0  0  0  0  0  0
   41.0549   10.0412   11.2918 C   0  0  0  0  0  0  0  0  0  0  0  0
   47.4852   11.5442   12.2371 C   0  0  0  0  0  0  0  0  0  0  0  0
   40.5235   12.3986   11.1966 C   0  0  0  0  0  0  0  0  0  0  0  0
   40.1604   11.0899   11.5124 C   0  0  0  0  0  0  0  0  0  0  0  0
   43.3542   11.6914    7.7360 C   0  0  0  0  0  0  0  0  0  0  0  0
   44.7727   11.5858   10.3802 C   0  0  0  0  0  0  0  0  0  0  0  0
   43.3573   11.2450   10.1820 C   0  0  0  0  0  0  0  0  0  0  0  0
   42.7186   11.3391    9.0077 C   0  0  0  0  0  0  0  0  0  0  0  0
   45.4702   12.3172    9.7067 O   0  0  0  0  0  0  0  0  0  0  0  0
   42.9145   12.4954    6.9353 O   0  0  0  0  0  0  0  0  0  0  0  0
   44.4208   10.9213    7.4805 O   0  0  0  0  0  0  0  0  0  0  0  0
   45.2264   10.9911   11.4966 O   0  0  0  0  0  0  0  0  0  0  0  0
   42.5147   10.6165   10.6986 H   0  0  0  0  0  0  0  0  0  0  0  0
   41.9229   10.7281    8.3383 H   0  0  0  0  0  0  0  0  0  0  0  0
   45.4278   11.6130    6.9390 H   0  0  0  0  0  0  0  0  0  0  0  0
   45.4451   11.6246   12.0745 H   0  0  0  0  0  0  0  0  0  0  0  0
   42.1327   12.8225    8.0023 H   0  0  0  0  0  0  0  0  0  0  0  0
   42.5983   11.2825    7.2659 H   0  0  0  0  0  0  0  0  0  0  0  0
   46.2706   11.7001    8.2857 H   0  0  0  0  0  0  0  0  0  0  0  0
   45.7897   13.3185    7.7577 H   0  0  0  0  0  0  0  0  0  0  0  0
   43.6850    9.1614    9.5292 H   0  0  0  0  0  0  0  0  0  0  0  0
   42.8397    8.2183   10.7354 H   0  0  0  0  0  0  0  0  0  0  0  0
   45.1108    8.4206   11.4384 H   0  0  0  0  0  0  0  0  0  0  0  0
   44.0949    9.3086   12.5731 H   0  0  0  0  0  0  0  0  0  0  0  0
   45.1084   10.6613    6.3989 H   0  0  0  0  0  0  0  0  0  0  0  0
   46.3873   11.7569    5.8812 H   0  0  0  0  0  0  0  0  0  0  0  0
   43.6337   14.0696    6.5413 H   0  0  0  0  0  0  0  0  0  0  0  0
   42.4476   13.1767    5.6284 H   0  0  0  0  0  0  0  0  0  0  0  0
   42.0604   13.6843   10.4131 H   0  0  0  0  0  0  0  0  0  0  0  0
   43.4241   10.7595    4.7369 H   0  0  0  0  0  0  0  0  0  0  0  0
   43.3407   12.2023    3.7055 H   0  0  0  0  0  0  0  0  0  0  0  0
   44.8345   11.2825    3.7898 H   0  0  0  0  0  0  0  0  0  0  0  0
   47.8466   13.4983   11.4098 H   0  0  0  0  0  0  0  0  0  0  0  0
   46.8030    9.6154   12.8655 H   0  0  0  0  0  0  0  0  0  0  0  0
   40.7643    9.0298   11.5659 H   0  0  0  0  0  0  0  0  0  0  0  0
   48.3857   11.5246   12.8403 H   0  0  0  0  0  0  0  0  0  0  0  0
   39.8331   13.2172   11.3849 H   0  0  0  0  0  0  0  0  0  0  0  0
   39.1841   10.8889   11.9452 H   0  0  0  0  0  0  0  0  0  0  0  0
   42.8175   10.9416   11.0717 H   0  0  0  0  0  0  0  0  0  0  0  0
   41.6512   11.1625    8.9435 H   0  0  0  0  0  0  0  0  0  0  0  0
   44.7703   11.2695    6.6347 H   0  0  0  0  0  0  0  0  0  0  0  0
   46.1638   11.2748   11.5457 H   0  0  0  0  0  0  0  0  0  0  0  0
  2  3  1  0
  3  4  2  0
  4  1  1  0
  5  2  2  0
  6  1  2  0
  7  1  1  0
  8  2  1  0
 10  9  1  0
 11  9  1  0
 12  9  2  3
 13 21  1  0
 14 10  2  0
 15 10  1  0
 16 11  2  0
 17 12  1  0
 18 12  1  0
 19 16  1  0
 20 15  1  0
 21 18  1  0
 22 17  1  0
 23 11  1  0
 24 13  1  0
 25 14  1  0
 26 15  2  0
 27 16  1  0
 28 26  1  0
 29 23  2  0
 30 29  1  0
 22 13  1  0
 20 19  1  0
 27 30  2  0
 25 28  2  0
 32 33  1  0
 33 34  2  0
 34 31  1  0
 35 32  2  0
 36 31  2  0
 37 31  1  0
 38 32  1  0
  3 39  1  0
  4 40  1  0
  7 41  1  0
  8 42  1  0
 17 43  1  0
 17 44  1  0
 18 45  1  0
 18 46  1  0
 19 47  1  0
 19 48  1  0
 20 49  1  0
 20 50  1  0
 21 51  1  0
 21 52  1  0
 22 53  1  0
 22 54  1  0
 23 55  1  0
 24 56  1  0
 24 57  1  0
 24 58  1  0
 25 59  1  0
 26 60  1  0
 27 61  1  0
 28 62  1  0
 29 63  1  0
 30 64  1  0
 33 65  1  0
 34 66  1  0
 37 67  1  0
 38 68  1  0
M  END
> <Uni-Dock RESULT> 
ENERGY=   -5.238  LOWER_BOUND=    2.325  UPPER_BOUND=    4.475
INTER + INTRA:          -5.238
INTER:                  -5.238
INTRA:                   0.000
UNBOUND:                 0.000

$$$$

     RDKit          3D

 68 69  0  0  0  0  0  0  0  0999 V2000
   49.5018   10.0181   11.9041 C   0  0  0  0  0  0  0  0  0  0  0  0
   48.0296    9.1536   14.3733 C   0  0  0  0  0  0  0  0  0  0  0  0
   47.9251    8.4892   13.0667 C   0  0  0  0  0  0  0  0  0  0  0  0
   48.5507    8.9061   11.9574 C   0  0  0  0  0  0  0  0  0  0  0  0
   48.3695   10.2948   14.6122 O   0  0  0  0  0  0  0  0  0  0  0  0
   49.4825   10.9157   11.0833 O   0  0  0  0  0  0  0  0  0  0  0  0
   50.4942    9.8666   12.7922 O   0  0  0  0  0  0  0  0  0  0  0  0
   47.6355    8.3076   15.3400 O   0  0  0  0  0  0  0  0  0  0  0  0
   48.1940    9.4678   13.6028 C   0  0  0  0  0  0  0  0  0  0  0  0
   48.4701    9.3158   15.0584 C   0  0  0  0  0  0  0  0  0  0  0  0
   47.1043    8.6730   12.9855 C   0  0  0  0  0  0  0  0  0  0  0  0
   49.0012   10.2315   12.8133 C   0  0  0  0  0  0  0  0  0  0  0  0
   50.9783   11.6995   11.0320 N   0  0  0  0  0  0  0  0  0  0  0  0
   48.5333   10.4889   15.7475 N   0  0  0  0  0  0  0  0  0  0  0  0
   48.6224    8.0648   15.6748 C   0  0  0  0  0  0  0  0  0  0  0  0
   47.2554    7.2785   12.8949 C   0  0  0  0  0  0  0  0  0  0  0  0
   48.8227   10.3860   11.3055 C   0  0  0  0  0  0  0  0  0  0  0  0
   50.2361   10.9694   13.3245 C   0  0  0  0  0  0  0  0  0  0  0  0
   48.4919    6.6285   13.4654 C   0  0  0  0  0  0  0  0  0  0  0  0
   48.5207    6.7121   14.9972 C   0  0  0  0  0  0  0  0  0  0  0  0
   51.3494   10.9792   12.2640 C   0  0  0  0  0  0  0  0  0  0  0  0
   49.5328   11.6370   10.7574 C   0  0  0  0  0  0  0  0  0  0  0  0
   45.9183    9.2755   12.5480 C   0  0  0  0  0  0  0  0  0  0  0  0
   51.7760   11.2258    9.9036 C   0  0  0  0  0  0  0  0  0  0  0  0
   48.7625   10.4336   17.0741 C   0  0  0  0  0  0  0  0  0  0  0  0
   48.8550    8.0627   17.0623 C   0  0  0  0  0  0  0  0  0  0  0  0
   46.2334    6.5101   12.3224 C   0  0  0  0  0  0  0  0  0  0  0  0
   48.9302    9.2556   17.7713 C   0  0  0  0  0  0  0  0  0  0  0  0
   44.9047    8.5021   11.9829 C   0  0  0  0  0  0  0  0  0  0  0  0
   45.0657    7.1223   11.8639 C   0  0  0  0  0  0  0  0  0  0  0  0
   49.2027    9.8939   11.6996 C   0  0  0  0  0  0  0  0  0  0  0  0
   48.4270    9.2278   14.5227 C   0  0  0  0  0  0  0  0  0  0  0  0
   47.8314    8.6111   13.3295 C   0  0  0  0  0  0  0  0  0  0  0  0
   48.1493    8.9465   12.0716 C   0  0  0  0  0  0  0  0  0  0  0  0
   48.9631   10.3134   14.6184 O   0  0  0  0  0  0  0  0  0  0  0  0
   49.0839   10.7812   10.8753 O   0  0  0  0  0  0  0  0  0  0  0  0
   50.3741    9.5896   12.2751 O   0  0  0  0  0  0  0  0  0  0  0  0
   48.2571    8.4167   15.5805 O   0  0  0  0  0  0  0  0  0  0  0  0
   47.2601    7.6346   13.0261 H   0  0  0  0  0  0  0  0  0  0  0  0
   48.3624    8.4279   11.0038 H   0  0  0  0  0  0  0  0  0  0  0  0
   51.0348   10.6760   12.6859 H   0  0  0  0  0  0  0  0  0  0  0  0
   47.7355    8.8317   16.1626 H   0  0  0  0  0  0  0  0  0  0  0  0
   47.7659   10.4740   11.0351 H   0  0  0  0  0  0  0  0  0  0  0  0
   49.2211    9.4940   10.8056 H   0  0  0  0  0  0  0  0  0  0  0  0
   50.6508   10.4952   14.2193 H   0  0  0  0  0  0  0  0  0  0  0  0
   49.9645   11.9986   13.5888 H   0  0  0  0  0  0  0  0  0  0  0  0
   49.3920    7.0786   13.0279 H   0  0  0  0  0  0  0  0  0  0  0  0
   48.5169    5.5712   13.1721 H   0  0  0  0  0  0  0  0  0  0  0  0
   49.3797    6.1143   15.3294 H   0  0  0  0  0  0  0  0  0  0  0  0
   47.6209    6.2191   15.3900 H   0  0  0  0  0  0  0  0  0  0  0  0
   51.6128    9.9362   12.0395 H   0  0  0  0  0  0  0  0  0  0  0  0
   52.2449   11.4480   12.6866 H   0  0  0  0  0  0  0  0  0  0  0  0
   49.0743   12.5229   11.2171 H   0  0  0  0  0  0  0  0  0  0  0  0
   49.3292   11.7349    9.6836 H   0  0  0  0  0  0  0  0  0  0  0  0
   45.7820   10.3500   12.6502 H   0  0  0  0  0  0  0  0  0  0  0  0
   51.5952   10.1678    9.6826 H   0  0  0  0  0  0  0  0  0  0  0  0
   51.5580   11.8050    8.9967 H   0  0  0  0  0  0  0  0  0  0  0  0
   52.8427   11.3603   10.1088 H   0  0  0  0  0  0  0  0  0  0  0  0
   48.8071   11.3957   17.5760 H   0  0  0  0  0  0  0  0  0  0  0  0
   48.9715    7.1228   17.5974 H   0  0  0  0  0  0  0  0  0  0  0  0
   46.3322    5.4301   12.2432 H   0  0  0  0  0  0  0  0  0  0  0  0
   49.1085    9.2644   18.8406 H   0  0  0  0  0  0  0  0  0  0  0  0
   43.9877    8.9764   11.6416 H   0  0  0  0  0  0  0  0  0  0  0  0
   44.2731    6.5210   11.4266 H   0  0  0  0  0  0  0  0  0  0  0  0
   47.0612    7.8717   13.5169 H   0  0  0  0  0  0  0  0  0  0  0  0
   47.6092    8.5223   11.2333 H   0  0  0  0  0  0  0  0  0  0  0  0
   50.9781   10.3012   11.9794 H   0  0  0  0  0  0  0  0  0  0  0  0
   48.6783    8.9065   16.3183 H   0  0  0  0  0  0  0  0  0  0  0  0
  2  3  1  0
  3  4  2  0
  4  1  1  0
  5  2  2  0
  6  1  2  0
  7  1  1  0
  8  2  1  0
 10  9  1  0
 11  9  1  0
 12  9  2  3
 13 21  1  0
 14 10  2  0
 15 10  1  0
 16 11  2  0
 17 12  1  0
 18 12  1  0
 19 16  1  0
 20 15  1  0
 21 18  1  0
 22 17  1  0
 23 11  1  0
 24 13  1  0
 25 14  1  0
 26 15  2  0
 27 16  1  0
 28 26  1  0
 29 23  2  0
 30 29  1  0
 22 13  1  0
 20 19  1  0
 27 30  2  0
 25 28  2  0
 32 33  1  0
 33 34  2  0
 34 31  1  0
 35 32  2  0
 36 31  2  0
 37 31  1  0
 38 32  1  0
  3 39  1  0
  4 40  1  0
  7 41  1  0
  8 42  1  0
 17 43  1  0
 17 44  1  0
 18 45  1  0
 18 46  1  0
 19 47  1  0
 19 48  1  0
 20 49  1  0
 20 50  1  0
 21 51  1  0
 21 52  1  0
 22 53  1  0
 22 54  1  0
 23 55  1  0
 24 56  1  0
 24 57  1  0
 24 58  1  0
 25 59  1  0
 26 60  1  0
 27 61  1  0
 28 62  1  0
 29 63  1  0
 30 64  1  0
 33 65  1  0
 34 66  1  0
 37 67  1  0
 38 68  1  0
M  END
> <Uni-Dock RESULT> 
ENERGY=   -5.168  LOWER_BOUND=    5.370  UPPER_BOUND=    7.800
INTER + INTRA:          -5.168
INTER:                  -5.168
INTRA:                   0.000
UNBOUND:                 0.000

$$$$

     RDKit          3D

 68 69  0  0  0  0  0  0  0  0999 V2000
   49.0866    7.6196   15.2358 C   0  0  0  0  0  0  0  0  0  0  0  0
   49.3371    8.2922   12.3210 C   0  0  0  0  0  0  0  0  0  0  0  0
   48.0955    8.4093   13.0983 C   0  0  0  0  0  0  0  0  0  0  0  0
   47.9791    8.0659   14.3884 C   0  0  0  0  0  0  0  0  0  0  0  0
   50.3073    7.5991   12.5522 O   0  0  0  0  0  0  0  0  0  0  0  0
   49.0628    6.6426   15.9601 O   0  0  0  0  0  0  0  0  0  0  0  0
   50.1017    8.4947   15.2291 O   0  0  0  0  0  0  0  0  0  0  0  0
   49.2534    9.0615   11.2225 O   0  0  0  0  0  0  0  0  0  0  0  0
   49.1216    7.8981   13.0404 C   0  0  0  0  0  0  0  0  0  0  0  0
   50.0967    8.5764   12.1422 C   0  0  0  0  0  0  0  0  0  0  0  0
   47.6959    7.8243   12.6376 C   0  0  0  0  0  0  0  0  0  0  0  0
   49.4971    7.4538   14.2732 C   0  0  0  0  0  0  0  0  0  0  0  0
   50.2885    6.7381   17.1189 N   0  0  0  0  0  0  0  0  0  0  0  0
   51.2132    7.8469   11.8659 N   0  0  0  0  0  0  0  0  0  0  0  0
   49.8697    9.8504   11.6003 C   0  0  0  0  0  0  0  0  0  0  0  0
   46.9474    9.0129   12.5871 C   0  0  0  0  0  0  0  0  0  0  0  0
   48.5444    6.8076   15.2751 C   0  0  0  0  0  0  0  0  0  0  0  0
   50.9048    7.6167   14.8413 C   0  0  0  0  0  0  0  0  0  0  0  0
   47.6216   10.3269   12.8967 C   0  0  0  0  0  0  0  0  0  0  0  0
   48.6394   10.7105   11.8145 C   0  0  0  0  0  0  0  0  0  0  0  0
   50.8606    7.8644   16.3582 C   0  0  0  0  0  0  0  0  0  0  0  0
   49.2880    5.9857   16.3433 C   0  0  0  0  0  0  0  0  0  0  0  0
   47.1060    6.6124   12.2576 C   0  0  0  0  0  0  0  0  0  0  0  0
   49.7598    7.2029   18.3990 C   0  0  0  0  0  0  0  0  0  0  0  0
   52.1359    8.3859   11.0452 C   0  0  0  0  0  0  0  0  0  0  0  0
   50.8619   10.3650   10.7458 C   0  0  0  0  0  0  0  0  0  0  0  0
   45.6016    8.9642   12.2011 C   0  0  0  0  0  0  0  0  0  0  0  0
   52.0084    9.6311   10.4663 C   0  0  0  0  0  0  0  0  0  0  0  0
   45.7666    6.5742   11.8710 C   0  0  0  0  0  0  0  0  0  0  0  0
   45.0140    7.7477   11.8500 C   0  0  0  0  0  0  0  0  0  0  0  0
   48.7256    7.5126   15.1655 C   0  0  0  0  0  0  0  0  0  0  0  0
   49.6900    8.4736   12.4894 C   0  0  0  0  0  0  0  0  0  0  0  0
   48.2757    8.3378   12.8634 C   0  0  0  0  0  0  0  0  0  0  0  0
   47.8522    7.8641   14.0433 C   0  0  0  0  0  0  0  0  0  0  0  0
   50.6477    7.8834   12.9472 O   0  0  0  0  0  0  0  0  0  0  0  0
   48.6392    6.4930   15.8242 O   0  0  0  0  0  0  0  0  0  0  0  0
   49.5592    8.5130   15.4819 O   0  0  0  0  0  0  0  0  0  0  0  0
   49.8057    9.3529   11.4797 O   0  0  0  0  0  0  0  0  0  0  0  0
   47.2298    8.7620   12.5503 H   0  0  0  0  0  0  0  0  0  0  0  0
   47.0150    8.0896   14.8817 H   0  0  0  0  0  0  0  0  0  0  0  0
   50.7824    8.0746   15.7938 H   0  0  0  0  0  0  0  0  0  0  0  0
   50.1128    8.9185   10.7725 H   0  0  0  0  0  0  0  0  0  0  0  0
   47.8438    6.1284   14.7795 H   0  0  0  0  0  0  0  0  0  0  0  0
   47.9558    7.5931   15.7659 H   0  0  0  0  0  0  0  0  0  0  0  0
   51.4274    8.4675   14.3934 H   0  0  0  0  0  0  0  0  0  0  0  0
   51.4923    6.7155   14.6281 H   0  0  0  0  0  0  0  0  0  0  0  0
   48.0936   10.2859   13.8865 H   0  0  0  0  0  0  0  0  0  0  0  0
   46.8649   11.1190   12.9619 H   0  0  0  0  0  0  0  0  0  0  0  0
   48.9865   11.7244   12.0535 H   0  0  0  0  0  0  0  0  0  0  0  0
   48.1159   10.7738   10.8507 H   0  0  0  0  0  0  0  0  0  0  0  0
   50.2857    8.7841   16.5349 H   0  0  0  0  0  0  0  0  0  0  0  0
   51.8769    8.0513   16.7221 H   0  0  0  0  0  0  0  0  0  0  0  0
   49.8151    5.1636   15.8407 H   0  0  0  0  0  0  0  0  0  0  0  0
   48.5607    5.4969   17.0038 H   0  0  0  0  0  0  0  0  0  0  0  0
   47.6919    5.6958   12.2597 H   0  0  0  0  0  0  0  0  0  0  0  0
   48.9347    7.9130   18.2741 H   0  0  0  0  0  0  0  0  0  0  0  0
   49.3962    6.3615   19.0035 H   0  0  0  0  0  0  0  0  0  0  0  0
   50.5488    7.6867   18.9833 H   0  0  0  0  0  0  0  0  0  0  0  0
   53.0082    7.7659   10.8598 H   0  0  0  0  0  0  0  0  0  0  0  0
   50.7374   11.3438   10.2879 H   0  0  0  0  0  0  0  0  0  0  0  0
   45.0063    9.8732   12.1562 H   0  0  0  0  0  0  0  0  0  0  0  0
   52.7782   10.0187    9.8088 H   0  0  0  0  0  0  0  0  0  0  0  0
   45.3132    5.6295   11.5807 H   0  0  0  0  0  0  0  0  0  0  0  0
   43.9714    7.7163   11.5449 H   0  0  0  0  0  0  0  0  0  0  0  0
   47.5583    8.6088   12.0973 H   0  0  0  0  0  0  0  0  0  0  0  0
   46.7966    7.7002   14.2263 H   0  0  0  0  0  0  0  0  0  0  0  0
   50.1022    8.1504   16.2115 H   0  0  0  0  0  0  0  0  0  0  0  0
   50.7696    9.3748   11.3007 H   0  0  0  0  0  0  0  0  0  0  0  0
  2  3  1  0
  3  4  2  0
  4  1  1  0
  5  2  2  0
  6  1  2  0
  7  1  1  0
  8  2  1  0
 10  9  1  0
 11  9  1  0
 12  9  2  3
 13 21  1  0
 14 10  2  0
 15 10  1  0
 16 11  2  0
 17 12  1  0
 18 12  1  0
 19 16  1  0
 20 15  1  0
 21 18  1  0
 22 17  1  0
 23 11  1  0
 24 13  1  0
 25 14  1  0
 26 15  2  0
 27 16  1  0
 28 26  1  0
 29 23  2  0
 30 29  1  0
 22 13  1  0
 20 19  1  0
 27 30  2  0
 25 28  2  0
 32 33  1  0
 33 34  2  0
 34 31  1  0
 35 32  2  0
 36 31  2  0
 37 31  1  0
 38 32  1  0
  3 39  1  0
  4 40  1  0
  7 41  1  0
  8 42  1  0
 17 43  1  0
 17 44  1  0
 18 45  1  0
 18 46  1  0
 19 47  1  0
 19 48  1  0
 20 49  1  0
 20 50  1  0
 21 51  1  0
 21 52  1  0
 22 53  1  0
 22 54  1  0
 23 55  1  0
 24 56  1  0
 24 57  1  0
 24 58  1  0
 25 59  1  0
 26 60  1  0
 27 61  1  0
 28 62  1  0
 29 63  1  0
 30 64  1  0
 33 65  1  0
 34 66  1  0
 37 67  1  0
 38 68  1  0
M  END
> <Uni-Dock RESULT> 
ENERGY=   -5.164  LOWER_BOUND=    5.744  UPPER_BOUND=    8.584
INTER + INTRA:          -5.164
INTER:                  -5.164
INTRA:                   0.000
UNBOUND:                 0.000

$$$$
