
     RDKit          3D

 68 69  0  0  0  0  0  0  0  0999 V2000
   44.3422   11.1676   10.2688 C   0  0  0  0  0  0  0  0  0  0  0  0
   41.3520   11.4375   10.3239 C   0  0  0  0  0  0  0  0  0  0  0  0
   42.1155   10.4802   11.1353 C   0  0  0  0  0  0  0  0  0  0  0  0
   43.4524   10.3952   11.1387 C   0  0  0  0  0  0  0  0  0  0  0  0
   41.7268   12.4943    9.8580 O   0  0  0  0  0  0  0  0  0  0  0  0
   45.3455   11.7483   10.6368 O   0  0  0  0  0  0  0  0  0  0  0  0
   43.9971   11.0604    8.9779 O   0  0  0  0  0  0  0  0  0  0  0  0
   40.0902   11.0004   10.1824 O   0  0  0  0  0  0  0  0  0  0  0  0
   42.9874   10.5921   10.0211 C   0  0  0  0  0  0  0  0  0  0  0  0
   43.7272    9.6536   10.9087 C   0  0  0  0  0  0  0  0  0  0  0  0
   43.7552   11.4081    9.0504 C   0  0  0  0  0  0  0  0  0  0  0  0
   41.6440   10.7818   10.1456 C   0  0  0  0  0  0  0  0  0  0  0  0
   39.1143   12.0188   11.1734 N   0  0  0  0  0  0  0  0  0  0  0  0
   43.2740    8.3693   10.8798 N   0  0  0  0  0  0  0  0  0  0  0  0
   44.8362   10.0502   11.6701 C   0  0  0  0  0  0  0  0  0  0  0  0
   44.6051   12.4144    9.5409 C   0  0  0  0  0  0  0  0  0  0  0  0
   40.8234   11.7587    9.3114 C   0  0  0  0  0  0  0  0  0  0  0  0
   40.7616   10.0782   11.1704 C   0  0  0  0  0  0  0  0  0  0  0  0
   44.7349   12.6117   11.0311 C   0  0  0  0  0  0  0  0  0  0  0  0
   45.4508   11.4357   11.7082 C   0  0  0  0  0  0  0  0  0  0  0  0
   39.9112   11.0770   11.9777 C   0  0  0  0  0  0  0  0  0  0  0  0
   39.9778   12.6963   10.1918 C   0  0  0  0  0  0  0  0  0  0  0  0
   43.6763   11.1667    7.6731 C   0  0  0  0  0  0  0  0  0  0  0  0
   37.9730   11.3633   10.5386 C   0  0  0  0  0  0  0  0  0  0  0  0
   43.9130    7.4552   11.6361 C   0  0  0  0  0  0  0  0  0  0  0  0
   45.4670    9.0571   12.4412 C   0  0  0  0  0  0  0  0  0  0  0  0
   45.3405   13.1929    8.6384 C   0  0  0  0  0  0  0  0  0  0  0  0
   45.0019    7.7477   12.4302 C   0  0  0  0  0  0  0  0  0  0  0  0
   44.4143   11.9464    6.7833 C   0  0  0  0  0  0  0  0  0  0  0  0
   45.2405   12.9610    7.2654 C   0  0  0  0  0  0  0  0  0  0  0  0
   44.3448   10.5374   10.0091 C   0  0  0  0  0  0  0  0  0  0  0  0
   41.5037   11.4836   10.2290 C   0  0  0  0  0  0  0  0  0  0  0  0
   41.9895   10.1893   10.7251 C   0  0  0  0  0  0  0  0  0  0  0  0
   43.2674    9.7917   10.6634 C   0  0  0  0  0  0  0  0  0  0  0  0
   42.1350   12.5062   10.0543 O   0  0  0  0  0  0  0  0  0  0  0  0
   45.4425   10.7432   10.4906 O   0  0  0  0  0  0  0  0  0  0  0  0
   44.0309   10.8671    8.7483 O   0  0  0  0  0  0  0  0  0  0  0  0
   40.1796   11.4149   10.0166 O   0  0  0  0  0  0  0  0  0  0  0  0
   41.5289    9.8458   11.7897 H   0  0  0  0  0  0  0  0  0  0  0  0
   43.9616    9.7327   11.8279 H   0  0  0  0  0  0  0  0  0  0  0  0
   44.6354   11.6384    8.5117 H   0  0  0  0  0  0  0  0  0  0  0  0
   39.6646   11.6941    9.6361 H   0  0  0  0  0  0  0  0  0  0  0  0
   40.1730   11.1826    8.6419 H   0  0  0  0  0  0  0  0  0  0  0  0
   41.4385   12.3918    8.6665 H   0  0  0  0  0  0  0  0  0  0  0  0
   41.3326    9.4965   11.8981 H   0  0  0  0  0  0  0  0  0  0  0  0
   40.1123    9.3680   10.6442 H   0  0  0  0  0  0  0  0  0  0  0  0
   45.3053   13.5281   11.2298 H   0  0  0  0  0  0  0  0  0  0  0  0
   43.7452   12.7785   11.4749 H   0  0  0  0  0  0  0  0  0  0  0  0
   45.5768   11.7078   12.7650 H   0  0  0  0  0  0  0  0  0  0  0  0
   46.4594   11.3540   11.2795 H   0  0  0  0  0  0  0  0  0  0  0  0
   39.2561   10.5264   12.6648 H   0  0  0  0  0  0  0  0  0  0  0  0
   40.5790   11.6643   12.6226 H   0  0  0  0  0  0  0  0  0  0  0  0
   40.6526   13.3685   10.7391 H   0  0  0  0  0  0  0  0  0  0  0  0
   39.3724   13.3507    9.5520 H   0  0  0  0  0  0  0  0  0  0  0  0
   43.0392   10.3708    7.2948 H   0  0  0  0  0  0  0  0  0  0  0  0
   37.3173   10.9224   11.2979 H   0  0  0  0  0  0  0  0  0  0  0  0
   37.3671   12.0967    9.9949 H   0  0  0  0  0  0  0  0  0  0  0  0
   38.2582   10.5728    9.8375 H   0  0  0  0  0  0  0  0  0  0  0  0
   43.5117    6.4477   11.5813 H   0  0  0  0  0  0  0  0  0  0  0  0
   46.3358    9.3045   13.0478 H   0  0  0  0  0  0  0  0  0  0  0  0
   46.0022   13.9776    8.9971 H   0  0  0  0  0  0  0  0  0  0  0  0
   45.4840    6.9756   13.0186 H   0  0  0  0  0  0  0  0  0  0  0  0
   44.3471   11.7599    5.7148 H   0  0  0  0  0  0  0  0  0  0  0  0
   45.8162   13.5666    6.5699 H   0  0  0  0  0  0  0  0  0  0  0  0
   41.2468    9.5591   11.2004 H   0  0  0  0  0  0  0  0  0  0  0  0
   43.5806    8.8656   11.1301 H   0  0  0  0  0  0  0  0  0  0  0  0
   44.8033   11.3823    8.4374 H   0  0  0  0  0  0  0  0  0  0  0  0
   39.9502   12.3114    9.6932 H   0  0  0  0  0  0  0  0  0  0  0  0
  2  3  1  0
  3  4  2  0
  4  1  1  0
  5  2  2  0
  6  1  2  0
  7  1  1  0
  8  2  1  0
 10  9  1  0
 11  9  1  0
 12  9  2  3
 13 21  1  0
 14 10  2  0
 15 10  1  0
 16 11  2  0
 17 12  1  0
 18 12  1  0
 19 16  1  0
 20 15  1  0
 21 18  1  0
 22 17  1  0
 23 11  1  0
 24 13  1  0
 25 14  1  0
 26 15  2  0
 27 16  1  0
 28 26  1  0
 29 23  2  0
 30 29  1  0
 22 13  1  0
 20 19  1  0
 27 30  2  0
 25 28  2  0
 32 33  1  0
 33 34  2  0
 34 31  1  0
 35 32  2  0
 36 31  2  0
 37 31  1  0
 38 32  1  0
  3 39  1  0
  4 40  1  0
  7 41  1  0
  8 42  1  0
 17 43  1  0
 17 44  1  0
 18 45  1  0
 18 46  1  0
 19 47  1  0
 19 48  1  0
 20 49  1  0
 20 50  1  0
 21 51  1  0
 21 52  1  0
 22 53  1  0
 22 54  1  0
 23 55  1  0
 24 56  1  0
 24 57  1  0
 24 58  1  0
 25 59  1  0
 26 60  1  0
 27 61  1  0
 28 62  1  0
 29 63  1  0
 30 64  1  0
 33 65  1  0
 34 66  1  0
 37 67  1  0
 38 68  1  0
M  END
> <Uni-Dock RESULT> 
ENERGY=   -5.784  LOWER_BOUND=    0.000  UPPER_BOUND=    0.000
INTER + INTRA:          -5.784
INTER:                  -5.784
INTRA:                   0.000
UNBOUND:                 0.000

$$$$

     RDKit          3D

 68 69  0  0  0  0  0  0  0  0999 V2000
   50.3518    5.0890   17.9223 C   0  0  0  0  0  0  0  0  0  0  0  0
   49.4738    5.3875   20.7784 C   0  0  0  0  0  0  0  0  0  0  0  0
   50.8749    5.3443   20.3395 C   0  0  0  0  0  0  0  0  0  0  0  0
   51.2597    5.2554   19.0595 C   0  0  0  0  0  0  0  0  0  0  0  0
   48.4970    5.7258   20.1411 O   0  0  0  0  0  0  0  0  0  0  0  0
   50.4097    5.7221   16.8854 O   0  0  0  0  0  0  0  0  0  0  0  0
   49.5128    4.0585   18.0983 O   0  0  0  0  0  0  0  0  0  0  0  0
   49.3960    5.0260   22.0693 O   0  0  0  0  0  0  0  0  0  0  0  0
   50.2835    4.5589   19.3160 C   0  0  0  0  0  0  0  0  0  0  0  0
   51.7145    4.5858   18.9070 C   0  0  0  0  0  0  0  0  0  0  0  0
   49.2496    4.3488   18.2745 C   0  0  0  0  0  0  0  0  0  0  0  0
   49.9038    4.8130   20.5996 C   0  0  0  0  0  0  0  0  0  0  0  0
   49.0638    6.4681   22.9535 N   0  0  0  0  0  0  0  0  0  0  0  0
   52.5177    3.7281   19.5962 N   0  0  0  0  0  0  0  0  0  0  0  0
   52.1853    5.3899   17.8588 C   0  0  0  0  0  0  0  0  0  0  0  0
   49.0413    5.3589   17.3197 C   0  0  0  0  0  0  0  0  0  0  0  0
   48.4599    4.8537   21.0867 C   0  0  0  0  0  0  0  0  0  0  0  0
   50.8637    5.1410   21.7375 C   0  0  0  0  0  0  0  0  0  0  0  0
   49.8921    6.6042   17.3626 C   0  0  0  0  0  0  0  0  0  0  0  0
   51.3536    6.3170   16.9943 C   0  0  0  0  0  0  0  0  0  0  0  0
   50.4572    6.4288   22.4782 C   0  0  0  0  0  0  0  0  0  0  0  0
   48.1462    6.1558   21.8451 C   0  0  0  0  0  0  0  0  0  0  0  0
   48.5159    3.1578   18.2067 C   0  0  0  0  0  0  0  0  0  0  0  0
   48.8547    5.5890   24.1018 C   0  0  0  0  0  0  0  0  0  0  0  0
   53.8220    3.6753   19.2620 C   0  0  0  0  0  0  0  0  0  0  0  0
   53.5545    5.2962   17.5502 C   0  0  0  0  0  0  0  0  0  0  0  0
   48.0708    5.1762   16.3266 C   0  0  0  0  0  0  0  0  0  0  0  0
   54.3845    4.4356   18.2583 C   0  0  0  0  0  0  0  0  0  0  0  0
   47.5534    2.9852   17.2127 C   0  0  0  0  0  0  0  0  0  0  0  0
   47.3280    3.9951   16.2780 C   0  0  0  0  0  0  0  0  0  0  0  0
   50.6414    4.4779   18.0080 C   0  0  0  0  0  0  0  0  0  0  0  0
   49.4154    5.3428   20.6088 C   0  0  0  0  0  0  0  0  0  0  0  0
   50.7905    4.8476   20.4619 C   0  0  0  0  0  0  0  0  0  0  0  0
   51.3456    4.5050   19.2918 C   0  0  0  0  0  0  0  0  0  0  0  0
   48.7132    5.8701   19.7701 O   0  0  0  0  0  0  0  0  0  0  0  0
   51.0668    4.9461   16.9692 O   0  0  0  0  0  0  0  0  0  0  0  0
   49.5127    3.7576   18.0716 O   0  0  0  0  0  0  0  0  0  0  0  0
   49.0100    5.1730   21.8776 O   0  0  0  0  0  0  0  0  0  0  0  0
   51.6164    5.4320   21.1251 H   0  0  0  0  0  0  0  0  0  0  0  0
   52.3073    5.3217   18.7922 H   0  0  0  0  0  0  0  0  0  0  0  0
   48.9461    4.0733   17.2999 H   0  0  0  0  0  0  0  0  0  0  0  0
   48.4383    5.0853   22.2692 H   0  0  0  0  0  0  0  0  0  0  0  0
   48.2888    3.9879   21.7382 H   0  0  0  0  0  0  0  0  0  0  0  0
   47.7323    4.7714   20.2750 H   0  0  0  0  0  0  0  0  0  0  0  0
   51.8924    5.2879   21.3997 H   0  0  0  0  0  0  0  0  0  0  0  0
   50.8825    4.2942   22.4343 H   0  0  0  0  0  0  0  0  0  0  0  0
   49.4934    7.3434   16.6559 H   0  0  0  0  0  0  0  0  0  0  0  0
   49.8203    7.0736   18.3519 H   0  0  0  0  0  0  0  0  0  0  0  0
   51.8693    7.2865   16.9657 H   0  0  0  0  0  0  0  0  0  0  0  0
   51.3781    5.9147   15.9720 H   0  0  0  0  0  0  0  0  0  0  0  0
   51.1426    6.5983   23.3183 H   0  0  0  0  0  0  0  0  0  0  0  0
   50.6086    7.2830   21.8042 H   0  0  0  0  0  0  0  0  0  0  0  0
   48.1747    6.9927   21.1339 H   0  0  0  0  0  0  0  0  0  0  0  0
   47.1134    6.1238   22.2141 H   0  0  0  0  0  0  0  0  0  0  0  0
   48.6953    2.3651   18.9293 H   0  0  0  0  0  0  0  0  0  0  0  0
   49.5071    5.8851   24.9310 H   0  0  0  0  0  0  0  0  0  0  0  0
   47.8265    5.6811   24.4692 H   0  0  0  0  0  0  0  0  0  0  0  0
   49.0432    4.5333   23.8833 H   0  0  0  0  0  0  0  0  0  0  0  0
   54.4203    2.9795   19.8425 H   0  0  0  0  0  0  0  0  0  0  0  0
   53.9758    5.8919   16.7429 H   0  0  0  0  0  0  0  0  0  0  0  0
   47.8928    5.9460   15.5797 H   0  0  0  0  0  0  0  0  0  0  0  0
   55.4399    4.3547   18.0249 H   0  0  0  0  0  0  0  0  0  0  0  0
   46.9822    2.0620   17.1657 H   0  0  0  0  0  0  0  0  0  0  0  0
   46.5782    3.8579   15.5029 H   0  0  0  0  0  0  0  0  0  0  0  0
   51.3757    4.8079   21.3733 H   0  0  0  0  0  0  0  0  0  0  0  0
   52.3934    4.2356   19.2357 H   0  0  0  0  0  0  0  0  0  0  0  0
   49.1240    3.8440   17.1771 H   0  0  0  0  0  0  0  0  0  0  0  0
   48.0964    5.5282   21.8783 H   0  0  0  0  0  0  0  0  0  0  0  0
  2  3  1  0
  3  4  2  0
  4  1  1  0
  5  2  2  0
  6  1  2  0
  7  1  1  0
  8  2  1  0
 10  9  1  0
 11  9  1  0
 12  9  2  3
 13 21  1  0
 14 10  2  0
 15 10  1  0
 16 11  2  0
 17 12  1  0
 18 12  1  0
 19 16  1  0
 20 15  1  0
 21 18  1  0
 22 17  1  0
 23 11  1  0
 24 13  1  0
 25 14  1  0
 26 15  2  0
 27 16  1  0
 28 26  1  0
 29 23  2  0
 30 29  1  0
 22 13  1  0
 20 19  1  0
 27 30  2  0
 25 28  2  0
 32 33  1  0
 33 34  2  0
 34 31  1  0
 35 32  2  0
 36 31  2  0
 37 31  1  0
 38 32  1  0
  3 39  1  0
  4 40  1  0
  7 41  1  0
  8 42  1  0
 17 43  1  0
 17 44  1  0
 18 45  1  0
 18 46  1  0
 19 47  1  0
 19 48  1  0
 20 49  1  0
 20 50  1  0
 21 51  1  0
 21 52  1  0
 22 53  1  0
 22 54  1  0
 23 55  1  0
 24 56  1  0
 24 57  1  0
 24 58  1  0
 25 59  1  0
 26 60  1  0
 27 61  1  0
 28 62  1  0
 29 63  1  0
 30 64  1  0
 33 65  1  0
 34 66  1  0
 37 67  1  0
 38 68  1  0
M  END
> <Uni-Dock RESULT> 
ENERGY=   -5.214  LOWER_BOUND=   10.809  UPPER_BOUND=   13.419
INTER + INTRA:          -5.214
INTER:                  -5.214
INTRA:                   0.000
UNBOUND:                 0.000

$$$$

     RDKit          3D

 68 69  0  0  0  0  0  0  0  0999 V2000
   48.6243    8.4751   13.1949 C   0  0  0  0  0  0  0  0  0  0  0  0
   46.6706    6.2015   13.0184 C   0  0  0  0  0  0  0  0  0  0  0  0
   46.5454    7.4646   12.2792 C   0  0  0  0  0  0  0  0  0  0  0  0
   47.4436    8.4573   12.3285 C   0  0  0  0  0  0  0  0  0  0  0  0
   47.6790    5.6804   13.4499 O   0  0  0  0  0  0  0  0  0  0  0  0
   49.7463    8.7805   12.8382 O   0  0  0  0  0  0  0  0  0  0  0  0
   48.3089    8.2369   14.4758 O   0  0  0  0  0  0  0  0  0  0  0  0
   45.4626    5.6265   13.1331 O   0  0  0  0  0  0  0  0  0  0  0  0
   47.2536    7.9281   13.4184 C   0  0  0  0  0  0  0  0  0  0  0  0
   47.1241    9.1657   12.6014 C   0  0  0  0  0  0  0  0  0  0  0  0
   48.3779    7.8240   14.3790 C   0  0  0  0  0  0  0  0  0  0  0  0
   46.4231    6.8635   13.2364 C   0  0  0  0  0  0  0  0  0  0  0  0
   45.4693    4.2754   12.0624 N   0  0  0  0  0  0  0  0  0  0  0  0
   45.9034    9.7663   12.6711 N   0  0  0  0  0  0  0  0  0  0  0  0
   48.1913    9.6989   11.8640 C   0  0  0  0  0  0  0  0  0  0  0  0
   49.6863    7.7251   13.8754 C   0  0  0  0  0  0  0  0  0  0  0  0
   46.5214    5.5452   13.9955 C   0  0  0  0  0  0  0  0  0  0  0  0
   45.2950    6.8105   12.2126 C   0  0  0  0  0  0  0  0  0  0  0  0
   49.9095    7.7604   12.3836 C   0  0  0  0  0  0  0  0  0  0  0  0
   49.5981    9.1391   11.7864 C   0  0  0  0  0  0  0  0  0  0  0  0
   45.3788    5.5504   11.3308 C   0  0  0  0  0  0  0  0  0  0  0  0
   46.5655    4.3364   13.0437 C   0  0  0  0  0  0  0  0  0  0  0  0
   48.1598    7.8623   15.7619 C   0  0  0  0  0  0  0  0  0  0  0  0
   44.1977    3.9122   12.6837 C   0  0  0  0  0  0  0  0  0  0  0  0
   45.7193   10.9086   11.9804 C   0  0  0  0  0  0  0  0  0  0  0  0
   47.9462   10.8928   11.1618 C   0  0  0  0  0  0  0  0  0  0  0  0
   50.7609    7.6292   14.7685 C   0  0  0  0  0  0  0  0  0  0  0  0
   46.6993   11.5041   11.2144 C   0  0  0  0  0  0  0  0  0  0  0  0
   49.2370    7.7679   16.6424 C   0  0  0  0  0  0  0  0  0  0  0  0
   50.5343    7.6462   16.1459 C   0  0  0  0  0  0  0  0  0  0  0  0
   48.1877    8.9124   13.4824 C   0  0  0  0  0  0  0  0  0  0  0  0
   46.8120    6.2688   13.1166 C   0  0  0  0  0  0  0  0  0  0  0  0
   46.2542    7.5612   12.6971 C   0  0  0  0  0  0  0  0  0  0  0  0
   46.8923    8.7324   12.8233 C   0  0  0  0  0  0  0  0  0  0  0  0
   47.9786    5.9677   13.2684 O   0  0  0  0  0  0  0  0  0  0  0  0
   49.1151    9.5581   13.0328 O   0  0  0  0  0  0  0  0  0  0  0  0
   48.1994    8.3854   14.7149 O   0  0  0  0  0  0  0  0  0  0  0  0
   45.8168    5.3829   13.2833 O   0  0  0  0  0  0  0  0  0  0  0  0
   45.6792    7.5470   11.6328 H   0  0  0  0  0  0  0  0  0  0  0  0
   47.3425    9.3255   11.6887 H   0  0  0  0  0  0  0  0  0  0  0  0
   49.1717    8.2417   14.9387 H   0  0  0  0  0  0  0  0  0  0  0  0
   45.6446    4.8026   13.6318 H   0  0  0  0  0  0  0  0  0  0  0  0
   45.6569    5.4652   14.6659 H   0  0  0  0  0  0  0  0  0  0  0  0
   47.4070    5.4841   14.6335 H   0  0  0  0  0  0  0  0  0  0  0  0
   45.2943    7.6662   11.5331 H   0  0  0  0  0  0  0  0  0  0  0  0
   44.3370    6.8354   12.7460 H   0  0  0  0  0  0  0  0  0  0  0  0
   50.9565    7.5143   12.1651 H   0  0  0  0  0  0  0  0  0  0  0  0
   49.3148    6.9771   11.8968 H   0  0  0  0  0  0  0  0  0  0  0  0
   49.8729    9.0932   10.7239 H   0  0  0  0  0  0  0  0  0  0  0  0
   50.2656    9.8756   12.2550 H   0  0  0  0  0  0  0  0  0  0  0  0
   44.5219    5.5270   10.6456 H   0  0  0  0  0  0  0  0  0  0  0  0
   46.2637    5.6331   10.6851 H   0  0  0  0  0  0  0  0  0  0  0  0
   47.5152    4.3576   12.4919 H   0  0  0  0  0  0  0  0  0  0  0  0
   46.5918    3.4099   13.6309 H   0  0  0  0  0  0  0  0  0  0  0  0
   47.1500    7.9654   16.1519 H   0  0  0  0  0  0  0  0  0  0  0  0
   43.4165    3.8140   11.9215 H   0  0  0  0  0  0  0  0  0  0  0  0
   44.2782    2.9343   13.1716 H   0  0  0  0  0  0  0  0  0  0  0  0
   43.8538    4.6356   13.4295 H   0  0  0  0  0  0  0  0  0  0  0  0
   44.7291   11.3460   12.0656 H   0  0  0  0  0  0  0  0  0  0  0  0
   48.7380   11.3564   10.5769 H   0  0  0  0  0  0  0  0  0  0  0  0
   51.7806    7.5500   14.3994 H   0  0  0  0  0  0  0  0  0  0  0  0
   46.5029   12.4259   10.6792 H   0  0  0  0  0  0  0  0  0  0  0  0
   49.0641    7.7928   17.7149 H   0  0  0  0  0  0  0  0  0  0  0  0
   51.3728    7.5744   16.8341 H   0  0  0  0  0  0  0  0  0  0  0  0
   45.2801    7.5214   12.2236 H   0  0  0  0  0  0  0  0  0  0  0  0
   46.4680    9.6395   12.4102 H   0  0  0  0  0  0  0  0  0  0  0  0
   49.1137    8.5375   15.0305 H   0  0  0  0  0  0  0  0  0  0  0  0
   46.2796    4.5635   13.5576 H   0  0  0  0  0  0  0  0  0  0  0  0
  2  3  1  0
  3  4  2  0
  4  1  1  0
  5  2  2  0
  6  1  2  0
  7  1  1  0
  8  2  1  0
 10  9  1  0
 11  9  1  0
 12  9  2  3
 13 21  1  0
 14 10  2  0
 15 10  1  0
 16 11  2  0
 17 12  1  0
 18 12  1  0
 19 16  1  0
 20 15  1  0
 21 18  1  0
 22 17  1  0
 23 11  1  0
 24 13  1  0
 25 14  1  0
 26 15  2  0
 27 16  1  0
 28 26  1  0
 29 23  2  0
 30 29  1  0
 22 13  1  0
 20 19  1  0
 27 30  2  0
 25 28  2  0
 32 33  1  0
 33 34  2  0
 34 31  1  0
 35 32  2  0
 36 31  2  0
 37 31  1  0
 38 32  1  0
  3 39  1  0
  4 40  1  0
  7 41  1  0
  8 42  1  0
 17 43  1  0
 17 44  1  0
 18 45  1  0
 18 46  1  0
 19 47  1  0
 19 48  1  0
 20 49  1  0
 20 50  1  0
 21 51  1  0
 21 52  1  0
 22 53  1  0
 22 54  1  0
 23 55  1  0
 24 56  1  0
 24 57  1  0
 24 58  1  0
 25 59  1  0
 26 60  1  0
 27 61  1  0
 28 62  1  0
 29 63  1  0
 30 64  1  0
 33 65  1  0
 34 66  1  0
 37 67  1  0
 38 68  1  0
M  END
> <Uni-Dock RESULT> 
ENERGY=   -5.203  LOWER_BOUND=    4.920  UPPER_BOUND=    7.493
INTER + INTRA:          -5.203
INTER:                  -5.203
INTRA:                   0.000
UNBOUND:                 0.000

$$$$

     RDKit          3D

 68 69  0  0  0  0  0  0  0  0999 V2000
   48.9597    5.3587   20.2027 C   0  0  0  0  0  0  0  0  0  0  0  0
   48.2569    8.1416   19.3200 C   0  0  0  0  0  0  0  0  0  0  0  0
   48.3496    7.7124   20.7217 C   0  0  0  0  0  0  0  0  0  0  0  0
   48.7068    6.4809   21.1093 C   0  0  0  0  0  0  0  0  0  0  0  0
   48.8096    7.6639   18.3500 O   0  0  0  0  0  0  0  0  0  0  0  0
   49.9135    4.6072   20.2726 O   0  0  0  0  0  0  0  0  0  0  0  0
   47.9443    5.1663   19.3490 O   0  0  0  0  0  0  0  0  0  0  0  0
   47.4694    9.2258   19.2332 O   0  0  0  0  0  0  0  0  0  0  0  0
   47.9783    6.4806   20.1227 C   0  0  0  0  0  0  0  0  0  0  0  0
   48.1260    6.1038   21.5553 C   0  0  0  0  0  0  0  0  0  0  0  0
   48.1588    5.4331   19.0892 C   0  0  0  0  0  0  0  0  0  0  0  0
   47.7747    7.7730   19.7426 C   0  0  0  0  0  0  0  0  0  0  0  0
   48.5176   10.5576   18.9182 N   0  0  0  0  0  0  0  0  0  0  0  0
   47.0708    6.4496   22.3444 N   0  0  0  0  0  0  0  0  0  0  0  0
   49.2382    5.4006   22.0404 C   0  0  0  0  0  0  0  0  0  0  0  0
   49.4410    4.8904   18.8979 C   0  0  0  0  0  0  0  0  0  0  0  0
   47.6633    8.2465   18.2979 C   0  0  0  0  0  0  0  0  0  0  0  0
   47.6722    8.9520   20.7033 C   0  0  0  0  0  0  0  0  0  0  0  0
   50.5814    5.3628   19.7657 C   0  0  0  0  0  0  0  0  0  0  0  0
   50.4200    4.9148   21.2243 C   0  0  0  0  0  0  0  0  0  0  0  0
   48.6268   10.0958   20.3124 C   0  0  0  0  0  0  0  0  0  0  0  0
   48.6240    9.4116   17.9998 C   0  0  0  0  0  0  0  0  0  0  0  0
   47.0764    4.9560   18.3395 C   0  0  0  0  0  0  0  0  0  0  0  0
   47.2966   11.3281   18.6934 C   0  0  0  0  0  0  0  0  0  0  0  0
   47.1194    6.1154   23.6489 C   0  0  0  0  0  0  0  0  0  0  0  0
   49.2387    5.0760   23.4091 C   0  0  0  0  0  0  0  0  0  0  0  0
   49.6294    3.8976   17.9281 C   0  0  0  0  0  0  0  0  0  0  0  0
   48.1738    5.4384   24.2250 C   0  0  0  0  0  0  0  0  0  0  0  0
   47.2745    3.9659   17.3777 C   0  0  0  0  0  0  0  0  0  0  0  0
   48.5498    3.4421   17.1692 C   0  0  0  0  0  0  0  0  0  0  0  0
   48.3531    5.2256   20.4835 C   0  0  0  0  0  0  0  0  0  0  0  0
   48.2748    7.9671   19.2615 C   0  0  0  0  0  0  0  0  0  0  0  0
   47.8427    7.6543   20.6301 C   0  0  0  0  0  0  0  0  0  0  0  0
   47.9214    6.4371   21.1841 C   0  0  0  0  0  0  0  0  0  0  0  0
   49.0711    7.3660   18.5693 O   0  0  0  0  0  0  0  0  0  0  0  0
   49.1478    4.4142   20.9186 O   0  0  0  0  0  0  0  0  0  0  0  0
   47.6717    5.0364   19.3448 O   0  0  0  0  0  0  0  0  0  0  0  0
   47.6793    9.0980   18.8499 O   0  0  0  0  0  0  0  0  0  0  0  0
   48.1478    8.4780   21.4619 H   0  0  0  0  0  0  0  0  0  0  0  0
   48.8474    6.2515   22.1585 H   0  0  0  0  0  0  0  0  0  0  0  0
   48.2444    4.4241   18.7850 H   0  0  0  0  0  0  0  0  0  0  0  0
   47.4688    9.4356   18.2758 H   0  0  0  0  0  0  0  0  0  0  0  0
   46.6273    8.5558   18.1128 H   0  0  0  0  0  0  0  0  0  0  0  0
   47.8792    7.4583   17.5718 H   0  0  0  0  0  0  0  0  0  0  0  0
   47.9131    8.6846   21.7351 H   0  0  0  0  0  0  0  0  0  0  0  0
   46.6356    9.3102   20.7083 H   0  0  0  0  0  0  0  0  0  0  0  0
   51.5259    4.9587   19.3794 H   0  0  0  0  0  0  0  0  0  0  0  0
   50.6776    6.4538   19.6973 H   0  0  0  0  0  0  0  0  0  0  0  0
   51.3314    5.2248   21.7533 H   0  0  0  0  0  0  0  0  0  0  0  0
   50.3987    3.8163   21.2464 H   0  0  0  0  0  0  0  0  0  0  0  0
   48.4834   10.9410   20.9975 H   0  0  0  0  0  0  0  0  0  0  0  0
   49.6601    9.7613   20.4776 H   0  0  0  0  0  0  0  0  0  0  0  0
   49.6557    9.0364   18.0420 H   0  0  0  0  0  0  0  0  0  0  0  0
   48.4798    9.7483   16.9655 H   0  0  0  0  0  0  0  0  0  0  0  0
   46.0793    5.3568   18.5056 H   0  0  0  0  0  0  0  0  0  0  0  0
   47.2761   12.2072   19.3473 H   0  0  0  0  0  0  0  0  0  0  0  0
   47.2693   11.7065   17.6655 H   0  0  0  0  0  0  0  0  0  0  0  0
   46.3806   10.7551   18.8680 H   0  0  0  0  0  0  0  0  0  0  0  0
   46.2566    6.4160   24.2357 H   0  0  0  0  0  0  0  0  0  0  0  0
   50.0723    4.5260   23.8410 H   0  0  0  0  0  0  0  0  0  0  0  0
   50.6136    3.4662   17.7630 H   0  0  0  0  0  0  0  0  0  0  0  0
   48.1645    5.1894   25.2798 H   0  0  0  0  0  0  0  0  0  0  0  0
   46.4335    3.6014   16.7939 H   0  0  0  0  0  0  0  0  0  0  0  0
   48.7017    2.6691   16.4200 H   0  0  0  0  0  0  0  0  0  0  0  0
   47.4797    8.4937   21.2119 H   0  0  0  0  0  0  0  0  0  0  0  0
   47.6737    6.2887   22.2282 H   0  0  0  0  0  0  0  0  0  0  0  0
   48.0697    4.2288   18.9601 H   0  0  0  0  0  0  0  0  0  0  0  0
   48.0249    9.2242   17.9413 H   0  0  0  0  0  0  0  0  0  0  0  0
  2  3  1  0
  3  4  2  0
  4  1  1  0
  5  2  2  0
  6  1  2  0
  7  1  1  0
  8  2  1  0
 10  9  1  0
 11  9  1  0
 12  9  2  3
 13 21  1  0
 14 10  2  0
 15 10  1  0
 16 11  2  0
 17 12  1  0
 18 12  1  0
 19 16  1  0
 20 15  1  0
 21 18  1  0
 22 17  1  0
 23 11  1  0
 24 13  1  0
 25 14  1  0
 26 15  2  0
 27 16  1  0
 28 26  1  0
 29 23  2  0
 30 29  1  0
 22 13  1  0
 20 19  1  0
 27 30  2  0
 25 28  2  0
 32 33  1  0
 33 34  2  0
 34 31  1  0
 35 32  2  0
 36 31  2  0
 37 31  1  0
 38 32  1  0
  3 39  1  0
  4 40  1  0
  7 41  1  0
  8 42  1  0
 17 43  1  0
 17 44  1  0
 18 45  1  0
 18 46  1  0
 19 47  1  0
 19 48  1  0
 20 49  1  0
 20 50  1  0
 21 51  1  0
 21 52  1  0
 22 53  1  0
 22 54  1  0
 23 55  1  0
 24 56  1  0
 24 57  1  0
 24 58  1  0
 25 59  1  0
 26 60  1  0
 27 61  1  0
 28 62  1  0
 29 63  1  0
 30 64  1  0
 33 65  1  0
 34 66  1  0
 37 67  1  0
 38 68  1  0
M  END
> <Uni-Dock RESULT> 
ENERGY=   -5.167  LOWER_BOUND=    9.986  UPPER_BOUND=   12.369
INTER + INTRA:          -5.167
INTER:                  -5.167
INTRA:                   0.000
UNBOUND:                 0.000

$$$$

     RDKit          3D

 68 69  0  0  0  0  0  0  0  0999 V2000
   49.6652    4.4510   18.3381 C   0  0  0  0  0  0  0  0  0  0  0  0
   51.4916    6.7254   17.6248 C   0  0  0  0  0  0  0  0  0  0  0  0
   51.7619    5.3145   17.3184 C   0  0  0  0  0  0  0  0  0  0  0  0
   50.9223    4.3094   17.6001 C   0  0  0  0  0  0  0  0  0  0  0  0
   50.4172    7.2639   17.7986 O   0  0  0  0  0  0  0  0  0  0  0  0
   48.6033    3.9587   18.0075 O   0  0  0  0  0  0  0  0  0  0  0  0
   49.8389    5.0872   19.5052 O   0  0  0  0  0  0  0  0  0  0  0  0
   52.6471    7.4089   17.6500 O   0  0  0  0  0  0  0  0  0  0  0  0
   50.9733    5.1543   18.4874 C   0  0  0  0  0  0  0  0  0  0  0  0
   51.2540    3.7448   18.0997 C   0  0  0  0  0  0  0  0  0  0  0  0
   49.7559    5.4449   19.2820 C   0  0  0  0  0  0  0  0  0  0  0  0
   51.7545    6.1825   18.0528 C   0  0  0  0  0  0  0  0  0  0  0  0
   52.6673    8.3724   16.2206 N   0  0  0  0  0  0  0  0  0  0  0  0
   52.4947    3.2986   18.4421 N   0  0  0  0  0  0  0  0  0  0  0  0
   50.2971    2.9268   17.4814 C   0  0  0  0  0  0  0  0  0  0  0  0
   48.4998    5.2770   18.6743 C   0  0  0  0  0  0  0  0  0  0  0  0
   51.5059    7.6540   18.3633 C   0  0  0  0  0  0  0  0  0  0  0  0
   52.9727    6.0227   17.1505 C   0  0  0  0  0  0  0  0  0  0  0  0
   48.4267    4.7785   17.2521 C   0  0  0  0  0  0  0  0  0  0  0  0
   48.8746    3.3161   17.1299 C   0  0  0  0  0  0  0  0  0  0  0  0
   52.9031    6.9496   15.9224 C   0  0  0  0  0  0  0  0  0  0  0  0
   51.4854    8.5146   17.0873 C   0  0  0  0  0  0  0  0  0  0  0  0
   49.8389    5.8404   20.6229 C   0  0  0  0  0  0  0  0  0  0  0  0
   53.8485    9.0116   16.7961 C   0  0  0  0  0  0  0  0  0  0  0  0
   52.8116    2.0221   18.1493 C   0  0  0  0  0  0  0  0  0  0  0  0
   50.6788    1.6029   17.1981 C   0  0  0  0  0  0  0  0  0  0  0  0
   47.3389    5.5438   19.4110 C   0  0  0  0  0  0  0  0  0  0  0  0
   51.9478    1.1437   17.5295 C   0  0  0  0  0  0  0  0  0  0  0  0
   48.6768    6.1018   21.3479 C   0  0  0  0  0  0  0  0  0  0  0  0
   47.4297    5.9587   20.7408 C   0  0  0  0  0  0  0  0  0  0  0  0
   50.0961    4.1584   18.7778 C   0  0  0  0  0  0  0  0  0  0  0  0
   51.3454    6.6788   17.7279 C   0  0  0  0  0  0  0  0  0  0  0  0
   52.0157    5.3724   17.7667 C   0  0  0  0  0  0  0  0  0  0  0  0
   51.4373    4.2427   18.1956 C   0  0  0  0  0  0  0  0  0  0  0  0
   50.1541    6.9111   17.6913 O   0  0  0  0  0  0  0  0  0  0  0  0
   49.2563    3.3315   18.4776 O   0  0  0  0  0  0  0  0  0  0  0  0
   49.9328    5.0268   19.7858 O   0  0  0  0  0  0  0  0  0  0  0  0
   52.2664    7.6552   17.6913 O   0  0  0  0  0  0  0  0  0  0  0  0
   52.6907    5.1166   16.7959 H   0  0  0  0  0  0  0  0  0  0  0  0
   51.1359    3.3015   17.2656 H   0  0  0  0  0  0  0  0  0  0  0  0
   48.9365    5.1477   19.8804 H   0  0  0  0  0  0  0  0  0  0  0  0
   52.3695    8.3257   17.8579 H   0  0  0  0  0  0  0  0  0  0  0  0
   52.2942    8.0039   19.0409 H   0  0  0  0  0  0  0  0  0  0  0  0
   50.5598    7.8275   18.8829 H   0  0  0  0  0  0  0  0  0  0  0  0
   53.0898    5.0062   16.7669 H   0  0  0  0  0  0  0  0  0  0  0  0
   53.8735    6.2399   17.7372 H   0  0  0  0  0  0  0  0  0  0  0  0
   47.3937    4.8580   16.8899 H   0  0  0  0  0  0  0  0  0  0  0  0
   49.0199    5.4281   16.5961 H   0  0  0  0  0  0  0  0  0  0  0  0
   48.7033    3.0187   16.0864 H   0  0  0  0  0  0  0  0  0  0  0  0
   48.2081    2.6993   17.7488 H   0  0  0  0  0  0  0  0  0  0  0  0
   53.8203    6.8398   15.3300 H   0  0  0  0  0  0  0  0  0  0  0  0
   52.0922    6.6027   15.2674 H   0  0  0  0  0  0  0  0  0  0  0  0
   50.5974    8.2487   16.4978 H   0  0  0  0  0  0  0  0  0  0  0  0
   51.3478    9.5686   17.3598 H   0  0  0  0  0  0  0  0  0  0  0  0
   50.8098    5.9449   21.1013 H   0  0  0  0  0  0  0  0  0  0  0  0
   54.6938    8.9434   16.1020 H   0  0  0  0  0  0  0  0  0  0  0  0
   53.6639   10.0800   16.9545 H   0  0  0  0  0  0  0  0  0  0  0  0
   54.1588    8.5762   17.7510 H   0  0  0  0  0  0  0  0  0  0  0  0
   53.8124    1.7159   18.4390 H   0  0  0  0  0  0  0  0  0  0  0  0
   49.9765    0.9201   16.7243 H   0  0  0  0  0  0  0  0  0  0  0  0
   46.3575    5.4220   18.9590 H   0  0  0  0  0  0  0  0  0  0  0  0
   52.2490    0.1242   17.3179 H   0  0  0  0  0  0  0  0  0  0  0  0
   48.7447    6.4135   22.3867 H   0  0  0  0  0  0  0  0  0  0  0  0
   46.5249    6.1614   21.3084 H   0  0  0  0  0  0  0  0  0  0  0  0
   53.0277    5.3515   17.3792 H   0  0  0  0  0  0  0  0  0  0  0  0
   51.9520    3.2931   18.1128 H   0  0  0  0  0  0  0  0  0  0  0  0
   49.0023    4.8989   20.0623 H   0  0  0  0  0  0  0  0  0  0  0  0
   51.7321    8.4767   17.6662 H   0  0  0  0  0  0  0  0  0  0  0  0
  2  3  1  0
  3  4  2  0
  4  1  1  0
  5  2  2  0
  6  1  2  0
  7  1  1  0
  8  2  1  0
 10  9  1  0
 11  9  1  0
 12  9  2  3
 13 21  1  0
 14 10  2  0
 15 10  1  0
 16 11  2  0
 17 12  1  0
 18 12  1  0
 19 16  1  0
 20 15  1  0
 21 18  1  0
 22 17  1  0
 23 11  1  0
 24 13  1  0
 25 14  1  0
 26 15  2  0
 27 16  1  0
 28 26  1  0
 29 23  2  0
 30 29  1  0
 22 13  1  0
 20 19  1  0
 27 30  2  0
 25 28  2  0
 32 33  1  0
 33 34  2  0
 34 31  1  0
 35 32  2  0
 36 31  2  0
 37 31  1  0
 38 32  1  0
  3 39  1  0
  4 40  1  0
  7 41  1  0
  8 42  1  0
 17 43  1  0
 17 44  1  0
 18 45  1  0
 18 46  1  0
 19 47  1  0
 19 48  1  0
 20 49  1  0
 20 50  1  0
 21 51  1  0
 21 52  1  0
 22 53  1  0
 22 54  1  0
 23 55  1  0
 24 56  1  0
 24 57  1  0
 24 58  1  0
 25 59  1  0
 26 60  1  0
 27 61  1  0
 28 62  1  0
 29 63  1  0
 30 64  1  0
 33 65  1  0
 34 66  1  0
 37 67  1  0
 38 68  1  0
M  END
> <Uni-Dock RESULT> 
ENERGY=   -4.927  LOWER_BOUND=   11.205  UPPER_BOUND=   13.180
INTER + INTRA:          -4.927
INTER:                  -4.927
INTRA:                   0.000
UNBOUND:                 0.000

$$$$

     RDKit          3D

 68 69  0  0  0  0  0  0  0  0999 V2000
   48.4689    8.9657   12.3647 C   0  0  0  0  0  0  0  0  0  0  0  0
   49.3463    7.6463   14.9154 C   0  0  0  0  0  0  0  0  0  0  0  0
   50.2534    8.2996   13.9626 C   0  0  0  0  0  0  0  0  0  0  0  0
   49.8507    8.9250   12.8484 C   0  0  0  0  0  0  0  0  0  0  0  0
   48.1644    7.8596   15.0946 O   0  0  0  0  0  0  0  0  0  0  0  0
   47.8971    9.9645   11.9711 O   0  0  0  0  0  0  0  0  0  0  0  0
   47.9315    7.7405   12.2810 O   0  0  0  0  0  0  0  0  0  0  0  0
   50.0313    6.7531   15.6476 O   0  0  0  0  0  0  0  0  0  0  0  0
   49.2286    7.8915   13.0697 C   0  0  0  0  0  0  0  0  0  0  0  0
   50.1735    8.6003   12.1638 C   0  0  0  0  0  0  0  0  0  0  0  0
   47.7995    7.8096   12.6840 C   0  0  0  0  0  0  0  0  0  0  0  0
   49.6290    7.4029   14.2768 C   0  0  0  0  0  0  0  0  0  0  0  0
   50.1831    7.4373   17.2226 N   0  0  0  0  0  0  0  0  0  0  0  0
   51.2690    7.8739   11.8061 N   0  0  0  0  0  0  0  0  0  0  0  0
   49.9263    9.8915   11.6751 C   0  0  0  0  0  0  0  0  0  0  0  0
   47.0355    8.9892   12.6779 C   0  0  0  0  0  0  0  0  0  0  0  0
   48.7141    6.7110   15.2808 C   0  0  0  0  0  0  0  0  0  0  0  0
   51.0455    7.5136   14.8288 C   0  0  0  0  0  0  0  0  0  0  0  0
   47.6951   10.2998   13.0297 C   0  0  0  0  0  0  0  0  0  0  0  0
   48.7046   10.7421   11.9623 C   0  0  0  0  0  0  0  0  0  0  0  0
   51.0630    8.1072   16.2500 C   0  0  0  0  0  0  0  0  0  0  0  0
   48.8172    7.3416   16.6811 C   0  0  0  0  0  0  0  0  0  0  0  0
   47.2193    6.5963   12.2932 C   0  0  0  0  0  0  0  0  0  0  0  0
   50.7063    6.1330   17.6226 C   0  0  0  0  0  0  0  0  0  0  0  0
   52.1561    8.4391   10.9639 C   0  0  0  0  0  0  0  0  0  0  0  0
   50.8834   10.4347   10.7990 C   0  0  0  0  0  0  0  0  0  0  0  0
   45.6844    8.9310   12.3131 C   0  0  0  0  0  0  0  0  0  0  0  0
   52.0118    9.7071   10.4410 C   0  0  0  0  0  0  0  0  0  0  0  0
   45.8737    6.5497   11.9301 C   0  0  0  0  0  0  0  0  0  0  0  0
   45.1071    7.7143   11.9455 C   0  0  0  0  0  0  0  0  0  0  0  0
   48.7874    8.5262   11.9524 C   0  0  0  0  0  0  0  0  0  0  0  0
   49.2047    7.6632   14.7978 C   0  0  0  0  0  0  0  0  0  0  0  0
   50.2790    7.8060   13.8064 C   0  0  0  0  0  0  0  0  0  0  0  0
   50.0918    8.2339   12.5508 C   0  0  0  0  0  0  0  0  0  0  0  0
   48.1249    8.2183   14.8208 O   0  0  0  0  0  0  0  0  0  0  0  0
   48.5257    9.5198   11.3017 O   0  0  0  0  0  0  0  0  0  0  0  0
   47.9319    7.5039   12.0933 O   0  0  0  0  0  0  0  0  0  0  0  0
   49.5976    6.8219   15.7678 O   0  0  0  0  0  0  0  0  0  0  0  0
   51.3035    8.2895   14.2308 H   0  0  0  0  0  0  0  0  0  0  0  0
   50.5582    9.4683   12.2340 H   0  0  0  0  0  0  0  0  0  0  0  0
   47.0127    7.9029   11.9838 H   0  0  0  0  0  0  0  0  0  0  0  0
   49.3531    6.3750   16.2457 H   0  0  0  0  0  0  0  0  0  0  0  0
   48.9868    5.6494   15.3248 H   0  0  0  0  0  0  0  0  0  0  0  0
   47.6604    6.7420   14.9913 H   0  0  0  0  0  0  0  0  0  0  0  0
   51.6935    8.1476   14.2188 H   0  0  0  0  0  0  0  0  0  0  0  0
   51.4992    6.5150   14.8309 H   0  0  0  0  0  0  0  0  0  0  0  0
   46.9288   11.0792   13.1291 H   0  0  0  0  0  0  0  0  0  0  0  0
   48.1712   10.2271   14.0158 H   0  0  0  0  0  0  0  0  0  0  0  0
   49.0624   11.7377   12.2582 H   0  0  0  0  0  0  0  0  0  0  0  0
   48.1674   10.8679   11.0119 H   0  0  0  0  0  0  0  0  0  0  0  0
   52.0936    8.1208   16.6270 H   0  0  0  0  0  0  0  0  0  0  0  0
   50.7620    9.1622   16.1925 H   0  0  0  0  0  0  0  0  0  0  0  0
   48.3948    8.3550   16.6425 H   0  0  0  0  0  0  0  0  0  0  0  0
   48.1776    6.7872   17.3793 H   0  0  0  0  0  0  0  0  0  0  0  0
   47.8168    5.6880   12.2723 H   0  0  0  0  0  0  0  0  0  0  0  0
   51.6969    6.2442   18.0779 H   0  0  0  0  0  0  0  0  0  0  0  0
   50.0632    5.6834   18.3875 H   0  0  0  0  0  0  0  0  0  0  0  0
   50.7927    5.4242   16.7932 H   0  0  0  0  0  0  0  0  0  0  0  0
   53.0131    7.8216   10.7122 H   0  0  0  0  0  0  0  0  0  0  0  0
   50.7425   11.4303   10.3834 H   0  0  0  0  0  0  0  0  0  0  0  0
   45.0754    9.8317   12.3037 H   0  0  0  0  0  0  0  0  0  0  0  0
   52.7525   10.1166    9.7639 H   0  0  0  0  0  0  0  0  0  0  0  0
   45.4251    5.6059   11.6321 H   0  0  0  0  0  0  0  0  0  0  0  0
   44.0586    7.6761   11.6604 H   0  0  0  0  0  0  0  0  0  0  0  0
   51.2783    7.5800   14.1601 H   0  0  0  0  0  0  0  0  0  0  0  0
   50.9364    8.4072   11.8949 H   0  0  0  0  0  0  0  0  0  0  0  0
   47.1016    7.8306   11.6903 H   0  0  0  0  0  0  0  0  0  0  0  0
   48.8276    6.7913   16.3737 H   0  0  0  0  0  0  0  0  0  0  0  0
  2  3  1  0
  3  4  2  0
  4  1  1  0
  5  2  2  0
  6  1  2  0
  7  1  1  0
  8  2  1  0
 10  9  1  0
 11  9  1  0
 12  9  2  3
 13 21  1  0
 14 10  2  0
 15 10  1  0
 16 11  2  0
 17 12  1  0
 18 12  1  0
 19 16  1  0
 20 15  1  0
 21 18  1  0
 22 17  1  0
 23 11  1  0
 24 13  1  0
 25 14  1  0
 26 15  2  0
 27 16  1  0
 28 26  1  0
 29 23  2  0
 30 29  1  0
 22 13  1  0
 20 19  1  0
 27 30  2  0
 25 28  2  0
 32 33  1  0
 33 34  2  0
 34 31  1  0
 35 32  2  0
 36 31  2  0
 37 31  1  0
 38 32  1  0
  3 39  1  0
  4 40  1  0
  7 41  1  0
  8 42  1  0
 17 43  1  0
 17 44  1  0
 18 45  1  0
 18 46  1  0
 19 47  1  0
 19 48  1  0
 20 49  1  0
 20 50  1  0
 21 51  1  0
 21 52  1  0
 22 53  1  0
 22 54  1  0
 23 55  1  0
 24 56  1  0
 24 57  1  0
 24 58  1  0
 25 59  1  0
 26 60  1  0
 27 61  1  0
 28 62  1  0
 29 63  1  0
 30 64  1  0
 33 65  1  0
 34 66  1  0
 37 67  1  0
 38 68  1  0
M  END
> <Uni-Dock RESULT> 
ENERGY=   -4.769  LOWER_BOUND=    5.453  UPPER_BOUND=    8.538
INTER + INTRA:          -4.769
INTER:                  -4.769
INTRA:                   0.000
UNBOUND:                 0.000

$$$$

     RDKit          3D

 68 69  0  0  0  0  0  0  0  0999 V2000
   47.7236    7.8854   13.5960 C   0  0  0  0  0  0  0  0  0  0  0  0
   48.6714   10.4785   12.4150 C   0  0  0  0  0  0  0  0  0  0  0  0
   48.9939   10.0154   13.7711 C   0  0  0  0  0  0  0  0  0  0  0  0
   48.6045    8.8374   14.2762 C   0  0  0  0  0  0  0  0  0  0  0  0
   48.3764    9.8118   11.4438 O   0  0  0  0  0  0  0  0  0  0  0  0
   47.9206    6.6879   13.5155 O   0  0  0  0  0  0  0  0  0  0  0  0
   46.5918    8.4654   13.1723 O   0  0  0  0  0  0  0  0  0  0  0  0
   48.7907   11.8147   12.3563 O   0  0  0  0  0  0  0  0  0  0  0  0
   47.7379    9.3780   13.5975 C   0  0  0  0  0  0  0  0  0  0  0  0
   48.1424    8.9157   14.9535 C   0  0  0  0  0  0  0  0  0  0  0  0
   46.8070    8.5372   12.8074 C   0  0  0  0  0  0  0  0  0  0  0  0
   48.2725   10.4990   13.0374 C   0  0  0  0  0  0  0  0  0  0  0  0
   50.2217   12.1305   11.4484 N   0  0  0  0  0  0  0  0  0  0  0  0
   47.9457    9.8280   15.9458 N   0  0  0  0  0  0  0  0  0  0  0  0
   48.6343    7.6249   15.1957 C   0  0  0  0  0  0  0  0  0  0  0  0
   47.2593    7.2926   12.3365 C   0  0  0  0  0  0  0  0  0  0  0  0
   47.9491   11.0101   11.6381 C   0  0  0  0  0  0  0  0  0  0  0  0
   49.3117   11.3905   13.7076 C   0  0  0  0  0  0  0  0  0  0  0  0
   48.6577    6.8376   12.6740 C   0  0  0  0  0  0  0  0  0  0  0  0
   48.8179    6.5258   14.1677 C   0  0  0  0  0  0  0  0  0  0  0  0
   50.5318   11.6326   12.7993 C   0  0  0  0  0  0  0  0  0  0  0  0
   49.2220   11.2587   10.8092 C   0  0  0  0  0  0  0  0  0  0  0  0
   45.4895    8.9434   12.5614 C   0  0  0  0  0  0  0  0  0  0  0  0
   49.7971   13.5286   11.4672 C   0  0  0  0  0  0  0  0  0  0  0  0
   48.2615    9.4707   17.2061 C   0  0  0  0  0  0  0  0  0  0  0  0
   48.9480    7.3030   16.5286 C   0  0  0  0  0  0  0  0  0  0  0  0
   46.3923    6.4837   11.5910 C   0  0  0  0  0  0  0  0  0  0  0  0
   48.7654    8.2326   17.5453 C   0  0  0  0  0  0  0  0  0  0  0  0
   44.6339    8.1295   11.8197 C   0  0  0  0  0  0  0  0  0  0  0  0
   45.0869    6.9046   11.3312 C   0  0  0  0  0  0  0  0  0  0  0  0
   47.3354    8.1724   14.0772 C   0  0  0  0  0  0  0  0  0  0  0  0
   48.5512   10.3398   12.3923 C   0  0  0  0  0  0  0  0  0  0  0  0
   48.5796   10.3139   13.8606 C   0  0  0  0  0  0  0  0  0  0  0  0
   48.0739    9.3216   14.6052 C   0  0  0  0  0  0  0  0  0  0  0  0
   48.4481    9.4034   11.6261 O   0  0  0  0  0  0  0  0  0  0  0  0
   47.5254    7.0146   14.3975 O   0  0  0  0  0  0  0  0  0  0  0  0
   46.3237    8.5498   13.2830 O   0  0  0  0  0  0  0  0  0  0  0  0
   48.7068   11.6024   11.9623 O   0  0  0  0  0  0  0  0  0  0  0  0
   49.6213   10.6772   14.3570 H   0  0  0  0  0  0  0  0  0  0  0  0
   48.9521    8.5119   15.2492 H   0  0  0  0  0  0  0  0  0  0  0  0
   46.1124    7.7456   12.7130 H   0  0  0  0  0  0  0  0  0  0  0  0
   48.5602   12.0273   11.4277 H   0  0  0  0  0  0  0  0  0  0  0  0
   47.3735   11.9391   11.7322 H   0  0  0  0  0  0  0  0  0  0  0  0
   47.3224   10.3213   11.0656 H   0  0  0  0  0  0  0  0  0  0  0  0
   49.6965   10.9711   14.6403 H   0  0  0  0  0  0  0  0  0  0  0  0
   48.8385   12.3453   13.9670 H   0  0  0  0  0  0  0  0  0  0  0  0
   48.8951    5.9318   12.1014 H   0  0  0  0  0  0  0  0  0  0  0  0
   49.3860    7.5913   12.3487 H   0  0  0  0  0  0  0  0  0  0  0  0
   49.8306    6.1213   14.2998 H   0  0  0  0  0  0  0  0  0  0  0  0
   48.1181    5.7195   14.4278 H   0  0  0  0  0  0  0  0  0  0  0  0
   51.2281   12.3182   13.2987 H   0  0  0  0  0  0  0  0  0  0  0  0
   51.0822   10.6877   12.6931 H   0  0  0  0  0  0  0  0  0  0  0  0
   49.6990   10.2918   10.5985 H   0  0  0  0  0  0  0  0  0  0  0  0
   48.9455   11.6656    9.8284 H   0  0  0  0  0  0  0  0  0  0  0  0
   45.1310    9.8944   12.9481 H   0  0  0  0  0  0  0  0  0  0  0  0
   50.5862   14.1598   11.8913 H   0  0  0  0  0  0  0  0  0  0  0  0
   49.6285   13.8886   10.4461 H   0  0  0  0  0  0  0  0  0  0  0  0
   48.8817   13.6990   12.0422 H   0  0  0  0  0  0  0  0  0  0  0  0
   48.0900   10.2333   17.9598 H   0  0  0  0  0  0  0  0  0  0  0  0
   49.3281    6.3144   16.7782 H   0  0  0  0  0  0  0  0  0  0  0  0
   46.7231    5.5182   11.2159 H   0  0  0  0  0  0  0  0  0  0  0  0
   49.0013    7.9917   18.5754 H   0  0  0  0  0  0  0  0  0  0  0  0
   43.6137    8.4498   11.6262 H   0  0  0  0  0  0  0  0  0  0  0  0
   44.4177    6.2709   10.7545 H   0  0  0  0  0  0  0  0  0  0  0  0
   49.0846   11.1468   14.3359 H   0  0  0  0  0  0  0  0  0  0  0  0
   48.2080    9.3146   15.6802 H   0  0  0  0  0  0  0  0  0  0  0  0
   45.9372    7.7057   12.9718 H   0  0  0  0  0  0  0  0  0  0  0  0
   48.6762   11.5199   10.9860 H   0  0  0  0  0  0  0  0  0  0  0  0
  2  3  1  0
  3  4  2  0
  4  1  1  0
  5  2  2  0
  6  1  2  0
  7  1  1  0
  8  2  1  0
 10  9  1  0
 11  9  1  0
 12  9  2  3
 13 21  1  0
 14 10  2  0
 15 10  1  0
 16 11  2  0
 17 12  1  0
 18 12  1  0
 19 16  1  0
 20 15  1  0
 21 18  1  0
 22 17  1  0
 23 11  1  0
 24 13  1  0
 25 14  1  0
 26 15  2  0
 27 16  1  0
 28 26  1  0
 29 23  2  0
 30 29  1  0
 22 13  1  0
 20 19  1  0
 27 30  2  0
 25 28  2  0
 32 33  1  0
 33 34  2  0
 34 31  1  0
 35 32  2  0
 36 31  2  0
 37 31  1  0
 38 32  1  0
  3 39  1  0
  4 40  1  0
  7 41  1  0
  8 42  1  0
 17 43  1  0
 17 44  1  0
 18 45  1  0
 18 46  1  0
 19 47  1  0
 19 48  1  0
 20 49  1  0
 20 50  1  0
 21 51  1  0
 21 52  1  0
 22 53  1  0
 22 54  1  0
 23 55  1  0
 24 56  1  0
 24 57  1  0
 24 58  1  0
 25 59  1  0
 26 60  1  0
 27 61  1  0
 28 62  1  0
 29 63  1  0
 30 64  1  0
 33 65  1  0
 34 66  1  0
 37 67  1  0
 38 68  1  0
M  END
> <Uni-Dock RESULT> 
ENERGY=   -4.711  LOWER_BOUND=    4.969  UPPER_BOUND=    7.350
INTER + INTRA:          -4.711
INTER:                  -4.711
INTRA:                   0.000
UNBOUND:                 0.000

$$$$

     RDKit          3D

 68 69  0  0  0  0  0  0  0  0999 V2000
   48.6656    5.6631   18.9141 C   0  0  0  0  0  0  0  0  0  0  0  0
   51.5153    4.8787   19.4447 C   0  0  0  0  0  0  0  0  0  0  0  0
   50.7618    4.5090   18.2392 C   0  0  0  0  0  0  0  0  0  0  0  0
   49.5051    4.8993   17.9884 C   0  0  0  0  0  0  0  0  0  0  0  0
   51.3377    5.8289   20.1796 O   0  0  0  0  0  0  0  0  0  0  0  0
   47.9985    6.6339   18.6112 O   0  0  0  0  0  0  0  0  0  0  0  0
   48.6100    5.0929   20.1260 O   0  0  0  0  0  0  0  0  0  0  0  0
   52.5211    4.0087   19.6302 O   0  0  0  0  0  0  0  0  0  0  0  0
   49.6907    4.6075   19.1650 C   0  0  0  0  0  0  0  0  0  0  0  0
   48.9846    4.2672   17.8994 C   0  0  0  0  0  0  0  0  0  0  0  0
   48.9489    5.3402   20.2188 C   0  0  0  0  0  0  0  0  0  0  0  0
   51.0165    4.3437   19.3349 C   0  0  0  0  0  0  0  0  0  0  0  0
   53.9685    4.8534   19.2263 N   0  0  0  0  0  0  0  0  0  0  0  0
   49.0395    2.9502   17.5557 N   0  0  0  0  0  0  0  0  0  0  0  0
   48.2740    5.2177   17.1521 C   0  0  0  0  0  0  0  0  0  0  0  0
   48.5741    6.6727   19.9750 C   0  0  0  0  0  0  0  0  0  0  0  0
   51.8219    4.7050   20.5777 C   0  0  0  0  0  0  0  0  0  0  0  0
   51.9096    3.6867   18.2887 C   0  0  0  0  0  0  0  0  0  0  0  0
   48.9065    7.3033   18.6453 C   0  0  0  0  0  0  0  0  0  0  0  0
   48.1006    6.6841   17.4959 C   0  0  0  0  0  0  0  0  0  0  0  0
   53.1867    4.5072   18.0273 C   0  0  0  0  0  0  0  0  0  0  0  0
   53.0972    5.4923   20.2267 C   0  0  0  0  0  0  0  0  0  0  0  0
   48.5873    4.7187   21.4206 C   0  0  0  0  0  0  0  0  0  0  0  0
   54.6710    3.6943   19.7723 C   0  0  0  0  0  0  0  0  0  0  0  0
   48.3983    2.5606   16.4364 C   0  0  0  0  0  0  0  0  0  0  0  0
   47.6224    4.7585   15.9931 C   0  0  0  0  0  0  0  0  0  0  0  0
   47.8700    7.3793   20.9582 C   0  0  0  0  0  0  0  0  0  0  0  0
   47.6861    3.4198   15.6261 C   0  0  0  0  0  0  0  0  0  0  0  0
   47.8846    5.4307   22.3921 C   0  0  0  0  0  0  0  0  0  0  0  0
   47.5317    6.7601   22.1628 C   0  0  0  0  0  0  0  0  0  0  0  0
   48.4194    5.0279   18.9355 C   0  0  0  0  0  0  0  0  0  0  0  0
   51.3626    4.9469   19.5236 C   0  0  0  0  0  0  0  0  0  0  0  0
   50.6880    4.0919   18.5381 C   0  0  0  0  0  0  0  0  0  0  0  0
   49.3819    4.1636   18.2489 C   0  0  0  0  0  0  0  0  0  0  0  0
   51.0166    6.0355   19.9358 O   0  0  0  0  0  0  0  0  0  0  0  0
   47.5915    5.7267   18.3827 O   0  0  0  0  0  0  0  0  0  0  0  0
   48.4639    4.8685   20.2657 O   0  0  0  0  0  0  0  0  0  0  0  0
   52.5091    4.3660   19.9123 O   0  0  0  0  0  0  0  0  0  0  0  0
   51.3022    3.9154   17.5108 H   0  0  0  0  0  0  0  0  0  0  0  0
   49.0355    4.6717   17.0392 H   0  0  0  0  0  0  0  0  0  0  0  0
   48.0565    5.7056   20.6525 H   0  0  0  0  0  0  0  0  0  0  0  0
   52.9603    4.3325   20.4445 H   0  0  0  0  0  0  0  0  0  0  0  0
   52.0840    3.7785   21.1031 H   0  0  0  0  0  0  0  0  0  0  0  0
   51.2574    5.3099   21.2922 H   0  0  0  0  0  0  0  0  0  0  0  0
   51.4155    3.5636   17.3219 H   0  0  0  0  0  0  0  0  0  0  0  0
   52.1718    2.6797   18.6352 H   0  0  0  0  0  0  0  0  0  0  0  0
   48.6869    8.3779   18.6857 H   0  0  0  0  0  0  0  0  0  0  0  0
   49.9847    7.2298   18.4545 H   0  0  0  0  0  0  0  0  0  0  0  0
   48.3417    7.2616   16.5931 H   0  0  0  0  0  0  0  0  0  0  0  0
   47.0327    6.8446   17.6990 H   0  0  0  0  0  0  0  0  0  0  0  0
   53.8221    3.9738   17.3089 H   0  0  0  0  0  0  0  0  0  0  0  0
   52.9050    5.4430   17.5256 H   0  0  0  0  0  0  0  0  0  0  0  0
   52.8065    6.4800   19.8435 H   0  0  0  0  0  0  0  0  0  0  0  0
   53.6665    5.6927   21.1430 H   0  0  0  0  0  0  0  0  0  0  0  0
   48.8540    3.6797   21.5988 H   0  0  0  0  0  0  0  0  0  0  0  0
   55.3568    3.2789   19.0253 H   0  0  0  0  0  0  0  0  0  0  0  0
   55.2883    3.9916   20.6274 H   0  0  0  0  0  0  0  0  0  0  0  0
   54.0016    2.8928   20.1000 H   0  0  0  0  0  0  0  0  0  0  0  0
   48.4749    1.5027   16.2039 H   0  0  0  0  0  0  0  0  0  0  0  0
   47.0508    5.4491   15.3763 H   0  0  0  0  0  0  0  0  0  0  0  0
   47.5724    8.4115   20.7903 H   0  0  0  0  0  0  0  0  0  0  0  0
   47.1842    3.0569   14.7366 H   0  0  0  0  0  0  0  0  0  0  0  0
   47.6100    4.9473   23.3258 H   0  0  0  0  0  0  0  0  0  0  0  0
   46.9825    7.3129   22.9209 H   0  0  0  0  0  0  0  0  0  0  0  0
   51.3259    3.3986   18.0022 H   0  0  0  0  0  0  0  0  0  0  0  0
   48.9608    3.5705   17.4461 H   0  0  0  0  0  0  0  0  0  0  0  0
   47.8107    5.5141   20.6052 H   0  0  0  0  0  0  0  0  0  0  0  0
   52.8830    5.0010   20.5587 H   0  0  0  0  0  0  0  0  0  0  0  0
  2  3  1  0
  3  4  2  0
  4  1  1  0
  5  2  2  0
  6  1  2  0
  7  1  1  0
  8  2  1  0
 10  9  1  0
 11  9  1  0
 12  9  2  3
 13 21  1  0
 14 10  2  0
 15 10  1  0
 16 11  2  0
 17 12  1  0
 18 12  1  0
 19 16  1  0
 20 15  1  0
 21 18  1  0
 22 17  1  0
 23 11  1  0
 24 13  1  0
 25 14  1  0
 26 15  2  0
 27 16  1  0
 28 26  1  0
 29 23  2  0
 30 29  1  0
 22 13  1  0
 20 19  1  0
 27 30  2  0
 25 28  2  0
 32 33  1  0
 33 34  2  0
 34 31  1  0
 35 32  2  0
 36 31  2  0
 37 31  1  0
 38 32  1  0
  3 39  1  0
  4 40  1  0
  7 41  1  0
  8 42  1  0
 17 43  1  0
 17 44  1  0
 18 45  1  0
 18 46  1  0
 19 47  1  0
 19 48  1  0
 20 49  1  0
 20 50  1  0
 21 51  1  0
 21 52  1  0
 22 53  1  0
 22 54  1  0
 23 55  1  0
 24 56  1  0
 24 57  1  0
 24 58  1  0
 25 59  1  0
 26 60  1  0
 27 61  1  0
 28 62  1  0
 29 63  1  0
 30 64  1  0
 33 65  1  0
 34 66  1  0
 37 67  1  0
 38 68  1  0
M  END
> <Uni-Dock RESULT> 
ENERGY=   -4.521  LOWER_BOUND=   10.396  UPPER_BOUND=   13.636
INTER + INTRA:          -4.521
INTER:                  -4.521
INTRA:                   0.000
UNBOUND:                 0.000

$$$$

     RDKit          3D

 68 69  0  0  0  0  0  0  0  0999 V2000
   48.1548    6.2028   20.7598 C   0  0  0  0  0  0  0  0  0  0  0  0
   51.0212    5.5293   21.3488 C   0  0  0  0  0  0  0  0  0  0  0  0
   50.3044    5.1222   20.1331 C   0  0  0  0  0  0  0  0  0  0  0  0
   49.0389    5.4634   19.8562 C   0  0  0  0  0  0  0  0  0  0  0  0
   50.7950    6.4781   22.0722 O   0  0  0  0  0  0  0  0  0  0  0  0
   47.4578    7.1457   20.4365 O   0  0  0  0  0  0  0  0  0  0  0  0
   48.0979    5.6407   21.9754 O   0  0  0  0  0  0  0  0  0  0  0  0
   52.0550    4.6988   21.5601 O   0  0  0  0  0  0  0  0  0  0  0  0
   49.2135    5.1881   21.0384 C   0  0  0  0  0  0  0  0  0  0  0  0
   48.5439    4.8117   19.7633 C   0  0  0  0  0  0  0  0  0  0  0  0
   48.4257    5.9011   22.0723 C   0  0  0  0  0  0  0  0  0  0  0  0
   50.5448    4.9752   21.2346 C   0  0  0  0  0  0  0  0  0  0  0  0
   53.4774    5.5936   21.1753 N   0  0  0  0  0  0  0  0  0  0  0  0
   48.6540    3.4950   19.4320 N   0  0  0  0  0  0  0  0  0  0  0  0
   47.8125    5.7291   18.9949 C   0  0  0  0  0  0  0  0  0  0  0  0
   48.0063    7.2167   21.8102 C   0  0  0  0  0  0  0  0  0  0  0  0
   51.3132    5.3762   22.4887 C   0  0  0  0  0  0  0  0  0  0  0  0
   51.4807    4.3437   20.2106 C   0  0  0  0  0  0  0  0  0  0  0  0
   48.3396    7.8487   20.4813 C   0  0  0  0  0  0  0  0  0  0  0  0
   47.5786    7.1908   19.3228 C   0  0  0  0  0  0  0  0  0  0  0  0
   52.7311    5.2089   19.9653 C   0  0  0  0  0  0  0  0  0  0  0  0
   52.5646    6.2075   22.1541 C   0  0  0  0  0  0  0  0  0  0  0  0
   48.0653    5.2762   23.2726 C   0  0  0  0  0  0  0  0  0  0  0  0
   54.2121    4.4658   21.7439 C   0  0  0  0  0  0  0  0  0  0  0  0
   48.0484    3.0729   18.3046 C   0  0  0  0  0  0  0  0  0  0  0  0
   47.1999    5.2368   17.8283 C   0  0  0  0  0  0  0  0  0  0  0  0
   47.2585    7.9045   22.7743 C   0  0  0  0  0  0  0  0  0  0  0  0
   47.3199    3.8985   17.4742 C   0  0  0  0  0  0  0  0  0  0  0  0
   47.3189    5.9693   24.2250 C   0  0  0  0  0  0  0  0  0  0  0  0
   46.9212    7.2827   23.9779 C   0  0  0  0  0  0  0  0  0  0  0  0
   47.9319    5.5591   20.7823 C   0  0  0  0  0  0  0  0  0  0  0  0
   50.8648    5.5924   21.4244 C   0  0  0  0  0  0  0  0  0  0  0  0
   50.2406    4.7050   20.4342 C   0  0  0  0  0  0  0  0  0  0  0  0
   48.9383    4.7257   20.1208 C   0  0  0  0  0  0  0  0  0  0  0  0
   50.4711    6.6706   21.8208 O   0  0  0  0  0  0  0  0  0  0  0  0
   47.0891    6.2221   20.2085 O   0  0  0  0  0  0  0  0  0  0  0  0
   47.9577    5.4121   22.1144 O   0  0  0  0  0  0  0  0  0  0  0  0
   52.0246    5.0576   21.8388 O   0  0  0  0  0  0  0  0  0  0  0  0
   50.8797    4.5433   19.4198 H   0  0  0  0  0  0  0  0  0  0  0  0
   48.5957    5.2109   18.9006 H   0  0  0  0  0  0  0  0  0  0  0  0
   47.5125    6.2364   22.4865 H   0  0  0  0  0  0  0  0  0  0  0  0
   52.4668    5.0452   22.3793 H   0  0  0  0  0  0  0  0  0  0  0  0
   51.5997    4.4642   23.0267 H   0  0  0  0  0  0  0  0  0  0  0  0
   50.7136    5.9653   23.1875 H   0  0  0  0  0  0  0  0  0  0  0  0
   51.0095    4.1945   19.2360 H   0  0  0  0  0  0  0  0  0  0  0  0
   51.7736    3.3499   20.5704 H   0  0  0  0  0  0  0  0  0  0  0  0
   48.0796    8.9146   20.5084 H   0  0  0  0  0  0  0  0  0  0  0  0
   49.4231    7.8138   20.3108 H   0  0  0  0  0  0  0  0  0  0  0  0
   47.8147    7.7697   18.4196 H   0  0  0  0  0  0  0  0  0  0  0  0
   46.5018    7.3130   19.5052 H   0  0  0  0  0  0  0  0  0  0  0  0
   53.3991    4.6939   19.2632 H   0  0  0  0  0  0  0  0  0  0  0  0
   52.4243    6.1296   19.4504 H   0  0  0  0  0  0  0  0  0  0  0  0
   52.2447    7.1806   21.7571 H   0  0  0  0  0  0  0  0  0  0  0  0
   53.1091    6.4363   23.0788 H   0  0  0  0  0  0  0  0  0  0  0  0
   48.3670    4.2492   23.4646 H   0  0  0  0  0  0  0  0  0  0  0  0
   54.9265    4.0703   21.0131 H   0  0  0  0  0  0  0  0  0  0  0  0
   54.8021    4.7927   22.6074 H   0  0  0  0  0  0  0  0  0  0  0  0
   53.5670    3.6426   22.0663 H   0  0  0  0  0  0  0  0  0  0  0  0
   48.1685    2.0168   18.0827 H   0  0  0  0  0  0  0  0  0  0  0  0
   46.6146    5.9007   17.1953 H   0  0  0  0  0  0  0  0  0  0  0  0
   46.9260    8.9235   22.5921 H   0  0  0  0  0  0  0  0  0  0  0  0
   46.8483    3.5101   16.5789 H   0  0  0  0  0  0  0  0  0  0  0  0
   47.0451    5.4833   25.1576 H   0  0  0  0  0  0  0  0  0  0  0  0
   46.3380    7.8207   24.7211 H   0  0  0  0  0  0  0  0  0  0  0  0
   50.9136    4.0317   19.9160 H   0  0  0  0  0  0  0  0  0  0  0  0
   48.5544    4.1110   19.3156 H   0  0  0  0  0  0  0  0  0  0  0  0
   47.2749    6.0355   22.4364 H   0  0  0  0  0  0  0  0  0  0  0  0
   52.3627    5.7112   22.4864 H   0  0  0  0  0  0  0  0  0  0  0  0
  2  3  1  0
  3  4  2  0
  4  1  1  0
  5  2  2  0
  6  1  2  0
  7  1  1  0
  8  2  1  0
 10  9  1  0
 11  9  1  0
 12  9  2  3
 13 21  1  0
 14 10  2  0
 15 10  1  0
 16 11  2  0
 17 12  1  0
 18 12  1  0
 19 16  1  0
 20 15  1  0
 21 18  1  0
 22 17  1  0
 23 11  1  0
 24 13  1  0
 25 14  1  0
 26 15  2  0
 27 16  1  0
 28 26  1  0
 29 23  2  0
 30 29  1  0
 22 13  1  0
 20 19  1  0
 27 30  2  0
 25 28  2  0
 32 33  1  0
 33 34  2  0
 34 31  1  0
 35 32  2  0
 36 31  2  0
 37 31  1  0
 38 32  1  0
  3 39  1  0
  4 40  1  0
  7 41  1  0
  8 42  1  0
 17 43  1  0
 17 44  1  0
 18 45  1  0
 18 46  1  0
 19 47  1  0
 19 48  1  0
 20 49  1  0
 20 50  1  0
 21 51  1  0
 21 52  1  0
 22 53  1  0
 22 54  1  0
 23 55  1  0
 24 56  1  0
 24 57  1  0
 24 58  1  0
 25 59  1  0
 26 60  1  0
 27 61  1  0
 28 62  1  0
 29 63  1  0
 30 64  1  0
 33 65  1  0
 34 66  1  0
 37 67  1  0
 38 68  1  0
M  END
> <Uni-Dock RESULT> 
ENERGY=   -3.403  LOWER_BOUND=   11.202  UPPER_BOUND=   14.466
INTER + INTRA:          -3.403
INTER:                  -3.403
INTRA:                   0.000
UNBOUND:                 0.000

$$$$
