
     RDKit          3D

 68 69  0  0  0  0  0  0  0  0999 V2000
   47.3615    9.4690   12.3048 C   0  0  0  0  0  0  0  0  0  0  0  0
   45.5357    7.0326   12.6532 C   0  0  0  0  0  0  0  0  0  0  0  0
   46.9392    7.1248   13.0654 C   0  0  0  0  0  0  0  0  0  0  0  0
   47.7480    8.1765   12.8775 C   0  0  0  0  0  0  0  0  0  0  0  0
   44.6683    6.4498   13.2772 O   0  0  0  0  0  0  0  0  0  0  0  0
   48.0761   10.1529   11.5958 O   0  0  0  0  0  0  0  0  0  0  0  0
   46.1709    9.8998   12.7461 O   0  0  0  0  0  0  0  0  0  0  0  0
   45.3145    7.5503   11.4363 O   0  0  0  0  0  0  0  0  0  0  0  0
   46.4738    8.6468   12.8530 C   0  0  0  0  0  0  0  0  0  0  0  0
   45.7940    9.7929   12.1881 C   0  0  0  0  0  0  0  0  0  0  0  0
   47.6284    8.9099   13.7455 C   0  0  0  0  0  0  0  0  0  0  0  0
   46.1241    7.3624   12.5621 C   0  0  0  0  0  0  0  0  0  0  0  0
   45.4487    4.4991   11.8036 N   0  0  0  0  0  0  0  0  0  0  0  0
   44.4406    9.8162   12.3417 N   0  0  0  0  0  0  0  0  0  0  0  0
   46.4958   10.7863   11.4894 C   0  0  0  0  0  0  0  0  0  0  0  0
   48.8209    9.3927   13.1807 C   0  0  0  0  0  0  0  0  0  0  0  0
   45.0301    6.9916   11.5647 C   0  0  0  0  0  0  0  0  0  0  0  0
   46.8100    6.1312   13.1446 C   0  0  0  0  0  0  0  0  0  0  0  0
   48.8793    9.6701   11.6990 C   0  0  0  0  0  0  0  0  0  0  0  0
   47.9990   10.8645   11.3075 C   0  0  0  0  0  0  0  0  0  0  0  0
   45.8699    4.9145   13.1536 C   0  0  0  0  0  0  0  0  0  0  0  0
   45.3043    5.6400   10.8829 C   0  0  0  0  0  0  0  0  0  0  0  0
   47.5322    8.7393   15.1322 C   0  0  0  0  0  0  0  0  0  0  0  0
   44.2296    3.6976   11.8727 C   0  0  0  0  0  0  0  0  0  0  0  0
   43.7579   10.8373   11.7880 C   0  0  0  0  0  0  0  0  0  0  0  0
   45.7357   11.8311   10.9334 C   0  0  0  0  0  0  0  0  0  0  0  0
   49.9204    9.6518   14.0095 C   0  0  0  0  0  0  0  0  0  0  0  0
   44.3540   11.8590   11.0788 C   0  0  0  0  0  0  0  0  0  0  0  0
   48.6315    9.0021   15.9493 C   0  0  0  0  0  0  0  0  0  0  0  0
   49.8256    9.4506   15.3874 C   0  0  0  0  0  0  0  0  0  0  0  0
   46.1445    6.8904   12.3675 C   0  0  0  0  0  0  0  0  0  0  0  0
   47.4364    9.5799   12.6883 C   0  0  0  0  0  0  0  0  0  0  0  0
   46.0236    9.3700   12.3652 C   0  0  0  0  0  0  0  0  0  0  0  0
   45.4334    8.1716   12.2640 C   0  0  0  0  0  0  0  0  0  0  0  0
   48.1854   10.3283   12.0900 O   0  0  0  0  0  0  0  0  0  0  0  0
   47.3260    6.6704   12.1940 O   0  0  0  0  0  0  0  0  0  0  0  0
   45.2696    5.9131   12.6546 O   0  0  0  0  0  0  0  0  0  0  0  0
   47.7915    8.9418   13.8124 O   0  0  0  0  0  0  0  0  0  0  0  0
   47.3101    6.2375   13.5657 H   0  0  0  0  0  0  0  0  0  0  0  0
   48.7936    8.1137   13.1566 H   0  0  0  0  0  0  0  0  0  0  0  0
   46.0613   10.7702   12.3111 H   0  0  0  0  0  0  0  0  0  0  0  0
   44.3597    7.3931   11.2854 H   0  0  0  0  0  0  0  0  0  0  0  0
   44.0673    6.9457   12.0887 H   0  0  0  0  0  0  0  0  0  0  0  0
   44.9442    7.7402   10.7697 H   0  0  0  0  0  0  0  0  0  0  0  0
   47.7019    5.9020   12.5477 H   0  0  0  0  0  0  0  0  0  0  0  0
   47.1385    6.2945   14.1741 H   0  0  0  0  0  0  0  0  0  0  0  0
   48.5992    8.7710   11.1357 H   0  0  0  0  0  0  0  0  0  0  0  0
   49.9147    9.8901   11.4092 H   0  0  0  0  0  0  0  0  0  0  0  0
   48.1887   11.0599   10.2432 H   0  0  0  0  0  0  0  0  0  0  0  0
   48.3474   11.7487   11.8591 H   0  0  0  0  0  0  0  0  0  0  0  0
   44.9990    5.1566   13.7790 H   0  0  0  0  0  0  0  0  0  0  0  0
   46.3822    4.0717   13.6329 H   0  0  0  0  0  0  0  0  0  0  0  0
   44.5302    5.4470   10.1292 H   0  0  0  0  0  0  0  0  0  0  0  0
   46.2426    5.7222   10.3179 H   0  0  0  0  0  0  0  0  0  0  0  0
   46.5991    8.4004   15.5759 H   0  0  0  0  0  0  0  0  0  0  0  0
   43.3737    4.2774   12.2360 H   0  0  0  0  0  0  0  0  0  0  0  0
   43.9787    3.2935   10.8857 H   0  0  0  0  0  0  0  0  0  0  0  0
   44.3713    2.8368   12.5357 H   0  0  0  0  0  0  0  0  0  0  0  0
   42.6830   10.8105   11.9383 H   0  0  0  0  0  0  0  0  0  0  0  0
   46.2261   12.6347   10.3877 H   0  0  0  0  0  0  0  0  0  0  0  0
   50.8526   10.0227   13.5906 H   0  0  0  0  0  0  0  0  0  0  0  0
   43.7610   12.6613   10.6554 H   0  0  0  0  0  0  0  0  0  0  0  0
   48.5543    8.8603   17.0239 H   0  0  0  0  0  0  0  0  0  0  0  0
   50.6812    9.6563   16.0256 H   0  0  0  0  0  0  0  0  0  0  0  0
   45.4624   10.2792   12.1877 H   0  0  0  0  0  0  0  0  0  0  0  0
   44.3724    8.1049   12.0527 H   0  0  0  0  0  0  0  0  0  0  0  0
   45.8280    5.1089   12.7011 H   0  0  0  0  0  0  0  0  0  0  0  0
   48.7491    9.1266   13.8991 H   0  0  0  0  0  0  0  0  0  0  0  0
  2  3  1  0
  3  4  2  0
  4  1  1  0
  5  2  2  0
  6  1  2  0
  7  1  1  0
  8  2  1  0
 10  9  1  0
 11  9  1  0
 12  9  2  3
 13 21  1  0
 14 10  2  0
 15 10  1  0
 16 11  2  0
 17 12  1  0
 18 12  1  0
 19 16  1  0
 20 15  1  0
 21 18  1  0
 22 17  1  0
 23 11  1  0
 24 13  1  0
 25 14  1  0
 26 15  2  0
 27 16  1  0
 28 26  1  0
 29 23  2  0
 30 29  1  0
 22 13  1  0
 20 19  1  0
 27 30  2  0
 25 28  2  0
 32 33  1  0
 33 34  2  0
 34 31  1  0
 35 32  2  0
 36 31  2  0
 37 31  1  0
 38 32  1  0
  3 39  1  0
  4 40  1  0
  7 41  1  0
  8 42  1  0
 17 43  1  0
 17 44  1  0
 18 45  1  0
 18 46  1  0
 19 47  1  0
 19 48  1  0
 20 49  1  0
 20 50  1  0
 21 51  1  0
 21 52  1  0
 22 53  1  0
 22 54  1  0
 23 55  1  0
 24 56  1  0
 24 57  1  0
 24 58  1  0
 25 59  1  0
 26 60  1  0
 27 61  1  0
 28 62  1  0
 29 63  1  0
 30 64  1  0
 33 65  1  0
 34 66  1  0
 37 67  1  0
 38 68  1  0
M  END
> <Uni-Dock RESULT> 
ENERGY=   -6.062  LOWER_BOUND=    0.000  UPPER_BOUND=    0.000
INTER + INTRA:          -6.062
INTER:                  -6.062
INTRA:                   0.000
UNBOUND:                 0.000

$$$$

     RDKit          3D

 68 69  0  0  0  0  0  0  0  0999 V2000
   52.9596    1.9400   18.1381 C   0  0  0  0  0  0  0  0  0  0  0  0
   54.3509    3.8197   20.1183 C   0  0  0  0  0  0  0  0  0  0  0  0
   54.9085    2.5815   19.5671 C   0  0  0  0  0  0  0  0  0  0  0  0
   54.2846    1.7399   18.7316 C   0  0  0  0  0  0  0  0  0  0  0  0
   54.9924    4.8315   20.3339 O   0  0  0  0  0  0  0  0  0  0  0  0
   52.1575    1.0508   17.9205 O   0  0  0  0  0  0  0  0  0  0  0  0
   52.7562    3.2008   17.7295 O   0  0  0  0  0  0  0  0  0  0  0  0
   53.0692    3.6937   20.4915 O   0  0  0  0  0  0  0  0  0  0  0  0
   53.6906    2.9533   18.5890 C   0  0  0  0  0  0  0  0  0  0  0  0
   52.3245    3.4120   18.2132 C   0  0  0  0  0  0  0  0  0  0  0  0
   54.4442    2.0838   17.6537 C   0  0  0  0  0  0  0  0  0  0  0  0
   54.2047    3.2251   19.8213 C   0  0  0  0  0  0  0  0  0  0  0  0
   55.2919    3.7006   22.6181 N   0  0  0  0  0  0  0  0  0  0  0  0
   52.1271    4.7554   18.3228 N   0  0  0  0  0  0  0  0  0  0  0  0
   51.3327    2.5343   17.7510 C   0  0  0  0  0  0  0  0  0  0  0  0
   53.9812    0.7767   17.4269 C   0  0  0  0  0  0  0  0  0  0  0  0
   53.4539    4.0089   20.8941 C   0  0  0  0  0  0  0  0  0  0  0  0
   55.5642    2.7390   20.3124 C   0  0  0  0  0  0  0  0  0  0  0  0
   52.7147    0.3122   18.1020 C   0  0  0  0  0  0  0  0  0  0  0  0
   51.4781    1.0378   17.5552 C   0  0  0  0  0  0  0  0  0  0  0  0
   56.1297    3.6598   21.4062 C   0  0  0  0  0  0  0  0  0  0  0  0
   53.8559    3.5745   22.3142 C   0  0  0  0  0  0  0  0  0  0  0  0
   55.5644    2.5574   16.9595 C   0  0  0  0  0  0  0  0  0  0  0  0
   55.5797    4.9014   23.3982 C   0  0  0  0  0  0  0  0  0  0  0  0
   50.9220    5.2487   17.9769 C   0  0  0  0  0  0  0  0  0  0  0  0
   50.0939    3.1012   17.4007 C   0  0  0  0  0  0  0  0  0  0  0  0
   54.6778   -0.0572   16.5424 C   0  0  0  0  0  0  0  0  0  0  0  0
   49.8814    4.4695   17.5164 C   0  0  0  0  0  0  0  0  0  0  0  0
   56.2500    1.7206   16.0793 C   0  0  0  0  0  0  0  0  0  0  0  0
   55.8111    0.4131   15.8771 C   0  0  0  0  0  0  0  0  0  0  0  0
   54.3610    3.1578   20.3030 C   0  0  0  0  0  0  0  0  0  0  0  0
   53.1922    1.9715   17.8066 C   0  0  0  0  0  0  0  0  0  0  0  0
   52.7730    3.2445   18.3969 C   0  0  0  0  0  0  0  0  0  0  0  0
   53.3218    3.7985   19.4862 C   0  0  0  0  0  0  0  0  0  0  0  0
   52.4398    1.0788   17.4661 O   0  0  0  0  0  0  0  0  0  0  0  0
   54.6295    1.9765   20.3866 O   0  0  0  0  0  0  0  0  0  0  0  0
   54.9977    4.0892   21.0312 O   0  0  0  0  0  0  0  0  0  0  0  0
   54.5099    1.9448   17.5616 O   0  0  0  0  0  0  0  0  0  0  0  0
   55.9212    2.3719   19.8923 H   0  0  0  0  0  0  0  0  0  0  0  0
   54.7618    0.8113   18.4402 H   0  0  0  0  0  0  0  0  0  0  0  0
   51.8602    3.1771   17.3352 H   0  0  0  0  0  0  0  0  0  0  0  0
   52.8458    4.5727   20.8613 H   0  0  0  0  0  0  0  0  0  0  0  0
   53.6621    5.0787   20.7687 H   0  0  0  0  0  0  0  0  0  0  0  0
   52.3713    3.8654   20.8093 H   0  0  0  0  0  0  0  0  0  0  0  0
   55.4592    1.7206   20.7075 H   0  0  0  0  0  0  0  0  0  0  0  0
   56.3013    2.7027   19.5063 H   0  0  0  0  0  0  0  0  0  0  0  0
   52.7986    0.4380   19.1888 H   0  0  0  0  0  0  0  0  0  0  0  0
   52.5876   -0.7656   17.9379 H   0  0  0  0  0  0  0  0  0  0  0  0
   50.6032    0.5621   18.0189 H   0  0  0  0  0  0  0  0  0  0  0  0
   51.4098    0.8433   16.4758 H   0  0  0  0  0  0  0  0  0  0  0  0
   56.2526    4.6657   20.9802 H   0  0  0  0  0  0  0  0  0  0  0  0
   57.1298    3.3080   21.6865 H   0  0  0  0  0  0  0  0  0  0  0  0
   53.2452    4.1151   23.0486 H   0  0  0  0  0  0  0  0  0  0  0  0
   53.5889    2.5166   22.4404 H   0  0  0  0  0  0  0  0  0  0  0  0
   55.9036    3.5802   17.1058 H   0  0  0  0  0  0  0  0  0  0  0  0
   55.2979    5.8173   22.8665 H   0  0  0  0  0  0  0  0  0  0  0  0
   55.0428    4.8776   24.3530 H   0  0  0  0  0  0  0  0  0  0  0  0
   56.6468    4.9565   23.6413 H   0  0  0  0  0  0  0  0  0  0  0  0
   50.8148    6.3240   18.0820 H   0  0  0  0  0  0  0  0  0  0  0  0
   49.2893    2.4709   17.0275 H   0  0  0  0  0  0  0  0  0  0  0  0
   54.3369   -1.0727   16.3564 H   0  0  0  0  0  0  0  0  0  0  0  0
   48.9308    4.9148   17.2468 H   0  0  0  0  0  0  0  0  0  0  0  0
   57.1235    2.0903   15.5493 H   0  0  0  0  0  0  0  0  0  0  0  0
   56.3455   -0.2377   15.1897 H   0  0  0  0  0  0  0  0  0  0  0  0
   51.9455    3.7251   17.8895 H   0  0  0  0  0  0  0  0  0  0  0  0
   52.9731    4.7620   19.8397 H   0  0  0  0  0  0  0  0  0  0  0  0
   55.6608    3.5742   21.5368 H   0  0  0  0  0  0  0  0  0  0  0  0
   54.6686    1.0453   17.2090 H   0  0  0  0  0  0  0  0  0  0  0  0
  2  3  1  0
  3  4  2  0
  4  1  1  0
  5  2  2  0
  6  1  2  0
  7  1  1  0
  8  2  1  0
 10  9  1  0
 11  9  1  0
 12  9  2  3
 13 21  1  0
 14 10  2  0
 15 10  1  0
 16 11  2  0
 17 12  1  0
 18 12  1  0
 19 16  1  0
 20 15  1  0
 21 18  1  0
 22 17  1  0
 23 11  1  0
 24 13  1  0
 25 14  1  0
 26 15  2  0
 27 16  1  0
 28 26  1  0
 29 23  2  0
 30 29  1  0
 22 13  1  0
 20 19  1  0
 27 30  2  0
 25 28  2  0
 32 33  1  0
 33 34  2  0
 34 31  1  0
 35 32  2  0
 36 31  2  0
 37 31  1  0
 38 32  1  0
  3 39  1  0
  4 40  1  0
  7 41  1  0
  8 42  1  0
 17 43  1  0
 17 44  1  0
 18 45  1  0
 18 46  1  0
 19 47  1  0
 19 48  1  0
 20 49  1  0
 20 50  1  0
 21 51  1  0
 21 52  1  0
 22 53  1  0
 22 54  1  0
 23 55  1  0
 24 56  1  0
 24 57  1  0
 24 58  1  0
 25 59  1  0
 26 60  1  0
 27 61  1  0
 28 62  1  0
 29 63  1  0
 30 64  1  0
 33 65  1  0
 34 66  1  0
 37 67  1  0
 38 68  1  0
M  END
> <Uni-Dock RESULT> 
ENERGY=   -5.666  LOWER_BOUND=    9.338  UPPER_BOUND=   11.806
INTER + INTRA:          -5.666
INTER:                  -5.666
INTRA:                   0.000
UNBOUND:                 0.000

$$$$

     RDKit          3D

 68 69  0  0  0  0  0  0  0  0999 V2000
   44.6526   11.7819   10.1983 C   0  0  0  0  0  0  0  0  0  0  0  0
   41.8102   10.7833   10.7587 C   0  0  0  0  0  0  0  0  0  0  0  0
   42.1994   11.7379    9.7170 C   0  0  0  0  0  0  0  0  0  0  0  0
   43.4365   12.2039    9.4977 C   0  0  0  0  0  0  0  0  0  0  0  0
   40.9511    9.9308   10.6298 O   0  0  0  0  0  0  0  0  0  0  0  0
   45.5812   12.5177   10.4768 O   0  0  0  0  0  0  0  0  0  0  0  0
   44.7075   10.4568   10.3957 O   0  0  0  0  0  0  0  0  0  0  0  0
   42.4091   11.0215   11.9345 O   0  0  0  0  0  0  0  0  0  0  0  0
   43.5688   11.0160   10.1432 C   0  0  0  0  0  0  0  0  0  0  0  0
   44.5825   10.4334   11.0656 C   0  0  0  0  0  0  0  0  0  0  0  0
   43.9964   11.4888    8.8044 C   0  0  0  0  0  0  0  0  0  0  0  0
   42.2869   11.2245   10.5554 C   0  0  0  0  0  0  0  0  0  0  0  0
   39.4698   11.8282   11.5195 N   0  0  0  0  0  0  0  0  0  0  0  0
   44.2430    9.2227   11.5898 N   0  0  0  0  0  0  0  0  0  0  0  0
   45.8032   11.0658   11.3442 C   0  0  0  0  0  0  0  0  0  0  0  0
   44.8341   12.6139    8.7226 C   0  0  0  0  0  0  0  0  0  0  0  0
   41.7850   10.8821   11.9553 C   0  0  0  0  0  0  0  0  0  0  0  0
   41.2038   11.8749    9.7013 C   0  0  0  0  0  0  0  0  0  0  0  0
   45.3077   13.2783    9.9914 C   0  0  0  0  0  0  0  0  0  0  0  0
   46.2815   12.3862   10.7728 C   0  0  0  0  0  0  0  0  0  0  0  0
   39.7987   11.4299   10.1391 C   0  0  0  0  0  0  0  0  0  0  0  0
   40.6471   11.8148   12.4050 C   0  0  0  0  0  0  0  0  0  0  0  0
   43.6280   10.8070    7.6380 C   0  0  0  0  0  0  0  0  0  0  0  0
   38.3844   11.0036   12.0445 C   0  0  0  0  0  0  0  0  0  0  0  0
   45.1217    8.6210   12.4151 C   0  0  0  0  0  0  0  0  0  0  0  0
   46.6854   10.3937   12.2095 C   0  0  0  0  0  0  0  0  0  0  0  0
   45.2523   13.0716    7.4662 C   0  0  0  0  0  0  0  0  0  0  0  0
   46.3442    9.1619   12.7546 C   0  0  0  0  0  0  0  0  0  0  0  0
   44.0512   11.2689    6.3919 C   0  0  0  0  0  0  0  0  0  0  0  0
   44.8560   12.4038    6.3064 C   0  0  0  0  0  0  0  0  0  0  0  0
   41.8648   11.4667   10.7110 C   0  0  0  0  0  0  0  0  0  0  0  0
   44.7280   11.6334    9.8279 C   0  0  0  0  0  0  0  0  0  0  0  0
   44.2119   10.6626   10.7952 C   0  0  0  0  0  0  0  0  0  0  0  0
   42.9270   10.5566   11.1593 C   0  0  0  0  0  0  0  0  0  0  0  0
   45.7126   12.3277    9.9934 O   0  0  0  0  0  0  0  0  0  0  0  0
   41.9748   12.5989   10.2860 O   0  0  0  0  0  0  0  0  0  0  0  0
   40.6694   10.8779   10.8765 O   0  0  0  0  0  0  0  0  0  0  0  0
   44.0595   11.5848    8.6669 O   0  0  0  0  0  0  0  0  0  0  0  0
   41.3772   12.0658    9.0911 H   0  0  0  0  0  0  0  0  0  0  0  0
   43.6040   12.9656    8.7449 H   0  0  0  0  0  0  0  0  0  0  0  0
   45.5710   10.3218   10.8374 H   0  0  0  0  0  0  0  0  0  0  0  0
   42.0369   10.3381   12.5292 H   0  0  0  0  0  0  0  0  0  0  0  0
   41.4295    9.8442   11.9652 H   0  0  0  0  0  0  0  0  0  0  0  0
   42.5845   10.9701   12.6988 H   0  0  0  0  0  0  0  0  0  0  0  0
   41.2870   12.9658    9.7869 H   0  0  0  0  0  0  0  0  0  0  0  0
   41.3093   11.6209    8.6435 H   0  0  0  0  0  0  0  0  0  0  0  0
   44.4483   13.5633   10.6114 H   0  0  0  0  0  0  0  0  0  0  0  0
   45.8179   14.2178    9.7432 H   0  0  0  0  0  0  0  0  0  0  0  0
   46.6554   12.9881   11.6123 H   0  0  0  0  0  0  0  0  0  0  0  0
   47.1454   12.1680   10.1298 H   0  0  0  0  0  0  0  0  0  0  0  0
   39.7294   10.3395   10.0184 H   0  0  0  0  0  0  0  0  0  0  0  0
   39.0576   11.8732    9.4632 H   0  0  0  0  0  0  0  0  0  0  0  0
   40.3646   11.5753   13.4382 H   0  0  0  0  0  0  0  0  0  0  0  0
   41.0364   12.8411   12.4432 H   0  0  0  0  0  0  0  0  0  0  0  0
   43.0096    9.9147    7.7009 H   0  0  0  0  0  0  0  0  0  0  0  0
   38.6769    9.9527   12.1487 H   0  0  0  0  0  0  0  0  0  0  0  0
   38.0621   11.3711   13.0251 H   0  0  0  0  0  0  0  0  0  0  0  0
   37.5086   11.0559   11.3881 H   0  0  0  0  0  0  0  0  0  0  0  0
   44.8050    7.6590   12.8063 H   0  0  0  0  0  0  0  0  0  0  0  0
   47.6508   10.8314   12.4553 H   0  0  0  0  0  0  0  0  0  0  0  0
   45.8978   13.9425    7.3824 H   0  0  0  0  0  0  0  0  0  0  0  0
   47.0187    8.6364   13.4205 H   0  0  0  0  0  0  0  0  0  0  0  0
   43.7558   10.7411    5.4892 H   0  0  0  0  0  0  0  0  0  0  0  0
   45.1862   12.7620    5.3347 H   0  0  0  0  0  0  0  0  0  0  0  0
   44.9651   10.0180   11.2318 H   0  0  0  0  0  0  0  0  0  0  0  0
   42.6226    9.7870   11.8593 H   0  0  0  0  0  0  0  0  0  0  0  0
   40.0334   11.5516   10.5567 H   0  0  0  0  0  0  0  0  0  0  0  0
   44.4673   12.2927    8.1273 H   0  0  0  0  0  0  0  0  0  0  0  0
  2  3  1  0
  3  4  2  0
  4  1  1  0
  5  2  2  0
  6  1  2  0
  7  1  1  0
  8  2  1  0
 10  9  1  0
 11  9  1  0
 12  9  2  3
 13 21  1  0
 14 10  2  0
 15 10  1  0
 16 11  2  0
 17 12  1  0
 18 12  1  0
 19 16  1  0
 20 15  1  0
 21 18  1  0
 22 17  1  0
 23 11  1  0
 24 13  1  0
 25 14  1  0
 26 15  2  0
 27 16  1  0
 28 26  1  0
 29 23  2  0
 30 29  1  0
 22 13  1  0
 20 19  1  0
 27 30  2  0
 25 28  2  0
 32 33  1  0
 33 34  2  0
 34 31  1  0
 35 32  2  0
 36 31  2  0
 37 31  1  0
 38 32  1  0
  3 39  1  0
  4 40  1  0
  7 41  1  0
  8 42  1  0
 17 43  1  0
 17 44  1  0
 18 45  1  0
 18 46  1  0
 19 47  1  0
 19 48  1  0
 20 49  1  0
 20 50  1  0
 21 51  1  0
 21 52  1  0
 22 53  1  0
 22 54  1  0
 23 55  1  0
 24 56  1  0
 24 57  1  0
 24 58  1  0
 25 59  1  0
 26 60  1  0
 27 61  1  0
 28 62  1  0
 29 63  1  0
 30 64  1  0
 33 65  1  0
 34 66  1  0
 37 67  1  0
 38 68  1  0
M  END
> <Uni-Dock RESULT> 
ENERGY=   -5.571  LOWER_BOUND=    3.201  UPPER_BOUND=    6.305
INTER + INTRA:          -5.571
INTER:                  -5.571
INTRA:                   0.000
UNBOUND:                 0.000

$$$$

     RDKit          3D

 68 69  0  0  0  0  0  0  0  0999 V2000
   51.4428    3.3671   17.9180 C   0  0  0  0  0  0  0  0  0  0  0  0
   53.4523    5.6804   17.8884 C   0  0  0  0  0  0  0  0  0  0  0  0
   51.9952    5.8049   17.9838 C   0  0  0  0  0  0  0  0  0  0  0  0
   51.1148    4.7950   17.9574 C   0  0  0  0  0  0  0  0  0  0  0  0
   54.2472    6.3899   18.4768 O   0  0  0  0  0  0  0  0  0  0  0  0
   50.8007    2.5261   17.3167 O   0  0  0  0  0  0  0  0  0  0  0  0
   52.4627    3.0439   18.7262 O   0  0  0  0  0  0  0  0  0  0  0  0
   53.8401    4.7781   16.9755 O   0  0  0  0  0  0  0  0  0  0  0  0
   52.3016    4.2758   18.3664 C   0  0  0  0  0  0  0  0  0  0  0  0
   52.9511    2.9397   18.2618 C   0  0  0  0  0  0  0  0  0  0  0  0
   50.9723    4.3850   19.0144 C   0  0  0  0  0  0  0  0  0  0  0  0
   52.8568    5.3710   17.7754 C   0  0  0  0  0  0  0  0  0  0  0  0
   54.0143    7.7814   16.3332 N   0  0  0  0  0  0  0  0  0  0  0  0
   54.2355    2.8966   18.7137 N   0  0  0  0  0  0  0  0  0  0  0  0
   52.2812    1.8100   17.7694 C   0  0  0  0  0  0  0  0  0  0  0  0
   49.8619    3.8067   18.3765 C   0  0  0  0  0  0  0  0  0  0  0  0
   54.1607    5.3317   16.9834 C   0  0  0  0  0  0  0  0  0  0  0  0
   52.2280    6.7603   17.7759 C   0  0  0  0  0  0  0  0  0  0  0  0
   50.0585    3.0580   17.0818 C   0  0  0  0  0  0  0  0  0  0  0  0
   50.8439    1.7563   17.2896 C   0  0  0  0  0  0  0  0  0  0  0  0
   53.2911    7.8594   17.6151 C   0  0  0  0  0  0  0  0  0  0  0  0
   54.1929    6.3940   15.8711 C   0  0  0  0  0  0  0  0  0  0  0  0
   50.8178    4.9997   20.2631 C   0  0  0  0  0  0  0  0  0  0  0  0
   55.2861    8.4944   16.4197 C   0  0  0  0  0  0  0  0  0  0  0  0
   54.8815    1.7148   18.6735 C   0  0  0  0  0  0  0  0  0  0  0  0
   53.0001    0.6010   17.7519 C   0  0  0  0  0  0  0  0  0  0  0  0
   48.5991    3.8956   18.9768 C   0  0  0  0  0  0  0  0  0  0  0  0
   54.3130    0.5493   18.2039 C   0  0  0  0  0  0  0  0  0  0  0  0
   49.5570    5.0813   20.8538 C   0  0  0  0  0  0  0  0  0  0  0  0
   48.4486    4.5363   20.2076 C   0  0  0  0  0  0  0  0  0  0  0  0
   52.9329    5.7523   17.4440 C   0  0  0  0  0  0  0  0  0  0  0  0
   51.2818    3.3936   18.2899 C   0  0  0  0  0  0  0  0  0  0  0  0
   52.7453    3.4091   18.2421 C   0  0  0  0  0  0  0  0  0  0  0  0
   53.4871    4.4732   17.9070 C   0  0  0  0  0  0  0  0  0  0  0  0
   50.5767    2.5304   17.8033 O   0  0  0  0  0  0  0  0  0  0  0  0
   51.8439    5.9651   16.9509 O   0  0  0  0  0  0  0  0  0  0  0  0
   53.8491    6.7214   17.6000 O   0  0  0  0  0  0  0  0  0  0  0  0
   50.7966    4.3858   19.0496 O   0  0  0  0  0  0  0  0  0  0  0  0
   51.6464    6.8262   18.0861 H   0  0  0  0  0  0  0  0  0  0  0  0
   50.0508    5.0023   17.9616 H   0  0  0  0  0  0  0  0  0  0  0  0
   52.5466    2.0740   18.6204 H   0  0  0  0  0  0  0  0  0  0  0  0
   54.8180    4.8253   17.0007 H   0  0  0  0  0  0  0  0  0  0  0  0
   55.0017    5.4972   17.6684 H   0  0  0  0  0  0  0  0  0  0  0  0
   54.3065    4.3587   16.5020 H   0  0  0  0  0  0  0  0  0  0  0  0
   51.5041    6.8261   16.9538 H   0  0  0  0  0  0  0  0  0  0  0  0
   51.6883    6.9648   18.7041 H   0  0  0  0  0  0  0  0  0  0  0  0
   50.5512    3.7036   16.3439 H   0  0  0  0  0  0  0  0  0  0  0  0
   49.0799    2.8100   16.6512 H   0  0  0  0  0  0  0  0  0  0  0  0
   50.8418    1.2299   16.3254 H   0  0  0  0  0  0  0  0  0  0  0  0
   50.2888    1.1244   17.9968 H   0  0  0  0  0  0  0  0  0  0  0  0
   53.9874    7.7919   18.4630 H   0  0  0  0  0  0  0  0  0  0  0  0
   52.8034    8.8394   17.6803 H   0  0  0  0  0  0  0  0  0  0  0  0
   55.1163    6.2851   15.2880 H   0  0  0  0  0  0  0  0  0  0  0  0
   53.3793    6.1795   15.1650 H   0  0  0  0  0  0  0  0  0  0  0  0
   51.6816    5.4161   20.7759 H   0  0  0  0  0  0  0  0  0  0  0  0
   55.9771    8.0227   17.1274 H   0  0  0  0  0  0  0  0  0  0  0  0
   55.7717    8.5350   15.4383 H   0  0  0  0  0  0  0  0  0  0  0  0
   55.1256    9.5323   16.7319 H   0  0  0  0  0  0  0  0  0  0  0  0
   55.9017    1.7325   19.0444 H   0  0  0  0  0  0  0  0  0  0  0  0
   52.5297   -0.3105   17.3889 H   0  0  0  0  0  0  0  0  0  0  0  0
   47.7274    3.4573   18.4971 H   0  0  0  0  0  0  0  0  0  0  0  0
   54.8735   -0.3783   18.1958 H   0  0  0  0  0  0  0  0  0  0  0  0
   49.4410    5.5665   21.8191 H   0  0  0  0  0  0  0  0  0  0  0  0
   47.4667    4.5994   20.6697 H   0  0  0  0  0  0  0  0  0  0  0  0
   53.2139    2.4638   18.4873 H   0  0  0  0  0  0  0  0  0  0  0  0
   54.5689    4.4095   17.9284 H   0  0  0  0  0  0  0  0  0  0  0  0
   53.3958    7.5242   17.2673 H   0  0  0  0  0  0  0  0  0  0  0  0
   49.8251    4.2914   18.9731 H   0  0  0  0  0  0  0  0  0  0  0  0
  2  3  1  0
  3  4  2  0
  4  1  1  0
  5  2  2  0
  6  1  2  0
  7  1  1  0
  8  2  1  0
 10  9  1  0
 11  9  1  0
 12  9  2  3
 13 21  1  0
 14 10  2  0
 15 10  1  0
 16 11  2  0
 17 12  1  0
 18 12  1  0
 19 16  1  0
 20 15  1  0
 21 18  1  0
 22 17  1  0
 23 11  1  0
 24 13  1  0
 25 14  1  0
 26 15  2  0
 27 16  1  0
 28 26  1  0
 29 23  2  0
 30 29  1  0
 22 13  1  0
 20 19  1  0
 27 30  2  0
 25 28  2  0
 32 33  1  0
 33 34  2  0
 34 31  1  0
 35 32  2  0
 36 31  2  0
 37 31  1  0
 38 32  1  0
  3 39  1  0
  4 40  1  0
  7 41  1  0
  8 42  1  0
 17 43  1  0
 17 44  1  0
 18 45  1  0
 18 46  1  0
 19 47  1  0
 19 48  1  0
 20 49  1  0
 20 50  1  0
 21 51  1  0
 21 52  1  0
 22 53  1  0
 22 54  1  0
 23 55  1  0
 24 56  1  0
 24 57  1  0
 24 58  1  0
 25 59  1  0
 26 60  1  0
 27 61  1  0
 28 62  1  0
 29 63  1  0
 30 64  1  0
 33 65  1  0
 34 66  1  0
 37 67  1  0
 38 68  1  0
M  END
> <Uni-Dock RESULT> 
ENERGY=   -5.425  LOWER_BOUND=    7.919  UPPER_BOUND=   10.190
INTER + INTRA:          -5.425
INTER:                  -5.425
INTRA:                   0.000
UNBOUND:                 0.000

$$$$

     RDKit          3D

 68 69  0  0  0  0  0  0  0  0999 V2000
   48.2528    5.4790   16.2074 C   0  0  0  0  0  0  0  0  0  0  0  0
   48.9855    7.7272   18.1566 C   0  0  0  0  0  0  0  0  0  0  0  0
   48.8507    6.3064   18.4899 C   0  0  0  0  0  0  0  0  0  0  0  0
   48.4923    5.3297   17.6456 C   0  0  0  0  0  0  0  0  0  0  0  0
   49.8196    8.4738   18.6346 O   0  0  0  0  0  0  0  0  0  0  0  0
   47.4088    4.8672   15.5794 O   0  0  0  0  0  0  0  0  0  0  0  0
   49.1521    6.2734   15.6088 O   0  0  0  0  0  0  0  0  0  0  0  0
   48.0050    8.1705   17.3566 O   0  0  0  0  0  0  0  0  0  0  0  0
   48.9981    6.3399   16.8914 C   0  0  0  0  0  0  0  0  0  0  0  0
   48.7672    6.8262   15.5028 C   0  0  0  0  0  0  0  0  0  0  0  0
   49.4177    4.9338   17.1048 C   0  0  0  0  0  0  0  0  0  0  0  0
   48.7183    7.1314   17.9647 C   0  0  0  0  0  0  0  0  0  0  0  0
   47.9543    8.8385   20.3589 N   0  0  0  0  0  0  0  0  0  0  0  0
   49.4171    7.9822   15.1913 N   0  0  0  0  0  0  0  0  0  0  0  0
   47.9718    6.1302   14.5806 C   0  0  0  0  0  0  0  0  0  0  0  0
   48.5054    3.9061   16.8115 C   0  0  0  0  0  0  0  0  0  0  0  0
   48.1675    8.5497   17.8457 C   0  0  0  0  0  0  0  0  0  0  0  0
   48.8616    6.6922   19.4180 C   0  0  0  0  0  0  0  0  0  0  0  0
   47.1501    4.2571   16.2500 C   0  0  0  0  0  0  0  0  0  0  0  0
   47.2512    4.8189   14.8256 C   0  0  0  0  0  0  0  0  0  0  0  0
   49.0861    7.8944   20.3499 C   0  0  0  0  0  0  0  0  0  0  0  0
   47.2872    8.9301   19.0486 C   0  0  0  0  0  0  0  0  0  0  0  0
   50.7116    4.6160   17.5361 C   0  0  0  0  0  0  0  0  0  0  0  0
   48.3845   10.1475   20.8434 C   0  0  0  0  0  0  0  0  0  0  0  0
   49.2758    8.4717   13.9440 C   0  0  0  0  0  0  0  0  0  0  0  0
   47.8600    6.6829   13.2919 C   0  0  0  0  0  0  0  0  0  0  0  0
   48.8865    2.5715   17.0021 C   0  0  0  0  0  0  0  0  0  0  0  0
   48.5134    7.8655   12.9675 C   0  0  0  0  0  0  0  0  0  0  0  0
   51.0824    3.2843   17.7207 C   0  0  0  0  0  0  0  0  0  0  0  0
   50.1685    2.2644   17.4610 C   0  0  0  0  0  0  0  0  0  0  0  0
   48.4791    7.3175   18.3760 C   0  0  0  0  0  0  0  0  0  0  0  0
   48.5903    5.2531   16.2009 C   0  0  0  0  0  0  0  0  0  0  0  0
   48.7975    6.6882   15.9958 C   0  0  0  0  0  0  0  0  0  0  0  0
   48.7919    7.6074   16.9704 C   0  0  0  0  0  0  0  0  0  0  0  0
   47.8426    4.5549   15.5433 O   0  0  0  0  0  0  0  0  0  0  0  0
   47.8533    6.3808   18.8291 O   0  0  0  0  0  0  0  0  0  0  0  0
   48.9619    8.2989   19.1551 O   0  0  0  0  0  0  0  0  0  0  0  0
   49.4219    4.7561   17.1274 O   0  0  0  0  0  0  0  0  0  0  0  0
   49.0742    6.0741   19.5250 H   0  0  0  0  0  0  0  0  0  0  0  0
   48.3514    4.3194   18.0126 H   0  0  0  0  0  0  0  0  0  0  0  0
   48.8891    6.2551   14.6657 H   0  0  0  0  0  0  0  0  0  0  0  0
   48.2055    9.1228   17.2467 H   0  0  0  0  0  0  0  0  0  0  0  0
   49.0048    9.2547   17.7708 H   0  0  0  0  0  0  0  0  0  0  0  0
   47.5507    8.6646   16.9478 H   0  0  0  0  0  0  0  0  0  0  0  0
   47.9531    6.1566   19.7216 H   0  0  0  0  0  0  0  0  0  0  0  0
   49.7050    6.0114   19.5584 H   0  0  0  0  0  0  0  0  0  0  0  0
   46.6361    4.9607   16.9170 H   0  0  0  0  0  0  0  0  0  0  0  0
   46.5206    3.3583   16.2265 H   0  0  0  0  0  0  0  0  0  0  0  0
   46.2220    4.9397   14.4610 H   0  0  0  0  0  0  0  0  0  0  0  0
   47.7272    4.0623   14.1864 H   0  0  0  0  0  0  0  0  0  0  0  0
   50.0145    8.3979   20.0451 H   0  0  0  0  0  0  0  0  0  0  0  0
   49.2424    7.5290   21.3719 H   0  0  0  0  0  0  0  0  0  0  0  0
   46.8609    9.9287   18.8886 H   0  0  0  0  0  0  0  0  0  0  0  0
   46.4252    8.2497   19.0747 H   0  0  0  0  0  0  0  0  0  0  0  0
   51.4313    5.4081   17.7290 H   0  0  0  0  0  0  0  0  0  0  0  0
   49.1033   10.6230   20.1667 H   0  0  0  0  0  0  0  0  0  0  0  0
   47.5245   10.8165   20.9588 H   0  0  0  0  0  0  0  0  0  0  0  0
   48.8465   10.0594   21.8331 H   0  0  0  0  0  0  0  0  0  0  0  0
   49.8130    9.3940   13.7454 H   0  0  0  0  0  0  0  0  0  0  0  0
   47.2635    6.1828   12.5315 H   0  0  0  0  0  0  0  0  0  0  0  0
   48.1936    1.7626   16.7839 H   0  0  0  0  0  0  0  0  0  0  0  0
   48.4343    8.2971   11.9765 H   0  0  0  0  0  0  0  0  0  0  0  0
   52.0851    3.0433   18.0634 H   0  0  0  0  0  0  0  0  0  0  0  0
   50.4592    1.2268   17.6040 H   0  0  0  0  0  0  0  0  0  0  0  0
   48.9448    6.9787   14.9628 H   0  0  0  0  0  0  0  0  0  0  0  0
   48.9864    8.6478   16.7367 H   0  0  0  0  0  0  0  0  0  0  0  0
   48.7067    8.0225   20.0602 H   0  0  0  0  0  0  0  0  0  0  0  0
   49.1643    3.8141   17.1983 H   0  0  0  0  0  0  0  0  0  0  0  0
  2  3  1  0
  3  4  2  0
  4  1  1  0
  5  2  2  0
  6  1  2  0
  7  1  1  0
  8  2  1  0
 10  9  1  0
 11  9  1  0
 12  9  2  3
 13 21  1  0
 14 10  2  0
 15 10  1  0
 16 11  2  0
 17 12  1  0
 18 12  1  0
 19 16  1  0
 20 15  1  0
 21 18  1  0
 22 17  1  0
 23 11  1  0
 24 13  1  0
 25 14  1  0
 26 15  2  0
 27 16  1  0
 28 26  1  0
 29 23  2  0
 30 29  1  0
 22 13  1  0
 20 19  1  0
 27 30  2  0
 25 28  2  0
 32 33  1  0
 33 34  2  0
 34 31  1  0
 35 32  2  0
 36 31  2  0
 37 31  1  0
 38 32  1  0
  3 39  1  0
  4 40  1  0
  7 41  1  0
  8 42  1  0
 17 43  1  0
 17 44  1  0
 18 45  1  0
 18 46  1  0
 19 47  1  0
 19 48  1  0
 20 49  1  0
 20 50  1  0
 21 51  1  0
 21 52  1  0
 22 53  1  0
 22 54  1  0
 23 55  1  0
 24 56  1  0
 24 57  1  0
 24 58  1  0
 25 59  1  0
 26 60  1  0
 27 61  1  0
 28 62  1  0
 29 63  1  0
 30 64  1  0
 33 65  1  0
 34 66  1  0
 37 67  1  0
 38 68  1  0
M  END
> <Uni-Dock RESULT> 
ENERGY=   -4.970  LOWER_BOUND=    4.209  UPPER_BOUND=    6.813
INTER + INTRA:          -4.970
INTER:                  -4.970
INTRA:                   0.000
UNBOUND:                 0.000

$$$$

     RDKit          3D

 68 69  0  0  0  0  0  0  0  0999 V2000
   48.0330    7.9944   13.7563 C   0  0  0  0  0  0  0  0  0  0  0  0
   48.6397   10.9211   13.0803 C   0  0  0  0  0  0  0  0  0  0  0  0
   48.1074    9.9150   12.1571 C   0  0  0  0  0  0  0  0  0  0  0  0
   47.8792    8.6259   12.4428 C   0  0  0  0  0  0  0  0  0  0  0  0
   48.3100   12.0927   13.0918 O   0  0  0  0  0  0  0  0  0  0  0  0
   48.4226    6.8554   13.9350 O   0  0  0  0  0  0  0  0  0  0  0  0
   47.5742    8.7577   14.7588 O   0  0  0  0  0  0  0  0  0  0  0  0
   49.6379   10.4527   13.8433 O   0  0  0  0  0  0  0  0  0  0  0  0
   47.8537    9.3035   13.6199 C   0  0  0  0  0  0  0  0  0  0  0  0
   48.1655    8.9564   15.0341 C   0  0  0  0  0  0  0  0  0  0  0  0
   46.8335    8.5133   12.8894 C   0  0  0  0  0  0  0  0  0  0  0  0
   48.5714   10.2549   12.9592 C   0  0  0  0  0  0  0  0  0  0  0  0
   50.2664   12.2673   11.4402 N   0  0  0  0  0  0  0  0  0  0  0  0
   48.1230   10.0082   15.8989 N   0  0  0  0  0  0  0  0  0  0  0  0
   48.4465    7.6455   15.4466 C   0  0  0  0  0  0  0  0  0  0  0  0
   47.1134    7.1711   12.5819 C   0  0  0  0  0  0  0  0  0  0  0  0
   49.7203   11.0352   13.5917 C   0  0  0  0  0  0  0  0  0  0  0  0
   48.3643   10.6260   11.4945 C   0  0  0  0  0  0  0  0  0  0  0  0
   48.4161    6.5629   13.0387 C   0  0  0  0  0  0  0  0  0  0  0  0
   48.4707    6.4123   14.5648 C   0  0  0  0  0  0  0  0  0  0  0  0
   48.8252   12.0645   11.2077 C   0  0  0  0  0  0  0  0  0  0  0  0
   50.7776   11.4492   12.5536 C   0  0  0  0  0  0  0  0  0  0  0  0
   45.5890    9.0609   12.5543 C   0  0  0  0  0  0  0  0  0  0  0  0
   50.5591   13.6859   11.6279 C   0  0  0  0  0  0  0  0  0  0  0  0
   48.3705    9.7676   17.2012 C   0  0  0  0  0  0  0  0  0  0  0  0
   48.6948    7.4488   16.8171 C   0  0  0  0  0  0  0  0  0  0  0  0
   46.1590    6.4078   11.8968 C   0  0  0  0  0  0  0  0  0  0  0  0
   48.6608    8.5170   17.7051 C   0  0  0  0  0  0  0  0  0  0  0  0
   44.6444    8.2925   11.8743 C   0  0  0  0  0  0  0  0  0  0  0  0
   44.9325    6.9703   11.5399 C   0  0  0  0  0  0  0  0  0  0  0  0
   48.9056   10.4682   12.6370 C   0  0  0  0  0  0  0  0  0  0  0  0
   47.6295    7.9749   13.7141 C   0  0  0  0  0  0  0  0  0  0  0  0
   48.1166    9.0822   14.5394 C   0  0  0  0  0  0  0  0  0  0  0  0
   48.6470   10.2155   14.0607 C   0  0  0  0  0  0  0  0  0  0  0  0
   47.8910    6.8012   13.8961 O   0  0  0  0  0  0  0  0  0  0  0  0
   49.0445    9.6584   11.7429 O   0  0  0  0  0  0  0  0  0  0  0  0
   49.0217   11.7898   12.4293 O   0  0  0  0  0  0  0  0  0  0  0  0
   46.7469    8.3888   12.7940 O   0  0  0  0  0  0  0  0  0  0  0  0
   47.8923   10.2975   11.1657 H   0  0  0  0  0  0  0  0  0  0  0  0
   47.5515    7.9471   11.6637 H   0  0  0  0  0  0  0  0  0  0  0  0
   47.7121    8.2052   15.5554 H   0  0  0  0  0  0  0  0  0  0  0  0
   49.9084   11.2283   14.3765 H   0  0  0  0  0  0  0  0  0  0  0  0
   49.3192   11.9323   14.0795 H   0  0  0  0  0  0  0  0  0  0  0  0
   50.2350   10.4404   14.3539 H   0  0  0  0  0  0  0  0  0  0  0  0
   48.9288    9.9267   10.8646 H   0  0  0  0  0  0  0  0  0  0  0  0
   47.3141   10.5572   11.1996 H   0  0  0  0  0  0  0  0  0  0  0  0
   49.2604    7.1587   12.6697 H   0  0  0  0  0  0  0  0  0  0  0  0
   48.5342    5.5702   12.5858 H   0  0  0  0  0  0  0  0  0  0  0  0
   49.3957    5.8658   14.7944 H   0  0  0  0  0  0  0  0  0  0  0  0
   47.6367    5.7705   14.8810 H   0  0  0  0  0  0  0  0  0  0  0  0
   48.2278   12.7478   11.8279 H   0  0  0  0  0  0  0  0  0  0  0  0
   48.6040   12.3078   10.1616 H   0  0  0  0  0  0  0  0  0  0  0  0
   51.6135   11.9471   13.0615 H   0  0  0  0  0  0  0  0  0  0  0  0
   51.2077   10.5380   12.1163 H   0  0  0  0  0  0  0  0  0  0  0  0
   45.3558   10.0885   12.8232 H   0  0  0  0  0  0  0  0  0  0  0  0
   50.0987   14.0861   12.5382 H   0  0  0  0  0  0  0  0  0  0  0  0
   51.6407   13.8508   11.6870 H   0  0  0  0  0  0  0  0  0  0  0  0
   50.2005   14.2698   10.7729 H   0  0  0  0  0  0  0  0  0  0  0  0
   48.3246   10.6376   17.8492 H   0  0  0  0  0  0  0  0  0  0  0  0
   48.9098    6.4522   17.1971 H   0  0  0  0  0  0  0  0  0  0  0  0
   46.3585    5.3686   11.6470 H   0  0  0  0  0  0  0  0  0  0  0  0
   48.8489    8.3741   18.7629 H   0  0  0  0  0  0  0  0  0  0  0  0
   43.6833    8.7246   11.6092 H   0  0  0  0  0  0  0  0  0  0  0  0
   44.1949    6.3721   11.0111 H   0  0  0  0  0  0  0  0  0  0  0  0
   48.0356    8.9177   15.6069 H   0  0  0  0  0  0  0  0  0  0  0  0
   48.9539   11.0013   14.7412 H   0  0  0  0  0  0  0  0  0  0  0  0
   49.1924   11.8586   11.4666 H   0  0  0  0  0  0  0  0  0  0  0  0
   46.5278    7.5774   12.2918 H   0  0  0  0  0  0  0  0  0  0  0  0
  2  3  1  0
  3  4  2  0
  4  1  1  0
  5  2  2  0
  6  1  2  0
  7  1  1  0
  8  2  1  0
 10  9  1  0
 11  9  1  0
 12  9  2  3
 13 21  1  0
 14 10  2  0
 15 10  1  0
 16 11  2  0
 17 12  1  0
 18 12  1  0
 19 16  1  0
 20 15  1  0
 21 18  1  0
 22 17  1  0
 23 11  1  0
 24 13  1  0
 25 14  1  0
 26 15  2  0
 27 16  1  0
 28 26  1  0
 29 23  2  0
 30 29  1  0
 22 13  1  0
 20 19  1  0
 27 30  2  0
 25 28  2  0
 32 33  1  0
 33 34  2  0
 34 31  1  0
 35 32  2  0
 36 31  2  0
 37 31  1  0
 38 32  1  0
  3 39  1  0
  4 40  1  0
  7 41  1  0
  8 42  1  0
 17 43  1  0
 17 44  1  0
 18 45  1  0
 18 46  1  0
 19 47  1  0
 19 48  1  0
 20 49  1  0
 20 50  1  0
 21 51  1  0
 21 52  1  0
 22 53  1  0
 22 54  1  0
 23 55  1  0
 24 56  1  0
 24 57  1  0
 24 58  1  0
 25 59  1  0
 26 60  1  0
 27 61  1  0
 28 62  1  0
 29 63  1  0
 30 64  1  0
 33 65  1  0
 34 66  1  0
 37 67  1  0
 38 68  1  0
M  END
> <Uni-Dock RESULT> 
ENERGY=   -4.888  LOWER_BOUND=    2.156  UPPER_BOUND=    5.473
INTER + INTRA:          -4.888
INTER:                  -4.888
INTRA:                   0.000
UNBOUND:                 0.000

$$$$

     RDKit          3D

 68 69  0  0  0  0  0  0  0  0999 V2000
   49.4525    9.7341   13.0476 C   0  0  0  0  0  0  0  0  0  0  0  0
   47.6062    7.4054   12.3002 C   0  0  0  0  0  0  0  0  0  0  0  0
   47.1894    8.6839   12.8830 C   0  0  0  0  0  0  0  0  0  0  0  0
   48.0012    9.6864   13.2457 C   0  0  0  0  0  0  0  0  0  0  0  0
   46.9772    6.7910   11.4586 O   0  0  0  0  0  0  0  0  0  0  0  0
   50.2403   10.2424   13.8237 O   0  0  0  0  0  0  0  0  0  0  0  0
   49.8306    9.2708   11.8475 O   0  0  0  0  0  0  0  0  0  0  0  0
   48.7025    6.8992   12.8832 O   0  0  0  0  0  0  0  0  0  0  0  0
   48.6659    8.9554   12.3134 C   0  0  0  0  0  0  0  0  0  0  0  0
   50.1010    8.6730   12.0331 C   0  0  0  0  0  0  0  0  0  0  0  0
   48.1987   10.3623   12.3458 C   0  0  0  0  0  0  0  0  0  0  0  0
   47.8092    7.9514   12.6522 C   0  0  0  0  0  0  0  0  0  0  0  0
   45.9342    5.7372   13.5532 N   0  0  0  0  0  0  0  0  0  0  0  0
   50.3169    7.7586   11.0466 N   0  0  0  0  0  0  0  0  0  0  0  0
   51.1451    9.3226   12.7078 C   0  0  0  0  0  0  0  0  0  0  0  0
   48.6479   11.1982   13.3821 C   0  0  0  0  0  0  0  0  0  0  0  0
   48.2273    6.4878   12.7635 C   0  0  0  0  0  0  0  0  0  0  0  0
   46.3435    8.1583   13.0188 C   0  0  0  0  0  0  0  0  0  0  0  0
   49.6207   10.6576   14.4004 C   0  0  0  0  0  0  0  0  0  0  0  0
   50.9981   10.3819   13.7826 C   0  0  0  0  0  0  0  0  0  0  0  0
   45.5110    6.8949   12.7453 C   0  0  0  0  0  0  0  0  0  0  0  0
   47.3863    5.7244   13.8012 C   0  0  0  0  0  0  0  0  0  0  0  0
   47.3711   10.8795   11.3414 C   0  0  0  0  0  0  0  0  0  0  0  0
   45.4754    4.4924   12.9421 C   0  0  0  0  0  0  0  0  0  0  0  0
   51.5915    7.4689   10.7197 C   0  0  0  0  0  0  0  0  0  0  0  0
   52.4565    8.9858   12.3262 C   0  0  0  0  0  0  0  0  0  0  0  0
   48.2209   12.5318   13.4256 C   0  0  0  0  0  0  0  0  0  0  0  0
   52.6861    8.0488   11.3261 C   0  0  0  0  0  0  0  0  0  0  0  0
   46.9531   12.2091   11.3921 C   0  0  0  0  0  0  0  0  0  0  0  0
   47.3718   13.0314   12.4369 C   0  0  0  0  0  0  0  0  0  0  0  0
   47.5088    7.6501   12.9351 C   0  0  0  0  0  0  0  0  0  0  0  0
   49.3355   10.0266   12.7913 C   0  0  0  0  0  0  0  0  0  0  0  0
   49.6103    8.7286   12.1716 C   0  0  0  0  0  0  0  0  0  0  0  0
   48.7781    7.6791   12.1965 C   0  0  0  0  0  0  0  0  0  0  0  0
   50.1140   10.6441   13.4926 O   0  0  0  0  0  0  0  0  0  0  0  0
   47.1730    8.3352   13.8798 O   0  0  0  0  0  0  0  0  0  0  0  0
   46.7222    6.6817   12.4385 O   0  0  0  0  0  0  0  0  0  0  0  0
   48.1583   10.5301   12.3941 O   0  0  0  0  0  0  0  0  0  0  0  0
   46.1172    8.7808   13.0104 H   0  0  0  0  0  0  0  0  0  0  0  0
   47.5948   10.5635   13.7363 H   0  0  0  0  0  0  0  0  0  0  0  0
   50.8025    9.3904   11.8462 H   0  0  0  0  0  0  0  0  0  0  0  0
   48.8412    6.0473   12.4205 H   0  0  0  0  0  0  0  0  0  0  0  0
   48.1179    6.0079   11.7830 H   0  0  0  0  0  0  0  0  0  0  0  0
   49.2752    6.3939   13.0682 H   0  0  0  0  0  0  0  0  0  0  0  0
   46.2739    8.4211   14.0821 H   0  0  0  0  0  0  0  0  0  0  0  0
   45.8907    8.9743   12.4499 H   0  0  0  0  0  0  0  0  0  0  0  0
   49.2109    9.7554   14.8717 H   0  0  0  0  0  0  0  0  0  0  0  0
   49.7421   11.3862   15.2121 H   0  0  0  0  0  0  0  0  0  0  0  0
   51.6638   10.1009   14.6101 H   0  0  0  0  0  0  0  0  0  0  0  0
   51.3876   11.3219   13.3677 H   0  0  0  0  0  0  0  0  0  0  0  0
   45.5727    6.6675   11.6716 H   0  0  0  0  0  0  0  0  0  0  0  0
   44.4581    7.1070   12.9662 H   0  0  0  0  0  0  0  0  0  0  0  0
   47.7645    4.6984   13.8951 H   0  0  0  0  0  0  0  0  0  0  0  0
   47.5518    6.1836   14.7852 H   0  0  0  0  0  0  0  0  0  0  0  0
   47.0513   10.2446   10.5185 H   0  0  0  0  0  0  0  0  0  0  0  0
   45.9500    4.3088   11.9716 H   0  0  0  0  0  0  0  0  0  0  0  0
   45.6892    3.6407   13.5974 H   0  0  0  0  0  0  0  0  0  0  0  0
   44.3893    4.5110   12.7985 H   0  0  0  0  0  0  0  0  0  0  0  0
   51.7108    6.7350    9.9286 H   0  0  0  0  0  0  0  0  0  0  0  0
   53.3069    9.4637   12.8082 H   0  0  0  0  0  0  0  0  0  0  0  0
   48.5550   13.1931   14.2213 H   0  0  0  0  0  0  0  0  0  0  0  0
   53.6931    7.7849   11.0245 H   0  0  0  0  0  0  0  0  0  0  0  0
   46.3043   12.6034   10.6147 H   0  0  0  0  0  0  0  0  0  0  0  0
   47.0463   14.0679   12.4744 H   0  0  0  0  0  0  0  0  0  0  0  0
   50.5756    8.6572   11.6853 H   0  0  0  0  0  0  0  0  0  0  0  0
   49.0448    6.7622   11.6835 H   0  0  0  0  0  0  0  0  0  0  0  0
   45.9120    6.7374   12.9874 H   0  0  0  0  0  0  0  0  0  0  0  0
   48.0748   11.3661   12.8968 H   0  0  0  0  0  0  0  0  0  0  0  0
  2  3  1  0
  3  4  2  0
  4  1  1  0
  5  2  2  0
  6  1  2  0
  7  1  1  0
  8  2  1  0
 10  9  1  0
 11  9  1  0
 12  9  2  3
 13 21  1  0
 14 10  2  0
 15 10  1  0
 16 11  2  0
 17 12  1  0
 18 12  1  0
 19 16  1  0
 20 15  1  0
 21 18  1  0
 22 17  1  0
 23 11  1  0
 24 13  1  0
 25 14  1  0
 26 15  2  0
 27 16  1  0
 28 26  1  0
 29 23  2  0
 30 29  1  0
 22 13  1  0
 20 19  1  0
 27 30  2  0
 25 28  2  0
 32 33  1  0
 33 34  2  0
 34 31  1  0
 35 32  2  0
 36 31  2  0
 37 31  1  0
 38 32  1  0
  3 39  1  0
  4 40  1  0
  7 41  1  0
  8 42  1  0
 17 43  1  0
 17 44  1  0
 18 45  1  0
 18 46  1  0
 19 47  1  0
 19 48  1  0
 20 49  1  0
 20 50  1  0
 21 51  1  0
 21 52  1  0
 22 53  1  0
 22 54  1  0
 23 55  1  0
 24 56  1  0
 24 57  1  0
 24 58  1  0
 25 59  1  0
 26 60  1  0
 27 61  1  0
 28 62  1  0
 29 63  1  0
 30 64  1  0
 33 65  1  0
 34 66  1  0
 37 67  1  0
 38 68  1  0
M  END
> <Uni-Dock RESULT> 
ENERGY=   -4.830  LOWER_BOUND=    1.938  UPPER_BOUND=    3.920
INTER + INTRA:          -4.830
INTER:                  -4.830
INTRA:                   0.000
UNBOUND:                 0.000

$$$$

     RDKit          3D

 68 69  0  0  0  0  0  0  0  0999 V2000
   49.1894    5.7078   20.1110 C   0  0  0  0  0  0  0  0  0  0  0  0
   47.9097    8.3380   19.1970 C   0  0  0  0  0  0  0  0  0  0  0  0
   48.4692    7.3019   18.3243 C   0  0  0  0  0  0  0  0  0  0  0  0
   49.0636    6.1701   18.7260 C   0  0  0  0  0  0  0  0  0  0  0  0
   46.9136    8.9906   18.9453 O   0  0  0  0  0  0  0  0  0  0  0  0
   50.1493    5.1056   20.5549 O   0  0  0  0  0  0  0  0  0  0  0  0
   48.0728    5.8997   20.8282 O   0  0  0  0  0  0  0  0  0  0  0  0
   48.6831    8.5970   20.2613 O   0  0  0  0  0  0  0  0  0  0  0  0
   48.2529    6.5732   19.7387 C   0  0  0  0  0  0  0  0  0  0  0  0
   48.2737    6.4204   21.2200 C   0  0  0  0  0  0  0  0  0  0  0  0
   48.2737    5.3602   18.8862 C   0  0  0  0  0  0  0  0  0  0  0  0
   48.3319    7.8053   19.1621 C   0  0  0  0  0  0  0  0  0  0  0  0
   48.6589   10.5376   17.8745 N   0  0  0  0  0  0  0  0  0  0  0  0
   47.3009    7.1131   21.8753 N   0  0  0  0  0  0  0  0  0  0  0  0
   49.1998    5.6013   21.8825 C   0  0  0  0  0  0  0  0  0  0  0  0
   49.4346    4.5688   18.8680 C   0  0  0  0  0  0  0  0  0  0  0  0
   48.4367    9.1035   19.9576 C   0  0  0  0  0  0  0  0  0  0  0  0
   48.3837    8.0492   17.6576 C   0  0  0  0  0  0  0  0  0  0  0  0
   50.6030    4.9478   19.7437 C   0  0  0  0  0  0  0  0  0  0  0  0
   50.2830    4.7625   21.2329 C   0  0  0  0  0  0  0  0  0  0  0  0
   47.8547    9.4467   17.2953 C   0  0  0  0  0  0  0  0  0  0  0  0
   49.2153   10.1879   19.1931 C   0  0  0  0  0  0  0  0  0  0  0  0
   47.1490    4.9659   18.1509 C   0  0  0  0  0  0  0  0  0  0  0  0
   47.8836   11.7746   17.9215 C   0  0  0  0  0  0  0  0  0  0  0  0
   47.2409    7.0048   23.2170 C   0  0  0  0  0  0  0  0  0  0  0  0
   49.0914    5.5213   23.2827 C   0  0  0  0  0  0  0  0  0  0  0  0
   49.4703    3.4162   18.0723 C   0  0  0  0  0  0  0  0  0  0  0  0
   48.1069    6.2303   23.9601 C   0  0  0  0  0  0  0  0  0  0  0  0
   47.1934    3.8156   17.3635 C   0  0  0  0  0  0  0  0  0  0  0  0
   48.3550    3.0464   17.3190 C   0  0  0  0  0  0  0  0  0  0  0  0
   48.5226    8.2091   18.9139 C   0  0  0  0  0  0  0  0  0  0  0  0
   48.9331    5.4285   19.9651 C   0  0  0  0  0  0  0  0  0  0  0  0
   48.3055    6.5170   20.7173 C   0  0  0  0  0  0  0  0  0  0  0  0
   48.0811    7.7471   20.2365 C   0  0  0  0  0  0  0  0  0  0  0  0
   49.8252    4.7152   20.3828 O   0  0  0  0  0  0  0  0  0  0  0  0
   49.4139    7.7625   18.2206 O   0  0  0  0  0  0  0  0  0  0  0  0
   47.8055    9.2850   18.5515 O   0  0  0  0  0  0  0  0  0  0  0  0
   48.3228    5.2169   18.7905 O   0  0  0  0  0  0  0  0  0  0  0  0
   48.3665    7.5150   17.2664 H   0  0  0  0  0  0  0  0  0  0  0  0
   49.5097    5.5032   17.9971 H   0  0  0  0  0  0  0  0  0  0  0  0
   48.2906    5.5227   21.7053 H   0  0  0  0  0  0  0  0  0  0  0  0
   48.2076    9.3158   20.7264 H   0  0  0  0  0  0  0  0  0  0  0  0
   47.4270    9.4701   20.1807 H   0  0  0  0  0  0  0  0  0  0  0  0
   48.9552    8.9476   20.9098 H   0  0  0  0  0  0  0  0  0  0  0  0
   49.4210    7.9485   17.3139 H   0  0  0  0  0  0  0  0  0  0  0  0
   47.7838    7.3221   17.1044 H   0  0  0  0  0  0  0  0  0  0  0  0
   50.9147    5.9783   19.5314 H   0  0  0  0  0  0  0  0  0  0  0  0
   51.4670    4.3197   19.4918 H   0  0  0  0  0  0  0  0  0  0  0  0
   51.2156    4.9531   21.7815 H   0  0  0  0  0  0  0  0  0  0  0  0
   50.0243    3.7084   21.4044 H   0  0  0  0  0  0  0  0  0  0  0  0
   46.8077    9.5144   17.6233 H   0  0  0  0  0  0  0  0  0  0  0  0
   47.8546    9.5561   16.2042 H   0  0  0  0  0  0  0  0  0  0  0  0
   49.3227   11.0770   19.8276 H   0  0  0  0  0  0  0  0  0  0  0  0
   50.2393    9.8265   19.0279 H   0  0  0  0  0  0  0  0  0  0  0  0
   46.2370    5.5568   18.1916 H   0  0  0  0  0  0  0  0  0  0  0  0
   47.0297   11.7016   18.6044 H   0  0  0  0  0  0  0  0  0  0  0  0
   48.5133   12.6110   18.2446 H   0  0  0  0  0  0  0  0  0  0  0  0
   47.5088   12.0327   16.9247 H   0  0  0  0  0  0  0  0  0  0  0  0
   46.4489    7.5756   23.6922 H   0  0  0  0  0  0  0  0  0  0  0  0
   49.7767    4.8948   23.8501 H   0  0  0  0  0  0  0  0  0  0  0  0
   50.3606    2.7928   18.0425 H   0  0  0  0  0  0  0  0  0  0  0  0
   48.0151    6.1728   25.0385 H   0  0  0  0  0  0  0  0  0  0  0  0
   46.3206    3.5184   16.7884 H   0  0  0  0  0  0  0  0  0  0  0  0
   48.3877    2.1494   16.7059 H   0  0  0  0  0  0  0  0  0  0  0  0
   48.0371    6.2642   21.7358 H   0  0  0  0  0  0  0  0  0  0  0  0
   47.5803    8.4870   20.8501 H   0  0  0  0  0  0  0  0  0  0  0  0
   48.1675    9.5186   17.6712 H   0  0  0  0  0  0  0  0  0  0  0  0
   48.8483    4.5033   18.3740 H   0  0  0  0  0  0  0  0  0  0  0  0
  2  3  1  0
  3  4  2  0
  4  1  1  0
  5  2  2  0
  6  1  2  0
  7  1  1  0
  8  2  1  0
 10  9  1  0
 11  9  1  0
 12  9  2  3
 13 21  1  0
 14 10  2  0
 15 10  1  0
 16 11  2  0
 17 12  1  0
 18 12  1  0
 19 16  1  0
 20 15  1  0
 21 18  1  0
 22 17  1  0
 23 11  1  0
 24 13  1  0
 25 14  1  0
 26 15  2  0
 27 16  1  0
 28 26  1  0
 29 23  2  0
 30 29  1  0
 22 13  1  0
 20 19  1  0
 27 30  2  0
 25 28  2  0
 32 33  1  0
 33 34  2  0
 34 31  1  0
 35 32  2  0
 36 31  2  0
 37 31  1  0
 38 32  1  0
  3 39  1  0
  4 40  1  0
  7 41  1  0
  8 42  1  0
 17 43  1  0
 17 44  1  0
 18 45  1  0
 18 46  1  0
 19 47  1  0
 19 48  1  0
 20 49  1  0
 20 50  1  0
 21 51  1  0
 21 52  1  0
 22 53  1  0
 22 54  1  0
 23 55  1  0
 24 56  1  0
 24 57  1  0
 24 58  1  0
 25 59  1  0
 26 60  1  0
 27 61  1  0
 28 62  1  0
 29 63  1  0
 30 64  1  0
 33 65  1  0
 34 66  1  0
 37 67  1  0
 38 68  1  0
M  END
> <Uni-Dock RESULT> 
ENERGY=   -4.805  LOWER_BOUND=    5.809  UPPER_BOUND=    8.894
INTER + INTRA:          -4.805
INTER:                  -4.805
INTRA:                   0.000
UNBOUND:                 0.000

$$$$

     RDKit          3D

 68 69  0  0  0  0  0  0  0  0999 V2000
   47.9698    6.6292   13.9029 C   0  0  0  0  0  0  0  0  0  0  0  0
   50.0594    8.7610   13.2104 C   0  0  0  0  0  0  0  0  0  0  0  0
   48.9940    8.2784   12.3272 C   0  0  0  0  0  0  0  0  0  0  0  0
   48.1050    7.3186   12.6167 C   0  0  0  0  0  0  0  0  0  0  0  0
   50.4420    9.9151   13.2662 O   0  0  0  0  0  0  0  0  0  0  0  0
   47.6680    5.4572   14.0313 O   0  0  0  0  0  0  0  0  0  0  0  0
   48.0858    7.4558   14.9523 O   0  0  0  0  0  0  0  0  0  0  0  0
   50.6754    7.7716   13.8734 O   0  0  0  0  0  0  0  0  0  0  0  0
   48.5433    7.8228   13.7994 C   0  0  0  0  0  0  0  0  0  0  0  0
   48.7046    7.2755   15.1750 C   0  0  0  0  0  0  0  0  0  0  0  0
   47.2084    7.7785   13.1554 C   0  0  0  0  0  0  0  0  0  0  0  0
   49.6225    8.2538   13.0877 C   0  0  0  0  0  0  0  0  0  0  0  0
   52.0431    9.0744   11.4454 N   0  0  0  0  0  0  0  0  0  0  0  0
   49.3163    8.1187   16.0528 N   0  0  0  0  0  0  0  0  0  0  0  0
   48.2330    6.0070   15.5440 C   0  0  0  0  0  0  0  0  0  0  0  0
   46.6690    6.5286   12.8071 C   0  0  0  0  0  0  0  0  0  0  0  0
   51.0516    8.2243   13.6224 C   0  0  0  0  0  0  0  0  0  0  0  0
   49.5578    8.7659   11.6528 C   0  0  0  0  0  0  0  0  0  0  0  0
   47.4376    5.2729   13.1358 C   0  0  0  0  0  0  0  0  0  0  0  0
   47.5037    5.0245   14.6486 C   0  0  0  0  0  0  0  0  0  0  0  0
   50.7225    9.7206   11.3428 C   0  0  0  0  0  0  0  0  0  0  0  0
   52.0854    8.0440   12.4975 C   0  0  0  0  0  0  0  0  0  0  0  0
   46.4624    8.9443   12.9418 C   0  0  0  0  0  0  0  0  0  0  0  0
   53.0903   10.0770   11.6230 C   0  0  0  0  0  0  0  0  0  0  0  0
   49.4761    7.7022   17.3242 C   0  0  0  0  0  0  0  0  0  0  0  0
   48.4227    5.6223   16.8837 C   0  0  0  0  0  0  0  0  0  0  0  0
   45.4066    6.4673   12.2026 C   0  0  0  0  0  0  0  0  0  0  0  0
   49.0523    6.4730   17.7841 C   0  0  0  0  0  0  0  0  0  0  0  0
   45.2057    8.8729   12.3413 C   0  0  0  0  0  0  0  0  0  0  0  0
   44.6823    7.6367   11.9659 C   0  0  0  0  0  0  0  0  0  0  0  0
   49.9958    8.2647   12.7391 C   0  0  0  0  0  0  0  0  0  0  0  0
   47.6224    6.8396   13.8974 C   0  0  0  0  0  0  0  0  0  0  0  0
   48.7003    7.4372   14.6883 C   0  0  0  0  0  0  0  0  0  0  0  0
   49.7387    8.1118   14.1772 C   0  0  0  0  0  0  0  0  0  0  0  0
   47.1957    5.7098   14.0404 O   0  0  0  0  0  0  0  0  0  0  0  0
   49.5968    7.5705   11.8262 O   0  0  0  0  0  0  0  0  0  0  0  0
   50.8156    9.3091   12.5380 O   0  0  0  0  0  0  0  0  0  0  0  0
   47.0607    7.7292   13.0667 O   0  0  0  0  0  0  0  0  0  0  0  0
   48.9616    8.7756   11.3644 H   0  0  0  0  0  0  0  0  0  0  0  0
   47.4014    6.9850   11.8624 H   0  0  0  0  0  0  0  0  0  0  0  0
   47.9460    6.8723   15.7261 H   0  0  0  0  0  0  0  0  0  0  0  0
   51.3689    8.2322   14.3892 H   0  0  0  0  0  0  0  0  0  0  0  0
   51.2546    9.1613   14.1558 H   0  0  0  0  0  0  0  0  0  0  0  0
   51.1973    7.3986   14.3273 H   0  0  0  0  0  0  0  0  0  0  0  0
   49.5906    7.9110   10.9655 H   0  0  0  0  0  0  0  0  0  0  0  0
   48.6310    9.3100   11.4540 H   0  0  0  0  0  0  0  0  0  0  0  0
   48.4430    5.3208   12.6987 H   0  0  0  0  0  0  0  0  0  0  0  0
   46.9497    4.4116   12.6619 H   0  0  0  0  0  0  0  0  0  0  0  0
   47.9789    4.0436   14.7862 H   0  0  0  0  0  0  0  0  0  0  0  0
   46.4775    4.9360   15.0316 H   0  0  0  0  0  0  0  0  0  0  0  0
   50.6529   10.5812   12.0231 H   0  0  0  0  0  0  0  0  0  0  0  0
   50.6035   10.1091   10.3242 H   0  0  0  0  0  0  0  0  0  0  0  0
   53.0894    7.9618   12.9332 H   0  0  0  0  0  0  0  0  0  0  0  0
   51.9020    7.0761   12.0117 H   0  0  0  0  0  0  0  0  0  0  0  0
   46.8620    9.9096   13.2434 H   0  0  0  0  0  0  0  0  0  0  0  0
   52.9958   10.6091   12.5763 H   0  0  0  0  0  0  0  0  0  0  0  0
   54.0805    9.6096   11.5854 H   0  0  0  0  0  0  0  0  0  0  0  0
   53.0612   10.8126   10.8115 H   0  0  0  0  0  0  0  0  0  0  0  0
   49.9686    8.4097   17.9843 H   0  0  0  0  0  0  0  0  0  0  0  0
   48.0700    4.6530   17.2302 H   0  0  0  0  0  0  0  0  0  0  0  0
   44.9740    5.5099   11.9230 H   0  0  0  0  0  0  0  0  0  0  0  0
   49.2007    6.1853   18.8185 H   0  0  0  0  0  0  0  0  0  0  0  0
   44.6342    9.7812   12.1703 H   0  0  0  0  0  0  0  0  0  0  0  0
   43.7021    7.5824   11.4992 H   0  0  0  0  0  0  0  0  0  0  0  0
   48.6149    7.2805   15.7567 H   0  0  0  0  0  0  0  0  0  0  0  0
   50.4781    8.5517   14.8366 H   0  0  0  0  0  0  0  0  0  0  0  0
   50.9289    9.3302   11.5646 H   0  0  0  0  0  0  0  0  0  0  0  0
   46.3919    7.2085   12.5767 H   0  0  0  0  0  0  0  0  0  0  0  0
  2  3  1  0
  3  4  2  0
  4  1  1  0
  5  2  2  0
  6  1  2  0
  7  1  1  0
  8  2  1  0
 10  9  1  0
 11  9  1  0
 12  9  2  3
 13 21  1  0
 14 10  2  0
 15 10  1  0
 16 11  2  0
 17 12  1  0
 18 12  1  0
 19 16  1  0
 20 15  1  0
 21 18  1  0
 22 17  1  0
 23 11  1  0
 24 13  1  0
 25 14  1  0
 26 15  2  0
 27 16  1  0
 28 26  1  0
 29 23  2  0
 30 29  1  0
 22 13  1  0
 20 19  1  0
 27 30  2  0
 25 28  2  0
 32 33  1  0
 33 34  2  0
 34 31  1  0
 35 32  2  0
 36 31  2  0
 37 31  1  0
 38 32  1  0
  3 39  1  0
  4 40  1  0
  7 41  1  0
  8 42  1  0
 17 43  1  0
 17 44  1  0
 18 45  1  0
 18 46  1  0
 19 47  1  0
 19 48  1  0
 20 49  1  0
 20 50  1  0
 21 51  1  0
 21 52  1  0
 22 53  1  0
 22 54  1  0
 23 55  1  0
 24 56  1  0
 24 57  1  0
 24 58  1  0
 25 59  1  0
 26 60  1  0
 27 61  1  0
 28 62  1  0
 29 63  1  0
 30 64  1  0
 33 65  1  0
 34 66  1  0
 37 67  1  0
 38 68  1  0
M  END
> <Uni-Dock RESULT> 
ENERGY=   -4.704  LOWER_BOUND=    2.534  UPPER_BOUND=    5.663
INTER + INTRA:          -4.704
INTER:                  -4.704
INTRA:                   0.000
UNBOUND:                 0.000

$$$$
