
     RDKit          3D

 68 69  0  0  0  0  0  0  0  0999 V2000
   46.5962    6.3430   13.5613 C   0  0  0  0  0  0  0  0  0  0  0  0
   48.6996    8.0721   12.3795 C   0  0  0  0  0  0  0  0  0  0  0  0
   47.3034    8.4868   12.5496 C   0  0  0  0  0  0  0  0  0  0  0  0
   46.3425    7.6822   13.0201 C   0  0  0  0  0  0  0  0  0  0  0  0
   49.1093    6.9933   12.0022 O   0  0  0  0  0  0  0  0  0  0  0  0
   47.5470    5.9801   14.2234 O   0  0  0  0  0  0  0  0  0  0  0  0
   45.5663    5.5336   13.2707 O   0  0  0  0  0  0  0  0  0  0  0  0
   49.5157    9.1019   12.6501 O   0  0  0  0  0  0  0  0  0  0  0  0
   47.6396    7.7542   12.9587 C   0  0  0  0  0  0  0  0  0  0  0  0
   47.3252    9.0814   12.3650 C   0  0  0  0  0  0  0  0  0  0  0  0
   48.7088    7.6650   13.9811 C   0  0  0  0  0  0  0  0  0  0  0  0
   47.0416    6.6168   12.5116 C   0  0  0  0  0  0  0  0  0  0  0  0
   44.9798    4.5140   12.4498 N   0  0  0  0  0  0  0  0  0  0  0  0
   46.0134    9.4415   12.4418 N   0  0  0  0  0  0  0  0  0  0  0  0
   48.3128    9.9192   11.8269 C   0  0  0  0  0  0  0  0  0  0  0  0
   50.0381    7.8893   13.5840 C   0  0  0  0  0  0  0  0  0  0  0  0
   47.3124    5.2107   13.0287 C   0  0  0  0  0  0  0  0  0  0  0  0
   45.9934    6.5441   11.4105 C   0  0  0  0  0  0  0  0  0  0  0  0
   50.3311    8.2420   12.1463 C   0  0  0  0  0  0  0  0  0  0  0  0
   49.8010    9.6329   11.7724 C   0  0  0  0  0  0  0  0  0  0  0  0
   44.7138    5.8735   11.9353 C   0  0  0  0  0  0  0  0  0  0  0  0
   46.0060    4.5544   13.5098 C   0  0  0  0  0  0  0  0  0  0  0  0
   48.4119    7.4114   15.3259 C   0  0  0  0  0  0  0  0  0  0  0  0
   43.7480    3.9071   12.9506 C   0  0  0  0  0  0  0  0  0  0  0  0
   45.6585   10.6452   11.9509 C   0  0  0  0  0  0  0  0  0  0  0  0
   47.8889   11.1645   11.3293 C   0  0  0  0  0  0  0  0  0  0  0  0
   51.0617    7.8156   14.5370 C   0  0  0  0  0  0  0  0  0  0  0  0
   46.5501   11.5327   11.3854 C   0  0  0  0  0  0  0  0  0  0  0  0
   49.4385    7.3422   16.2673 C   0  0  0  0  0  0  0  0  0  0  0  0
   50.7611    7.5382   15.8717 C   0  0  0  0  0  0  0  0  0  0  0  0
   46.5330    6.2260   12.8707 C   0  0  0  0  0  0  0  0  0  0  0  0
   48.3679    8.6420   13.2989 C   0  0  0  0  0  0  0  0  0  0  0  0
   47.2028    8.5908   12.4115 C   0  0  0  0  0  0  0  0  0  0  0  0
   46.4239    7.5221   12.1954 C   0  0  0  0  0  0  0  0  0  0  0  0
   48.6914    9.6104   13.9612 O   0  0  0  0  0  0  0  0  0  0  0  0
   46.3195    5.1505   12.3426 O   0  0  0  0  0  0  0  0  0  0  0  0
   46.7713    6.3414   14.1853 O   0  0  0  0  0  0  0  0  0  0  0  0
   49.1343    7.5446   13.2170 O   0  0  0  0  0  0  0  0  0  0  0  0
   47.0717    9.4958   12.2304 H   0  0  0  0  0  0  0  0  0  0  0  0
   45.3125    8.0156   13.0560 H   0  0  0  0  0  0  0  0  0  0  0  0
   45.8362    4.6735   13.6558 H   0  0  0  0  0  0  0  0  0  0  0  0
   50.4111    8.7231   12.5247 H   0  0  0  0  0  0  0  0  0  0  0  0
   48.0402    5.1768   13.8429 H   0  0  0  0  0  0  0  0  0  0  0  0
   47.7467    4.6148   12.2147 H   0  0  0  0  0  0  0  0  0  0  0  0
   45.7365    7.5127   10.9772 H   0  0  0  0  0  0  0  0  0  0  0  0
   46.4024    5.9537   10.5790 H   0  0  0  0  0  0  0  0  0  0  0  0
   49.9204    7.4727   11.4804 H   0  0  0  0  0  0  0  0  0  0  0  0
   51.4158    8.2266   11.9802 H   0  0  0  0  0  0  0  0  0  0  0  0
   50.1342    9.8336   10.7450 H   0  0  0  0  0  0  0  0  0  0  0  0
   50.2959   10.3733   12.4165 H   0  0  0  0  0  0  0  0  0  0  0  0
   43.9975    5.8114   11.1070 H   0  0  0  0  0  0  0  0  0  0  0  0
   44.2606    6.5029   12.7134 H   0  0  0  0  0  0  0  0  0  0  0  0
   45.6317    5.0925   14.3914 H   0  0  0  0  0  0  0  0  0  0  0  0
   46.2373    3.5303   13.8275 H   0  0  0  0  0  0  0  0  0  0  0  0
   47.3805    7.2682   15.6389 H   0  0  0  0  0  0  0  0  0  0  0  0
   43.0008    3.8393   12.1520 H   0  0  0  0  0  0  0  0  0  0  0  0
   43.3135    4.4739   13.7822 H   0  0  0  0  0  0  0  0  0  0  0  0
   43.9358    2.8832   13.2925 H   0  0  0  0  0  0  0  0  0  0  0  0
   44.6021   10.8839   12.0299 H   0  0  0  0  0  0  0  0  0  0  0  0
   48.6109   11.8588   10.9043 H   0  0  0  0  0  0  0  0  0  0  0  0
   52.0970    7.9825   14.2499 H   0  0  0  0  0  0  0  0  0  0  0  0
   46.2153   12.4912   11.0063 H   0  0  0  0  0  0  0  0  0  0  0  0
   49.2059    7.1393   17.3092 H   0  0  0  0  0  0  0  0  0  0  0  0
   51.5599    7.4851   16.6072 H   0  0  0  0  0  0  0  0  0  0  0  0
   46.9908    9.5274   11.9086 H   0  0  0  0  0  0  0  0  0  0  0  0
   45.6279    7.5702   11.4610 H   0  0  0  0  0  0  0  0  0  0  0  0
   46.7882    5.4150   14.5021 H   0  0  0  0  0  0  0  0  0  0  0  0
   49.8751    7.7308   13.8296 H   0  0  0  0  0  0  0  0  0  0  0  0
  2  3  1  0
  3  4  2  0
  4  1  1  0
  5  2  2  0
  6  1  2  0
  7  1  1  0
  8  2  1  0
 10  9  1  0
 11  9  1  0
 12  9  2  3
 13 21  1  0
 14 10  2  0
 15 10  1  0
 16 11  2  0
 17 12  1  0
 18 12  1  0
 19 16  1  0
 20 15  1  0
 21 18  1  0
 22 17  1  0
 23 11  1  0
 24 13  1  0
 25 14  1  0
 26 15  2  0
 27 16  1  0
 28 26  1  0
 29 23  2  0
 30 29  1  0
 22 13  1  0
 20 19  1  0
 27 30  2  0
 25 28  2  0
 32 33  1  0
 33 34  2  0
 34 31  1  0
 35 32  2  0
 36 31  2  0
 37 31  1  0
 38 32  1  0
  3 39  1  0
  4 40  1  0
  7 41  1  0
  8 42  1  0
 17 43  1  0
 17 44  1  0
 18 45  1  0
 18 46  1  0
 19 47  1  0
 19 48  1  0
 20 49  1  0
 20 50  1  0
 21 51  1  0
 21 52  1  0
 22 53  1  0
 22 54  1  0
 23 55  1  0
 24 56  1  0
 24 57  1  0
 24 58  1  0
 25 59  1  0
 26 60  1  0
 27 61  1  0
 28 62  1  0
 29 63  1  0
 30 64  1  0
 33 65  1  0
 34 66  1  0
 37 67  1  0
 38 68  1  0
M  END
> <Uni-Dock RESULT> 
ENERGY=   -5.727  LOWER_BOUND=    0.000  UPPER_BOUND=    0.000
INTER + INTRA:          -5.727
INTER:                  -5.727
INTRA:                   0.000
UNBOUND:                 0.000

$$$$

     RDKit          3D

 68 69  0  0  0  0  0  0  0  0999 V2000
   48.2728    5.6066   18.6583 C   0  0  0  0  0  0  0  0  0  0  0  0
   48.4607    5.7682   21.6162 C   0  0  0  0  0  0  0  0  0  0  0  0
   49.5894    5.4261   20.7449 C   0  0  0  0  0  0  0  0  0  0  0  0
   49.4864    5.2877   19.4173 C   0  0  0  0  0  0  0  0  0  0  0  0
   47.3119    5.3869   21.5215 O   0  0  0  0  0  0  0  0  0  0  0  0
   47.4923    6.5150   18.8577 O   0  0  0  0  0  0  0  0  0  0  0  0
   48.1502    4.7622   17.6228 O   0  0  0  0  0  0  0  0  0  0  0  0
   48.8832    6.5506   22.6208 O   0  0  0  0  0  0  0  0  0  0  0  0
   48.8243    5.7825   20.4213 C   0  0  0  0  0  0  0  0  0  0  0  0
   50.0578    5.3894   21.1538 C   0  0  0  0  0  0  0  0  0  0  0  0
   48.2310    7.1146   20.6860 C   0  0  0  0  0  0  0  0  0  0  0  0
   48.1794    4.9118   19.5984 C   0  0  0  0  0  0  0  0  0  0  0  0
   47.5702    3.5874   17.0387 N   0  0  0  0  0  0  0  0  0  0  0  0
   51.0878    4.9883   20.3573 N   0  0  0  0  0  0  0  0  0  0  0  0
   50.1688    5.4854   22.5486 C   0  0  0  0  0  0  0  0  0  0  0  0
   47.6537    7.3547   21.9446 C   0  0  0  0  0  0  0  0  0  0  0  0
   46.8990    5.2031   18.8279 C   0  0  0  0  0  0  0  0  0  0  0  0
   48.6211    3.4861   19.3002 C   0  0  0  0  0  0  0  0  0  0  0  0
   47.6828    6.2677   22.9910 C   0  0  0  0  0  0  0  0  0  0  0  0
   49.1040    5.9938   23.5012 C   0  0  0  0  0  0  0  0  0  0  0  0
   48.8095    3.2912   17.7873 C   0  0  0  0  0  0  0  0  0  0  0  0
   47.1111    4.9611   17.3228 C   0  0  0  0  0  0  0  0  0  0  0  0
   48.2799    8.1370   19.7303 C   0  0  0  0  0  0  0  0  0  0  0  0
   47.7834    3.4035   15.6044 C   0  0  0  0  0  0  0  0  0  0  0  0
   52.2486    4.6453   20.9496 C   0  0  0  0  0  0  0  0  0  0  0  0
   51.4018    5.1163   23.1158 C   0  0  0  0  0  0  0  0  0  0  0  0
   47.0937    8.6093   22.2157 C   0  0  0  0  0  0  0  0  0  0  0  0
   52.4520    4.6872   22.3132 C   0  0  0  0  0  0  0  0  0  0  0  0
   47.7211    9.3835   20.0111 C   0  0  0  0  0  0  0  0  0  0  0  0
   47.1241    9.6165   21.2495 C   0  0  0  0  0  0  0  0  0  0  0  0
   48.1618    4.9434   18.8642 C   0  0  0  0  0  0  0  0  0  0  0  0
   49.1823    6.5622   21.2569 C   0  0  0  0  0  0  0  0  0  0  0  0
   49.7216    5.2825   20.7886 C   0  0  0  0  0  0  0  0  0  0  0  0
   49.2502    4.5562   19.7661 C   0  0  0  0  0  0  0  0  0  0  0  0
   49.8540    7.4773   21.6958 O   0  0  0  0  0  0  0  0  0  0  0  0
   47.3498    4.1716   18.3885 O   0  0  0  0  0  0  0  0  0  0  0  0
   48.2187    6.2332   18.5018 O   0  0  0  0  0  0  0  0  0  0  0  0
   47.8417    6.5869   21.2770 O   0  0  0  0  0  0  0  0  0  0  0  0
   50.5325    5.2477   21.2471 H   0  0  0  0  0  0  0  0  0  0  0  0
   50.3355    4.9610   18.8293 H   0  0  0  0  0  0  0  0  0  0  0  0
   47.3141    5.0446   17.1958 H   0  0  0  0  0  0  0  0  0  0  0  0
   48.0646    6.7330   23.1283 H   0  0  0  0  0  0  0  0  0  0  0  0
   46.5259    6.2203   18.9684 H   0  0  0  0  0  0  0  0  0  0  0  0
   46.1066    4.5399   19.2001 H   0  0  0  0  0  0  0  0  0  0  0  0
   49.5365    3.1880   19.8150 H   0  0  0  0  0  0  0  0  0  0  0  0
   47.8460    2.7981   19.6650 H   0  0  0  0  0  0  0  0  0  0  0  0
   47.2242    5.3532   22.5945 H   0  0  0  0  0  0  0  0  0  0  0  0
   47.0581    6.5646   23.8432 H   0  0  0  0  0  0  0  0  0  0  0  0
   49.0136    5.2580   24.3119 H   0  0  0  0  0  0  0  0  0  0  0  0
   49.4904    6.9180   23.9535 H   0  0  0  0  0  0  0  0  0  0  0  0
   49.0956    2.2470   17.6114 H   0  0  0  0  0  0  0  0  0  0  0  0
   49.6376    3.9213   17.4351 H   0  0  0  0  0  0  0  0  0  0  0  0
   47.8271    5.6975   16.9331 H   0  0  0  0  0  0  0  0  0  0  0  0
   46.1555    5.1349   16.8129 H   0  0  0  0  0  0  0  0  0  0  0  0
   48.7538    7.9613   18.7676 H   0  0  0  0  0  0  0  0  0  0  0  0
   48.0840    2.3720   15.3898 H   0  0  0  0  0  0  0  0  0  0  0  0
   48.5531    4.0764   15.2089 H   0  0  0  0  0  0  0  0  0  0  0  0
   46.8538    3.5810   15.0523 H   0  0  0  0  0  0  0  0  0  0  0  0
   53.0367    4.3273   20.2737 H   0  0  0  0  0  0  0  0  0  0  0  0
   51.5486    5.1747   24.1923 H   0  0  0  0  0  0  0  0  0  0  0  0
   46.6392    8.8144   23.1818 H   0  0  0  0  0  0  0  0  0  0  0  0
   53.4060    4.4031   22.7418 H   0  0  0  0  0  0  0  0  0  0  0  0
   47.7551   10.1733   19.2656 H   0  0  0  0  0  0  0  0  0  0  0  0
   46.6902   10.5892   21.4671 H   0  0  0  0  0  0  0  0  0  0  0  0
   50.5808    4.9346   21.3507 H   0  0  0  0  0  0  0  0  0  0  0  0
   49.6786    3.5846   19.5474 H   0  0  0  0  0  0  0  0  0  0  0  0
   47.4628    6.3372   17.8881 H   0  0  0  0  0  0  0  0  0  0  0  0
   47.6297    7.4742   21.6329 H   0  0  0  0  0  0  0  0  0  0  0  0
  2  3  1  0
  3  4  2  0
  4  1  1  0
  5  2  2  0
  6  1  2  0
  7  1  1  0
  8  2  1  0
 10  9  1  0
 11  9  1  0
 12  9  2  3
 13 21  1  0
 14 10  2  0
 15 10  1  0
 16 11  2  0
 17 12  1  0
 18 12  1  0
 19 16  1  0
 20 15  1  0
 21 18  1  0
 22 17  1  0
 23 11  1  0
 24 13  1  0
 25 14  1  0
 26 15  2  0
 27 16  1  0
 28 26  1  0
 29 23  2  0
 30 29  1  0
 22 13  1  0
 20 19  1  0
 27 30  2  0
 25 28  2  0
 32 33  1  0
 33 34  2  0
 34 31  1  0
 35 32  2  0
 36 31  2  0
 37 31  1  0
 38 32  1  0
  3 39  1  0
  4 40  1  0
  7 41  1  0
  8 42  1  0
 17 43  1  0
 17 44  1  0
 18 45  1  0
 18 46  1  0
 19 47  1  0
 19 48  1  0
 20 49  1  0
 20 50  1  0
 21 51  1  0
 21 52  1  0
 22 53  1  0
 22 54  1  0
 23 55  1  0
 24 56  1  0
 24 57  1  0
 24 58  1  0
 25 59  1  0
 26 60  1  0
 27 61  1  0
 28 62  1  0
 29 63  1  0
 30 64  1  0
 33 65  1  0
 34 66  1  0
 37 67  1  0
 38 68  1  0
M  END
> <Uni-Dock RESULT> 
ENERGY=   -5.605  LOWER_BOUND=    5.673  UPPER_BOUND=    8.558
INTER + INTRA:          -5.605
INTER:                  -5.605
INTRA:                   0.000
UNBOUND:                 0.000

$$$$

     RDKit          3D

 68 69  0  0  0  0  0  0  0  0999 V2000
   47.2437    9.4311   11.8703 C   0  0  0  0  0  0  0  0  0  0  0  0
   47.9495    7.6293   14.1210 C   0  0  0  0  0  0  0  0  0  0  0  0
   47.1165    7.2257   12.9837 C   0  0  0  0  0  0  0  0  0  0  0  0
   46.7438    8.0590   12.0044 C   0  0  0  0  0  0  0  0  0  0  0  0
   47.9142    8.6812   14.7264 O   0  0  0  0  0  0  0  0  0  0  0  0
   48.3631    9.8376   12.1068 O   0  0  0  0  0  0  0  0  0  0  0  0
   46.2787   10.2190   11.3718 O   0  0  0  0  0  0  0  0  0  0  0  0
   48.7615    6.6202   14.4702 O   0  0  0  0  0  0  0  0  0  0  0  0
   47.6085    7.9840   12.9730 C   0  0  0  0  0  0  0  0  0  0  0  0
   47.0281    6.6203   13.1007 C   0  0  0  0  0  0  0  0  0  0  0  0
   49.0811    8.1411   13.0309 C   0  0  0  0  0  0  0  0  0  0  0  0
   46.8174    9.0890   12.9078 C   0  0  0  0  0  0  0  0  0  0  0  0
   45.2341   11.1819   11.5699 N   0  0  0  0  0  0  0  0  0  0  0  0
   46.1848    6.2652   12.0913 N   0  0  0  0  0  0  0  0  0  0  0  0
   47.3727    5.7496   14.1447 C   0  0  0  0  0  0  0  0  0  0  0  0
   49.7356    7.8920   14.2493 C   0  0  0  0  0  0  0  0  0  0  0  0
   47.3089   10.5264   12.8057 C   0  0  0  0  0  0  0  0  0  0  0  0
   45.2955    9.0883   12.9271 C   0  0  0  0  0  0  0  0  0  0  0  0
   48.9294    7.4454   15.4443 C   0  0  0  0  0  0  0  0  0  0  0  0
   48.3586    6.0326   15.2616 C   0  0  0  0  0  0  0  0  0  0  0  0
   44.7457    9.7912   11.6756 C   0  0  0  0  0  0  0  0  0  0  0  0
   46.7098   11.2121   11.5649 C   0  0  0  0  0  0  0  0  0  0  0  0
   49.8229    8.4827   11.8933 C   0  0  0  0  0  0  0  0  0  0  0  0
   44.7034   11.8197   10.3665 C   0  0  0  0  0  0  0  0  0  0  0  0
   45.6436    5.0315   12.1241 C   0  0  0  0  0  0  0  0  0  0  0  0
   46.7807    4.4738   14.1308 C   0  0  0  0  0  0  0  0  0  0  0  0
   51.1275    8.0291   14.3222 C   0  0  0  0  0  0  0  0  0  0  0  0
   45.9040    4.1093   13.1161 C   0  0  0  0  0  0  0  0  0  0  0  0
   51.2087    8.6145   11.9763 C   0  0  0  0  0  0  0  0  0  0  0  0
   51.8583    8.3937   13.1901 C   0  0  0  0  0  0  0  0  0  0  0  0
   46.7005    9.5023   12.3113 C   0  0  0  0  0  0  0  0  0  0  0  0
   48.4022    7.1211   13.2173 C   0  0  0  0  0  0  0  0  0  0  0  0
   46.9525    7.1128   13.0030 C   0  0  0  0  0  0  0  0  0  0  0  0
   46.2036    8.1645   12.6443 C   0  0  0  0  0  0  0  0  0  0  0  0
   49.1475    6.1986   12.9437 O   0  0  0  0  0  0  0  0  0  0  0  0
   46.1228   10.5405   12.5751 O   0  0  0  0  0  0  0  0  0  0  0  0
   47.8118    9.4740   11.5613 O   0  0  0  0  0  0  0  0  0  0  0  0
   48.8261    8.2112   13.8732 O   0  0  0  0  0  0  0  0  0  0  0  0
   46.7747    6.1978   12.9940 H   0  0  0  0  0  0  0  0  0  0  0  0
   46.0665    7.7281   11.2265 H   0  0  0  0  0  0  0  0  0  0  0  0
   46.7013   11.1028   11.3362 H   0  0  0  0  0  0  0  0  0  0  0  0
   49.2786    6.9904   15.2161 H   0  0  0  0  0  0  0  0  0  0  0  0
   48.3970   10.6143   12.7616 H   0  0  0  0  0  0  0  0  0  0  0  0
   47.0018   11.0676   13.7108 H   0  0  0  0  0  0  0  0  0  0  0  0
   44.8529    8.0930   13.0007 H   0  0  0  0  0  0  0  0  0  0  0  0
   44.9585    9.6228   13.8259 H   0  0  0  0  0  0  0  0  0  0  0  0
   48.1302    8.1689   15.6489 H   0  0  0  0  0  0  0  0  0  0  0  0
   49.5670    7.4506   16.3376 H   0  0  0  0  0  0  0  0  0  0  0  0
   47.8665    5.7648   16.2065 H   0  0  0  0  0  0  0  0  0  0  0  0
   49.1996    5.3366   15.1338 H   0  0  0  0  0  0  0  0  0  0  0  0
   43.6509    9.7981   11.7423 H   0  0  0  0  0  0  0  0  0  0  0  0
   45.0155    9.2141   10.7806 H   0  0  0  0  0  0  0  0  0  0  0  0
   47.1042   10.7331   10.6584 H   0  0  0  0  0  0  0  0  0  0  0  0
   47.0494   12.2551   11.5560 H   0  0  0  0  0  0  0  0  0  0  0  0
   49.3200    8.6455   10.9432 H   0  0  0  0  0  0  0  0  0  0  0  0
   43.6081   11.8341   10.3905 H   0  0  0  0  0  0  0  0  0  0  0  0
   45.0216   11.3086    9.4504 H   0  0  0  0  0  0  0  0  0  0  0  0
   45.0301   12.8640   10.3096 H   0  0  0  0  0  0  0  0  0  0  0  0
   44.9743    4.7978   11.3016 H   0  0  0  0  0  0  0  0  0  0  0  0
   47.0139    3.7535   14.9123 H   0  0  0  0  0  0  0  0  0  0  0  0
   51.6527    7.8443   15.2561 H   0  0  0  0  0  0  0  0  0  0  0  0
   45.4452    3.1276   13.0966 H   0  0  0  0  0  0  0  0  0  0  0  0
   51.7813    8.8855   11.0934 H   0  0  0  0  0  0  0  0  0  0  0  0
   52.9388    8.4957   13.2525 H   0  0  0  0  0  0  0  0  0  0  0  0
   46.4898    6.1450   13.1587 H   0  0  0  0  0  0  0  0  0  0  0  0
   45.1255    8.0675   12.5834 H   0  0  0  0  0  0  0  0  0  0  0  0
   48.0058   10.4193   11.3950 H   0  0  0  0  0  0  0  0  0  0  0  0
   49.7898    8.0663   13.9688 H   0  0  0  0  0  0  0  0  0  0  0  0
  2  3  1  0
  3  4  2  0
  4  1  1  0
  5  2  2  0
  6  1  2  0
  7  1  1  0
  8  2  1  0
 10  9  1  0
 11  9  1  0
 12  9  2  3
 13 21  1  0
 14 10  2  0
 15 10  1  0
 16 11  2  0
 17 12  1  0
 18 12  1  0
 19 16  1  0
 20 15  1  0
 21 18  1  0
 22 17  1  0
 23 11  1  0
 24 13  1  0
 25 14  1  0
 26 15  2  0
 27 16  1  0
 28 26  1  0
 29 23  2  0
 30 29  1  0
 22 13  1  0
 20 19  1  0
 27 30  2  0
 25 28  2  0
 32 33  1  0
 33 34  2  0
 34 31  1  0
 35 32  2  0
 36 31  2  0
 37 31  1  0
 38 32  1  0
  3 39  1  0
  4 40  1  0
  7 41  1  0
  8 42  1  0
 17 43  1  0
 17 44  1  0
 18 45  1  0
 18 46  1  0
 19 47  1  0
 19 48  1  0
 20 49  1  0
 20 50  1  0
 21 51  1  0
 21 52  1  0
 22 53  1  0
 22 54  1  0
 23 55  1  0
 24 56  1  0
 24 57  1  0
 24 58  1  0
 25 59  1  0
 26 60  1  0
 27 61  1  0
 28 62  1  0
 29 63  1  0
 30 64  1  0
 33 65  1  0
 34 66  1  0
 37 67  1  0
 38 68  1  0
M  END
> <Uni-Dock RESULT> 
ENERGY=   -5.493  LOWER_BOUND=    1.386  UPPER_BOUND=    4.176
INTER + INTRA:          -5.493
INTER:                  -5.493
INTRA:                   0.000
UNBOUND:                 0.000

$$$$

     RDKit          3D

 68 69  0  0  0  0  0  0  0  0999 V2000
   55.2169    5.2335   11.6174 C   0  0  0  0  0  0  0  0  0  0  0  0
   56.7245    4.6294    9.1328 C   0  0  0  0  0  0  0  0  0  0  0  0
   56.2031    3.6024   10.0404 C   0  0  0  0  0  0  0  0  0  0  0  0
   55.5827    3.8779   11.1943 C   0  0  0  0  0  0  0  0  0  0  0  0
   57.2663    5.6739    9.4320 O   0  0  0  0  0  0  0  0  0  0  0  0
   54.8238    6.1460   10.9195 O   0  0  0  0  0  0  0  0  0  0  0  0
   55.3187    5.3356   12.9514 O   0  0  0  0  0  0  0  0  0  0  0  0
   56.5757    4.2296    7.8609 O   0  0  0  0  0  0  0  0  0  0  0  0
   55.9393    4.4656   10.0904 C   0  0  0  0  0  0  0  0  0  0  0  0
   56.3428    3.0793    9.7325 C   0  0  0  0  0  0  0  0  0  0  0  0
   55.2041    5.2756    9.0904 C   0  0  0  0  0  0  0  0  0  0  0  0
   56.3181    5.0338   11.2672 C   0  0  0  0  0  0  0  0  0  0  0  0
   56.0539    5.7408   14.1145 N   0  0  0  0  0  0  0  0  0  0  0  0
   55.9355    2.1238   10.6142 N   0  0  0  0  0  0  0  0  0  0  0  0
   57.0325    2.7770    8.5494 C   0  0  0  0  0  0  0  0  0  0  0  0
   55.8824    5.6889    7.9311 C   0  0  0  0  0  0  0  0  0  0  0  0
   55.9846    6.4500   11.7157 C   0  0  0  0  0  0  0  0  0  0  0  0
   57.1467    4.3559   12.3491 C   0  0  0  0  0  0  0  0  0  0  0  0
   57.3185    5.2728    7.7264 C   0  0  0  0  0  0  0  0  0  0  0  0
   57.4537    3.7643    7.4782 C   0  0  0  0  0  0  0  0  0  0  0  0
   56.3893    4.3667   13.6866 C   0  0  0  0  0  0  0  0  0  0  0  0
   55.2624    6.4269   13.0747 C   0  0  0  0  0  0  0  0  0  0  0  0
   53.8498    5.5891    9.2600 C   0  0  0  0  0  0  0  0  0  0  0  0
   55.3262    5.7179   15.3820 C   0  0  0  0  0  0  0  0  0  0  0  0
   56.2391    0.8398   10.3399 C   0  0  0  0  0  0  0  0  0  0  0  0
   57.3233    1.4217    8.3109 C   0  0  0  0  0  0  0  0  0  0  0  0
   55.2027    6.4497    6.9717 C   0  0  0  0  0  0  0  0  0  0  0  0
   56.9292    0.4418    9.2140 C   0  0  0  0  0  0  0  0  0  0  0  0
   53.1817    6.3454    8.2975 C   0  0  0  0  0  0  0  0  0  0  0  0
   53.8591    6.7794    7.1587 C   0  0  0  0  0  0  0  0  0  0  0  0
   55.8804    5.1707   11.8417 C   0  0  0  0  0  0  0  0  0  0  0  0
   55.7133    4.1535    8.9564 C   0  0  0  0  0  0  0  0  0  0  0  0
   56.3058    3.4380   10.0899 C   0  0  0  0  0  0  0  0  0  0  0  0
   56.4132    3.8996   11.3432 C   0  0  0  0  0  0  0  0  0  0  0  0
   55.0744    3.6280    8.0638 O   0  0  0  0  0  0  0  0  0  0  0  0
   56.4228    5.8672   12.6794 O   0  0  0  0  0  0  0  0  0  0  0  0
   54.6528    5.4406   11.3744 O   0  0  0  0  0  0  0  0  0  0  0  0
   56.0532    5.4503    8.9233 O   0  0  0  0  0  0  0  0  0  0  0  0
   56.3833    2.5769    9.7414 H   0  0  0  0  0  0  0  0  0  0  0  0
   55.2829    3.0805   11.8634 H   0  0  0  0  0  0  0  0  0  0  0  0
   55.0724    6.2678   13.1284 H   0  0  0  0  0  0  0  0  0  0  0  0
   56.9343    4.9799    7.3419 H   0  0  0  0  0  0  0  0  0  0  0  0
   55.3675    7.0008   11.0020 H   0  0  0  0  0  0  0  0  0  0  0  0
   56.9196    7.0195   11.8044 H   0  0  0  0  0  0  0  0  0  0  0  0
   57.4347    3.3302   12.1105 H   0  0  0  0  0  0  0  0  0  0  0  0
   58.0922    4.9046   12.4585 H   0  0  0  0  0  0  0  0  0  0  0  0
   57.9256    5.5861    8.5849 H   0  0  0  0  0  0  0  0  0  0  0  0
   57.7336    5.8065    6.8619 H   0  0  0  0  0  0  0  0  0  0  0  0
   58.5126    3.5731    7.2568 H   0  0  0  0  0  0  0  0  0  0  0  0
   56.8895    3.5142    6.5688 H   0  0  0  0  0  0  0  0  0  0  0  0
   57.0300    3.8998   14.4445 H   0  0  0  0  0  0  0  0  0  0  0  0
   55.4823    3.7527   13.6012 H   0  0  0  0  0  0  0  0  0  0  0  0
   54.2802    5.9491   12.9567 H   0  0  0  0  0  0  0  0  0  0  0  0
   55.0846    7.4647   13.3825 H   0  0  0  0  0  0  0  0  0  0  0  0
   53.3165    5.2433   10.1421 H   0  0  0  0  0  0  0  0  0  0  0  0
   55.9313    5.2455   16.1639 H   0  0  0  0  0  0  0  0  0  0  0  0
   54.3764    5.1759   15.3063 H   0  0  0  0  0  0  0  0  0  0  0  0
   55.1148    6.7379   15.7218 H   0  0  0  0  0  0  0  0  0  0  0  0
   55.8983    0.1167   11.0747 H   0  0  0  0  0  0  0  0  0  0  0  0
   57.8520    1.1260    7.4070 H   0  0  0  0  0  0  0  0  0  0  0  0
   55.7101    6.7823    6.0695 H   0  0  0  0  0  0  0  0  0  0  0  0
   57.1473   -0.6050    9.0368 H   0  0  0  0  0  0  0  0  0  0  0  0
   52.1324    6.5923    8.4344 H   0  0  0  0  0  0  0  0  0  0  0  0
   53.3363    7.3678    6.4089 H   0  0  0  0  0  0  0  0  0  0  0  0
   56.6741    2.4490    9.8424 H   0  0  0  0  0  0  0  0  0  0  0  0
   56.9360    3.3170   12.0932 H   0  0  0  0  0  0  0  0  0  0  0  0
   54.4186    6.2870   11.8075 H   0  0  0  0  0  0  0  0  0  0  0  0
   55.6181    5.7852    8.1125 H   0  0  0  0  0  0  0  0  0  0  0  0
  2  3  1  0
  3  4  2  0
  4  1  1  0
  5  2  2  0
  6  1  2  0
  7  1  1  0
  8  2  1  0
 10  9  1  0
 11  9  1  0
 12  9  2  3
 13 21  1  0
 14 10  2  0
 15 10  1  0
 16 11  2  0
 17 12  1  0
 18 12  1  0
 19 16  1  0
 20 15  1  0
 21 18  1  0
 22 17  1  0
 23 11  1  0
 24 13  1  0
 25 14  1  0
 26 15  2  0
 27 16  1  0
 28 26  1  0
 29 23  2  0
 30 29  1  0
 22 13  1  0
 20 19  1  0
 27 30  2  0
 25 28  2  0
 32 33  1  0
 33 34  2  0
 34 31  1  0
 35 32  2  0
 36 31  2  0
 37 31  1  0
 38 32  1  0
  3 39  1  0
  4 40  1  0
  7 41  1  0
  8 42  1  0
 17 43  1  0
 17 44  1  0
 18 45  1  0
 18 46  1  0
 19 47  1  0
 19 48  1  0
 20 49  1  0
 20 50  1  0
 21 51  1  0
 21 52  1  0
 22 53  1  0
 22 54  1  0
 23 55  1  0
 24 56  1  0
 24 57  1  0
 24 58  1  0
 25 59  1  0
 26 60  1  0
 27 61  1  0
 28 62  1  0
 29 63  1  0
 30 64  1  0
 33 65  1  0
 34 66  1  0
 37 67  1  0
 38 68  1  0
M  END
> <Uni-Dock RESULT> 
ENERGY=   -5.070  LOWER_BOUND=    7.773  UPPER_BOUND=   10.339
INTER + INTRA:          -5.070
INTER:                  -5.070
INTRA:                   0.000
UNBOUND:                 0.000

$$$$

     RDKit          3D

 68 69  0  0  0  0  0  0  0  0999 V2000
   51.7216    6.7871   18.5002 C   0  0  0  0  0  0  0  0  0  0  0  0
   49.8863    4.7556   17.3535 C   0  0  0  0  0  0  0  0  0  0  0  0
   51.2058    4.4407   17.9104 C   0  0  0  0  0  0  0  0  0  0  0  0
   52.0592    5.3665   18.3651 C   0  0  0  0  0  0  0  0  0  0  0  0
   49.5874    5.6979   16.6487 O   0  0  0  0  0  0  0  0  0  0  0  0
   50.6585    7.2664   18.8382 O   0  0  0  0  0  0  0  0  0  0  0  0
   52.8051    7.5371   18.2476 O   0  0  0  0  0  0  0  0  0  0  0  0
   49.0117    3.7942   17.6857 O   0  0  0  0  0  0  0  0  0  0  0  0
   50.8041    5.2384   18.0496 C   0  0  0  0  0  0  0  0  0  0  0  0
   51.2126    3.8189   17.8746 C   0  0  0  0  0  0  0  0  0  0  0  0
   49.5431    5.5347   18.7698 C   0  0  0  0  0  0  0  0  0  0  0  0
   51.5055    6.2546   17.4780 C   0  0  0  0  0  0  0  0  0  0  0  0
   53.5728    8.3489   17.3480 N   0  0  0  0  0  0  0  0  0  0  0  0
   52.4705    3.5318   18.3122 N   0  0  0  0  0  0  0  0  0  0  0  0
   50.3468    2.8439   17.3583 C   0  0  0  0  0  0  0  0  0  0  0  0
   48.3252    5.1772   18.1665 C   0  0  0  0  0  0  0  0  0  0  0  0
   51.1574    7.7339   17.5707 C   0  0  0  0  0  0  0  0  0  0  0  0
   52.7659    6.0959   16.6397 C   0  0  0  0  0  0  0  0  0  0  0  0
   48.3393    4.4802   16.8281 C   0  0  0  0  0  0  0  0  0  0  0  0
   48.9103    3.0587   16.9224 C   0  0  0  0  0  0  0  0  0  0  0  0
   53.9164    6.9153   17.2457 C   0  0  0  0  0  0  0  0  0  0  0  0
   52.3433    8.5298   18.1443 C   0  0  0  0  0  0  0  0  0  0  0  0
   49.5508    6.1135   20.0449 C   0  0  0  0  0  0  0  0  0  0  0  0
   54.6807    9.0991   17.9365 C   0  0  0  0  0  0  0  0  0  0  0  0
   52.8990    2.2580   18.2133 C   0  0  0  0  0  0  0  0  0  0  0  0
   50.8432    1.5304   17.2778 C   0  0  0  0  0  0  0  0  0  0  0  0
   47.1233    5.4433   18.8343 C   0  0  0  0  0  0  0  0  0  0  0  0
   52.1318    1.2314   17.7033 C   0  0  0  0  0  0  0  0  0  0  0  0
   48.3484    6.3723   20.7022 C   0  0  0  0  0  0  0  0  0  0  0  0
   47.1373    6.0429   20.0949 C   0  0  0  0  0  0  0  0  0  0  0  0
   51.9330    6.7370   17.8314 C   0  0  0  0  0  0  0  0  0  0  0  0
   50.0031    4.4345   18.4320 C   0  0  0  0  0  0  0  0  0  0  0  0
   51.3316    4.3101   17.8260 C   0  0  0  0  0  0  0  0  0  0  0  0
   52.1590    5.3211   17.5281 C   0  0  0  0  0  0  0  0  0  0  0  0
   49.5271    3.6431   19.2247 O   0  0  0  0  0  0  0  0  0  0  0  0
   52.2749    7.6608   17.1166 O   0  0  0  0  0  0  0  0  0  0  0  0
   51.4174    6.9326   19.0537 O   0  0  0  0  0  0  0  0  0  0  0  0
   49.2930    5.4538   17.9270 O   0  0  0  0  0  0  0  0  0  0  0  0
   51.4810    3.3930   17.9010 H   0  0  0  0  0  0  0  0  0  0  0  0
   53.0513    5.0861   18.6977 H   0  0  0  0  0  0  0  0  0  0  0  0
   52.4757    8.4550   18.3473 H   0  0  0  0  0  0  0  0  0  0  0  0
   48.1711    4.1016   17.2858 H   0  0  0  0  0  0  0  0  0  0  0  0
   50.2734    7.9378   18.1793 H   0  0  0  0  0  0  0  0  0  0  0  0
   50.9185    8.1021   16.5639 H   0  0  0  0  0  0  0  0  0  0  0  0
   53.0907    5.0607   16.5179 H   0  0  0  0  0  0  0  0  0  0  0  0
   52.5552    6.4554   15.6231 H   0  0  0  0  0  0  0  0  0  0  0  0
   48.8974    5.0805   16.0986 H   0  0  0  0  0  0  0  0  0  0  0  0
   47.3156    4.4190   16.4374 H   0  0  0  0  0  0  0  0  0  0  0  0
   48.8003    2.6062   15.9274 H   0  0  0  0  0  0  0  0  0  0  0  0
   48.2752    2.4785   17.6065 H   0  0  0  0  0  0  0  0  0  0  0  0
   54.7941    6.8007   16.5979 H   0  0  0  0  0  0  0  0  0  0  0  0
   54.1808    6.5066   18.2306 H   0  0  0  0  0  0  0  0  0  0  0  0
   52.5104    8.2320   19.1885 H   0  0  0  0  0  0  0  0  0  0  0  0
   52.0692    9.5919   18.1487 H   0  0  0  0  0  0  0  0  0  0  0  0
   50.4941    6.3620   20.5252 H   0  0  0  0  0  0  0  0  0  0  0  0
   55.5823    8.9981   17.3221 H   0  0  0  0  0  0  0  0  0  0  0  0
   54.9166    8.7633   18.9530 H   0  0  0  0  0  0  0  0  0  0  0  0
   54.4438   10.1683   17.9732 H   0  0  0  0  0  0  0  0  0  0  0  0
   53.9093    2.0807   18.5695 H   0  0  0  0  0  0  0  0  0  0  0  0
   50.2154    0.7306   16.8902 H   0  0  0  0  0  0  0  0  0  0  0  0
   46.1703    5.1778   18.3835 H   0  0  0  0  0  0  0  0  0  0  0  0
   52.5214    0.2217   17.6469 H   0  0  0  0  0  0  0  0  0  0  0  0
   48.3570    6.8270   21.6891 H   0  0  0  0  0  0  0  0  0  0  0  0
   46.2010    6.2442   20.6094 H   0  0  0  0  0  0  0  0  0  0  0  0
   51.6281    3.2878   17.6210 H   0  0  0  0  0  0  0  0  0  0  0  0
   53.0924    5.1247   17.0129 H   0  0  0  0  0  0  0  0  0  0  0  0
   51.3509    7.9069   19.1263 H   0  0  0  0  0  0  0  0  0  0  0  0
   48.4350    5.3955   18.3953 H   0  0  0  0  0  0  0  0  0  0  0  0
  2  3  1  0
  3  4  2  0
  4  1  1  0
  5  2  2  0
  6  1  2  0
  7  1  1  0
  8  2  1  0
 10  9  1  0
 11  9  1  0
 12  9  2  3
 13 21  1  0
 14 10  2  0
 15 10  1  0
 16 11  2  0
 17 12  1  0
 18 12  1  0
 19 16  1  0
 20 15  1  0
 21 18  1  0
 22 17  1  0
 23 11  1  0
 24 13  1  0
 25 14  1  0
 26 15  2  0
 27 16  1  0
 28 26  1  0
 29 23  2  0
 30 29  1  0
 22 13  1  0
 20 19  1  0
 27 30  2  0
 25 28  2  0
 32 33  1  0
 33 34  2  0
 34 31  1  0
 35 32  2  0
 36 31  2  0
 37 31  1  0
 38 32  1  0
  3 39  1  0
  4 40  1  0
  7 41  1  0
  8 42  1  0
 17 43  1  0
 17 44  1  0
 18 45  1  0
 18 46  1  0
 19 47  1  0
 19 48  1  0
 20 49  1  0
 20 50  1  0
 21 51  1  0
 21 52  1  0
 22 53  1  0
 22 54  1  0
 23 55  1  0
 24 56  1  0
 24 57  1  0
 24 58  1  0
 25 59  1  0
 26 60  1  0
 27 61  1  0
 28 62  1  0
 29 63  1  0
 30 64  1  0
 33 65  1  0
 34 66  1  0
 37 67  1  0
 38 68  1  0
M  END
> <Uni-Dock RESULT> 
ENERGY=   -4.956  LOWER_BOUND=    5.628  UPPER_BOUND=    8.193
INTER + INTRA:          -4.956
INTER:                  -4.956
INTRA:                   0.000
UNBOUND:                 0.000

$$$$

     RDKit          3D

 68 69  0  0  0  0  0  0  0  0999 V2000
   49.1482    7.3261   16.3888 C   0  0  0  0  0  0  0  0  0  0  0  0
   49.1208    6.3648   19.1969 C   0  0  0  0  0  0  0  0  0  0  0  0
   48.4414    7.5833   18.7455 C   0  0  0  0  0  0  0  0  0  0  0  0
   48.5112    8.0509   17.4930 C   0  0  0  0  0  0  0  0  0  0  0  0
   50.2227    5.9702   18.8741 O   0  0  0  0  0  0  0  0  0  0  0  0
   49.1430    6.1285   16.1888 O   0  0  0  0  0  0  0  0  0  0  0  0
   49.7221    8.1974   15.5451 O   0  0  0  0  0  0  0  0  0  0  0  0
   48.3623    5.7312   20.1041 O   0  0  0  0  0  0  0  0  0  0  0  0
   48.7515    6.9637   18.1649 C   0  0  0  0  0  0  0  0  0  0  0  0
   48.1469    7.7630   19.2641 C   0  0  0  0  0  0  0  0  0  0  0  0
   48.3310    5.5529   17.9936 C   0  0  0  0  0  0  0  0  0  0  0  0
   49.7479    7.4666   17.3867 C   0  0  0  0  0  0  0  0  0  0  0  0
   50.8892    8.8823   15.0693 N   0  0  0  0  0  0  0  0  0  0  0  0
   47.5856    8.9397   18.8682 N   0  0  0  0  0  0  0  0  0  0  0  0
   48.1042    7.3091   20.5904 C   0  0  0  0  0  0  0  0  0  0  0  0
   48.6958    4.6191   18.9784 C   0  0  0  0  0  0  0  0  0  0  0  0
   50.4521    6.7246   16.2590 C   0  0  0  0  0  0  0  0  0  0  0  0
   50.3410    8.8634   17.5041 C   0  0  0  0  0  0  0  0  0  0  0  0
   49.4720    5.0832   20.1865 C   0  0  0  0  0  0  0  0  0  0  0  0
   48.6318    5.9829   21.1030 C   0  0  0  0  0  0  0  0  0  0  0  0
   50.2173    9.6098   16.1661 C   0  0  0  0  0  0  0  0  0  0  0  0
   50.3426    7.5170   14.9441 C   0  0  0  0  0  0  0  0  0  0  0  0
   47.5463    5.1535   16.9046 C   0  0  0  0  0  0  0  0  0  0  0  0
   50.7456    9.6103   13.8100 C   0  0  0  0  0  0  0  0  0  0  0  0
   46.9916    9.7038   19.8059 C   0  0  0  0  0  0  0  0  0  0  0  0
   47.4717    8.1442   21.5288 C   0  0  0  0  0  0  0  0  0  0  0  0
   48.3023    3.2824   18.8372 C   0  0  0  0  0  0  0  0  0  0  0  0
   46.9135    9.3554   21.1382 C   0  0  0  0  0  0  0  0  0  0  0  0
   47.1580    3.8204   16.7747 C   0  0  0  0  0  0  0  0  0  0  0  0
   47.5406    2.8862   17.7365 C   0  0  0  0  0  0  0  0  0  0  0  0
   49.6856    7.6710   16.6834 C   0  0  0  0  0  0  0  0  0  0  0  0
   48.0303    6.3476   18.8959 C   0  0  0  0  0  0  0  0  0  0  0  0
   48.4412    7.7536   18.8504 C   0  0  0  0  0  0  0  0  0  0  0  0
   49.1978    8.3225   17.9021 C   0  0  0  0  0  0  0  0  0  0  0  0
   46.9560    5.9536   19.3104 O   0  0  0  0  0  0  0  0  0  0  0  0
   50.7668    7.8878   16.1683 O   0  0  0  0  0  0  0  0  0  0  0  0
   48.7618    6.8909   16.1036 O   0  0  0  0  0  0  0  0  0  0  0  0
   49.0147    5.5052   18.5500 O   0  0  0  0  0  0  0  0  0  0  0  0
   47.8938    8.1248   19.5074 H   0  0  0  0  0  0  0  0  0  0  0  0
   48.0510    8.9958   17.2306 H   0  0  0  0  0  0  0  0  0  0  0  0
   50.1265    7.6217   14.8625 H   0  0  0  0  0  0  0  0  0  0  0  0
   48.8893    4.9353   20.3271 H   0  0  0  0  0  0  0  0  0  0  0  0
   50.0669    5.7161   16.0917 H   0  0  0  0  0  0  0  0  0  0  0  0
   51.5098    6.5998   16.5276 H   0  0  0  0  0  0  0  0  0  0  0  0
   49.8943    9.4705   18.2939 H   0  0  0  0  0  0  0  0  0  0  0  0
   51.4016    8.7695   17.7751 H   0  0  0  0  0  0  0  0  0  0  0  0
   50.3901    5.5932   19.8690 H   0  0  0  0  0  0  0  0  0  0  0  0
   49.8043    4.2112   20.7641 H   0  0  0  0  0  0  0  0  0  0  0  0
   49.2469    6.1968   21.9877 H   0  0  0  0  0  0  0  0  0  0  0  0
   47.7653    5.4039   21.4518 H   0  0  0  0  0  0  0  0  0  0  0  0
   50.6826   10.5962   16.2822 H   0  0  0  0  0  0  0  0  0  0  0  0
   49.1563    9.7737   15.9326 H   0  0  0  0  0  0  0  0  0  0  0  0
   49.2921    7.5478   14.6243 H   0  0  0  0  0  0  0  0  0  0  0  0
   50.9019    6.9736   14.1725 H   0  0  0  0  0  0  0  0  0  0  0  0
   47.2380    5.8818   16.1585 H   0  0  0  0  0  0  0  0  0  0  0  0
   51.1889   10.6091   13.8910 H   0  0  0  0  0  0  0  0  0  0  0  0
   49.6967    9.7217   13.5116 H   0  0  0  0  0  0  0  0  0  0  0  0
   51.2799    9.0939   13.0049 H   0  0  0  0  0  0  0  0  0  0  0  0
   46.5645   10.6336   19.4426 H   0  0  0  0  0  0  0  0  0  0  0  0
   47.4036    7.8425   22.5720 H   0  0  0  0  0  0  0  0  0  0  0  0
   48.5770    2.5436   19.5860 H   0  0  0  0  0  0  0  0  0  0  0  0
   46.4224   10.0039   21.8544 H   0  0  0  0  0  0  0  0  0  0  0  0
   46.5541    3.5120   15.9256 H   0  0  0  0  0  0  0  0  0  0  0  0
   47.2359    1.8477   17.6341 H   0  0  0  0  0  0  0  0  0  0  0  0
   48.0729    8.3470   19.6795 H   0  0  0  0  0  0  0  0  0  0  0  0
   49.5058    9.3571   18.0018 H   0  0  0  0  0  0  0  0  0  0  0  0
   49.2108    6.5535   15.3014 H   0  0  0  0  0  0  0  0  0  0  0  0
   48.6114    4.6191   18.6545 H   0  0  0  0  0  0  0  0  0  0  0  0
  2  3  1  0
  3  4  2  0
  4  1  1  0
  5  2  2  0
  6  1  2  0
  7  1  1  0
  8  2  1  0
 10  9  1  0
 11  9  1  0
 12  9  2  3
 13 21  1  0
 14 10  2  0
 15 10  1  0
 16 11  2  0
 17 12  1  0
 18 12  1  0
 19 16  1  0
 20 15  1  0
 21 18  1  0
 22 17  1  0
 23 11  1  0
 24 13  1  0
 25 14  1  0
 26 15  2  0
 27 16  1  0
 28 26  1  0
 29 23  2  0
 30 29  1  0
 22 13  1  0
 20 19  1  0
 27 30  2  0
 25 28  2  0
 32 33  1  0
 33 34  2  0
 34 31  1  0
 35 32  2  0
 36 31  2  0
 37 31  1  0
 38 32  1  0
  3 39  1  0
  4 40  1  0
  7 41  1  0
  8 42  1  0
 17 43  1  0
 17 44  1  0
 18 45  1  0
 18 46  1  0
 19 47  1  0
 19 48  1  0
 20 49  1  0
 20 50  1  0
 21 51  1  0
 21 52  1  0
 22 53  1  0
 22 54  1  0
 23 55  1  0
 24 56  1  0
 24 57  1  0
 24 58  1  0
 25 59  1  0
 26 60  1  0
 27 61  1  0
 28 62  1  0
 29 63  1  0
 30 64  1  0
 33 65  1  0
 34 66  1  0
 37 67  1  0
 38 68  1  0
M  END
> <Uni-Dock RESULT> 
ENERGY=   -4.765  LOWER_BOUND=    3.873  UPPER_BOUND=    6.771
INTER + INTRA:          -4.765
INTER:                  -4.765
INTRA:                   0.000
UNBOUND:                 0.000

$$$$

     RDKit          3D

 68 69  0  0  0  0  0  0  0  0999 V2000
   48.1352    7.4518   18.4610 C   0  0  0  0  0  0  0  0  0  0  0  0
   49.1068    8.9130   20.8551 C   0  0  0  0  0  0  0  0  0  0  0  0
   48.0404    9.4046   19.9768 C   0  0  0  0  0  0  0  0  0  0  0  0
   47.6504    8.7770   18.8604 C   0  0  0  0  0  0  0  0  0  0  0  0
   50.1459    8.3774   20.5274 O   0  0  0  0  0  0  0  0  0  0  0  0
   48.3869    6.5076   19.1816 O   0  0  0  0  0  0  0  0  0  0  0  0
   48.2177    7.3828   17.1236 O   0  0  0  0  0  0  0  0  0  0  0  0
   48.8083    9.1928   22.1327 O   0  0  0  0  0  0  0  0  0  0  0  0
   48.3340    8.5503   19.9433 C   0  0  0  0  0  0  0  0  0  0  0  0
   47.8587    9.9201   20.2755 C   0  0  0  0  0  0  0  0  0  0  0  0
   48.2629    7.4981   20.9847 C   0  0  0  0  0  0  0  0  0  0  0  0
   48.9215    8.2731   18.7478 C   0  0  0  0  0  0  0  0  0  0  0  0
   48.9973    7.4475   15.9213 N   0  0  0  0  0  0  0  0  0  0  0  0
   46.9276   10.4220   19.4166 N   0  0  0  0  0  0  0  0  0  0  0  0
   48.2900   10.6112   21.4171 C   0  0  0  0  0  0  0  0  0  0  0  0
   49.1057    7.6034   22.1044 C   0  0  0  0  0  0  0  0  0  0  0  0
   49.4668    6.9171   18.3213 C   0  0  0  0  0  0  0  0  0  0  0  0
   49.1421    9.2706   17.6195 C   0  0  0  0  0  0  0  0  0  0  0  0
   50.0282    8.7914   22.2267 C   0  0  0  0  0  0  0  0  0  0  0  0
   49.2596   10.0984   22.4642 C   0  0  0  0  0  0  0  0  0  0  0  0
   48.4775    8.7699   16.3272 C   0  0  0  0  0  0  0  0  0  0  0  0
   48.8097    6.4637   17.0055 C   0  0  0  0  0  0  0  0  0  0  0  0
   47.3475    6.4424   20.8927 C   0  0  0  0  0  0  0  0  0  0  0  0
   48.3400    6.9939   14.6971 C   0  0  0  0  0  0  0  0  0  0  0  0
   46.4283   11.6474   19.6712 C   0  0  0  0  0  0  0  0  0  0  0  0
   47.7367   11.8855   21.6364 C   0  0  0  0  0  0  0  0  0  0  0  0
   49.0486    6.6222   23.1021 C   0  0  0  0  0  0  0  0  0  0  0  0
   46.8010   12.4141   20.7555 C   0  0  0  0  0  0  0  0  0  0  0  0
   47.2973    5.4718   21.8928 C   0  0  0  0  0  0  0  0  0  0  0  0
   48.1506    5.5591   22.9921 C   0  0  0  0  0  0  0  0  0  0  0  0
   48.6234    7.8851   18.1993 C   0  0  0  0  0  0  0  0  0  0  0  0
   48.0186    8.7089   21.0877 C   0  0  0  0  0  0  0  0  0  0  0  0
   48.0241    9.5961   19.9213 C   0  0  0  0  0  0  0  0  0  0  0  0
   48.3266    9.2428   18.6647 C   0  0  0  0  0  0  0  0  0  0  0  0
   47.2335    8.7887   22.0143 O   0  0  0  0  0  0  0  0  0  0  0  0
   49.4338    7.6122   17.3333 O   0  0  0  0  0  0  0  0  0  0  0  0
   47.8130    6.9612   18.7359 O   0  0  0  0  0  0  0  0  0  0  0  0
   49.0583    7.8622   21.1037 O   0  0  0  0  0  0  0  0  0  0  0  0
   47.5950   10.3496   20.2634 H   0  0  0  0  0  0  0  0  0  0  0  0
   46.9087    9.2217   18.2081 H   0  0  0  0  0  0  0  0  0  0  0  0
   48.5602    6.4786   16.9623 H   0  0  0  0  0  0  0  0  0  0  0  0
   49.5630    8.8155   22.6318 H   0  0  0  0  0  0  0  0  0  0  0  0
   49.3255    6.1339   19.0698 H   0  0  0  0  0  0  0  0  0  0  0  0
   50.5527    7.0038   18.1807 H   0  0  0  0  0  0  0  0  0  0  0  0
   48.7807   10.2770   17.8397 H   0  0  0  0  0  0  0  0  0  0  0  0
   50.2233    9.3796   17.4577 H   0  0  0  0  0  0  0  0  0  0  0  0
   50.6641    8.8656   21.3356 H   0  0  0  0  0  0  0  0  0  0  0  0
   50.7163    8.6344   23.0671 H   0  0  0  0  0  0  0  0  0  0  0  0
   50.0111   10.8834   22.6250 H   0  0  0  0  0  0  0  0  0  0  0  0
   48.6978   10.0002   23.4038 H   0  0  0  0  0  0  0  0  0  0  0  0
   48.6852    9.4977   15.5334 H   0  0  0  0  0  0  0  0  0  0  0  0
   47.3878    8.7355   16.4628 H   0  0  0  0  0  0  0  0  0  0  0  0
   47.7411    6.2761   17.1781 H   0  0  0  0  0  0  0  0  0  0  0  0
   49.2639    5.5099   16.7100 H   0  0  0  0  0  0  0  0  0  0  0  0
   46.6739    6.3774   20.0417 H   0  0  0  0  0  0  0  0  0  0  0  0
   48.5147    7.7043   13.8813 H   0  0  0  0  0  0  0  0  0  0  0  0
   47.2577    6.8758   14.8256 H   0  0  0  0  0  0  0  0  0  0  0  0
   48.7551    6.0336   14.3715 H   0  0  0  0  0  0  0  0  0  0  0  0
   45.6943   12.0058   18.9557 H   0  0  0  0  0  0  0  0  0  0  0  0
   48.0296   12.4669   22.5084 H   0  0  0  0  0  0  0  0  0  0  0  0
   49.6943    6.6833   23.9746 H   0  0  0  0  0  0  0  0  0  0  0  0
   46.3680   13.3943   20.9182 H   0  0  0  0  0  0  0  0  0  0  0  0
   46.5901    4.6503   21.8160 H   0  0  0  0  0  0  0  0  0  0  0  0
   48.1091    4.8022   23.7713 H   0  0  0  0  0  0  0  0  0  0  0  0
   47.7496   10.6204   20.1459 H   0  0  0  0  0  0  0  0  0  0  0  0
   48.3715    9.9950   17.8853 H   0  0  0  0  0  0  0  0  0  0  0  0
   48.1034    6.1245   18.3182 H   0  0  0  0  0  0  0  0  0  0  0  0
   48.9410    7.3639   21.9384 H   0  0  0  0  0  0  0  0  0  0  0  0
  2  3  1  0
  3  4  2  0
  4  1  1  0
  5  2  2  0
  6  1  2  0
  7  1  1  0
  8  2  1  0
 10  9  1  0
 11  9  1  0
 12  9  2  3
 13 21  1  0
 14 10  2  0
 15 10  1  0
 16 11  2  0
 17 12  1  0
 18 12  1  0
 19 16  1  0
 20 15  1  0
 21 18  1  0
 22 17  1  0
 23 11  1  0
 24 13  1  0
 25 14  1  0
 26 15  2  0
 27 16  1  0
 28 26  1  0
 29 23  2  0
 30 29  1  0
 22 13  1  0
 20 19  1  0
 27 30  2  0
 25 28  2  0
 32 33  1  0
 33 34  2  0
 34 31  1  0
 35 32  2  0
 36 31  2  0
 37 31  1  0
 38 32  1  0
  3 39  1  0
  4 40  1  0
  7 41  1  0
  8 42  1  0
 17 43  1  0
 17 44  1  0
 18 45  1  0
 18 46  1  0
 19 47  1  0
 19 48  1  0
 20 49  1  0
 20 50  1  0
 21 51  1  0
 21 52  1  0
 22 53  1  0
 22 54  1  0
 23 55  1  0
 24 56  1  0
 24 57  1  0
 24 58  1  0
 25 59  1  0
 26 60  1  0
 27 61  1  0
 28 62  1  0
 29 63  1  0
 30 64  1  0
 33 65  1  0
 34 66  1  0
 37 67  1  0
 38 68  1  0
M  END
> <Uni-Dock RESULT> 
ENERGY=   -4.634  LOWER_BOUND=    5.284  UPPER_BOUND=    7.513
INTER + INTRA:          -4.634
INTER:                  -4.634
INTRA:                   0.000
UNBOUND:                 0.000

$$$$

     RDKit          3D

 68 69  0  0  0  0  0  0  0  0999 V2000
   49.3122    6.9518   14.8093 C   0  0  0  0  0  0  0  0  0  0  0  0
   48.6958    9.3682   13.1994 C   0  0  0  0  0  0  0  0  0  0  0  0
   49.8819    8.5313   12.9926 C   0  0  0  0  0  0  0  0  0  0  0  0
   50.1927    7.4815   13.7631 C   0  0  0  0  0  0  0  0  0  0  0  0
   48.2145    9.7195   14.2573 O   0  0  0  0  0  0  0  0  0  0  0  0
   48.1008    6.8720   14.7870 O   0  0  0  0  0  0  0  0  0  0  0  0
   50.0487    6.4857   15.8294 O   0  0  0  0  0  0  0  0  0  0  0  0
   48.2112    9.7703   12.0149 O   0  0  0  0  0  0  0  0  0  0  0  0
   49.1836    8.2576   13.4971 C   0  0  0  0  0  0  0  0  0  0  0  0
   50.1359    8.7948   12.4886 C   0  0  0  0  0  0  0  0  0  0  0  0
   47.7836    7.9947   13.0879 C   0  0  0  0  0  0  0  0  0  0  0  0
   49.5428    8.1015   14.8002 C   0  0  0  0  0  0  0  0  0  0  0  0
   50.6166    6.6616   17.1348 N   0  0  0  0  0  0  0  0  0  0  0  0
   51.2817    8.0713   12.3474 N   0  0  0  0  0  0  0  0  0  0  0  0
   49.8462    9.9201   11.7033 C   0  0  0  0  0  0  0  0  0  0  0  0
   46.9582    9.0888   12.7769 C   0  0  0  0  0  0  0  0  0  0  0  0
   48.6394    7.5896   15.9136 C   0  0  0  0  0  0  0  0  0  0  0  0
   50.9144    8.4129   15.3818 C   0  0  0  0  0  0  0  0  0  0  0  0
   47.5267   10.4853   12.8384 C   0  0  0  0  0  0  0  0  0  0  0  0
   48.5677   10.7349   11.7388 C   0  0  0  0  0  0  0  0  0  0  0  0
   51.5005    7.1662   16.0634 C   0  0  0  0  0  0  0  0  0  0  0  0
   49.2731    6.3663   16.5997 C   0  0  0  0  0  0  0  0  0  0  0  0
   47.2939    6.6888   12.9627 C   0  0  0  0  0  0  0  0  0  0  0  0
   51.1948    5.4716   17.7562 C   0  0  0  0  0  0  0  0  0  0  0  0
   52.1793    8.4813   11.4297 C   0  0  0  0  0  0  0  0  0  0  0  0
   50.8162   10.3047   10.7601 C   0  0  0  0  0  0  0  0  0  0  0  0
   45.6341    8.8602   12.3821 C   0  0  0  0  0  0  0  0  0  0  0  0
   51.9967    9.5846   10.6223 C   0  0  0  0  0  0  0  0  0  0  0  0
   45.9744    6.4721   12.5668 C   0  0  0  0  0  0  0  0  0  0  0  0
   45.1451    7.5564   12.2829 C   0  0  0  0  0  0  0  0  0  0  0  0
   49.6644    7.4619   15.1414 C   0  0  0  0  0  0  0  0  0  0  0  0
   48.6936    8.5305   12.4390 C   0  0  0  0  0  0  0  0  0  0  0  0
   50.0634    8.6064   12.9545 C   0  0  0  0  0  0  0  0  0  0  0  0
   50.4790    8.1736   14.1525 C   0  0  0  0  0  0  0  0  0  0  0  0
   48.4025    8.3309   11.2743 O   0  0  0  0  0  0  0  0  0  0  0  0
   49.7674    7.5942   16.3468 O   0  0  0  0  0  0  0  0  0  0  0  0
   48.8645    6.5376   14.5900 O   0  0  0  0  0  0  0  0  0  0  0  0
   47.7710    8.8332   13.3639 O   0  0  0  0  0  0  0  0  0  0  0  0
   50.5355    8.8356   12.1841 H   0  0  0  0  0  0  0  0  0  0  0  0
   51.1199    6.9420   13.6124 H   0  0  0  0  0  0  0  0  0  0  0  0
   49.3773    6.1736   16.4719 H   0  0  0  0  0  0  0  0  0  0  0  0
   47.4240   10.3013   12.2582 H   0  0  0  0  0  0  0  0  0  0  0  0
   47.6371    7.3185   15.5736 H   0  0  0  0  0  0  0  0  0  0  0  0
   48.4984    8.3932   16.6488 H   0  0  0  0  0  0  0  0  0  0  0  0
   51.6318    8.7899   14.6502 H   0  0  0  0  0  0  0  0  0  0  0  0
   50.8043    9.2179   16.1214 H   0  0  0  0  0  0  0  0  0  0  0  0
   47.9517   10.6736   13.8323 H   0  0  0  0  0  0  0  0  0  0  0  0
   46.7154   11.2153   12.7221 H   0  0  0  0  0  0  0  0  0  0  0  0
   48.8569   11.7923   11.8101 H   0  0  0  0  0  0  0  0  0  0  0  0
   48.0756   10.6059   10.7646 H   0  0  0  0  0  0  0  0  0  0  0  0
   52.4710    7.4389   16.4958 H   0  0  0  0  0  0  0  0  0  0  0  0
   51.6847    6.3872   15.3109 H   0  0  0  0  0  0  0  0  0  0  0  0
   49.3144    5.5305   15.8879 H   0  0  0  0  0  0  0  0  0  0  0  0
   48.6159    6.0603   17.4231 H   0  0  0  0  0  0  0  0  0  0  0  0
   47.9414    5.8411   13.1737 H   0  0  0  0  0  0  0  0  0  0  0  0
   52.1743    5.7021   18.1898 H   0  0  0  0  0  0  0  0  0  0  0  0
   51.3185    4.6486   17.0427 H   0  0  0  0  0  0  0  0  0  0  0  0
   50.5615    5.1220   18.5791 H   0  0  0  0  0  0  0  0  0  0  0  0
   53.0779    7.8760   11.3588 H   0  0  0  0  0  0  0  0  0  0  0  0
   50.6448   11.1670   10.1190 H   0  0  0  0  0  0  0  0  0  0  0  0
   44.9781    9.6928   12.1403 H   0  0  0  0  0  0  0  0  0  0  0  0
   52.7483    9.8727    9.8966 H   0  0  0  0  0  0  0  0  0  0  0  0
   45.5952    5.4578   12.4762 H   0  0  0  0  0  0  0  0  0  0  0  0
   44.1171    7.3855   11.9731 H   0  0  0  0  0  0  0  0  0  0  0  0
   50.7681    9.0596   12.2667 H   0  0  0  0  0  0  0  0  0  0  0  0
   51.5026    8.3443   14.4661 H   0  0  0  0  0  0  0  0  0  0  0  0
   48.4130    6.1310   15.3580 H   0  0  0  0  0  0  0  0  0  0  0  0
   46.9234    8.7714   12.8774 H   0  0  0  0  0  0  0  0  0  0  0  0
  2  3  1  0
  3  4  2  0
  4  1  1  0
  5  2  2  0
  6  1  2  0
  7  1  1  0
  8  2  1  0
 10  9  1  0
 11  9  1  0
 12  9  2  3
 13 21  1  0
 14 10  2  0
 15 10  1  0
 16 11  2  0
 17 12  1  0
 18 12  1  0
 19 16  1  0
 20 15  1  0
 21 18  1  0
 22 17  1  0
 23 11  1  0
 24 13  1  0
 25 14  1  0
 26 15  2  0
 27 16  1  0
 28 26  1  0
 29 23  2  0
 30 29  1  0
 22 13  1  0
 20 19  1  0
 27 30  2  0
 25 28  2  0
 32 33  1  0
 33 34  2  0
 34 31  1  0
 35 32  2  0
 36 31  2  0
 37 31  1  0
 38 32  1  0
  3 39  1  0
  4 40  1  0
  7 41  1  0
  8 42  1  0
 17 43  1  0
 17 44  1  0
 18 45  1  0
 18 46  1  0
 19 47  1  0
 19 48  1  0
 20 49  1  0
 20 50  1  0
 21 51  1  0
 21 52  1  0
 22 53  1  0
 22 54  1  0
 23 55  1  0
 24 56  1  0
 24 57  1  0
 24 58  1  0
 25 59  1  0
 26 60  1  0
 27 61  1  0
 28 62  1  0
 29 63  1  0
 30 64  1  0
 33 65  1  0
 34 66  1  0
 37 67  1  0
 38 68  1  0
M  END
> <Uni-Dock RESULT> 
ENERGY=   -4.588  LOWER_BOUND=    2.050  UPPER_BOUND=    4.454
INTER + INTRA:          -4.588
INTER:                  -4.588
INTRA:                   0.000
UNBOUND:                 0.000

$$$$

     RDKit          3D

 68 69  0  0  0  0  0  0  0  0999 V2000
   48.1636    9.8441   20.1258 C   0  0  0  0  0  0  0  0  0  0  0  0
   47.8765    7.1540   18.9045 C   0  0  0  0  0  0  0  0  0  0  0  0
   48.9876    8.0663   18.6158 C   0  0  0  0  0  0  0  0  0  0  0  0
   49.0796    9.3048   19.1155 C   0  0  0  0  0  0  0  0  0  0  0  0
   46.7008    7.4345   19.0196 O   0  0  0  0  0  0  0  0  0  0  0  0
   47.6624    9.2538   21.0609 O   0  0  0  0  0  0  0  0  0  0  0  0
   47.9792   11.1566   19.9168 O   0  0  0  0  0  0  0  0  0  0  0  0
   48.3298    5.8933   18.9733 O   0  0  0  0  0  0  0  0  0  0  0  0
   48.4290    8.1965   19.3145 C   0  0  0  0  0  0  0  0  0  0  0  0
   49.3465    7.7151   18.2472 C   0  0  0  0  0  0  0  0  0  0  0  0
   48.2169    7.3468   20.5101 C   0  0  0  0  0  0  0  0  0  0  0  0
   47.7092    9.3418   19.1685 C   0  0  0  0  0  0  0  0  0  0  0  0
   47.1898   12.2328   19.3912 N   0  0  0  0  0  0  0  0  0  0  0  0
   50.3347    8.5906   17.9103 N   0  0  0  0  0  0  0  0  0  0  0  0
   49.2379    6.4370   17.6801 C   0  0  0  0  0  0  0  0  0  0  0  0
   47.5272    6.1319   20.3569 C   0  0  0  0  0  0  0  0  0  0  0  0
   46.7243    9.9053   20.1836 C   0  0  0  0  0  0  0  0  0  0  0  0
   47.7570   10.2675   17.9612 C   0  0  0  0  0  0  0  0  0  0  0  0
   47.0542    5.7179   18.9850 C   0  0  0  0  0  0  0  0  0  0  0  0
   48.2216    5.3740   18.0501 C   0  0  0  0  0  0  0  0  0  0  0  0
   48.1384   11.6917   18.3956 C   0  0  0  0  0  0  0  0  0  0  0  0
   47.1127   11.3443   20.5673 C   0  0  0  0  0  0  0  0  0  0  0  0
   48.7285    7.7097   21.7621 C   0  0  0  0  0  0  0  0  0  0  0  0
   47.5841   13.5820   19.7919 C   0  0  0  0  0  0  0  0  0  0  0  0
   51.2227    8.2105   16.9707 C   0  0  0  0  0  0  0  0  0  0  0  0
   50.1905    6.0903   16.7052 C   0  0  0  0  0  0  0  0  0  0  0  0
   47.3225    5.3124   21.4739 C   0  0  0  0  0  0  0  0  0  0  0  0
   51.1904    6.9839   16.3408 C   0  0  0  0  0  0  0  0  0  0  0  0
   48.5209    6.8854   22.8676 C   0  0  0  0  0  0  0  0  0  0  0  0
   47.8141    5.6920   22.7241 C   0  0  0  0  0  0  0  0  0  0  0  0
   47.8288    9.9754   19.5215 C   0  0  0  0  0  0  0  0  0  0  0  0
   48.8502    7.0872   19.4768 C   0  0  0  0  0  0  0  0  0  0  0  0
   49.0622    8.0930   18.4321 C   0  0  0  0  0  0  0  0  0  0  0  0
   48.5823    9.3440   18.4346 C   0  0  0  0  0  0  0  0  0  0  0  0
   49.6747    6.2597   19.8183 O   0  0  0  0  0  0  0  0  0  0  0  0
   46.9209   10.7704   19.3631 O   0  0  0  0  0  0  0  0  0  0  0  0
   48.3240    9.6890   20.7343 O   0  0  0  0  0  0  0  0  0  0  0  0
   47.5937    7.0788   19.9452 O   0  0  0  0  0  0  0  0  0  0  0  0
   49.7350    7.6918   17.9268 H   0  0  0  0  0  0  0  0  0  0  0  0
   49.8835    9.9641   18.8112 H   0  0  0  0  0  0  0  0  0  0  0  0
   47.3501   11.4141   20.6231 H   0  0  0  0  0  0  0  0  0  0  0  0
   47.5261    5.3724   19.1824 H   0  0  0  0  0  0  0  0  0  0  0  0
   46.6481    9.3095   21.0962 H   0  0  0  0  0  0  0  0  0  0  0  0
   45.7201    9.9003   19.7387 H   0  0  0  0  0  0  0  0  0  0  0  0
   48.4410    9.9386   17.1764 H   0  0  0  0  0  0  0  0  0  0  0  0
   46.7631   10.2805   17.4930 H   0  0  0  0  0  0  0  0  0  0  0  0
   46.4230    6.5045   18.5528 H   0  0  0  0  0  0  0  0  0  0  0  0
   46.4068    4.8360   19.0726 H   0  0  0  0  0  0  0  0  0  0  0  0
   47.7803    5.0051   17.1141 H   0  0  0  0  0  0  0  0  0  0  0  0
   48.7782    4.5347   18.4905 H   0  0  0  0  0  0  0  0  0  0  0  0
   48.1309   12.3326   17.5055 H   0  0  0  0  0  0  0  0  0  0  0  0
   49.1630   11.6939   18.7920 H   0  0  0  0  0  0  0  0  0  0  0  0
   48.0696   11.3315   21.1068 H   0  0  0  0  0  0  0  0  0  0  0  0
   46.3536   11.7278   21.2601 H   0  0  0  0  0  0  0  0  0  0  0  0
   49.2888    8.6347   21.8749 H   0  0  0  0  0  0  0  0  0  0  0  0
   47.6007   14.2511   18.9243 H   0  0  0  0  0  0  0  0  0  0  0  0
   48.5738   13.6033   20.2628 H   0  0  0  0  0  0  0  0  0  0  0  0
   46.8578   14.0007   20.4974 H   0  0  0  0  0  0  0  0  0  0  0  0
   51.9870    8.9442   16.7327 H   0  0  0  0  0  0  0  0  0  0  0  0
   50.1596    5.1102   16.2336 H   0  0  0  0  0  0  0  0  0  0  0  0
   46.7885    4.3703   21.3775 H   0  0  0  0  0  0  0  0  0  0  0  0
   51.9298    6.7240   15.5921 H   0  0  0  0  0  0  0  0  0  0  0  0
   48.9138    7.1723   23.8393 H   0  0  0  0  0  0  0  0  0  0  0  0
   47.6544    5.0501   23.5868 H   0  0  0  0  0  0  0  0  0  0  0  0
   49.6705    7.7466   17.6044 H   0  0  0  0  0  0  0  0  0  0  0  0
   48.7373    9.9865   17.5752 H   0  0  0  0  0  0  0  0  0  0  0  0
   47.7500   10.1938   21.3464 H   0  0  0  0  0  0  0  0  0  0  0  0
   47.5936    6.3514   20.6007 H   0  0  0  0  0  0  0  0  0  0  0  0
  2  3  1  0
  3  4  2  0
  4  1  1  0
  5  2  2  0
  6  1  2  0
  7  1  1  0
  8  2  1  0
 10  9  1  0
 11  9  1  0
 12  9  2  3
 13 21  1  0
 14 10  2  0
 15 10  1  0
 16 11  2  0
 17 12  1  0
 18 12  1  0
 19 16  1  0
 20 15  1  0
 21 18  1  0
 22 17  1  0
 23 11  1  0
 24 13  1  0
 25 14  1  0
 26 15  2  0
 27 16  1  0
 28 26  1  0
 29 23  2  0
 30 29  1  0
 22 13  1  0
 20 19  1  0
 27 30  2  0
 25 28  2  0
 32 33  1  0
 33 34  2  0
 34 31  1  0
 35 32  2  0
 36 31  2  0
 37 31  1  0
 38 32  1  0
  3 39  1  0
  4 40  1  0
  7 41  1  0
  8 42  1  0
 17 43  1  0
 17 44  1  0
 18 45  1  0
 18 46  1  0
 19 47  1  0
 19 48  1  0
 20 49  1  0
 20 50  1  0
 21 51  1  0
 21 52  1  0
 22 53  1  0
 22 54  1  0
 23 55  1  0
 24 56  1  0
 24 57  1  0
 24 58  1  0
 25 59  1  0
 26 60  1  0
 27 61  1  0
 28 62  1  0
 29 63  1  0
 30 64  1  0
 33 65  1  0
 34 66  1  0
 37 67  1  0
 38 68  1  0
M  END
> <Uni-Dock RESULT> 
ENERGY=   -4.535  LOWER_BOUND=    5.592  UPPER_BOUND=    7.772
INTER + INTRA:          -4.535
INTER:                  -4.535
INTRA:                   0.000
UNBOUND:                 0.000

$$$$
