
     RDKit          3D

 68 69  0  0  0  0  0  0  0  0999 V2000
   42.6856   13.0088   10.1085 C   0  0  0  0  0  0  0  0  0  0  0  0
   42.6506   10.0455   10.5357 C   0  0  0  0  0  0  0  0  0  0  0  0
   43.1738   11.0141   11.5072 C   0  0  0  0  0  0  0  0  0  0  0  0
   43.1515   12.3419   11.3269 C   0  0  0  0  0  0  0  0  0  0  0  0
   41.7842   10.2135    9.7007 O   0  0  0  0  0  0  0  0  0  0  0  0
   41.9200   13.9539   10.0851 O   0  0  0  0  0  0  0  0  0  0  0  0
   43.2885   12.5303    9.0132 O   0  0  0  0  0  0  0  0  0  0  0  0
   43.2576    8.8605   10.7075 O   0  0  0  0  0  0  0  0  0  0  0  0
   42.9727   10.6529    9.9302 C   0  0  0  0  0  0  0  0  0  0  0  0
   43.7019    9.6893   10.7952 C   0  0  0  0  0  0  0  0  0  0  0  0
   43.7171   11.3655    8.8667 C   0  0  0  0  0  0  0  0  0  0  0  0
   41.6831   10.9970   10.1905 C   0  0  0  0  0  0  0  0  0  0  0  0
   39.5908   12.6219   11.4927 N   0  0  0  0  0  0  0  0  0  0  0  0
   43.1486    8.4478   10.8550 N   0  0  0  0  0  0  0  0  0  0  0  0
   44.8892   10.0276   11.4604 C   0  0  0  0  0  0  0  0  0  0  0  0
   44.6793   12.3170    9.2462 C   0  0  0  0  0  0  0  0  0  0  0  0
   40.8529   10.4590   11.3470 C   0  0  0  0  0  0  0  0  0  0  0  0
   40.8799   12.0435    9.4293 C   0  0  0  0  0  0  0  0  0  0  0  0
   44.9399   12.5618   10.7121 C   0  0  0  0  0  0  0  0  0  0  0  0
   45.6082   11.3602   11.3937 C   0  0  0  0  0  0  0  0  0  0  0  0
   40.3955   13.1526   10.3764 C   0  0  0  0  0  0  0  0  0  0  0  0
   40.3562   11.6080   12.2406 C   0  0  0  0  0  0  0  0  0  0  0  0
   43.5013   11.0823    7.5139 C   0  0  0  0  0  0  0  0  0  0  0  0
   39.1823   13.7075   12.3832 C   0  0  0  0  0  0  0  0  0  0  0  0
   43.7664    7.5155   11.6060 C   0  0  0  0  0  0  0  0  0  0  0  0
   45.4910    9.0200   12.2340 C   0  0  0  0  0  0  0  0  0  0  0  0
   45.3958   13.0004    8.2563 C   0  0  0  0  0  0  0  0  0  0  0  0
   44.9264    7.7532   12.3117 C   0  0  0  0  0  0  0  0  0  0  0  0
   44.2232   11.7663    6.5357 C   0  0  0  0  0  0  0  0  0  0  0  0
   45.1644   12.7260    6.9069 C   0  0  0  0  0  0  0  0  0  0  0  0
   43.5177   10.6915    9.2500 C   0  0  0  0  0  0  0  0  0  0  0  0
   42.7683   12.5158   11.4982 C   0  0  0  0  0  0  0  0  0  0  0  0
   42.6818   11.0524   11.5607 C   0  0  0  0  0  0  0  0  0  0  0  0
   43.0600   10.2384   10.5661 C   0  0  0  0  0  0  0  0  0  0  0  0
   43.5030   13.1957   10.8096 O   0  0  0  0  0  0  0  0  0  0  0  0
   44.5147   10.2870    8.6819 O   0  0  0  0  0  0  0  0  0  0  0  0
   42.6394   11.5239    8.6736 O   0  0  0  0  0  0  0  0  0  0  0  0
   41.9045   13.0572   12.3715 O   0  0  0  0  0  0  0  0  0  0  0  0
   43.5602   10.5950   12.4290 H   0  0  0  0  0  0  0  0  0  0  0  0
   43.4664   13.0119   12.1183 H   0  0  0  0  0  0  0  0  0  0  0  0
   42.8819   13.0314    8.2766 H   0  0  0  0  0  0  0  0  0  0  0  0
   42.8510    8.2913   10.0213 H   0  0  0  0  0  0  0  0  0  0  0  0
   41.4005    9.7642   11.9882 H   0  0  0  0  0  0  0  0  0  0  0  0
   39.9988    9.9015   10.9401 H   0  0  0  0  0  0  0  0  0  0  0  0
   40.0184   11.5529    8.9577 H   0  0  0  0  0  0  0  0  0  0  0  0
   41.4431   12.5169    8.6214 H   0  0  0  0  0  0  0  0  0  0  0  0
   44.0046   12.8266   11.2194 H   0  0  0  0  0  0  0  0  0  0  0  0
   45.5926   13.4363   10.8251 H   0  0  0  0  0  0  0  0  0  0  0  0
   46.5770   11.1833   10.9065 H   0  0  0  0  0  0  0  0  0  0  0  0
   45.8255   11.6647   12.4264 H   0  0  0  0  0  0  0  0  0  0  0  0
   39.7864   13.8564    9.7966 H   0  0  0  0  0  0  0  0  0  0  0  0
   41.2638   13.7080   10.7564 H   0  0  0  0  0  0  0  0  0  0  0  0
   39.7188   11.1776   13.0226 H   0  0  0  0  0  0  0  0  0  0  0  0
   41.2183   12.0707   12.7419 H   0  0  0  0  0  0  0  0  0  0  0  0
   42.7735   10.3291    7.2243 H   0  0  0  0  0  0  0  0  0  0  0  0
   40.0412   14.2324   12.8146 H   0  0  0  0  0  0  0  0  0  0  0  0
   38.5655   13.3212   13.2023 H   0  0  0  0  0  0  0  0  0  0  0  0
   38.5692   14.4383   11.8421 H   0  0  0  0  0  0  0  0  0  0  0  0
   43.2862    6.5422   11.6229 H   0  0  0  0  0  0  0  0  0  0  0  0
   46.4151    9.2223   12.7709 H   0  0  0  0  0  0  0  0  0  0  0  0
   46.1412   13.7437    8.5273 H   0  0  0  0  0  0  0  0  0  0  0  0
   45.3865    6.9698   12.9025 H   0  0  0  0  0  0  0  0  0  0  0  0
   44.0552   11.5460    5.4856 H   0  0  0  0  0  0  0  0  0  0  0  0
   45.7265   13.2582    6.1429 H   0  0  0  0  0  0  0  0  0  0  0  0
   42.3281   10.6406   12.4984 H   0  0  0  0  0  0  0  0  0  0  0  0
   43.0667    9.1630   10.7022 H   0  0  0  0  0  0  0  0  0  0  0  0
   43.0560   11.7567    7.8193 H   0  0  0  0  0  0  0  0  0  0  0  0
   42.0141   14.0225   12.2387 H   0  0  0  0  0  0  0  0  0  0  0  0
  2  3  1  0
  3  4  2  0
  4  1  1  0
  5  2  2  0
  6  1  2  0
  7  1  1  0
  8  2  1  0
 10  9  1  0
 11  9  1  0
 12  9  2  3
 13 21  1  0
 14 10  2  0
 15 10  1  0
 16 11  2  0
 17 12  1  0
 18 12  1  0
 19 16  1  0
 20 15  1  0
 21 18  1  0
 22 17  1  0
 23 11  1  0
 24 13  1  0
 25 14  1  0
 26 15  2  0
 27 16  1  0
 28 26  1  0
 29 23  2  0
 30 29  1  0
 22 13  1  0
 20 19  1  0
 27 30  2  0
 25 28  2  0
 32 33  1  0
 33 34  2  0
 34 31  1  0
 35 32  2  0
 36 31  2  0
 37 31  1  0
 38 32  1  0
  3 39  1  0
  4 40  1  0
  7 41  1  0
  8 42  1  0
 17 43  1  0
 17 44  1  0
 18 45  1  0
 18 46  1  0
 19 47  1  0
 19 48  1  0
 20 49  1  0
 20 50  1  0
 21 51  1  0
 21 52  1  0
 22 53  1  0
 22 54  1  0
 23 55  1  0
 24 56  1  0
 24 57  1  0
 24 58  1  0
 25 59  1  0
 26 60  1  0
 27 61  1  0
 28 62  1  0
 29 63  1  0
 30 64  1  0
 33 65  1  0
 34 66  1  0
 37 67  1  0
 38 68  1  0
M  END
> <Uni-Dock RESULT> 
ENERGY=   -5.755  LOWER_BOUND=    0.000  UPPER_BOUND=    0.000
INTER + INTRA:          -5.755
INTER:                  -5.755
INTRA:                   0.000
UNBOUND:                 0.000

$$$$

     RDKit          3D

 68 69  0  0  0  0  0  0  0  0999 V2000
   50.2465    6.0430   17.3560 C   0  0  0  0  0  0  0  0  0  0  0  0
   48.1165    5.8837   19.4543 C   0  0  0  0  0  0  0  0  0  0  0  0
   49.4391    6.4857   19.6638 C   0  0  0  0  0  0  0  0  0  0  0  0
   50.3745    6.5888   18.7096 C   0  0  0  0  0  0  0  0  0  0  0  0
   47.4893    5.7924   18.4178 O   0  0  0  0  0  0  0  0  0  0  0  0
   50.5023    6.6536   16.3354 O   0  0  0  0  0  0  0  0  0  0  0  0
   49.9189    4.7451   17.3677 O   0  0  0  0  0  0  0  0  0  0  0  0
   47.6301    5.4431   20.6254 O   0  0  0  0  0  0  0  0  0  0  0  0
   48.5864    5.3235   18.9023 C   0  0  0  0  0  0  0  0  0  0  0  0
   48.5419    5.3840   20.3866 C   0  0  0  0  0  0  0  0  0  0  0  0
   49.2496    4.1699   18.2525 C   0  0  0  0  0  0  0  0  0  0  0  0
   48.1642    6.3687   18.1417 C   0  0  0  0  0  0  0  0  0  0  0  0
   48.5415    8.9305   16.7244 N   0  0  0  0  0  0  0  0  0  0  0  0
   47.2980    5.5524   20.9114 N   0  0  0  0  0  0  0  0  0  0  0  0
   49.6898    5.2361   21.1783 C   0  0  0  0  0  0  0  0  0  0  0  0
   50.6439    4.0433   18.3757 C   0  0  0  0  0  0  0  0  0  0  0  0
   47.6095    7.6768   18.6872 C   0  0  0  0  0  0  0  0  0  0  0  0
   48.2582    6.4479   16.6236 C   0  0  0  0  0  0  0  0  0  0  0  0
   51.4113    5.0630   19.1805 C   0  0  0  0  0  0  0  0  0  0  0  0
   51.0977    4.9774   20.6804 C   0  0  0  0  0  0  0  0  0  0  0  0
   49.0874    7.6679   16.1926 C   0  0  0  0  0  0  0  0  0  0  0  0
   48.4459    8.8697   18.1943 C   0  0  0  0  0  0  0  0  0  0  0  0
   48.5126    3.2038   17.5593 C   0  0  0  0  0  0  0  0  0  0  0  0
   49.3809   10.0564   16.3171 C   0  0  0  0  0  0  0  0  0  0  0  0
   47.1782    5.5978   22.2524 C   0  0  0  0  0  0  0  0  0  0  0  0
   49.5104    5.2957   22.5713 C   0  0  0  0  0  0  0  0  0  0  0  0
   51.2902    2.9585   17.7708 C   0  0  0  0  0  0  0  0  0  0  0  0
   48.2461    5.4804   23.1161 C   0  0  0  0  0  0  0  0  0  0  0  0
   49.1661    2.1250   16.9634 C   0  0  0  0  0  0  0  0  0  0  0  0
   50.5518    2.0061   17.0656 C   0  0  0  0  0  0  0  0  0  0  0  0
   48.7365    4.4717   18.7879 C   0  0  0  0  0  0  0  0  0  0  0  0
   50.3306    6.9845   18.4908 C   0  0  0  0  0  0  0  0  0  0  0  0
   49.1945    6.8329   19.4070 C   0  0  0  0  0  0  0  0  0  0  0  0
   48.5115    5.6916   19.5677 C   0  0  0  0  0  0  0  0  0  0  0  0
   51.0733    6.1216   18.0665 O   0  0  0  0  0  0  0  0  0  0  0  0
   48.8509    3.3554   19.2582 O   0  0  0  0  0  0  0  0  0  0  0  0
   48.6790    4.7028   17.4688 O   0  0  0  0  0  0  0  0  0  0  0  0
   50.4871    8.2800   18.1757 O   0  0  0  0  0  0  0  0  0  0  0  0
   49.6204    6.8927   20.6518 H   0  0  0  0  0  0  0  0  0  0  0  0
   51.2968    7.1264   18.8962 H   0  0  0  0  0  0  0  0  0  0  0  0
   49.8419    4.5080   16.4207 H   0  0  0  0  0  0  0  0  0  0  0  0
   46.7608    5.0603   20.3849 H   0  0  0  0  0  0  0  0  0  0  0  0
   47.5954    7.7207   19.7787 H   0  0  0  0  0  0  0  0  0  0  0  0
   46.5678    7.7844   18.3566 H   0  0  0  0  0  0  0  0  0  0  0  0
   47.2436    6.5214   16.2106 H   0  0  0  0  0  0  0  0  0  0  0  0
   48.7093    5.5611   16.1719 H   0  0  0  0  0  0  0  0  0  0  0  0
   51.2098    6.0705   18.7976 H   0  0  0  0  0  0  0  0  0  0  0  0
   52.4875    4.9048   19.0381 H   0  0  0  0  0  0  0  0  0  0  0  0
   51.3909    3.9803   21.0367 H   0  0  0  0  0  0  0  0  0  0  0  0
   51.7577    5.6981   21.1817 H   0  0  0  0  0  0  0  0  0  0  0  0
   49.0902    7.7104   15.0968 H   0  0  0  0  0  0  0  0  0  0  0  0
   50.1279    7.5303   16.5169 H   0  0  0  0  0  0  0  0  0  0  0  0
   47.9759    9.7888   18.5647 H   0  0  0  0  0  0  0  0  0  0  0  0
   49.4485    8.8139   18.6420 H   0  0  0  0  0  0  0  0  0  0  0  0
   47.4320    3.2918   17.4859 H   0  0  0  0  0  0  0  0  0  0  0  0
   50.4081    9.9592   16.6846 H   0  0  0  0  0  0  0  0  0  0  0  0
   48.9672   10.9995   16.6914 H   0  0  0  0  0  0  0  0  0  0  0  0
   49.4131   10.1361   15.2239 H   0  0  0  0  0  0  0  0  0  0  0  0
   46.1669    5.7348   22.6223 H   0  0  0  0  0  0  0  0  0  0  0  0
   50.3635    5.1849   23.2369 H   0  0  0  0  0  0  0  0  0  0  0  0
   52.3683    2.8437   17.8494 H   0  0  0  0  0  0  0  0  0  0  0  0
   48.0989    5.5233   24.1890 H   0  0  0  0  0  0  0  0  0  0  0  0
   48.5934    1.3753   16.4253 H   0  0  0  0  0  0  0  0  0  0  0  0
   51.0595    1.1642   16.6005 H   0  0  0  0  0  0  0  0  0  0  0  0
   48.9510    7.7035   20.0042 H   0  0  0  0  0  0  0  0  0  0  0  0
   47.7445    5.6073   20.3289 H   0  0  0  0  0  0  0  0  0  0  0  0
   48.8490    3.8276   17.0652 H   0  0  0  0  0  0  0  0  0  0  0  0
   51.2405    8.2771   17.5482 H   0  0  0  0  0  0  0  0  0  0  0  0
  2  3  1  0
  3  4  2  0
  4  1  1  0
  5  2  2  0
  6  1  2  0
  7  1  1  0
  8  2  1  0
 10  9  1  0
 11  9  1  0
 12  9  2  3
 13 21  1  0
 14 10  2  0
 15 10  1  0
 16 11  2  0
 17 12  1  0
 18 12  1  0
 19 16  1  0
 20 15  1  0
 21 18  1  0
 22 17  1  0
 23 11  1  0
 24 13  1  0
 25 14  1  0
 26 15  2  0
 27 16  1  0
 28 26  1  0
 29 23  2  0
 30 29  1  0
 22 13  1  0
 20 19  1  0
 27 30  2  0
 25 28  2  0
 32 33  1  0
 33 34  2  0
 34 31  1  0
 35 32  2  0
 36 31  2  0
 37 31  1  0
 38 32  1  0
  3 39  1  0
  4 40  1  0
  7 41  1  0
  8 42  1  0
 17 43  1  0
 17 44  1  0
 18 45  1  0
 18 46  1  0
 19 47  1  0
 19 48  1  0
 20 49  1  0
 20 50  1  0
 21 51  1  0
 21 52  1  0
 22 53  1  0
 22 54  1  0
 23 55  1  0
 24 56  1  0
 24 57  1  0
 24 58  1  0
 25 59  1  0
 26 60  1  0
 27 61  1  0
 28 62  1  0
 29 63  1  0
 30 64  1  0
 33 65  1  0
 34 66  1  0
 37 67  1  0
 38 68  1  0
M  END
> <Uni-Dock RESULT> 
ENERGY=   -5.181  LOWER_BOUND=    9.572  UPPER_BOUND=   12.258
INTER + INTRA:          -5.181
INTER:                  -5.181
INTRA:                   0.000
UNBOUND:                 0.000

$$$$

     RDKit          3D

 68 69  0  0  0  0  0  0  0  0999 V2000
   49.6869    7.0278   18.0165 C   0  0  0  0  0  0  0  0  0  0  0  0
   51.6778    4.8338   18.4498 C   0  0  0  0  0  0  0  0  0  0  0  0
   50.8356    4.9607   17.2539 C   0  0  0  0  0  0  0  0  0  0  0  0
   49.9739    5.9664   17.0482 C   0  0  0  0  0  0  0  0  0  0  0  0
   52.0761    5.7160   19.1842 O   0  0  0  0  0  0  0  0  0  0  0  0
   49.6544    8.2153   17.7539 O   0  0  0  0  0  0  0  0  0  0  0  0
   49.3503    6.5356   19.2150 O   0  0  0  0  0  0  0  0  0  0  0  0
   52.0082    3.5459   18.6350 O   0  0  0  0  0  0  0  0  0  0  0  0
   50.9438    5.1929   18.8639 C   0  0  0  0  0  0  0  0  0  0  0  0
   51.1612    3.8254   18.3244 C   0  0  0  0  0  0  0  0  0  0  0  0
   49.7465    5.4522   19.6958 C   0  0  0  0  0  0  0  0  0  0  0  0
   51.7369    6.2322   18.4896 C   0  0  0  0  0  0  0  0  0  0  0  0
   52.4955    8.4819   16.7354 N   0  0  0  0  0  0  0  0  0  0  0  0
   52.3788    3.2892   18.6089 N   0  0  0  0  0  0  0  0  0  0  0  0
   50.1698    3.1321   17.6153 C   0  0  0  0  0  0  0  0  0  0  0  0
   48.4832    5.4112   19.0813 C   0  0  0  0  0  0  0  0  0  0  0  0
   52.9033    6.1334   17.5170 C   0  0  0  0  0  0  0  0  0  0  0  0
   51.5400    7.6844   18.9045 C   0  0  0  0  0  0  0  0  0  0  0  0
   48.3853    5.0815   17.6122 C   0  0  0  0  0  0  0  0  0  0  0  0
   48.7685    3.6255   17.3149 C   0  0  0  0  0  0  0  0  0  0  0  0
   51.3599    8.5831   17.6710 C   0  0  0  0  0  0  0  0  0  0  0  0
   52.6977    7.0811   16.3232 C   0  0  0  0  0  0  0  0  0  0  0  0
   49.8548    5.6991   21.0685 C   0  0  0  0  0  0  0  0  0  0  0  0
   52.2637    9.3266   15.5645 C   0  0  0  0  0  0  0  0  0  0  0  0
   52.6402    2.0436   18.1674 C   0  0  0  0  0  0  0  0  0  0  0  0
   50.4951    1.8379   17.1732 C   0  0  0  0  0  0  0  0  0  0  0  0
   47.3381    5.6512   19.8505 C   0  0  0  0  0  0  0  0  0  0  0  0
   51.7403    1.2871   17.4476 C   0  0  0  0  0  0  0  0  0  0  0  0
   48.7074    5.9334   21.8263 C   0  0  0  0  0  0  0  0  0  0  0  0
   47.4531    5.9139   21.2171 C   0  0  0  0  0  0  0  0  0  0  0  0
   50.3925    5.0148   19.5162 C   0  0  0  0  0  0  0  0  0  0  0  0
   50.1801    6.3051   16.8266 C   0  0  0  0  0  0  0  0  0  0  0  0
   51.1896    5.3011   17.1814 C   0  0  0  0  0  0  0  0  0  0  0  0
   51.2529    4.6944   18.3743 C   0  0  0  0  0  0  0  0  0  0  0  0
   49.0758    6.4624   17.3084 O   0  0  0  0  0  0  0  0  0  0  0  0
   49.8041    4.1954   20.1966 O   0  0  0  0  0  0  0  0  0  0  0  0
   50.4206    6.3214   19.8133 O   0  0  0  0  0  0  0  0  0  0  0  0
   50.6341    7.0652   15.8175 O   0  0  0  0  0  0  0  0  0  0  0  0
   50.9726    4.1965   16.4978 H   0  0  0  0  0  0  0  0  0  0  0  0
   49.4472    6.0582   16.1056 H   0  0  0  0  0  0  0  0  0  0  0  0
   49.2081    7.3299   19.7698 H   0  0  0  0  0  0  0  0  0  0  0  0
   52.5576    3.5630   19.4462 H   0  0  0  0  0  0  0  0  0  0  0  0
   53.0468    5.1291   17.1117 H   0  0  0  0  0  0  0  0  0  0  0  0
   53.8294    6.3912   18.0479 H   0  0  0  0  0  0  0  0  0  0  0  0
   52.4178    8.0096   19.4783 H   0  0  0  0  0  0  0  0  0  0  0  0
   50.6756    7.8342   19.5558 H   0  0  0  0  0  0  0  0  0  0  0  0
   49.0060    5.7739   17.0312 H   0  0  0  0  0  0  0  0  0  0  0  0
   47.3572    5.2502   17.2685 H   0  0  0  0  0  0  0  0  0  0  0  0
   48.0702    2.9694   17.8524 H   0  0  0  0  0  0  0  0  0  0  0  0
   48.5901    3.4655   16.2430 H   0  0  0  0  0  0  0  0  0  0  0  0
   51.2675    9.6207   18.0137 H   0  0  0  0  0  0  0  0  0  0  0  0
   50.4199    8.3206   17.1669 H   0  0  0  0  0  0  0  0  0  0  0  0
   53.5859    7.0169   15.6830 H   0  0  0  0  0  0  0  0  0  0  0  0
   51.8425    6.7287   15.7290 H   0  0  0  0  0  0  0  0  0  0  0  0
   50.8313    5.7068   21.5453 H   0  0  0  0  0  0  0  0  0  0  0  0
   51.3590    9.0367   15.0195 H   0  0  0  0  0  0  0  0  0  0  0  0
   53.1148    9.2719   14.8766 H   0  0  0  0  0  0  0  0  0  0  0  0
   52.1637   10.3773   15.8622 H   0  0  0  0  0  0  0  0  0  0  0  0
   53.6244    1.6606   18.4183 H   0  0  0  0  0  0  0  0  0  0  0  0
   49.7656    1.2503   16.6203 H   0  0  0  0  0  0  0  0  0  0  0  0
   46.3515    5.6290   19.3947 H   0  0  0  0  0  0  0  0  0  0  0  0
   51.9972    0.2885   17.1139 H   0  0  0  0  0  0  0  0  0  0  0  0
   48.7922    6.1250   22.8920 H   0  0  0  0  0  0  0  0  0  0  0  0
   46.5596    6.0966   21.8095 H   0  0  0  0  0  0  0  0  0  0  0  0
   51.8800    5.0274   16.3926 H   0  0  0  0  0  0  0  0  0  0  0  0
   51.9575    3.8897   18.5500 H   0  0  0  0  0  0  0  0  0  0  0  0
   49.8115    6.4066   20.5746 H   0  0  0  0  0  0  0  0  0  0  0  0
   49.9129    7.7135   15.6723 H   0  0  0  0  0  0  0  0  0  0  0  0
  2  3  1  0
  3  4  2  0
  4  1  1  0
  5  2  2  0
  6  1  2  0
  7  1  1  0
  8  2  1  0
 10  9  1  0
 11  9  1  0
 12  9  2  3
 13 21  1  0
 14 10  2  0
 15 10  1  0
 16 11  2  0
 17 12  1  0
 18 12  1  0
 19 16  1  0
 20 15  1  0
 21 18  1  0
 22 17  1  0
 23 11  1  0
 24 13  1  0
 25 14  1  0
 26 15  2  0
 27 16  1  0
 28 26  1  0
 29 23  2  0
 30 29  1  0
 22 13  1  0
 20 19  1  0
 27 30  2  0
 25 28  2  0
 32 33  1  0
 33 34  2  0
 34 31  1  0
 35 32  2  0
 36 31  2  0
 37 31  1  0
 38 32  1  0
  3 39  1  0
  4 40  1  0
  7 41  1  0
  8 42  1  0
 17 43  1  0
 17 44  1  0
 18 45  1  0
 18 46  1  0
 19 47  1  0
 19 48  1  0
 20 49  1  0
 20 50  1  0
 21 51  1  0
 21 52  1  0
 22 53  1  0
 22 54  1  0
 23 55  1  0
 24 56  1  0
 24 57  1  0
 24 58  1  0
 25 59  1  0
 26 60  1  0
 27 61  1  0
 28 62  1  0
 29 63  1  0
 30 64  1  0
 33 65  1  0
 34 66  1  0
 37 67  1  0
 38 68  1  0
M  END
> <Uni-Dock RESULT> 
ENERGY=   -5.082  LOWER_BOUND=   10.860  UPPER_BOUND=   13.055
INTER + INTRA:          -5.082
INTER:                  -5.082
INTRA:                   0.000
UNBOUND:                 0.000

$$$$

     RDKit          3D

 68 69  0  0  0  0  0  0  0  0999 V2000
   48.0095    9.0347   14.8160 C   0  0  0  0  0  0  0  0  0  0  0  0
   50.2443    7.9434   13.1489 C   0  0  0  0  0  0  0  0  0  0  0  0
   50.0970    9.3593   13.5081 C   0  0  0  0  0  0  0  0  0  0  0  0
   49.1159    9.8360   14.2868 C   0  0  0  0  0  0  0  0  0  0  0  0
   49.8585    6.9691   13.7638 O   0  0  0  0  0  0  0  0  0  0  0  0
   47.6345    9.0497   15.9733 O   0  0  0  0  0  0  0  0  0  0  0  0
   47.3748    8.3572   13.8516 O   0  0  0  0  0  0  0  0  0  0  0  0
   50.9301    7.8379   11.9996 O   0  0  0  0  0  0  0  0  0  0  0  0
   49.3285    7.9676   13.1469 C   0  0  0  0  0  0  0  0  0  0  0  0
   50.2998    8.5209   12.1675 C   0  0  0  0  0  0  0  0  0  0  0  0
   47.8910    7.9407   12.7923 C   0  0  0  0  0  0  0  0  0  0  0  0
   49.7143    7.6260   14.4053 C   0  0  0  0  0  0  0  0  0  0  0  0
   50.2422    8.1902   17.2544 N   0  0  0  0  0  0  0  0  0  0  0  0
   51.3361    7.6928   11.8651 N   0  0  0  0  0  0  0  0  0  0  0  0
   50.1323    9.7804   11.5743 C   0  0  0  0  0  0  0  0  0  0  0  0
   47.2050    9.1628   12.6870 C   0  0  0  0  0  0  0  0  0  0  0  0
   51.1300    7.7542   14.9491 C   0  0  0  0  0  0  0  0  0  0  0  0
   48.7843    7.1454   15.5117 C   0  0  0  0  0  0  0  0  0  0  0  0
   47.9538   10.4535   12.9108 C   0  0  0  0  0  0  0  0  0  0  0  0
   48.9762   10.7340   11.8012 C   0  0  0  0  0  0  0  0  0  0  0  0
   48.8673    8.0735   16.7338 C   0  0  0  0  0  0  0  0  0  0  0  0
   51.1546    8.6564   16.1944 C   0  0  0  0  0  0  0  0  0  0  0  0
   47.2291    6.7362   12.5321 C   0  0  0  0  0  0  0  0  0  0  0  0
   50.2765    9.1076   18.3925 C   0  0  0  0  0  0  0  0  0  0  0  0
   52.2469    8.1206   10.9694 C   0  0  0  0  0  0  0  0  0  0  0  0
   51.1129   10.1808   10.6502 C   0  0  0  0  0  0  0  0  0  0  0  0
   45.8459    9.1597   12.3505 C   0  0  0  0  0  0  0  0  0  0  0  0
   52.1816    9.3477   10.3448 C   0  0  0  0  0  0  0  0  0  0  0  0
   45.8757    6.7445   12.1942 C   0  0  0  0  0  0  0  0  0  0  0  0
   45.1857    7.9534   12.1084 C   0  0  0  0  0  0  0  0  0  0  0  0
   48.6581    7.7934   12.6165 C   0  0  0  0  0  0  0  0  0  0  0  0
   49.2476    9.8343   14.7215 C   0  0  0  0  0  0  0  0  0  0  0  0
   50.2737    9.1534   13.9237 C   0  0  0  0  0  0  0  0  0  0  0  0
   50.0017    8.2721   12.9520 C   0  0  0  0  0  0  0  0  0  0  0  0
   48.0894   10.0527   14.4264 O   0  0  0  0  0  0  0  0  0  0  0  0
   48.2009    7.7333   11.4905 O   0  0  0  0  0  0  0  0  0  0  0  0
   48.0186    7.3045   13.6882 O   0  0  0  0  0  0  0  0  0  0  0  0
   49.7781   10.2450   15.8842 O   0  0  0  0  0  0  0  0  0  0  0  0
   50.8668   10.0233   13.1325 H   0  0  0  0  0  0  0  0  0  0  0  0
   49.1109   10.8751   14.5946 H   0  0  0  0  0  0  0  0  0  0  0  0
   46.6842    7.8518   14.3274 H   0  0  0  0  0  0  0  0  0  0  0  0
   50.9717    6.8714   11.8436 H   0  0  0  0  0  0  0  0  0  0  0  0
   51.8348    8.1771   14.2294 H   0  0  0  0  0  0  0  0  0  0  0  0
   51.5040    6.7530   15.2013 H   0  0  0  0  0  0  0  0  0  0  0  0
   49.0733    6.1255   15.7974 H   0  0  0  0  0  0  0  0  0  0  0  0
   47.7375    7.0922   15.2034 H   0  0  0  0  0  0  0  0  0  0  0  0
   48.4401   10.4384   13.8935 H   0  0  0  0  0  0  0  0  0  0  0  0
   47.2410   11.2865   12.9490 H   0  0  0  0  0  0  0  0  0  0  0  0
   48.4350   10.8218   10.8491 H   0  0  0  0  0  0  0  0  0  0  0  0
   49.4063   11.7224   12.0119 H   0  0  0  0  0  0  0  0  0  0  0  0
   48.2189    7.6655   17.5185 H   0  0  0  0  0  0  0  0  0  0  0  0
   48.4714    9.0622   16.4641 H   0  0  0  0  0  0  0  0  0  0  0  0
   52.1808    8.6717   16.5813 H   0  0  0  0  0  0  0  0  0  0  0  0
   50.9038    9.6847   15.8972 H   0  0  0  0  0  0  0  0  0  0  0  0
   47.7681    5.7944   12.5912 H   0  0  0  0  0  0  0  0  0  0  0  0
   49.9387   10.1136   18.1217 H   0  0  0  0  0  0  0  0  0  0  0  0
   51.2923    9.1806   18.7969 H   0  0  0  0  0  0  0  0  0  0  0  0
   49.6382    8.7375   19.2039 H   0  0  0  0  0  0  0  0  0  0  0  0
   53.0545    7.4255   10.7627 H   0  0  0  0  0  0  0  0  0  0  0  0
   51.0353   11.1464   10.1555 H   0  0  0  0  0  0  0  0  0  0  0  0
   45.2948   10.0931   12.2683 H   0  0  0  0  0  0  0  0  0  0  0  0
   52.9395    9.6473    9.6304 H   0  0  0  0  0  0  0  0  0  0  0  0
   45.3623    5.8090   11.9923 H   0  0  0  0  0  0  0  0  0  0  0  0
   44.1307    7.9580   11.8445 H   0  0  0  0  0  0  0  0  0  0  0  0
   51.2983    9.4385   14.1309 H   0  0  0  0  0  0  0  0  0  0  0  0
   50.7933    7.8730   12.3282 H   0  0  0  0  0  0  0  0  0  0  0  0
   47.1463    7.0288   13.3408 H   0  0  0  0  0  0  0  0  0  0  0  0
   49.0215   10.6572   16.3522 H   0  0  0  0  0  0  0  0  0  0  0  0
  2  3  1  0
  3  4  2  0
  4  1  1  0
  5  2  2  0
  6  1  2  0
  7  1  1  0
  8  2  1  0
 10  9  1  0
 11  9  1  0
 12  9  2  3
 13 21  1  0
 14 10  2  0
 15 10  1  0
 16 11  2  0
 17 12  1  0
 18 12  1  0
 19 16  1  0
 20 15  1  0
 21 18  1  0
 22 17  1  0
 23 11  1  0
 24 13  1  0
 25 14  1  0
 26 15  2  0
 27 16  1  0
 28 26  1  0
 29 23  2  0
 30 29  1  0
 22 13  1  0
 20 19  1  0
 27 30  2  0
 25 28  2  0
 32 33  1  0
 33 34  2  0
 34 31  1  0
 35 32  2  0
 36 31  2  0
 37 31  1  0
 38 32  1  0
  3 39  1  0
  4 40  1  0
  7 41  1  0
  8 42  1  0
 17 43  1  0
 17 44  1  0
 18 45  1  0
 18 46  1  0
 19 47  1  0
 19 48  1  0
 20 49  1  0
 20 50  1  0
 21 51  1  0
 21 52  1  0
 22 53  1  0
 22 54  1  0
 23 55  1  0
 24 56  1  0
 24 57  1  0
 24 58  1  0
 25 59  1  0
 26 60  1  0
 27 61  1  0
 28 62  1  0
 29 63  1  0
 30 64  1  0
 33 65  1  0
 34 66  1  0
 37 67  1  0
 38 68  1  0
M  END
> <Uni-Dock RESULT> 
ENERGY=   -4.915  LOWER_BOUND=    5.694  UPPER_BOUND=    8.333
INTER + INTRA:          -4.915
INTER:                  -4.915
INTRA:                   0.000
UNBOUND:                 0.000

$$$$

     RDKit          3D

 68 69  0  0  0  0  0  0  0  0999 V2000
   47.6811    5.8642   20.6918 C   0  0  0  0  0  0  0  0  0  0  0  0
   50.6542    6.1413   20.4704 C   0  0  0  0  0  0  0  0  0  0  0  0
   49.9763    5.0288   21.1476 C   0  0  0  0  0  0  0  0  0  0  0  0
   48.6448    4.8900   21.2100 C   0  0  0  0  0  0  0  0  0  0  0  0
   50.2451    6.8206   19.5499 O   0  0  0  0  0  0  0  0  0  0  0  0
   46.7191    5.5872   20.0005 O   0  0  0  0  0  0  0  0  0  0  0  0
   47.9134    7.0969   21.1593 O   0  0  0  0  0  0  0  0  0  0  0  0
   51.8760    6.3147   20.9989 O   0  0  0  0  0  0  0  0  0  0  0  0
   49.9369    6.6175   20.7837 C   0  0  0  0  0  0  0  0  0  0  0  0
   51.1172    6.0814   21.5104 C   0  0  0  0  0  0  0  0  0  0  0  0
   49.0298    7.5550   21.4844 C   0  0  0  0  0  0  0  0  0  0  0  0
   49.5981    6.1533   19.5512 C   0  0  0  0  0  0  0  0  0  0  0  0
   48.2258    4.2997   17.7086 N   0  0  0  0  0  0  0  0  0  0  0  0
   52.3057    6.2576   20.8723 N   0  0  0  0  0  0  0  0  0  0  0  0
   51.0115    5.4806   22.7731 C   0  0  0  0  0  0  0  0  0  0  0  0
   48.2494    7.0638   22.5450 C   0  0  0  0  0  0  0  0  0  0  0  0
   50.3538    5.0761   18.7864 C   0  0  0  0  0  0  0  0  0  0  0  0
   48.3585    6.5620   18.7662 C   0  0  0  0  0  0  0  0  0  0  0  0
   48.3781    5.6160   22.9498 C   0  0  0  0  0  0  0  0  0  0  0  0
   49.7417    5.3067   23.5822 C   0  0  0  0  0  0  0  0  0  0  0  0
   47.4856    5.3371   18.4510 C   0  0  0  0  0  0  0  0  0  0  0  0
   49.4286    3.8923   18.4573 C   0  0  0  0  0  0  0  0  0  0  0  0
   48.9680    8.9072   21.1312 C   0  0  0  0  0  0  0  0  0  0  0  0
   47.3660    3.1429   17.4621 C   0  0  0  0  0  0  0  0  0  0  0  0
   53.4223    5.8130   21.4808 C   0  0  0  0  0  0  0  0  0  0  0  0
   52.2058    5.0301   23.3621 C   0  0  0  0  0  0  0  0  0  0  0  0
   47.3869    7.9342   23.2224 C   0  0  0  0  0  0  0  0  0  0  0  0
   53.4225    5.1938   22.7124 C   0  0  0  0  0  0  0  0  0  0  0  0
   48.1079    9.7666   21.8149 C   0  0  0  0  0  0  0  0  0  0  0  0
   47.3165    9.2794   22.8546 C   0  0  0  0  0  0  0  0  0  0  0  0
   49.7648    7.3218   21.2688 C   0  0  0  0  0  0  0  0  0  0  0  0
   48.4972    4.6445   20.8575 C   0  0  0  0  0  0  0  0  0  0  0  0
   49.9262    4.9177   20.6664 C   0  0  0  0  0  0  0  0  0  0  0  0
   50.4961    6.1086   20.8943 C   0  0  0  0  0  0  0  0  0  0  0  0
   47.7114    5.2263   21.5788 O   0  0  0  0  0  0  0  0  0  0  0  0
   50.0728    8.0679   22.1793 O   0  0  0  0  0  0  0  0  0  0  0  0
   48.7732    7.5943   20.4091 O   0  0  0  0  0  0  0  0  0  0  0  0
   48.1369    3.5850   20.1161 O   0  0  0  0  0  0  0  0  0  0  0  0
   50.6243    4.2753   21.5799 H   0  0  0  0  0  0  0  0  0  0  0  0
   48.2021    4.0002   21.6422 H   0  0  0  0  0  0  0  0  0  0  0  0
   47.2294    7.6501   20.7292 H   0  0  0  0  0  0  0  0  0  0  0  0
   52.2414    7.0697   20.4924 H   0  0  0  0  0  0  0  0  0  0  0  0
   51.2100    4.6749   19.3336 H   0  0  0  0  0  0  0  0  0  0  0  0
   50.7514    5.5126   17.8605 H   0  0  0  0  0  0  0  0  0  0  0  0
   48.6754    7.0447   17.8324 H   0  0  0  0  0  0  0  0  0  0  0  0
   47.7353    7.2899   19.2911 H   0  0  0  0  0  0  0  0  0  0  0  0
   48.1941    4.9678   22.0847 H   0  0  0  0  0  0  0  0  0  0  0  0
   47.5920    5.3688   23.6740 H   0  0  0  0  0  0  0  0  0  0  0  0
   49.8471    5.9184   24.4888 H   0  0  0  0  0  0  0  0  0  0  0  0
   49.7062    4.2593   23.9107 H   0  0  0  0  0  0  0  0  0  0  0  0
   46.6320    5.6705   17.8486 H   0  0  0  0  0  0  0  0  0  0  0  0
   47.0842    4.9286   19.3885 H   0  0  0  0  0  0  0  0  0  0  0  0
   50.0001    3.1718   17.8597 H   0  0  0  0  0  0  0  0  0  0  0  0
   49.1459    3.3876   19.3922 H   0  0  0  0  0  0  0  0  0  0  0  0
   49.5902    9.2890   20.3261 H   0  0  0  0  0  0  0  0  0  0  0  0
   47.0061    2.6908   18.3924 H   0  0  0  0  0  0  0  0  0  0  0  0
   47.9048    2.3783   16.8914 H   0  0  0  0  0  0  0  0  0  0  0  0
   46.4954    3.4321   16.8612 H   0  0  0  0  0  0  0  0  0  0  0  0
   54.3445    5.9754   20.9318 H   0  0  0  0  0  0  0  0  0  0  0  0
   52.1873    4.5583   24.3420 H   0  0  0  0  0  0  0  0  0  0  0  0
   46.7707    7.5745   24.0425 H   0  0  0  0  0  0  0  0  0  0  0  0
   54.3481    4.8531   23.1616 H   0  0  0  0  0  0  0  0  0  0  0  0
   48.0604   10.8163   21.5401 H   0  0  0  0  0  0  0  0  0  0  0  0
   46.6466    9.9510   23.3867 H   0  0  0  0  0  0  0  0  0  0  0  0
   50.5320    4.0714   20.3655 H   0  0  0  0  0  0  0  0  0  0  0  0
   51.5715    6.2295   20.8317 H   0  0  0  0  0  0  0  0  0  0  0  0
   48.3642    8.4084   20.7662 H   0  0  0  0  0  0  0  0  0  0  0  0
   47.1751    3.4987   20.2863 H   0  0  0  0  0  0  0  0  0  0  0  0
  2  3  1  0
  3  4  2  0
  4  1  1  0
  5  2  2  0
  6  1  2  0
  7  1  1  0
  8  2  1  0
 10  9  1  0
 11  9  1  0
 12  9  2  3
 13 21  1  0
 14 10  2  0
 15 10  1  0
 16 11  2  0
 17 12  1  0
 18 12  1  0
 19 16  1  0
 20 15  1  0
 21 18  1  0
 22 17  1  0
 23 11  1  0
 24 13  1  0
 25 14  1  0
 26 15  2  0
 27 16  1  0
 28 26  1  0
 29 23  2  0
 30 29  1  0
 22 13  1  0
 20 19  1  0
 27 30  2  0
 25 28  2  0
 32 33  1  0
 33 34  2  0
 34 31  1  0
 35 32  2  0
 36 31  2  0
 37 31  1  0
 38 32  1  0
  3 39  1  0
  4 40  1  0
  7 41  1  0
  8 42  1  0
 17 43  1  0
 17 44  1  0
 18 45  1  0
 18 46  1  0
 19 47  1  0
 19 48  1  0
 20 49  1  0
 20 50  1  0
 21 51  1  0
 21 52  1  0
 22 53  1  0
 22 54  1  0
 23 55  1  0
 24 56  1  0
 24 57  1  0
 24 58  1  0
 25 59  1  0
 26 60  1  0
 27 61  1  0
 28 62  1  0
 29 63  1  0
 30 64  1  0
 33 65  1  0
 34 66  1  0
 37 67  1  0
 38 68  1  0
M  END
> <Uni-Dock RESULT> 
ENERGY=   -4.741  LOWER_BOUND=   11.488  UPPER_BOUND=   13.959
INTER + INTRA:          -4.741
INTER:                  -4.741
INTRA:                   0.000
UNBOUND:                 0.000

$$$$

     RDKit          3D

 68 69  0  0  0  0  0  0  0  0999 V2000
   48.2820    6.5278   19.2585 C   0  0  0  0  0  0  0  0  0  0  0  0
   50.6513    4.9366   20.1637 C   0  0  0  0  0  0  0  0  0  0  0  0
   50.7339    6.2790   19.5748 C   0  0  0  0  0  0  0  0  0  0  0  0
   49.6672    7.0022   19.2071 C   0  0  0  0  0  0  0  0  0  0  0  0
   49.7348    4.4492   20.7952 O   0  0  0  0  0  0  0  0  0  0  0  0
   47.3509    7.1564   19.7253 O   0  0  0  0  0  0  0  0  0  0  0  0
   48.1291    5.3573   18.6272 O   0  0  0  0  0  0  0  0  0  0  0  0
   51.7961    4.2729   19.9375 O   0  0  0  0  0  0  0  0  0  0  0  0
   49.9415    4.8543   19.5903 C   0  0  0  0  0  0  0  0  0  0  0  0
   51.4006    4.8558   19.3084 C   0  0  0  0  0  0  0  0  0  0  0  0
   49.0040    4.4725   18.5096 C   0  0  0  0  0  0  0  0  0  0  0  0
   49.4505    5.3336   20.7644 C   0  0  0  0  0  0  0  0  0  0  0  0
   48.4434    7.4711   22.5338 N   0  0  0  0  0  0  0  0  0  0  0  0
   52.1481    4.1228   20.1774 N   0  0  0  0  0  0  0  0  0  0  0  0
   51.9514    5.5270   18.2073 C   0  0  0  0  0  0  0  0  0  0  0  0
   48.8675    5.3335   17.4072 C   0  0  0  0  0  0  0  0  0  0  0  0
   50.2945    5.9031   21.8956 C   0  0  0  0  0  0  0  0  0  0  0  0
   47.9737    5.4682   21.1121 C   0  0  0  0  0  0  0  0  0  0  0  0
   49.6923    6.5955   17.3474 C   0  0  0  0  0  0  0  0  0  0  0  0
   51.1872    6.3061   17.1555 C   0  0  0  0  0  0  0  0  0  0  0  0
   47.6217    6.9286   21.4358 C   0  0  0  0  0  0  0  0  0  0  0  0
   49.8767    7.3493   22.2109 C   0  0  0  0  0  0  0  0  0  0  0  0
   48.2915    3.2695   18.5568 C   0  0  0  0  0  0  0  0  0  0  0  0
   48.0968    8.8699   22.7821 C   0  0  0  0  0  0  0  0  0  0  0  0
   53.4783    4.0629   19.9729 C   0  0  0  0  0  0  0  0  0  0  0  0
   53.3444    5.4363   18.0421 C   0  0  0  0  0  0  0  0  0  0  0  0
   47.9880    4.9900   16.3733 C   0  0  0  0  0  0  0  0  0  0  0  0
   54.1175    4.7011   18.9317 C   0  0  0  0  0  0  0  0  0  0  0  0
   47.4206    2.9351   17.5197 C   0  0  0  0  0  0  0  0  0  0  0  0
   47.2665    3.7960   16.4335 C   0  0  0  0  0  0  0  0  0  0  0  0
   49.6612    4.3369   18.9462 C   0  0  0  0  0  0  0  0  0  0  0  0
   49.5290    7.2624   19.5529 C   0  0  0  0  0  0  0  0  0  0  0  0
   50.5843    6.3668   20.0399 C   0  0  0  0  0  0  0  0  0  0  0  0
   50.6625    5.0660   19.7291 C   0  0  0  0  0  0  0  0  0  0  0  0
   48.8461    7.1452   18.5547 O   0  0  0  0  0  0  0  0  0  0  0  0
   49.9101    3.5976   18.0125 O   0  0  0  0  0  0  0  0  0  0  0  0
   48.4289    4.4770   19.4546 O   0  0  0  0  0  0  0  0  0  0  0  0
   49.4155    8.3166   20.3762 O   0  0  0  0  0  0  0  0  0  0  0  0
   51.7316    6.6917   19.4808 H   0  0  0  0  0  0  0  0  0  0  0  0
   49.7841    8.0238   18.8649 H   0  0  0  0  0  0  0  0  0  0  0  0
   47.1824    5.1395   18.7503 H   0  0  0  0  0  0  0  0  0  0  0  0
   51.6441    3.4007   20.3576 H   0  0  0  0  0  0  0  0  0  0  0  0
   51.3644    5.9165   21.6746 H   0  0  0  0  0  0  0  0  0  0  0  0
   50.1671    5.2714   22.7847 H   0  0  0  0  0  0  0  0  0  0  0  0
   47.7558    4.8308   21.9791 H   0  0  0  0  0  0  0  0  0  0  0  0
   47.3093    5.1342   20.3116 H   0  0  0  0  0  0  0  0  0  0  0  0
   49.5245    7.1953   18.2498 H   0  0  0  0  0  0  0  0  0  0  0  0
   49.3461    7.2179   16.5129 H   0  0  0  0  0  0  0  0  0  0  0  0
   51.3154    5.7769   16.2013 H   0  0  0  0  0  0  0  0  0  0  0  0
   51.6847    7.2792   17.0459 H   0  0  0  0  0  0  0  0  0  0  0  0
   46.5643    6.9706   21.7232 H   0  0  0  0  0  0  0  0  0  0  0  0
   47.7383    7.5378   20.5291 H   0  0  0  0  0  0  0  0  0  0  0  0
   50.4708    7.6947   23.0657 H   0  0  0  0  0  0  0  0  0  0  0  0
   50.1333    7.9911   21.3560 H   0  0  0  0  0  0  0  0  0  0  0  0
   48.4170    2.5946   19.3993 H   0  0  0  0  0  0  0  0  0  0  0  0
   48.2644    9.4990   21.9014 H   0  0  0  0  0  0  0  0  0  0  0  0
   48.6892    9.2711   23.6120 H   0  0  0  0  0  0  0  0  0  0  0  0
   47.0431    8.9590   23.0727 H   0  0  0  0  0  0  0  0  0  0  0  0
   54.0308    3.4676   20.6930 H   0  0  0  0  0  0  0  0  0  0  0  0
   53.8286    5.9338   17.2048 H   0  0  0  0  0  0  0  0  0  0  0  0
   47.8635    5.6435   15.5136 H   0  0  0  0  0  0  0  0  0  0  0  0
   55.1914    4.6228   18.8088 H   0  0  0  0  0  0  0  0  0  0  0  0
   46.8677    2.0010   17.5570 H   0  0  0  0  0  0  0  0  0  0  0  0
   46.5872    3.5336   15.6257 H   0  0  0  0  0  0  0  0  0  0  0  0
   51.3523    6.8299   20.6478 H   0  0  0  0  0  0  0  0  0  0  0  0
   51.5166    4.4732   20.0359 H   0  0  0  0  0  0  0  0  0  0  0  0
   47.8605    3.9586   18.8497 H   0  0  0  0  0  0  0  0  0  0  0  0
   48.6788    8.8353   19.9894 H   0  0  0  0  0  0  0  0  0  0  0  0
  2  3  1  0
  3  4  2  0
  4  1  1  0
  5  2  2  0
  6  1  2  0
  7  1  1  0
  8  2  1  0
 10  9  1  0
 11  9  1  0
 12  9  2  3
 13 21  1  0
 14 10  2  0
 15 10  1  0
 16 11  2  0
 17 12  1  0
 18 12  1  0
 19 16  1  0
 20 15  1  0
 21 18  1  0
 22 17  1  0
 23 11  1  0
 24 13  1  0
 25 14  1  0
 26 15  2  0
 27 16  1  0
 28 26  1  0
 29 23  2  0
 30 29  1  0
 22 13  1  0
 20 19  1  0
 27 30  2  0
 25 28  2  0
 32 33  1  0
 33 34  2  0
 34 31  1  0
 35 32  2  0
 36 31  2  0
 37 31  1  0
 38 32  1  0
  3 39  1  0
  4 40  1  0
  7 41  1  0
  8 42  1  0
 17 43  1  0
 17 44  1  0
 18 45  1  0
 18 46  1  0
 19 47  1  0
 19 48  1  0
 20 49  1  0
 20 50  1  0
 21 51  1  0
 21 52  1  0
 22 53  1  0
 22 54  1  0
 23 55  1  0
 24 56  1  0
 24 57  1  0
 24 58  1  0
 25 59  1  0
 26 60  1  0
 27 61  1  0
 28 62  1  0
 29 63  1  0
 30 64  1  0
 33 65  1  0
 34 66  1  0
 37 67  1  0
 38 68  1  0
M  END
> <Uni-Dock RESULT> 
ENERGY=   -4.641  LOWER_BOUND=   10.775  UPPER_BOUND=   12.983
INTER + INTRA:          -4.641
INTER:                  -4.641
INTRA:                   0.000
UNBOUND:                 0.000

$$$$

     RDKit          3D

 68 69  0  0  0  0  0  0  0  0999 V2000
   49.2937    8.0891   12.1293 C   0  0  0  0  0  0  0  0  0  0  0  0
   48.7848    9.7815   14.5462 C   0  0  0  0  0  0  0  0  0  0  0  0
   49.6338    8.5837   14.5404 C   0  0  0  0  0  0  0  0  0  0  0  0
   49.8890    7.8521   13.4468 C   0  0  0  0  0  0  0  0  0  0  0  0
   48.5483   10.5382   13.6256 O   0  0  0  0  0  0  0  0  0  0  0  0
   49.9152    8.1239   11.0840 O   0  0  0  0  0  0  0  0  0  0  0  0
   47.9579    8.1540   12.1869 O   0  0  0  0  0  0  0  0  0  0  0  0
   48.2900    9.9785   15.7785 O   0  0  0  0  0  0  0  0  0  0  0  0
   48.3105    9.3077   13.9218 C   0  0  0  0  0  0  0  0  0  0  0  0
   48.4000    9.1231   15.3937 C   0  0  0  0  0  0  0  0  0  0  0  0
   47.2885    8.5482   13.1659 C   0  0  0  0  0  0  0  0  0  0  0  0
   49.2356   10.0406   13.2463 C   0  0  0  0  0  0  0  0  0  0  0  0
   51.7846   10.3980   11.8010 N   0  0  0  0  0  0  0  0  0  0  0  0
   48.3411   10.2749   16.1155 N   0  0  0  0  0  0  0  0  0  0  0  0
   48.4949    7.8559   15.9866 C   0  0  0  0  0  0  0  0  0  0  0  0
   47.4340    7.1544   13.0590 C   0  0  0  0  0  0  0  0  0  0  0  0
   50.4273   10.7417   13.8823 C   0  0  0  0  0  0  0  0  0  0  0  0
   49.2919   10.2097   11.7336 C   0  0  0  0  0  0  0  0  0  0  0  0
   48.6022    6.4785   13.7335 C   0  0  0  0  0  0  0  0  0  0  0  0
   48.4972    6.5235   15.2639 C   0  0  0  0  0  0  0  0  0  0  0  0
   50.6363    9.7119   11.1800 C   0  0  0  0  0  0  0  0  0  0  0  0
   51.7449   10.2417   13.2663 C   0  0  0  0  0  0  0  0  0  0  0  0
   46.1817    9.1870   12.5968 C   0  0  0  0  0  0  0  0  0  0  0  0
   53.0393    9.8683   11.2684 C   0  0  0  0  0  0  0  0  0  0  0  0
   48.3976   10.1833   17.4583 C   0  0  0  0  0  0  0  0  0  0  0  0
   48.5553    7.8163   17.3904 C   0  0  0  0  0  0  0  0  0  0  0  0
   46.4774    6.4172   12.3506 C   0  0  0  0  0  0  0  0  0  0  0  0
   48.5090    8.9877   18.1354 C   0  0  0  0  0  0  0  0  0  0  0  0
   45.2326    8.4426   11.8961 C   0  0  0  0  0  0  0  0  0  0  0  0
   45.3834    7.0620   11.7700 C   0  0  0  0  0  0  0  0  0  0  0  0
   47.5005    9.0167   13.7795 C   0  0  0  0  0  0  0  0  0  0  0  0
   50.2631    8.0062   13.2404 C   0  0  0  0  0  0  0  0  0  0  0  0
   49.9210    8.9288   14.3289 C   0  0  0  0  0  0  0  0  0  0  0  0
   48.6748    9.3439   14.5925 C   0  0  0  0  0  0  0  0  0  0  0  0
   49.5474    7.1894   12.6957 O   0  0  0  0  0  0  0  0  0  0  0  0
   46.4393    8.6148   14.2185 O   0  0  0  0  0  0  0  0  0  0  0  0
   47.6820    9.3296   12.4889 O   0  0  0  0  0  0  0  0  0  0  0  0
   51.5560    8.1553   12.9114 O   0  0  0  0  0  0  0  0  0  0  0  0
   50.0935    8.3274   15.4878 H   0  0  0  0  0  0  0  0  0  0  0  0
   50.5975    7.0330   13.4835 H   0  0  0  0  0  0  0  0  0  0  0  0
   47.6859    8.3355   11.2639 H   0  0  0  0  0  0  0  0  0  0  0  0
   47.7419   10.7849   15.6810 H   0  0  0  0  0  0  0  0  0  0  0  0
   50.4961   10.5879   14.9618 H   0  0  0  0  0  0  0  0  0  0  0  0
   50.3252   11.8240   13.7270 H   0  0  0  0  0  0  0  0  0  0  0  0
   49.1594   11.2726   11.4922 H   0  0  0  0  0  0  0  0  0  0  0  0
   48.4963    9.6750   11.2093 H   0  0  0  0  0  0  0  0  0  0  0  0
   49.5423    6.9295   13.3943 H   0  0  0  0  0  0  0  0  0  0  0  0
   48.6490    5.4293   13.4164 H   0  0  0  0  0  0  0  0  0  0  0  0
   47.5842    5.9900   15.5619 H   0  0  0  0  0  0  0  0  0  0  0  0
   49.3436    5.9429   15.6548 H   0  0  0  0  0  0  0  0  0  0  0  0
   50.6501    9.8942   10.0987 H   0  0  0  0  0  0  0  0  0  0  0  0
   50.7086    8.6260   11.3292 H   0  0  0  0  0  0  0  0  0  0  0  0
   52.5666   10.8141   13.7137 H   0  0  0  0  0  0  0  0  0  0  0  0
   51.8934    9.1884   13.5440 H   0  0  0  0  0  0  0  0  0  0  0  0
   46.0595   10.2617   12.7014 H   0  0  0  0  0  0  0  0  0  0  0  0
   53.1497    8.7961   11.4627 H   0  0  0  0  0  0  0  0  0  0  0  0
   53.8952   10.3903   11.7106 H   0  0  0  0  0  0  0  0  0  0  0  0
   53.0952   10.0289   10.1851 H   0  0  0  0  0  0  0  0  0  0  0  0
   48.3483   11.1288   17.9891 H   0  0  0  0  0  0  0  0  0  0  0  0
   48.6269    6.8619   17.9072 H   0  0  0  0  0  0  0  0  0  0  0  0
   46.5729    5.3389   12.2514 H   0  0  0  0  0  0  0  0  0  0  0  0
   48.5508    8.9654   19.2181 H   0  0  0  0  0  0  0  0  0  0  0  0
   44.3735    8.9392   11.4545 H   0  0  0  0  0  0  0  0  0  0  0  0
   44.6423    6.4832   11.2235 H   0  0  0  0  0  0  0  0  0  0  0  0
   50.7442    9.2361   14.9628 H   0  0  0  0  0  0  0  0  0  0  0  0
   48.4652    9.9473   15.4683 H   0  0  0  0  0  0  0  0  0  0  0  0
   46.8453    9.0614   12.0580 H   0  0  0  0  0  0  0  0  0  0  0  0
   51.6809    7.5268   12.1692 H   0  0  0  0  0  0  0  0  0  0  0  0
  2  3  1  0
  3  4  2  0
  4  1  1  0
  5  2  2  0
  6  1  2  0
  7  1  1  0
  8  2  1  0
 10  9  1  0
 11  9  1  0
 12  9  2  3
 13 21  1  0
 14 10  2  0
 15 10  1  0
 16 11  2  0
 17 12  1  0
 18 12  1  0
 19 16  1  0
 20 15  1  0
 21 18  1  0
 22 17  1  0
 23 11  1  0
 24 13  1  0
 25 14  1  0
 26 15  2  0
 27 16  1  0
 28 26  1  0
 29 23  2  0
 30 29  1  0
 22 13  1  0
 20 19  1  0
 27 30  2  0
 25 28  2  0
 32 33  1  0
 33 34  2  0
 34 31  1  0
 35 32  2  0
 36 31  2  0
 37 31  1  0
 38 32  1  0
  3 39  1  0
  4 40  1  0
  7 41  1  0
  8 42  1  0
 17 43  1  0
 17 44  1  0
 18 45  1  0
 18 46  1  0
 19 47  1  0
 19 48  1  0
 20 49  1  0
 20 50  1  0
 21 51  1  0
 21 52  1  0
 22 53  1  0
 22 54  1  0
 23 55  1  0
 24 56  1  0
 24 57  1  0
 24 58  1  0
 25 59  1  0
 26 60  1  0
 27 61  1  0
 28 62  1  0
 29 63  1  0
 30 64  1  0
 33 65  1  0
 34 66  1  0
 37 67  1  0
 38 68  1  0
M  END
> <Uni-Dock RESULT> 
ENERGY=   -4.637  LOWER_BOUND=    5.332  UPPER_BOUND=    8.277
INTER + INTRA:          -4.637
INTER:                  -4.637
INTRA:                   0.000
UNBOUND:                 0.000

$$$$

     RDKit          3D

 68 69  0  0  0  0  0  0  0  0999 V2000
   50.6233    5.4573   18.1485 C   0  0  0  0  0  0  0  0  0  0  0  0
   48.7826    7.8042   18.4109 C   0  0  0  0  0  0  0  0  0  0  0  0
   49.7066    7.3576   19.4608 C   0  0  0  0  0  0  0  0  0  0  0  0
   50.5558    6.3300   19.3234 C   0  0  0  0  0  0  0  0  0  0  0  0
   48.8949    7.6756   17.2079 O   0  0  0  0  0  0  0  0  0  0  0  0
   51.6503    5.1404   17.5786 O   0  0  0  0  0  0  0  0  0  0  0  0
   49.4259    4.9494   17.8317 O   0  0  0  0  0  0  0  0  0  0  0  0
   47.7419    8.4442   18.9672 O   0  0  0  0  0  0  0  0  0  0  0  0
   48.7377    6.9073   18.2295 C   0  0  0  0  0  0  0  0  0  0  0  0
   48.1502    7.6844   19.3518 C   0  0  0  0  0  0  0  0  0  0  0  0
   48.3227    5.4986   18.0397 C   0  0  0  0  0  0  0  0  0  0  0  0
   49.7470    7.4157   17.4731 C   0  0  0  0  0  0  0  0  0  0  0  0
   52.5872    7.9291   16.8535 N   0  0  0  0  0  0  0  0  0  0  0  0
   47.5821    8.8661   18.9887 N   0  0  0  0  0  0  0  0  0  0  0  0
   48.1477    7.2110   20.6718 C   0  0  0  0  0  0  0  0  0  0  0  0
   48.7133    4.5508   19.0011 C   0  0  0  0  0  0  0  0  0  0  0  0
   50.3747    8.7888   17.6649 C   0  0  0  0  0  0  0  0  0  0  0  0
   50.4827    6.6682   16.3687 C   0  0  0  0  0  0  0  0  0  0  0  0
   49.5139    4.9986   20.1990 C   0  0  0  0  0  0  0  0  0  0  0  0
   48.6946    5.8811   21.1505 C   0  0  0  0  0  0  0  0  0  0  0  0
   51.9876    6.5941   16.6708 C   0  0  0  0  0  0  0  0  0  0  0  0
   51.8861    8.6649   17.9214 C   0  0  0  0  0  0  0  0  0  0  0  0
   47.5315    5.1142   16.9519 C   0  0  0  0  0  0  0  0  0  0  0  0
   54.0091    7.8063   17.1716 C   0  0  0  0  0  0  0  0  0  0  0  0
   47.0124    9.6163   19.9518 C   0  0  0  0  0  0  0  0  0  0  0  0
   47.5447    8.0341   21.6387 C   0  0  0  0  0  0  0  0  0  0  0  0
   48.3295    3.2138   18.8417 C   0  0  0  0  0  0  0  0  0  0  0  0
   46.9737    9.2484   21.2797 C   0  0  0  0  0  0  0  0  0  0  0  0
   47.1515    3.7802   16.8045 C   0  0  0  0  0  0  0  0  0  0  0  0
   47.5539    2.8324   17.7450 C   0  0  0  0  0  0  0  0  0  0  0  0
   48.1458    6.2705   18.1572 C   0  0  0  0  0  0  0  0  0  0  0  0
   50.9544    6.4779   19.1634 C   0  0  0  0  0  0  0  0  0  0  0  0
   50.0028    7.5945   19.1406 C   0  0  0  0  0  0  0  0  0  0  0  0
   48.7324    7.4852   18.7294 C   0  0  0  0  0  0  0  0  0  0  0  0
   50.7148    5.2883   19.2245 O   0  0  0  0  0  0  0  0  0  0  0  0
   47.0788    5.7890   18.4893 O   0  0  0  0  0  0  0  0  0  0  0  0
   48.8635    5.8060   17.1250 O   0  0  0  0  0  0  0  0  0  0  0  0
   52.2095    6.9534   19.1382 O   0  0  0  0  0  0  0  0  0  0  0  0
   49.6988    7.9405   20.3745 H   0  0  0  0  0  0  0  0  0  0  0  0
   51.2797    6.1046   20.0977 H   0  0  0  0  0  0  0  0  0  0  0  0
   49.5968    4.4123   17.0309 H   0  0  0  0  0  0  0  0  0  0  0  0
   47.1881    8.6956   18.1990 H   0  0  0  0  0  0  0  0  0  0  0  0
   49.9495    9.3475   18.5020 H   0  0  0  0  0  0  0  0  0  0  0  0
   50.1932    9.3898   16.7639 H   0  0  0  0  0  0  0  0  0  0  0  0
   50.3182    7.1920   15.4179 H   0  0  0  0  0  0  0  0  0  0  0  0
   50.1208    5.6476   16.2227 H   0  0  0  0  0  0  0  0  0  0  0  0
   50.4211    5.5190   19.8696 H   0  0  0  0  0  0  0  0  0  0  0  0
   49.8649    4.1188   20.7524 H   0  0  0  0  0  0  0  0  0  0  0  0
   47.8430    5.2922   21.5182 H   0  0  0  0  0  0  0  0  0  0  0  0
   49.3347    6.0863   22.0192 H   0  0  0  0  0  0  0  0  0  0  0  0
   52.4812    6.0899   15.8313 H   0  0  0  0  0  0  0  0  0  0  0  0
   52.1468    5.9740   17.5636 H   0  0  0  0  0  0  0  0  0  0  0  0
   52.3012    9.6774   17.9957 H   0  0  0  0  0  0  0  0  0  0  0  0
   52.0460    8.1758   18.8929 H   0  0  0  0  0  0  0  0  0  0  0  0
   47.2112    5.8537   16.2229 H   0  0  0  0  0  0  0  0  0  0  0  0
   54.1781    7.2387   18.0930 H   0  0  0  0  0  0  0  0  0  0  0  0
   54.4641    8.7964   17.2866 H   0  0  0  0  0  0  0  0  0  0  0  0
   54.5435    7.3046   16.3560 H   0  0  0  0  0  0  0  0  0  0  0  0
   46.5744   10.5498   19.6128 H   0  0  0  0  0  0  0  0  0  0  0  0
   47.5098    7.7189   22.6791 H   0  0  0  0  0  0  0  0  0  0  0  0
   48.6246    2.4634   19.5707 H   0  0  0  0  0  0  0  0  0  0  0  0
   46.5032    9.8867   22.0184 H   0  0  0  0  0  0  0  0  0  0  0  0
   46.5373    3.4824   15.9598 H   0  0  0  0  0  0  0  0  0  0  0  0
   47.2565    1.7927   17.6286 H   0  0  0  0  0  0  0  0  0  0  0  0
   50.3719    8.5366   19.5280 H   0  0  0  0  0  0  0  0  0  0  0  0
   48.0451    8.3178   18.8257 H   0  0  0  0  0  0  0  0  0  0  0  0
   48.3810    5.0037   16.8401 H   0  0  0  0  0  0  0  0  0  0  0  0
   52.7642    6.1448   19.1284 H   0  0  0  0  0  0  0  0  0  0  0  0
  2  3  1  0
  3  4  2  0
  4  1  1  0
  5  2  2  0
  6  1  2  0
  7  1  1  0
  8  2  1  0
 10  9  1  0
 11  9  1  0
 12  9  2  3
 13 21  1  0
 14 10  2  0
 15 10  1  0
 16 11  2  0
 17 12  1  0
 18 12  1  0
 19 16  1  0
 20 15  1  0
 21 18  1  0
 22 17  1  0
 23 11  1  0
 24 13  1  0
 25 14  1  0
 26 15  2  0
 27 16  1  0
 28 26  1  0
 29 23  2  0
 30 29  1  0
 22 13  1  0
 20 19  1  0
 27 30  2  0
 25 28  2  0
 32 33  1  0
 33 34  2  0
 34 31  1  0
 35 32  2  0
 36 31  2  0
 37 31  1  0
 38 32  1  0
  3 39  1  0
  4 40  1  0
  7 41  1  0
  8 42  1  0
 17 43  1  0
 17 44  1  0
 18 45  1  0
 18 46  1  0
 19 47  1  0
 19 48  1  0
 20 49  1  0
 20 50  1  0
 21 51  1  0
 21 52  1  0
 22 53  1  0
 22 54  1  0
 23 55  1  0
 24 56  1  0
 24 57  1  0
 24 58  1  0
 25 59  1  0
 26 60  1  0
 27 61  1  0
 28 62  1  0
 29 63  1  0
 30 64  1  0
 33 65  1  0
 34 66  1  0
 37 67  1  0
 38 68  1  0
M  END
> <Uni-Dock RESULT> 
ENERGY=   -4.509  LOWER_BOUND=   10.227  UPPER_BOUND=   12.225
INTER + INTRA:          -4.509
INTER:                  -4.509
INTRA:                   0.000
UNBOUND:                 0.000

$$$$

     RDKit          3D

 68 69  0  0  0  0  0  0  0  0999 V2000
   49.7178    7.6993   20.2391 C   0  0  0  0  0  0  0  0  0  0  0  0
   47.7730    5.7803   19.0143 C   0  0  0  0  0  0  0  0  0  0  0  0
   49.1082    5.4074   19.4980 C   0  0  0  0  0  0  0  0  0  0  0  0
   49.9594    6.2630   20.0806 C   0  0  0  0  0  0  0  0  0  0  0  0
   47.0604    6.6851   19.4011 O   0  0  0  0  0  0  0  0  0  0  0  0
   49.8859    8.3207   21.2714 O   0  0  0  0  0  0  0  0  0  0  0  0
   49.3933    8.2842   19.0795 O   0  0  0  0  0  0  0  0  0  0  0  0
   47.3877    4.9289   18.0505 O   0  0  0  0  0  0  0  0  0  0  0  0
   48.1949    6.5657   18.8037 C   0  0  0  0  0  0  0  0  0  0  0  0
   48.2760    5.2338   18.1495 C   0  0  0  0  0  0  0  0  0  0  0  0
   48.8015    7.7343   18.1259 C   0  0  0  0  0  0  0  0  0  0  0  0
   47.7092    6.7018   20.0665 C   0  0  0  0  0  0  0  0  0  0  0  0
   47.9634    6.7484   23.0071 N   0  0  0  0  0  0  0  0  0  0  0  0
   47.0809    4.6018   17.9970 N   0  0  0  0  0  0  0  0  0  0  0  0
   49.4869    4.6959   17.6901 C   0  0  0  0  0  0  0  0  0  0  0  0
   50.2013    7.7900   18.0132 C   0  0  0  0  0  0  0  0  0  0  0  0
   47.2017    5.5589   20.9341 C   0  0  0  0  0  0  0  0  0  0  0  0
   47.6744    8.0004   20.8617 C   0  0  0  0  0  0  0  0  0  0  0  0
   51.0334    6.6554   18.5582 C   0  0  0  0  0  0  0  0  0  0  0  0
   50.8479    5.3597   17.7571 C   0  0  0  0  0  0  0  0  0  0  0  0
   48.4633    7.8570   22.1727 C   0  0  0  0  0  0  0  0  0  0  0  0
   47.9926    5.4832   22.2510 C   0  0  0  0  0  0  0  0  0  0  0  0
   48.0093    8.7478   17.5763 C   0  0  0  0  0  0  0  0  0  0  0  0
   48.7647    6.6300   24.2246 C   0  0  0  0  0  0  0  0  0  0  0  0
   47.0749    3.3970   17.3944 C   0  0  0  0  0  0  0  0  0  0  0  0
   49.4260    3.4344   17.0729 C   0  0  0  0  0  0  0  0  0  0  0  0
   50.7950    8.8852   17.3740 C   0  0  0  0  0  0  0  0  0  0  0  0
   48.2121    2.7756   16.9244 C   0  0  0  0  0  0  0  0  0  0  0  0
   48.6107    9.8327   16.9383 C   0  0  0  0  0  0  0  0  0  0  0  0
   50.0002    9.9025   16.8420 C   0  0  0  0  0  0  0  0  0  0  0  0
   48.3353    7.0835   18.1157 C   0  0  0  0  0  0  0  0  0  0  0  0
   49.8969    6.2626   20.5305 C   0  0  0  0  0  0  0  0  0  0  0  0
   48.8425    5.4485   19.9152 C   0  0  0  0  0  0  0  0  0  0  0  0
   48.1763    5.8019   18.8078 C   0  0  0  0  0  0  0  0  0  0  0  0
   50.6017    7.1008   20.0043 O   0  0  0  0  0  0  0  0  0  0  0  0
   48.4899    7.2127   16.9157 O   0  0  0  0  0  0  0  0  0  0  0  0
   48.1664    8.1240   18.9435 O   0  0  0  0  0  0  0  0  0  0  0  0
   50.0253    5.9319   21.8252 O   0  0  0  0  0  0  0  0  0  0  0  0
   49.3721    4.3615   19.3934 H   0  0  0  0  0  0  0  0  0  0  0  0
   50.8938    5.9113   20.5020 H   0  0  0  0  0  0  0  0  0  0  0  0
   49.2366    9.2209   19.3182 H   0  0  0  0  0  0  0  0  0  0  0  0
   46.5014    5.2579   17.7928 H   0  0  0  0  0  0  0  0  0  0  0  0
   47.2799    4.5810   20.4532 H   0  0  0  0  0  0  0  0  0  0  0  0
   46.1357    5.7199   21.1431 H   0  0  0  0  0  0  0  0  0  0  0  0
   46.6284    8.2519   21.0811 H   0  0  0  0  0  0  0  0  0  0  0  0
   48.0863    8.8524   20.3156 H   0  0  0  0  0  0  0  0  0  0  0  0
   50.7996    6.4951   19.6174 H   0  0  0  0  0  0  0  0  0  0  0  0
   52.0938    6.9353   18.5310 H   0  0  0  0  0  0  0  0  0  0  0  0
   51.1708    5.5451   16.7235 H   0  0  0  0  0  0  0  0  0  0  0  0
   51.5474    4.6256   18.1792 H   0  0  0  0  0  0  0  0  0  0  0  0
   48.3733    8.7965   22.7311 H   0  0  0  0  0  0  0  0  0  0  0  0
   49.5276    7.7157   21.9402 H   0  0  0  0  0  0  0  0  0  0  0  0
   47.5550    4.6855   22.8634 H   0  0  0  0  0  0  0  0  0  0  0  0
   49.0295    5.1920   22.0302 H   0  0  0  0  0  0  0  0  0  0  0  0
   46.9262    8.6901   17.6442 H   0  0  0  0  0  0  0  0  0  0  0  0
   49.8193    6.4306   24.0065 H   0  0  0  0  0  0  0  0  0  0  0  0
   48.3834    5.8216   24.8585 H   0  0  0  0  0  0  0  0  0  0  0  0
   48.7042    7.5517   24.8157 H   0  0  0  0  0  0  0  0  0  0  0  0
   46.0985    2.9328   17.2975 H   0  0  0  0  0  0  0  0  0  0  0  0
   50.3323    2.9676   16.6940 H   0  0  0  0  0  0  0  0  0  0  0  0
   51.8759    8.9509   17.2799 H   0  0  0  0  0  0  0  0  0  0  0  0
   48.1562    1.8048   16.4460 H   0  0  0  0  0  0  0  0  0  0  0  0
   47.9951   10.6192   16.5118 H   0  0  0  0  0  0  0  0  0  0  0  0
   50.4674   10.7491   16.3440 H   0  0  0  0  0  0  0  0  0  0  0  0
   48.6497    4.4921   20.3864 H   0  0  0  0  0  0  0  0  0  0  0  0
   47.4765    5.1187   18.3404 H   0  0  0  0  0  0  0  0  0  0  0  0
   48.3022    8.9076   18.3732 H   0  0  0  0  0  0  0  0  0  0  0  0
   50.7230    6.5386   22.1519 H   0  0  0  0  0  0  0  0  0  0  0  0
  2  3  1  0
  3  4  2  0
  4  1  1  0
  5  2  2  0
  6  1  2  0
  7  1  1  0
  8  2  1  0
 10  9  1  0
 11  9  1  0
 12  9  2  3
 13 21  1  0
 14 10  2  0
 15 10  1  0
 16 11  2  0
 17 12  1  0
 18 12  1  0
 19 16  1  0
 20 15  1  0
 21 18  1  0
 22 17  1  0
 23 11  1  0
 24 13  1  0
 25 14  1  0
 26 15  2  0
 27 16  1  0
 28 26  1  0
 29 23  2  0
 30 29  1  0
 22 13  1  0
 20 19  1  0
 27 30  2  0
 25 28  2  0
 32 33  1  0
 33 34  2  0
 34 31  1  0
 35 32  2  0
 36 31  2  0
 37 31  1  0
 38 32  1  0
  3 39  1  0
  4 40  1  0
  7 41  1  0
  8 42  1  0
 17 43  1  0
 17 44  1  0
 18 45  1  0
 18 46  1  0
 19 47  1  0
 19 48  1  0
 20 49  1  0
 20 50  1  0
 21 51  1  0
 21 52  1  0
 22 53  1  0
 22 54  1  0
 23 55  1  0
 24 56  1  0
 24 57  1  0
 24 58  1  0
 25 59  1  0
 26 60  1  0
 27 61  1  0
 28 62  1  0
 29 63  1  0
 30 64  1  0
 33 65  1  0
 34 66  1  0
 37 67  1  0
 38 68  1  0
M  END
> <Uni-Dock RESULT> 
ENERGY=   -4.508  LOWER_BOUND=    9.418  UPPER_BOUND=   11.894
INTER + INTRA:          -4.508
INTER:                  -4.508
INTRA:                   0.000
UNBOUND:                 0.000

$$$$
