
     RDKit          3D

 68 69  0  0  0  0  0  0  0  0999 V2000
   46.0526    7.0584   12.8135 C   0  0  0  0  0  0  0  0  0  0  0  0
   48.4524    8.8575   12.7790 C   0  0  0  0  0  0  0  0  0  0  0  0
   48.5121    7.3947   12.7828 C   0  0  0  0  0  0  0  0  0  0  0  0
   47.4430    6.5876   12.7545 C   0  0  0  0  0  0  0  0  0  0  0  0
   49.0741    9.5834   13.5310 O   0  0  0  0  0  0  0  0  0  0  0  0
   45.6345    8.1165   13.2384 O   0  0  0  0  0  0  0  0  0  0  0  0
   45.2330    6.1004   12.3510 O   0  0  0  0  0  0  0  0  0  0  0  0
   47.7213    9.3244   11.7570 O   0  0  0  0  0  0  0  0  0  0  0  0
   47.2203    8.2431   13.0101 C   0  0  0  0  0  0  0  0  0  0  0  0
   47.0899    9.5514   12.3104 C   0  0  0  0  0  0  0  0  0  0  0  0
   48.3442    8.0370   13.9560 C   0  0  0  0  0  0  0  0  0  0  0  0
   46.3929    7.2028   12.7094 C   0  0  0  0  0  0  0  0  0  0  0  0
   44.5982    4.8697   11.9473 N   0  0  0  0  0  0  0  0  0  0  0  0
   45.8557   10.1203   12.3990 N   0  0  0  0  0  0  0  0  0  0  0  0
   48.1623   10.1648   11.6459 C   0  0  0  0  0  0  0  0  0  0  0  0
   49.6528    7.9858   13.4478 C   0  0  0  0  0  0  0  0  0  0  0  0
   45.2868    7.2785   11.6598 C   0  0  0  0  0  0  0  0  0  0  0  0
   46.4971    5.8145   13.3320 C   0  0  0  0  0  0  0  0  0  0  0  0
   49.8829    8.1893   11.9707 C   0  0  0  0  0  0  0  0  0  0  0  0
   49.5764    9.6294   11.5385 C   0  0  0  0  0  0  0  0  0  0  0  0
   45.1522    5.0687   13.2972 C   0  0  0  0  0  0  0  0  0  0  0  0
   45.0380    5.9106   10.9998 C   0  0  0  0  0  0  0  0  0  0  0  0
   48.1276    7.9457   15.3364 C   0  0  0  0  0  0  0  0  0  0  0  0
   44.9017    3.5401   11.4253 C   0  0  0  0  0  0  0  0  0  0  0  0
   45.6667   11.3187   11.8132 C   0  0  0  0  0  0  0  0  0  0  0  0
   47.9122   11.4155   11.0529 C   0  0  0  0  0  0  0  0  0  0  0  0
   50.7258    7.7927   14.3275 C   0  0  0  0  0  0  0  0  0  0  0  0
   46.6541   12.0001   11.1324 C   0  0  0  0  0  0  0  0  0  0  0  0
   49.2020    7.7548   16.2046 C   0  0  0  0  0  0  0  0  0  0  0  0
   50.4982    7.6711   15.6995 C   0  0  0  0  0  0  0  0  0  0  0  0
   46.0525    7.0737   12.5064 C   0  0  0  0  0  0  0  0  0  0  0  0
   48.4430    8.7752   13.1169 C   0  0  0  0  0  0  0  0  0  0  0  0
   48.4969    7.3350   12.8595 C   0  0  0  0  0  0  0  0  0  0  0  0
   47.4360    6.5796   12.5469 C   0  0  0  0  0  0  0  0  0  0  0  0
   48.9399    9.3321   14.0767 O   0  0  0  0  0  0  0  0  0  0  0  0
   45.5907    8.0648   13.0350 O   0  0  0  0  0  0  0  0  0  0  0  0
   45.2918    6.2209   11.8013 O   0  0  0  0  0  0  0  0  0  0  0  0
   47.8776    9.4416   12.1001 O   0  0  0  0  0  0  0  0  0  0  0  0
   49.5136    6.9844   12.8310 H   0  0  0  0  0  0  0  0  0  0  0  0
   47.5754    5.5121   12.7277 H   0  0  0  0  0  0  0  0  0  0  0  0
   44.3419    6.4991   12.4347 H   0  0  0  0  0  0  0  0  0  0  0  0
   47.7268   10.2951   11.8847 H   0  0  0  0  0  0  0  0  0  0  0  0
   45.5438    7.9797   10.8581 H   0  0  0  0  0  0  0  0  0  0  0  0
   44.3619    7.6333   12.1328 H   0  0  0  0  0  0  0  0  0  0  0  0
   47.2505    5.2348   12.7835 H   0  0  0  0  0  0  0  0  0  0  0  0
   46.8155    5.8579   14.3771 H   0  0  0  0  0  0  0  0  0  0  0  0
   49.2907    7.4681   11.3934 H   0  0  0  0  0  0  0  0  0  0  0  0
   50.9315    7.9707   11.7323 H   0  0  0  0  0  0  0  0  0  0  0  0
   49.8779    9.7138   10.4856 H   0  0  0  0  0  0  0  0  0  0  0  0
   50.2252   10.3080   12.1090 H   0  0  0  0  0  0  0  0  0  0  0  0
   44.4176    5.6482   13.8726 H   0  0  0  0  0  0  0  0  0  0  0  0
   45.2470    4.1146   13.8303 H   0  0  0  0  0  0  0  0  0  0  0  0
   44.2692    6.0225   10.2256 H   0  0  0  0  0  0  0  0  0  0  0  0
   45.9629    5.6068   10.4886 H   0  0  0  0  0  0  0  0  0  0  0  0
   47.1187    8.0215   15.7355 H   0  0  0  0  0  0  0  0  0  0  0  0
   45.9798    3.3666   11.3426 H   0  0  0  0  0  0  0  0  0  0  0  0
   44.4526    3.4022   10.4364 H   0  0  0  0  0  0  0  0  0  0  0  0
   44.4771    2.7662   12.0748 H   0  0  0  0  0  0  0  0  0  0  0  0
   44.6672   11.7291   11.9140 H   0  0  0  0  0  0  0  0  0  0  0  0
   48.7076   11.9432   10.5308 H   0  0  0  0  0  0  0  0  0  0  0  0
   51.7451    7.7468   13.9530 H   0  0  0  0  0  0  0  0  0  0  0  0
   46.4541   12.9647   10.6808 H   0  0  0  0  0  0  0  0  0  0  0  0
   49.0268    7.6761   17.2741 H   0  0  0  0  0  0  0  0  0  0  0  0
   51.3351    7.5242   16.3776 H   0  0  0  0  0  0  0  0  0  0  0  0
   49.4806    6.8933   12.9633 H   0  0  0  0  0  0  0  0  0  0  0  0
   47.5634    5.5223   12.3440 H   0  0  0  0  0  0  0  0  0  0  0  0
   44.4005    6.6269   11.8339 H   0  0  0  0  0  0  0  0  0  0  0  0
   47.8623   10.3719   12.4046 H   0  0  0  0  0  0  0  0  0  0  0  0
  2  3  1  0
  3  4  2  0
  4  1  1  0
  5  2  2  0
  6  1  2  0
  7  1  1  0
  8  2  1  0
 10  9  1  0
 11  9  1  0
 12  9  2  3
 13 21  1  0
 14 10  2  0
 15 10  1  0
 16 11  2  0
 17 12  1  0
 18 12  1  0
 19 16  1  0
 20 15  1  0
 21 18  1  0
 22 17  1  0
 23 11  1  0
 24 13  1  0
 25 14  1  0
 26 15  2  0
 27 16  1  0
 28 26  1  0
 29 23  2  0
 30 29  1  0
 22 13  1  0
 20 19  1  0
 27 30  2  0
 25 28  2  0
 32 33  1  0
 33 34  2  0
 34 31  1  0
 35 32  2  0
 36 31  2  0
 37 31  1  0
 38 32  1  0
  3 39  1  0
  4 40  1  0
  7 41  1  0
  8 42  1  0
 17 43  1  0
 17 44  1  0
 18 45  1  0
 18 46  1  0
 19 47  1  0
 19 48  1  0
 20 49  1  0
 20 50  1  0
 21 51  1  0
 21 52  1  0
 22 53  1  0
 22 54  1  0
 23 55  1  0
 24 56  1  0
 24 57  1  0
 24 58  1  0
 25 59  1  0
 26 60  1  0
 27 61  1  0
 28 62  1  0
 29 63  1  0
 30 64  1  0
 33 65  1  0
 34 66  1  0
 37 67  1  0
 38 68  1  0
M  END
> <Uni-Dock RESULT> 
ENERGY=   -5.999  LOWER_BOUND=    0.000  UPPER_BOUND=    0.000
INTER + INTRA:          -5.999
INTER:                  -5.999
INTRA:                   0.000
UNBOUND:                 0.000

$$$$

     RDKit          3D

 68 69  0  0  0  0  0  0  0  0999 V2000
   51.9882    6.2618   17.5999 C   0  0  0  0  0  0  0  0  0  0  0  0
   49.9810    4.0480   17.8595 C   0  0  0  0  0  0  0  0  0  0  0  0
   49.6980    5.3603   17.2754 C   0  0  0  0  0  0  0  0  0  0  0  0
   50.6023    6.3364   17.1182 C   0  0  0  0  0  0  0  0  0  0  0  0
   49.3091    3.5055   18.7158 O   0  0  0  0  0  0  0  0  0  0  0  0
   52.4433    5.5515   18.4736 O   0  0  0  0  0  0  0  0  0  0  0  0
   52.7404    7.1631   16.9478 O   0  0  0  0  0  0  0  0  0  0  0  0
   51.0090    3.4416   17.2493 O   0  0  0  0  0  0  0  0  0  0  0  0
   51.0053    4.9792   18.0407 C   0  0  0  0  0  0  0  0  0  0  0  0
   51.5076    3.5801   17.9484 C   0  0  0  0  0  0  0  0  0  0  0  0
   49.6614    5.2291   18.6165 C   0  0  0  0  0  0  0  0  0  0  0  0
   51.7115    6.0135   17.5035 C   0  0  0  0  0  0  0  0  0  0  0  0
   53.2593    8.2880   16.2089 N   0  0  0  0  0  0  0  0  0  0  0  0
   52.7519    3.3898   18.4682 N   0  0  0  0  0  0  0  0  0  0  0  0
   50.7451    2.5363   17.4036 C   0  0  0  0  0  0  0  0  0  0  0  0
   48.5314    4.7858   17.9094 C   0  0  0  0  0  0  0  0  0  0  0  0
   53.0446    5.8411   16.7796 C   0  0  0  0  0  0  0  0  0  0  0  0
   51.2414    7.4642   17.4993 C   0  0  0  0  0  0  0  0  0  0  0  0
   48.7154    4.0296   16.6169 C   0  0  0  0  0  0  0  0  0  0  0  0
   49.3387    2.6466   16.8486 C   0  0  0  0  0  0  0  0  0  0  0  0
   52.4203    8.4482   17.4086 C   0  0  0  0  0  0  0  0  0  0  0  0
   53.2383    6.9086   15.6880 C   0  0  0  0  0  0  0  0  0  0  0  0
   49.5061    5.8467   19.8637 C   0  0  0  0  0  0  0  0  0  0  0  0
   52.8965    9.2374   15.1605 C   0  0  0  0  0  0  0  0  0  0  0  0
   53.2646    2.1441   18.4455 C   0  0  0  0  0  0  0  0  0  0  0  0
   51.3260    1.2552   17.4058 C   0  0  0  0  0  0  0  0  0  0  0  0
   47.2548    5.0129   18.4395 C   0  0  0  0  0  0  0  0  0  0  0  0
   52.5978    1.0533   17.9277 C   0  0  0  0  0  0  0  0  0  0  0  0
   48.2314    6.0674   20.3840 C   0  0  0  0  0  0  0  0  0  0  0  0
   47.1075    5.6576   19.6691 C   0  0  0  0  0  0  0  0  0  0  0  0
   52.0681    6.1405   17.3289 C   0  0  0  0  0  0  0  0  0  0  0  0
   49.8921    4.2431   18.1335 C   0  0  0  0  0  0  0  0  0  0  0  0
   49.6839    5.4449   17.3237 C   0  0  0  0  0  0  0  0  0  0  0  0
   50.6601    6.2726   16.9289 C   0  0  0  0  0  0  0  0  0  0  0  0
   49.2610    3.9561   19.1323 O   0  0  0  0  0  0  0  0  0  0  0  0
   52.5285    5.5377   18.2773 O   0  0  0  0  0  0  0  0  0  0  0  0
   52.8414    6.8475   16.4892 O   0  0  0  0  0  0  0  0  0  0  0  0
   50.7913    3.4182   17.5778 O   0  0  0  0  0  0  0  0  0  0  0  0
   48.6659    5.5103   16.9821 H   0  0  0  0  0  0  0  0  0  0  0  0
   50.3171    7.2697   16.6466 H   0  0  0  0  0  0  0  0  0  0  0  0
   53.6320    7.0435   17.3362 H   0  0  0  0  0  0  0  0  0  0  0  0
   51.1209    2.6055   17.7465 H   0  0  0  0  0  0  0  0  0  0  0  0
   53.1091    4.8639   16.2881 H   0  0  0  0  0  0  0  0  0  0  0  0
   53.8636    5.9056   17.5078 H   0  0  0  0  0  0  0  0  0  0  0  0
   50.5708    7.6179   16.6443 H   0  0  0  0  0  0  0  0  0  0  0  0
   50.6803    7.7149   18.4037 H   0  0  0  0  0  0  0  0  0  0  0  0
   49.3158    4.6220   15.9150 H   0  0  0  0  0  0  0  0  0  0  0  0
   47.7401    3.8943   16.1325 H   0  0  0  0  0  0  0  0  0  0  0  0
   49.3292    2.1299   15.8794 H   0  0  0  0  0  0  0  0  0  0  0  0
   48.6795    2.0770   17.5178 H   0  0  0  0  0  0  0  0  0  0  0  0
   53.0661    8.2996   18.2845 H   0  0  0  0  0  0  0  0  0  0  0  0
   52.0485    9.4765   17.4965 H   0  0  0  0  0  0  0  0  0  0  0  0
   54.1852    6.7194   15.1679 H   0  0  0  0  0  0  0  0  0  0  0  0
   52.4369    6.7845   14.9455 H   0  0  0  0  0  0  0  0  0  0  0  0
   50.3810    6.1580   20.4298 H   0  0  0  0  0  0  0  0  0  0  0  0
   51.8606    9.1089   14.8292 H   0  0  0  0  0  0  0  0  0  0  0  0
   53.5537    9.1232   14.2923 H   0  0  0  0  0  0  0  0  0  0  0  0
   53.0192   10.2671   15.5153 H   0  0  0  0  0  0  0  0  0  0  0  0
   54.2573    2.0457   18.8728 H   0  0  0  0  0  0  0  0  0  0  0  0
   50.7789    0.4049   17.0040 H   0  0  0  0  0  0  0  0  0  0  0  0
   46.3683    4.6805   17.9055 H   0  0  0  0  0  0  0  0  0  0  0  0
   53.0512    0.0690   17.9357 H   0  0  0  0  0  0  0  0  0  0  0  0
   48.1170    6.5548   21.3485 H   0  0  0  0  0  0  0  0  0  0  0  0
   46.1143    5.8286   20.0767 H   0  0  0  0  0  0  0  0  0  0  0  0
   48.6500    5.6470   17.0714 H   0  0  0  0  0  0  0  0  0  0  0  0
   50.4269    7.1291   16.3066 H   0  0  0  0  0  0  0  0  0  0  0  0
   53.7472    6.7035   16.8343 H   0  0  0  0  0  0  0  0  0  0  0  0
   50.8722    2.6856   18.2221 H   0  0  0  0  0  0  0  0  0  0  0  0
  2  3  1  0
  3  4  2  0
  4  1  1  0
  5  2  2  0
  6  1  2  0
  7  1  1  0
  8  2  1  0
 10  9  1  0
 11  9  1  0
 12  9  2  3
 13 21  1  0
 14 10  2  0
 15 10  1  0
 16 11  2  0
 17 12  1  0
 18 12  1  0
 19 16  1  0
 20 15  1  0
 21 18  1  0
 22 17  1  0
 23 11  1  0
 24 13  1  0
 25 14  1  0
 26 15  2  0
 27 16  1  0
 28 26  1  0
 29 23  2  0
 30 29  1  0
 22 13  1  0
 20 19  1  0
 27 30  2  0
 25 28  2  0
 32 33  1  0
 33 34  2  0
 34 31  1  0
 35 32  2  0
 36 31  2  0
 37 31  1  0
 38 32  1  0
  3 39  1  0
  4 40  1  0
  7 41  1  0
  8 42  1  0
 17 43  1  0
 17 44  1  0
 18 45  1  0
 18 46  1  0
 19 47  1  0
 19 48  1  0
 20 49  1  0
 20 50  1  0
 21 51  1  0
 21 52  1  0
 22 53  1  0
 22 54  1  0
 23 55  1  0
 24 56  1  0
 24 57  1  0
 24 58  1  0
 25 59  1  0
 26 60  1  0
 27 61  1  0
 28 62  1  0
 29 63  1  0
 30 64  1  0
 33 65  1  0
 34 66  1  0
 37 67  1  0
 38 68  1  0
M  END
> <Uni-Dock RESULT> 
ENERGY=   -5.494  LOWER_BOUND=    6.099  UPPER_BOUND=    8.414
INTER + INTRA:          -5.494
INTER:                  -5.494
INTRA:                   0.000
UNBOUND:                 0.000

$$$$

     RDKit          3D

 68 69  0  0  0  0  0  0  0  0999 V2000
   44.2506   12.3746    8.1650 C   0  0  0  0  0  0  0  0  0  0  0  0
   43.9109   10.9091   10.7600 C   0  0  0  0  0  0  0  0  0  0  0  0
   43.2039   10.5780    9.5214 C   0  0  0  0  0  0  0  0  0  0  0  0
   43.3847   11.2022    8.3497 C   0  0  0  0  0  0  0  0  0  0  0  0
   43.3837   11.0615   11.8453 O   0  0  0  0  0  0  0  0  0  0  0  0
   44.6345   13.1652    9.0031 O   0  0  0  0  0  0  0  0  0  0  0  0
   44.5566   12.5076    6.8642 O   0  0  0  0  0  0  0  0  0  0  0  0
   45.2408   10.9035   10.5921 O   0  0  0  0  0  0  0  0  0  0  0  0
   44.0711   11.8573    9.7480 C   0  0  0  0  0  0  0  0  0  0  0  0
   45.2532   11.7712   10.6499 C   0  0  0  0  0  0  0  0  0  0  0  0
   42.7219   11.5719   10.2941 C   0  0  0  0  0  0  0  0  0  0  0  0
   44.2242   12.0822    8.4126 C   0  0  0  0  0  0  0  0  0  0  0  0
   44.6016   12.4854    5.4226 N   0  0  0  0  0  0  0  0  0  0  0  0
   46.0649   12.8646   10.6255 N   0  0  0  0  0  0  0  0  0  0  0  0
   45.4904   10.6687   11.4841 C   0  0  0  0  0  0  0  0  0  0  0  0
   42.4201   10.2598   10.6950 C   0  0  0  0  0  0  0  0  0  0  0  0
   45.5807   12.2631    7.7359 C   0  0  0  0  0  0  0  0  0  0  0  0
   43.0749   12.1235    7.4111 C   0  0  0  0  0  0  0  0  0  0  0  0
   43.4845    9.1943   10.6061 C   0  0  0  0  0  0  0  0  0  0  0  0
   44.6186    9.4351   11.6114 C   0  0  0  0  0  0  0  0  0  0  0  0
   43.4260   12.9624    6.1705 C   0  0  0  0  0  0  0  0  0  0  0  0
   45.5586   11.7626    6.2807 C   0  0  0  0  0  0  0  0  0  0  0  0
   41.7735   12.5884   10.4620 C   0  0  0  0  0  0  0  0  0  0  0  0
   44.2210   11.6657    4.2757 C   0  0  0  0  0  0  0  0  0  0  0  0
   47.1418   12.8727   11.4349 C   0  0  0  0  0  0  0  0  0  0  0  0
   46.6272   10.7284   12.3103 C   0  0  0  0  0  0  0  0  0  0  0  0
   41.1508    9.9733   11.2138 C   0  0  0  0  0  0  0  0  0  0  0  0
   47.4646   11.8370   12.2868 C   0  0  0  0  0  0  0  0  0  0  0  0
   40.5129   12.2939   10.9804 C   0  0  0  0  0  0  0  0  0  0  0  0
   40.2001   10.9867   11.3487 C   0  0  0  0  0  0  0  0  0  0  0  0
   44.4833   12.1836    8.1022 C   0  0  0  0  0  0  0  0  0  0  0  0
   43.6294   11.1134   10.7683 C   0  0  0  0  0  0  0  0  0  0  0  0
   43.1276   10.6261    9.4821 C   0  0  0  0  0  0  0  0  0  0  0  0
   43.5370   11.0746    8.2884 C   0  0  0  0  0  0  0  0  0  0  0  0
   42.9338   11.4573   11.7043 O   0  0  0  0  0  0  0  0  0  0  0  0
   44.7819   13.0593    8.8889 O   0  0  0  0  0  0  0  0  0  0  0  0
   44.9867   12.1400    6.8581 O   0  0  0  0  0  0  0  0  0  0  0  0
   44.9651   11.0263   10.8466 O   0  0  0  0  0  0  0  0  0  0  0  0
   42.4808    9.7768    9.6154 H   0  0  0  0  0  0  0  0  0  0  0  0
   42.8427   10.8737    7.4704 H   0  0  0  0  0  0  0  0  0  0  0  0
   45.1225   13.3071    6.8410 H   0  0  0  0  0  0  0  0  0  0  0  0
   45.5919   11.1716   11.4659 H   0  0  0  0  0  0  0  0  0  0  0  0
   46.3650   11.7023    8.2564 H   0  0  0  0  0  0  0  0  0  0  0  0
   45.8573   13.3253    7.7562 H   0  0  0  0  0  0  0  0  0  0  0  0
   42.8355   11.0978    7.1026 H   0  0  0  0  0  0  0  0  0  0  0  0
   42.1687   12.5537    7.8460 H   0  0  0  0  0  0  0  0  0  0  0  0
   43.8708    9.1310    9.5810 H   0  0  0  0  0  0  0  0  0  0  0  0
   43.0369    8.2145   10.8156 H   0  0  0  0  0  0  0  0  0  0  0  0
   45.2808    8.5605   11.5555 H   0  0  0  0  0  0  0  0  0  0  0  0
   44.1894    9.4433   12.6227 H   0  0  0  0  0  0  0  0  0  0  0  0
   43.6362   13.9908    6.4936 H   0  0  0  0  0  0  0  0  0  0  0  0
   42.5474   13.0398    5.5183 H   0  0  0  0  0  0  0  0  0  0  0  0
   46.5617   11.8717    5.8505 H   0  0  0  0  0  0  0  0  0  0  0  0
   45.3337   10.6864    6.2949 H   0  0  0  0  0  0  0  0  0  0  0  0
   42.0175   13.6118   10.1861 H   0  0  0  0  0  0  0  0  0  0  0  0
   43.6650   10.7711    4.5755 H   0  0  0  0  0  0  0  0  0  0  0  0
   45.1074   11.3502    3.7158 H   0  0  0  0  0  0  0  0  0  0  0  0
   43.5983   12.2415    3.5816 H   0  0  0  0  0  0  0  0  0  0  0  0
   47.7546   13.7666   11.3787 H   0  0  0  0  0  0  0  0  0  0  0  0
   46.8581    9.9064   12.9847 H   0  0  0  0  0  0  0  0  0  0  0  0
   40.8973    8.9635   11.5262 H   0  0  0  0  0  0  0  0  0  0  0  0
   48.3407   11.8919   12.9222 H   0  0  0  0  0  0  0  0  0  0  0  0
   39.7782   13.0855   11.1005 H   0  0  0  0  0  0  0  0  0  0  0  0
   39.2177   10.7588   11.7545 H   0  0  0  0  0  0  0  0  0  0  0  0
   42.3580    9.8671    9.5549 H   0  0  0  0  0  0  0  0  0  0  0  0
   43.1351   10.6423    7.3791 H   0  0  0  0  0  0  0  0  0  0  0  0
   45.5936   12.9087    6.8285 H   0  0  0  0  0  0  0  0  0  0  0  0
   45.1780   11.4137   11.7201 H   0  0  0  0  0  0  0  0  0  0  0  0
  2  3  1  0
  3  4  2  0
  4  1  1  0
  5  2  2  0
  6  1  2  0
  7  1  1  0
  8  2  1  0
 10  9  1  0
 11  9  1  0
 12  9  2  3
 13 21  1  0
 14 10  2  0
 15 10  1  0
 16 11  2  0
 17 12  1  0
 18 12  1  0
 19 16  1  0
 20 15  1  0
 21 18  1  0
 22 17  1  0
 23 11  1  0
 24 13  1  0
 25 14  1  0
 26 15  2  0
 27 16  1  0
 28 26  1  0
 29 23  2  0
 30 29  1  0
 22 13  1  0
 20 19  1  0
 27 30  2  0
 25 28  2  0
 32 33  1  0
 33 34  2  0
 34 31  1  0
 35 32  2  0
 36 31  2  0
 37 31  1  0
 38 32  1  0
  3 39  1  0
  4 40  1  0
  7 41  1  0
  8 42  1  0
 17 43  1  0
 17 44  1  0
 18 45  1  0
 18 46  1  0
 19 47  1  0
 19 48  1  0
 20 49  1  0
 20 50  1  0
 21 51  1  0
 21 52  1  0
 22 53  1  0
 22 54  1  0
 23 55  1  0
 24 56  1  0
 24 57  1  0
 24 58  1  0
 25 59  1  0
 26 60  1  0
 27 61  1  0
 28 62  1  0
 29 63  1  0
 30 64  1  0
 33 65  1  0
 34 66  1  0
 37 67  1  0
 38 68  1  0
M  END
> <Uni-Dock RESULT> 
ENERGY=   -5.346  LOWER_BOUND=    4.240  UPPER_BOUND=    7.218
INTER + INTRA:          -5.346
INTER:                  -5.346
INTRA:                   0.000
UNBOUND:                 0.000

$$$$

     RDKit          3D

 68 69  0  0  0  0  0  0  0  0999 V2000
   46.4016    5.6792   12.7909 C   0  0  0  0  0  0  0  0  0  0  0  0
   48.4266    6.9559   14.5983 C   0  0  0  0  0  0  0  0  0  0  0  0
   47.5636    7.6890   13.6703 C   0  0  0  0  0  0  0  0  0  0  0  0
   46.6281    7.1271   12.8929 C   0  0  0  0  0  0  0  0  0  0  0  0
   49.6320    7.0916   14.6857 O   0  0  0  0  0  0  0  0  0  0  0  0
   47.1705    4.7774   13.0566 O   0  0  0  0  0  0  0  0  0  0  0  0
   45.1753    5.4493   12.2943 O   0  0  0  0  0  0  0  0  0  0  0  0
   47.7174    6.1951   15.4439 O   0  0  0  0  0  0  0  0  0  0  0  0
   47.7216    6.1357   13.7156 C   0  0  0  0  0  0  0  0  0  0  0  0
   47.9844    5.4801   15.0269 C   0  0  0  0  0  0  0  0  0  0  0  0
   48.6934    7.1279   13.1949 C   0  0  0  0  0  0  0  0  0  0  0  0
   46.5533    5.9215   13.0475 C   0  0  0  0  0  0  0  0  0  0  0  0
   43.8971    5.5033   11.6279 N   0  0  0  0  0  0  0  0  0  0  0  0
   47.9000    4.1210   15.0074 N   0  0  0  0  0  0  0  0  0  0  0  0
   48.3274    6.2026   16.1793 C   0  0  0  0  0  0  0  0  0  0  0  0
   48.8338    8.3525   13.8689 C   0  0  0  0  0  0  0  0  0  0  0  0
   45.4381    5.0156   13.5636 C   0  0  0  0  0  0  0  0  0  0  0  0
   46.1785    6.5987   11.7335 C   0  0  0  0  0  0  0  0  0  0  0  0
   48.0342    8.6041   15.1232 C   0  0  0  0  0  0  0  0  0  0  0  0
   48.4908    7.7062   16.2809 C   0  0  0  0  0  0  0  0  0  0  0  0
   45.1661    5.7663   10.9283 C   0  0  0  0  0  0  0  0  0  0  0  0
   44.0540    5.4979   13.0942 C   0  0  0  0  0  0  0  0  0  0  0  0
   49.5001    6.8454   12.0857 C   0  0  0  0  0  0  0  0  0  0  0  0
   42.8509    6.4400   11.2278 C   0  0  0  0  0  0  0  0  0  0  0  0
   48.1509    3.4539   16.1507 C   0  0  0  0  0  0  0  0  0  0  0  0
   48.5809    5.4581   17.3455 C   0  0  0  0  0  0  0  0  0  0  0  0
   49.7478    9.3004   13.3909 C   0  0  0  0  0  0  0  0  0  0  0  0
   48.4903    4.0716   17.3364 C   0  0  0  0  0  0  0  0  0  0  0  0
   50.4081    7.7947   11.6179 C   0  0  0  0  0  0  0  0  0  0  0  0
   50.5259    9.0231   12.2655 C   0  0  0  0  0  0  0  0  0  0  0  0
   46.1999    5.7019   13.0219 C   0  0  0  0  0  0  0  0  0  0  0  0
   48.6050    6.9531   14.2995 C   0  0  0  0  0  0  0  0  0  0  0  0
   47.5740    7.6960   13.5727 C   0  0  0  0  0  0  0  0  0  0  0  0
   46.4778    7.1450   13.0355 C   0  0  0  0  0  0  0  0  0  0  0  0
   49.8007    7.0373   14.0962 O   0  0  0  0  0  0  0  0  0  0  0  0
   46.9819    4.7828   13.1584 O   0  0  0  0  0  0  0  0  0  0  0  0
   44.8943    5.4985   12.7829 O   0  0  0  0  0  0  0  0  0  0  0  0
   48.0865    6.2445   15.3130 O   0  0  0  0  0  0  0  0  0  0  0  0
   47.7458    8.7564   13.6327 H   0  0  0  0  0  0  0  0  0  0  0  0
   46.0085    7.7469   12.2551 H   0  0  0  0  0  0  0  0  0  0  0  0
   45.1207    4.4716   12.2582 H   0  0  0  0  0  0  0  0  0  0  0  0
   48.3974    5.7356   15.9778 H   0  0  0  0  0  0  0  0  0  0  0  0
   45.4159    4.9933   14.6589 H   0  0  0  0  0  0  0  0  0  0  0  0
   45.6107    3.9907   13.2102 H   0  0  0  0  0  0  0  0  0  0  0  0
   45.7490    7.5848   11.9518 H   0  0  0  0  0  0  0  0  0  0  0  0
   47.0496    6.7567   11.0918 H   0  0  0  0  0  0  0  0  0  0  0  0
   46.9635    8.4753   14.9208 H   0  0  0  0  0  0  0  0  0  0  0  0
   48.1547    9.6515   15.4276 H   0  0  0  0  0  0  0  0  0  0  0  0
   47.9387    8.0349   17.1718 H   0  0  0  0  0  0  0  0  0  0  0  0
   49.5536    7.9054   16.4755 H   0  0  0  0  0  0  0  0  0  0  0  0
   45.6214    4.7943   10.6954 H   0  0  0  0  0  0  0  0  0  0  0  0
   44.9900    6.2418    9.9556 H   0  0  0  0  0  0  0  0  0  0  0  0
   43.2842    4.8450   13.5233 H   0  0  0  0  0  0  0  0  0  0  0  0
   43.8861    6.5027   13.5079 H   0  0  0  0  0  0  0  0  0  0  0  0
   49.4189    5.8837   11.5843 H   0  0  0  0  0  0  0  0  0  0  0  0
   43.1176    7.4772   11.4566 H   0  0  0  0  0  0  0  0  0  0  0  0
   41.9089    6.2056   11.7341 H   0  0  0  0  0  0  0  0  0  0  0  0
   42.6578    6.3636   10.1517 H   0  0  0  0  0  0  0  0  0  0  0  0
   48.0719    2.3738   16.0817 H   0  0  0  0  0  0  0  0  0  0  0  0
   48.8595    5.9631   18.2681 H   0  0  0  0  0  0  0  0  0  0  0  0
   49.8681   10.2550   13.8967 H   0  0  0  0  0  0  0  0  0  0  0  0
   48.6868    3.4906   18.2299 H   0  0  0  0  0  0  0  0  0  0  0  0
   51.0254    7.5729   10.7515 H   0  0  0  0  0  0  0  0  0  0  0  0
   51.2355    9.7616   11.9009 H   0  0  0  0  0  0  0  0  0  0  0  0
   47.7682    8.7569   13.4702 H   0  0  0  0  0  0  0  0  0  0  0  0
   45.7463    7.7690   12.5347 H   0  0  0  0  0  0  0  0  0  0  0  0
   44.8088    4.5224   12.7883 H   0  0  0  0  0  0  0  0  0  0  0  0
   48.8552    5.7683   15.6881 H   0  0  0  0  0  0  0  0  0  0  0  0
  2  3  1  0
  3  4  2  0
  4  1  1  0
  5  2  2  0
  6  1  2  0
  7  1  1  0
  8  2  1  0
 10  9  1  0
 11  9  1  0
 12  9  2  3
 13 21  1  0
 14 10  2  0
 15 10  1  0
 16 11  2  0
 17 12  1  0
 18 12  1  0
 19 16  1  0
 20 15  1  0
 21 18  1  0
 22 17  1  0
 23 11  1  0
 24 13  1  0
 25 14  1  0
 26 15  2  0
 27 16  1  0
 28 26  1  0
 29 23  2  0
 30 29  1  0
 22 13  1  0
 20 19  1  0
 27 30  2  0
 25 28  2  0
 32 33  1  0
 33 34  2  0
 34 31  1  0
 35 32  2  0
 36 31  2  0
 37 31  1  0
 38 32  1  0
  3 39  1  0
  4 40  1  0
  7 41  1  0
  8 42  1  0
 17 43  1  0
 17 44  1  0
 18 45  1  0
 18 46  1  0
 19 47  1  0
 19 48  1  0
 20 49  1  0
 20 50  1  0
 21 51  1  0
 21 52  1  0
 22 53  1  0
 22 54  1  0
 23 55  1  0
 24 56  1  0
 24 57  1  0
 24 58  1  0
 25 59  1  0
 26 60  1  0
 27 61  1  0
 28 62  1  0
 29 63  1  0
 30 64  1  0
 33 65  1  0
 34 66  1  0
 37 67  1  0
 38 68  1  0
M  END
> <Uni-Dock RESULT> 
ENERGY=   -5.315  LOWER_BOUND=    2.161  UPPER_BOUND=    4.054
INTER + INTRA:          -5.315
INTER:                  -5.315
INTRA:                   0.000
UNBOUND:                 0.000

$$$$

     RDKit          3D

 68 69  0  0  0  0  0  0  0  0999 V2000
   49.3271    9.0572   15.9345 C   0  0  0  0  0  0  0  0  0  0  0  0
   49.0697    7.6372   13.3050 C   0  0  0  0  0  0  0  0  0  0  0  0
   47.9476    8.2049   14.0547 C   0  0  0  0  0  0  0  0  0  0  0  0
   48.0630    8.8775   15.2077 C   0  0  0  0  0  0  0  0  0  0  0  0
   49.1094    6.5072   12.8571 O   0  0  0  0  0  0  0  0  0  0  0  0
   50.3393    8.3903   15.8587 O   0  0  0  0  0  0  0  0  0  0  0  0
   49.2143   10.0902   16.7850 O   0  0  0  0  0  0  0  0  0  0  0  0
   50.0152    8.5531   13.0522 O   0  0  0  0  0  0  0  0  0  0  0  0
   49.4065    8.0573   14.5930 C   0  0  0  0  0  0  0  0  0  0  0  0
   50.5396    8.1744   13.6335 C   0  0  0  0  0  0  0  0  0  0  0  0
   48.4020    6.9834   14.3990 C   0  0  0  0  0  0  0  0  0  0  0  0
   49.2198    8.9861   15.5726 C   0  0  0  0  0  0  0  0  0  0  0  0
   48.7705   11.1265   17.6850 N   0  0  0  0  0  0  0  0  0  0  0  0
   51.7693    8.2419   14.2150 N   0  0  0  0  0  0  0  0  0  0  0  0
   50.3568    8.1775   12.2427 C   0  0  0  0  0  0  0  0  0  0  0  0
   47.5531    7.0476   13.2815 C   0  0  0  0  0  0  0  0  0  0  0  0
   50.1279   10.1967   15.7739 C   0  0  0  0  0  0  0  0  0  0  0  0
   48.0537    8.9757   16.5553 C   0  0  0  0  0  0  0  0  0  0  0  0
   47.7174    8.1723   12.2895 C   0  0  0  0  0  0  0  0  0  0  0  0
   49.0347    8.0585   11.5106 C   0  0  0  0  0  0  0  0  0  0  0  0
   48.3982    9.7125   17.8609 C   0  0  0  0  0  0  0  0  0  0  0  0
   49.3555   11.3930   16.3578 C   0  0  0  0  0  0  0  0  0  0  0  0
   48.3225    5.8929   15.2739 C   0  0  0  0  0  0  0  0  0  0  0  0
   47.6446   12.0212   17.9379 C   0  0  0  0  0  0  0  0  0  0  0  0
   52.8472    8.3225   13.4108 C   0  0  0  0  0  0  0  0  0  0  0  0
   51.5147    8.2617   11.4486 C   0  0  0  0  0  0  0  0  0  0  0  0
   46.5994    6.0409   13.0829 C   0  0  0  0  0  0  0  0  0  0  0  0
   52.7728    8.3379   12.0335 C   0  0  0  0  0  0  0  0  0  0  0  0
   47.3707    4.8949   15.0674 C   0  0  0  0  0  0  0  0  0  0  0  0
   46.5058    4.9733   13.9775 C   0  0  0  0  0  0  0  0  0  0  0  0
   49.3730    9.3164   15.7756 C   0  0  0  0  0  0  0  0  0  0  0  0
   48.9769    7.3812   13.5216 C   0  0  0  0  0  0  0  0  0  0  0  0
   47.9049    8.1673   14.1349 C   0  0  0  0  0  0  0  0  0  0  0  0
   48.0851    9.0622   15.1149 C   0  0  0  0  0  0  0  0  0  0  0  0
   48.9511    6.1775   13.3522 O   0  0  0  0  0  0  0  0  0  0  0  0
   50.3530    8.6002   15.8167 O   0  0  0  0  0  0  0  0  0  0  0  0
   49.3264   10.4989   16.4101 O   0  0  0  0  0  0  0  0  0  0  0  0
   49.9596    8.1623   13.0504 O   0  0  0  0  0  0  0  0  0  0  0  0
   46.9742    8.0258   13.6140 H   0  0  0  0  0  0  0  0  0  0  0  0
   47.1827    9.2937   15.6838 H   0  0  0  0  0  0  0  0  0  0  0  0
   50.0910   10.1267   17.2211 H   0  0  0  0  0  0  0  0  0  0  0  0
   50.7152    8.0503   12.5876 H   0  0  0  0  0  0  0  0  0  0  0  0
   50.5665   10.5294   14.8265 H   0  0  0  0  0  0  0  0  0  0  0  0
   50.9507    9.9248   16.4478 H   0  0  0  0  0  0  0  0  0  0  0  0
   47.1868    9.4553   16.0831 H   0  0  0  0  0  0  0  0  0  0  0  0
   47.7567    7.9591   16.8269 H   0  0  0  0  0  0  0  0  0  0  0  0
   47.6419    9.1405   12.8003 H   0  0  0  0  0  0  0  0  0  0  0  0
   46.8869    8.1494   11.5726 H   0  0  0  0  0  0  0  0  0  0  0  0
   49.0157    8.8431   10.7421 H   0  0  0  0  0  0  0  0  0  0  0  0
   49.0420    7.0961   10.9807 H   0  0  0  0  0  0  0  0  0  0  0  0
   49.2493    9.2041   18.3336 H   0  0  0  0  0  0  0  0  0  0  0  0
   47.5695    9.6075   18.5720 H   0  0  0  0  0  0  0  0  0  0  0  0
   50.0355   12.2493   16.4438 H   0  0  0  0  0  0  0  0  0  0  0  0
   48.5748   11.6775   15.6377 H   0  0  0  0  0  0  0  0  0  0  0  0
   49.0030    5.8225   16.1194 H   0  0  0  0  0  0  0  0  0  0  0  0
   46.8102   11.8366   17.2530 H   0  0  0  0  0  0  0  0  0  0  0  0
   47.9519   13.0668   17.8344 H   0  0  0  0  0  0  0  0  0  0  0  0
   47.2806   11.8999   18.9645 H   0  0  0  0  0  0  0  0  0  0  0  0
   53.8025    8.3723   13.9231 H   0  0  0  0  0  0  0  0  0  0  0  0
   51.4362    8.2600   10.3634 H   0  0  0  0  0  0  0  0  0  0  0  0
   45.9313    6.0749   12.2261 H   0  0  0  0  0  0  0  0  0  0  0  0
   53.6699    8.4002   11.4288 H   0  0  0  0  0  0  0  0  0  0  0  0
   47.3083    4.0555   15.7546 H   0  0  0  0  0  0  0  0  0  0  0  0
   45.7655    4.1936   13.8165 H   0  0  0  0  0  0  0  0  0  0  0  0
   46.9138    7.9581   13.7507 H   0  0  0  0  0  0  0  0  0  0  0  0
   47.2414    9.6247   15.4982 H   0  0  0  0  0  0  0  0  0  0  0  0
   50.2143   10.5766   16.8172 H   0  0  0  0  0  0  0  0  0  0  0  0
   50.6236    7.5292   12.7086 H   0  0  0  0  0  0  0  0  0  0  0  0
  2  3  1  0
  3  4  2  0
  4  1  1  0
  5  2  2  0
  6  1  2  0
  7  1  1  0
  8  2  1  0
 10  9  1  0
 11  9  1  0
 12  9  2  3
 13 21  1  0
 14 10  2  0
 15 10  1  0
 16 11  2  0
 17 12  1  0
 18 12  1  0
 19 16  1  0
 20 15  1  0
 21 18  1  0
 22 17  1  0
 23 11  1  0
 24 13  1  0
 25 14  1  0
 26 15  2  0
 27 16  1  0
 28 26  1  0
 29 23  2  0
 30 29  1  0
 22 13  1  0
 20 19  1  0
 27 30  2  0
 25 28  2  0
 32 33  1  0
 33 34  2  0
 34 31  1  0
 35 32  2  0
 36 31  2  0
 37 31  1  0
 38 32  1  0
  3 39  1  0
  4 40  1  0
  7 41  1  0
  8 42  1  0
 17 43  1  0
 17 44  1  0
 18 45  1  0
 18 46  1  0
 19 47  1  0
 19 48  1  0
 20 49  1  0
 20 50  1  0
 21 51  1  0
 21 52  1  0
 22 53  1  0
 22 54  1  0
 23 55  1  0
 24 56  1  0
 24 57  1  0
 24 58  1  0
 25 59  1  0
 26 60  1  0
 27 61  1  0
 28 62  1  0
 29 63  1  0
 30 64  1  0
 33 65  1  0
 34 66  1  0
 37 67  1  0
 38 68  1  0
M  END
> <Uni-Dock RESULT> 
ENERGY=   -5.130  LOWER_BOUND=    2.718  UPPER_BOUND=    5.158
INTER + INTRA:          -5.130
INTER:                  -5.130
INTRA:                   0.000
UNBOUND:                 0.000

$$$$

     RDKit          3D

 68 69  0  0  0  0  0  0  0  0999 V2000
   49.2998    5.2802   21.0704 C   0  0  0  0  0  0  0  0  0  0  0  0
   50.2189    5.1506   18.2180 C   0  0  0  0  0  0  0  0  0  0  0  0
   49.0010    5.8275   18.6674 C   0  0  0  0  0  0  0  0  0  0  0  0
   48.6095    5.9248   19.9451 C   0  0  0  0  0  0  0  0  0  0  0  0
   50.2768    4.3539   17.3011 O   0  0  0  0  0  0  0  0  0  0  0  0
   50.0496    4.3252   21.0448 O   0  0  0  0  0  0  0  0  0  0  0  0
   48.9490    5.8825   22.2181 O   0  0  0  0  0  0  0  0  0  0  0  0
   51.3066    5.6050   18.8562 O   0  0  0  0  0  0  0  0  0  0  0  0
   49.8906    4.8959   19.5508 C   0  0  0  0  0  0  0  0  0  0  0  0
   51.3585    4.8597   19.3015 C   0  0  0  0  0  0  0  0  0  0  0  0
   48.9622    4.4952   18.4657 C   0  0  0  0  0  0  0  0  0  0  0  0
   49.3904    5.3962   20.7156 C   0  0  0  0  0  0  0  0  0  0  0  0
   48.2993    6.6093   23.2813 N   0  0  0  0  0  0  0  0  0  0  0  0
   52.0766    4.1883   20.2441 N   0  0  0  0  0  0  0  0  0  0  0  0
   51.9485    5.4387   18.1682 C   0  0  0  0  0  0  0  0  0  0  0  0
   48.8685    5.3080   17.3237 C   0  0  0  0  0  0  0  0  0  0  0  0
   50.2613    5.9487   21.8413 C   0  0  0  0  0  0  0  0  0  0  0  0
   47.9030    5.5268   21.0259 C   0  0  0  0  0  0  0  0  0  0  0  0
   49.7444    6.5312   17.2106 C   0  0  0  0  0  0  0  0  0  0  0  0
   51.2246    6.1602   17.0487 C   0  0  0  0  0  0  0  0  0  0  0  0
   47.6315    5.5261   22.5400 C   0  0  0  0  0  0  0  0  0  0  0  0
   49.5387    7.0609   22.6222 C   0  0  0  0  0  0  0  0  0  0  0  0
   48.2251    3.3068   18.5387 C   0  0  0  0  0  0  0  0  0  0  0  0
   47.4043    7.7385   23.5186 C   0  0  0  0  0  0  0  0  0  0  0  0
   53.4094    4.0894   20.0740 C   0  0  0  0  0  0  0  0  0  0  0  0
   53.3427    5.3054   18.0378 C   0  0  0  0  0  0  0  0  0  0  0  0
   47.9971    4.9436   16.2891 C   0  0  0  0  0  0  0  0  0  0  0  0
   54.0840    4.6280   18.9982 C   0  0  0  0  0  0  0  0  0  0  0  0
   47.3612    2.9517   17.5034 C   0  0  0  0  0  0  0  0  0  0  0  0
   47.2422    3.7731   16.3838 C   0  0  0  0  0  0  0  0  0  0  0  0
   49.4712    5.5336   21.1008 C   0  0  0  0  0  0  0  0  0  0  0  0
   49.9787    4.8988   18.2160 C   0  0  0  0  0  0  0  0  0  0  0  0
   48.9159    5.7854   18.6932 C   0  0  0  0  0  0  0  0  0  0  0  0
   48.7120    6.1026   19.9784 C   0  0  0  0  0  0  0  0  0  0  0  0
   49.8205    3.9685   17.4495 O   0  0  0  0  0  0  0  0  0  0  0  0
   50.1229    4.5091   21.1271 O   0  0  0  0  0  0  0  0  0  0  0  0
   49.3181    6.3100   22.1856 O   0  0  0  0  0  0  0  0  0  0  0  0
   51.1880    5.3037   18.6304 O   0  0  0  0  0  0  0  0  0  0  0  0
   48.3984    6.2473   17.8709 H   0  0  0  0  0  0  0  0  0  0  0  0
   47.7081    6.4719   20.1964 H   0  0  0  0  0  0  0  0  0  0  0  0
   49.4473    5.3864   22.9006 H   0  0  0  0  0  0  0  0  0  0  0  0
   52.0367    5.0578   18.5009 H   0  0  0  0  0  0  0  0  0  0  0  0
   51.1902    6.3807   21.4528 H   0  0  0  0  0  0  0  0  0  0  0  0
   50.5303    5.1332   22.5252 H   0  0  0  0  0  0  0  0  0  0  0  0
   47.5295    6.4613   20.5883 H   0  0  0  0  0  0  0  0  0  0  0  0
   47.3216    4.7082   20.5931 H   0  0  0  0  0  0  0  0  0  0  0  0
   49.5929    7.1857   18.0782 H   0  0  0  0  0  0  0  0  0  0  0  0
   49.4362    7.1199   16.3373 H   0  0  0  0  0  0  0  0  0  0  0  0
   51.7660    7.0974   16.8609 H   0  0  0  0  0  0  0  0  0  0  0  0
   51.3310    5.5462   16.1439 H   0  0  0  0  0  0  0  0  0  0  0  0
   47.9864    4.5741   22.9571 H   0  0  0  0  0  0  0  0  0  0  0  0
   46.5493    5.5331   22.7195 H   0  0  0  0  0  0  0  0  0  0  0  0
   50.2158    7.4560   23.3893 H   0  0  0  0  0  0  0  0  0  0  0  0
   49.3314    7.8857   21.9252 H   0  0  0  0  0  0  0  0  0  0  0  0
   48.3234    2.6576   19.4057 H   0  0  0  0  0  0  0  0  0  0  0  0
   47.0454    8.1827   22.5842 H   0  0  0  0  0  0  0  0  0  0  0  0
   47.9104    8.5165   24.0992 H   0  0  0  0  0  0  0  0  0  0  0  0
   46.5346    7.4225   24.1059 H   0  0  0  0  0  0  0  0  0  0  0  0
   53.9346    3.5438   20.8514 H   0  0  0  0  0  0  0  0  0  0  0  0
   53.8551    5.7267   17.1754 H   0  0  0  0  0  0  0  0  0  0  0  0
   47.9082    5.5614   15.3992 H   0  0  0  0  0  0  0  0  0  0  0  0
   55.1580    4.5185   18.9037 H   0  0  0  0  0  0  0  0  0  0  0  0
   46.7855    2.0325   17.5696 H   0  0  0  0  0  0  0  0  0  0  0  0
   46.5698    3.4941   15.5765 H   0  0  0  0  0  0  0  0  0  0  0  0
   48.2630    6.1674   17.9177 H   0  0  0  0  0  0  0  0  0  0  0  0
   47.9178    6.7893   20.2486 H   0  0  0  0  0  0  0  0  0  0  0  0
   49.8489    5.8540   22.8716 H   0  0  0  0  0  0  0  0  0  0  0  0
   51.7983    4.6192   18.2879 H   0  0  0  0  0  0  0  0  0  0  0  0
  2  3  1  0
  3  4  2  0
  4  1  1  0
  5  2  2  0
  6  1  2  0
  7  1  1  0
  8  2  1  0
 10  9  1  0
 11  9  1  0
 12  9  2  3
 13 21  1  0
 14 10  2  0
 15 10  1  0
 16 11  2  0
 17 12  1  0
 18 12  1  0
 19 16  1  0
 20 15  1  0
 21 18  1  0
 22 17  1  0
 23 11  1  0
 24 13  1  0
 25 14  1  0
 26 15  2  0
 27 16  1  0
 28 26  1  0
 29 23  2  0
 30 29  1  0
 22 13  1  0
 20 19  1  0
 27 30  2  0
 25 28  2  0
 32 33  1  0
 33 34  2  0
 34 31  1  0
 35 32  2  0
 36 31  2  0
 37 31  1  0
 38 32  1  0
  3 39  1  0
  4 40  1  0
  7 41  1  0
  8 42  1  0
 17 43  1  0
 17 44  1  0
 18 45  1  0
 18 46  1  0
 19 47  1  0
 19 48  1  0
 20 49  1  0
 20 50  1  0
 21 51  1  0
 21 52  1  0
 22 53  1  0
 22 54  1  0
 23 55  1  0
 24 56  1  0
 24 57  1  0
 24 58  1  0
 25 59  1  0
 26 60  1  0
 27 61  1  0
 28 62  1  0
 29 63  1  0
 30 64  1  0
 33 65  1  0
 34 66  1  0
 37 67  1  0
 38 68  1  0
M  END
> <Uni-Dock RESULT> 
ENERGY=   -5.103  LOWER_BOUND=    6.137  UPPER_BOUND=    8.893
INTER + INTRA:          -5.103
INTER:                  -5.103
INTRA:                   0.000
UNBOUND:                 0.000

$$$$

     RDKit          3D

 68 69  0  0  0  0  0  0  0  0999 V2000
   48.9218   10.8722   12.4889 C   0  0  0  0  0  0  0  0  0  0  0  0
   47.7789    8.3615   13.6668 C   0  0  0  0  0  0  0  0  0  0  0  0
   48.1607    8.5201   12.2623 C   0  0  0  0  0  0  0  0  0  0  0  0
   48.7114    9.6250   11.7416 C   0  0  0  0  0  0  0  0  0  0  0  0
   46.7123    7.9251   14.0552 O   0  0  0  0  0  0  0  0  0  0  0  0
   48.3590   11.2486   13.4972 O   0  0  0  0  0  0  0  0  0  0  0  0
   49.8423   11.6226   11.8622 O   0  0  0  0  0  0  0  0  0  0  0  0
   48.7967    8.6367   14.4946 O   0  0  0  0  0  0  0  0  0  0  0  0
   48.0846    9.6761   13.3101 C   0  0  0  0  0  0  0  0  0  0  0  0
   48.4048    9.3755   14.7332 C   0  0  0  0  0  0  0  0  0  0  0  0
   46.9538    8.9715   12.6583 C   0  0  0  0  0  0  0  0  0  0  0  0
   48.8813   10.4994   12.5720 C   0  0  0  0  0  0  0  0  0  0  0  0
   50.7313   12.2600   10.9219 N   0  0  0  0  0  0  0  0  0  0  0  0
   48.5168   10.4727   15.5323 N   0  0  0  0  0  0  0  0  0  0  0  0
   48.5429    8.0665   15.2180 C   0  0  0  0  0  0  0  0  0  0  0  0
   47.0640    7.5907   12.4246 C   0  0  0  0  0  0  0  0  0  0  0  0
   50.1382   11.1721   13.1183 C   0  0  0  0  0  0  0  0  0  0  0  0
   48.6614   10.8106   11.0954 C   0  0  0  0  0  0  0  0  0  0  0  0
   48.2999    6.8575   12.8839 C   0  0  0  0  0  0  0  0  0  0  0  0
   48.3881    6.7904   14.4145 C   0  0  0  0  0  0  0  0  0  0  0  0
   49.2794   12.1615   10.6964 C   0  0  0  0  0  0  0  0  0  0  0  0
   51.1911   11.3848   12.0161 C   0  0  0  0  0  0  0  0  0  0  0  0
   45.7719    9.6438   12.3233 C   0  0  0  0  0  0  0  0  0  0  0  0
   51.4905   11.9979    9.7024 C   0  0  0  0  0  0  0  0  0  0  0  0
   48.7791   10.2804   16.8397 C   0  0  0  0  0  0  0  0  0  0  0  0
   48.8148    7.9212   16.5905 C   0  0  0  0  0  0  0  0  0  0  0  0
   46.0047    6.9097   11.8108 C   0  0  0  0  0  0  0  0  0  0  0  0
   48.9375    9.0353   17.4117 C   0  0  0  0  0  0  0  0  0  0  0  0
   44.7223    8.9573   11.7137 C   0  0  0  0  0  0  0  0  0  0  0  0
   44.8421    7.5938   11.4514 C   0  0  0  0  0  0  0  0  0  0  0  0
   49.1998   10.7684   12.5695 C   0  0  0  0  0  0  0  0  0  0  0  0
   47.4938    8.4941   13.5180 C   0  0  0  0  0  0  0  0  0  0  0  0
   48.1109    8.5683   12.1924 C   0  0  0  0  0  0  0  0  0  0  0  0
   48.9064    9.5639   11.7802 C   0  0  0  0  0  0  0  0  0  0  0  0
   46.3181    8.2675   13.7292 O   0  0  0  0  0  0  0  0  0  0  0  0
   48.5725   11.2296   13.5016 O   0  0  0  0  0  0  0  0  0  0  0  0
   50.2975   11.3683   12.0816 O   0  0  0  0  0  0  0  0  0  0  0  0
   48.4050    8.5876   14.4971 O   0  0  0  0  0  0  0  0  0  0  0  0
   47.9454    7.6621   11.6368 H   0  0  0  0  0  0  0  0  0  0  0  0
   48.9942    9.6493   10.6955 H   0  0  0  0  0  0  0  0  0  0  0  0
   49.9083   12.4231   12.4234 H   0  0  0  0  0  0  0  0  0  0  0  0
   48.4111    8.5325   15.3884 H   0  0  0  0  0  0  0  0  0  0  0  0
   50.6092   10.5650   13.8994 H   0  0  0  0  0  0  0  0  0  0  0  0
   49.8682   12.1394   13.5617 H   0  0  0  0  0  0  0  0  0  0  0  0
   49.1112   10.0110   10.4930 H   0  0  0  0  0  0  0  0  0  0  0  0
   47.5990   10.8534   10.8403 H   0  0  0  0  0  0  0  0  0  0  0  0
   49.1964    7.3235   12.4558 H   0  0  0  0  0  0  0  0  0  0  0  0
   48.2820    5.8328   12.4917 H   0  0  0  0  0  0  0  0  0  0  0  0
   49.2468    6.1485   14.6532 H   0  0  0  0  0  0  0  0  0  0  0  0
   47.4935    6.2757   14.7909 H   0  0  0  0  0  0  0  0  0  0  0  0
   48.7996   12.9524   11.2885 H   0  0  0  0  0  0  0  0  0  0  0  0
   49.0251   12.3885    9.6537 H   0  0  0  0  0  0  0  0  0  0  0  0
   52.0896   11.8289   12.4617 H   0  0  0  0  0  0  0  0  0  0  0  0
   51.4823   10.3975   11.6294 H   0  0  0  0  0  0  0  0  0  0  0  0
   45.6703   10.7055   12.5364 H   0  0  0  0  0  0  0  0  0  0  0  0
   51.3086   10.9907    9.3129 H   0  0  0  0  0  0  0  0  0  0  0  0
   52.5642   12.1092    9.8849 H   0  0  0  0  0  0  0  0  0  0  0  0
   51.2267   12.7214    8.9227 H   0  0  0  0  0  0  0  0  0  0  0  0
   48.8569   11.1859   17.4328 H   0  0  0  0  0  0  0  0  0  0  0  0
   48.9240    6.9299   17.0254 H   0  0  0  0  0  0  0  0  0  0  0  0
   46.0727    5.8421   11.6186 H   0  0  0  0  0  0  0  0  0  0  0  0
   49.1440    8.9318   18.4705 H   0  0  0  0  0  0  0  0  0  0  0  0
   43.8109    9.4863   11.4484 H   0  0  0  0  0  0  0  0  0  0  0  0
   44.0223    7.0595   10.9779 H   0  0  0  0  0  0  0  0  0  0  0  0
   47.8582    7.7499   11.5292 H   0  0  0  0  0  0  0  0  0  0  0  0
   49.3473    9.5319   10.7904 H   0  0  0  0  0  0  0  0  0  0  0  0
   50.4086   12.1509   12.6608 H   0  0  0  0  0  0  0  0  0  0  0  0
   47.8739    8.5671   15.3192 H   0  0  0  0  0  0  0  0  0  0  0  0
  2  3  1  0
  3  4  2  0
  4  1  1  0
  5  2  2  0
  6  1  2  0
  7  1  1  0
  8  2  1  0
 10  9  1  0
 11  9  1  0
 12  9  2  3
 13 21  1  0
 14 10  2  0
 15 10  1  0
 16 11  2  0
 17 12  1  0
 18 12  1  0
 19 16  1  0
 20 15  1  0
 21 18  1  0
 22 17  1  0
 23 11  1  0
 24 13  1  0
 25 14  1  0
 26 15  2  0
 27 16  1  0
 28 26  1  0
 29 23  2  0
 30 29  1  0
 22 13  1  0
 20 19  1  0
 27 30  2  0
 25 28  2  0
 32 33  1  0
 33 34  2  0
 34 31  1  0
 35 32  2  0
 36 31  2  0
 37 31  1  0
 38 32  1  0
  3 39  1  0
  4 40  1  0
  7 41  1  0
  8 42  1  0
 17 43  1  0
 17 44  1  0
 18 45  1  0
 18 46  1  0
 19 47  1  0
 19 48  1  0
 20 49  1  0
 20 50  1  0
 21 51  1  0
 21 52  1  0
 22 53  1  0
 22 54  1  0
 23 55  1  0
 24 56  1  0
 24 57  1  0
 24 58  1  0
 25 59  1  0
 26 60  1  0
 27 61  1  0
 28 62  1  0
 29 63  1  0
 30 64  1  0
 33 65  1  0
 34 66  1  0
 37 67  1  0
 38 68  1  0
M  END
> <Uni-Dock RESULT> 
ENERGY=   -5.033  LOWER_BOUND=    2.115  UPPER_BOUND=    5.251
INTER + INTRA:          -5.033
INTER:                  -5.033
INTRA:                   0.000
UNBOUND:                 0.000

$$$$

     RDKit          3D

 68 69  0  0  0  0  0  0  0  0999 V2000
   50.8083    5.2708   21.5225 C   0  0  0  0  0  0  0  0  0  0  0  0
   48.2021    6.4889   20.6731 C   0  0  0  0  0  0  0  0  0  0  0  0
   49.2790    7.2184   21.3452 C   0  0  0  0  0  0  0  0  0  0  0  0
   50.4613    6.6889   21.6873 C   0  0  0  0  0  0  0  0  0  0  0  0
   47.0340    6.5010   21.0111 O   0  0  0  0  0  0  0  0  0  0  0  0
   50.0591    4.3209   21.4161 O   0  0  0  0  0  0  0  0  0  0  0  0
   52.1433    5.1284   21.5478 O   0  0  0  0  0  0  0  0  0  0  0  0
   48.6278    5.8943   19.5496 O   0  0  0  0  0  0  0  0  0  0  0  0
   49.2226    5.6687   21.1576 C   0  0  0  0  0  0  0  0  0  0  0  0
   48.5706    5.1178   19.9371 C   0  0  0  0  0  0  0  0  0  0  0  0
   48.4233    6.4951   22.0948 C   0  0  0  0  0  0  0  0  0  0  0  0
   50.5613    5.5189   21.3645 C   0  0  0  0  0  0  0  0  0  0  0  0
   53.5658    5.2560   21.7504 N   0  0  0  0  0  0  0  0  0  0  0  0
   48.7502    3.7802   19.7540 N   0  0  0  0  0  0  0  0  0  0  0  0
   47.8031    5.9065   19.0673 C   0  0  0  0  0  0  0  0  0  0  0  0
   47.9755    7.7564   21.6682 C   0  0  0  0  0  0  0  0  0  0  0  0
   51.4905    4.7930   20.3947 C   0  0  0  0  0  0  0  0  0  0  0  0
   51.3176    6.1030   22.5529 C   0  0  0  0  0  0  0  0  0  0  0  0
   48.2753    8.2127   20.2618 C   0  0  0  0  0  0  0  0  0  0  0  0
   47.5113    7.3863   19.2185 C   0  0  0  0  0  0  0  0  0  0  0  0
   52.6001    5.3115   22.8609 C   0  0  0  0  0  0  0  0  0  0  0  0
   52.9148    5.3749   20.4326 C   0  0  0  0  0  0  0  0  0  0  0  0
   48.0690    6.0214   23.3640 C   0  0  0  0  0  0  0  0  0  0  0  0
   54.6185    6.2577   21.8943 C   0  0  0  0  0  0  0  0  0  0  0  0
   48.1678    3.2031   18.6849 C   0  0  0  0  0  0  0  0  0  0  0  0
   47.2158    5.2547   17.9678 C   0  0  0  0  0  0  0  0  0  0  0  0
   47.2187    8.5493   22.5404 C   0  0  0  0  0  0  0  0  0  0  0  0
   47.3995    3.8917   17.7695 C   0  0  0  0  0  0  0  0  0  0  0  0
   47.3143    6.8173   24.2250 C   0  0  0  0  0  0  0  0  0  0  0  0
   46.8963    8.0824   23.8160 C   0  0  0  0  0  0  0  0  0  0  0  0
   50.9162    5.3375   21.2424 C   0  0  0  0  0  0  0  0  0  0  0  0
   48.1381    6.4380   21.0112 C   0  0  0  0  0  0  0  0  0  0  0  0
   49.3024    7.2148   21.4407 C   0  0  0  0  0  0  0  0  0  0  0  0
   50.5517    6.7365   21.5063 C   0  0  0  0  0  0  0  0  0  0  0  0
   47.0826    6.3723   21.6110 O   0  0  0  0  0  0  0  0  0  0  0  0
   50.2004    4.3565   21.2588 O   0  0  0  0  0  0  0  0  0  0  0  0
   52.2350    5.2546   21.0039 O   0  0  0  0  0  0  0  0  0  0  0  0
   48.3238    5.8906   19.8014 O   0  0  0  0  0  0  0  0  0  0  0  0
   49.0477    8.2511   21.5771 H   0  0  0  0  0  0  0  0  0  0  0  0
   51.2182    7.3077   22.1553 H   0  0  0  0  0  0  0  0  0  0  0  0
   52.2744    4.1635   21.4387 H   0  0  0  0  0  0  0  0  0  0  0  0
   47.8391    5.4174   19.2194 H   0  0  0  0  0  0  0  0  0  0  0  0
   51.1360    4.8788   19.3615 H   0  0  0  0  0  0  0  0  0  0  0  0
   51.5212    3.7262   20.6518 H   0  0  0  0  0  0  0  0  0  0  0  0
   51.5767    7.1462   22.3312 H   0  0  0  0  0  0  0  0  0  0  0  0
   50.7118    6.1033   23.4631 H   0  0  0  0  0  0  0  0  0  0  0  0
   49.3565    8.1817   20.0770 H   0  0  0  0  0  0  0  0  0  0  0  0
   47.9854    9.2653   20.1511 H   0  0  0  0  0  0  0  0  0  0  0  0
   47.6992    7.8570   18.2440 H   0  0  0  0  0  0  0  0  0  0  0  0
   46.4355    7.4870   19.4168 H   0  0  0  0  0  0  0  0  0  0  0  0
   52.3210    4.2780   23.1066 H   0  0  0  0  0  0  0  0  0  0  0  0
   53.0669    5.7075   23.7712 H   0  0  0  0  0  0  0  0  0  0  0  0
   53.5331    4.8535   19.6917 H   0  0  0  0  0  0  0  0  0  0  0  0
   52.8604    6.4271   20.1181 H   0  0  0  0  0  0  0  0  0  0  0  0
   48.3839    5.0304   23.6827 H   0  0  0  0  0  0  0  0  0  0  0  0
   54.2185    7.2771   21.9017 H   0  0  0  0  0  0  0  0  0  0  0  0
   55.3426    6.1765   21.0771 H   0  0  0  0  0  0  0  0  0  0  0  0
   55.1749    6.0993   22.8251 H   0  0  0  0  0  0  0  0  0  0  0  0
   48.3401    2.1363   18.5854 H   0  0  0  0  0  0  0  0  0  0  0  0
   46.6027    5.8130   17.2634 H   0  0  0  0  0  0  0  0  0  0  0  0
   46.8661    9.5295   22.2298 H   0  0  0  0  0  0  0  0  0  0  0  0
   46.9481    3.3816   16.9265 H   0  0  0  0  0  0  0  0  0  0  0  0
   47.0496    6.4476   25.2120 H   0  0  0  0  0  0  0  0  0  0  0  0
   46.3063    8.7011   24.4875 H   0  0  0  0  0  0  0  0  0  0  0  0
   49.0826    8.2335   21.7364 H   0  0  0  0  0  0  0  0  0  0  0  0
   51.3659    7.3849   21.8094 H   0  0  0  0  0  0  0  0  0  0  0  0
   52.3806    4.2985   20.8460 H   0  0  0  0  0  0  0  0  0  0  0  0
   47.5078    5.3723   19.6469 H   0  0  0  0  0  0  0  0  0  0  0  0
  2  3  1  0
  3  4  2  0
  4  1  1  0
  5  2  2  0
  6  1  2  0
  7  1  1  0
  8  2  1  0
 10  9  1  0
 11  9  1  0
 12  9  2  3
 13 21  1  0
 14 10  2  0
 15 10  1  0
 16 11  2  0
 17 12  1  0
 18 12  1  0
 19 16  1  0
 20 15  1  0
 21 18  1  0
 22 17  1  0
 23 11  1  0
 24 13  1  0
 25 14  1  0
 26 15  2  0
 27 16  1  0
 28 26  1  0
 29 23  2  0
 30 29  1  0
 22 13  1  0
 20 19  1  0
 27 30  2  0
 25 28  2  0
 32 33  1  0
 33 34  2  0
 34 31  1  0
 35 32  2  0
 36 31  2  0
 37 31  1  0
 38 32  1  0
  3 39  1  0
  4 40  1  0
  7 41  1  0
  8 42  1  0
 17 43  1  0
 17 44  1  0
 18 45  1  0
 18 46  1  0
 19 47  1  0
 19 48  1  0
 20 49  1  0
 20 50  1  0
 21 51  1  0
 21 52  1  0
 22 53  1  0
 22 54  1  0
 23 55  1  0
 24 56  1  0
 24 57  1  0
 24 58  1  0
 25 59  1  0
 26 60  1  0
 27 61  1  0
 28 62  1  0
 29 63  1  0
 30 64  1  0
 33 65  1  0
 34 66  1  0
 37 67  1  0
 38 68  1  0
M  END
> <Uni-Dock RESULT> 
ENERGY=   -5.017  LOWER_BOUND=    6.900  UPPER_BOUND=    9.810
INTER + INTRA:          -5.017
INTER:                  -5.017
INTRA:                   0.000
UNBOUND:                 0.000

$$$$

     RDKit          3D

 68 69  0  0  0  0  0  0  0  0999 V2000
   50.4909    8.9541   12.5622 C   0  0  0  0  0  0  0  0  0  0  0  0
   48.1781    7.4839   13.7815 C   0  0  0  0  0  0  0  0  0  0  0  0
   48.4731    7.5238   12.3480 C   0  0  0  0  0  0  0  0  0  0  0  0
   49.5291    8.1431   11.8035 C   0  0  0  0  0  0  0  0  0  0  0  0
   47.0925    7.7174   14.2775 O   0  0  0  0  0  0  0  0  0  0  0  0
   50.3366    9.4892   13.6415 O   0  0  0  0  0  0  0  0  0  0  0  0
   51.6266    9.0820   11.8572 O   0  0  0  0  0  0  0  0  0  0  0  0
   49.2205    7.0322   14.4930 O   0  0  0  0  0  0  0  0  0  0  0  0
   49.1734    8.3996   13.4354 C   0  0  0  0  0  0  0  0  0  0  0  0
   49.3599    7.8337   14.8004 C   0  0  0  0  0  0  0  0  0  0  0  0
   47.7998    8.5543   12.8976 C   0  0  0  0  0  0  0  0  0  0  0  0
   50.2444    8.6692   12.6370 C   0  0  0  0  0  0  0  0  0  0  0  0
   52.6468    9.1672   10.8410 N   0  0  0  0  0  0  0  0  0  0  0  0
   50.1579    8.5761   15.6170 N   0  0  0  0  0  0  0  0  0  0  0  0
   48.7340    6.6511   15.2218 C   0  0  0  0  0  0  0  0  0  0  0  0
   47.0551    7.3991   12.6067 C   0  0  0  0  0  0  0  0  0  0  0  0
   51.6925    8.4254   13.0543 C   0  0  0  0  0  0  0  0  0  0  0  0
   50.1406    9.1903   11.2075 C   0  0  0  0  0  0  0  0  0  0  0  0
   47.6496    6.0424   12.8932 C   0  0  0  0  0  0  0  0  0  0  0  0
   47.7956    5.7899   14.3998 C   0  0  0  0  0  0  0  0  0  0  0  0
   51.4051    9.9570   10.7841 C   0  0  0  0  0  0  0  0  0  0  0  0
   52.5813    8.0881   11.8439 C   0  0  0  0  0  0  0  0  0  0  0  0
   47.2221    9.8184   12.7261 C   0  0  0  0  0  0  0  0  0  0  0  0
   53.0103    8.6298    9.5329 C   0  0  0  0  0  0  0  0  0  0  0  0
   50.3532    8.1425   16.8775 C   0  0  0  0  0  0  0  0  0  0  0  0
   48.9696    6.2435   16.5472 C   0  0  0  0  0  0  0  0  0  0  0  0
   45.7559    7.5274   12.0990 C   0  0  0  0  0  0  0  0  0  0  0  0
   49.7879    6.9912   17.3851 C   0  0  0  0  0  0  0  0  0  0  0  0
   45.9277    9.9362   12.2212 C   0  0  0  0  0  0  0  0  0  0  0  0
   45.1988    8.7921   11.9013 C   0  0  0  0  0  0  0  0  0  0  0  0
   50.6589    8.7004   12.6061 C   0  0  0  0  0  0  0  0  0  0  0  0
   48.0161    7.7716   13.6716 C   0  0  0  0  0  0  0  0  0  0  0  0
   48.4563    7.5985   12.2861 C   0  0  0  0  0  0  0  0  0  0  0  0
   49.6525    7.9764   11.8169 C   0  0  0  0  0  0  0  0  0  0  0  0
   46.9536    8.2549   14.0116 O   0  0  0  0  0  0  0  0  0  0  0  0
   50.4973    9.3489   13.6202 O   0  0  0  0  0  0  0  0  0  0  0  0
   51.8586    8.5901   12.0132 O   0  0  0  0  0  0  0  0  0  0  0  0
   48.8770    7.2209   14.5398 O   0  0  0  0  0  0  0  0  0  0  0  0
   47.7464    7.0178   11.7238 H   0  0  0  0  0  0  0  0  0  0  0  0
   49.6921    8.0981   10.7329 H   0  0  0  0  0  0  0  0  0  0  0  0
   52.1945    9.6350   12.4332 H   0  0  0  0  0  0  0  0  0  0  0  0
   48.9162    7.0874   15.4219 H   0  0  0  0  0  0  0  0  0  0  0  0
   51.7710    7.5859   13.7540 H   0  0  0  0  0  0  0  0  0  0  0  0
   52.0802    9.3203   13.5583 H   0  0  0  0  0  0  0  0  0  0  0  0
   49.9846    8.3409   10.5302 H   0  0  0  0  0  0  0  0  0  0  0  0
   49.2933    9.8695   11.0803 H   0  0  0  0  0  0  0  0  0  0  0  0
   48.6129    5.9359   12.3787 H   0  0  0  0  0  0  0  0  0  0  0  0
   47.0005    5.2644   12.4719 H   0  0  0  0  0  0  0  0  0  0  0  0
   48.1243    4.7481   14.5147 H   0  0  0  0  0  0  0  0  0  0  0  0
   46.8011    5.8609   14.8611 H   0  0  0  0  0  0  0  0  0  0  0  0
   51.5313   10.8179   11.4544 H   0  0  0  0  0  0  0  0  0  0  0  0
   51.2567   10.3887    9.7866 H   0  0  0  0  0  0  0  0  0  0  0  0
   53.5989    7.8789   12.1957 H   0  0  0  0  0  0  0  0  0  0  0  0
   52.2031    7.1593   11.3930 H   0  0  0  0  0  0  0  0  0  0  0  0
   47.7836   10.7132   12.9849 H   0  0  0  0  0  0  0  0  0  0  0  0
   52.2401    7.9614    9.1339 H   0  0  0  0  0  0  0  0  0  0  0  0
   53.9525    8.0753    9.5918 H   0  0  0  0  0  0  0  0  0  0  0  0
   53.1673    9.4420    8.8140 H   0  0  0  0  0  0  0  0  0  0  0  0
   50.9950    8.7701   17.4873 H   0  0  0  0  0  0  0  0  0  0  0  0
   48.5046    5.3387   16.9331 H   0  0  0  0  0  0  0  0  0  0  0  0
   45.1654    6.6454   11.8646 H   0  0  0  0  0  0  0  0  0  0  0  0
   49.9722    6.6855   18.4084 H   0  0  0  0  0  0  0  0  0  0  0  0
   45.4879   10.9201   12.0823 H   0  0  0  0  0  0  0  0  0  0  0  0
   44.1890    8.8853   11.5096 H   0  0  0  0  0  0  0  0  0  0  0  0
   47.7201    7.1498   11.6302 H   0  0  0  0  0  0  0  0  0  0  0  0
   49.9136    7.7883   10.7817 H   0  0  0  0  0  0  0  0  0  0  0  0
   52.4535    9.1006   12.6011 H   0  0  0  0  0  0  0  0  0  0  0  0
   48.4999    7.4355   15.4173 H   0  0  0  0  0  0  0  0  0  0  0  0
  2  3  1  0
  3  4  2  0
  4  1  1  0
  5  2  2  0
  6  1  2  0
  7  1  1  0
  8  2  1  0
 10  9  1  0
 11  9  1  0
 12  9  2  3
 13 21  1  0
 14 10  2  0
 15 10  1  0
 16 11  2  0
 17 12  1  0
 18 12  1  0
 19 16  1  0
 20 15  1  0
 21 18  1  0
 22 17  1  0
 23 11  1  0
 24 13  1  0
 25 14  1  0
 26 15  2  0
 27 16  1  0
 28 26  1  0
 29 23  2  0
 30 29  1  0
 22 13  1  0
 20 19  1  0
 27 30  2  0
 25 28  2  0
 32 33  1  0
 33 34  2  0
 34 31  1  0
 35 32  2  0
 36 31  2  0
 37 31  1  0
 38 32  1  0
  3 39  1  0
  4 40  1  0
  7 41  1  0
  8 42  1  0
 17 43  1  0
 17 44  1  0
 18 45  1  0
 18 46  1  0
 19 47  1  0
 19 48  1  0
 20 49  1  0
 20 50  1  0
 21 51  1  0
 21 52  1  0
 22 53  1  0
 22 54  1  0
 23 55  1  0
 24 56  1  0
 24 57  1  0
 24 58  1  0
 25 59  1  0
 26 60  1  0
 27 61  1  0
 28 62  1  0
 29 63  1  0
 30 64  1  0
 33 65  1  0
 34 66  1  0
 37 67  1  0
 38 68  1  0
M  END
> <Uni-Dock RESULT> 
ENERGY=   -4.844  LOWER_BOUND=    2.248  UPPER_BOUND=    5.343
INTER + INTRA:          -4.844
INTER:                  -4.844
INTRA:                   0.000
UNBOUND:                 0.000

$$$$
