
     RDKit          3D

 68 69  0  0  0  0  0  0  0  0999 V2000
   42.3878   10.3603   10.8692 C   0  0  0  0  0  0  0  0  0  0  0  0
   44.2610   12.1602    9.4333 C   0  0  0  0  0  0  0  0  0  0  0  0
   43.9983   12.2380   10.8739 C   0  0  0  0  0  0  0  0  0  0  0  0
   43.1030   11.4701   11.5073 C   0  0  0  0  0  0  0  0  0  0  0  0
   43.4556   11.9748    8.5439 O   0  0  0  0  0  0  0  0  0  0  0  0
   42.8186    9.5784   10.0464 O   0  0  0  0  0  0  0  0  0  0  0  0
   41.1479   10.2698   11.3734 O   0  0  0  0  0  0  0  0  0  0  0  0
   45.5616   12.3885    9.1960 O   0  0  0  0  0  0  0  0  0  0  0  0
   43.7445   11.0782   10.1594 C   0  0  0  0  0  0  0  0  0  0  0  0
   44.7423   10.4755   11.0860 C   0  0  0  0  0  0  0  0  0  0  0  0
   44.1847   11.5306    8.8176 C   0  0  0  0  0  0  0  0  0  0  0  0
   42.4687   11.3236   10.5699 C   0  0  0  0  0  0  0  0  0  0  0  0
   39.6676   12.0052   11.5291 N   0  0  0  0  0  0  0  0  0  0  0  0
   44.3713    9.2771   11.6172 N   0  0  0  0  0  0  0  0  0  0  0  0
   45.9788   11.0778   11.3614 C   0  0  0  0  0  0  0  0  0  0  0  0
   45.0518   12.6327    8.7288 C   0  0  0  0  0  0  0  0  0  0  0  0
   41.4023   11.9948    9.7109 C   0  0  0  0  0  0  0  0  0  0  0  0
   41.9587   11.0062   11.9732 C   0  0  0  0  0  0  0  0  0  0  0  0
   45.5411   13.2935    9.9936 C   0  0  0  0  0  0  0  0  0  0  0  0
   46.4908   12.3824   10.7827 C   0  0  0  0  0  0  0  0  0  0  0  0
   40.8449   11.9714   12.4142 C   0  0  0  0  0  0  0  0  0  0  0  0
   39.9865   11.5877   10.1520 C   0  0  0  0  0  0  0  0  0  0  0  0
   43.7990   10.8509    7.6555 C   0  0  0  0  0  0  0  0  0  0  0  0
   38.5642   11.2096   12.0616 C   0  0  0  0  0  0  0  0  0  0  0  0
   45.2341    8.6577   12.4463 C   0  0  0  0  0  0  0  0  0  0  0  0
   46.8430   10.3883   12.2309 C   0  0  0  0  0  0  0  0  0  0  0  0
   45.4829   13.0706    7.4697 C   0  0  0  0  0  0  0  0  0  0  0  0
   46.4701    9.1688   12.7829 C   0  0  0  0  0  0  0  0  0  0  0  0
   44.2350   11.2930    6.4068 C   0  0  0  0  0  0  0  0  0  0  0  0
   45.0698   12.4054    6.3143 C   0  0  0  0  0  0  0  0  0  0  0  0
   44.7668   12.2346   10.0727 C   0  0  0  0  0  0  0  0  0  0  0  0
   42.3742   10.4264   10.2244 C   0  0  0  0  0  0  0  0  0  0  0  0
   43.0897   10.9582   11.3917 C   0  0  0  0  0  0  0  0  0  0  0  0
   44.1830   11.7287   11.3170 C   0  0  0  0  0  0  0  0  0  0  0  0
   42.7997   10.2442    9.1017 O   0  0  0  0  0  0  0  0  0  0  0  0
   45.9510   12.2077    9.7965 O   0  0  0  0  0  0  0  0  0  0  0  0
   43.8570   12.8570    9.3097 O   0  0  0  0  0  0  0  0  0  0  0  0
   41.1197   10.1010   10.5758 O   0  0  0  0  0  0  0  0  0  0  0  0
   44.5534   12.9971   11.4117 H   0  0  0  0  0  0  0  0  0  0  0  0
   42.8946   11.6193   12.5598 H   0  0  0  0  0  0  0  0  0  0  0  0
   40.7544    9.5204   10.8789 H   0  0  0  0  0  0  0  0  0  0  0  0
   45.6353   12.2997    8.2224 H   0  0  0  0  0  0  0  0  0  0  0  0
   41.5126   13.0840    9.7888 H   0  0  0  0  0  0  0  0  0  0  0  0
   41.5014   11.7306    8.6551 H   0  0  0  0  0  0  0  0  0  0  0  0
   42.7607   11.0809   12.7155 H   0  0  0  0  0  0  0  0  0  0  0  0
   41.5774    9.9777   11.9924 H   0  0  0  0  0  0  0  0  0  0  0  0
   44.6887   13.6050   10.6103 H   0  0  0  0  0  0  0  0  0  0  0  0
   46.0754   14.2179    9.7393 H   0  0  0  0  0  0  0  0  0  0  0  0
   47.3503   12.1386   10.1428 H   0  0  0  0  0  0  0  0  0  0  0  0
   46.8779   12.9800   11.6191 H   0  0  0  0  0  0  0  0  0  0  0  0
   41.2599   12.9880   12.4418 H   0  0  0  0  0  0  0  0  0  0  0  0
   40.5574   11.7498   13.4499 H   0  0  0  0  0  0  0  0  0  0  0  0
   39.2565   12.0435    9.4726 H   0  0  0  0  0  0  0  0  0  0  0  0
   39.8906   10.4985   10.0400 H   0  0  0  0  0  0  0  0  0  0  0  0
   43.1569    9.9758    7.7239 H   0  0  0  0  0  0  0  0  0  0  0  0
   37.6901   11.2732   11.4036 H   0  0  0  0  0  0  0  0  0  0  0  0
   38.8342   10.1538   12.1777 H   0  0  0  0  0  0  0  0  0  0  0  0
   38.2490   11.5945   13.0378 H   0  0  0  0  0  0  0  0  0  0  0  0
   44.8925    7.7064   12.8429 H   0  0  0  0  0  0  0  0  0  0  0  0
   47.8193   10.8024   12.4747 H   0  0  0  0  0  0  0  0  0  0  0  0
   46.1512   13.9235    7.3805 H   0  0  0  0  0  0  0  0  0  0  0  0
   47.1307    8.6299   13.4520 H   0  0  0  0  0  0  0  0  0  0  0  0
   43.9260   10.7670    5.5074 H   0  0  0  0  0  0  0  0  0  0  0  0
   45.4100   12.7481    5.3403 H   0  0  0  0  0  0  0  0  0  0  0  0
   42.7032   10.6552   12.3580 H   0  0  0  0  0  0  0  0  0  0  0  0
   44.7201   12.0131   12.2136 H   0  0  0  0  0  0  0  0  0  0  0  0
   44.3552   13.1146    8.5071 H   0  0  0  0  0  0  0  0  0  0  0  0
   40.7276    9.7600    9.7448 H   0  0  0  0  0  0  0  0  0  0  0  0
  2  3  1  0
  3  4  2  0
  4  1  1  0
  5  2  2  0
  6  1  2  0
  7  1  1  0
  8  2  1  0
 10  9  1  0
 11  9  1  0
 12  9  2  3
 13 21  1  0
 14 10  2  0
 15 10  1  0
 16 11  2  0
 17 12  1  0
 18 12  1  0
 19 16  1  0
 20 15  1  0
 21 18  1  0
 22 17  1  0
 23 11  1  0
 24 13  1  0
 25 14  1  0
 26 15  2  0
 27 16  1  0
 28 26  1  0
 29 23  2  0
 30 29  1  0
 22 13  1  0
 20 19  1  0
 27 30  2  0
 25 28  2  0
 32 33  1  0
 33 34  2  0
 34 31  1  0
 35 32  2  0
 36 31  2  0
 37 31  1  0
 38 32  1  0
  3 39  1  0
  4 40  1  0
  7 41  1  0
  8 42  1  0
 17 43  1  0
 17 44  1  0
 18 45  1  0
 18 46  1  0
 19 47  1  0
 19 48  1  0
 20 49  1  0
 20 50  1  0
 21 51  1  0
 21 52  1  0
 22 53  1  0
 22 54  1  0
 23 55  1  0
 24 56  1  0
 24 57  1  0
 24 58  1  0
 25 59  1  0
 26 60  1  0
 27 61  1  0
 28 62  1  0
 29 63  1  0
 30 64  1  0
 33 65  1  0
 34 66  1  0
 37 67  1  0
 38 68  1  0
M  END
> <Uni-Dock RESULT> 
ENERGY=   -6.080  LOWER_BOUND=    0.000  UPPER_BOUND=    0.000
INTER + INTRA:          -6.080
INTER:                  -6.080
INTRA:                   0.000
UNBOUND:                 0.000

$$$$

     RDKit          3D

 68 69  0  0  0  0  0  0  0  0999 V2000
   49.4990    5.2336   19.1487 C   0  0  0  0  0  0  0  0  0  0  0  0
   48.0294    6.5478   21.3676 C   0  0  0  0  0  0  0  0  0  0  0  0
   48.3593    5.1192   21.3413 C   0  0  0  0  0  0  0  0  0  0  0  0
   48.9623    4.5159   20.3094 C   0  0  0  0  0  0  0  0  0  0  0  0
   47.6346    7.2324   20.4458 O   0  0  0  0  0  0  0  0  0  0  0  0
   50.0538    6.3134   19.1384 O   0  0  0  0  0  0  0  0  0  0  0  0
   49.3478    4.4873   18.0441 O   0  0  0  0  0  0  0  0  0  0  0  0
   48.1678    7.0229   22.6146 O   0  0  0  0  0  0  0  0  0  0  0  0
   49.0637    6.0329   20.5739 C   0  0  0  0  0  0  0  0  0  0  0  0
   50.2303    5.5696   21.3750 C   0  0  0  0  0  0  0  0  0  0  0  0
   48.3551    7.2713   20.9780 C   0  0  0  0  0  0  0  0  0  0  0  0
   48.5722    5.2762   19.5530 C   0  0  0  0  0  0  0  0  0  0  0  0
   47.3864    3.5230   17.3735 N   0  0  0  0  0  0  0  0  0  0  0  0
   51.3492    5.3028   20.6450 N   0  0  0  0  0  0  0  0  0  0  0  0
   50.1892    5.4513   22.7720 C   0  0  0  0  0  0  0  0  0  0  0  0
   47.6301    7.2708   22.1817 C   0  0  0  0  0  0  0  0  0  0  0  0
   47.3455    5.6417   18.7240 C   0  0  0  0  0  0  0  0  0  0  0  0
   49.1595    3.9278   19.1445 C   0  0  0  0  0  0  0  0  0  0  0  0
   47.6281    6.0330   23.0441 C   0  0  0  0  0  0  0  0  0  0  0  0
   49.0060    5.7684   23.6655 C   0  0  0  0  0  0  0  0  0  0  0  0
   48.0937    2.9904   18.5511 C   0  0  0  0  0  0  0  0  0  0  0  0
   47.3965    4.9961   17.3293 C   0  0  0  0  0  0  0  0  0  0  0  0
   48.4419    8.4433   20.2163 C   0  0  0  0  0  0  0  0  0  0  0  0
   47.9127    2.9708   16.1276 C   0  0  0  0  0  0  0  0  0  0  0  0
   52.4544    4.9023   21.3036 C   0  0  0  0  0  0  0  0  0  0  0  0
   51.3704    5.0321   23.4103 C   0  0  0  0  0  0  0  0  0  0  0  0
   46.9593    8.4335   22.5826 C   0  0  0  0  0  0  0  0  0  0  0  0
   52.5143    4.7510   22.6732 C   0  0  0  0  0  0  0  0  0  0  0  0
   47.7723    9.5965   20.6246 C   0  0  0  0  0  0  0  0  0  0  0  0
   47.0265    9.5888   21.8022 C   0  0  0  0  0  0  0  0  0  0  0  0
   48.3415    6.0536   21.9407 C   0  0  0  0  0  0  0  0  0  0  0  0
   49.2196    5.8144   19.0791 C   0  0  0  0  0  0  0  0  0  0  0  0
   49.3720    4.7565   20.0866 C   0  0  0  0  0  0  0  0  0  0  0  0
   49.0184    4.8858   21.3721 C   0  0  0  0  0  0  0  0  0  0  0  0
   49.1414    7.0134   19.2550 O   0  0  0  0  0  0  0  0  0  0  0  0
   48.6552    6.6047   22.9785 O   0  0  0  0  0  0  0  0  0  0  0  0
   47.2408    6.3803   21.2486 O   0  0  0  0  0  0  0  0  0  0  0  0
   49.2203    5.2698   17.8516 O   0  0  0  0  0  0  0  0  0  0  0  0
   48.0475    4.5497   22.2085 H   0  0  0  0  0  0  0  0  0  0  0  0
   49.1162    3.4436   20.3105 H   0  0  0  0  0  0  0  0  0  0  0  0
   49.7178    5.0530   17.3341 H   0  0  0  0  0  0  0  0  0  0  0  0
   47.9433    7.9729   22.5235 H   0  0  0  0  0  0  0  0  0  0  0  0
   46.4435    5.3062   19.2516 H   0  0  0  0  0  0  0  0  0  0  0  0
   47.2568    6.7213   18.5785 H   0  0  0  0  0  0  0  0  0  0  0  0
   49.6016    3.4090   20.0019 H   0  0  0  0  0  0  0  0  0  0  0  0
   49.9528    4.0911   18.4045 H   0  0  0  0  0  0  0  0  0  0  0  0
   47.2842    5.1687   22.4623 H   0  0  0  0  0  0  0  0  0  0  0  0
   46.8974    6.1537   23.8541 H   0  0  0  0  0  0  0  0  0  0  0  0
   49.2845    6.6381   24.2768 H   0  0  0  0  0  0  0  0  0  0  0  0
   48.8830    4.9224   24.3554 H   0  0  0  0  0  0  0  0  0  0  0  0
   47.3375    2.7947   19.3232 H   0  0  0  0  0  0  0  0  0  0  0  0
   48.5446    2.0133   18.3358 H   0  0  0  0  0  0  0  0  0  0  0  0
   46.5293    5.3326   16.7487 H   0  0  0  0  0  0  0  0  0  0  0  0
   48.2917    5.3671   16.8105 H   0  0  0  0  0  0  0  0  0  0  0  0
   49.0317    8.4569   19.3028 H   0  0  0  0  0  0  0  0  0  0  0  0
   47.3532    3.3567   15.2679 H   0  0  0  0  0  0  0  0  0  0  0  0
   48.9732    3.2084   15.9856 H   0  0  0  0  0  0  0  0  0  0  0  0
   47.7981    1.8813   16.1114 H   0  0  0  0  0  0  0  0  0  0  0  0
   53.3189    4.7025   20.6778 H   0  0  0  0  0  0  0  0  0  0  0  0
   51.4012    4.9305   24.4932 H   0  0  0  0  0  0  0  0  0  0  0  0
   46.3905    8.4516   23.5089 H   0  0  0  0  0  0  0  0  0  0  0  0
   53.4292    4.4295   23.1571 H   0  0  0  0  0  0  0  0  0  0  0  0
   47.8359   10.5009   20.0255 H   0  0  0  0  0  0  0  0  0  0  0  0
   46.5061   10.4889   22.1199 H   0  0  0  0  0  0  0  0  0  0  0  0
   49.8397    3.8420   19.7407 H   0  0  0  0  0  0  0  0  0  0  0  0
   49.2412    4.1032   22.0872 H   0  0  0  0  0  0  0  0  0  0  0  0
   46.9043    7.1812   21.7004 H   0  0  0  0  0  0  0  0  0  0  0  0
   49.1164    6.0412   17.2561 H   0  0  0  0  0  0  0  0  0  0  0  0
  2  3  1  0
  3  4  2  0
  4  1  1  0
  5  2  2  0
  6  1  2  0
  7  1  1  0
  8  2  1  0
 10  9  1  0
 11  9  1  0
 12  9  2  3
 13 21  1  0
 14 10  2  0
 15 10  1  0
 16 11  2  0
 17 12  1  0
 18 12  1  0
 19 16  1  0
 20 15  1  0
 21 18  1  0
 22 17  1  0
 23 11  1  0
 24 13  1  0
 25 14  1  0
 26 15  2  0
 27 16  1  0
 28 26  1  0
 29 23  2  0
 30 29  1  0
 22 13  1  0
 20 19  1  0
 27 30  2  0
 25 28  2  0
 32 33  1  0
 33 34  2  0
 34 31  1  0
 35 32  2  0
 36 31  2  0
 37 31  1  0
 38 32  1  0
  3 39  1  0
  4 40  1  0
  7 41  1  0
  8 42  1  0
 17 43  1  0
 17 44  1  0
 18 45  1  0
 18 46  1  0
 19 47  1  0
 19 48  1  0
 20 49  1  0
 20 50  1  0
 21 51  1  0
 21 52  1  0
 22 53  1  0
 22 54  1  0
 23 55  1  0
 24 56  1  0
 24 57  1  0
 24 58  1  0
 25 59  1  0
 26 60  1  0
 27 61  1  0
 28 62  1  0
 29 63  1  0
 30 64  1  0
 33 65  1  0
 34 66  1  0
 37 67  1  0
 38 68  1  0
M  END
> <Uni-Dock RESULT> 
ENERGY=   -5.188  LOWER_BOUND=   10.850  UPPER_BOUND=   13.300
INTER + INTRA:          -5.188
INTER:                  -5.188
INTRA:                   0.000
UNBOUND:                 0.000

$$$$

     RDKit          3D

 68 69  0  0  0  0  0  0  0  0999 V2000
   46.4290    7.8310   12.8697 C   0  0  0  0  0  0  0  0  0  0  0  0
   49.3651    7.8110   13.3041 C   0  0  0  0  0  0  0  0  0  0  0  0
   48.7360    7.7436   11.9813 C   0  0  0  0  0  0  0  0  0  0  0  0
   47.4120    7.6847   11.7915 C   0  0  0  0  0  0  0  0  0  0  0  0
   49.0188    7.2388   14.3174 O   0  0  0  0  0  0  0  0  0  0  0  0
   46.4897    8.5703   13.8308 O   0  0  0  0  0  0  0  0  0  0  0  0
   45.3668    7.0489   12.6246 O   0  0  0  0  0  0  0  0  0  0  0  0
   50.4648    8.5773   13.2454 O   0  0  0  0  0  0  0  0  0  0  0  0
   48.0540    8.2509   13.0756 C   0  0  0  0  0  0  0  0  0  0  0  0
   47.9967    9.4981   12.2640 C   0  0  0  0  0  0  0  0  0  0  0  0
   49.1158    8.1033   14.1002 C   0  0  0  0  0  0  0  0  0  0  0  0
   47.2220    7.2053   12.8096 C   0  0  0  0  0  0  0  0  0  0  0  0
   45.4690    4.8206   12.1238 N   0  0  0  0  0  0  0  0  0  0  0  0
   46.7742   10.0987   12.2331 N   0  0  0  0  0  0  0  0  0  0  0  0
   49.1200   10.0290   11.6130 C   0  0  0  0  0  0  0  0  0  0  0  0
   50.4500    7.9837   13.6758 C   0  0  0  0  0  0  0  0  0  0  0  0
   47.2552    5.8702   13.5460 C   0  0  0  0  0  0  0  0  0  0  0  0
   46.1811    7.2188   11.6932 C   0  0  0  0  0  0  0  0  0  0  0  0
   50.7672    8.0513   12.2026 C   0  0  0  0  0  0  0  0  0  0  0  0
   50.5228    9.4541   11.6303 C   0  0  0  0  0  0  0  0  0  0  0  0
   45.9202    5.8109   11.1307 C   0  0  0  0  0  0  0  0  0  0  0  0
   45.8896    5.1651   13.4937 C   0  0  0  0  0  0  0  0  0  0  0  0
   48.8192    8.1365   15.4684 C   0  0  0  0  0  0  0  0  0  0  0  0
   44.0236    4.6159   12.0694 C   0  0  0  0  0  0  0  0  0  0  0  0
   46.6501   11.2467   11.5387 C   0  0  0  0  0  0  0  0  0  0  0  0
   48.9365   11.2301   10.9045 C   0  0  0  0  0  0  0  0  0  0  0  0
   51.4671    7.8492   14.6299 C   0  0  0  0  0  0  0  0  0  0  0  0
   47.6916   11.8461   10.8617 C   0  0  0  0  0  0  0  0  0  0  0  0
   49.8387    8.0040   16.4108 C   0  0  0  0  0  0  0  0  0  0  0  0
   51.1595    7.8535   15.9914 C   0  0  0  0  0  0  0  0  0  0  0  0
   49.5267    8.2084   12.6069 C   0  0  0  0  0  0  0  0  0  0  0  0
   46.6897    7.6975   13.4481 C   0  0  0  0  0  0  0  0  0  0  0  0
   47.1067    8.0050   12.0737 C   0  0  0  0  0  0  0  0  0  0  0  0
   48.3682    8.2754   11.7132 C   0  0  0  0  0  0  0  0  0  0  0  0
   47.2469    7.9928   14.4859 O   0  0  0  0  0  0  0  0  0  0  0  0
   50.3944    9.0567   12.6886 O   0  0  0  0  0  0  0  0  0  0  0  0
   49.5983    7.0323   13.2463 O   0  0  0  0  0  0  0  0  0  0  0  0
   45.5168    7.0441   13.4264 O   0  0  0  0  0  0  0  0  0  0  0  0
   49.4168    7.7041   11.1394 H   0  0  0  0  0  0  0  0  0  0  0  0
   47.0023    7.5613   10.7963 H   0  0  0  0  0  0  0  0  0  0  0  0
   44.7849    7.2053   13.3979 H   0  0  0  0  0  0  0  0  0  0  0  0
   50.7970    8.5714   14.1678 H   0  0  0  0  0  0  0  0  0  0  0  0
   48.0184    5.2276   13.0888 H   0  0  0  0  0  0  0  0  0  0  0  0
   47.5176    5.9907   14.6000 H   0  0  0  0  0  0  0  0  0  0  0  0
   46.5040    7.8448   10.8544 H   0  0  0  0  0  0  0  0  0  0  0  0
   45.2433    7.6348   12.0819 H   0  0  0  0  0  0  0  0  0  0  0  0
   50.1883    7.2955   11.6572 H   0  0  0  0  0  0  0  0  0  0  0  0
   51.8208    7.7883   12.0435 H   0  0  0  0  0  0  0  0  0  0  0  0
   51.1592   10.1667   12.1732 H   0  0  0  0  0  0  0  0  0  0  0  0
   50.8806    9.4371   10.5918 H   0  0  0  0  0  0  0  0  0  0  0  0
   46.8562    5.4333   10.6974 H   0  0  0  0  0  0  0  0  0  0  0  0
   45.2195    5.8773   10.2887 H   0  0  0  0  0  0  0  0  0  0  0  0
   45.9419    4.2425   14.0839 H   0  0  0  0  0  0  0  0  0  0  0  0
   45.1479    5.8141   13.9804 H   0  0  0  0  0  0  0  0  0  0  0  0
   47.7915    8.2649   15.8001 H   0  0  0  0  0  0  0  0  0  0  0  0
   43.7142    3.8546   12.7944 H   0  0  0  0  0  0  0  0  0  0  0  0
   43.4675    5.5374   12.2762 H   0  0  0  0  0  0  0  0  0  0  0  0
   43.7246    4.2468   11.0821 H   0  0  0  0  0  0  0  0  0  0  0  0
   45.6572   11.6860   11.5448 H   0  0  0  0  0  0  0  0  0  0  0  0
   49.7737   11.6939   10.3868 H   0  0  0  0  0  0  0  0  0  0  0  0
   52.5050    7.7522   14.3210 H   0  0  0  0  0  0  0  0  0  0  0  0
   47.5420   12.7727   10.3200 H   0  0  0  0  0  0  0  0  0  0  0  0
   49.6022    8.0220   17.4713 H   0  0  0  0  0  0  0  0  0  0  0  0
   51.9533    7.7517   16.7270 H   0  0  0  0  0  0  0  0  0  0  0  0
   46.3109    8.0454   11.3390 H   0  0  0  0  0  0  0  0  0  0  0  0
   48.5986    8.5860   10.7013 H   0  0  0  0  0  0  0  0  0  0  0  0
   50.3812    7.1240   13.8270 H   0  0  0  0  0  0  0  0  0  0  0  0
   45.3227    6.8854   14.3739 H   0  0  0  0  0  0  0  0  0  0  0  0
  2  3  1  0
  3  4  2  0
  4  1  1  0
  5  2  2  0
  6  1  2  0
  7  1  1  0
  8  2  1  0
 10  9  1  0
 11  9  1  0
 12  9  2  3
 13 21  1  0
 14 10  2  0
 15 10  1  0
 16 11  2  0
 17 12  1  0
 18 12  1  0
 19 16  1  0
 20 15  1  0
 21 18  1  0
 22 17  1  0
 23 11  1  0
 24 13  1  0
 25 14  1  0
 26 15  2  0
 27 16  1  0
 28 26  1  0
 29 23  2  0
 30 29  1  0
 22 13  1  0
 20 19  1  0
 27 30  2  0
 25 28  2  0
 32 33  1  0
 33 34  2  0
 34 31  1  0
 35 32  2  0
 36 31  2  0
 37 31  1  0
 38 32  1  0
  3 39  1  0
  4 40  1  0
  7 41  1  0
  8 42  1  0
 17 43  1  0
 17 44  1  0
 18 45  1  0
 18 46  1  0
 19 47  1  0
 19 48  1  0
 20 49  1  0
 20 50  1  0
 21 51  1  0
 21 52  1  0
 22 53  1  0
 22 54  1  0
 23 55  1  0
 24 56  1  0
 24 57  1  0
 24 58  1  0
 25 59  1  0
 26 60  1  0
 27 61  1  0
 28 62  1  0
 29 63  1  0
 30 64  1  0
 33 65  1  0
 34 66  1  0
 37 67  1  0
 38 68  1  0
M  END
> <Uni-Dock RESULT> 
ENERGY=   -5.075  LOWER_BOUND=    4.596  UPPER_BOUND=    7.268
INTER + INTRA:          -5.075
INTER:                  -5.075
INTRA:                   0.000
UNBOUND:                 0.000

$$$$

     RDKit          3D

 68 69  0  0  0  0  0  0  0  0999 V2000
   53.3172    5.2844   18.7323 C   0  0  0  0  0  0  0  0  0  0  0  0
   50.3748    4.9335   18.9042 C   0  0  0  0  0  0  0  0  0  0  0  0
   51.1391    4.8125   17.6586 C   0  0  0  0  0  0  0  0  0  0  0  0
   52.4560    5.0375   17.5714 C   0  0  0  0  0  0  0  0  0  0  0  0
   50.5200    5.7582   19.7834 O   0  0  0  0  0  0  0  0  0  0  0  0
   53.2452    4.7697   19.8295 O   0  0  0  0  0  0  0  0  0  0  0  0
   54.2852    6.1528   18.4027 O   0  0  0  0  0  0  0  0  0  0  0  0
   49.4033    4.0088   18.9325 O   0  0  0  0  0  0  0  0  0  0  0  0
   51.7510    4.6674   18.8934 C   0  0  0  0  0  0  0  0  0  0  0  0
   52.0707    3.2996   18.3991 C   0  0  0  0  0  0  0  0  0  0  0  0
   50.5667    4.8630   19.7642 C   0  0  0  0  0  0  0  0  0  0  0  0
   52.4593    5.7490   18.4636 C   0  0  0  0  0  0  0  0  0  0  0  0
   53.9419    8.1759   17.3947 N   0  0  0  0  0  0  0  0  0  0  0  0
   53.3583    2.9073   18.6096 N   0  0  0  0  0  0  0  0  0  0  0  0
   51.1132    2.4702   17.7969 C   0  0  0  0  0  0  0  0  0  0  0  0
   49.2874    4.6760   19.2140 C   0  0  0  0  0  0  0  0  0  0  0  0
   52.1603    7.1891   18.8668 C   0  0  0  0  0  0  0  0  0  0  0  0
   53.6156    5.6596   17.4712 C   0  0  0  0  0  0  0  0  0  0  0  0
   49.1564    4.2429   17.7750 C   0  0  0  0  0  0  0  0  0  0  0  0
   49.6532    2.8063   17.5641 C   0  0  0  0  0  0  0  0  0  0  0  0
   53.7477    6.9361   16.6228 C   0  0  0  0  0  0  0  0  0  0  0  0
   53.4148    8.0730   18.7672 C   0  0  0  0  0  0  0  0  0  0  0  0
   50.7034    5.1730   21.1230 C   0  0  0  0  0  0  0  0  0  0  0  0
   55.3428    8.5897   17.4151 C   0  0  0  0  0  0  0  0  0  0  0  0
   53.7166    1.6709   18.2115 C   0  0  0  0  0  0  0  0  0  0  0  0
   51.5388    1.1889   17.4023 C   0  0  0  0  0  0  0  0  0  0  0  0
   48.1571    4.8507   20.0232 C   0  0  0  0  0  0  0  0  0  0  0  0
   52.8519    0.7828   17.6067 C   0  0  0  0  0  0  0  0  0  0  0  0
   49.5724    5.3429   21.9210 C   0  0  0  0  0  0  0  0  0  0  0  0
   48.3014    5.1889   21.3697 C   0  0  0  0  0  0  0  0  0  0  0  0
   50.3510    4.3747   18.3065 C   0  0  0  0  0  0  0  0  0  0  0  0
   52.9751    5.4966   19.2405 C   0  0  0  0  0  0  0  0  0  0  0  0
   52.7668    4.8379   17.9443 C   0  0  0  0  0  0  0  0  0  0  0  0
   51.6042    4.3003   17.5521 C   0  0  0  0  0  0  0  0  0  0  0  0
   52.3456    5.3479   20.2682 O   0  0  0  0  0  0  0  0  0  0  0  0
   49.6023    3.4378   18.5091 O   0  0  0  0  0  0  0  0  0  0  0  0
   50.0469    5.6346   18.6491 O   0  0  0  0  0  0  0  0  0  0  0  0
   54.0434    6.3068   19.1665 O   0  0  0  0  0  0  0  0  0  0  0  0
   50.5622    4.5614   16.7766 H   0  0  0  0  0  0  0  0  0  0  0  0
   52.9587    5.0064   16.6122 H   0  0  0  0  0  0  0  0  0  0  0  0
   54.7886    6.2609   19.2369 H   0  0  0  0  0  0  0  0  0  0  0  0
   48.9679    4.1610   19.7976 H   0  0  0  0  0  0  0  0  0  0  0  0
   51.3759    7.5891   18.2117 H   0  0  0  0  0  0  0  0  0  0  0  0
   51.7953    7.2589   19.8945 H   0  0  0  0  0  0  0  0  0  0  0  0
   53.4805    4.8244   16.7754 H   0  0  0  0  0  0  0  0  0  0  0  0
   54.5492    5.4908   18.0220 H   0  0  0  0  0  0  0  0  0  0  0  0
   49.6875    4.9449   17.1201 H   0  0  0  0  0  0  0  0  0  0  0  0
   48.1027    4.2956   17.4722 H   0  0  0  0  0  0  0  0  0  0  0  0
   49.0600    2.1362   18.2018 H   0  0  0  0  0  0  0  0  0  0  0  0
   49.4200    2.5421   16.5236 H   0  0  0  0  0  0  0  0  0  0  0  0
   52.8263    7.0587   16.0376 H   0  0  0  0  0  0  0  0  0  0  0  0
   54.5444    6.8012   15.8802 H   0  0  0  0  0  0  0  0  0  0  0  0
   53.1697    9.0810   19.1221 H   0  0  0  0  0  0  0  0  0  0  0  0
   54.1754    7.6698   19.4505 H   0  0  0  0  0  0  0  0  0  0  0  0
   51.6932    5.2832   21.5598 H   0  0  0  0  0  0  0  0  0  0  0  0
   55.4596    9.5286   17.9681 H   0  0  0  0  0  0  0  0  0  0  0  0
   55.9903    7.8342   17.8745 H   0  0  0  0  0  0  0  0  0  0  0  0
   55.7023    8.7796   16.3977 H   0  0  0  0  0  0  0  0  0  0  0  0
   54.7523    1.4058   18.4014 H   0  0  0  0  0  0  0  0  0  0  0  0
   50.8381    0.4981   16.9377 H   0  0  0  0  0  0  0  0  0  0  0  0
   47.1589    4.7136   19.6149 H   0  0  0  0  0  0  0  0  0  0  0  0
   53.1876   -0.2033   17.3077 H   0  0  0  0  0  0  0  0  0  0  0  0
   49.6838    5.5917   22.9730 H   0  0  0  0  0  0  0  0  0  0  0  0
   47.4207    5.3203   21.9933 H   0  0  0  0  0  0  0  0  0  0  0  0
   53.6411    4.7662   17.3076 H   0  0  0  0  0  0  0  0  0  0  0  0
   51.5376    3.7464   16.6236 H   0  0  0  0  0  0  0  0  0  0  0  0
   49.2212    5.5478   19.1680 H   0  0  0  0  0  0  0  0  0  0  0  0
   54.1023    6.6947   20.0646 H   0  0  0  0  0  0  0  0  0  0  0  0
  2  3  1  0
  3  4  2  0
  4  1  1  0
  5  2  2  0
  6  1  2  0
  7  1  1  0
  8  2  1  0
 10  9  1  0
 11  9  1  0
 12  9  2  3
 13 21  1  0
 14 10  2  0
 15 10  1  0
 16 11  2  0
 17 12  1  0
 18 12  1  0
 19 16  1  0
 20 15  1  0
 21 18  1  0
 22 17  1  0
 23 11  1  0
 24 13  1  0
 25 14  1  0
 26 15  2  0
 27 16  1  0
 28 26  1  0
 29 23  2  0
 30 29  1  0
 22 13  1  0
 20 19  1  0
 27 30  2  0
 25 28  2  0
 32 33  1  0
 33 34  2  0
 34 31  1  0
 35 32  2  0
 36 31  2  0
 37 31  1  0
 38 32  1  0
  3 39  1  0
  4 40  1  0
  7 41  1  0
  8 42  1  0
 17 43  1  0
 17 44  1  0
 18 45  1  0
 18 46  1  0
 19 47  1  0
 19 48  1  0
 20 49  1  0
 20 50  1  0
 21 51  1  0
 21 52  1  0
 22 53  1  0
 22 54  1  0
 23 55  1  0
 24 56  1  0
 24 57  1  0
 24 58  1  0
 25 59  1  0
 26 60  1  0
 27 61  1  0
 28 62  1  0
 29 63  1  0
 30 64  1  0
 33 65  1  0
 34 66  1  0
 37 67  1  0
 38 68  1  0
M  END
> <Uni-Dock RESULT> 
ENERGY=   -4.785  LOWER_BOUND=   12.201  UPPER_BOUND=   14.164
INTER + INTRA:          -4.785
INTER:                  -4.785
INTRA:                   0.000
UNBOUND:                 0.000

$$$$

     RDKit          3D

 68 69  0  0  0  0  0  0  0  0999 V2000
   48.8495    7.6422   13.4885 C   0  0  0  0  0  0  0  0  0  0  0  0
   46.0263    7.9372   12.6210 C   0  0  0  0  0  0  0  0  0  0  0  0
   46.7141    8.8909   13.4971 C   0  0  0  0  0  0  0  0  0  0  0  0
   47.9655    8.7209   13.9415 C   0  0  0  0  0  0  0  0  0  0  0  0
   46.0900    6.7251   12.6530 O   0  0  0  0  0  0  0  0  0  0  0  0
   48.9393    7.1802   12.3694 O   0  0  0  0  0  0  0  0  0  0  0  0
   49.6333    7.2424   14.5013 O   0  0  0  0  0  0  0  0  0  0  0  0
   45.2280    8.5978   11.7687 O   0  0  0  0  0  0  0  0  0  0  0  0
   47.4237    8.0360   12.6691 C   0  0  0  0  0  0  0  0  0  0  0  0
   47.9344    9.2978   12.0653 C   0  0  0  0  0  0  0  0  0  0  0  0
   46.2850    7.3363   12.0266 C   0  0  0  0  0  0  0  0  0  0  0  0
   47.9095    7.5840   13.8590 C   0  0  0  0  0  0  0  0  0  0  0  0
   48.8877    6.6541   16.5809 N   0  0  0  0  0  0  0  0  0  0  0  0
   49.2808    9.3232   11.8590 N   0  0  0  0  0  0  0  0  0  0  0  0
   47.0913   10.3599   11.7067 C   0  0  0  0  0  0  0  0  0  0  0  0
   45.0210    7.9498   12.0429 C   0  0  0  0  0  0  0  0  0  0  0  0
   47.4009    6.3399   14.5796 C   0  0  0  0  0  0  0  0  0  0  0  0
   48.9947    8.3044   14.6550 C   0  0  0  0  0  0  0  0  0  0  0  0
   44.8676    9.3126   12.6713 C   0  0  0  0  0  0  0  0  0  0  0  0
   45.5832   10.3996   11.8580 C   0  0  0  0  0  0  0  0  0  0  0  0
   48.8528    8.0680   16.1685 C   0  0  0  0  0  0  0  0  0  0  0  0
   48.4794    5.7415   15.4979 C   0  0  0  0  0  0  0  0  0  0  0  0
   46.4593    6.1149   11.3639 C   0  0  0  0  0  0  0  0  0  0  0  0
   50.1973    6.2726   17.1039 C   0  0  0  0  0  0  0  0  0  0  0  0
   49.8140   10.4233   11.2924 C   0  0  0  0  0  0  0  0  0  0  0  0
   47.6984   11.4831   11.1166 C   0  0  0  0  0  0  0  0  0  0  0  0
   43.9348    7.3062   11.4357 C   0  0  0  0  0  0  0  0  0  0  0  0
   49.0718   11.5206   10.9087 C   0  0  0  0  0  0  0  0  0  0  0  0
   45.3724    5.4828   10.7605 C   0  0  0  0  0  0  0  0  0  0  0  0
   44.1110    6.0746   10.8029 C   0  0  0  0  0  0  0  0  0  0  0  0
   46.0563    8.7553   12.6131 C   0  0  0  0  0  0  0  0  0  0  0  0
   48.5118    7.1459   13.2437 C   0  0  0  0  0  0  0  0  0  0  0  0
   48.3299    8.5591   13.6001 C   0  0  0  0  0  0  0  0  0  0  0  0
   47.2502    9.2833   13.2770 C   0  0  0  0  0  0  0  0  0  0  0  0
   47.9871    6.5255   12.3411 O   0  0  0  0  0  0  0  0  0  0  0  0
   45.4911    9.2808   11.6731 O   0  0  0  0  0  0  0  0  0  0  0  0
   45.5688    7.6770   13.2431 O   0  0  0  0  0  0  0  0  0  0  0  0
   49.4213    6.5897   14.0601 O   0  0  0  0  0  0  0  0  0  0  0  0
   46.1292    9.7481   13.8085 H   0  0  0  0  0  0  0  0  0  0  0  0
   48.4002    9.4191   14.6466 H   0  0  0  0  0  0  0  0  0  0  0  0
   50.1667    6.5210   14.1061 H   0  0  0  0  0  0  0  0  0  0  0  0
   44.8328    7.8836   11.2255 H   0  0  0  0  0  0  0  0  0  0  0  0
   46.5179    6.6062   15.1745 H   0  0  0  0  0  0  0  0  0  0  0  0
   47.0997    5.5563   13.8798 H   0  0  0  0  0  0  0  0  0  0  0  0
   48.9550    9.3872   14.4942 H   0  0  0  0  0  0  0  0  0  0  0  0
   49.9785    7.9508   14.3223 H   0  0  0  0  0  0  0  0  0  0  0  0
   45.2277    9.2927   13.7075 H   0  0  0  0  0  0  0  0  0  0  0  0
   43.8021    9.5682   12.7335 H   0  0  0  0  0  0  0  0  0  0  0  0
   45.1555   10.4147   10.8459 H   0  0  0  0  0  0  0  0  0  0  0  0
   45.3280   11.3610   12.3243 H   0  0  0  0  0  0  0  0  0  0  0  0
   47.8865    8.4773   16.4928 H   0  0  0  0  0  0  0  0  0  0  0  0
   49.6087    8.6570   16.7033 H   0  0  0  0  0  0  0  0  0  0  0  0
   48.0930    4.8191   15.9476 H   0  0  0  0  0  0  0  0  0  0  0  0
   49.3414    5.4580   14.8777 H   0  0  0  0  0  0  0  0  0  0  0  0
   47.4437    5.6552   11.3188 H   0  0  0  0  0  0  0  0  0  0  0  0
   50.1920    5.2270   17.4322 H   0  0  0  0  0  0  0  0  0  0  0  0
   50.9921    6.3979   16.3597 H   0  0  0  0  0  0  0  0  0  0  0  0
   50.4502    6.8749   17.9835 H   0  0  0  0  0  0  0  0  0  0  0  0
   50.8899   10.3946   11.1491 H   0  0  0  0  0  0  0  0  0  0  0  0
   47.0939   12.3342   10.8095 H   0  0  0  0  0  0  0  0  0  0  0  0
   42.9485    7.7635   11.4408 H   0  0  0  0  0  0  0  0  0  0  0  0
   49.5474   12.3812   10.4529 H   0  0  0  0  0  0  0  0  0  0  0  0
   45.5112    4.5310   10.2548 H   0  0  0  0  0  0  0  0  0  0  0  0
   43.2650    5.5814   10.3310 H   0  0  0  0  0  0  0  0  0  0  0  0
   49.1587    9.0224   14.1229 H   0  0  0  0  0  0  0  0  0  0  0  0
   47.2150   10.3454   13.4870 H   0  0  0  0  0  0  0  0  0  0  0  0
   44.8064    7.4039   12.6928 H   0  0  0  0  0  0  0  0  0  0  0  0
   49.4748    5.6618   13.7492 H   0  0  0  0  0  0  0  0  0  0  0  0
  2  3  1  0
  3  4  2  0
  4  1  1  0
  5  2  2  0
  6  1  2  0
  7  1  1  0
  8  2  1  0
 10  9  1  0
 11  9  1  0
 12  9  2  3
 13 21  1  0
 14 10  2  0
 15 10  1  0
 16 11  2  0
 17 12  1  0
 18 12  1  0
 19 16  1  0
 20 15  1  0
 21 18  1  0
 22 17  1  0
 23 11  1  0
 24 13  1  0
 25 14  1  0
 26 15  2  0
 27 16  1  0
 28 26  1  0
 29 23  2  0
 30 29  1  0
 22 13  1  0
 20 19  1  0
 27 30  2  0
 25 28  2  0
 32 33  1  0
 33 34  2  0
 34 31  1  0
 35 32  2  0
 36 31  2  0
 37 31  1  0
 38 32  1  0
  3 39  1  0
  4 40  1  0
  7 41  1  0
  8 42  1  0
 17 43  1  0
 17 44  1  0
 18 45  1  0
 18 46  1  0
 19 47  1  0
 19 48  1  0
 20 49  1  0
 20 50  1  0
 21 51  1  0
 21 52  1  0
 22 53  1  0
 22 54  1  0
 23 55  1  0
 24 56  1  0
 24 57  1  0
 24 58  1  0
 25 59  1  0
 26 60  1  0
 27 61  1  0
 28 62  1  0
 29 63  1  0
 30 64  1  0
 33 65  1  0
 34 66  1  0
 37 67  1  0
 38 68  1  0
M  END
> <Uni-Dock RESULT> 
ENERGY=   -4.720  LOWER_BOUND=    4.070  UPPER_BOUND=    7.030
INTER + INTRA:          -4.720
INTER:                  -4.720
INTRA:                   0.000
UNBOUND:                 0.000

$$$$

     RDKit          3D

 68 69  0  0  0  0  0  0  0  0999 V2000
   47.8021    8.1290   19.4649 C   0  0  0  0  0  0  0  0  0  0  0  0
   49.2467    5.5987   18.8984 C   0  0  0  0  0  0  0  0  0  0  0  0
   49.8282    6.7208   19.6420 C   0  0  0  0  0  0  0  0  0  0  0  0
   49.1993    7.8864   19.8379 C   0  0  0  0  0  0  0  0  0  0  0  0
   48.5564    5.6513   17.9009 O   0  0  0  0  0  0  0  0  0  0  0  0
   46.8718    7.3522   19.5365 O   0  0  0  0  0  0  0  0  0  0  0  0
   47.6530    9.4015   19.0668 O   0  0  0  0  0  0  0  0  0  0  0  0
   49.6373    4.4388   19.4478 O   0  0  0  0  0  0  0  0  0  0  0  0
   48.4555    6.5705   19.5264 C   0  0  0  0  0  0  0  0  0  0  0  0
   48.4982    6.4780   21.0121 C   0  0  0  0  0  0  0  0  0  0  0  0
   48.4248    5.3233   18.7249 C   0  0  0  0  0  0  0  0  0  0  0  0
   48.5618    7.7748   18.8979 C   0  0  0  0  0  0  0  0  0  0  0  0
   48.9452   10.4413   17.4934 N   0  0  0  0  0  0  0  0  0  0  0  0
   47.5575    7.2258   21.6539 N   0  0  0  0  0  0  0  0  0  0  0  0
   49.4114    5.6594   21.6928 C   0  0  0  0  0  0  0  0  0  0  0  0
   49.5611    4.4967   18.7207 C   0  0  0  0  0  0  0  0  0  0  0  0
   48.5922    7.9557   17.3840 C   0  0  0  0  0  0  0  0  0  0  0  0
   48.7222    9.1005   19.6374 C   0  0  0  0  0  0  0  0  0  0  0  0
   50.7560    4.8765   19.5595 C   0  0  0  0  0  0  0  0  0  0  0  0
   50.4585    4.7634   21.0607 C   0  0  0  0  0  0  0  0  0  0  0  0
   49.5183   10.1276   18.8139 C   0  0  0  0  0  0  0  0  0  0  0  0
   48.0975    9.3529   16.9746 C   0  0  0  0  0  0  0  0  0  0  0  0
   47.2759    4.9335   18.0255 C   0  0  0  0  0  0  0  0  0  0  0  0
   48.2070   11.7018   17.5068 C   0  0  0  0  0  0  0  0  0  0  0  0
   47.5176    7.1740   22.9997 C   0  0  0  0  0  0  0  0  0  0  0  0
   49.3251    5.6400   23.0965 C   0  0  0  0  0  0  0  0  0  0  0  0
   49.5481    3.3114   17.9739 C   0  0  0  0  0  0  0  0  0  0  0  0
   48.3735    6.4048   23.7600 C   0  0  0  0  0  0  0  0  0  0  0  0
   47.2718    3.7507   17.2866 C   0  0  0  0  0  0  0  0  0  0  0  0
   48.4089    2.9451   17.2555 C   0  0  0  0  0  0  0  0  0  0  0  0
   49.6746    5.6223   19.5959 C   0  0  0  0  0  0  0  0  0  0  0  0
   47.6037    7.7154   19.0067 C   0  0  0  0  0  0  0  0  0  0  0  0
   48.6937    7.8747   19.9783 C   0  0  0  0  0  0  0  0  0  0  0  0
   49.5880    6.9205   20.2683 C   0  0  0  0  0  0  0  0  0  0  0  0
   47.0895    6.6866   18.6169 O   0  0  0  0  0  0  0  0  0  0  0  0
   49.7968    4.5516   20.1597 O   0  0  0  0  0  0  0  0  0  0  0  0
   49.7331    5.7520   18.2628 O   0  0  0  0  0  0  0  0  0  0  0  0
   47.1813    8.9244   18.6027 O   0  0  0  0  0  0  0  0  0  0  0  0
   50.8381    6.5707   20.0040 H   0  0  0  0  0  0  0  0  0  0  0  0
   49.7032    8.7092   20.3306 H   0  0  0  0  0  0  0  0  0  0  0  0
   46.7036    9.4565   18.8288 H   0  0  0  0  0  0  0  0  0  0  0  0
   49.1896    3.7626   18.8969 H   0  0  0  0  0  0  0  0  0  0  0  0
   49.6195    7.8101   17.0263 H   0  0  0  0  0  0  0  0  0  0  0  0
   47.9608    7.2253   16.8718 H   0  0  0  0  0  0  0  0  0  0  0  0
   49.2549    8.9667   20.5851 H   0  0  0  0  0  0  0  0  0  0  0  0
   47.7290    9.5074   19.8643 H   0  0  0  0  0  0  0  0  0  0  0  0
   51.0939    5.8873   19.2985 H   0  0  0  0  0  0  0  0  0  0  0  0
   51.5965    4.2127   19.3194 H   0  0  0  0  0  0  0  0  0  0  0  0
   50.1735    3.7252   21.2813 H   0  0  0  0  0  0  0  0  0  0  0  0
   51.4059    4.9500   21.5844 H   0  0  0  0  0  0  0  0  0  0  0  0
   50.5266    9.7267   18.6435 H   0  0  0  0  0  0  0  0  0  0  0  0
   49.6672   11.0375   19.4091 H   0  0  0  0  0  0  0  0  0  0  0  0
   48.0790    9.4181   15.8802 H   0  0  0  0  0  0  0  0  0  0  0  0
   47.0598    9.4656   17.3189 H   0  0  0  0  0  0  0  0  0  0  0  0
   46.3829    5.5535   18.0560 H   0  0  0  0  0  0  0  0  0  0  0  0
   47.8156   11.9303   16.5090 H   0  0  0  0  0  0  0  0  0  0  0  0
   47.3680   11.6820   18.2117 H   0  0  0  0  0  0  0  0  0  0  0  0
   48.8681   12.5315   17.7805 H   0  0  0  0  0  0  0  0  0  0  0  0
   46.7509    7.7870   23.4637 H   0  0  0  0  0  0  0  0  0  0  0  0
   50.0017    5.0170   23.6781 H   0  0  0  0  0  0  0  0  0  0  0  0
   50.4188    2.6605   17.9556 H   0  0  0  0  0  0  0  0  0  0  0  0
   48.2987    6.3940   24.8411 H   0  0  0  0  0  0  0  0  0  0  0  0
   46.3804    3.4570   16.7388 H   0  0  0  0  0  0  0  0  0  0  0  0
   48.4038    2.0227   16.6802 H   0  0  0  0  0  0  0  0  0  0  0  0
   48.7212    8.8230   20.5025 H   0  0  0  0  0  0  0  0  0  0  0  0
   50.3118    7.0650   21.0612 H   0  0  0  0  0  0  0  0  0  0  0  0
   49.7538    4.8299   17.9343 H   0  0  0  0  0  0  0  0  0  0  0  0
   46.4642    8.7185   17.9672 H   0  0  0  0  0  0  0  0  0  0  0  0
  2  3  1  0
  3  4  2  0
  4  1  1  0
  5  2  2  0
  6  1  2  0
  7  1  1  0
  8  2  1  0
 10  9  1  0
 11  9  1  0
 12  9  2  3
 13 21  1  0
 14 10  2  0
 15 10  1  0
 16 11  2  0
 17 12  1  0
 18 12  1  0
 19 16  1  0
 20 15  1  0
 21 18  1  0
 22 17  1  0
 23 11  1  0
 24 13  1  0
 25 14  1  0
 26 15  2  0
 27 16  1  0
 28 26  1  0
 29 23  2  0
 30 29  1  0
 22 13  1  0
 20 19  1  0
 27 30  2  0
 25 28  2  0
 32 33  1  0
 33 34  2  0
 34 31  1  0
 35 32  2  0
 36 31  2  0
 37 31  1  0
 38 32  1  0
  3 39  1  0
  4 40  1  0
  7 41  1  0
  8 42  1  0
 17 43  1  0
 17 44  1  0
 18 45  1  0
 18 46  1  0
 19 47  1  0
 19 48  1  0
 20 49  1  0
 20 50  1  0
 21 51  1  0
 21 52  1  0
 22 53  1  0
 22 54  1  0
 23 55  1  0
 24 56  1  0
 24 57  1  0
 24 58  1  0
 25 59  1  0
 26 60  1  0
 27 61  1  0
 28 62  1  0
 29 63  1  0
 30 64  1  0
 33 65  1  0
 34 66  1  0
 37 67  1  0
 38 68  1  0
M  END
> <Uni-Dock RESULT> 
ENERGY=   -4.624  LOWER_BOUND=    9.031  UPPER_BOUND=   11.937
INTER + INTRA:          -4.624
INTER:                  -4.624
INTRA:                   0.000
UNBOUND:                 0.000

$$$$

     RDKit          3D

 68 69  0  0  0  0  0  0  0  0999 V2000
   49.3328    8.5880   13.6640 C   0  0  0  0  0  0  0  0  0  0  0  0
   46.9605    7.4149   12.3200 C   0  0  0  0  0  0  0  0  0  0  0  0
   48.2197    6.6930   12.5286 C   0  0  0  0  0  0  0  0  0  0  0  0
   49.3102    7.2457   13.0741 C   0  0  0  0  0  0  0  0  0  0  0  0
   46.8193    8.5719   11.9799 O   0  0  0  0  0  0  0  0  0  0  0  0
   48.4563    9.1281   14.3074 O   0  0  0  0  0  0  0  0  0  0  0  0
   50.5267    9.1596   13.4457 O   0  0  0  0  0  0  0  0  0  0  0  0
   45.9242    6.5829   12.5034 O   0  0  0  0  0  0  0  0  0  0  0  0
   47.8851    7.7917   13.3038 C   0  0  0  0  0  0  0  0  0  0  0  0
   47.9565    6.8212   14.4310 C   0  0  0  0  0  0  0  0  0  0  0  0
   46.5663    8.1069   12.7035 C   0  0  0  0  0  0  0  0  0  0  0  0
   49.0198    8.2994   12.7459 C   0  0  0  0  0  0  0  0  0  0  0  0
   51.5496    9.3182   11.4072 N   0  0  0  0  0  0  0  0  0  0  0  0
   48.6427    7.2670   15.5203 N   0  0  0  0  0  0  0  0  0  0  0  0
   47.3370    5.5636   14.3864 C   0  0  0  0  0  0  0  0  0  0  0  0
   45.8947    7.1023   11.9865 C   0  0  0  0  0  0  0  0  0  0  0  0
   49.0418    9.2461   11.5505 C   0  0  0  0  0  0  0  0  0  0  0  0
   50.4259    7.9363   13.2160 C   0  0  0  0  0  0  0  0  0  0  0  0
   46.5096    5.7286   11.8844 C   0  0  0  0  0  0  0  0  0  0  0  0
   46.5192    5.0058   13.2380 C   0  0  0  0  0  0  0  0  0  0  0  0
   51.4527    8.0073   12.0726 C   0  0  0  0  0  0  0  0  0  0  0  0
   50.3138   10.1101   11.5408 C   0  0  0  0  0  0  0  0  0  0  0  0
   45.9621    9.3572   12.8849 C   0  0  0  0  0  0  0  0  0  0  0  0
   52.7007   10.0837   11.8797 C   0  0  0  0  0  0  0  0  0  0  0  0
   48.7290    6.4534   16.5908 C   0  0  0  0  0  0  0  0  0  0  0  0
   47.4555    4.7548   15.5311 C   0  0  0  0  0  0  0  0  0  0  0  0
   44.6450    7.3802   11.4174 C   0  0  0  0  0  0  0  0  0  0  0  0
   48.1593    5.1984   16.6440 C   0  0  0  0  0  0  0  0  0  0  0  0
   44.7169    9.6238   12.3164 C   0  0  0  0  0  0  0  0  0  0  0  0
   44.0632    8.6387   11.5779 C   0  0  0  0  0  0  0  0  0  0  0  0
   47.1118    6.6578   12.5921 C   0  0  0  0  0  0  0  0  0  0  0  0
   48.8512    8.9562   13.4341 C   0  0  0  0  0  0  0  0  0  0  0  0
   49.2494    7.5440   13.5017 C   0  0  0  0  0  0  0  0  0  0  0  0
   48.4524    6.5211   13.1659 C   0  0  0  0  0  0  0  0  0  0  0  0
   47.7301    9.4224   13.4576 O   0  0  0  0  0  0  0  0  0  0  0  0
   46.1310    6.0372   12.9556 O   0  0  0  0  0  0  0  0  0  0  0  0
   47.1061    7.4622   11.5196 O   0  0  0  0  0  0  0  0  0  0  0  0
   49.9473    9.7304   13.3835 O   0  0  0  0  0  0  0  0  0  0  0  0
   48.2380    5.6694   12.1740 H   0  0  0  0  0  0  0  0  0  0  0  0
   50.2377    6.6896   13.1375 H   0  0  0  0  0  0  0  0  0  0  0  0
   50.4354   10.0440   13.8587 H   0  0  0  0  0  0  0  0  0  0  0  0
   45.1423    7.1563   12.3591 H   0  0  0  0  0  0  0  0  0  0  0  0
   48.9906    8.6569   10.6259 H   0  0  0  0  0  0  0  0  0  0  0  0
   48.1872    9.9272   11.5521 H   0  0  0  0  0  0  0  0  0  0  0  0
   50.4618    6.9176   13.6169 H   0  0  0  0  0  0  0  0  0  0  0  0
   50.7253    8.6237   14.0169 H   0  0  0  0  0  0  0  0  0  0  0  0
   47.5217    5.7987   11.4665 H   0  0  0  0  0  0  0  0  0  0  0  0
   45.9361    5.1240   11.1701 H   0  0  0  0  0  0  0  0  0  0  0  0
   45.4825    4.9157   13.5913 H   0  0  0  0  0  0  0  0  0  0  0  0
   46.8788    3.9854   13.0476 H   0  0  0  0  0  0  0  0  0  0  0  0
   51.1671    7.2742   11.3061 H   0  0  0  0  0  0  0  0  0  0  0  0
   52.4320    7.6739   12.4389 H   0  0  0  0  0  0  0  0  0  0  0  0
   50.2599   10.8146   10.7023 H   0  0  0  0  0  0  0  0  0  0  0  0
   50.3298   10.7101   12.4616 H   0  0  0  0  0  0  0  0  0  0  0  0
   46.4636   10.1249   13.4697 H   0  0  0  0  0  0  0  0  0  0  0  0
   52.7707   11.0409   11.3507 H   0  0  0  0  0  0  0  0  0  0  0  0
   52.6493   10.2856   12.9557 H   0  0  0  0  0  0  0  0  0  0  0  0
   53.6317    9.5442   11.6739 H   0  0  0  0  0  0  0  0  0  0  0  0
   49.2854    6.8541   17.4327 H   0  0  0  0  0  0  0  0  0  0  0  0
   46.9884    3.7724   15.5581 H   0  0  0  0  0  0  0  0  0  0  0  0
   44.1115    6.6169   10.8564 H   0  0  0  0  0  0  0  0  0  0  0  0
   48.2537    4.5826   17.5309 H   0  0  0  0  0  0  0  0  0  0  0  0
   44.2562   10.5985   12.4531 H   0  0  0  0  0  0  0  0  0  0  0  0
   43.0920    8.8475   11.1364 H   0  0  0  0  0  0  0  0  0  0  0  0
   50.2436    7.3541   13.8893 H   0  0  0  0  0  0  0  0  0  0  0  0
   48.7707    5.4980   13.3254 H   0  0  0  0  0  0  0  0  0  0  0  0
   46.1645    7.4979   11.2536 H   0  0  0  0  0  0  0  0  0  0  0  0
   49.5860   10.6406   13.3420 H   0  0  0  0  0  0  0  0  0  0  0  0
  2  3  1  0
  3  4  2  0
  4  1  1  0
  5  2  2  0
  6  1  2  0
  7  1  1  0
  8  2  1  0
 10  9  1  0
 11  9  1  0
 12  9  2  3
 13 21  1  0
 14 10  2  0
 15 10  1  0
 16 11  2  0
 17 12  1  0
 18 12  1  0
 19 16  1  0
 20 15  1  0
 21 18  1  0
 22 17  1  0
 23 11  1  0
 24 13  1  0
 25 14  1  0
 26 15  2  0
 27 16  1  0
 28 26  1  0
 29 23  2  0
 30 29  1  0
 22 13  1  0
 20 19  1  0
 27 30  2  0
 25 28  2  0
 32 33  1  0
 33 34  2  0
 34 31  1  0
 35 32  2  0
 36 31  2  0
 37 31  1  0
 38 32  1  0
  3 39  1  0
  4 40  1  0
  7 41  1  0
  8 42  1  0
 17 43  1  0
 17 44  1  0
 18 45  1  0
 18 46  1  0
 19 47  1  0
 19 48  1  0
 20 49  1  0
 20 50  1  0
 21 51  1  0
 21 52  1  0
 22 53  1  0
 22 54  1  0
 23 55  1  0
 24 56  1  0
 24 57  1  0
 24 58  1  0
 25 59  1  0
 26 60  1  0
 27 61  1  0
 28 62  1  0
 29 63  1  0
 30 64  1  0
 33 65  1  0
 34 66  1  0
 37 67  1  0
 38 68  1  0
M  END
> <Uni-Dock RESULT> 
ENERGY=   -4.571  LOWER_BOUND=    4.604  UPPER_BOUND=    7.735
INTER + INTRA:          -4.571
INTER:                  -4.571
INTRA:                   0.000
UNBOUND:                 0.000

$$$$

     RDKit          3D

 68 69  0  0  0  0  0  0  0  0999 V2000
   48.3455    7.4374   17.6220 C   0  0  0  0  0  0  0  0  0  0  0  0
   51.1859    6.6095   17.3841 C   0  0  0  0  0  0  0  0  0  0  0  0
   50.2996    6.1798   18.4703 C   0  0  0  0  0  0  0  0  0  0  0  0
   49.0391    6.6080   18.6127 C   0  0  0  0  0  0  0  0  0  0  0  0
   51.2681    7.7159   16.8908 O   0  0  0  0  0  0  0  0  0  0  0  0
   48.4293    7.3709   16.4127 O   0  0  0  0  0  0  0  0  0  0  0  0
   47.5157    8.2886   18.2440 O   0  0  0  0  0  0  0  0  0  0  0  0
   51.9813    5.5930   17.0180 O   0  0  0  0  0  0  0  0  0  0  0  0
   49.7895    6.6334   17.2644 C   0  0  0  0  0  0  0  0  0  0  0  0
   49.1935    5.2712   17.1833 C   0  0  0  0  0  0  0  0  0  0  0  0
   51.0657    6.9073   16.5605 C   0  0  0  0  0  0  0  0  0  0  0  0
   49.2420    7.5892   18.0663 C   0  0  0  0  0  0  0  0  0  0  0  0
   48.1082    9.6733   19.9640 N   0  0  0  0  0  0  0  0  0  0  0  0
   47.8828    5.2470   16.8126 N   0  0  0  0  0  0  0  0  0  0  0  0
   49.9330    4.1061   17.4351 C   0  0  0  0  0  0  0  0  0  0  0  0
   52.2366    6.2806   17.0195 C   0  0  0  0  0  0  0  0  0  0  0  0
   49.8216    8.9865   18.2590 C   0  0  0  0  0  0  0  0  0  0  0  0
   48.0002    7.3601   18.9240 C   0  0  0  0  0  0  0  0  0  0  0  0
   52.1561    5.3204   18.1802 C   0  0  0  0  0  0  0  0  0  0  0  0
   51.4010    4.0374   17.8079 C   0  0  0  0  0  0  0  0  0  0  0  0
   48.0124    8.2219   20.1983 C   0  0  0  0  0  0  0  0  0  0  0  0
   48.7351    9.9944   18.6694 C   0  0  0  0  0  0  0  0  0  0  0  0
   51.1118    7.7269   15.4259 C   0  0  0  0  0  0  0  0  0  0  0  0
   46.8080   10.3294   20.0788 C   0  0  0  0  0  0  0  0  0  0  0  0
   47.2807    4.0475   16.6931 C   0  0  0  0  0  0  0  0  0  0  0  0
   49.2574    2.8806   17.2936 C   0  0  0  0  0  0  0  0  0  0  0  0
   53.4504    6.5229   16.3632 C   0  0  0  0  0  0  0  0  0  0  0  0
   47.9187    2.8465   16.9226 C   0  0  0  0  0  0  0  0  0  0  0  0
   52.3245    7.9604   14.7780 C   0  0  0  0  0  0  0  0  0  0  0  0
   53.4928    7.3648   15.2507 C   0  0  0  0  0  0  0  0  0  0  0  0
   51.0570    5.8736   17.7186 C   0  0  0  0  0  0  0  0  0  0  0  0
   48.7649    7.7542   17.2426 C   0  0  0  0  0  0  0  0  0  0  0  0
   48.7346    6.6285   18.1857 C   0  0  0  0  0  0  0  0  0  0  0  0
   49.7451    5.7668   18.3609 C   0  0  0  0  0  0  0  0  0  0  0  0
   49.4522    7.8839   16.2498 O   0  0  0  0  0  0  0  0  0  0  0  0
   51.6480    4.9554   17.1829 O   0  0  0  0  0  0  0  0  0  0  0  0
   51.6049    7.0840   17.8973 O   0  0  0  0  0  0  0  0  0  0  0  0
   47.8506    8.6687   17.6045 O   0  0  0  0  0  0  0  0  0  0  0  0
   50.7397    5.5073   19.1968 H   0  0  0  0  0  0  0  0  0  0  0  0
   48.4515    6.3166   19.4748 H   0  0  0  0  0  0  0  0  0  0  0  0
   47.1185    8.7993   17.5074 H   0  0  0  0  0  0  0  0  0  0  0  0
   52.5151    5.9718   16.2881 H   0  0  0  0  0  0  0  0  0  0  0  0
   50.5989    8.9485   19.0328 H   0  0  0  0  0  0  0  0  0  0  0  0
   50.2873    9.3658   17.3459 H   0  0  0  0  0  0  0  0  0  0  0  0
   47.9235    6.3153   19.2439 H   0  0  0  0  0  0  0  0  0  0  0  0
   47.1069    7.5973   18.3330 H   0  0  0  0  0  0  0  0  0  0  0  0
   51.6957    5.8130   19.0458 H   0  0  0  0  0  0  0  0  0  0  0  0
   53.1701    5.0482   18.4998 H   0  0  0  0  0  0  0  0  0  0  0  0
   51.9262    3.5551   16.9718 H   0  0  0  0  0  0  0  0  0  0  0  0
   51.4870    3.3604   18.6688 H   0  0  0  0  0  0  0  0  0  0  0  0
   48.8825    7.9322   20.8028 H   0  0  0  0  0  0  0  0  0  0  0  0
   47.1387    7.9755   20.8151 H   0  0  0  0  0  0  0  0  0  0  0  0
   49.1828   10.9930   18.7379 H   0  0  0  0  0  0  0  0  0  0  0  0
   47.9833   10.0355   17.8687 H   0  0  0  0  0  0  0  0  0  0  0  0
   50.2010    8.1847   15.0470 H   0  0  0  0  0  0  0  0  0  0  0  0
   46.9072   11.4107   19.9310 H   0  0  0  0  0  0  0  0  0  0  0  0
   46.0853    9.9451   19.3500 H   0  0  0  0  0  0  0  0  0  0  0  0
   46.3936   10.1881   21.0831 H   0  0  0  0  0  0  0  0  0  0  0  0
   46.2371    4.0815   16.3953 H   0  0  0  0  0  0  0  0  0  0  0  0
   49.7818    1.9431   17.4673 H   0  0  0  0  0  0  0  0  0  0  0  0
   54.3675    6.0497   16.7055 H   0  0  0  0  0  0  0  0  0  0  0  0
   47.3912    1.9066   16.8093 H   0  0  0  0  0  0  0  0  0  0  0  0
   52.3564    8.6040   13.9029 H   0  0  0  0  0  0  0  0  0  0  0  0
   54.4371    7.5467   14.7440 H   0  0  0  0  0  0  0  0  0  0  0  0
   47.8056    6.4946   18.7278 H   0  0  0  0  0  0  0  0  0  0  0  0
   49.6282    4.9023   19.0030 H   0  0  0  0  0  0  0  0  0  0  0  0
   52.4479    7.0396   17.4012 H   0  0  0  0  0  0  0  0  0  0  0  0
   47.9436    9.3699   16.9261 H   0  0  0  0  0  0  0  0  0  0  0  0
  2  3  1  0
  3  4  2  0
  4  1  1  0
  5  2  2  0
  6  1  2  0
  7  1  1  0
  8  2  1  0
 10  9  1  0
 11  9  1  0
 12  9  2  3
 13 21  1  0
 14 10  2  0
 15 10  1  0
 16 11  2  0
 17 12  1  0
 18 12  1  0
 19 16  1  0
 20 15  1  0
 21 18  1  0
 22 17  1  0
 23 11  1  0
 24 13  1  0
 25 14  1  0
 26 15  2  0
 27 16  1  0
 28 26  1  0
 29 23  2  0
 30 29  1  0
 22 13  1  0
 20 19  1  0
 27 30  2  0
 25 28  2  0
 32 33  1  0
 33 34  2  0
 34 31  1  0
 35 32  2  0
 36 31  2  0
 37 31  1  0
 38 32  1  0
  3 39  1  0
  4 40  1  0
  7 41  1  0
  8 42  1  0
 17 43  1  0
 17 44  1  0
 18 45  1  0
 18 46  1  0
 19 47  1  0
 19 48  1  0
 20 49  1  0
 20 50  1  0
 21 51  1  0
 21 52  1  0
 22 53  1  0
 22 54  1  0
 23 55  1  0
 24 56  1  0
 24 57  1  0
 24 58  1  0
 25 59  1  0
 26 60  1  0
 27 61  1  0
 28 62  1  0
 29 63  1  0
 30 64  1  0
 33 65  1  0
 34 66  1  0
 37 67  1  0
 38 68  1  0
M  END
> <Uni-Dock RESULT> 
ENERGY=   -4.557  LOWER_BOUND=    9.570  UPPER_BOUND=   10.998
INTER + INTRA:          -4.557
INTER:                  -4.557
INTRA:                   0.000
UNBOUND:                 0.000

$$$$

     RDKit          3D

 68 69  0  0  0  0  0  0  0  0999 V2000
   43.3327   11.1326    8.7300 C   0  0  0  0  0  0  0  0  0  0  0  0
   44.3896   13.0492   10.7349 C   0  0  0  0  0  0  0  0  0  0  0  0
   43.1843   13.2881    9.9347 C   0  0  0  0  0  0  0  0  0  0  0  0
   42.7477   12.4531    8.9836 C   0  0  0  0  0  0  0  0  0  0  0  0
   45.4388   12.5634   10.3643 O   0  0  0  0  0  0  0  0  0  0  0  0
   43.7614   10.3441    9.5476 O   0  0  0  0  0  0  0  0  0  0  0  0
   43.2825   10.8584    7.4177 O   0  0  0  0  0  0  0  0  0  0  0  0
   44.2058   13.5100   11.9814 O   0  0  0  0  0  0  0  0  0  0  0  0
   43.6681   12.0058   10.1388 C   0  0  0  0  0  0  0  0  0  0  0  0
   42.3446   11.7777   10.7823 C   0  0  0  0  0  0  0  0  0  0  0  0
   44.8387   12.3314   10.9888 C   0  0  0  0  0  0  0  0  0  0  0  0
   43.7898   12.0339    8.7821 C   0  0  0  0  0  0  0  0  0  0  0  0
   44.0360   12.2422    5.7611 N   0  0  0  0  0  0  0  0  0  0  0  0
   41.7247   10.6231   10.4099 N   0  0  0  0  0  0  0  0  0  0  0  0
   41.7979   12.6640   11.7219 C   0  0  0  0  0  0  0  0  0  0  0  0
   44.8622   13.5660   11.6593 C   0  0  0  0  0  0  0  0  0  0  0  0
   45.0905   12.3239    8.0405 C   0  0  0  0  0  0  0  0  0  0  0  0
   42.6170   11.8331    7.8259 C   0  0  0  0  0  0  0  0  0  0  0  0
   43.6852   14.5008   11.5309 C   0  0  0  0  0  0  0  0  0  0  0  0
   42.4358   13.9437   12.2263 C   0  0  0  0  0  0  0  0  0  0  0  0
   42.8136   12.5950    6.5039 C   0  0  0  0  0  0  0  0  0  0  0  0
   45.0891   11.6971    6.6363 C   0  0  0  0  0  0  0  0  0  0  0  0
   45.8821   11.4162   11.1754 C   0  0  0  0  0  0  0  0  0  0  0  0
   43.7573   11.3209    4.6621 C   0  0  0  0  0  0  0  0  0  0  0  0
   40.5332   10.3353   10.9695 C   0  0  0  0  0  0  0  0  0  0  0  0
   40.5537   12.3149   12.2773 C   0  0  0  0  0  0  0  0  0  0  0  0
   45.9574   13.8884   12.4714 C   0  0  0  0  0  0  0  0  0  0  0  0
   39.9108   11.1428   11.8983 C   0  0  0  0  0  0  0  0  0  0  0  0
   46.9671   11.7452   11.9875 C   0  0  0  0  0  0  0  0  0  0  0  0
   47.0075   12.9823   12.6284 C   0  0  0  0  0  0  0  0  0  0  0  0
   43.6478   13.3261   10.9428 C   0  0  0  0  0  0  0  0  0  0  0  0
   43.9399   11.0952    8.9541 C   0  0  0  0  0  0  0  0  0  0  0  0
   42.7448   11.9387    9.0877 C   0  0  0  0  0  0  0  0  0  0  0  0
   42.6041   12.9034   10.0063 C   0  0  0  0  0  0  0  0  0  0  0  0
   44.7760   10.8386    9.7966 O   0  0  0  0  0  0  0  0  0  0  0  0
   43.4835   13.5099   12.1338 O   0  0  0  0  0  0  0  0  0  0  0  0
   44.7959   13.6170   10.3146 O   0  0  0  0  0  0  0  0  0  0  0  0
   43.9824   10.5679    7.7199 O   0  0  0  0  0  0  0  0  0  0  0  0
   42.6689   14.2208   10.1297 H   0  0  0  0  0  0  0  0  0  0  0  0
   41.8931   12.7134    8.3708 H   0  0  0  0  0  0  0  0  0  0  0  0
   43.7046    9.9760    7.3525 H   0  0  0  0  0  0  0  0  0  0  0  0
   45.0483   13.2916   12.4325 H   0  0  0  0  0  0  0  0  0  0  0  0
   45.2214   13.4104    7.9580 H   0  0  0  0  0  0  0  0  0  0  0  0
   45.9607   11.9290    8.5709 H   0  0  0  0  0  0  0  0  0  0  0  0
   41.6788   12.1890    8.2651 H   0  0  0  0  0  0  0  0  0  0  0  0
   42.5049   10.7623    7.6153 H   0  0  0  0  0  0  0  0  0  0  0  0
   43.4868   14.7141   10.4731 H   0  0  0  0  0  0  0  0  0  0  0  0
   43.9356   15.4678   11.9856 H   0  0  0  0  0  0  0  0  0  0  0  0
   42.6677   13.7937   13.2899 H   0  0  0  0  0  0  0  0  0  0  0  0
   41.6707   14.7304   12.1767 H   0  0  0  0  0  0  0  0  0  0  0  0
   42.8687   13.6686    6.7291 H   0  0  0  0  0  0  0  0  0  0  0  0
   41.9200   12.4779    5.8777 H   0  0  0  0  0  0  0  0  0  0  0  0
   46.0620   11.8781    6.1641 H   0  0  0  0  0  0  0  0  0  0  0  0
   44.9844   10.6084    6.7451 H   0  0  0  0  0  0  0  0  0  0  0  0
   45.8494   10.4455   10.6861 H   0  0  0  0  0  0  0  0  0  0  0  0
   44.6741   11.0960    4.1055 H   0  0  0  0  0  0  0  0  0  0  0  0
   43.3252   10.3770    5.0136 H   0  0  0  0  0  0  0  0  0  0  0  0
   43.0613   11.7742    3.9477 H   0  0  0  0  0  0  0  0  0  0  0  0
   40.0803    9.4049   10.6404 H   0  0  0  0  0  0  0  0  0  0  0  0
   40.0845   12.9594   13.0179 H   0  0  0  0  0  0  0  0  0  0  0  0
   45.9952   14.8401   12.9957 H   0  0  0  0  0  0  0  0  0  0  0  0
   38.9530   10.8652   12.3227 H   0  0  0  0  0  0  0  0  0  0  0  0
   47.7783   11.0347   12.1222 H   0  0  0  0  0  0  0  0  0  0  0  0
   47.8532   13.2369   13.2622 H   0  0  0  0  0  0  0  0  0  0  0  0
   41.9309   11.7114    8.4089 H   0  0  0  0  0  0  0  0  0  0  0  0
   41.6631   13.4289   10.1151 H   0  0  0  0  0  0  0  0  0  0  0  0
   45.4119   13.8492   11.0394 H   0  0  0  0  0  0  0  0  0  0  0  0
   44.8008   10.0287    7.7266 H   0  0  0  0  0  0  0  0  0  0  0  0
  2  3  1  0
  3  4  2  0
  4  1  1  0
  5  2  2  0
  6  1  2  0
  7  1  1  0
  8  2  1  0
 10  9  1  0
 11  9  1  0
 12  9  2  3
 13 21  1  0
 14 10  2  0
 15 10  1  0
 16 11  2  0
 17 12  1  0
 18 12  1  0
 19 16  1  0
 20 15  1  0
 21 18  1  0
 22 17  1  0
 23 11  1  0
 24 13  1  0
 25 14  1  0
 26 15  2  0
 27 16  1  0
 28 26  1  0
 29 23  2  0
 30 29  1  0
 22 13  1  0
 20 19  1  0
 27 30  2  0
 25 28  2  0
 32 33  1  0
 33 34  2  0
 34 31  1  0
 35 32  2  0
 36 31  2  0
 37 31  1  0
 38 32  1  0
  3 39  1  0
  4 40  1  0
  7 41  1  0
  8 42  1  0
 17 43  1  0
 17 44  1  0
 18 45  1  0
 18 46  1  0
 19 47  1  0
 19 48  1  0
 20 49  1  0
 20 50  1  0
 21 51  1  0
 21 52  1  0
 22 53  1  0
 22 54  1  0
 23 55  1  0
 24 56  1  0
 24 57  1  0
 24 58  1  0
 25 59  1  0
 26 60  1  0
 27 61  1  0
 28 62  1  0
 29 63  1  0
 30 64  1  0
 33 65  1  0
 34 66  1  0
 37 67  1  0
 38 68  1  0
M  END
> <Uni-Dock RESULT> 
ENERGY=   -4.510  LOWER_BOUND=    1.910  UPPER_BOUND=    4.274
INTER + INTRA:          -4.510
INTER:                  -4.510
INTRA:                   0.000
UNBOUND:                 0.000

$$$$
