
     RDKit          3D

 68 69  0  0  0  0  0  0  0  0999 V2000
   47.4740    9.1563   12.4383 C   0  0  0  0  0  0  0  0  0  0  0  0
   48.9292    7.1125   14.1967 C   0  0  0  0  0  0  0  0  0  0  0  0
   49.4277    8.4396   13.8250 C   0  0  0  0  0  0  0  0  0  0  0  0
   48.8077    9.3171   13.0243 C   0  0  0  0  0  0  0  0  0  0  0  0
   49.0874    6.5937   15.2862 O   0  0  0  0  0  0  0  0  0  0  0  0
   47.1505    9.5555   11.3349 O   0  0  0  0  0  0  0  0  0  0  0  0
   46.5870    8.6310   13.2957 O   0  0  0  0  0  0  0  0  0  0  0  0
   48.3808    6.4546   13.1650 O   0  0  0  0  0  0  0  0  0  0  0  0
   48.5549    7.7573   13.2504 C   0  0  0  0  0  0  0  0  0  0  0  0
   50.0017    7.9924   12.9875 C   0  0  0  0  0  0  0  0  0  0  0  0
   48.1478    6.5760   14.0489 C   0  0  0  0  0  0  0  0  0  0  0  0
   47.6179    8.6699   12.8686 C   0  0  0  0  0  0  0  0  0  0  0  0
   45.5448   10.7734   12.1565 N   0  0  0  0  0  0  0  0  0  0  0  0
   50.3134    8.2009   11.6778 N   0  0  0  0  0  0  0  0  0  0  0  0
   50.9688    7.9668   14.0031 C   0  0  0  0  0  0  0  0  0  0  0  0
   48.4841    6.5359   15.4126 C   0  0  0  0  0  0  0  0  0  0  0  0
   46.1254    8.5411   13.1539 C   0  0  0  0  0  0  0  0  0  0  0  0
   47.9545    9.9747   12.1519 C   0  0  0  0  0  0  0  0  0  0  0  0
   49.2820    7.6671   16.0120 C   0  0  0  0  0  0  0  0  0  0  0  0
   50.7189    7.6991   15.4744 C   0  0  0  0  0  0  0  0  0  0  0  0
   46.9466   11.0898   12.4804 C   0  0  0  0  0  0  0  0  0  0  0  0
   45.2868    9.3226   12.1289 C   0  0  0  0  0  0  0  0  0  0  0  0
   47.4904    5.4888   13.4601 C   0  0  0  0  0  0  0  0  0  0  0  0
   45.1236   11.3914   10.9016 C   0  0  0  0  0  0  0  0  0  0  0  0
   51.6077    8.3964   11.3582 C   0  0  0  0  0  0  0  0  0  0  0  0
   52.3049    8.1739   13.6151 C   0  0  0  0  0  0  0  0  0  0  0  0
   48.1126    5.4250   16.1814 C   0  0  0  0  0  0  0  0  0  0  0  0
   52.6312    8.3942   12.2824 C   0  0  0  0  0  0  0  0  0  0  0  0
   47.1265    4.3864   14.2332 C   0  0  0  0  0  0  0  0  0  0  0  0
   47.4312    4.3585   15.5932 C   0  0  0  0  0  0  0  0  0  0  0  0
   48.2819    9.0648   12.0480 C   0  0  0  0  0  0  0  0  0  0  0  0
   48.3605    7.1423   14.4328 C   0  0  0  0  0  0  0  0  0  0  0  0
   48.0047    8.5633   14.4817 C   0  0  0  0  0  0  0  0  0  0  0  0
   48.0083    9.4123   13.4452 C   0  0  0  0  0  0  0  0  0  0  0  0
   47.8308    6.2731   15.1002 O   0  0  0  0  0  0  0  0  0  0  0  0
   48.8679    9.7821   11.2586 O   0  0  0  0  0  0  0  0  0  0  0  0
   47.7043    7.9137   11.6744 O   0  0  0  0  0  0  0  0  0  0  0  0
   49.4315    6.8990   13.6635 O   0  0  0  0  0  0  0  0  0  0  0  0
   50.3865    8.6890   14.2648 H   0  0  0  0  0  0  0  0  0  0  0  0
   49.2980   10.2455   12.7542 H   0  0  0  0  0  0  0  0  0  0  0  0
   45.7513    8.6117   12.7858 H   0  0  0  0  0  0  0  0  0  0  0  0
   48.1247    5.5904   13.5480 H   0  0  0  0  0  0  0  0  0  0  0  0
   45.9193    8.9203   14.1629 H   0  0  0  0  0  0  0  0  0  0  0  0
   45.7910    7.5012   13.1203 H   0  0  0  0  0  0  0  0  0  0  0  0
   47.9613    9.7979   11.0691 H   0  0  0  0  0  0  0  0  0  0  0  0
   48.9454   10.3434   12.4380 H   0  0  0  0  0  0  0  0  0  0  0  0
   49.3201    7.5491   17.1025 H   0  0  0  0  0  0  0  0  0  0  0  0
   48.7726    8.6229   15.8357 H   0  0  0  0  0  0  0  0  0  0  0  0
   51.2022    6.7426   15.7172 H   0  0  0  0  0  0  0  0  0  0  0  0
   51.2502    8.4756   16.0415 H   0  0  0  0  0  0  0  0  0  0  0  0
   46.9936   11.2906   13.5592 H   0  0  0  0  0  0  0  0  0  0  0  0
   47.2649   12.0236   11.9996 H   0  0  0  0  0  0  0  0  0  0  0  0
   44.2232    9.1543   12.3358 H   0  0  0  0  0  0  0  0  0  0  0  0
   45.4877    8.9074   11.1312 H   0  0  0  0  0  0  0  0  0  0  0  0
   47.2608    5.5014   12.3972 H   0  0  0  0  0  0  0  0  0  0  0  0
   44.0700   11.1701   10.6974 H   0  0  0  0  0  0  0  0  0  0  0  0
   45.2074   12.4821   10.9631 H   0  0  0  0  0  0  0  0  0  0  0  0
   45.7214   11.0468   10.0501 H   0  0  0  0  0  0  0  0  0  0  0  0
   51.8041    8.5577   10.3026 H   0  0  0  0  0  0  0  0  0  0  0  0
   53.0998    8.1562   14.3579 H   0  0  0  0  0  0  0  0  0  0  0  0
   48.3611    5.3772   17.2389 H   0  0  0  0  0  0  0  0  0  0  0  0
   53.6582    8.5526   11.9748 H   0  0  0  0  0  0  0  0  0  0  0  0
   46.6092    3.5488   13.7732 H   0  0  0  0  0  0  0  0  0  0  0  0
   47.1482    3.4980   16.1942 H   0  0  0  0  0  0  0  0  0  0  0  0
   47.7174    8.9112   15.4674 H   0  0  0  0  0  0  0  0  0  0  0  0
   47.7976   10.4638   13.6041 H   0  0  0  0  0  0  0  0  0  0  0  0
   47.9442    7.8279   10.7289 H   0  0  0  0  0  0  0  0  0  0  0  0
   49.5665    5.9328   13.7492 H   0  0  0  0  0  0  0  0  0  0  0  0
  2  3  1  0
  3  4  2  0
  4  1  1  0
  5  2  2  0
  6  1  2  0
  7  1  1  0
  8  2  1  0
 10  9  1  0
 11  9  1  0
 12  9  2  3
 13 21  1  0
 14 10  2  0
 15 10  1  0
 16 11  2  0
 17 12  1  0
 18 12  1  0
 19 16  1  0
 20 15  1  0
 21 18  1  0
 22 17  1  0
 23 11  1  0
 24 13  1  0
 25 14  1  0
 26 15  2  0
 27 16  1  0
 28 26  1  0
 29 23  2  0
 30 29  1  0
 22 13  1  0
 20 19  1  0
 27 30  2  0
 25 28  2  0
 32 33  1  0
 33 34  2  0
 34 31  1  0
 35 32  2  0
 36 31  2  0
 37 31  1  0
 38 32  1  0
  3 39  1  0
  4 40  1  0
  7 41  1  0
  8 42  1  0
 17 43  1  0
 17 44  1  0
 18 45  1  0
 18 46  1  0
 19 47  1  0
 19 48  1  0
 20 49  1  0
 20 50  1  0
 21 51  1  0
 21 52  1  0
 22 53  1  0
 22 54  1  0
 23 55  1  0
 24 56  1  0
 24 57  1  0
 24 58  1  0
 25 59  1  0
 26 60  1  0
 27 61  1  0
 28 62  1  0
 29 63  1  0
 30 64  1  0
 33 65  1  0
 34 66  1  0
 37 67  1  0
 38 68  1  0
M  END
> <Uni-Dock RESULT> 
ENERGY=   -5.276  LOWER_BOUND=    0.000  UPPER_BOUND=    0.000
INTER + INTRA:          -5.276
INTER:                  -5.276
INTRA:                   0.000
UNBOUND:                 0.000

$$$$

     RDKit          3D

 68 69  0  0  0  0  0  0  0  0999 V2000
   48.9586   10.6043   12.4606 C   0  0  0  0  0  0  0  0  0  0  0  0
   47.7626    8.1844   13.9101 C   0  0  0  0  0  0  0  0  0  0  0  0
   47.5972    8.5067   12.4900 C   0  0  0  0  0  0  0  0  0  0  0  0
   48.0884    9.5859   11.8657 C   0  0  0  0  0  0  0  0  0  0  0  0
   47.8962    7.0589   14.3535 O   0  0  0  0  0  0  0  0  0  0  0  0
   48.9250   11.7893   12.1852 O   0  0  0  0  0  0  0  0  0  0  0  0
   49.9013   10.0833   13.2593 O   0  0  0  0  0  0  0  0  0  0  0  0
   47.6232    9.2542   14.7064 O   0  0  0  0  0  0  0  0  0  0  0  0
   47.9115    9.2755   13.4214 C   0  0  0  0  0  0  0  0  0  0  0  0
   46.6305    9.0036   12.7125 C   0  0  0  0  0  0  0  0  0  0  0  0
   48.2124    8.5454   14.6766 C   0  0  0  0  0  0  0  0  0  0  0  0
   48.8535   10.0934   12.8735 C   0  0  0  0  0  0  0  0  0  0  0  0
   51.0163   11.7921   11.5827 N   0  0  0  0  0  0  0  0  0  0  0  0
   45.9071   10.1155   12.4022 N   0  0  0  0  0  0  0  0  0  0  0  0
   46.1893    7.7048   12.4195 C   0  0  0  0  0  0  0  0  0  0  0  0
   48.4496    7.1620   14.6113 C   0  0  0  0  0  0  0  0  0  0  0  0
   50.2160   10.3755   13.4979 C   0  0  0  0  0  0  0  0  0  0  0  0
   48.6843   10.7905   11.5263 C   0  0  0  0  0  0  0  0  0  0  0  0
   48.3493    6.4555   13.2822 C   0  0  0  0  0  0  0  0  0  0  0  0
   46.9049    6.4138   12.7660 C   0  0  0  0  0  0  0  0  0  0  0  0
   50.0318   11.0086   10.8165 C   0  0  0  0  0  0  0  0  0  0  0  0
   50.7773   11.7305   13.0357 C   0  0  0  0  0  0  0  0  0  0  0  0
   48.2092    9.1950   15.9171 C   0  0  0  0  0  0  0  0  0  0  0  0
   51.0752   13.1807   11.1329 C   0  0  0  0  0  0  0  0  0  0  0  0
   44.7231    9.9478   11.7814 C   0  0  0  0  0  0  0  0  0  0  0  0
   44.9456    7.5857   11.7732 C   0  0  0  0  0  0  0  0  0  0  0  0
   48.7299    6.4548   15.7879 C   0  0  0  0  0  0  0  0  0  0  0  0
   44.2043    8.7147   11.4466 C   0  0  0  0  0  0  0  0  0  0  0  0
   48.4872    8.4821   17.0832 C   0  0  0  0  0  0  0  0  0  0  0  0
   48.7540    7.1155   17.0170 C   0  0  0  0  0  0  0  0  0  0  0  0
   48.0775   10.6477   12.2728 C   0  0  0  0  0  0  0  0  0  0  0  0
   48.3567    8.1848   14.0746 C   0  0  0  0  0  0  0  0  0  0  0  0
   49.1252    8.4536   12.8558 C   0  0  0  0  0  0  0  0  0  0  0  0
   48.9754    9.5116   12.0473 C   0  0  0  0  0  0  0  0  0  0  0  0
   48.8086    7.6608   15.0758 O   0  0  0  0  0  0  0  0  0  0  0  0
   47.4814   11.2434   11.3948 O   0  0  0  0  0  0  0  0  0  0  0  0
   48.0707   11.0616   13.5483 O   0  0  0  0  0  0  0  0  0  0  0  0
   47.0511    8.4583   13.9388 O   0  0  0  0  0  0  0  0  0  0  0  0
   47.0205    7.7746   11.9364 H   0  0  0  0  0  0  0  0  0  0  0  0
   47.8464    9.7675   10.8247 H   0  0  0  0  0  0  0  0  0  0  0  0
   50.4153   10.8628   13.5542 H   0  0  0  0  0  0  0  0  0  0  0  0
   47.7275    8.8891   15.6091 H   0  0  0  0  0  0  0  0  0  0  0  0
   50.9115    9.5745   13.2170 H   0  0  0  0  0  0  0  0  0  0  0  0
   50.1683   10.4000   14.5894 H   0  0  0  0  0  0  0  0  0  0  0  0
   48.1945   11.7597   11.6828 H   0  0  0  0  0  0  0  0  0  0  0  0
   48.0561   10.2026   10.8486 H   0  0  0  0  0  0  0  0  0  0  0  0
   48.7117    5.4250   13.3885 H   0  0  0  0  0  0  0  0  0  0  0  0
   49.0167    6.9297   12.5516 H   0  0  0  0  0  0  0  0  0  0  0  0
   46.2862    5.8882   13.5066 H   0  0  0  0  0  0  0  0  0  0  0  0
   46.9118    5.7920   11.8604 H   0  0  0  0  0  0  0  0  0  0  0  0
   50.4810   10.0259   10.6194 H   0  0  0  0  0  0  0  0  0  0  0  0
   49.8567   11.4489    9.8267 H   0  0  0  0  0  0  0  0  0  0  0  0
   51.7260   11.9184   13.5527 H   0  0  0  0  0  0  0  0  0  0  0  0
   50.0795   12.5185   13.3523 H   0  0  0  0  0  0  0  0  0  0  0  0
   47.9904   10.2587   15.9747 H   0  0  0  0  0  0  0  0  0  0  0  0
   51.8358   13.7357   11.6935 H   0  0  0  0  0  0  0  0  0  0  0  0
   51.3662   13.2310   10.0778 H   0  0  0  0  0  0  0  0  0  0  0  0
   50.1142   13.6945   11.2508 H   0  0  0  0  0  0  0  0  0  0  0  0
   44.1853   10.8637   11.5559 H   0  0  0  0  0  0  0  0  0  0  0  0
   44.5476    6.6030   11.5285 H   0  0  0  0  0  0  0  0  0  0  0  0
   48.9192    5.3845   15.7572 H   0  0  0  0  0  0  0  0  0  0  0  0
   43.2442    8.6317   10.9505 H   0  0  0  0  0  0  0  0  0  0  0  0
   48.4916    8.9925   18.0425 H   0  0  0  0  0  0  0  0  0  0  0  0
   48.9692    6.5609   17.9268 H   0  0  0  0  0  0  0  0  0  0  0  0
   49.8721    7.7006   12.6315 H   0  0  0  0  0  0  0  0  0  0  0  0
   49.5472    9.5780   11.1287 H   0  0  0  0  0  0  0  0  0  0  0  0
   47.4622   11.8289   13.5418 H   0  0  0  0  0  0  0  0  0  0  0  0
   46.6681    8.2066   14.8042 H   0  0  0  0  0  0  0  0  0  0  0  0
  2  3  1  0
  3  4  2  0
  4  1  1  0
  5  2  2  0
  6  1  2  0
  7  1  1  0
  8  2  1  0
 10  9  1  0
 11  9  1  0
 12  9  2  3
 13 21  1  0
 14 10  2  0
 15 10  1  0
 16 11  2  0
 17 12  1  0
 18 12  1  0
 19 16  1  0
 20 15  1  0
 21 18  1  0
 22 17  1  0
 23 11  1  0
 24 13  1  0
 25 14  1  0
 26 15  2  0
 27 16  1  0
 28 26  1  0
 29 23  2  0
 30 29  1  0
 22 13  1  0
 20 19  1  0
 27 30  2  0
 25 28  2  0
 32 33  1  0
 33 34  2  0
 34 31  1  0
 35 32  2  0
 36 31  2  0
 37 31  1  0
 38 32  1  0
  3 39  1  0
  4 40  1  0
  7 41  1  0
  8 42  1  0
 17 43  1  0
 17 44  1  0
 18 45  1  0
 18 46  1  0
 19 47  1  0
 19 48  1  0
 20 49  1  0
 20 50  1  0
 21 51  1  0
 21 52  1  0
 22 53  1  0
 22 54  1  0
 23 55  1  0
 24 56  1  0
 24 57  1  0
 24 58  1  0
 25 59  1  0
 26 60  1  0
 27 61  1  0
 28 62  1  0
 29 63  1  0
 30 64  1  0
 33 65  1  0
 34 66  1  0
 37 67  1  0
 38 68  1  0
M  END
> <Uni-Dock RESULT> 
ENERGY=   -5.197  LOWER_BOUND=    1.676  UPPER_BOUND=    3.892
INTER + INTRA:          -5.197
INTER:                  -5.197
INTRA:                   0.000
UNBOUND:                 0.000

$$$$

     RDKit          3D

 68 69  0  0  0  0  0  0  0  0999 V2000
   51.9700    5.6138   20.0297 C   0  0  0  0  0  0  0  0  0  0  0  0
   50.5317    4.9617   17.4042 C   0  0  0  0  0  0  0  0  0  0  0  0
   50.7305    4.0436   18.5291 C   0  0  0  0  0  0  0  0  0  0  0  0
   51.3934    4.3178   19.6608 C   0  0  0  0  0  0  0  0  0  0  0  0
   49.5253    5.0126   16.7216 O   0  0  0  0  0  0  0  0  0  0  0  0
   53.0029    5.7580   20.6569 O   0  0  0  0  0  0  0  0  0  0  0  0
   51.1742    6.6469   19.7174 O   0  0  0  0  0  0  0  0  0  0  0  0
   51.6319    5.6689   17.1086 O   0  0  0  0  0  0  0  0  0  0  0  0
   51.3750    5.0770   18.2569 C   0  0  0  0  0  0  0  0  0  0  0  0
   51.6316    3.6272   18.0335 C   0  0  0  0  0  0  0  0  0  0  0  0
   50.7353    5.8722   17.1810 C   0  0  0  0  0  0  0  0  0  0  0  0
   51.6120    5.6499   19.4702 C   0  0  0  0  0  0  0  0  0  0  0  0
   51.9938    6.8931   22.2158 N   0  0  0  0  0  0  0  0  0  0  0  0
   52.9070    3.2296   18.3002 N   0  0  0  0  0  0  0  0  0  0  0  0
   50.6476    2.7501   17.5542 C   0  0  0  0  0  0  0  0  0  0  0  0
   49.3962    5.6043   16.8501 C   0  0  0  0  0  0  0  0  0  0  0  0
   51.3180    7.1084   19.8049 C   0  0  0  0  0  0  0  0  0  0  0  0
   52.1526    4.8827   20.6738 C   0  0  0  0  0  0  0  0  0  0  0  0
   48.6652    4.4940   17.5633 C   0  0  0  0  0  0  0  0  0  0  0  0
   49.2213    3.1133   17.1901 C   0  0  0  0  0  0  0  0  0  0  0  0
   51.6573    5.4745   22.0048 C   0  0  0  0  0  0  0  0  0  0  0  0
   52.2119    7.6145   20.9492 C   0  0  0  0  0  0  0  0  0  0  0  0
   51.4526    6.8357   16.4612 C   0  0  0  0  0  0  0  0  0  0  0  0
   53.1455    7.0533   23.1000 C   0  0  0  0  0  0  0  0  0  0  0  0
   53.2222    1.9353   18.0979 C   0  0  0  0  0  0  0  0  0  0  0  0
   51.0298    1.4107   17.3580 C   0  0  0  0  0  0  0  0  0  0  0  0
   48.7772    6.3418   15.8323 C   0  0  0  0  0  0  0  0  0  0  0  0
   52.3266    0.9947   17.6340 C   0  0  0  0  0  0  0  0  0  0  0  0
   50.8283    7.5633   15.4481 C   0  0  0  0  0  0  0  0  0  0  0  0
   49.4907    7.3212   15.1396 C   0  0  0  0  0  0  0  0  0  0  0  0
   52.3845    4.8713   19.7293 C   0  0  0  0  0  0  0  0  0  0  0  0
   50.2827    5.4948   17.5884 C   0  0  0  0  0  0  0  0  0  0  0  0
   50.0358    5.3629   19.0271 C   0  0  0  0  0  0  0  0  0  0  0  0
   50.9482    5.0519   19.9577 C   0  0  0  0  0  0  0  0  0  0  0  0
   49.7286    6.2992   16.8623 O   0  0  0  0  0  0  0  0  0  0  0  0
   53.0812    4.0606   20.3113 O   0  0  0  0  0  0  0  0  0  0  0  0
   52.8988    5.7862   18.8946 O   0  0  0  0  0  0  0  0  0  0  0  0
   51.0983    4.5441   17.1100 O   0  0  0  0  0  0  0  0  0  0  0  0
   50.2797    3.0682   18.3864 H   0  0  0  0  0  0  0  0  0  0  0  0
   51.5453    3.5416   20.4023 H   0  0  0  0  0  0  0  0  0  0  0  0
   51.6659    7.4282   20.0438 H   0  0  0  0  0  0  0  0  0  0  0  0
   51.3641    6.2059   16.3347 H   0  0  0  0  0  0  0  0  0  0  0  0
   50.2633    7.2044   20.0925 H   0  0  0  0  0  0  0  0  0  0  0  0
   51.4850    7.7661   18.9483 H   0  0  0  0  0  0  0  0  0  0  0  0
   53.2492    4.9058   20.6510 H   0  0  0  0  0  0  0  0  0  0  0  0
   51.8385    3.8336   20.6525 H   0  0  0  0  0  0  0  0  0  0  0  0
   47.6016    4.5260   17.2947 H   0  0  0  0  0  0  0  0  0  0  0  0
   48.7012    4.6546   18.6481 H   0  0  0  0  0  0  0  0  0  0  0  0
   49.1190    2.9793   16.1043 H   0  0  0  0  0  0  0  0  0  0  0  0
   48.5649    2.3708   17.6641 H   0  0  0  0  0  0  0  0  0  0  0  0
   50.5624    5.3925   22.0327 H   0  0  0  0  0  0  0  0  0  0  0  0
   52.0138    4.8533   22.8363 H   0  0  0  0  0  0  0  0  0  0  0  0
   52.0090    8.6792   21.1159 H   0  0  0  0  0  0  0  0  0  0  0  0
   53.2602    7.5355   20.6282 H   0  0  0  0  0  0  0  0  0  0  0  0
   52.4995    7.0199   16.6908 H   0  0  0  0  0  0  0  0  0  0  0  0
   53.3574    8.1150   23.2688 H   0  0  0  0  0  0  0  0  0  0  0  0
   52.9391    6.6159   24.0832 H   0  0  0  0  0  0  0  0  0  0  0  0
   54.0471    6.5803   22.6943 H   0  0  0  0  0  0  0  0  0  0  0  0
   54.2499    1.6687   18.3247 H   0  0  0  0  0  0  0  0  0  0  0  0
   50.3116    0.6862   16.9794 H   0  0  0  0  0  0  0  0  0  0  0  0
   47.7409    6.1512   15.5642 H   0  0  0  0  0  0  0  0  0  0  0  0
   52.6298   -0.0348   17.4837 H   0  0  0  0  0  0  0  0  0  0  0  0
   51.3870    8.3156   14.8980 H   0  0  0  0  0  0  0  0  0  0  0  0
   49.0059    7.8881   14.3490 H   0  0  0  0  0  0  0  0  0  0  0  0
   49.0069    5.5454   19.3155 H   0  0  0  0  0  0  0  0  0  0  0  0
   50.6449    4.9079   20.9885 H   0  0  0  0  0  0  0  0  0  0  0  0
   53.8517    5.5631   18.8616 H   0  0  0  0  0  0  0  0  0  0  0  0
   51.1464    4.7378   16.1513 H   0  0  0  0  0  0  0  0  0  0  0  0
  2  3  1  0
  3  4  2  0
  4  1  1  0
  5  2  2  0
  6  1  2  0
  7  1  1  0
  8  2  1  0
 10  9  1  0
 11  9  1  0
 12  9  2  3
 13 21  1  0
 14 10  2  0
 15 10  1  0
 16 11  2  0
 17 12  1  0
 18 12  1  0
 19 16  1  0
 20 15  1  0
 21 18  1  0
 22 17  1  0
 23 11  1  0
 24 13  1  0
 25 14  1  0
 26 15  2  0
 27 16  1  0
 28 26  1  0
 29 23  2  0
 30 29  1  0
 22 13  1  0
 20 19  1  0
 27 30  2  0
 25 28  2  0
 32 33  1  0
 33 34  2  0
 34 31  1  0
 35 32  2  0
 36 31  2  0
 37 31  1  0
 38 32  1  0
  3 39  1  0
  4 40  1  0
  7 41  1  0
  8 42  1  0
 17 43  1  0
 17 44  1  0
 18 45  1  0
 18 46  1  0
 19 47  1  0
 19 48  1  0
 20 49  1  0
 20 50  1  0
 21 51  1  0
 21 52  1  0
 22 53  1  0
 22 54  1  0
 23 55  1  0
 24 56  1  0
 24 57  1  0
 24 58  1  0
 25 59  1  0
 26 60  1  0
 27 61  1  0
 28 62  1  0
 29 63  1  0
 30 64  1  0
 33 65  1  0
 34 66  1  0
 37 67  1  0
 38 68  1  0
M  END
> <Uni-Dock RESULT> 
ENERGY=   -5.090  LOWER_BOUND=    4.882  UPPER_BOUND=    7.951
INTER + INTRA:          -5.090
INTER:                  -5.090
INTRA:                   0.000
UNBOUND:                 0.000

$$$$

     RDKit          3D

 68 69  0  0  0  0  0  0  0  0999 V2000
   50.0072    8.9408   12.5900 C   0  0  0  0  0  0  0  0  0  0  0  0
   47.8705    7.2995   14.0488 C   0  0  0  0  0  0  0  0  0  0  0  0
   47.8302    7.7112   12.6428 C   0  0  0  0  0  0  0  0  0  0  0  0
   48.7464    8.4618   12.0162 C   0  0  0  0  0  0  0  0  0  0  0  0
   47.4806    6.2251   14.4669 O   0  0  0  0  0  0  0  0  0  0  0  0
   50.5183   10.0157   12.3364 O   0  0  0  0  0  0  0  0  0  0  0  0
   50.6248    8.0153   13.3384 O   0  0  0  0  0  0  0  0  0  0  0  0
   48.2671    8.2839   14.8684 O   0  0  0  0  0  0  0  0  0  0  0  0
   48.4933    8.2143   13.5726 C   0  0  0  0  0  0  0  0  0  0  0  0
   47.2112    8.5907   12.9152 C   0  0  0  0  0  0  0  0  0  0  0  0
   48.4595    7.3845   14.8011 C   0  0  0  0  0  0  0  0  0  0  0  0
   49.6899    8.5224   12.9984 C   0  0  0  0  0  0  0  0  0  0  0  0
   52.3533    9.0720   11.6443 N   0  0  0  0  0  0  0  0  0  0  0  0
   47.0766    9.9212   12.6552 N   0  0  0  0  0  0  0  0  0  0  0  0
   46.2095    7.6544   12.6196 C   0  0  0  0  0  0  0  0  0  0  0  0
   48.0263    6.0515   14.7024 C   0  0  0  0  0  0  0  0  0  0  0  0
   51.0462    8.1203   13.5681 C   0  0  0  0  0  0  0  0  0  0  0  0
   49.8222    9.2653   11.6718 C   0  0  0  0  0  0  0  0  0  0  0  0
   47.5696    5.5184   13.3671 C   0  0  0  0  0  0  0  0  0  0  0  0
   46.2553    6.1676   12.9131 C   0  0  0  0  0  0  0  0  0  0  0  0
   51.0950    8.8600   10.9083 C   0  0  0  0  0  0  0  0  0  0  0  0
   52.1573    9.0772   13.1051 C   0  0  0  0  0  0  0  0  0  0  0  0
   48.7955    7.9181   16.0514 C   0  0  0  0  0  0  0  0  0  0  0  0
   53.0354   10.2907   11.2159 C   0  0  0  0  0  0  0  0  0  0  0  0
   45.9315   10.3420   12.0833 C   0  0  0  0  0  0  0  0  0  0  0  0
   45.0333    8.1467   12.0257 C   0  0  0  0  0  0  0  0  0  0  0  0
   47.9825    5.2542   15.8537 C   0  0  0  0  0  0  0  0  0  0  0  0
   44.8902    9.5012   11.7505 C   0  0  0  0  0  0  0  0  0  0  0  0
   48.7467    7.1172   17.1923 C   0  0  0  0  0  0  0  0  0  0  0  0
   48.3476    5.7854   17.0916 C   0  0  0  0  0  0  0  0  0  0  0  0
   49.2414    9.3933   12.4412 C   0  0  0  0  0  0  0  0  0  0  0  0
   48.4018    7.0193   14.1875 C   0  0  0  0  0  0  0  0  0  0  0  0
   49.1698    6.9446   12.9413 C   0  0  0  0  0  0  0  0  0  0  0  0
   49.5030    7.9794   12.1581 C   0  0  0  0  0  0  0  0  0  0  0  0
   48.5896    6.3111   15.1593 O   0  0  0  0  0  0  0  0  0  0  0  0
   48.9629   10.2275   11.5999 O   0  0  0  0  0  0  0  0  0  0  0  0
   49.4660    9.7186   13.7226 O   0  0  0  0  0  0  0  0  0  0  0  0
   47.3682    7.8703   14.1128 O   0  0  0  0  0  0  0  0  0  0  0  0
   46.9633    7.3486   12.1024 H   0  0  0  0  0  0  0  0  0  0  0  0
   48.5846    8.7710   10.9898 H   0  0  0  0  0  0  0  0  0  0  0  0
   51.4503    8.4578   13.6239 H   0  0  0  0  0  0  0  0  0  0  0  0
   48.2178    7.8807   15.7594 H   0  0  0  0  0  0  0  0  0  0  0  0
   51.2823    7.0987   13.2440 H   0  0  0  0  0  0  0  0  0  0  0  0
   51.0485    8.1259   14.6609 H   0  0  0  0  0  0  0  0  0  0  0  0
   49.8425   10.3449   11.8655 H   0  0  0  0  0  0  0  0  0  0  0  0
   48.9727    9.0586   11.0119 H   0  0  0  0  0  0  0  0  0  0  0  0
   47.4160    4.4341   13.4403 H   0  0  0  0  0  0  0  0  0  0  0  0
   48.3581    5.6554   12.6165 H   0  0  0  0  0  0  0  0  0  0  0  0
   45.4864    5.9622   13.6707 H   0  0  0  0  0  0  0  0  0  0  0  0
   45.9457    5.6451   11.9977 H   0  0  0  0  0  0  0  0  0  0  0  0
   51.0313    7.7886   10.6753 H   0  0  0  0  0  0  0  0  0  0  0  0
   51.1138    9.3657    9.9344 H   0  0  0  0  0  0  0  0  0  0  0  0
   53.1002    8.7868   13.5837 H   0  0  0  0  0  0  0  0  0  0  0  0
   51.9142   10.0870   13.4647 H   0  0  0  0  0  0  0  0  0  0  0  0
   49.0966    8.9597   16.1363 H   0  0  0  0  0  0  0  0  0  0  0  0
   53.9833   10.4110   11.7524 H   0  0  0  0  0  0  0  0  0  0  0  0
   53.2843   10.2375   10.1502 H   0  0  0  0  0  0  0  0  0  0  0  0
   52.4262   11.1862   11.3838 H   0  0  0  0  0  0  0  0  0  0  0  0
   45.8729   11.4100   11.8967 H   0  0  0  0  0  0  0  0  0  0  0  0
   44.2179    7.4687   11.7818 H   0  0  0  0  0  0  0  0  0  0  0  0
   47.6531    4.2195   15.7968 H   0  0  0  0  0  0  0  0  0  0  0  0
   43.9865    9.8890   11.2950 H   0  0  0  0  0  0  0  0  0  0  0  0
   49.0164    7.5339   18.1589 H   0  0  0  0  0  0  0  0  0  0  0  0
   48.3087    5.1628   17.9818 H   0  0  0  0  0  0  0  0  0  0  0  0
   49.4754    5.9399   12.6724 H   0  0  0  0  0  0  0  0  0  0  0  0
   50.0122    7.8059   11.2169 H   0  0  0  0  0  0  0  0  0  0  0  0
   49.2826   10.6800   13.7553 H   0  0  0  0  0  0  0  0  0  0  0  0
   46.9387    7.7942   14.9896 H   0  0  0  0  0  0  0  0  0  0  0  0
  2  3  1  0
  3  4  2  0
  4  1  1  0
  5  2  2  0
  6  1  2  0
  7  1  1  0
  8  2  1  0
 10  9  1  0
 11  9  1  0
 12  9  2  3
 13 21  1  0
 14 10  2  0
 15 10  1  0
 16 11  2  0
 17 12  1  0
 18 12  1  0
 19 16  1  0
 20 15  1  0
 21 18  1  0
 22 17  1  0
 23 11  1  0
 24 13  1  0
 25 14  1  0
 26 15  2  0
 27 16  1  0
 28 26  1  0
 29 23  2  0
 30 29  1  0
 22 13  1  0
 20 19  1  0
 27 30  2  0
 25 28  2  0
 32 33  1  0
 33 34  2  0
 34 31  1  0
 35 32  2  0
 36 31  2  0
 37 31  1  0
 38 32  1  0
  3 39  1  0
  4 40  1  0
  7 41  1  0
  8 42  1  0
 17 43  1  0
 17 44  1  0
 18 45  1  0
 18 46  1  0
 19 47  1  0
 19 48  1  0
 20 49  1  0
 20 50  1  0
 21 51  1  0
 21 52  1  0
 22 53  1  0
 22 54  1  0
 23 55  1  0
 24 56  1  0
 24 57  1  0
 24 58  1  0
 25 59  1  0
 26 60  1  0
 27 61  1  0
 28 62  1  0
 29 63  1  0
 30 64  1  0
 33 65  1  0
 34 66  1  0
 37 67  1  0
 38 68  1  0
M  END
> <Uni-Dock RESULT> 
ENERGY=   -5.011  LOWER_BOUND=    1.204  UPPER_BOUND=    3.932
INTER + INTRA:          -5.011
INTER:                  -5.011
INTRA:                   0.000
UNBOUND:                 0.000

$$$$

     RDKit          3D

 68 69  0  0  0  0  0  0  0  0999 V2000
   51.9296    6.7723   18.0309 C   0  0  0  0  0  0  0  0  0  0  0  0
   50.7777    3.9835   18.5625 C   0  0  0  0  0  0  0  0  0  0  0  0
   50.0679    5.2550   18.7274 C   0  0  0  0  0  0  0  0  0  0  0  0
   50.5846    6.4757   18.5320 C   0  0  0  0  0  0  0  0  0  0  0  0
   50.2751    2.9602   18.1366 O   0  0  0  0  0  0  0  0  0  0  0  0
   52.6083    7.7171   18.3886 O   0  0  0  0  0  0  0  0  0  0  0  0
   52.3030    5.9641   17.0282 O   0  0  0  0  0  0  0  0  0  0  0  0
   52.0253    4.0162   19.0531 O   0  0  0  0  0  0  0  0  0  0  0  0
   51.3002    5.0596   18.7057 C   0  0  0  0  0  0  0  0  0  0  0  0
   50.3190    5.2581   19.8081 C   0  0  0  0  0  0  0  0  0  0  0  0
   51.6440    3.6802   18.2835 C   0  0  0  0  0  0  0  0  0  0  0  0
   51.7927    6.1217   18.0088 C   0  0  0  0  0  0  0  0  0  0  0  0
   52.7724    8.4741   16.3547 N   0  0  0  0  0  0  0  0  0  0  0  0
   50.7427    6.0884   20.8016 N   0  0  0  0  0  0  0  0  0  0  0  0
   49.0731    4.6143   19.8367 C   0  0  0  0  0  0  0  0  0  0  0  0
   50.6578    2.9027   17.6533 C   0  0  0  0  0  0  0  0  0  0  0  0
   52.7489    6.0059   16.8264 C   0  0  0  0  0  0  0  0  0  0  0  0
   51.4008    7.5697   18.2900 C   0  0  0  0  0  0  0  0  0  0  0  0
   49.2740    3.4730   17.4644 C   0  0  0  0  0  0  0  0  0  0  0  0
   48.5401    3.6436   18.8011 C   0  0  0  0  0  0  0  0  0  0  0  0
   51.4597    8.4398   17.0225 C   0  0  0  0  0  0  0  0  0  0  0  0
   53.5875    7.2831   16.6534 C   0  0  0  0  0  0  0  0  0  0  0  0
   52.9032    3.1284   18.5495 C   0  0  0  0  0  0  0  0  0  0  0  0
   53.5125    9.6929   16.6723 C   0  0  0  0  0  0  0  0  0  0  0  0
   49.9185    6.2975   21.8468 C   0  0  0  0  0  0  0  0  0  0  0  0
   48.2525    4.8650   20.9513 C   0  0  0  0  0  0  0  0  0  0  0  0
   50.9630    1.5953   17.2527 C   0  0  0  0  0  0  0  0  0  0  0  0
   48.6737    5.7158   21.9660 C   0  0  0  0  0  0  0  0  0  0  0  0
   53.1970    1.8251   18.1488 C   0  0  0  0  0  0  0  0  0  0  0  0
   52.2302    1.0629   17.4950 C   0  0  0  0  0  0  0  0  0  0  0  0
   51.6128    6.8213   18.8739 C   0  0  0  0  0  0  0  0  0  0  0  0
   51.0371    3.9397   18.0050 C   0  0  0  0  0  0  0  0  0  0  0  0
   50.6591    5.1528   17.2744 C   0  0  0  0  0  0  0  0  0  0  0  0
   50.8767    6.4131   17.6741 C   0  0  0  0  0  0  0  0  0  0  0  0
   51.4090    2.9052   17.4826 O   0  0  0  0  0  0  0  0  0  0  0  0
   51.3337    7.7854   19.5622 O   0  0  0  0  0  0  0  0  0  0  0  0
   52.7217    6.0954   19.0773 O   0  0  0  0  0  0  0  0  0  0  0  0
   50.8101    4.0328   19.3232 O   0  0  0  0  0  0  0  0  0  0  0  0
   49.0337    5.1456   19.0334 H   0  0  0  0  0  0  0  0  0  0  0  0
   49.9930    7.3570   18.7525 H   0  0  0  0  0  0  0  0  0  0  0  0
   53.1911    6.2935   16.7801 H   0  0  0  0  0  0  0  0  0  0  0  0
   52.3598    3.1082   18.9027 H   0  0  0  0  0  0  0  0  0  0  0  0
   52.1689    5.8207   15.9134 H   0  0  0  0  0  0  0  0  0  0  0  0
   53.4471    5.1737   16.9453 H   0  0  0  0  0  0  0  0  0  0  0  0
   52.0777    7.9841   19.0474 H   0  0  0  0  0  0  0  0  0  0  0  0
   50.3793    7.6385   18.6792 H   0  0  0  0  0  0  0  0  0  0  0  0
   48.6861    2.8004   16.8269 H   0  0  0  0  0  0  0  0  0  0  0  0
   49.3291    4.4238   16.9194 H   0  0  0  0  0  0  0  0  0  0  0  0
   48.4667    2.6600   19.2854 H   0  0  0  0  0  0  0  0  0  0  0  0
   47.5147    3.9553   18.5599 H   0  0  0  0  0  0  0  0  0  0  0  0
   50.7365    8.0427   16.2975 H   0  0  0  0  0  0  0  0  0  0  0  0
   51.1062    9.4519   17.2570 H   0  0  0  0  0  0  0  0  0  0  0  0
   54.2993    7.1339   15.8327 H   0  0  0  0  0  0  0  0  0  0  0  0
   54.1801    7.4325   17.5670 H   0  0  0  0  0  0  0  0  0  0  0  0
   53.6567    3.7154   19.0694 H   0  0  0  0  0  0  0  0  0  0  0  0
   54.4701    9.7123   16.1399 H   0  0  0  0  0  0  0  0  0  0  0  0
   52.9551   10.5775   16.3448 H   0  0  0  0  0  0  0  0  0  0  0  0
   53.7110    9.7880   17.7460 H   0  0  0  0  0  0  0  0  0  0  0  0
   50.3018    6.9662   22.6115 H   0  0  0  0  0  0  0  0  0  0  0  0
   47.2786    4.3866   21.0328 H   0  0  0  0  0  0  0  0  0  0  0  0
   50.2141    0.9793   16.7607 H   0  0  0  0  0  0  0  0  0  0  0  0
   48.0486    5.9127   22.8291 H   0  0  0  0  0  0  0  0  0  0  0  0
   54.1784    1.4044   18.3503 H   0  0  0  0  0  0  0  0  0  0  0  0
   52.4601    0.0469   17.1845 H   0  0  0  0  0  0  0  0  0  0  0  0
   50.1633    4.9610   16.3297 H   0  0  0  0  0  0  0  0  0  0  0  0
   50.4908    7.2416   17.0912 H   0  0  0  0  0  0  0  0  0  0  0  0
   53.1174    6.4931   19.8799 H   0  0  0  0  0  0  0  0  0  0  0  0
   51.0765    3.1561   19.6689 H   0  0  0  0  0  0  0  0  0  0  0  0
  2  3  1  0
  3  4  2  0
  4  1  1  0
  5  2  2  0
  6  1  2  0
  7  1  1  0
  8  2  1  0
 10  9  1  0
 11  9  1  0
 12  9  2  3
 13 21  1  0
 14 10  2  0
 15 10  1  0
 16 11  2  0
 17 12  1  0
 18 12  1  0
 19 16  1  0
 20 15  1  0
 21 18  1  0
 22 17  1  0
 23 11  1  0
 24 13  1  0
 25 14  1  0
 26 15  2  0
 27 16  1  0
 28 26  1  0
 29 23  2  0
 30 29  1  0
 22 13  1  0
 20 19  1  0
 27 30  2  0
 25 28  2  0
 32 33  1  0
 33 34  2  0
 34 31  1  0
 35 32  2  0
 36 31  2  0
 37 31  1  0
 38 32  1  0
  3 39  1  0
  4 40  1  0
  7 41  1  0
  8 42  1  0
 17 43  1  0
 17 44  1  0
 18 45  1  0
 18 46  1  0
 19 47  1  0
 19 48  1  0
 20 49  1  0
 20 50  1  0
 21 51  1  0
 21 52  1  0
 22 53  1  0
 22 54  1  0
 23 55  1  0
 24 56  1  0
 24 57  1  0
 24 58  1  0
 25 59  1  0
 26 60  1  0
 27 61  1  0
 28 62  1  0
 29 63  1  0
 30 64  1  0
 33 65  1  0
 34 66  1  0
 37 67  1  0
 38 68  1  0
M  END
> <Uni-Dock RESULT> 
ENERGY=   -5.007  LOWER_BOUND=    5.474  UPPER_BOUND=    7.443
INTER + INTRA:          -5.007
INTER:                  -5.007
INTRA:                   0.000
UNBOUND:                 0.000

$$$$

     RDKit          3D

 68 69  0  0  0  0  0  0  0  0999 V2000
   51.9527    6.5767   17.8772 C   0  0  0  0  0  0  0  0  0  0  0  0
   52.5101    3.8964   19.2529 C   0  0  0  0  0  0  0  0  0  0  0  0
   52.1502    4.0840   17.8446 C   0  0  0  0  0  0  0  0  0  0  0  0
   51.8686    5.2531   17.2535 C   0  0  0  0  0  0  0  0  0  0  0  0
   53.3112    3.0753   19.6592 O   0  0  0  0  0  0  0  0  0  0  0  0
   51.1985    7.5021   17.6404 O   0  0  0  0  0  0  0  0  0  0  0  0
   53.0358    6.7195   18.6548 O   0  0  0  0  0  0  0  0  0  0  0  0
   51.7667    4.6413   20.0840 O   0  0  0  0  0  0  0  0  0  0  0  0
   51.9530    4.8635   18.7991 C   0  0  0  0  0  0  0  0  0  0  0  0
   51.0861    3.8840   18.0872 C   0  0  0  0  0  0  0  0  0  0  0  0
   52.6648    4.4390   20.0288 C   0  0  0  0  0  0  0  0  0  0  0  0
   52.1897    6.0982   18.2739 C   0  0  0  0  0  0  0  0  0  0  0  0
   52.8417    8.7920   17.0296 N   0  0  0  0  0  0  0  0  0  0  0  0
   49.8286    4.3322   17.8159 N   0  0  0  0  0  0  0  0  0  0  0  0
   51.5199    2.5924   17.7542 C   0  0  0  0  0  0  0  0  0  0  0  0
   53.6933    3.4881   19.9179 C   0  0  0  0  0  0  0  0  0  0  0  0
   53.1131    7.1372   18.9014 C   0  0  0  0  0  0  0  0  0  0  0  0
   51.6004    6.5789   16.9507 C   0  0  0  0  0  0  0  0  0  0  0  0
   54.0133    2.8975   18.5672 C   0  0  0  0  0  0  0  0  0  0  0  0
   52.8811    1.9967   18.0559 C   0  0  0  0  0  0  0  0  0  0  0  0
   52.5201    7.5888   16.2427 C   0  0  0  0  0  0  0  0  0  0  0  0
   52.7230    8.5640   18.4809 C   0  0  0  0  0  0  0  0  0  0  0  0
   52.2953    4.9234   21.2896 C   0  0  0  0  0  0  0  0  0  0  0  0
   52.0330    9.9391   16.6246 C   0  0  0  0  0  0  0  0  0  0  0  0
   48.9772    3.4925   17.1949 C   0  0  0  0  0  0  0  0  0  0  0  0
   50.5911    1.7554   17.1096 C   0  0  0  0  0  0  0  0  0  0  0  0
   54.3730    3.0709   21.0699 C   0  0  0  0  0  0  0  0  0  0  0  0
   49.3085    2.2066   16.8227 C   0  0  0  0  0  0  0  0  0  0  0  0
   52.9765    4.5006   22.4309 C   0  0  0  0  0  0  0  0  0  0  0  0
   54.0183    3.5812   22.3196 C   0  0  0  0  0  0  0  0  0  0  0  0
   51.2231    6.0789   17.6947 C   0  0  0  0  0  0  0  0  0  0  0  0
   52.9848    4.2548   19.4148 C   0  0  0  0  0  0  0  0  0  0  0  0
   53.4028    4.9640   18.2022 C   0  0  0  0  0  0  0  0  0  0  0  0
   52.6216    5.7302   17.4289 C   0  0  0  0  0  0  0  0  0  0  0  0
   53.6852    4.0915   20.3968 O   0  0  0  0  0  0  0  0  0  0  0  0
   50.3676    6.2084   16.8388 O   0  0  0  0  0  0  0  0  0  0  0  0
   50.9951    6.3736   18.9829 O   0  0  0  0  0  0  0  0  0  0  0  0
   51.7797    3.6796   19.2934 O   0  0  0  0  0  0  0  0  0  0  0  0
   52.1256    3.1651   17.2702 H   0  0  0  0  0  0  0  0  0  0  0  0
   51.5422    5.2737   16.2199 H   0  0  0  0  0  0  0  0  0  0  0  0
   52.9759    7.6437   18.9725 H   0  0  0  0  0  0  0  0  0  0  0  0
   52.0924    4.3947   20.9739 H   0  0  0  0  0  0  0  0  0  0  0  0
   54.1458    6.9323   18.5919 H   0  0  0  0  0  0  0  0  0  0  0  0
   53.0854    7.1025   19.9933 H   0  0  0  0  0  0  0  0  0  0  0  0
   50.6257    7.0454   17.1403 H   0  0  0  0  0  0  0  0  0  0  0  0
   51.4444    5.7458   16.2569 H   0  0  0  0  0  0  0  0  0  0  0  0
   54.9303    2.2988   18.6386 H   0  0  0  0  0  0  0  0  0  0  0  0
   54.2372    3.6968   17.8495 H   0  0  0  0  0  0  0  0  0  0  0  0
   52.7273    1.1861   18.7817 H   0  0  0  0  0  0  0  0  0  0  0  0
   53.2443    1.5288   17.1307 H   0  0  0  0  0  0  0  0  0  0  0  0
   53.4699    7.0879   16.0120 H   0  0  0  0  0  0  0  0  0  0  0  0
   52.0905    7.8541   15.2683 H   0  0  0  0  0  0  0  0  0  0  0  0
   53.3729    9.2788   18.9996 H   0  0  0  0  0  0  0  0  0  0  0  0
   51.6972    8.7565   18.8256 H   0  0  0  0  0  0  0  0  0  0  0  0
   51.4757    5.6322   21.3824 H   0  0  0  0  0  0  0  0  0  0  0  0
   52.3114   10.8294   17.1996 H   0  0  0  0  0  0  0  0  0  0  0  0
   52.2090   10.1805   15.5705 H   0  0  0  0  0  0  0  0  0  0  0  0
   50.9609    9.7585   16.7630 H   0  0  0  0  0  0  0  0  0  0  0  0
   47.9882    3.8963   17.0014 H   0  0  0  0  0  0  0  0  0  0  0  0
   50.8679    0.7396   16.8349 H   0  0  0  0  0  0  0  0  0  0  0  0
   55.1739    2.3385   21.0039 H   0  0  0  0  0  0  0  0  0  0  0  0
   48.5862    1.5676   16.3282 H   0  0  0  0  0  0  0  0  0  0  0  0
   52.6913    4.8858   23.4062 H   0  0  0  0  0  0  0  0  0  0  0  0
   54.5474    3.2515   23.2101 H   0  0  0  0  0  0  0  0  0  0  0  0
   54.4483    4.8270   17.9506 H   0  0  0  0  0  0  0  0  0  0  0  0
   53.0136    6.1523   16.5106 H   0  0  0  0  0  0  0  0  0  0  0  0
   50.0454    6.6114   19.0037 H   0  0  0  0  0  0  0  0  0  0  0  0
   51.6490    3.2268   20.1518 H   0  0  0  0  0  0  0  0  0  0  0  0
  2  3  1  0
  3  4  2  0
  4  1  1  0
  5  2  2  0
  6  1  2  0
  7  1  1  0
  8  2  1  0
 10  9  1  0
 11  9  1  0
 12  9  2  3
 13 21  1  0
 14 10  2  0
 15 10  1  0
 16 11  2  0
 17 12  1  0
 18 12  1  0
 19 16  1  0
 20 15  1  0
 21 18  1  0
 22 17  1  0
 23 11  1  0
 24 13  1  0
 25 14  1  0
 26 15  2  0
 27 16  1  0
 28 26  1  0
 29 23  2  0
 30 29  1  0
 22 13  1  0
 20 19  1  0
 27 30  2  0
 25 28  2  0
 32 33  1  0
 33 34  2  0
 34 31  1  0
 35 32  2  0
 36 31  2  0
 37 31  1  0
 38 32  1  0
  3 39  1  0
  4 40  1  0
  7 41  1  0
  8 42  1  0
 17 43  1  0
 17 44  1  0
 18 45  1  0
 18 46  1  0
 19 47  1  0
 19 48  1  0
 20 49  1  0
 20 50  1  0
 21 51  1  0
 21 52  1  0
 22 53  1  0
 22 54  1  0
 23 55  1  0
 24 56  1  0
 24 57  1  0
 24 58  1  0
 25 59  1  0
 26 60  1  0
 27 61  1  0
 28 62  1  0
 29 63  1  0
 30 64  1  0
 33 65  1  0
 34 66  1  0
 37 67  1  0
 38 68  1  0
M  END
> <Uni-Dock RESULT> 
ENERGY=   -4.916  LOWER_BOUND=    5.191  UPPER_BOUND=    7.815
INTER + INTRA:          -4.916
INTER:                  -4.916
INTRA:                   0.000
UNBOUND:                 0.000

$$$$

     RDKit          3D

 68 69  0  0  0  0  0  0  0  0999 V2000
   51.9489    6.5797   17.8752 C   0  0  0  0  0  0  0  0  0  0  0  0
   52.5066    3.9004   19.2527 C   0  0  0  0  0  0  0  0  0  0  0  0
   52.1477    4.0870   17.8440 C   0  0  0  0  0  0  0  0  0  0  0  0
   51.8660    5.2556   17.2521 C   0  0  0  0  0  0  0  0  0  0  0  0
   53.3078    3.0799   19.6600 O   0  0  0  0  0  0  0  0  0  0  0  0
   51.1945    7.5046   17.6373 O   0  0  0  0  0  0  0  0  0  0  0  0
   53.0313    6.7233   18.6535 O   0  0  0  0  0  0  0  0  0  0  0  0
   51.7622    4.6453   20.0828 O   0  0  0  0  0  0  0  0  0  0  0  0
   51.9493    4.8669   18.7979 C   0  0  0  0  0  0  0  0  0  0  0  0
   51.0835    3.8866   18.0858 C   0  0  0  0  0  0  0  0  0  0  0  0
   52.6604    4.4434   20.0284 C   0  0  0  0  0  0  0  0  0  0  0  0
   52.1859    6.1015   18.2723 C   0  0  0  0  0  0  0  0  0  0  0  0
   52.8375    8.7949   17.0271 N   0  0  0  0  0  0  0  0  0  0  0  0
   49.8260    4.3341   17.8133 N   0  0  0  0  0  0  0  0  0  0  0  0
   51.5182    2.5950   17.7539 C   0  0  0  0  0  0  0  0  0  0  0  0
   53.6895    3.4930   19.9188 C   0  0  0  0  0  0  0  0  0  0  0  0
   53.1082    7.1413   18.8999 C   0  0  0  0  0  0  0  0  0  0  0  0
   51.5973    6.5812   16.9483 C   0  0  0  0  0  0  0  0  0  0  0  0
   54.0108    2.9019   18.5686 C   0  0  0  0  0  0  0  0  0  0  0  0
   52.8795    2.0002   18.0569 C   0  0  0  0  0  0  0  0  0  0  0  0
   52.5171    7.5912   16.2405 C   0  0  0  0  0  0  0  0  0  0  0  0
   52.7178    8.5676   18.4784 C   0  0  0  0  0  0  0  0  0  0  0  0
   52.2897    4.9283   21.2887 C   0  0  0  0  0  0  0  0  0  0  0  0
   52.0285    9.9414   16.6209 C   0  0  0  0  0  0  0  0  0  0  0  0
   48.9755    3.4936   17.1921 C   0  0  0  0  0  0  0  0  0  0  0  0
   50.5904    1.7573   17.1090 C   0  0  0  0  0  0  0  0  0  0  0  0
   54.3685    3.0768   21.0716 C   0  0  0  0  0  0  0  0  0  0  0  0
   49.3077    2.2077   16.8209 C   0  0  0  0  0  0  0  0  0  0  0  0
   52.9702    4.5064   22.4308 C   0  0  0  0  0  0  0  0  0  0  0  0
   54.0126    3.5875   22.3207 C   0  0  0  0  0  0  0  0  0  0  0  0
   51.2197    6.0814   17.6923 C   0  0  0  0  0  0  0  0  0  0  0  0
   52.9810    4.2591   19.4148 C   0  0  0  0  0  0  0  0  0  0  0  0
   53.3996    4.9678   18.2021 C   0  0  0  0  0  0  0  0  0  0  0  0
   52.6186    5.7332   17.4278 C   0  0  0  0  0  0  0  0  0  0  0  0
   53.6807    4.0966   20.3974 O   0  0  0  0  0  0  0  0  0  0  0  0
   50.3648    6.2100   16.8357 O   0  0  0  0  0  0  0  0  0  0  0  0
   50.9905    6.3766   18.9801 O   0  0  0  0  0  0  0  0  0  0  0  0
   51.7763    3.6832   19.2927 O   0  0  0  0  0  0  0  0  0  0  0  0
   52.1240    3.1678   17.2700 H   0  0  0  0  0  0  0  0  0  0  0  0
   51.5404    5.2756   16.2182 H   0  0  0  0  0  0  0  0  0  0  0  0
   52.9707    7.6477   18.9707 H   0  0  0  0  0  0  0  0  0  0  0  0
   52.0873    4.3993   20.9731 H   0  0  0  0  0  0  0  0  0  0  0  0
   54.1413    6.9367   18.5914 H   0  0  0  0  0  0  0  0  0  0  0  0
   53.0797    7.1071   19.9918 H   0  0  0  0  0  0  0  0  0  0  0  0
   50.6222    7.0473   17.1370 H   0  0  0  0  0  0  0  0  0  0  0  0
   51.4423    5.7477   16.2549 H   0  0  0  0  0  0  0  0  0  0  0  0
   54.9281    2.3036   18.6411 H   0  0  0  0  0  0  0  0  0  0  0  0
   54.2348    3.7009   17.8507 H   0  0  0  0  0  0  0  0  0  0  0  0
   52.7255    1.1899   18.7830 H   0  0  0  0  0  0  0  0  0  0  0  0
   53.2436    1.5320   17.1322 H   0  0  0  0  0  0  0  0  0  0  0  0
   53.4673    7.0906   16.0109 H   0  0  0  0  0  0  0  0  0  0  0  0
   52.0881    7.8557   15.2656 H   0  0  0  0  0  0  0  0  0  0  0  0
   53.3669    9.2831   18.9972 H   0  0  0  0  0  0  0  0  0  0  0  0
   51.6916    8.7598   18.8222 H   0  0  0  0  0  0  0  0  0  0  0  0
   51.4697    5.6367   21.3804 H   0  0  0  0  0  0  0  0  0  0  0  0
   52.3060   10.8322   17.1956 H   0  0  0  0  0  0  0  0  0  0  0  0
   52.2051   10.1824   15.5667 H   0  0  0  0  0  0  0  0  0  0  0  0
   50.9564    9.7603   16.7585 H   0  0  0  0  0  0  0  0  0  0  0  0
   47.9864    3.8968   16.9976 H   0  0  0  0  0  0  0  0  0  0  0  0
   50.8679    0.7415   16.8351 H   0  0  0  0  0  0  0  0  0  0  0  0
   55.1698    2.3447   21.0065 H   0  0  0  0  0  0  0  0  0  0  0  0
   48.5861    1.5680   16.3262 H   0  0  0  0  0  0  0  0  0  0  0  0
   52.6841    4.8920   23.4055 H   0  0  0  0  0  0  0  0  0  0  0  0
   54.5411    3.2585   23.2118 H   0  0  0  0  0  0  0  0  0  0  0  0
   54.4453    4.8313   17.9514 H   0  0  0  0  0  0  0  0  0  0  0  0
   53.0110    6.1551   16.5095 H   0  0  0  0  0  0  0  0  0  0  0  0
   50.0407    6.6140   19.0001 H   0  0  0  0  0  0  0  0  0  0  0  0
   51.6451    3.2308   20.1513 H   0  0  0  0  0  0  0  0  0  0  0  0
  2  3  1  0
  3  4  2  0
  4  1  1  0
  5  2  2  0
  6  1  2  0
  7  1  1  0
  8  2  1  0
 10  9  1  0
 11  9  1  0
 12  9  2  3
 13 21  1  0
 14 10  2  0
 15 10  1  0
 16 11  2  0
 17 12  1  0
 18 12  1  0
 19 16  1  0
 20 15  1  0
 21 18  1  0
 22 17  1  0
 23 11  1  0
 24 13  1  0
 25 14  1  0
 26 15  2  0
 27 16  1  0
 28 26  1  0
 29 23  2  0
 30 29  1  0
 22 13  1  0
 20 19  1  0
 27 30  2  0
 25 28  2  0
 32 33  1  0
 33 34  2  0
 34 31  1  0
 35 32  2  0
 36 31  2  0
 37 31  1  0
 38 32  1  0
  3 39  1  0
  4 40  1  0
  7 41  1  0
  8 42  1  0
 17 43  1  0
 17 44  1  0
 18 45  1  0
 18 46  1  0
 19 47  1  0
 19 48  1  0
 20 49  1  0
 20 50  1  0
 21 51  1  0
 21 52  1  0
 22 53  1  0
 22 54  1  0
 23 55  1  0
 24 56  1  0
 24 57  1  0
 24 58  1  0
 25 59  1  0
 26 60  1  0
 27 61  1  0
 28 62  1  0
 29 63  1  0
 30 64  1  0
 33 65  1  0
 34 66  1  0
 37 67  1  0
 38 68  1  0
M  END
> <Uni-Dock RESULT> 
ENERGY=   -4.916  LOWER_BOUND=    5.188  UPPER_BOUND=    7.811
INTER + INTRA:          -4.916
INTER:                  -4.916
INTRA:                   0.000
UNBOUND:                 0.000

$$$$

     RDKit          3D

 68 69  0  0  0  0  0  0  0  0999 V2000
   48.3930    5.4151   19.0763 C   0  0  0  0  0  0  0  0  0  0  0  0
   48.9297    6.5245   21.8813 C   0  0  0  0  0  0  0  0  0  0  0  0
   47.7649    6.8247   21.0441 C   0  0  0  0  0  0  0  0  0  0  0  0
   47.5503    6.3697   19.8022 C   0  0  0  0  0  0  0  0  0  0  0  0
   48.8949    6.3779   23.0890 O   0  0  0  0  0  0  0  0  0  0  0  0
   48.5943    5.4433   17.8763 O   0  0  0  0  0  0  0  0  0  0  0  0
   48.8297    4.4108   19.8500 O   0  0  0  0  0  0  0  0  0  0  0  0
   50.0831    6.5518   21.1979 O   0  0  0  0  0  0  0  0  0  0  0  0
   48.8802    6.3955   20.6845 C   0  0  0  0  0  0  0  0  0  0  0  0
   48.2599    7.7493   20.6823 C   0  0  0  0  0  0  0  0  0  0  0  0
   49.7241    5.9888   21.8340 C   0  0  0  0  0  0  0  0  0  0  0  0
   48.5891    5.4918   19.7073 C   0  0  0  0  0  0  0  0  0  0  0  0
   47.8223    3.4250   17.6167 N   0  0  0  0  0  0  0  0  0  0  0  0
   48.4737    8.4691   19.5455 N   0  0  0  0  0  0  0  0  0  0  0  0
   47.5428    8.2544   21.7768 C   0  0  0  0  0  0  0  0  0  0  0  0
   49.1129    5.7984   23.0848 C   0  0  0  0  0  0  0  0  0  0  0  0
   49.1270    4.0653   19.6668 C   0  0  0  0  0  0  0  0  0  0  0  0
   47.6342    5.7779   18.5515 C   0  0  0  0  0  0  0  0  0  0  0  0
   47.6334    6.0535   23.2325 C   0  0  0  0  0  0  0  0  0  0  0  0
   47.2949    7.5437   23.0930 C   0  0  0  0  0  0  0  0  0  0  0  0
   46.9236    4.5042   18.0617 C   0  0  0  0  0  0  0  0  0  0  0  0
   49.1590    3.5163   18.2309 C   0  0  0  0  0  0  0  0  0  0  0  0
   51.1114    5.8473   21.7065 C   0  0  0  0  0  0  0  0  0  0  0  0
   47.9312    3.3734   16.1609 C   0  0  0  0  0  0  0  0  0  0  0  0
   47.9638    9.7145   19.4792 C   0  0  0  0  0  0  0  0  0  0  0  0
   47.0342    9.5603   21.6567 C   0  0  0  0  0  0  0  0  0  0  0  0
   49.8955    5.4196   24.1835 C   0  0  0  0  0  0  0  0  0  0  0  0
   47.2415   10.2992   20.4982 C   0  0  0  0  0  0  0  0  0  0  0  0
   51.8824    5.4719   22.8065 C   0  0  0  0  0  0  0  0  0  0  0  0
   51.2737    5.2517   24.0410 C   0  0  0  0  0  0  0  0  0  0  0  0
   48.3295    6.3091   18.9760 C   0  0  0  0  0  0  0  0  0  0  0  0
   49.0186    5.9168   21.9359 C   0  0  0  0  0  0  0  0  0  0  0  0
   47.9204    5.2695   21.2128 C   0  0  0  0  0  0  0  0  0  0  0  0
   47.5958    5.4711   19.9285 C   0  0  0  0  0  0  0  0  0  0  0  0
   49.6918    5.3801   22.7962 O   0  0  0  0  0  0  0  0  0  0  0  0
   47.8119    6.9747   18.0983 O   0  0  0  0  0  0  0  0  0  0  0  0
   49.6596    6.1742   19.0797 O   0  0  0  0  0  0  0  0  0  0  0  0
   49.1350    7.2214   21.6483 O   0  0  0  0  0  0  0  0  0  0  0  0
   47.0383    7.4751   21.5173 H   0  0  0  0  0  0  0  0  0  0  0  0
   46.6883    6.7114   19.2405 H   0  0  0  0  0  0  0  0  0  0  0  0
   49.3432    3.8477   19.2353 H   0  0  0  0  0  0  0  0  0  0  0  0
   50.7626    6.3662   21.8781 H   0  0  0  0  0  0  0  0  0  0  0  0
   48.4912    3.4248   20.2911 H   0  0  0  0  0  0  0  0  0  0  0  0
   50.1442    4.0008   20.0610 H   0  0  0  0  0  0  0  0  0  0  0  0
   48.1981    6.2217   17.7216 H   0  0  0  0  0  0  0  0  0  0  0  0
   46.8537    6.4881   18.8447 H   0  0  0  0  0  0  0  0  0  0  0  0
   47.3010    5.7112   24.2208 H   0  0  0  0  0  0  0  0  0  0  0  0
   47.0726    5.4511   22.5068 H   0  0  0  0  0  0  0  0  0  0  0  0
   47.8403    8.0982   23.8692 H   0  0  0  0  0  0  0  0  0  0  0  0
   46.2255    7.6466   23.3224 H   0  0  0  0  0  0  0  0  0  0  0  0
   46.3214    4.1052   18.8891 H   0  0  0  0  0  0  0  0  0  0  0  0
   46.2000    4.7669   17.2796 H   0  0  0  0  0  0  0  0  0  0  0  0
   49.6059    2.5149   18.2419 H   0  0  0  0  0  0  0  0  0  0  0  0
   49.8229    4.1558   17.6322 H   0  0  0  0  0  0  0  0  0  0  0  0
   51.5920    6.0291   20.7481 H   0  0  0  0  0  0  0  0  0  0  0  0
   48.5775    2.5443   15.8517 H   0  0  0  0  0  0  0  0  0  0  0  0
   46.9503    3.1903   15.7083 H   0  0  0  0  0  0  0  0  0  0  0  0
   48.3358    4.3025   15.7435 H   0  0  0  0  0  0  0  0  0  0  0  0
   48.1615   10.2465   18.5536 H   0  0  0  0  0  0  0  0  0  0  0  0
   46.4773   10.0086   22.4769 H   0  0  0  0  0  0  0  0  0  0  0  0
   49.4402    5.2645   25.1586 H   0  0  0  0  0  0  0  0  0  0  0  0
   46.8549   11.3067   20.3982 H   0  0  0  0  0  0  0  0  0  0  0  0
   52.9576    5.3554   22.7004 H   0  0  0  0  0  0  0  0  0  0  0  0
   51.8760    4.9605   24.8978 H   0  0  0  0  0  0  0  0  0  0  0  0
   47.3494    4.5708   21.8136 H   0  0  0  0  0  0  0  0  0  0  0  0
   46.7170    4.9944   19.5094 H   0  0  0  0  0  0  0  0  0  0  0  0
   50.0094    6.7584   18.3760 H   0  0  0  0  0  0  0  0  0  0  0  0
   49.8746    7.5210   22.2160 H   0  0  0  0  0  0  0  0  0  0  0  0
  2  3  1  0
  3  4  2  0
  4  1  1  0
  5  2  2  0
  6  1  2  0
  7  1  1  0
  8  2  1  0
 10  9  1  0
 11  9  1  0
 12  9  2  3
 13 21  1  0
 14 10  2  0
 15 10  1  0
 16 11  2  0
 17 12  1  0
 18 12  1  0
 19 16  1  0
 20 15  1  0
 21 18  1  0
 22 17  1  0
 23 11  1  0
 24 13  1  0
 25 14  1  0
 26 15  2  0
 27 16  1  0
 28 26  1  0
 29 23  2  0
 30 29  1  0
 22 13  1  0
 20 19  1  0
 27 30  2  0
 25 28  2  0
 32 33  1  0
 33 34  2  0
 34 31  1  0
 35 32  2  0
 36 31  2  0
 37 31  1  0
 38 32  1  0
  3 39  1  0
  4 40  1  0
  7 41  1  0
  8 42  1  0
 17 43  1  0
 17 44  1  0
 18 45  1  0
 18 46  1  0
 19 47  1  0
 19 48  1  0
 20 49  1  0
 20 50  1  0
 21 51  1  0
 21 52  1  0
 22 53  1  0
 22 54  1  0
 23 55  1  0
 24 56  1  0
 24 57  1  0
 24 58  1  0
 25 59  1  0
 26 60  1  0
 27 61  1  0
 28 62  1  0
 29 63  1  0
 30 64  1  0
 33 65  1  0
 34 66  1  0
 37 67  1  0
 38 68  1  0
M  END
> <Uni-Dock RESULT> 
ENERGY=   -4.895  LOWER_BOUND=    5.890  UPPER_BOUND=    8.293
INTER + INTRA:          -4.895
INTER:                  -4.895
INTRA:                   0.000
UNBOUND:                 0.000

$$$$

     RDKit          3D

 68 69  0  0  0  0  0  0  0  0999 V2000
   49.9331    5.9717   19.3521 C   0  0  0  0  0  0  0  0  0  0  0  0
   52.0561    4.4120   17.7876 C   0  0  0  0  0  0  0  0  0  0  0  0
   52.0964    5.8424   18.1042 C   0  0  0  0  0  0  0  0  0  0  0  0
   51.1489    6.5313   18.7546 C   0  0  0  0  0  0  0  0  0  0  0  0
   53.0250    3.6756   17.7871 O   0  0  0  0  0  0  0  0  0  0  0  0
   48.8566    6.5382   19.3889 O   0  0  0  0  0  0  0  0  0  0  0  0
   50.1490    4.8072   19.9808 O   0  0  0  0  0  0  0  0  0  0  0  0
   50.8498    4.0059   17.3658 O   0  0  0  0  0  0  0  0  0  0  0  0
   51.1012    5.0902   18.0700 C   0  0  0  0  0  0  0  0  0  0  0  0
   51.6660    6.0776   17.1089 C   0  0  0  0  0  0  0  0  0  0  0  0
   51.4794    3.6618   17.9451 C   0  0  0  0  0  0  0  0  0  0  0  0
   50.3406    5.4976   19.1245 C   0  0  0  0  0  0  0  0  0  0  0  0
   48.7750    6.4169   21.5604 N   0  0  0  0  0  0  0  0  0  0  0  0
   50.7411    6.8785   16.5098 N   0  0  0  0  0  0  0  0  0  0  0  0
   53.0364    6.1524   16.8193 C   0  0  0  0  0  0  0  0  0  0  0  0
   52.8063    3.2894   18.2189 C   0  0  0  0  0  0  0  0  0  0  0  0
   49.7773    4.5638   20.1905 C   0  0  0  0  0  0  0  0  0  0  0  0
   50.0020    6.9592   19.4051 C   0  0  0  0  0  0  0  0  0  0  0  0
   53.8124    4.3515   18.5872 C   0  0  0  0  0  0  0  0  0  0  0  0
   54.1266    5.2749   17.4026 C   0  0  0  0  0  0  0  0  0  0  0  0
   49.8162    7.2298   20.9083 C   0  0  0  0  0  0  0  0  0  0  0  0
   48.5178    5.1533   20.8467 C   0  0  0  0  0  0  0  0  0  0  0  0
   50.5601    2.6991   17.5103 C   0  0  0  0  0  0  0  0  0  0  0  0
   47.5330    7.1650   21.7388 C   0  0  0  0  0  0  0  0  0  0  0  0
   51.1741    7.7813   15.6082 C   0  0  0  0  0  0  0  0  0  0  0  0
   53.4348    7.1100   15.8691 C   0  0  0  0  0  0  0  0  0  0  0  0
   53.1831    1.9451   18.1005 C   0  0  0  0  0  0  0  0  0  0  0  0
   52.4991    7.9359   15.2582 C   0  0  0  0  0  0  0  0  0  0  0  0
   50.9451    1.3636   17.3935 C   0  0  0  0  0  0  0  0  0  0  0  0
   52.2528    0.9869   17.6951 C   0  0  0  0  0  0  0  0  0  0  0  0
   50.0283    6.4367   18.5852 C   0  0  0  0  0  0  0  0  0  0  0  0
   51.9543    4.0715   18.2913 C   0  0  0  0  0  0  0  0  0  0  0  0
   51.9004    5.0050   19.4200 C   0  0  0  0  0  0  0  0  0  0  0  0
   51.0844    6.0620   19.5299 C   0  0  0  0  0  0  0  0  0  0  0  0
   52.1772    2.8791   18.3898 O   0  0  0  0  0  0  0  0  0  0  0  0
   49.7224    7.5816   18.3080 O   0  0  0  0  0  0  0  0  0  0  0  0
   49.3289    5.3828   18.1402 O   0  0  0  0  0  0  0  0  0  0  0  0
   51.8597    4.6847   17.1026 O   0  0  0  0  0  0  0  0  0  0  0  0
   52.9949    6.3438   17.7631 H   0  0  0  0  0  0  0  0  0  0  0  0
   51.2440    7.6046   18.8742 H   0  0  0  0  0  0  0  0  0  0  0  0
   49.2722    4.5738   20.3491 H   0  0  0  0  0  0  0  0  0  0  0  0
   50.9790    3.0558   17.1672 H   0  0  0  0  0  0  0  0  0  0  0  0
   50.5439    4.3906   20.9564 H   0  0  0  0  0  0  0  0  0  0  0  0
   49.5018    3.5905   19.7771 H   0  0  0  0  0  0  0  0  0  0  0  0
   49.0805    7.2230   18.8714 H   0  0  0  0  0  0  0  0  0  0  0  0
   50.7959    7.6274   19.0546 H   0  0  0  0  0  0  0  0  0  0  0  0
   54.7447    3.8733   18.9138 H   0  0  0  0  0  0  0  0  0  0  0  0
   53.4557    4.9252   19.4519 H   0  0  0  0  0  0  0  0  0  0  0  0
   54.5253    4.6632   16.5814 H   0  0  0  0  0  0  0  0  0  0  0  0
   54.9398    5.9382   17.7273 H   0  0  0  0  0  0  0  0  0  0  0  0
   50.7647    7.0127   21.4178 H   0  0  0  0  0  0  0  0  0  0  0  0
   49.6423    8.3015   21.0681 H   0  0  0  0  0  0  0  0  0  0  0  0
   48.1144    4.4260   21.5614 H   0  0  0  0  0  0  0  0  0  0  0  0
   47.7555    5.2913   20.0669 H   0  0  0  0  0  0  0  0  0  0  0  0
   49.5419    2.9904   17.2630 H   0  0  0  0  0  0  0  0  0  0  0  0
   46.7846    6.5527   22.2542 H   0  0  0  0  0  0  0  0  0  0  0  0
   47.7021    8.0464   22.3674 H   0  0  0  0  0  0  0  0  0  0  0  0
   47.1104    7.4981   20.7840 H   0  0  0  0  0  0  0  0  0  0  0  0
   50.3991    8.3949   15.1592 H   0  0  0  0  0  0  0  0  0  0  0  0
   54.4838    7.2081   15.5974 H   0  0  0  0  0  0  0  0  0  0  0  0
   54.2044    1.6372   18.3112 H   0  0  0  0  0  0  0  0  0  0  0  0
   52.7973    8.6748   14.5236 H   0  0  0  0  0  0  0  0  0  0  0  0
   50.2257    0.6191   17.0636 H   0  0  0  0  0  0  0  0  0  0  0  0
   52.5518   -0.0541   17.6023 H   0  0  0  0  0  0  0  0  0  0  0  0
   52.6019    4.7761   20.2141 H   0  0  0  0  0  0  0  0  0  0  0  0
   51.1760    6.7329   20.3764 H   0  0  0  0  0  0  0  0  0  0  0  0
   48.6533    5.7812   17.5539 H   0  0  0  0  0  0  0  0  0  0  0  0
   51.9397    3.9540   16.4555 H   0  0  0  0  0  0  0  0  0  0  0  0
  2  3  1  0
  3  4  2  0
  4  1  1  0
  5  2  2  0
  6  1  2  0
  7  1  1  0
  8  2  1  0
 10  9  1  0
 11  9  1  0
 12  9  2  3
 13 21  1  0
 14 10  2  0
 15 10  1  0
 16 11  2  0
 17 12  1  0
 18 12  1  0
 19 16  1  0
 20 15  1  0
 21 18  1  0
 22 17  1  0
 23 11  1  0
 24 13  1  0
 25 14  1  0
 26 15  2  0
 27 16  1  0
 28 26  1  0
 29 23  2  0
 30 29  1  0
 22 13  1  0
 20 19  1  0
 27 30  2  0
 25 28  2  0
 32 33  1  0
 33 34  2  0
 34 31  1  0
 35 32  2  0
 36 31  2  0
 37 31  1  0
 38 32  1  0
  3 39  1  0
  4 40  1  0
  7 41  1  0
  8 42  1  0
 17 43  1  0
 17 44  1  0
 18 45  1  0
 18 46  1  0
 19 47  1  0
 19 48  1  0
 20 49  1  0
 20 50  1  0
 21 51  1  0
 21 52  1  0
 22 53  1  0
 22 54  1  0
 23 55  1  0
 24 56  1  0
 24 57  1  0
 24 58  1  0
 25 59  1  0
 26 60  1  0
 27 61  1  0
 28 62  1  0
 29 63  1  0
 30 64  1  0
 33 65  1  0
 34 66  1  0
 37 67  1  0
 38 68  1  0
M  END
> <Uni-Dock RESULT> 
ENERGY=   -4.854  LOWER_BOUND=    4.770  UPPER_BOUND=    6.929
INTER + INTRA:          -4.854
INTER:                  -4.854
INTRA:                   0.000
UNBOUND:                 0.000

$$$$
