
     RDKit          3D

 68 69  0  0  0  0  0  0  0  0999 V2000
   48.0512    8.2403   19.4035 C   0  0  0  0  0  0  0  0  0  0  0  0
   48.5639    5.6535   20.9687 C   0  0  0  0  0  0  0  0  0  0  0  0
   48.2452    5.7512   19.5415 C   0  0  0  0  0  0  0  0  0  0  0  0
   48.0595    6.8834   18.8494 C   0  0  0  0  0  0  0  0  0  0  0  0
   48.1709    4.7680   21.7056 O   0  0  0  0  0  0  0  0  0  0  0  0
   48.4881    9.2231   18.8341 O   0  0  0  0  0  0  0  0  0  0  0  0
   47.3889    8.3239   20.5666 O   0  0  0  0  0  0  0  0  0  0  0  0
   49.4499    6.5761   21.3712 O   0  0  0  0  0  0  0  0  0  0  0  0
   47.9097    6.3320   20.1545 C   0  0  0  0  0  0  0  0  0  0  0  0
   48.0655    5.2845   19.1077 C   0  0  0  0  0  0  0  0  0  0  0  0
   48.1760    5.9833   21.5711 C   0  0  0  0  0  0  0  0  0  0  0  0
   47.6415    7.6245   19.8167 C   0  0  0  0  0  0  0  0  0  0  0  0
   47.1527   10.5156   19.0200 N   0  0  0  0  0  0  0  0  0  0  0  0
   46.9953    5.1514   18.2760 N   0  0  0  0  0  0  0  0  0  0  0  0
   49.2074    4.4760   19.0101 C   0  0  0  0  0  0  0  0  0  0  0  0
   49.4937    5.6812   21.9550 C   0  0  0  0  0  0  0  0  0  0  0  0
   47.4792    8.1050   18.3768 C   0  0  0  0  0  0  0  0  0  0  0  0
   47.5314    8.7692   20.8183 C   0  0  0  0  0  0  0  0  0  0  0  0
   50.5857    5.6778   20.9143 C   0  0  0  0  0  0  0  0  0  0  0  0
   50.4210    4.5229   19.9175 C   0  0  0  0  0  0  0  0  0  0  0  0
   46.6719    9.9266   20.2808 C   0  0  0  0  0  0  0  0  0  0  0  0
   47.9401    9.5635   18.2166 C   0  0  0  0  0  0  0  0  0  0  0  0
   47.1392    5.8965   22.5081 C   0  0  0  0  0  0  0  0  0  0  0  0
   47.9040   11.7475   19.2428 C   0  0  0  0  0  0  0  0  0  0  0  0
   47.0505    4.2056   17.3181 C   0  0  0  0  0  0  0  0  0  0  0  0
   49.2131    3.5027   17.9947 C   0  0  0  0  0  0  0  0  0  0  0  0
   49.7628    5.3430   23.2876 C   0  0  0  0  0  0  0  0  0  0  0  0
   48.1286    3.3649   17.1371 C   0  0  0  0  0  0  0  0  0  0  0  0
   47.4166    5.5568   23.8318 C   0  0  0  0  0  0  0  0  0  0  0  0
   48.7275    5.2877   24.2219 C   0  0  0  0  0  0  0  0  0  0  0  0
   48.0557    8.2497   19.9621 C   0  0  0  0  0  0  0  0  0  0  0  0
   48.9692    5.4722   20.6380 C   0  0  0  0  0  0  0  0  0  0  0  0
   48.4566    5.8822   19.3289 C   0  0  0  0  0  0  0  0  0  0  0  0
   48.0079    7.1102   19.0361 C   0  0  0  0  0  0  0  0  0  0  0  0
   50.0040    4.8605   20.8218 O   0  0  0  0  0  0  0  0  0  0  0  0
   48.7662    8.3990   20.9356 O   0  0  0  0  0  0  0  0  0  0  0  0
   47.1924    9.1948   19.5560 O   0  0  0  0  0  0  0  0  0  0  0  0
   48.0974    5.7394   21.6207 O   0  0  0  0  0  0  0  0  0  0  0  0
   48.1601    4.7917   19.0440 H   0  0  0  0  0  0  0  0  0  0  0  0
   47.8994    6.8442   17.7780 H   0  0  0  0  0  0  0  0  0  0  0  0
   47.4399    9.2743   20.7970 H   0  0  0  0  0  0  0  0  0  0  0  0
   49.5857    6.3718   22.3193 H   0  0  0  0  0  0  0  0  0  0  0  0
   46.4257    8.0168   18.0822 H   0  0  0  0  0  0  0  0  0  0  0  0
   48.0730    7.5010   17.6823 H   0  0  0  0  0  0  0  0  0  0  0  0
   47.0819    8.4438   21.7603 H   0  0  0  0  0  0  0  0  0  0  0  0
   48.5389    9.1401   21.0458 H   0  0  0  0  0  0  0  0  0  0  0  0
   50.6160    6.6449   20.3969 H   0  0  0  0  0  0  0  0  0  0  0  0
   51.5605    5.5761   21.4084 H   0  0  0  0  0  0  0  0  0  0  0  0
   50.4471    3.5763   20.4750 H   0  0  0  0  0  0  0  0  0  0  0  0
   51.3100    4.5350   19.2725 H   0  0  0  0  0  0  0  0  0  0  0  0
   46.5613   10.6928   21.0589 H   0  0  0  0  0  0  0  0  0  0  0  0
   45.6559    9.5499   20.1007 H   0  0  0  0  0  0  0  0  0  0  0  0
   47.8601    9.8490   17.1611 H   0  0  0  0  0  0  0  0  0  0  0  0
   49.0055    9.6168   18.4821 H   0  0  0  0  0  0  0  0  0  0  0  0
   46.1131    6.0933   22.2056 H   0  0  0  0  0  0  0  0  0  0  0  0
   48.2295   12.1795   18.2904 H   0  0  0  0  0  0  0  0  0  0  0  0
   48.7884   11.5840   19.8684 H   0  0  0  0  0  0  0  0  0  0  0  0
   47.2726   12.4996   19.7284 H   0  0  0  0  0  0  0  0  0  0  0  0
   46.1730    4.1401   16.6822 H   0  0  0  0  0  0  0  0  0  0  0  0
   50.0679    2.8402   17.8762 H   0  0  0  0  0  0  0  0  0  0  0  0
   50.7759    5.1076   23.6045 H   0  0  0  0  0  0  0  0  0  0  0  0
   48.1236    2.6161   16.3537 H   0  0  0  0  0  0  0  0  0  0  0  0
   46.6093    5.4972   24.5567 H   0  0  0  0  0  0  0  0  0  0  0  0
   48.9414    5.0204   25.2535 H   0  0  0  0  0  0  0  0  0  0  0  0
   48.4791    5.1066   18.5730 H   0  0  0  0  0  0  0  0  0  0  0  0
   47.6155    7.3230   18.0483 H   0  0  0  0  0  0  0  0  0  0  0  0
   47.2962    9.9049   20.2235 H   0  0  0  0  0  0  0  0  0  0  0  0
   48.5626    5.4587   22.4350 H   0  0  0  0  0  0  0  0  0  0  0  0
  2  3  1  0
  3  4  2  0
  4  1  1  0
  5  2  2  0
  6  1  2  0
  7  1  1  0
  8  2  1  0
 10  9  1  0
 11  9  1  0
 12  9  2  3
 13 21  1  0
 14 10  2  0
 15 10  1  0
 16 11  2  0
 17 12  1  0
 18 12  1  0
 19 16  1  0
 20 15  1  0
 21 18  1  0
 22 17  1  0
 23 11  1  0
 24 13  1  0
 25 14  1  0
 26 15  2  0
 27 16  1  0
 28 26  1  0
 29 23  2  0
 30 29  1  0
 22 13  1  0
 20 19  1  0
 27 30  2  0
 25 28  2  0
 32 33  1  0
 33 34  2  0
 34 31  1  0
 35 32  2  0
 36 31  2  0
 37 31  1  0
 38 32  1  0
  3 39  1  0
  4 40  1  0
  7 41  1  0
  8 42  1  0
 17 43  1  0
 17 44  1  0
 18 45  1  0
 18 46  1  0
 19 47  1  0
 19 48  1  0
 20 49  1  0
 20 50  1  0
 21 51  1  0
 21 52  1  0
 22 53  1  0
 22 54  1  0
 23 55  1  0
 24 56  1  0
 24 57  1  0
 24 58  1  0
 25 59  1  0
 26 60  1  0
 27 61  1  0
 28 62  1  0
 29 63  1  0
 30 64  1  0
 33 65  1  0
 34 66  1  0
 37 67  1  0
 38 68  1  0
M  END
> <Uni-Dock RESULT> 
ENERGY=   -5.813  LOWER_BOUND=    0.000  UPPER_BOUND=    0.000
INTER + INTRA:          -5.813
INTER:                  -5.813
INTRA:                   0.000
UNBOUND:                 0.000

$$$$

     RDKit          3D

 68 69  0  0  0  0  0  0  0  0999 V2000
   47.1052    5.6829   13.3665 C   0  0  0  0  0  0  0  0  0  0  0  0
   48.5670    8.3776   13.2882 C   0  0  0  0  0  0  0  0  0  0  0  0
   48.6915    7.3570   14.3327 C   0  0  0  0  0  0  0  0  0  0  0  0
   48.0827    6.1634   14.3472 C   0  0  0  0  0  0  0  0  0  0  0  0
   48.5832    9.5779   13.4894 O   0  0  0  0  0  0  0  0  0  0  0  0
   47.0145    4.5300   12.9875 O   0  0  0  0  0  0  0  0  0  0  0  0
   46.2175    6.6235   13.0121 O   0  0  0  0  0  0  0  0  0  0  0  0
   48.5612    7.8615   12.0506 O   0  0  0  0  0  0  0  0  0  0  0  0
   47.9142    7.5003   13.8844 C   0  0  0  0  0  0  0  0  0  0  0  0
   48.9630    7.3891   14.9357 C   0  0  0  0  0  0  0  0  0  0  0  0
   47.9031    8.6888   12.9976 C   0  0  0  0  0  0  0  0  0  0  0  0
   47.0438    6.4777   13.6534 C   0  0  0  0  0  0  0  0  0  0  0  0
   45.1922    4.1348   13.0929 N   0  0  0  0  0  0  0  0  0  0  0  0
   48.4877    7.1242   16.1841 N   0  0  0  0  0  0  0  0  0  0  0  0
   50.3266    7.5783   14.6672 C   0  0  0  0  0  0  0  0  0  0  0  0
   48.9545    8.8555   12.0801 C   0  0  0  0  0  0  0  0  0  0  0  0
   47.0611    5.1623   14.4280 C   0  0  0  0  0  0  0  0  0  0  0  0
   45.9846    6.4824   12.5562 C   0  0  0  0  0  0  0  0  0  0  0  0
   50.0795    7.8509   12.0529 C   0  0  0  0  0  0  0  0  0  0  0  0
   50.9381    7.9205   13.3228 C   0  0  0  0  0  0  0  0  0  0  0  0
   44.8117    5.5413   12.8815 C   0  0  0  0  0  0  0  0  0  0  0  0
   46.5845    3.9901   13.5540 C   0  0  0  0  0  0  0  0  0  0  0  0
   46.9035    9.6641   13.0978 C   0  0  0  0  0  0  0  0  0  0  0  0
   44.9545    3.3191   11.9056 C   0  0  0  0  0  0  0  0  0  0  0  0
   49.3746    7.0345   17.1944 C   0  0  0  0  0  0  0  0  0  0  0  0
   51.2098    7.4765   15.7572 C   0  0  0  0  0  0  0  0  0  0  0  0
   48.9640    9.9758   11.2391 C   0  0  0  0  0  0  0  0  0  0  0  0
   50.7342    7.1993   17.0330 C   0  0  0  0  0  0  0  0  0  0  0  0
   46.9228   10.7771   12.2577 C   0  0  0  0  0  0  0  0  0  0  0  0
   47.9477   10.9284   11.3252 C   0  0  0  0  0  0  0  0  0  0  0  0
   46.9383    6.0794   13.0100 C   0  0  0  0  0  0  0  0  0  0  0  0
   49.0753    8.1620   13.3283 C   0  0  0  0  0  0  0  0  0  0  0  0
   48.8342    7.0688   14.2723 C   0  0  0  0  0  0  0  0  0  0  0  0
   47.8541    6.1628   14.1557 C   0  0  0  0  0  0  0  0  0  0  0  0
   50.1587    8.4516   12.8579 O   0  0  0  0  0  0  0  0  0  0  0  0
   47.0933    6.5200   11.8891 O   0  0  0  0  0  0  0  0  0  0  0  0
   45.8501    5.3723   13.3556 O   0  0  0  0  0  0  0  0  0  0  0  0
   47.9750    8.9016   13.1304 O   0  0  0  0  0  0  0  0  0  0  0  0
   49.3459    7.6416   15.1488 H   0  0  0  0  0  0  0  0  0  0  0  0
   48.3024    5.4520   15.1351 H   0  0  0  0  0  0  0  0  0  0  0  0
   45.6218    6.1596   12.3884 H   0  0  0  0  0  0  0  0  0  0  0  0
   48.5047    8.6479   11.4696 H   0  0  0  0  0  0  0  0  0  0  0  0
   46.4132    5.2525   15.3091 H   0  0  0  0  0  0  0  0  0  0  0  0
   48.0693    4.9150   14.7773 H   0  0  0  0  0  0  0  0  0  0  0  0
   45.5646    7.4797   12.4003 H   0  0  0  0  0  0  0  0  0  0  0  0
   46.4497    6.1704   11.6123 H   0  0  0  0  0  0  0  0  0  0  0  0
   49.6790    6.8408   11.9017 H   0  0  0  0  0  0  0  0  0  0  0  0
   50.7229    8.0469   11.1856 H   0  0  0  0  0  0  0  0  0  0  0  0
   51.3567    8.9332   13.4042 H   0  0  0  0  0  0  0  0  0  0  0  0
   51.7855    7.2392   13.1672 H   0  0  0  0  0  0  0  0  0  0  0  0
   44.0434    5.6308   12.1027 H   0  0  0  0  0  0  0  0  0  0  0  0
   44.3298    5.8932   13.8037 H   0  0  0  0  0  0  0  0  0  0  0  0
   46.6659    3.0602   14.1291 H   0  0  0  0  0  0  0  0  0  0  0  0
   47.2707    3.8988   12.7001 H   0  0  0  0  0  0  0  0  0  0  0  0
   46.1088    9.5568   13.8324 H   0  0  0  0  0  0  0  0  0  0  0  0
   45.2214    2.2737   12.0949 H   0  0  0  0  0  0  0  0  0  0  0  0
   45.5283    3.6712   11.0413 H   0  0  0  0  0  0  0  0  0  0  0  0
   43.8916    3.3278   11.6404 H   0  0  0  0  0  0  0  0  0  0  0  0
   48.9453    6.8223   18.1686 H   0  0  0  0  0  0  0  0  0  0  0  0
   52.2781    7.6226   15.6117 H   0  0  0  0  0  0  0  0  0  0  0  0
   49.7678   10.1217   10.5216 H   0  0  0  0  0  0  0  0  0  0  0  0
   51.4074    7.1217   17.8787 H   0  0  0  0  0  0  0  0  0  0  0  0
   46.1411   11.5280   12.3349 H   0  0  0  0  0  0  0  0  0  0  0  0
   47.9624   11.7979   10.6731 H   0  0  0  0  0  0  0  0  0  0  0  0
   49.5357    7.0220   15.0964 H   0  0  0  0  0  0  0  0  0  0  0  0
   47.7254    5.4020   14.9171 H   0  0  0  0  0  0  0  0  0  0  0  0
   45.3081    5.3684   12.5391 H   0  0  0  0  0  0  0  0  0  0  0  0
   48.2495    9.5643   12.4642 H   0  0  0  0  0  0  0  0  0  0  0  0
  2  3  1  0
  3  4  2  0
  4  1  1  0
  5  2  2  0
  6  1  2  0
  7  1  1  0
  8  2  1  0
 10  9  1  0
 11  9  1  0
 12  9  2  3
 13 21  1  0
 14 10  2  0
 15 10  1  0
 16 11  2  0
 17 12  1  0
 18 12  1  0
 19 16  1  0
 20 15  1  0
 21 18  1  0
 22 17  1  0
 23 11  1  0
 24 13  1  0
 25 14  1  0
 26 15  2  0
 27 16  1  0
 28 26  1  0
 29 23  2  0
 30 29  1  0
 22 13  1  0
 20 19  1  0
 27 30  2  0
 25 28  2  0
 32 33  1  0
 33 34  2  0
 34 31  1  0
 35 32  2  0
 36 31  2  0
 37 31  1  0
 38 32  1  0
  3 39  1  0
  4 40  1  0
  7 41  1  0
  8 42  1  0
 17 43  1  0
 17 44  1  0
 18 45  1  0
 18 46  1  0
 19 47  1  0
 19 48  1  0
 20 49  1  0
 20 50  1  0
 21 51  1  0
 21 52  1  0
 22 53  1  0
 22 54  1  0
 23 55  1  0
 24 56  1  0
 24 57  1  0
 24 58  1  0
 25 59  1  0
 26 60  1  0
 27 61  1  0
 28 62  1  0
 29 63  1  0
 30 64  1  0
 33 65  1  0
 34 66  1  0
 37 67  1  0
 38 68  1  0
M  END
> <Uni-Dock RESULT> 
ENERGY=   -5.227  LOWER_BOUND=    5.382  UPPER_BOUND=    8.169
INTER + INTRA:          -5.227
INTER:                  -5.227
INTRA:                   0.000
UNBOUND:                 0.000

$$$$

     RDKit          3D

 68 69  0  0  0  0  0  0  0  0999 V2000
   52.7645    1.8968   18.1189 C   0  0  0  0  0  0  0  0  0  0  0  0
   51.6313    4.7392   18.3213 C   0  0  0  0  0  0  0  0  0  0  0  0
   50.8852    3.5367   17.9400 C   0  0  0  0  0  0  0  0  0  0  0  0
   51.3710    2.2889   17.8893 C   0  0  0  0  0  0  0  0  0  0  0  0
   51.4542    5.8436   17.8411 O   0  0  0  0  0  0  0  0  0  0  0  0
   53.1125    0.8674   18.6668 O   0  0  0  0  0  0  0  0  0  0  0  0
   53.6420    2.7325   17.5445 O   0  0  0  0  0  0  0  0  0  0  0  0
   52.4563    4.5361   19.3587 O   0  0  0  0  0  0  0  0  0  0  0  0
   51.7626    3.6497   17.7323 C   0  0  0  0  0  0  0  0  0  0  0  0
   50.2857    3.4705   17.6670 C   0  0  0  0  0  0  0  0  0  0  0  0
   52.3153    4.9948   18.0230 C   0  0  0  0  0  0  0  0  0  0  0  0
   52.6018    2.5798   17.6447 C   0  0  0  0  0  0  0  0  0  0  0  0
   54.4368    0.1597   17.5561 N   0  0  0  0  0  0  0  0  0  0  0  0
   49.8405    2.8431   16.5433 N   0  0  0  0  0  0  0  0  0  0  0  0
   49.4213    3.9428   18.6655 C   0  0  0  0  0  0  0  0  0  0  0  0
   52.1108    5.5464   19.2993 C   0  0  0  0  0  0  0  0  0  0  0  0
   52.1212    1.1408   17.4752 C   0  0  0  0  0  0  0  0  0  0  0  0
   54.1195    2.6661   17.7672 C   0  0  0  0  0  0  0  0  0  0  0  0
   51.3037    4.7791   20.3169 C   0  0  0  0  0  0  0  0  0  0  0  0
   49.8236    4.6897   19.9219 C   0  0  0  0  0  0  0  0  0  0  0  0
   54.8235    1.4924   17.0642 C   0  0  0  0  0  0  0  0  0  0  0  0
   53.0848    0.1450   18.1425 C   0  0  0  0  0  0  0  0  0  0  0  0
   52.9805    5.7378   17.0403 C   0  0  0  0  0  0  0  0  0  0  0  0
   55.4133   -0.3809   18.4972 C   0  0  0  0  0  0  0  0  0  0  0  0
   48.5125    2.6672   16.3993 C   0  0  0  0  0  0  0  0  0  0  0  0
   48.0445    3.7359   18.4652 C   0  0  0  0  0  0  0  0  0  0  0  0
   52.6199    6.8188   19.5896 C   0  0  0  0  0  0  0  0  0  0  0  0
   47.5820    3.0902   17.3251 C   0  0  0  0  0  0  0  0  0  0  0  0
   53.4818    7.0046   17.3382 C   0  0  0  0  0  0  0  0  0  0  0  0
   53.3077    7.5406   18.6130 C   0  0  0  0  0  0  0  0  0  0  0  0
   53.1121    2.3326   18.1567 C   0  0  0  0  0  0  0  0  0  0  0  0
   51.2257    4.6084   18.6747 C   0  0  0  0  0  0  0  0  0  0  0  0
   50.8245    3.2988   18.1565 C   0  0  0  0  0  0  0  0  0  0  0  0
   51.6691    2.2952   17.8835 C   0  0  0  0  0  0  0  0  0  0  0  0
   50.7025    5.1775   19.6134 O   0  0  0  0  0  0  0  0  0  0  0  0
   53.7123    3.0447   18.9361 O   0  0  0  0  0  0  0  0  0  0  0  0
   53.7320    1.3924   17.4252 O   0  0  0  0  0  0  0  0  0  0  0  0
   52.1682    5.1792   17.9113 O   0  0  0  0  0  0  0  0  0  0  0  0
   49.8494    3.7260   17.6819 H   0  0  0  0  0  0  0  0  0  0  0  0
   50.7112    1.4587   17.6641 H   0  0  0  0  0  0  0  0  0  0  0  0
   54.5130    2.3360   17.7524 H   0  0  0  0  0  0  0  0  0  0  0  0
   52.8554    5.4165   19.5159 H   0  0  0  0  0  0  0  0  0  0  0  0
   52.0361    0.9110   16.4055 H   0  0  0  0  0  0  0  0  0  0  0  0
   51.1361    0.9901   17.9298 H   0  0  0  0  0  0  0  0  0  0  0  0
   54.5115    3.5874   17.3280 H   0  0  0  0  0  0  0  0  0  0  0  0
   54.3903    2.6677   18.8307 H   0  0  0  0  0  0  0  0  0  0  0  0
   51.7343    3.7808   20.4641 H   0  0  0  0  0  0  0  0  0  0  0  0
   51.3752    5.2787   21.2915 H   0  0  0  0  0  0  0  0  0  0  0  0
   49.4247    5.7099   19.8357 H   0  0  0  0  0  0  0  0  0  0  0  0
   49.3015    4.2157   20.7641 H   0  0  0  0  0  0  0  0  0  0  0  0
   55.9108    1.6334   17.1160 H   0  0  0  0  0  0  0  0  0  0  0  0
   54.5784    1.5313   15.9941 H   0  0  0  0  0  0  0  0  0  0  0  0
   52.6746   -0.8671   18.0465 H   0  0  0  0  0  0  0  0  0  0  0  0
   53.1232    0.3737   19.2169 H   0  0  0  0  0  0  0  0  0  0  0  0
   53.1077    5.3290   16.0405 H   0  0  0  0  0  0  0  0  0  0  0  0
   55.1170   -1.3817   18.8296 H   0  0  0  0  0  0  0  0  0  0  0  0
   55.5312    0.2559   19.3809 H   0  0  0  0  0  0  0  0  0  0  0  0
   56.3917   -0.4876   18.0162 H   0  0  0  0  0  0  0  0  0  0  0  0
   48.2094    2.1625   15.4872 H   0  0  0  0  0  0  0  0  0  0  0  0
   47.3251    4.0886   19.2012 H   0  0  0  0  0  0  0  0  0  0  0  0
   52.4736    7.2620   20.5716 H   0  0  0  0  0  0  0  0  0  0  0  0
   46.5229    2.9288   17.1616 H   0  0  0  0  0  0  0  0  0  0  0  0
   54.0031    7.5747   16.5739 H   0  0  0  0  0  0  0  0  0  0  0  0
   53.6968    8.5293   18.8425 H   0  0  0  0  0  0  0  0  0  0  0  0
   49.7571    3.1769   18.0176 H   0  0  0  0  0  0  0  0  0  0  0  0
   51.2921    1.3659   17.4722 H   0  0  0  0  0  0  0  0  0  0  0  0
   54.6750    1.4906   17.6736 H   0  0  0  0  0  0  0  0  0  0  0  0
   52.3753    6.0166   18.3742 H   0  0  0  0  0  0  0  0  0  0  0  0
  2  3  1  0
  3  4  2  0
  4  1  1  0
  5  2  2  0
  6  1  2  0
  7  1  1  0
  8  2  1  0
 10  9  1  0
 11  9  1  0
 12  9  2  3
 13 21  1  0
 14 10  2  0
 15 10  1  0
 16 11  2  0
 17 12  1  0
 18 12  1  0
 19 16  1  0
 20 15  1  0
 21 18  1  0
 22 17  1  0
 23 11  1  0
 24 13  1  0
 25 14  1  0
 26 15  2  0
 27 16  1  0
 28 26  1  0
 29 23  2  0
 30 29  1  0
 22 13  1  0
 20 19  1  0
 27 30  2  0
 25 28  2  0
 32 33  1  0
 33 34  2  0
 34 31  1  0
 35 32  2  0
 36 31  2  0
 37 31  1  0
 38 32  1  0
  3 39  1  0
  4 40  1  0
  7 41  1  0
  8 42  1  0
 17 43  1  0
 17 44  1  0
 18 45  1  0
 18 46  1  0
 19 47  1  0
 19 48  1  0
 20 49  1  0
 20 50  1  0
 21 51  1  0
 21 52  1  0
 22 53  1  0
 22 54  1  0
 23 55  1  0
 24 56  1  0
 24 57  1  0
 24 58  1  0
 25 59  1  0
 26 60  1  0
 27 61  1  0
 28 62  1  0
 29 63  1  0
 30 64  1  0
 33 65  1  0
 34 66  1  0
 37 67  1  0
 38 68  1  0
M  END
> <Uni-Dock RESULT> 
ENERGY=   -5.145  LOWER_BOUND=    3.818  UPPER_BOUND=    6.973
INTER + INTRA:          -5.145
INTER:                  -5.145
INTRA:                   0.000
UNBOUND:                 0.000

$$$$

     RDKit          3D

 68 69  0  0  0  0  0  0  0  0999 V2000
   51.6079    4.7554   19.1801 C   0  0  0  0  0  0  0  0  0  0  0  0
   48.7073    5.0681   18.2354 C   0  0  0  0  0  0  0  0  0  0  0  0
   49.1987    5.2768   19.6003 C   0  0  0  0  0  0  0  0  0  0  0  0
   50.4724    5.1781   20.0048 C   0  0  0  0  0  0  0  0  0  0  0  0
   47.6275    4.5801   17.9568 O   0  0  0  0  0  0  0  0  0  0  0  0
   52.7342    5.2078   19.2691 O   0  0  0  0  0  0  0  0  0  0  0  0
   51.3173    3.7126   18.3887 O   0  0  0  0  0  0  0  0  0  0  0  0
   49.5164    5.5905   17.3024 O   0  0  0  0  0  0  0  0  0  0  0  0
   49.5592    4.6549   19.0445 C   0  0  0  0  0  0  0  0  0  0  0  0
   48.8696    5.3426   20.1710 C   0  0  0  0  0  0  0  0  0  0  0  0
   48.8282    4.4415   17.7720 C   0  0  0  0  0  0  0  0  0  0  0  0
   50.8791    4.3267   19.1278 C   0  0  0  0  0  0  0  0  0  0  0  0
   53.8488    3.7096   19.3067 N   0  0  0  0  0  0  0  0  0  0  0  0
   48.9303    4.6818   21.3602 N   0  0  0  0  0  0  0  0  0  0  0  0
   48.1824    6.5547   20.0107 C   0  0  0  0  0  0  0  0  0  0  0  0
   48.4939    5.5606   16.9904 C   0  0  0  0  0  0  0  0  0  0  0  0
   51.7480    4.6233   20.3475 C   0  0  0  0  0  0  0  0  0  0  0  0
   51.6769    3.6820   17.9993 C   0  0  0  0  0  0  0  0  0  0  0  0
   48.8472    6.9413   17.4851 C   0  0  0  0  0  0  0  0  0  0  0  0
   48.0244    7.3335   18.7195 C   0  0  0  0  0  0  0  0  0  0  0  0
   52.8961    2.9042   18.5248 C   0  0  0  0  0  0  0  0  0  0  0  0
   53.2113    4.8743   19.9463 C   0  0  0  0  0  0  0  0  0  0  0  0
   48.4217    3.1634   17.3700 C   0  0  0  0  0  0  0  0  0  0  0  0
   54.9989    4.1244   18.5088 C   0  0  0  0  0  0  0  0  0  0  0  0
   48.3072    5.2289   22.4221 C   0  0  0  0  0  0  0  0  0  0  0  0
   47.5470    7.0814   21.1497 C   0  0  0  0  0  0  0  0  0  0  0  0
   47.7975    5.3786   15.7886 C   0  0  0  0  0  0  0  0  0  0  0  0
   47.6101    6.4176   22.3687 C   0  0  0  0  0  0  0  0  0  0  0  0
   47.7268    2.9925   16.1731 C   0  0  0  0  0  0  0  0  0  0  0  0
   47.4218    4.0979   15.3806 C   0  0  0  0  0  0  0  0  0  0  0  0
   51.4551    4.5558   18.6812 C   0  0  0  0  0  0  0  0  0  0  0  0
   48.6502    5.5888   18.4146 C   0  0  0  0  0  0  0  0  0  0  0  0
   49.3963    5.5274   19.6732 C   0  0  0  0  0  0  0  0  0  0  0  0
   50.6324    5.0273   19.8033 C   0  0  0  0  0  0  0  0  0  0  0  0
   48.0639    6.5694   17.9981 O   0  0  0  0  0  0  0  0  0  0  0  0
   51.3508    4.8323   17.5033 O   0  0  0  0  0  0  0  0  0  0  0  0
   52.4330    3.7605   19.1445 O   0  0  0  0  0  0  0  0  0  0  0  0
   48.5768    4.3899   17.8195 O   0  0  0  0  0  0  0  0  0  0  0  0
   48.4219    5.5305   20.3127 H   0  0  0  0  0  0  0  0  0  0  0  0
   50.7378    5.4253   21.0264 H   0  0  0  0  0  0  0  0  0  0  0  0
   52.1613    3.5259   17.9285 H   0  0  0  0  0  0  0  0  0  0  0  0
   49.0528    5.4041   16.4601 H   0  0  0  0  0  0  0  0  0  0  0  0
   51.6966    3.7762   21.0432 H   0  0  0  0  0  0  0  0  0  0  0  0
   51.4019    5.5157   20.8799 H   0  0  0  0  0  0  0  0  0  0  0  0
   51.0701    2.9792   17.4219 H   0  0  0  0  0  0  0  0  0  0  0  0
   52.0157    4.4665   17.3107 H   0  0  0  0  0  0  0  0  0  0  0  0
   49.9230    7.0037   17.6912 H   0  0  0  0  0  0  0  0  0  0  0  0
   48.6553    7.6738   16.6906 H   0  0  0  0  0  0  0  0  0  0  0  0
   46.9594    7.3050   18.4506 H   0  0  0  0  0  0  0  0  0  0  0  0
   48.2676    8.3818   18.9393 H   0  0  0  0  0  0  0  0  0  0  0  0
   53.3970    2.3998   17.6885 H   0  0  0  0  0  0  0  0  0  0  0  0
   52.5376    2.0957   19.1761 H   0  0  0  0  0  0  0  0  0  0  0  0
   53.7864    5.1380   20.8417 H   0  0  0  0  0  0  0  0  0  0  0  0
   53.2384    5.7484   19.2803 H   0  0  0  0  0  0  0  0  0  0  0  0
   48.6463    2.2993   17.9912 H   0  0  0  0  0  0  0  0  0  0  0  0
   55.7044    4.7001   19.1175 H   0  0  0  0  0  0  0  0  0  0  0  0
   54.7054    4.7361   17.6486 H   0  0  0  0  0  0  0  0  0  0  0  0
   55.5453    3.2497   18.1394 H   0  0  0  0  0  0  0  0  0  0  0  0
   48.3853    4.6635   23.3455 H   0  0  0  0  0  0  0  0  0  0  0  0
   46.9910    8.0143   21.0842 H   0  0  0  0  0  0  0  0  0  0  0  0
   47.5312    6.2316   15.1693 H   0  0  0  0  0  0  0  0  0  0  0  0
   47.1215    6.8150   23.2506 H   0  0  0  0  0  0  0  0  0  0  0  0
   47.4192    1.9977   15.8622 H   0  0  0  0  0  0  0  0  0  0  0  0
   46.8778    3.9629   14.4493 H   0  0  0  0  0  0  0  0  0  0  0  0
   48.8754    5.9444   20.5266 H   0  0  0  0  0  0  0  0  0  0  0  0
   51.1027    4.9910   20.7793 H   0  0  0  0  0  0  0  0  0  0  0  0
   52.9231    3.5019   18.3362 H   0  0  0  0  0  0  0  0  0  0  0  0
   48.0955    4.5666   16.9855 H   0  0  0  0  0  0  0  0  0  0  0  0
  2  3  1  0
  3  4  2  0
  4  1  1  0
  5  2  2  0
  6  1  2  0
  7  1  1  0
  8  2  1  0
 10  9  1  0
 11  9  1  0
 12  9  2  3
 13 21  1  0
 14 10  2  0
 15 10  1  0
 16 11  2  0
 17 12  1  0
 18 12  1  0
 19 16  1  0
 20 15  1  0
 21 18  1  0
 22 17  1  0
 23 11  1  0
 24 13  1  0
 25 14  1  0
 26 15  2  0
 27 16  1  0
 28 26  1  0
 29 23  2  0
 30 29  1  0
 22 13  1  0
 20 19  1  0
 27 30  2  0
 25 28  2  0
 32 33  1  0
 33 34  2  0
 34 31  1  0
 35 32  2  0
 36 31  2  0
 37 31  1  0
 38 32  1  0
  3 39  1  0
  4 40  1  0
  7 41  1  0
  8 42  1  0
 17 43  1  0
 17 44  1  0
 18 45  1  0
 18 46  1  0
 19 47  1  0
 19 48  1  0
 20 49  1  0
 20 50  1  0
 21 51  1  0
 21 52  1  0
 22 53  1  0
 22 54  1  0
 23 55  1  0
 24 56  1  0
 24 57  1  0
 24 58  1  0
 25 59  1  0
 26 60  1  0
 27 61  1  0
 28 62  1  0
 29 63  1  0
 30 64  1  0
 33 65  1  0
 34 66  1  0
 37 67  1  0
 38 68  1  0
M  END
> <Uni-Dock RESULT> 
ENERGY=   -4.845  LOWER_BOUND=    2.476  UPPER_BOUND=    5.627
INTER + INTRA:          -4.845
INTER:                  -4.845
INTRA:                   0.000
UNBOUND:                 0.000

$$$$

     RDKit          3D

 68 69  0  0  0  0  0  0  0  0999 V2000
   48.4728    9.7535   15.5169 C   0  0  0  0  0  0  0  0  0  0  0  0
   48.1086    9.7177   12.4722 C   0  0  0  0  0  0  0  0  0  0  0  0
   47.6429    8.6923   13.4102 C   0  0  0  0  0  0  0  0  0  0  0  0
   47.7678    8.7269   14.7439 C   0  0  0  0  0  0  0  0  0  0  0  0
   48.5423    9.4892   11.3580 O   0  0  0  0  0  0  0  0  0  0  0  0
   48.1211   10.1613   16.6083 O   0  0  0  0  0  0  0  0  0  0  0  0
   49.6357   10.1192   14.9582 O   0  0  0  0  0  0  0  0  0  0  0  0
   47.8912   10.9659   12.9112 O   0  0  0  0  0  0  0  0  0  0  0  0
   48.4062    9.1656   13.5482 C   0  0  0  0  0  0  0  0  0  0  0  0
   47.4183    8.0792   13.3011 C   0  0  0  0  0  0  0  0  0  0  0  0
   48.8328   10.0255   12.4178 C   0  0  0  0  0  0  0  0  0  0  0  0
   48.8309    9.4513   14.8110 C   0  0  0  0  0  0  0  0  0  0  0  0
   49.6706   10.1319   17.6507 N   0  0  0  0  0  0  0  0  0  0  0  0
   47.7943    6.8554   13.7652 N   0  0  0  0  0  0  0  0  0  0  0  0
   46.2146    8.2930   12.6135 C   0  0  0  0  0  0  0  0  0  0  0  0
   47.8939   10.8996   11.8439 C   0  0  0  0  0  0  0  0  0  0  0  0
   48.3489    8.7062   16.0532 C   0  0  0  0  0  0  0  0  0  0  0  0
   49.7880   10.5864   15.1594 C   0  0  0  0  0  0  0  0  0  0  0  0
   46.4770   10.9078   12.3615 C   0  0  0  0  0  0  0  0  0  0  0  0
   45.7382    9.6060   12.0240 C   0  0  0  0  0  0  0  0  0  0  0  0
   50.5382   10.3256   16.4771 C   0  0  0  0  0  0  0  0  0  0  0  0
   48.3358    9.6232   17.2878 C   0  0  0  0  0  0  0  0  0  0  0  0
   50.1242    9.9403   11.8836 C   0  0  0  0  0  0  0  0  0  0  0  0
   49.5591   11.3450   18.4553 C   0  0  0  0  0  0  0  0  0  0  0  0
   46.9636    5.8154   13.5564 C   0  0  0  0  0  0  0  0  0  0  0  0
   45.3849    7.1738   12.4200 C   0  0  0  0  0  0  0  0  0  0  0  0
   48.2772   11.7145   10.7707 C   0  0  0  0  0  0  0  0  0  0  0  0
   45.7574    5.9229   12.8967 C   0  0  0  0  0  0  0  0  0  0  0  0
   50.4957   10.7540   10.8137 C   0  0  0  0  0  0  0  0  0  0  0  0
   49.5754   11.6446   10.2634 C   0  0  0  0  0  0  0  0  0  0  0  0
   48.7651   10.1069   15.1978 C   0  0  0  0  0  0  0  0  0  0  0  0
   47.5578    9.6637   12.4864 C   0  0  0  0  0  0  0  0  0  0  0  0
   47.4023    8.7539   13.6233 C   0  0  0  0  0  0  0  0  0  0  0  0
   47.9750    8.9267   14.8222 C   0  0  0  0  0  0  0  0  0  0  0  0
   46.6463   10.0873   11.8019 O   0  0  0  0  0  0  0  0  0  0  0  0
   48.7548   11.2112   14.6929 O   0  0  0  0  0  0  0  0  0  0  0  0
   49.5235    9.8175   16.2676 O   0  0  0  0  0  0  0  0  0  0  0  0
   48.8481    9.8853   12.1981 O   0  0  0  0  0  0  0  0  0  0  0  0
   47.1615    7.8465   12.9327 H   0  0  0  0  0  0  0  0  0  0  0  0
   47.3213    7.9476   15.3509 H   0  0  0  0  0  0  0  0  0  0  0  0
   50.0014   10.7746   15.5872 H   0  0  0  0  0  0  0  0  0  0  0  0
   48.2192   11.5308   12.1815 H   0  0  0  0  0  0  0  0  0  0  0  0
   49.0070    7.8477   16.2386 H   0  0  0  0  0  0  0  0  0  0  0  0
   47.3301    8.3256   15.9234 H   0  0  0  0  0  0  0  0  0  0  0  0
   50.5426   10.7353   14.3823 H   0  0  0  0  0  0  0  0  0  0  0  0
   49.2162   11.5192   15.2453 H   0  0  0  0  0  0  0  0  0  0  0  0
   46.4719   11.0962   13.4423 H   0  0  0  0  0  0  0  0  0  0  0  0
   45.9292   11.7463   11.9125 H   0  0  0  0  0  0  0  0  0  0  0  0
   45.7256    9.4866   10.9318 H   0  0  0  0  0  0  0  0  0  0  0  0
   44.6953    9.7455   12.3393 H   0  0  0  0  0  0  0  0  0  0  0  0
   51.2647   11.1300   16.6504 H   0  0  0  0  0  0  0  0  0  0  0  0
   51.1398    9.4141   16.3595 H   0  0  0  0  0  0  0  0  0  0  0  0
   47.9315    9.0664   18.1414 H   0  0  0  0  0  0  0  0  0  0  0  0
   47.6426   10.4530   17.0904 H   0  0  0  0  0  0  0  0  0  0  0  0
   50.8418    9.2380   12.3015 H   0  0  0  0  0  0  0  0  0  0  0  0
   48.9299   11.1695   19.3345 H   0  0  0  0  0  0  0  0  0  0  0  0
   49.1338   12.1795   17.8870 H   0  0  0  0  0  0  0  0  0  0  0  0
   50.5427   11.6489   18.8298 H   0  0  0  0  0  0  0  0  0  0  0  0
   47.3092    4.8626   13.9453 H   0  0  0  0  0  0  0  0  0  0  0  0
   44.4429    7.2766   11.8855 H   0  0  0  0  0  0  0  0  0  0  0  0
   47.5658   12.3985   10.3143 H   0  0  0  0  0  0  0  0  0  0  0  0
   45.1254    5.0549   12.7497 H   0  0  0  0  0  0  0  0  0  0  0  0
   51.5013   10.6889   10.4069 H   0  0  0  0  0  0  0  0  0  0  0  0
   49.8661   12.2761    9.4277 H   0  0  0  0  0  0  0  0  0  0  0  0
   46.7548    7.9058   13.4366 H   0  0  0  0  0  0  0  0  0  0  0  0
   47.8331    8.1877   15.6025 H   0  0  0  0  0  0  0  0  0  0  0  0
   50.0044   10.6533   16.4430 H   0  0  0  0  0  0  0  0  0  0  0  0
   48.8206   10.5260   11.4585 H   0  0  0  0  0  0  0  0  0  0  0  0
  2  3  1  0
  3  4  2  0
  4  1  1  0
  5  2  2  0
  6  1  2  0
  7  1  1  0
  8  2  1  0
 10  9  1  0
 11  9  1  0
 12  9  2  3
 13 21  1  0
 14 10  2  0
 15 10  1  0
 16 11  2  0
 17 12  1  0
 18 12  1  0
 19 16  1  0
 20 15  1  0
 21 18  1  0
 22 17  1  0
 23 11  1  0
 24 13  1  0
 25 14  1  0
 26 15  2  0
 27 16  1  0
 28 26  1  0
 29 23  2  0
 30 29  1  0
 22 13  1  0
 20 19  1  0
 27 30  2  0
 25 28  2  0
 32 33  1  0
 33 34  2  0
 34 31  1  0
 35 32  2  0
 36 31  2  0
 37 31  1  0
 38 32  1  0
  3 39  1  0
  4 40  1  0
  7 41  1  0
  8 42  1  0
 17 43  1  0
 17 44  1  0
 18 45  1  0
 18 46  1  0
 19 47  1  0
 19 48  1  0
 20 49  1  0
 20 50  1  0
 21 51  1  0
 21 52  1  0
 22 53  1  0
 22 54  1  0
 23 55  1  0
 24 56  1  0
 24 57  1  0
 24 58  1  0
 25 59  1  0
 26 60  1  0
 27 61  1  0
 28 62  1  0
 29 63  1  0
 30 64  1  0
 33 65  1  0
 34 66  1  0
 37 67  1  0
 38 68  1  0
M  END
> <Uni-Dock RESULT> 
ENERGY=   -4.837  LOWER_BOUND=    5.217  UPPER_BOUND=    8.199
INTER + INTRA:          -4.837
INTER:                  -4.837
INTRA:                   0.000
UNBOUND:                 0.000

$$$$

     RDKit          3D

 68 69  0  0  0  0  0  0  0  0999 V2000
   51.5065    6.6808   16.5820 C   0  0  0  0  0  0  0  0  0  0  0  0
   51.4985    4.4439   18.6796 C   0  0  0  0  0  0  0  0  0  0  0  0
   50.3778    4.8199   17.8131 C   0  0  0  0  0  0  0  0  0  0  0  0
   50.3937    5.7714   16.8698 C   0  0  0  0  0  0  0  0  0  0  0  0
   51.3861    4.0784   19.8352 O   0  0  0  0  0  0  0  0  0  0  0  0
   51.8106    7.0723   15.4705 O   0  0  0  0  0  0  0  0  0  0  0  0
   52.0930    7.1537   17.6914 O   0  0  0  0  0  0  0  0  0  0  0  0
   52.6730    4.4157   18.0333 O   0  0  0  0  0  0  0  0  0  0  0  0
   50.9766    5.4287   18.1238 C   0  0  0  0  0  0  0  0  0  0  0  0
   49.7379    4.6525   17.8401 C   0  0  0  0  0  0  0  0  0  0  0  0
   51.9335    4.9184   19.1354 C   0  0  0  0  0  0  0  0  0  0  0  0
   51.2956    6.5308   17.3887 C   0  0  0  0  0  0  0  0  0  0  0  0
   52.0295    8.9176   15.6577 N   0  0  0  0  0  0  0  0  0  0  0  0
   48.5884    5.3808   17.8943 N   0  0  0  0  0  0  0  0  0  0  0  0
   49.7518    3.2753   17.5748 C   0  0  0  0  0  0  0  0  0  0  0  0
   52.6410    3.7362   18.8584 C   0  0  0  0  0  0  0  0  0  0  0  0
   50.4382    7.0578   16.2408 C   0  0  0  0  0  0  0  0  0  0  0  0
   52.5736    7.3432   17.5688 C   0  0  0  0  0  0  0  0  0  0  0  0
   52.3776    3.0009   17.5678 C   0  0  0  0  0  0  0  0  0  0  0  0
   50.9747    2.3798   17.5405 C   0  0  0  0  0  0  0  0  0  0  0  0
   52.4124    8.7911   17.0737 C   0  0  0  0  0  0  0  0  0  0  0  0
   51.2996    7.7368   15.1628 C   0  0  0  0  0  0  0  0  0  0  0  0
   52.0991    5.5574   20.3701 C   0  0  0  0  0  0  0  0  0  0  0  0
   53.1775    9.2097   14.8043 C   0  0  0  0  0  0  0  0  0  0  0  0
   47.4225    4.7425   17.6742 C   0  0  0  0  0  0  0  0  0  0  0  0
   48.5077    2.6571   17.3548 C   0  0  0  0  0  0  0  0  0  0  0  0
   53.5440    3.2357   19.8052 C   0  0  0  0  0  0  0  0  0  0  0  0
   47.3306    3.3939   17.4010 C   0  0  0  0  0  0  0  0  0  0  0  0
   52.9987    5.0503   21.3073 C   0  0  0  0  0  0  0  0  0  0  0  0
   53.7250    3.8954   21.0217 C   0  0  0  0  0  0  0  0  0  0  0  0
   51.9164    6.6534   16.9606 C   0  0  0  0  0  0  0  0  0  0  0  0
   51.3456    4.0440   18.3285 C   0  0  0  0  0  0  0  0  0  0  0  0
   50.3884    4.7688   17.4901 C   0  0  0  0  0  0  0  0  0  0  0  0
   50.6251    5.9545   16.9130 C   0  0  0  0  0  0  0  0  0  0  0  0
   51.6185    2.8643   18.2161 O   0  0  0  0  0  0  0  0  0  0  0  0
   53.0157    6.1887   17.1852 O   0  0  0  0  0  0  0  0  0  0  0  0
   51.7361    7.9506   16.6638 O   0  0  0  0  0  0  0  0  0  0  0  0
   51.8052    4.8047   19.3322 O   0  0  0  0  0  0  0  0  0  0  0  0
   49.4740    4.2484   17.9915 H   0  0  0  0  0  0  0  0  0  0  0  0
   49.5284    5.9190   16.2336 H   0  0  0  0  0  0  0  0  0  0  0  0
   52.7841    7.7582   17.3510 H   0  0  0  0  0  0  0  0  0  0  0  0
   53.3098    4.1249   18.7181 H   0  0  0  0  0  0  0  0  0  0  0  0
   49.7073    7.7754   16.6347 H   0  0  0  0  0  0  0  0  0  0  0  0
   49.8842    6.2506   15.7497 H   0  0  0  0  0  0  0  0  0  0  0  0
   52.8799    7.3929   18.6172 H   0  0  0  0  0  0  0  0  0  0  0  0
   53.3849    6.8571   17.0121 H   0  0  0  0  0  0  0  0  0  0  0  0
   52.5289    3.6728   16.7138 H   0  0  0  0  0  0  0  0  0  0  0  0
   53.1168    2.1985   17.4474 H   0  0  0  0  0  0  0  0  0  0  0  0
   50.8884    1.6790   18.3824 H   0  0  0  0  0  0  0  0  0  0  0  0
   50.9140    1.7804   16.6221 H   0  0  0  0  0  0  0  0  0  0  0  0
   53.3290    9.3557   17.2880 H   0  0  0  0  0  0  0  0  0  0  0  0
   51.6284    9.2767   17.6705 H   0  0  0  0  0  0  0  0  0  0  0  0
   50.6533    8.0490   14.3341 H   0  0  0  0  0  0  0  0  0  0  0  0
   51.9964    6.9882   14.7599 H   0  0  0  0  0  0  0  0  0  0  0  0
   51.5254    6.4518   20.6025 H   0  0  0  0  0  0  0  0  0  0  0  0
   52.8645    9.3237   13.7608 H   0  0  0  0  0  0  0  0  0  0  0  0
   53.9385    8.4230   14.8528 H   0  0  0  0  0  0  0  0  0  0  0  0
   53.6423   10.1574   15.0972 H   0  0  0  0  0  0  0  0  0  0  0  0
   46.5362    5.3671   17.7288 H   0  0  0  0  0  0  0  0  0  0  0  0
   48.4551    1.5892   17.1534 H   0  0  0  0  0  0  0  0  0  0  0  0
   54.1020    2.3234   19.6089 H   0  0  0  0  0  0  0  0  0  0  0  0
   46.3677    2.9251   17.2351 H   0  0  0  0  0  0  0  0  0  0  0  0
   53.1286    5.5537   22.2615 H   0  0  0  0  0  0  0  0  0  0  0  0
   54.4238    3.5001   21.7545 H   0  0  0  0  0  0  0  0  0  0  0  0
   49.4435    4.2602   17.3421 H   0  0  0  0  0  0  0  0  0  0  0  0
   49.8492    6.4390   16.3313 H   0  0  0  0  0  0  0  0  0  0  0  0
   52.6392    8.3276   16.7169 H   0  0  0  0  0  0  0  0  0  0  0  0
   52.4526    4.2304   19.7896 H   0  0  0  0  0  0  0  0  0  0  0  0
  2  3  1  0
  3  4  2  0
  4  1  1  0
  5  2  2  0
  6  1  2  0
  7  1  1  0
  8  2  1  0
 10  9  1  0
 11  9  1  0
 12  9  2  3
 13 21  1  0
 14 10  2  0
 15 10  1  0
 16 11  2  0
 17 12  1  0
 18 12  1  0
 19 16  1  0
 20 15  1  0
 21 18  1  0
 22 17  1  0
 23 11  1  0
 24 13  1  0
 25 14  1  0
 26 15  2  0
 27 16  1  0
 28 26  1  0
 29 23  2  0
 30 29  1  0
 22 13  1  0
 20 19  1  0
 27 30  2  0
 25 28  2  0
 32 33  1  0
 33 34  2  0
 34 31  1  0
 35 32  2  0
 36 31  2  0
 37 31  1  0
 38 32  1  0
  3 39  1  0
  4 40  1  0
  7 41  1  0
  8 42  1  0
 17 43  1  0
 17 44  1  0
 18 45  1  0
 18 46  1  0
 19 47  1  0
 19 48  1  0
 20 49  1  0
 20 50  1  0
 21 51  1  0
 21 52  1  0
 22 53  1  0
 22 54  1  0
 23 55  1  0
 24 56  1  0
 24 57  1  0
 24 58  1  0
 25 59  1  0
 26 60  1  0
 27 61  1  0
 28 62  1  0
 29 63  1  0
 30 64  1  0
 33 65  1  0
 34 66  1  0
 37 67  1  0
 38 68  1  0
M  END
> <Uni-Dock RESULT> 
ENERGY=   -4.828  LOWER_BOUND=    3.777  UPPER_BOUND=    4.561
INTER + INTRA:          -4.828
INTER:                  -4.828
INTRA:                   0.000
UNBOUND:                 0.000

$$$$

     RDKit          3D

 68 69  0  0  0  0  0  0  0  0999 V2000
   52.4382    6.5271   16.9552 C   0  0  0  0  0  0  0  0  0  0  0  0
   52.1957    4.2605   19.0065 C   0  0  0  0  0  0  0  0  0  0  0  0
   51.2397    4.5650   17.9382 C   0  0  0  0  0  0  0  0  0  0  0  0
   51.3649    5.5309   17.0180 C   0  0  0  0  0  0  0  0  0  0  0  0
   51.8890    3.8678   20.1171 O   0  0  0  0  0  0  0  0  0  0  0  0
   52.9218    6.9595   15.9255 O   0  0  0  0  0  0  0  0  0  0  0  0
   52.7585    7.0242   18.1588 O   0  0  0  0  0  0  0  0  0  0  0  0
   53.4723    4.3327   18.6024 O   0  0  0  0  0  0  0  0  0  0  0  0
   51.7171    5.2121   18.3611 C   0  0  0  0  0  0  0  0  0  0  0  0
   50.6217    4.3490   17.8390 C   0  0  0  0  0  0  0  0  0  0  0  0
   52.4952    4.7589   19.5394 C   0  0  0  0  0  0  0  0  0  0  0  0
   52.0865    6.3477   17.7048 C   0  0  0  0  0  0  0  0  0  0  0  0
   52.9556    8.8127   16.1554 N   0  0  0  0  0  0  0  0  0  0  0  0
   49.4306    4.9867   17.6686 N   0  0  0  0  0  0  0  0  0  0  0  0
   50.7944    2.9816   17.5790 C   0  0  0  0  0  0  0  0  0  0  0  0
   53.3330    3.6387   19.4040 C   0  0  0  0  0  0  0  0  0  0  0  0
   51.4309    6.8276   16.4123 C   0  0  0  0  0  0  0  0  0  0  0  0
   53.2376    7.2518   18.1331 C   0  0  0  0  0  0  0  0  0  0  0  0
   53.3843    2.9077   18.0854 C   0  0  0  0  0  0  0  0  0  0  0  0
   52.0664    2.1824   17.7829 C   0  0  0  0  0  0  0  0  0  0  0  0
   53.0637    8.6914   17.6187 C   0  0  0  0  0  0  0  0  0  0  0  0
   52.4304    7.5884   15.5250 C   0  0  0  0  0  0  0  0  0  0  0  0
   52.3666    5.3874   20.7839 C   0  0  0  0  0  0  0  0  0  0  0  0
   54.2216    9.2057   15.5437 C   0  0  0  0  0  0  0  0  0  0  0  0
   48.3833    4.2656   17.2234 C   0  0  0  0  0  0  0  0  0  0  0  0
   49.6691    2.2744   17.1186 C   0  0  0  0  0  0  0  0  0  0  0  0
   54.0703    3.1922   20.5084 C   0  0  0  0  0  0  0  0  0  0  0  0
   48.4518    2.9188   16.9349 C   0  0  0  0  0  0  0  0  0  0  0  0
   53.1030    4.9342   21.8781 C   0  0  0  0  0  0  0  0  0  0  0  0
   53.9587    3.8428   21.7380 C   0  0  0  0  0  0  0  0  0  0  0  0
   52.7674    6.5244   17.4067 C   0  0  0  0  0  0  0  0  0  0  0  0
   52.1458    3.8562   18.6315 C   0  0  0  0  0  0  0  0  0  0  0  0
   51.3170    4.5204   17.6233 C   0  0  0  0  0  0  0  0  0  0  0  0
   51.5685    5.7304   17.1060 C   0  0  0  0  0  0  0  0  0  0  0  0
   52.5265    2.7028   18.5724 O   0  0  0  0  0  0  0  0  0  0  0  0
   53.8345    6.1409   17.8412 O   0  0  0  0  0  0  0  0  0  0  0  0
   52.5479    7.8091   17.0828 O   0  0  0  0  0  0  0  0  0  0  0  0
   52.3402    4.6323   19.7071 O   0  0  0  0  0  0  0  0  0  0  0  0
   50.3657    3.9235   17.9351 H   0  0  0  0  0  0  0  0  0  0  0  0
   50.6315    5.6232   16.2251 H   0  0  0  0  0  0  0  0  0  0  0  0
   53.4536    7.6852   17.9614 H   0  0  0  0  0  0  0  0  0  0  0  0
   53.9840    4.0795   19.3981 H   0  0  0  0  0  0  0  0  0  0  0  0
   50.5836    7.4807   16.6569 H   0  0  0  0  0  0  0  0  0  0  0  0
   51.0479    5.9891   15.8207 H   0  0  0  0  0  0  0  0  0  0  0  0
   53.3287    7.3066   19.2212 H   0  0  0  0  0  0  0  0  0  0  0  0
   54.1772    6.8383   17.7450 H   0  0  0  0  0  0  0  0  0  0  0  0
   53.6464    3.6037   17.2789 H   0  0  0  0  0  0  0  0  0  0  0  0
   54.1930    2.1660   18.1106 H   0  0  0  0  0  0  0  0  0  0  0  0
   51.8725    1.4627   18.5903 H   0  0  0  0  0  0  0  0  0  0  0  0
   52.2329    1.5959   16.8693 H   0  0  0  0  0  0  0  0  0  0  0  0
   53.8741    9.3203   18.0093 H   0  0  0  0  0  0  0  0  0  0  0  0
   52.1430    9.1058   18.0514 H   0  0  0  0  0  0  0  0  0  0  0  0
   51.9357    7.8648   14.5865 H   0  0  0  0  0  0  0  0  0  0  0  0
   53.2486    6.9019   15.2648 H   0  0  0  0  0  0  0  0  0  0  0  0
   51.6907    6.2314   20.9012 H   0  0  0  0  0  0  0  0  0  0  0  0
   54.1102    9.3135   14.4594 H   0  0  0  0  0  0  0  0  0  0  0  0
   55.0175    8.4784   15.7387 H   0  0  0  0  0  0  0  0  0  0  0  0
   54.5451   10.1809   15.9237 H   0  0  0  0  0  0  0  0  0  0  0  0
   47.4575    4.8200   17.1046 H   0  0  0  0  0  0  0  0  0  0  0  0
   49.7400    1.2093   16.9087 H   0  0  0  0  0  0  0  0  0  0  0  0
   54.7252    2.3284   20.4232 H   0  0  0  0  0  0  0  0  0  0  0  0
   47.5792    2.3811   16.5829 H   0  0  0  0  0  0  0  0  0  0  0  0
   53.0046    5.4296   22.8403 H   0  0  0  0  0  0  0  0  0  0  0  0
   54.5298    3.4894   22.5926 H   0  0  0  0  0  0  0  0  0  0  0  0
   50.4616    3.9440   17.2923 H   0  0  0  0  0  0  0  0  0  0  0  0
   50.8856    6.1644   16.3846 H   0  0  0  0  0  0  0  0  0  0  0  0
   53.3911    8.2527   17.3124 H   0  0  0  0  0  0  0  0  0  0  0  0
   52.9288    4.1012   20.2813 H   0  0  0  0  0  0  0  0  0  0  0  0
  2  3  1  0
  3  4  2  0
  4  1  1  0
  5  2  2  0
  6  1  2  0
  7  1  1  0
  8  2  1  0
 10  9  1  0
 11  9  1  0
 12  9  2  3
 13 21  1  0
 14 10  2  0
 15 10  1  0
 16 11  2  0
 17 12  1  0
 18 12  1  0
 19 16  1  0
 20 15  1  0
 21 18  1  0
 22 17  1  0
 23 11  1  0
 24 13  1  0
 25 14  1  0
 26 15  2  0
 27 16  1  0
 28 26  1  0
 29 23  2  0
 30 29  1  0
 22 13  1  0
 20 19  1  0
 27 30  2  0
 25 28  2  0
 32 33  1  0
 33 34  2  0
 34 31  1  0
 35 32  2  0
 36 31  2  0
 37 31  1  0
 38 32  1  0
  3 39  1  0
  4 40  1  0
  7 41  1  0
  8 42  1  0
 17 43  1  0
 17 44  1  0
 18 45  1  0
 18 46  1  0
 19 47  1  0
 19 48  1  0
 20 49  1  0
 20 50  1  0
 21 51  1  0
 21 52  1  0
 22 53  1  0
 22 54  1  0
 23 55  1  0
 24 56  1  0
 24 57  1  0
 24 58  1  0
 25 59  1  0
 26 60  1  0
 27 61  1  0
 28 62  1  0
 29 63  1  0
 30 64  1  0
 33 65  1  0
 34 66  1  0
 37 67  1  0
 38 68  1  0
M  END
> <Uni-Dock RESULT> 
ENERGY=   -4.792  LOWER_BOUND=    4.185  UPPER_BOUND=    4.940
INTER + INTRA:          -4.792
INTER:                  -4.792
INTRA:                   0.000
UNBOUND:                 0.000

$$$$

     RDKit          3D

 68 69  0  0  0  0  0  0  0  0999 V2000
   49.1992   10.4184   11.9906 C   0  0  0  0  0  0  0  0  0  0  0  0
   47.7964    8.5010   13.9298 C   0  0  0  0  0  0  0  0  0  0  0  0
   47.1872    9.1527   12.7668 C   0  0  0  0  0  0  0  0  0  0  0  0
   47.8103    9.9596   11.8973 C   0  0  0  0  0  0  0  0  0  0  0  0
   47.2249    8.2948   14.9845 O   0  0  0  0  0  0  0  0  0  0  0  0
   49.9372   10.5890   11.0381 O   0  0  0  0  0  0  0  0  0  0  0  0
   49.5513   10.7627   13.2379 O   0  0  0  0  0  0  0  0  0  0  0  0
   49.0260    8.0279   13.6799 O   0  0  0  0  0  0  0  0  0  0  0  0
   47.8362    9.5517   13.2621 C   0  0  0  0  0  0  0  0  0  0  0  0
   46.5520    9.2109   12.5897 C   0  0  0  0  0  0  0  0  0  0  0  0
   48.2100    8.8411   14.5089 C   0  0  0  0  0  0  0  0  0  0  0  0
   48.7184   10.4171   12.6882 C   0  0  0  0  0  0  0  0  0  0  0  0
   50.7091   12.2651   11.3265 N   0  0  0  0  0  0  0  0  0  0  0  0
   45.7622   10.2820   12.3007 N   0  0  0  0  0  0  0  0  0  0  0  0
   46.1714    7.8902   12.3102 C   0  0  0  0  0  0  0  0  0  0  0  0
   48.5172    7.4716   14.4383 C   0  0  0  0  0  0  0  0  0  0  0  0
   48.4797   11.0986   11.3432 C   0  0  0  0  0  0  0  0  0  0  0  0
   50.0810   10.7701   13.2753 C   0  0  0  0  0  0  0  0  0  0  0  0
   48.4170    6.7577   13.1132 C   0  0  0  0  0  0  0  0  0  0  0  0
   46.9631    6.6392   12.6369 C   0  0  0  0  0  0  0  0  0  0  0  0
   50.5825   12.1407   12.7881 C   0  0  0  0  0  0  0  0  0  0  0  0
   49.8024   11.3566   10.6022 C   0  0  0  0  0  0  0  0  0  0  0  0
   48.2069    9.4923   15.7484 C   0  0  0  0  0  0  0  0  0  0  0  0
   52.0869   12.0837   10.8791 C   0  0  0  0  0  0  0  0  0  0  0  0
   44.5712   10.0519   11.7146 C   0  0  0  0  0  0  0  0  0  0  0  0
   44.9176    7.7048   11.7003 C   0  0  0  0  0  0  0  0  0  0  0  0
   48.8658    6.7825   15.6072 C   0  0  0  0  0  0  0  0  0  0  0  0
   44.1086    8.7926   11.3952 C   0  0  0  0  0  0  0  0  0  0  0  0
   48.5531    8.7973   16.9068 C   0  0  0  0  0  0  0  0  0  0  0  0
   48.8890    7.4465   16.8345 C   0  0  0  0  0  0  0  0  0  0  0  0
   49.4414   10.2887   12.4771 C   0  0  0  0  0  0  0  0  0  0  0  0
   47.6283    8.1463   13.5394 C   0  0  0  0  0  0  0  0  0  0  0  0
   47.2759    9.0733   12.4620 C   0  0  0  0  0  0  0  0  0  0  0  0
   48.0662   10.0583   12.0145 C   0  0  0  0  0  0  0  0  0  0  0  0
   47.5002    6.9380   13.4902 O   0  0  0  0  0  0  0  0  0  0  0  0
   50.1934    9.5058   13.0215 O   0  0  0  0  0  0  0  0  0  0  0  0
   49.8148   11.5413   12.1690 O   0  0  0  0  0  0  0  0  0  0  0  0
   47.9978    8.7940   14.6534 O   0  0  0  0  0  0  0  0  0  0  0  0
   46.1331    8.9323   12.6422 H   0  0  0  0  0  0  0  0  0  0  0  0
   47.2812   10.3315   11.0273 H   0  0  0  0  0  0  0  0  0  0  0  0
   50.4760   11.0709   13.1432 H   0  0  0  0  0  0  0  0  0  0  0  0
   49.2880    7.6018   14.5219 H   0  0  0  0  0  0  0  0  0  0  0  0
   47.9572   12.0497   11.5069 H   0  0  0  0  0  0  0  0  0  0  0  0
   47.8566   10.4828   10.6857 H   0  0  0  0  0  0  0  0  0  0  0  0
   50.0566   10.8050   14.3678 H   0  0  0  0  0  0  0  0  0  0  0  0
   50.8032    9.9956   12.9872 H   0  0  0  0  0  0  0  0  0  0  0  0
   49.0380    7.2648   12.3643 H   0  0  0  0  0  0  0  0  0  0  0  0
   48.8358    5.7478   13.2101 H   0  0  0  0  0  0  0  0  0  0  0  0
   46.3937    6.0823   13.3940 H   0  0  0  0  0  0  0  0  0  0  0  0
   46.9785    6.0174   11.7316 H   0  0  0  0  0  0  0  0  0  0  0  0
   51.5280   12.3842   13.2895 H   0  0  0  0  0  0  0  0  0  0  0  0
   49.8724   12.9091   13.1227 H   0  0  0  0  0  0  0  0  0  0  0  0
   49.5823   11.7937    9.6211 H   0  0  0  0  0  0  0  0  0  0  0  0
   50.2866   10.3870   10.4186 H   0  0  0  0  0  0  0  0  0  0  0  0
   47.9333   10.5431   15.8115 H   0  0  0  0  0  0  0  0  0  0  0  0
   52.1600   12.2051    9.7930 H   0  0  0  0  0  0  0  0  0  0  0  0
   52.4800   11.0958   11.1435 H   0  0  0  0  0  0  0  0  0  0  0  0
   52.7382   12.8441   11.3237 H   0  0  0  0  0  0  0  0  0  0  0  0
   43.9801   10.9381   11.5054 H   0  0  0  0  0  0  0  0  0  0  0  0
   44.5647    6.7022   11.4678 H   0  0  0  0  0  0  0  0  0  0  0  0
   49.1084    5.7232   15.5729 H   0  0  0  0  0  0  0  0  0  0  0  0
   43.1402    8.6586   10.9276 H   0  0  0  0  0  0  0  0  0  0  0  0
   48.5556    9.3090   17.8655 H   0  0  0  0  0  0  0  0  0  0  0  0
   49.1560    6.9058   17.7389 H   0  0  0  0  0  0  0  0  0  0  0  0
   46.3045    8.8975   12.0160 H   0  0  0  0  0  0  0  0  0  0  0  0
   47.7159   10.7215   11.2318 H   0  0  0  0  0  0  0  0  0  0  0  0
   50.7322   11.5993   12.5089 H   0  0  0  0  0  0  0  0  0  0  0  0
   48.2401    8.0785   15.2761 H   0  0  0  0  0  0  0  0  0  0  0  0
  2  3  1  0
  3  4  2  0
  4  1  1  0
  5  2  2  0
  6  1  2  0
  7  1  1  0
  8  2  1  0
 10  9  1  0
 11  9  1  0
 12  9  2  3
 13 21  1  0
 14 10  2  0
 15 10  1  0
 16 11  2  0
 17 12  1  0
 18 12  1  0
 19 16  1  0
 20 15  1  0
 21 18  1  0
 22 17  1  0
 23 11  1  0
 24 13  1  0
 25 14  1  0
 26 15  2  0
 27 16  1  0
 28 26  1  0
 29 23  2  0
 30 29  1  0
 22 13  1  0
 20 19  1  0
 27 30  2  0
 25 28  2  0
 32 33  1  0
 33 34  2  0
 34 31  1  0
 35 32  2  0
 36 31  2  0
 37 31  1  0
 38 32  1  0
  3 39  1  0
  4 40  1  0
  7 41  1  0
  8 42  1  0
 17 43  1  0
 17 44  1  0
 18 45  1  0
 18 46  1  0
 19 47  1  0
 19 48  1  0
 20 49  1  0
 20 50  1  0
 21 51  1  0
 21 52  1  0
 22 53  1  0
 22 54  1  0
 23 55  1  0
 24 56  1  0
 24 57  1  0
 24 58  1  0
 25 59  1  0
 26 60  1  0
 27 61  1  0
 28 62  1  0
 29 63  1  0
 30 64  1  0
 33 65  1  0
 34 66  1  0
 37 67  1  0
 38 68  1  0
M  END
> <Uni-Dock RESULT> 
ENERGY=   -4.790  LOWER_BOUND=    5.934  UPPER_BOUND=    8.008
INTER + INTRA:          -4.790
INTER:                  -4.790
INTRA:                   0.000
UNBOUND:                 0.000

$$$$

     RDKit          3D

 68 69  0  0  0  0  0  0  0  0999 V2000
   48.4359    9.4628   17.9752 C   0  0  0  0  0  0  0  0  0  0  0  0
   49.3011    6.9004   16.5296 C   0  0  0  0  0  0  0  0  0  0  0  0
   48.8261    8.1327   15.8940 C   0  0  0  0  0  0  0  0  0  0  0  0
   48.4851    9.2653   16.5237 C   0  0  0  0  0  0  0  0  0  0  0  0
   49.0549    5.7774   16.1298 O   0  0  0  0  0  0  0  0  0  0  0  0
   48.7363   10.4961   18.5436 O   0  0  0  0  0  0  0  0  0  0  0  0
   47.8967    8.4208   18.6246 O   0  0  0  0  0  0  0  0  0  0  0  0
   50.1546    7.1275   17.5386 O   0  0  0  0  0  0  0  0  0  0  0  0
   48.5160    7.8519   16.7006 C   0  0  0  0  0  0  0  0  0  0  0  0
   48.6362    8.2500   15.2708 C   0  0  0  0  0  0  0  0  0  0  0  0
   48.9562    6.4973   17.1132 C   0  0  0  0  0  0  0  0  0  0  0  0
   48.1189    8.7495   17.6459 C   0  0  0  0  0  0  0  0  0  0  0  0
   47.3368   10.8066   19.7408 N   0  0  0  0  0  0  0  0  0  0  0  0
   47.4964    8.7597   14.7270 N   0  0  0  0  0  0  0  0  0  0  0  0
   49.8177    8.0793   14.5345 C   0  0  0  0  0  0  0  0  0  0  0  0
   50.3259    6.1875   17.0584 C   0  0  0  0  0  0  0  0  0  0  0  0
   47.7696   10.2031   17.3366 C   0  0  0  0  0  0  0  0  0  0  0  0
   48.0320    8.4444   19.1376 C   0  0  0  0  0  0  0  0  0  0  0  0
   51.2984    7.2197   16.5442 C   0  0  0  0  0  0  0  0  0  0  0  0
   51.1141    7.4801   15.0433 C   0  0  0  0  0  0  0  0  0  0  0  0
   47.0373    9.3700   19.8596 C   0  0  0  0  0  0  0  0  0  0  0  0
   48.1023   11.1245   18.5222 C   0  0  0  0  0  0  0  0  0  0  0  0
   48.0340    5.5164   17.4979 C   0  0  0  0  0  0  0  0  0  0  0  0
   48.0148   11.3242   20.9256 C   0  0  0  0  0  0  0  0  0  0  0  0
   47.5189    9.1191   13.4287 C   0  0  0  0  0  0  0  0  0  0  0  0
   49.7871    8.4678   13.1830 C   0  0  0  0  0  0  0  0  0  0  0  0
   50.7592    4.9105   17.4379 C   0  0  0  0  0  0  0  0  0  0  0  0
   48.6306    8.9957   12.6220 C   0  0  0  0  0  0  0  0  0  0  0  0
   48.4749    4.2473   17.8717 C   0  0  0  0  0  0  0  0  0  0  0  0
   49.8360    3.9478   17.8485 C   0  0  0  0  0  0  0  0  0  0  0  0
   48.4991    8.9887   18.2638 C   0  0  0  0  0  0  0  0  0  0  0  0
   49.6812    7.1464   16.2109 C   0  0  0  0  0  0  0  0  0  0  0  0
   49.0036    8.4075   15.9028 C   0  0  0  0  0  0  0  0  0  0  0  0
   48.4372    9.2111   16.8130 C   0  0  0  0  0  0  0  0  0  0  0  0
   50.7718    6.8180   15.7850 O   0  0  0  0  0  0  0  0  0  0  0  0
   49.2961    8.3189   18.8892 O   0  0  0  0  0  0  0  0  0  0  0  0
   47.5303    9.6955   18.8682 O   0  0  0  0  0  0  0  0  0  0  0  0
   48.9015    6.3234   16.9263 O   0  0  0  0  0  0  0  0  0  0  0  0
   48.7595    8.0720   14.8137 H   0  0  0  0  0  0  0  0  0  0  0  0
   48.2154   10.1447   15.9501 H   0  0  0  0  0  0  0  0  0  0  0  0
   47.9018    8.7019   19.5627 H   0  0  0  0  0  0  0  0  0  0  0  0
   50.4050    6.2298   17.8395 H   0  0  0  0  0  0  0  0  0  0  0  0
   46.7001   10.2763   17.1016 H   0  0  0  0  0  0  0  0  0  0  0  0
   48.3291   10.5755   16.4718 H   0  0  0  0  0  0  0  0  0  0  0  0
   47.7103    7.4163   19.3245 H   0  0  0  0  0  0  0  0  0  0  0  0
   49.0279    8.5633   19.5829 H   0  0  0  0  0  0  0  0  0  0  0  0
   51.2022    8.1481   17.1209 H   0  0  0  0  0  0  0  0  0  0  0  0
   52.3250    6.8707   16.7144 H   0  0  0  0  0  0  0  0  0  0  0  0
   51.2689    6.5348   14.5050 H   0  0  0  0  0  0  0  0  0  0  0  0
   51.9262    8.1543   14.7391 H   0  0  0  0  0  0  0  0  0  0  0  0
   46.9541    9.0686   20.9117 H   0  0  0  0  0  0  0  0  0  0  0  0
   46.0385    9.2064   19.4328 H   0  0  0  0  0  0  0  0  0  0  0  0
   47.8897   12.1619   18.2382 H   0  0  0  0  0  0  0  0  0  0  0  0
   49.1830   11.0605   18.7126 H   0  0  0  0  0  0  0  0  0  0  0  0
   46.9700    5.7415   17.5056 H   0  0  0  0  0  0  0  0  0  0  0  0
   48.2045   12.3982   20.8244 H   0  0  0  0  0  0  0  0  0  0  0  0
   48.9703   10.8201   21.1076 H   0  0  0  0  0  0  0  0  0  0  0  0
   47.3849   11.1998   21.8133 H   0  0  0  0  0  0  0  0  0  0  0  0
   46.5861    9.5192   13.0437 H   0  0  0  0  0  0  0  0  0  0  0  0
   50.6709    8.3505   12.5595 H   0  0  0  0  0  0  0  0  0  0  0  0
   51.8148    4.6521   17.4040 H   0  0  0  0  0  0  0  0  0  0  0  0
   48.5975    9.2952   11.5811 H   0  0  0  0  0  0  0  0  0  0  0  0
   47.7557    3.4915   18.1759 H   0  0  0  0  0  0  0  0  0  0  0  0
   50.1775    2.9571   18.1376 H   0  0  0  0  0  0  0  0  0  0  0  0
   49.0026    8.6738   14.8528 H   0  0  0  0  0  0  0  0  0  0  0  0
   47.9274   10.1140   16.4969 H   0  0  0  0  0  0  0  0  0  0  0  0
   47.6519    9.4888   19.8185 H   0  0  0  0  0  0  0  0  0  0  0  0
   49.4700    5.5450   17.0974 H   0  0  0  0  0  0  0  0  0  0  0  0
  2  3  1  0
  3  4  2  0
  4  1  1  0
  5  2  2  0
  6  1  2  0
  7  1  1  0
  8  2  1  0
 10  9  1  0
 11  9  1  0
 12  9  2  3
 13 21  1  0
 14 10  2  0
 15 10  1  0
 16 11  2  0
 17 12  1  0
 18 12  1  0
 19 16  1  0
 20 15  1  0
 21 18  1  0
 22 17  1  0
 23 11  1  0
 24 13  1  0
 25 14  1  0
 26 15  2  0
 27 16  1  0
 28 26  1  0
 29 23  2  0
 30 29  1  0
 22 13  1  0
 20 19  1  0
 27 30  2  0
 25 28  2  0
 32 33  1  0
 33 34  2  0
 34 31  1  0
 35 32  2  0
 36 31  2  0
 37 31  1  0
 38 32  1  0
  3 39  1  0
  4 40  1  0
  7 41  1  0
  8 42  1  0
 17 43  1  0
 17 44  1  0
 18 45  1  0
 18 46  1  0
 19 47  1  0
 19 48  1  0
 20 49  1  0
 20 50  1  0
 21 51  1  0
 21 52  1  0
 22 53  1  0
 22 54  1  0
 23 55  1  0
 24 56  1  0
 24 57  1  0
 24 58  1  0
 25 59  1  0
 26 60  1  0
 27 61  1  0
 28 62  1  0
 29 63  1  0
 30 64  1  0
 33 65  1  0
 34 66  1  0
 37 67  1  0
 38 68  1  0
M  END
> <Uni-Dock RESULT> 
ENERGY=   -4.622  LOWER_BOUND=    2.884  UPPER_BOUND=    4.372
INTER + INTRA:          -4.622
INTER:                  -4.622
INTRA:                   0.000
UNBOUND:                 0.000

$$$$
