
     RDKit          3D

 41 43  0  0  0  0  0  0  0  0999 V2000
   50.2011  -17.0280   -8.0057 C   0  0  0  0  0  0  0  0  0  0  0  0
   48.8014  -17.1565   -7.4324 C   0  0  0  0  0  0  0  0  0  0  0  0
   51.1040  -16.4854   -6.9093 C   0  0  0  0  0  0  0  0  0  0  0  0
   48.6280  -14.6157   -7.3191 C   0  0  0  0  0  0  0  0  0  0  0  0
   49.8909  -14.2477   -7.0434 C   0  0  0  0  0  0  0  0  0  0  0  0
   48.0693  -15.9793   -7.1293 C   0  0  0  0  0  0  0  0  0  0  0  0
   50.9423  -15.1393   -6.4909 C   0  0  0  0  0  0  0  0  0  0  0  0
   53.7008  -18.9643  -11.0413 N   0  0  0  0  0  0  0  0  0  0  0  0
   50.7129  -18.2868   -8.7568 C   0  0  0  0  0  0  0  0  0  0  0  0
   48.2212  -18.4114   -7.1459 C   0  0  0  0  0  0  0  0  0  0  0  0
   52.0545  -17.2921   -6.2459 C   0  0  0  0  0  0  0  0  0  0  0  0
   46.7527  -16.0868   -6.6529 C   0  0  0  0  0  0  0  0  0  0  0  0
   51.8084  -14.6060   -5.5226 C   0  0  0  0  0  0  0  0  0  0  0  0
   52.4724  -19.2594  -10.2951 C   0  0  0  0  0  0  0  0  0  0  0  0
   54.2261  -20.1843  -11.6564 C   0  0  0  0  0  0  0  0  0  0  0  0
   51.9922  -18.0035   -9.5623 C   0  0  0  0  0  0  0  0  0  0  0  0
   46.9207  -18.4958   -6.6458 C   0  0  0  0  0  0  0  0  0  0  0  0
   52.8870  -16.7502   -5.2653 C   0  0  0  0  0  0  0  0  0  0  0  0
   52.7751  -15.4068   -4.9156 C   0  0  0  0  0  0  0  0  0  0  0  0
   46.1836  -17.3372   -6.4122 C   0  0  0  0  0  0  0  0  0  0  0  0
   50.1441  -16.2515   -8.8017 H   0  0  0  0  0  0  0  0  0  0  0  0
   47.9362  -13.8320   -7.6052 H   0  0  0  0  0  0  0  0  0  0  0  0
   50.1274  -13.1932   -7.1260 H   0  0  0  0  0  0  0  0  0  0  0  0
   53.4602  -18.3026  -11.8166 H   0  0  0  0  0  0  0  0  0  0  0  0
   50.8858  -19.1330   -8.0609 H   0  0  0  0  0  0  0  0  0  0  0  0
   49.9248  -18.6106   -9.4726 H   0  0  0  0  0  0  0  0  0  0  0  0
   48.7579  -19.3339   -7.3114 H   0  0  0  0  0  0  0  0  0  0  0  0
   52.1760  -18.3380   -6.4815 H   0  0  0  0  0  0  0  0  0  0  0  0
   46.1713  -15.1970   -6.4430 H   0  0  0  0  0  0  0  0  0  0  0  0
   51.7161  -13.5713   -5.2147 H   0  0  0  0  0  0  0  0  0  0  0  0
   51.6759  -19.6109  -10.9904 H   0  0  0  0  0  0  0  0  0  0  0  0
   52.6698  -20.0565   -9.5432 H   0  0  0  0  0  0  0  0  0  0  0  0
   53.4788  -20.6354  -12.3463 H   0  0  0  0  0  0  0  0  0  0  0  0
   55.1392  -19.9384  -12.2385 H   0  0  0  0  0  0  0  0  0  0  0  0
   54.5068  -20.9215  -10.8737 H   0  0  0  0  0  0  0  0  0  0  0  0
   51.7889  -17.2028  -10.3068 H   0  0  0  0  0  0  0  0  0  0  0  0
   52.8009  -17.6519   -8.8873 H   0  0  0  0  0  0  0  0  0  0  0  0
   46.4820  -19.4642   -6.4424 H   0  0  0  0  0  0  0  0  0  0  0  0
   53.6242  -17.3747   -4.7771 H   0  0  0  0  0  0  0  0  0  0  0  0
   53.4270  -14.9888   -4.1593 H   0  0  0  0  0  0  0  0  0  0  0  0
   45.1729  -17.4072   -6.0311 H   0  0  0  0  0  0  0  0  0  0  0  0
  2  1  1  0
  3  1  1  0
  4  6  1  0
  5  7  1  0
  6  2  2  0
  7  3  2  0
  8 14  1  0
  9  1  1  0
 10  2  1  0
 11  3  1  0
 12  6  1  0
 13  7  1  0
 14 16  1  0
 15  8  1  0
 16  9  1  0
 17 10  2  0
 18 11  2  0
 19 18  1  0
 20 17  1  0
  5  4  2  0
 19 13  2  0
 20 12  2  0
  1 21  1  0
  4 22  1  0
  5 23  1  0
  8 24  1  0
  9 25  1  0
  9 26  1  0
 10 27  1  0
 11 28  1  0
 12 29  1  0
 13 30  1  0
 14 31  1  0
 14 32  1  0
 15 33  1  0
 15 34  1  0
 15 35  1  0
 16 36  1  0
 16 37  1  0
 17 38  1  0
 18 39  1  0
 19 40  1  0
 20 41  1  0
M  END
> <Uni-Dock RESULT> 
ENERGY=   -6.159  LOWER_BOUND=    0.000  UPPER_BOUND=    0.000
INTER + INTRA:          -6.159
INTER:                  -6.159
INTRA:                   0.000
UNBOUND:                 0.000

$$$$

     RDKit          3D

 41 43  0  0  0  0  0  0  0  0999 V2000
   50.3054  -17.0031   -7.9871 C   0  0  0  0  0  0  0  0  0  0  0  0
   48.8959  -17.1162   -7.4350 C   0  0  0  0  0  0  0  0  0  0  0  0
   51.1981  -16.4733   -6.8763 C   0  0  0  0  0  0  0  0  0  0  0  0
   48.7508  -14.5737   -7.3190 C   0  0  0  0  0  0  0  0  0  0  0  0
   50.0136  -14.2212   -7.0238 C   0  0  0  0  0  0  0  0  0  0  0  0
   48.1733  -15.9310   -7.1404 C   0  0  0  0  0  0  0  0  0  0  0  0
   51.0462  -15.1262   -6.4575 C   0  0  0  0  0  0  0  0  0  0  0  0
   53.8270  -18.9748  -10.9743 N   0  0  0  0  0  0  0  0  0  0  0  0
   50.8135  -18.2665   -8.7332 C   0  0  0  0  0  0  0  0  0  0  0  0
   48.2968  -18.3647   -7.1598 C   0  0  0  0  0  0  0  0  0  0  0  0
   52.1291  -17.2924   -6.2005 C   0  0  0  0  0  0  0  0  0  0  0  0
   46.8485  -16.0239   -6.6839 C   0  0  0  0  0  0  0  0  0  0  0  0
   51.9039  -14.6050   -5.4754 C   0  0  0  0  0  0  0  0  0  0  0  0
   52.5841  -19.2568  -10.2472 C   0  0  0  0  0  0  0  0  0  0  0  0
   54.3469  -20.1997  -11.5841 C   0  0  0  0  0  0  0  0  0  0  0  0
   52.1079  -17.9968   -9.5190 C   0  0  0  0  0  0  0  0  0  0  0  0
   46.9881  -18.4347   -6.6793 C   0  0  0  0  0  0  0  0  0  0  0  0
   52.9533  -16.7622   -5.2065 C   0  0  0  0  0  0  0  0  0  0  0  0
   52.8520  -15.4183   -4.8557 C   0  0  0  0  0  0  0  0  0  0  0  0
   46.2613  -17.2679   -6.4543 C   0  0  0  0  0  0  0  0  0  0  0  0
   50.2694  -16.2245   -8.7823 H   0  0  0  0  0  0  0  0  0  0  0  0
   48.0726  -13.7813   -7.6138 H   0  0  0  0  0  0  0  0  0  0  0  0
   50.2638  -13.1694   -7.1007 H   0  0  0  0  0  0  0  0  0  0  0  0
   53.6057  -18.3089  -11.7518 H   0  0  0  0  0  0  0  0  0  0  0  0
   50.9661  -19.1160   -8.0365 H   0  0  0  0  0  0  0  0  0  0  0  0
   50.0324  -18.5796   -9.4613 H   0  0  0  0  0  0  0  0  0  0  0  0
   48.8250  -19.2931   -7.3192 H   0  0  0  0  0  0  0  0  0  0  0  0
   52.2418  -18.3392   -6.4365 H   0  0  0  0  0  0  0  0  0  0  0  0
   46.2746  -15.1277   -6.4808 H   0  0  0  0  0  0  0  0  0  0  0  0
   51.8193  -13.5699   -5.1667 H   0  0  0  0  0  0  0  0  0  0  0  0
   51.7941  -19.5975  -10.9549 H   0  0  0  0  0  0  0  0  0  0  0  0
   52.7609  -20.0577   -9.4940 H   0  0  0  0  0  0  0  0  0  0  0  0
   53.6047  -20.6407  -12.2859 H   0  0  0  0  0  0  0  0  0  0  0  0
   55.2715  -19.9635  -12.1520 H   0  0  0  0  0  0  0  0  0  0  0  0
   54.6073  -20.9417  -10.7988 H   0  0  0  0  0  0  0  0  0  0  0  0
   51.9251  -17.1923  -10.2647 H   0  0  0  0  0  0  0  0  0  0  0  0
   52.9105  -17.6560   -8.8312 H   0  0  0  0  0  0  0  0  0  0  0  0
   46.5350  -19.3982   -6.4844 H   0  0  0  0  0  0  0  0  0  0  0  0
   53.6757  -17.3963   -4.7087 H   0  0  0  0  0  0  0  0  0  0  0  0
   53.4974  -15.0095   -4.0890 H   0  0  0  0  0  0  0  0  0  0  0  0
   45.2442  -17.3267   -6.0884 H   0  0  0  0  0  0  0  0  0  0  0  0
  2  1  1  0
  3  1  1  0
  4  6  1  0
  5  7  1  0
  6  2  2  0
  7  3  2  0
  8 14  1  0
  9  1  1  0
 10  2  1  0
 11  3  1  0
 12  6  1  0
 13  7  1  0
 14 16  1  0
 15  8  1  0
 16  9  1  0
 17 10  2  0
 18 11  2  0
 19 18  1  0
 20 17  1  0
  5  4  2  0
 19 13  2  0
 20 12  2  0
  1 21  1  0
  4 22  1  0
  5 23  1  0
  8 24  1  0
  9 25  1  0
  9 26  1  0
 10 27  1  0
 11 28  1  0
 12 29  1  0
 13 30  1  0
 14 31  1  0
 14 32  1  0
 15 33  1  0
 15 34  1  0
 15 35  1  0
 16 36  1  0
 16 37  1  0
 17 38  1  0
 18 39  1  0
 19 40  1  0
 20 41  1  0
M  END
> <Uni-Dock RESULT> 
ENERGY=   -6.134  LOWER_BOUND=    0.113  UPPER_BOUND=    0.113
INTER + INTRA:          -6.134
INTER:                  -6.134
INTRA:                   0.000
UNBOUND:                 0.000

$$$$

     RDKit          3D

 41 43  0  0  0  0  0  0  0  0999 V2000
   49.4608  -17.0796   -7.9847 C   0  0  0  0  0  0  0  0  0  0  0  0
   50.4540  -16.4876   -7.0012 C   0  0  0  0  0  0  0  0  0  0  0  0
   48.3928  -17.8081   -7.1845 C   0  0  0  0  0  0  0  0  0  0  0  0
   51.2435  -18.8367   -6.4038 C   0  0  0  0  0  0  0  0  0  0  0  0
   50.1172  -19.5616   -6.5147 C   0  0  0  0  0  0  0  0  0  0  0  0
   51.3043  -17.3581   -6.2713 C   0  0  0  0  0  0  0  0  0  0  0  0
   48.7386  -19.0091   -6.5128 C   0  0  0  0  0  0  0  0  0  0  0  0
   46.9758  -16.5161  -12.3113 N   0  0  0  0  0  0  0  0  0  0  0  0
   48.9522  -16.0905   -9.0682 C   0  0  0  0  0  0  0  0  0  0  0  0
   50.5267  -15.0996   -6.7534 C   0  0  0  0  0  0  0  0  0  0  0  0
   47.0848  -17.2981   -7.0313 C   0  0  0  0  0  0  0  0  0  0  0  0
   52.2658  -16.8178   -5.4019 C   0  0  0  0  0  0  0  0  0  0  0  0
   47.7489  -19.7253   -5.8202 C   0  0  0  0  0  0  0  0  0  0  0  0
   47.7077  -15.8088  -11.2545 C   0  0  0  0  0  0  0  0  0  0  0  0
   46.4146  -15.5597  -13.2669 C   0  0  0  0  0  0  0  0  0  0  0  0
   48.1943  -16.8060  -10.1992 C   0  0  0  0  0  0  0  0  0  0  0  0
   51.4710  -14.5847   -5.8637 C   0  0  0  0  0  0  0  0  0  0  0  0
   46.1226  -18.0112   -6.3144 C   0  0  0  0  0  0  0  0  0  0  0  0
   46.4493  -19.2292   -5.7236 C   0  0  0  0  0  0  0  0  0  0  0  0
   52.3470  -15.4402   -5.1996 C   0  0  0  0  0  0  0  0  0  0  0  0
   50.0172  -17.8469   -8.5691 H   0  0  0  0  0  0  0  0  0  0  0  0
   52.1741  -19.3825   -6.2997 H   0  0  0  0  0  0  0  0  0  0  0  0
   50.2197  -20.6404   -6.4914 H   0  0  0  0  0  0  0  0  0  0  0  0
   47.6569  -17.1161  -12.8339 H   0  0  0  0  0  0  0  0  0  0  0  0
   48.3118  -15.2992   -8.6276 H   0  0  0  0  0  0  0  0  0  0  0  0
   49.8339  -15.5820   -9.5179 H   0  0  0  0  0  0  0  0  0  0  0  0
   49.8661  -14.4015   -7.2462 H   0  0  0  0  0  0  0  0  0  0  0  0
   46.7863  -16.3582   -7.4690 H   0  0  0  0  0  0  0  0  0  0  0  0
   52.9407  -17.4682   -4.8586 H   0  0  0  0  0  0  0  0  0  0  0  0
   47.9914  -20.6592   -5.3274 H   0  0  0  0  0  0  0  0  0  0  0  0
   48.5817  -15.2701  -11.6871 H   0  0  0  0  0  0  0  0  0  0  0  0
   47.0376  -15.0682  -10.7620 H   0  0  0  0  0  0  0  0  0  0  0  0
   47.2164  -14.9415  -13.7283 H   0  0  0  0  0  0  0  0  0  0  0  0
   45.8880  -16.1123  -14.0733 H   0  0  0  0  0  0  0  0  0  0  0  0
   45.6750  -14.9000  -12.7641 H   0  0  0  0  0  0  0  0  0  0  0  0
   48.8677  -17.5476  -10.6821 H   0  0  0  0  0  0  0  0  0  0  0  0
   47.3170  -17.3498   -9.7893 H   0  0  0  0  0  0  0  0  0  0  0  0
   51.5258  -13.5174   -5.6918 H   0  0  0  0  0  0  0  0  0  0  0  0
   45.1184  -17.6183   -6.2197 H   0  0  0  0  0  0  0  0  0  0  0  0
   45.6985  -19.7823   -5.1741 H   0  0  0  0  0  0  0  0  0  0  0  0
   53.0826  -15.0364   -4.5158 H   0  0  0  0  0  0  0  0  0  0  0  0
  2  1  1  0
  3  1  1  0
  4  6  1  0
  5  7  1  0
  6  2  2  0
  7  3  2  0
  8 14  1  0
  9  1  1  0
 10  2  1  0
 11  3  1  0
 12  6  1  0
 13  7  1  0
 14 16  1  0
 15  8  1  0
 16  9  1  0
 17 10  2  0
 18 11  2  0
 19 18  1  0
 20 17  1  0
  5  4  2  0
 19 13  2  0
 20 12  2  0
  1 21  1  0
  4 22  1  0
  5 23  1  0
  8 24  1  0
  9 25  1  0
  9 26  1  0
 10 27  1  0
 11 28  1  0
 12 29  1  0
 13 30  1  0
 14 31  1  0
 14 32  1  0
 15 33  1  0
 15 34  1  0
 15 35  1  0
 16 36  1  0
 16 37  1  0
 17 38  1  0
 18 39  1  0
 19 40  1  0
 20 41  1  0
M  END
> <Uni-Dock RESULT> 
ENERGY=   -5.245  LOWER_BOUND=    2.655  UPPER_BOUND=    5.469
INTER + INTRA:          -5.245
INTER:                  -5.245
INTRA:                   0.000
UNBOUND:                 0.000

$$$$

     RDKit          3D

 41 43  0  0  0  0  0  0  0  0999 V2000
   49.8270  -18.4150   -7.4727 C   0  0  0  0  0  0  0  0  0  0  0  0
   50.3791  -18.8650   -6.1322 C   0  0  0  0  0  0  0  0  0  0  0  0
   48.6620  -17.4760   -7.2036 C   0  0  0  0  0  0  0  0  0  0  0  0
   48.2461  -20.1973   -5.7151 C   0  0  0  0  0  0  0  0  0  0  0  0
   47.3076  -19.4422   -6.3111 C   0  0  0  0  0  0  0  0  0  0  0  0
   49.6013  -19.7320   -5.3218 C   0  0  0  0  0  0  0  0  0  0  0  0
   47.4605  -18.0089   -6.6690 C   0  0  0  0  0  0  0  0  0  0  0  0
   50.8338  -17.1051  -12.2143 N   0  0  0  0  0  0  0  0  0  0  0  0
   50.8968  -17.9116   -8.4793 C   0  0  0  0  0  0  0  0  0  0  0  0
   51.6231  -18.4102   -5.6432 C   0  0  0  0  0  0  0  0  0  0  0  0
   48.7544  -16.0812   -7.4050 C   0  0  0  0  0  0  0  0  0  0  0  0
   50.1269  -20.2000   -4.1065 C   0  0  0  0  0  0  0  0  0  0  0  0
   46.3555  -17.1649   -6.4721 C   0  0  0  0  0  0  0  0  0  0  0  0
   51.4056  -17.2609  -10.8721 C   0  0  0  0  0  0  0  0  0  0  0  0
   51.8259  -16.5313  -13.1248 C   0  0  0  0  0  0  0  0  0  0  0  0
   50.3300  -17.7544   -9.9004 C   0  0  0  0  0  0  0  0  0  0  0  0
   52.1152  -18.8656   -4.4190 C   0  0  0  0  0  0  0  0  0  0  0  0
   47.6531  -15.2548   -7.1759 C   0  0  0  0  0  0  0  0  0  0  0  0
   46.4520  -15.7971   -6.7257 C   0  0  0  0  0  0  0  0  0  0  0  0
   51.3752  -19.7682   -3.6587 C   0  0  0  0  0  0  0  0  0  0  0  0
   49.4122  -19.3249   -7.9627 H   0  0  0  0  0  0  0  0  0  0  0  0
   47.9547  -21.1940   -5.4048 H   0  0  0  0  0  0  0  0  0  0  0  0
   46.3258  -19.8835   -6.4383 H   0  0  0  0  0  0  0  0  0  0  0  0
   50.5907  -18.0569  -12.5775 H   0  0  0  0  0  0  0  0  0  0  0  0
   51.3496  -16.9553   -8.1465 H   0  0  0  0  0  0  0  0  0  0  0  0
   51.7171  -18.6623   -8.5212 H   0  0  0  0  0  0  0  0  0  0  0  0
   52.2281  -17.7101   -6.2001 H   0  0  0  0  0  0  0  0  0  0  0  0
   49.6643  -15.6159   -7.7508 H   0  0  0  0  0  0  0  0  0  0  0  0
   49.5566  -20.8842   -3.4898 H   0  0  0  0  0  0  0  0  0  0  0  0
   45.4222  -17.5631   -6.0925 H   0  0  0  0  0  0  0  0  0  0  0  0
   52.2474  -17.9902  -10.8956 H   0  0  0  0  0  0  0  0  0  0  0  0
   51.7900  -16.2807  -10.5095 H   0  0  0  0  0  0  0  0  0  0  0  0
   52.7303  -17.1765  -13.1853 H   0  0  0  0  0  0  0  0  0  0  0  0
   51.3859  -16.4456  -14.1408 H   0  0  0  0  0  0  0  0  0  0  0  0
   52.1143  -15.5119  -12.7892 H   0  0  0  0  0  0  0  0  0  0  0  0
   49.9430  -18.7354  -10.2532 H   0  0  0  0  0  0  0  0  0  0  0  0
   49.4884  -17.0297   -9.9000 H   0  0  0  0  0  0  0  0  0  0  0  0
   53.0763  -18.5198   -4.0607 H   0  0  0  0  0  0  0  0  0  0  0  0
   47.7312  -14.1896   -7.3516 H   0  0  0  0  0  0  0  0  0  0  0  0
   45.5983  -15.1538   -6.5555 H   0  0  0  0  0  0  0  0  0  0  0  0
   51.7636  -20.1245   -2.7132 H   0  0  0  0  0  0  0  0  0  0  0  0
  2  1  1  0
  3  1  1  0
  4  6  1  0
  5  7  1  0
  6  2  2  0
  7  3  2  0
  8 14  1  0
  9  1  1  0
 10  2  1  0
 11  3  1  0
 12  6  1  0
 13  7  1  0
 14 16  1  0
 15  8  1  0
 16  9  1  0
 17 10  2  0
 18 11  2  0
 19 18  1  0
 20 17  1  0
  5  4  2  0
 19 13  2  0
 20 12  2  0
  1 21  1  0
  4 22  1  0
  5 23  1  0
  8 24  1  0
  9 25  1  0
  9 26  1  0
 10 27  1  0
 11 28  1  0
 12 29  1  0
 13 30  1  0
 14 31  1  0
 14 32  1  0
 15 33  1  0
 15 34  1  0
 15 35  1  0
 16 36  1  0
 16 37  1  0
 17 38  1  0
 18 39  1  0
 19 40  1  0
 20 41  1  0
M  END
> <Uni-Dock RESULT> 
ENERGY=   -5.207  LOWER_BOUND=    2.153  UPPER_BOUND=    4.562
INTER + INTRA:          -5.207
INTER:                  -5.207
INTRA:                   0.000
UNBOUND:                 0.000

$$$$

     RDKit          3D

 41 43  0  0  0  0  0  0  0  0999 V2000
   49.2616  -16.6783   -7.7578 C   0  0  0  0  0  0  0  0  0  0  0  0
   48.8278  -16.5995   -9.2103 C   0  0  0  0  0  0  0  0  0  0  0  0
   48.3844  -17.7098   -7.0664 C   0  0  0  0  0  0  0  0  0  0  0  0
   46.6250  -15.5431   -8.4822 C   0  0  0  0  0  0  0  0  0  0  0  0
   46.3877  -16.1431   -7.3032 C   0  0  0  0  0  0  0  0  0  0  0  0
   47.5640  -16.0351   -9.5232 C   0  0  0  0  0  0  0  0  0  0  0  0
   47.0160  -17.4079   -6.8432 C   0  0  0  0  0  0  0  0  0  0  0  0
   53.0708  -16.5454   -4.4890 N   0  0  0  0  0  0  0  0  0  0  0  0
   50.7926  -16.8250   -7.5446 C   0  0  0  0  0  0  0  0  0  0  0  0
   49.6217  -17.1138  -10.2584 C   0  0  0  0  0  0  0  0  0  0  0  0
   48.8663  -18.9848   -6.6967 C   0  0  0  0  0  0  0  0  0  0  0  0
   47.1781  -15.9049  -10.8671 C   0  0  0  0  0  0  0  0  0  0  0  0
   46.2079  -18.3250   -6.1520 C   0  0  0  0  0  0  0  0  0  0  0  0
   52.7133  -16.7480   -5.8976 C   0  0  0  0  0  0  0  0  0  0  0  0
   54.4999  -16.7904   -4.2881 C   0  0  0  0  0  0  0  0  0  0  0  0
   51.1999  -16.6013   -6.0785 C   0  0  0  0  0  0  0  0  0  0  0  0
   49.2067  -16.9998  -11.5863 C   0  0  0  0  0  0  0  0  0  0  0  0
   48.0388  -19.8940   -6.0357 C   0  0  0  0  0  0  0  0  0  0  0  0
   46.7175  -19.5591   -5.7500 C   0  0  0  0  0  0  0  0  0  0  0  0
   47.9944  -16.3853  -11.8909 C   0  0  0  0  0  0  0  0  0  0  0  0
   49.0267  -15.6881   -7.3059 H   0  0  0  0  0  0  0  0  0  0  0  0
   46.0067  -14.6898   -8.7356 H   0  0  0  0  0  0  0  0  0  0  0  0
   45.5944  -15.7314   -6.6901 H   0  0  0  0  0  0  0  0  0  0  0  0
   52.8892  -15.5426   -4.2477 H   0  0  0  0  0  0  0  0  0  0  0  0
   51.1581  -17.8136   -7.8903 H   0  0  0  0  0  0  0  0  0  0  0  0
   51.3063  -16.0547   -8.1618 H   0  0  0  0  0  0  0  0  0  0  0  0
   50.5677  -17.5983  -10.0663 H   0  0  0  0  0  0  0  0  0  0  0  0
   49.8814  -19.2893   -6.8989 H   0  0  0  0  0  0  0  0  0  0  0  0
   46.2283  -15.4509  -11.1232 H   0  0  0  0  0  0  0  0  0  0  0  0
   45.1688  -18.0955   -5.9481 H   0  0  0  0  0  0  0  0  0  0  0  0
   53.2377  -16.0023   -6.5379 H   0  0  0  0  0  0  0  0  0  0  0  0
   53.0126  -17.7711   -6.2195 H   0  0  0  0  0  0  0  0  0  0  0  0
   55.1127  -16.1118   -4.9221 H   0  0  0  0  0  0  0  0  0  0  0  0
   54.7580  -16.6065   -3.2238 H   0  0  0  0  0  0  0  0  0  0  0  0
   54.7472  -17.8480   -4.5229 H   0  0  0  0  0  0  0  0  0  0  0  0
   50.8927  -15.5802   -5.7626 H   0  0  0  0  0  0  0  0  0  0  0  0
   50.6881  -17.3360   -5.4215 H   0  0  0  0  0  0  0  0  0  0  0  0
   49.8302  -17.3863  -12.3823 H   0  0  0  0  0  0  0  0  0  0  0  0
   48.4255  -20.8612   -5.7413 H   0  0  0  0  0  0  0  0  0  0  0  0
   46.0810  -20.2645   -5.2315 H   0  0  0  0  0  0  0  0  0  0  0  0
   47.6795  -16.2925  -12.9224 H   0  0  0  0  0  0  0  0  0  0  0  0
  2  1  1  0
  3  1  1  0
  4  6  1  0
  5  7  1  0
  6  2  2  0
  7  3  2  0
  8 14  1  0
  9  1  1  0
 10  2  1  0
 11  3  1  0
 12  6  1  0
 13  7  1  0
 14 16  1  0
 15  8  1  0
 16  9  1  0
 17 10  2  0
 18 11  2  0
 19 18  1  0
 20 17  1  0
  5  4  2  0
 19 13  2  0
 20 12  2  0
  1 21  1  0
  4 22  1  0
  5 23  1  0
  8 24  1  0
  9 25  1  0
  9 26  1  0
 10 27  1  0
 11 28  1  0
 12 29  1  0
 13 30  1  0
 14 31  1  0
 14 32  1  0
 15 33  1  0
 15 34  1  0
 15 35  1  0
 16 36  1  0
 16 37  1  0
 17 38  1  0
 18 39  1  0
 19 40  1  0
 20 41  1  0
M  END
> <Uni-Dock RESULT> 
ENERGY=   -5.154  LOWER_BOUND=    2.594  UPPER_BOUND=    4.828
INTER + INTRA:          -5.154
INTER:                  -5.154
INTRA:                   0.000
UNBOUND:                 0.000

$$$$

     RDKit          3D

 41 43  0  0  0  0  0  0  0  0999 V2000
   49.3066  -17.9812   -7.9654 C   0  0  0  0  0  0  0  0  0  0  0  0
   48.1806  -18.4881   -7.0825 C   0  0  0  0  0  0  0  0  0  0  0  0
   49.7843  -16.6559   -7.3937 C   0  0  0  0  0  0  0  0  0  0  0  0
   46.6972  -16.5840   -7.9024 C   0  0  0  0  0  0  0  0  0  0  0  0
   47.5768  -15.5841   -8.0832 C   0  0  0  0  0  0  0  0  0  0  0  0
   46.9377  -17.8035   -7.0885 C   0  0  0  0  0  0  0  0  0  0  0  0
   48.9373  -15.5216   -7.4906 C   0  0  0  0  0  0  0  0  0  0  0  0
   53.3162  -19.1422  -10.7560 N   0  0  0  0  0  0  0  0  0  0  0  0
   50.4073  -19.0302   -8.2800 C   0  0  0  0  0  0  0  0  0  0  0  0
   48.3452  -19.5923   -6.2181 C   0  0  0  0  0  0  0  0  0  0  0  0
   51.0138  -16.5274   -6.7108 C   0  0  0  0  0  0  0  0  0  0  0  0
   45.8718  -18.2980   -6.3194 C   0  0  0  0  0  0  0  0  0  0  0  0
   49.3891  -14.2773   -7.0219 C   0  0  0  0  0  0  0  0  0  0  0  0
   52.4226  -19.6187   -9.6942 C   0  0  0  0  0  0  0  0  0  0  0  0
   54.4071  -20.0952  -10.9664 C   0  0  0  0  0  0  0  0  0  0  0  0
   51.3505  -18.5650   -9.4022 C   0  0  0  0  0  0  0  0  0  0  0  0
   47.2808  -20.0510   -5.4401 C   0  0  0  0  0  0  0  0  0  0  0  0
   51.4325  -15.2870   -6.2266 C   0  0  0  0  0  0  0  0  0  0  0  0
   50.6296  -14.1618   -6.3955 C   0  0  0  0  0  0  0  0  0  0  0  0
   46.0437  -19.4137   -5.5004 C   0  0  0  0  0  0  0  0  0  0  0  0
   48.8538  -17.7684   -8.9602 H   0  0  0  0  0  0  0  0  0  0  0  0
   45.6981  -16.4406   -8.2974 H   0  0  0  0  0  0  0  0  0  0  0  0
   47.2242  -14.7051   -8.6103 H   0  0  0  0  0  0  0  0  0  0  0  0
   52.7674  -19.0947  -11.6468 H   0  0  0  0  0  0  0  0  0  0  0  0
   50.9958  -19.2856   -7.3751 H   0  0  0  0  0  0  0  0  0  0  0  0
   49.9104  -19.9663   -8.6193 H   0  0  0  0  0  0  0  0  0  0  0  0
   49.2874  -20.1143   -6.1403 H   0  0  0  0  0  0  0  0  0  0  0  0
   51.6679  -17.3711   -6.5543 H   0  0  0  0  0  0  0  0  0  0  0  0
   44.9085  -17.8023   -6.3349 H   0  0  0  0  0  0  0  0  0  0  0  0
   48.7654  -13.3965   -7.1161 H   0  0  0  0  0  0  0  0  0  0  0  0
   51.9331  -20.5707  -10.0027 H   0  0  0  0  0  0  0  0  0  0  0  0
   53.0059  -19.8003   -8.7633 H   0  0  0  0  0  0  0  0  0  0  0  0
   54.0118  -21.0975  -11.2436 H   0  0  0  0  0  0  0  0  0  0  0  0
   55.0575  -19.7330  -11.7903 H   0  0  0  0  0  0  0  0  0  0  0  0
   55.0297  -20.1781  -10.0496 H   0  0  0  0  0  0  0  0  0  0  0  0
   50.7603  -18.3802  -10.3264 H   0  0  0  0  0  0  0  0  0  0  0  0
   51.8505  -17.6160   -9.1146 H   0  0  0  0  0  0  0  0  0  0  0  0
   47.4156  -20.9066   -4.7910 H   0  0  0  0  0  0  0  0  0  0  0  0
   52.3855  -15.1982   -5.7210 H   0  0  0  0  0  0  0  0  0  0  0  0
   50.9608  -13.2005   -6.0244 H   0  0  0  0  0  0  0  0  0  0  0  0
   45.2188  -19.7769   -4.9009 H   0  0  0  0  0  0  0  0  0  0  0  0
  2  1  1  0
  3  1  1  0
  4  6  1  0
  5  7  1  0
  6  2  2  0
  7  3  2  0
  8 14  1  0
  9  1  1  0
 10  2  1  0
 11  3  1  0
 12  6  1  0
 13  7  1  0
 14 16  1  0
 15  8  1  0
 16  9  1  0
 17 10  2  0
 18 11  2  0
 19 18  1  0
 20 17  1  0
  5  4  2  0
 19 13  2  0
 20 12  2  0
  1 21  1  0
  4 22  1  0
  5 23  1  0
  8 24  1  0
  9 25  1  0
  9 26  1  0
 10 27  1  0
 11 28  1  0
 12 29  1  0
 13 30  1  0
 14 31  1  0
 14 32  1  0
 15 33  1  0
 15 34  1  0
 15 35  1  0
 16 36  1  0
 16 37  1  0
 17 38  1  0
 18 39  1  0
 19 40  1  0
 20 41  1  0
M  END
> <Uni-Dock RESULT> 
ENERGY=   -5.091  LOWER_BOUND=    1.062  UPPER_BOUND=    1.945
INTER + INTRA:          -5.091
INTER:                  -5.091
INTRA:                   0.000
UNBOUND:                 0.000

$$$$

     RDKit          3D

 41 43  0  0  0  0  0  0  0  0999 V2000
   47.9293  -17.4207   -8.2485 C   0  0  0  0  0  0  0  0  0  0  0  0
   48.8614  -16.3911   -7.6356 C   0  0  0  0  0  0  0  0  0  0  0  0
   47.4421  -18.3294   -7.1313 C   0  0  0  0  0  0  0  0  0  0  0  0
   50.5696  -18.2276   -7.1795 C   0  0  0  0  0  0  0  0  0  0  0  0
   49.7925  -19.2915   -6.9140 C   0  0  0  0  0  0  0  0  0  0  0  0
   50.1261  -16.8099   -7.1471 C   0  0  0  0  0  0  0  0  0  0  0  0
   48.3586  -19.2315   -6.5316 C   0  0  0  0  0  0  0  0  0  0  0  0
   44.3773  -18.3769  -11.6663 N   0  0  0  0  0  0  0  0  0  0  0  0
   46.8364  -16.8327   -9.1817 C   0  0  0  0  0  0  0  0  0  0  0  0
   48.4910  -15.0363   -7.4922 C   0  0  0  0  0  0  0  0  0  0  0  0
   46.1260  -18.2626   -6.6234 C   0  0  0  0  0  0  0  0  0  0  0  0
   51.0187  -15.8564   -6.6310 C   0  0  0  0  0  0  0  0  0  0  0  0
   47.9091  -20.1194   -5.5408 C   0  0  0  0  0  0  0  0  0  0  0  0
   45.0527  -17.3150  -10.9119 C   0  0  0  0  0  0  0  0  0  0  0  0
   43.2823  -17.8172  -12.4602 C   0  0  0  0  0  0  0  0  0  0  0  0
   46.1215  -17.9221   -9.9987 C   0  0  0  0  0  0  0  0  0  0  0  0
   49.3827  -14.1091   -6.9503 C   0  0  0  0  0  0  0  0  0  0  0  0
   45.7064  -19.1349   -5.6177 C   0  0  0  0  0  0  0  0  0  0  0  0
   46.5909  -20.0714   -5.0887 C   0  0  0  0  0  0  0  0  0  0  0  0
   50.6480  -14.5155   -6.5329 C   0  0  0  0  0  0  0  0  0  0  0  0
   48.5526  -18.0411   -8.9315 H   0  0  0  0  0  0  0  0  0  0  0  0
   51.6271  -18.4129   -7.3283 H   0  0  0  0  0  0  0  0  0  0  0  0
   50.2787  -20.2590   -6.8668 H   0  0  0  0  0  0  0  0  0  0  0  0
   45.0681  -18.7909  -12.3358 H   0  0  0  0  0  0  0  0  0  0  0  0
   46.0919  -16.2396   -8.6122 H   0  0  0  0  0  0  0  0  0  0  0  0
   47.3268  -16.1367   -9.8982 H   0  0  0  0  0  0  0  0  0  0  0  0
   47.5199  -14.6794   -7.8020 H   0  0  0  0  0  0  0  0  0  0  0  0
   45.4066  -17.5525   -7.0005 H   0  0  0  0  0  0  0  0  0  0  0  0
   51.9986  -16.1566   -6.2797 H   0  0  0  0  0  0  0  0  0  0  0  0
   48.5905  -20.8340   -5.0949 H   0  0  0  0  0  0  0  0  0  0  0  0
   45.5298  -16.5909  -11.6114 H   0  0  0  0  0  0  0  0  0  0  0  0
   44.3133  -16.7711  -10.2815 H   0  0  0  0  0  0  0  0  0  0  0  0
   43.6586  -17.0472  -13.1698 H   0  0  0  0  0  0  0  0  0  0  0  0
   42.8001  -18.6290  -13.0447 H   0  0  0  0  0  0  0  0  0  0  0  0
   42.5124  -17.3699  -11.7952 H   0  0  0  0  0  0  0  0  0  0  0  0
   46.8667  -18.4645  -10.6209 H   0  0  0  0  0  0  0  0  0  0  0  0
   45.6374  -18.6556   -9.3197 H   0  0  0  0  0  0  0  0  0  0  0  0
   49.0921  -13.0705   -6.8574 H   0  0  0  0  0  0  0  0  0  0  0  0
   44.6896  -19.0858   -5.2497 H   0  0  0  0  0  0  0  0  0  0  0  0
   46.2597  -20.7504   -4.3135 H   0  0  0  0  0  0  0  0  0  0  0  0
   51.3392  -13.7921   -6.1198 H   0  0  0  0  0  0  0  0  0  0  0  0
  2  1  1  0
  3  1  1  0
  4  6  1  0
  5  7  1  0
  6  2  2  0
  7  3  2  0
  8 14  1  0
  9  1  1  0
 10  2  1  0
 11  3  1  0
 12  6  1  0
 13  7  1  0
 14 16  1  0
 15  8  1  0
 16  9  1  0
 17 10  2  0
 18 11  2  0
 19 18  1  0
 20 17  1  0
  5  4  2  0
 19 13  2  0
 20 12  2  0
  1 21  1  0
  4 22  1  0
  5 23  1  0
  8 24  1  0
  9 25  1  0
  9 26  1  0
 10 27  1  0
 11 28  1  0
 12 29  1  0
 13 30  1  0
 14 31  1  0
 14 32  1  0
 15 33  1  0
 15 34  1  0
 15 35  1  0
 16 36  1  0
 16 37  1  0
 17 38  1  0
 18 39  1  0
 19 40  1  0
 20 41  1  0
M  END
> <Uni-Dock RESULT> 
ENERGY=   -5.088  LOWER_BOUND=    3.147  UPPER_BOUND=    5.919
INTER + INTRA:          -5.088
INTER:                  -5.088
INTRA:                   0.000
UNBOUND:                 0.000

$$$$

     RDKit          3D

 41 43  0  0  0  0  0  0  0  0999 V2000
   47.4288  -16.7113  -10.7203 C   0  0  0  0  0  0  0  0  0  0  0  0
   47.1387  -16.5586   -9.2382 C   0  0  0  0  0  0  0  0  0  0  0  0
   46.2896  -16.0579  -11.4863 C   0  0  0  0  0  0  0  0  0  0  0  0
   45.1826  -18.1772   -9.4671 C   0  0  0  0  0  0  0  0  0  0  0  0
   44.7245  -17.9107  -10.7021 C   0  0  0  0  0  0  0  0  0  0  0  0
   46.0640  -17.2881   -8.6669 C   0  0  0  0  0  0  0  0  0  0  0  0
   45.0121  -16.6754  -11.4750 C   0  0  0  0  0  0  0  0  0  0  0  0
   50.9025  -16.7696  -14.3456 N   0  0  0  0  0  0  0  0  0  0  0  0
   48.8654  -16.3037  -11.1459 C   0  0  0  0  0  0  0  0  0  0  0  0
   47.8746  -15.6764   -8.4175 C   0  0  0  0  0  0  0  0  0  0  0  0
   46.4397  -14.8232  -12.1552 C   0  0  0  0  0  0  0  0  0  0  0  0
   45.8235  -17.1983   -7.2862 C   0  0  0  0  0  0  0  0  0  0  0  0
   43.9658  -16.1169  -12.2270 C   0  0  0  0  0  0  0  0  0  0  0  0
   50.6193  -16.3423  -12.9707 C   0  0  0  0  0  0  0  0  0  0  0  0
   52.2188  -16.2865  -14.7658 C   0  0  0  0  0  0  0  0  0  0  0  0
   49.1973  -16.7534  -12.5787 C   0  0  0  0  0  0  0  0  0  0  0  0
   47.6010  -15.5806   -7.0520 C   0  0  0  0  0  0  0  0  0  0  0  0
   45.3789  -14.2697  -12.8738 C   0  0  0  0  0  0  0  0  0  0  0  0
   44.1497  -14.9226  -12.9227 C   0  0  0  0  0  0  0  0  0  0  0  0
   46.5869  -16.3492   -6.4854 C   0  0  0  0  0  0  0  0  0  0  0  0
   47.3899  -17.8028  -10.9369 H   0  0  0  0  0  0  0  0  0  0  0  0
   44.7954  -19.0630   -8.9769 H   0  0  0  0  0  0  0  0  0  0  0  0
   43.9998  -18.6000  -11.1197 H   0  0  0  0  0  0  0  0  0  0  0  0
   50.9347  -17.8163  -14.3614 H   0  0  0  0  0  0  0  0  0  0  0  0
   49.0232  -15.2101  -11.0484 H   0  0  0  0  0  0  0  0  0  0  0  0
   49.5867  -16.7987  -10.4582 H   0  0  0  0  0  0  0  0  0  0  0  0
   48.6683  -15.0620   -8.8163 H   0  0  0  0  0  0  0  0  0  0  0  0
   47.3721  -14.2803  -12.1438 H   0  0  0  0  0  0  0  0  0  0  0  0
   45.0241  -17.7705   -6.8307 H   0  0  0  0  0  0  0  0  0  0  0  0
   42.9932  -16.5936  -12.2517 H   0  0  0  0  0  0  0  0  0  0  0  0
   51.3473  -16.8066  -12.2667 H   0  0  0  0  0  0  0  0  0  0  0  0
   50.7031  -15.2346  -12.8949 H   0  0  0  0  0  0  0  0  0  0  0  0
   53.0169  -16.6699  -14.0921 H   0  0  0  0  0  0  0  0  0  0  0  0
   52.4282  -16.6411  -15.7971 H   0  0  0  0  0  0  0  0  0  0  0  0
   52.2376  -15.1754  -14.7751 H   0  0  0  0  0  0  0  0  0  0  0  0
   49.1058  -17.8595  -12.6481 H   0  0  0  0  0  0  0  0  0  0  0  0
   48.4827  -16.3007  -13.2983 H   0  0  0  0  0  0  0  0  0  0  0  0
   48.1807  -14.9103   -6.4306 H   0  0  0  0  0  0  0  0  0  0  0  0
   45.5122  -13.3318  -13.3975 H   0  0  0  0  0  0  0  0  0  0  0  0
   43.3315  -14.4933  -13.4864 H   0  0  0  0  0  0  0  0  0  0  0  0
   46.3825  -16.2774   -5.4248 H   0  0  0  0  0  0  0  0  0  0  0  0
  2  1  1  0
  3  1  1  0
  4  6  1  0
  5  7  1  0
  6  2  2  0
  7  3  2  0
  8 14  1  0
  9  1  1  0
 10  2  1  0
 11  3  1  0
 12  6  1  0
 13  7  1  0
 14 16  1  0
 15  8  1  0
 16  9  1  0
 17 10  2  0
 18 11  2  0
 19 18  1  0
 20 17  1  0
  5  4  2  0
 19 13  2  0
 20 12  2  0
  1 21  1  0
  4 22  1  0
  5 23  1  0
  8 24  1  0
  9 25  1  0
  9 26  1  0
 10 27  1  0
 11 28  1  0
 12 29  1  0
 13 30  1  0
 14 31  1  0
 14 32  1  0
 15 33  1  0
 15 34  1  0
 15 35  1  0
 16 36  1  0
 16 37  1  0
 17 38  1  0
 18 39  1  0
 19 40  1  0
 20 41  1  0
M  END
> <Uni-Dock RESULT> 
ENERGY=   -4.443  LOWER_BOUND=    4.260  UPPER_BOUND=    6.263
INTER + INTRA:          -4.443
INTER:                  -4.443
INTRA:                   0.000
UNBOUND:                 0.000

$$$$
