
     RDKit          3D

 41 43  0  0  0  0  0  0  0  0999 V2000
   50.2119  -17.0290   -7.9817 C   0  0  0  0  0  0  0  0  0  0  0  0
   48.8075  -17.1368   -7.4157 C   0  0  0  0  0  0  0  0  0  0  0  0
   51.1146  -16.4876   -6.8847 C   0  0  0  0  0  0  0  0  0  0  0  0
   48.6624  -14.5935   -7.3245 C   0  0  0  0  0  0  0  0  0  0  0  0
   49.9277  -14.2375   -7.0443 C   0  0  0  0  0  0  0  0  0  0  0  0
   48.0872  -15.9490   -7.1267 C   0  0  0  0  0  0  0  0  0  0  0  0
   50.9658  -15.1363   -6.4782 C   0  0  0  0  0  0  0  0  0  0  0  0
   53.6843  -19.0202  -11.0132 N   0  0  0  0  0  0  0  0  0  0  0  0
   50.7137  -18.2997   -8.7196 C   0  0  0  0  0  0  0  0  0  0  0  0
   48.2116  -18.3827   -7.1220 C   0  0  0  0  0  0  0  0  0  0  0  0
   52.0521  -17.2994   -6.2091 C   0  0  0  0  0  0  0  0  0  0  0  0
   46.7667  -16.0377   -6.6571 C   0  0  0  0  0  0  0  0  0  0  0  0
   51.8323  -14.6048   -5.5093 C   0  0  0  0  0  0  0  0  0  0  0  0
   52.4736  -19.3063  -10.2353 C   0  0  0  0  0  0  0  0  0  0  0  0
   54.0837  -20.2000  -11.7820 C   0  0  0  0  0  0  0  0  0  0  0  0
   52.0003  -18.0374   -9.5204 C   0  0  0  0  0  0  0  0  0  0  0  0
   46.9075  -18.4482   -6.6290 C   0  0  0  0  0  0  0  0  0  0  0  0
   52.8851  -16.7588   -5.2282 C   0  0  0  0  0  0  0  0  0  0  0  0
   52.7864  -15.4114   -4.8901 C   0  0  0  0  0  0  0  0  0  0  0  0
   46.1821  -17.2795   -6.4094 C   0  0  0  0  0  0  0  0  0  0  0  0
   50.1684  -16.2586   -8.7846 H   0  0  0  0  0  0  0  0  0  0  0  0
   47.9812  -13.8043   -7.6211 H   0  0  0  0  0  0  0  0  0  0  0  0
   50.1767  -13.1864   -7.1341 H   0  0  0  0  0  0  0  0  0  0  0  0
   54.4603  -18.8079  -10.3423 H   0  0  0  0  0  0  0  0  0  0  0  0
   49.9256  -18.6207   -9.4367 H   0  0  0  0  0  0  0  0  0  0  0  0
   50.8737  -19.1420   -8.0158 H   0  0  0  0  0  0  0  0  0  0  0  0
   48.7389  -19.3125   -7.2767 H   0  0  0  0  0  0  0  0  0  0  0  0
   52.1632  -18.3484   -6.4356 H   0  0  0  0  0  0  0  0  0  0  0  0
   46.1941  -15.1396   -6.4581 H   0  0  0  0  0  0  0  0  0  0  0  0
   51.7499  -13.5666   -5.2105 H   0  0  0  0  0  0  0  0  0  0  0  0
   51.6633  -19.6574  -10.9133 H   0  0  0  0  0  0  0  0  0  0  0  0
   52.6805  -20.1003   -9.4816 H   0  0  0  0  0  0  0  0  0  0  0  0
   53.2956  -20.4660  -12.5188 H   0  0  0  0  0  0  0  0  0  0  0  0
   54.2772  -21.0657  -11.1102 H   0  0  0  0  0  0  0  0  0  0  0  0
   55.0152  -19.9749  -12.3431 H   0  0  0  0  0  0  0  0  0  0  0  0
   51.8102  -17.2455  -10.2777 H   0  0  0  0  0  0  0  0  0  0  0  0
   52.8060  -17.6832   -8.8433 H   0  0  0  0  0  0  0  0  0  0  0  0
   46.4566  -19.4099   -6.4199 H   0  0  0  0  0  0  0  0  0  0  0  0
   53.6125  -17.3875   -4.7306 H   0  0  0  0  0  0  0  0  0  0  0  0
   53.4386  -14.9946   -4.1336 H   0  0  0  0  0  0  0  0  0  0  0  0
   45.1685  -17.3349   -6.0336 H   0  0  0  0  0  0  0  0  0  0  0  0
  2  1  1  0
  3  1  1  0
  4  6  1  0
  5  7  1  0
  6  2  2  0
  7  3  2  0
  8 14  1  0
  9  1  1  0
 10  2  1  0
 11  3  1  0
 12  6  1  0
 13  7  1  0
 14 16  1  0
 15  8  1  0
 16  9  1  0
 17 10  2  0
 18 11  2  0
 19 18  1  0
 20 17  1  0
  5  4  2  0
 19 13  2  0
 20 12  2  0
  1 21  1  0
  4 22  1  0
  5 23  1  0
  8 24  1  0
  9 25  1  0
  9 26  1  0
 10 27  1  0
 11 28  1  0
 12 29  1  0
 13 30  1  0
 14 31  1  0
 14 32  1  0
 15 33  1  0
 15 34  1  0
 15 35  1  0
 16 36  1  0
 16 37  1  0
 17 38  1  0
 18 39  1  0
 19 40  1  0
 20 41  1  0
M  END
> <Uni-Dock RESULT> 
ENERGY=   -6.170  LOWER_BOUND=    0.000  UPPER_BOUND=    0.000
INTER + INTRA:          -6.170
INTER:                  -6.170
INTRA:                   0.000
UNBOUND:                 0.000

$$$$

     RDKit          3D

 41 43  0  0  0  0  0  0  0  0999 V2000
   50.2957  -16.7933   -8.2714 C   0  0  0  0  0  0  0  0  0  0  0  0
   48.8630  -16.7644   -7.7706 C   0  0  0  0  0  0  0  0  0  0  0  0
   51.2125  -16.7189   -7.0609 C   0  0  0  0  0  0  0  0  0  0  0  0
   49.1782  -14.3407   -7.0465 C   0  0  0  0  0  0  0  0  0  0  0  0
   50.4674  -14.3131   -6.6679 C   0  0  0  0  0  0  0  0  0  0  0  0
   48.3546  -15.5673   -7.2032 C   0  0  0  0  0  0  0  0  0  0  0  0
   51.2876  -15.5046   -6.3306 C   0  0  0  0  0  0  0  0  0  0  0  0
   53.5276  -18.6140  -11.6554 N   0  0  0  0  0  0  0  0  0  0  0  0
   50.6022  -17.9179   -9.2972 C   0  0  0  0  0  0  0  0  0  0  0  0
   48.0332  -17.9061   -7.8074 C   0  0  0  0  0  0  0  0  0  0  0  0
   51.9430  -17.8350   -6.5971 C   0  0  0  0  0  0  0  0  0  0  0  0
   47.0136  -15.5128   -6.7898 C   0  0  0  0  0  0  0  0  0  0  0  0
   52.1749  -15.4014   -5.2471 C   0  0  0  0  0  0  0  0  0  0  0  0
   52.2394  -18.8433  -10.9916 C   0  0  0  0  0  0  0  0  0  0  0  0
   53.7522  -19.6250  -12.6898 C   0  0  0  0  0  0  0  0  0  0  0  0
   51.9619  -17.7203   -9.9881 C   0  0  0  0  0  0  0  0  0  0  0  0
   46.7111  -17.8385   -7.3652 C   0  0  0  0  0  0  0  0  0  0  0  0
   52.7984  -17.7197   -5.5002 C   0  0  0  0  0  0  0  0  0  0  0  0
   52.9261  -16.5020   -4.8364 C   0  0  0  0  0  0  0  0  0  0  0  0
   46.1985  -16.6417   -6.8699 C   0  0  0  0  0  0  0  0  0  0  0  0
   50.4429  -15.8570   -8.8559 H   0  0  0  0  0  0  0  0  0  0  0  0
   48.6717  -13.3875   -7.1453 H   0  0  0  0  0  0  0  0  0  0  0  0
   50.9087  -13.3397   -6.4876 H   0  0  0  0  0  0  0  0  0  0  0  0
   54.2864  -18.7243  -10.9418 H   0  0  0  0  0  0  0  0  0  0  0  0
   49.8146  -17.8974  -10.0830 H   0  0  0  0  0  0  0  0  0  0  0  0
   50.5624  -18.9209   -8.8249 H   0  0  0  0  0  0  0  0  0  0  0  0
   48.3908  -18.8536   -8.1827 H   0  0  0  0  0  0  0  0  0  0  0  0
   51.8749  -18.7984   -7.0779 H   0  0  0  0  0  0  0  0  0  0  0  0
   46.6030  -14.5977   -6.3801 H   0  0  0  0  0  0  0  0  0  0  0  0
   52.2647  -14.4713   -4.6986 H   0  0  0  0  0  0  0  0  0  0  0  0
   51.4221  -18.8566  -11.7474 H   0  0  0  0  0  0  0  0  0  0  0  0
   52.2514  -19.8214  -10.4583 H   0  0  0  0  0  0  0  0  0  0  0  0
   52.9757  -19.5474  -13.4810 H   0  0  0  0  0  0  0  0  0  0  0  0
   53.7429  -20.6488  -12.2540 H   0  0  0  0  0  0  0  0  0  0  0  0
   54.7419  -19.4529  -13.1632 H   0  0  0  0  0  0  0  0  0  0  0  0
   51.9663  -16.7464  -10.5252 H   0  0  0  0  0  0  0  0  0  0  0  0
   52.7754  -17.7029   -9.2323 H   0  0  0  0  0  0  0  0  0  0  0  0
   46.0806  -18.7173   -7.4105 H   0  0  0  0  0  0  0  0  0  0  0  0
   53.3670  -18.5780   -5.1658 H   0  0  0  0  0  0  0  0  0  0  0  0
   53.5954  -16.4151   -3.9903 H   0  0  0  0  0  0  0  0  0  0  0  0
   45.1706  -16.5915   -6.5345 H   0  0  0  0  0  0  0  0  0  0  0  0
  2  1  1  0
  3  1  1  0
  4  6  1  0
  5  7  1  0
  6  2  2  0
  7  3  2  0
  8 14  1  0
  9  1  1  0
 10  2  1  0
 11  3  1  0
 12  6  1  0
 13  7  1  0
 14 16  1  0
 15  8  1  0
 16  9  1  0
 17 10  2  0
 18 11  2  0
 19 18  1  0
 20 17  1  0
  5  4  2  0
 19 13  2  0
 20 12  2  0
  1 21  1  0
  4 22  1  0
  5 23  1  0
  8 24  1  0
  9 25  1  0
  9 26  1  0
 10 27  1  0
 11 28  1  0
 12 29  1  0
 13 30  1  0
 14 31  1  0
 14 32  1  0
 15 33  1  0
 15 34  1  0
 15 35  1  0
 16 36  1  0
 16 37  1  0
 17 38  1  0
 18 39  1  0
 19 40  1  0
 20 41  1  0
M  END
> <Uni-Dock RESULT> 
ENERGY=   -5.638  LOWER_BOUND=    0.714  UPPER_BOUND=    0.758
INTER + INTRA:          -5.638
INTER:                  -5.638
INTRA:                   0.000
UNBOUND:                 0.000

$$$$

     RDKit          3D

 41 43  0  0  0  0  0  0  0  0999 V2000
   49.4631  -17.0622   -7.9990 C   0  0  0  0  0  0  0  0  0  0  0  0
   50.4568  -16.4695   -7.0164 C   0  0  0  0  0  0  0  0  0  0  0  0
   48.3956  -17.7902   -7.1978 C   0  0  0  0  0  0  0  0  0  0  0  0
   51.2469  -18.8180   -6.4179 C   0  0  0  0  0  0  0  0  0  0  0  0
   50.1206  -19.5431   -6.5276 C   0  0  0  0  0  0  0  0  0  0  0  0
   51.3077  -17.3393   -6.2864 C   0  0  0  0  0  0  0  0  0  0  0  0
   48.7418  -18.9908   -6.5253 C   0  0  0  0  0  0  0  0  0  0  0  0
   47.0108  -16.5059  -12.3451 N   0  0  0  0  0  0  0  0  0  0  0  0
   48.9540  -16.0739   -9.0829 C   0  0  0  0  0  0  0  0  0  0  0  0
   50.5293  -15.0812   -6.7694 C   0  0  0  0  0  0  0  0  0  0  0  0
   47.0876  -17.2803   -7.0443 C   0  0  0  0  0  0  0  0  0  0  0  0
   52.2694  -16.7983   -5.4180 C   0  0  0  0  0  0  0  0  0  0  0  0
   47.7526  -19.7065   -5.8317 C   0  0  0  0  0  0  0  0  0  0  0  0
   47.7039  -15.7930  -11.2662 C   0  0  0  0  0  0  0  0  0  0  0  0
   46.6288  -15.5726  -13.4060 C   0  0  0  0  0  0  0  0  0  0  0  0
   48.1962  -16.7903  -10.2134 C   0  0  0  0  0  0  0  0  0  0  0  0
   51.4740  -14.5657   -5.8807 C   0  0  0  0  0  0  0  0  0  0  0  0
   46.1258  -17.9930   -6.3265 C   0  0  0  0  0  0  0  0  0  0  0  0
   46.4530  -19.2106   -5.7349 C   0  0  0  0  0  0  0  0  0  0  0  0
   52.3505  -15.4206   -5.2165 C   0  0  0  0  0  0  0  0  0  0  0  0
   50.0193  -17.8298   -8.5833 H   0  0  0  0  0  0  0  0  0  0  0  0
   52.1777  -19.3637   -6.3140 H   0  0  0  0  0  0  0  0  0  0  0  0
   50.2231  -20.6218   -6.5036 H   0  0  0  0  0  0  0  0  0  0  0  0
   46.1279  -16.9112  -11.9536 H   0  0  0  0  0  0  0  0  0  0  0  0
   49.8355  -15.5652   -9.5329 H   0  0  0  0  0  0  0  0  0  0  0  0
   48.3131  -15.2826   -8.6429 H   0  0  0  0  0  0  0  0  0  0  0  0
   49.8682  -14.3837   -7.2623 H   0  0  0  0  0  0  0  0  0  0  0  0
   46.7888  -16.3409   -7.4828 H   0  0  0  0  0  0  0  0  0  0  0  0
   52.9448  -17.4483   -4.8745 H   0  0  0  0  0  0  0  0  0  0  0  0
   47.9955  -20.6400   -5.3384 H   0  0  0  0  0  0  0  0  0  0  0  0
   48.5819  -15.2461  -11.6778 H   0  0  0  0  0  0  0  0  0  0  0  0
   47.0158  -15.0592  -10.7874 H   0  0  0  0  0  0  0  0  0  0  0  0
   47.5330  -15.1171  -13.8640 H   0  0  0  0  0  0  0  0  0  0  0  0
   45.9642  -14.7722  -13.0112 H   0  0  0  0  0  0  0  0  0  0  0  0
   46.0827  -16.1233  -14.2008 H   0  0  0  0  0  0  0  0  0  0  0  0
   48.8703  -17.5279  -10.7016 H   0  0  0  0  0  0  0  0  0  0  0  0
   47.3234  -17.3387   -9.8003 H   0  0  0  0  0  0  0  0  0  0  0  0
   51.5286  -13.4982   -5.7094 H   0  0  0  0  0  0  0  0  0  0  0  0
   45.1215  -17.6002   -6.2316 H   0  0  0  0  0  0  0  0  0  0  0  0
   45.7025  -19.7633   -5.1847 H   0  0  0  0  0  0  0  0  0  0  0  0
   53.0864  -15.0162   -4.5334 H   0  0  0  0  0  0  0  0  0  0  0  0
  2  1  1  0
  3  1  1  0
  4  6  1  0
  5  7  1  0
  6  2  2  0
  7  3  2  0
  8 14  1  0
  9  1  1  0
 10  2  1  0
 11  3  1  0
 12  6  1  0
 13  7  1  0
 14 16  1  0
 15  8  1  0
 16  9  1  0
 17 10  2  0
 18 11  2  0
 19 18  1  0
 20 17  1  0
  5  4  2  0
 19 13  2  0
 20 12  2  0
  1 21  1  0
  4 22  1  0
  5 23  1  0
  8 24  1  0
  9 25  1  0
  9 26  1  0
 10 27  1  0
 11 28  1  0
 12 29  1  0
 13 30  1  0
 14 31  1  0
 14 32  1  0
 15 33  1  0
 15 34  1  0
 15 35  1  0
 16 36  1  0
 16 37  1  0
 17 38  1  0
 18 39  1  0
 19 40  1  0
 20 41  1  0
M  END
> <Uni-Dock RESULT> 
ENERGY=   -5.245  LOWER_BOUND=    2.669  UPPER_BOUND=    5.444
INTER + INTRA:          -5.245
INTER:                  -5.245
INTRA:                   0.000
UNBOUND:                 0.000

$$$$

     RDKit          3D

 41 43  0  0  0  0  0  0  0  0999 V2000
   49.8344  -18.3713   -7.5059 C   0  0  0  0  0  0  0  0  0  0  0  0
   50.4051  -18.8181   -6.1722 C   0  0  0  0  0  0  0  0  0  0  0  0
   48.6595  -17.4489   -7.2229 C   0  0  0  0  0  0  0  0  0  0  0  0
   48.2943  -20.1802   -5.7395 C   0  0  0  0  0  0  0  0  0  0  0  0
   47.3400  -19.4359   -6.3240 C   0  0  0  0  0  0  0  0  0  0  0  0
   49.6467  -19.6980   -5.3573 C   0  0  0  0  0  0  0  0  0  0  0  0
   47.4703  -17.9995   -6.6787 C   0  0  0  0  0  0  0  0  0  0  0  0
   50.7898  -17.0714  -12.2609 N   0  0  0  0  0  0  0  0  0  0  0  0
   50.8878  -17.8505   -8.5209 C   0  0  0  0  0  0  0  0  0  0  0  0
   51.6473  -18.3479   -5.6933 C   0  0  0  0  0  0  0  0  0  0  0  0
   48.7312  -16.0523   -7.4206 C   0  0  0  0  0  0  0  0  0  0  0  0
   50.1901  -20.1626   -4.1486 C   0  0  0  0  0  0  0  0  0  0  0  0
   46.3561  -17.1710   -6.4686 C   0  0  0  0  0  0  0  0  0  0  0  0
   51.3640  -17.1805  -10.9151 C   0  0  0  0  0  0  0  0  0  0  0  0
   51.8214  -16.6784  -13.2221 C   0  0  0  0  0  0  0  0  0  0  0  0
   50.3057  -17.6971   -9.9362 C   0  0  0  0  0  0  0  0  0  0  0  0
   52.1571  -18.8004   -4.4754 C   0  0  0  0  0  0  0  0  0  0  0  0
   47.6211  -15.2415   -7.1786 C   0  0  0  0  0  0  0  0  0  0  0  0
   46.4317  -15.8014   -6.7187 C   0  0  0  0  0  0  0  0  0  0  0  0
   51.4365  -19.7154   -3.7111 C   0  0  0  0  0  0  0  0  0  0  0  0
   49.4272  -19.2851   -7.9950 H   0  0  0  0  0  0  0  0  0  0  0  0
   48.0192  -21.1818   -5.4297 H   0  0  0  0  0  0  0  0  0  0  0  0
   46.3631  -19.8899   -6.4433 H   0  0  0  0  0  0  0  0  0  0  0  0
   50.0700  -16.3105  -12.2475 H   0  0  0  0  0  0  0  0  0  0  0  0
   51.7179  -18.5898   -8.5723 H   0  0  0  0  0  0  0  0  0  0  0  0
   51.3306  -16.8888   -8.1899 H   0  0  0  0  0  0  0  0  0  0  0  0
   52.2375  -17.6378   -6.2536 H   0  0  0  0  0  0  0  0  0  0  0  0
   49.6314  -15.5738   -7.7737 H   0  0  0  0  0  0  0  0  0  0  0  0
   49.6348  -20.8565   -3.5288 H   0  0  0  0  0  0  0  0  0  0  0  0
   45.4318  -17.5830   -6.0815 H   0  0  0  0  0  0  0  0  0  0  0  0
   52.2187  -17.8938  -10.9259 H   0  0  0  0  0  0  0  0  0  0  0  0
   51.7306  -16.1858  -10.5726 H   0  0  0  0  0  0  0  0  0  0  0  0
   52.6106  -17.4584  -13.2823 H   0  0  0  0  0  0  0  0  0  0  0  0
   52.2777  -15.7037  -12.9394 H   0  0  0  0  0  0  0  0  0  0  0  0
   51.3650  -16.5745  -14.2291 H   0  0  0  0  0  0  0  0  0  0  0  0
   49.9341  -18.6828  -10.2926 H   0  0  0  0  0  0  0  0  0  0  0  0
   49.4506  -16.9887   -9.9227 H   0  0  0  0  0  0  0  0  0  0  0  0
   53.1167  -18.4426   -4.1249 H   0  0  0  0  0  0  0  0  0  0  0  0
   47.6832  -14.1747   -7.3516 H   0  0  0  0  0  0  0  0  0  0  0  0
   45.5712  -15.1701   -6.5385 H   0  0  0  0  0  0  0  0  0  0  0  0
   51.8386  -20.0693   -2.7705 H   0  0  0  0  0  0  0  0  0  0  0  0
  2  1  1  0
  3  1  1  0
  4  6  1  0
  5  7  1  0
  6  2  2  0
  7  3  2  0
  8 14  1  0
  9  1  1  0
 10  2  1  0
 11  3  1  0
 12  6  1  0
 13  7  1  0
 14 16  1  0
 15  8  1  0
 16  9  1  0
 17 10  2  0
 18 11  2  0
 19 18  1  0
 20 17  1  0
  5  4  2  0
 19 13  2  0
 20 12  2  0
  1 21  1  0
  4 22  1  0
  5 23  1  0
  8 24  1  0
  9 25  1  0
  9 26  1  0
 10 27  1  0
 11 28  1  0
 12 29  1  0
 13 30  1  0
 14 31  1  0
 14 32  1  0
 15 33  1  0
 15 34  1  0
 15 35  1  0
 16 36  1  0
 16 37  1  0
 17 38  1  0
 18 39  1  0
 19 40  1  0
 20 41  1  0
M  END
> <Uni-Dock RESULT> 
ENERGY=   -5.168  LOWER_BOUND=    2.150  UPPER_BOUND=    4.575
INTER + INTRA:          -5.168
INTER:                  -5.168
INTRA:                   0.000
UNBOUND:                 0.000

$$$$

     RDKit          3D

 41 43  0  0  0  0  0  0  0  0999 V2000
   49.2706  -16.6768   -7.7310 C   0  0  0  0  0  0  0  0  0  0  0  0
   48.8511  -16.6053   -9.1881 C   0  0  0  0  0  0  0  0  0  0  0  0
   48.4015  -17.7207   -7.0482 C   0  0  0  0  0  0  0  0  0  0  0  0
   46.6255  -15.5810   -8.4842 C   0  0  0  0  0  0  0  0  0  0  0  0
   46.3845  -16.1838   -7.3074 C   0  0  0  0  0  0  0  0  0  0  0  0
   47.5827  -16.0597   -9.5148 C   0  0  0  0  0  0  0  0  0  0  0  0
   47.0265  -17.4389   -6.8397 C   0  0  0  0  0  0  0  0  0  0  0  0
   53.0471  -16.4460   -4.4300 N   0  0  0  0  0  0  0  0  0  0  0  0
   50.8013  -16.8006   -7.5016 C   0  0  0  0  0  0  0  0  0  0  0  0
   49.6635  -17.1087  -10.2274 C   0  0  0  0  0  0  0  0  0  0  0  0
   48.8981  -18.9881   -6.6723 C   0  0  0  0  0  0  0  0  0  0  0  0
   47.2092  -15.9361  -10.8629 C   0  0  0  0  0  0  0  0  0  0  0  0
   46.2247  -18.3675   -6.1565 C   0  0  0  0  0  0  0  0  0  0  0  0
   52.7027  -16.6995   -5.8335 C   0  0  0  0  0  0  0  0  0  0  0  0
   54.5000  -16.4654   -4.2529 C   0  0  0  0  0  0  0  0  0  0  0  0
   51.1897  -16.5693   -6.0315 C   0  0  0  0  0  0  0  0  0  0  0  0
   49.2611  -17.0017  -11.5595 C   0  0  0  0  0  0  0  0  0  0  0  0
   48.0773  -19.9090   -6.0194 C   0  0  0  0  0  0  0  0  0  0  0  0
   46.7481  -19.5936   -5.7480 C   0  0  0  0  0  0  0  0  0  0  0  0
   48.0431  -16.4051  -11.8775 C   0  0  0  0  0  0  0  0  0  0  0  0
   49.0164  -15.6898   -7.2824 H   0  0  0  0  0  0  0  0  0  0  0  0
   45.9974  -14.7370   -8.7448 H   0  0  0  0  0  0  0  0  0  0  0  0
   45.5787  -15.7835   -6.7031 H   0  0  0  0  0  0  0  0  0  0  0  0
   52.6521  -17.2248   -3.8515 H   0  0  0  0  0  0  0  0  0  0  0  0
   51.3099  -16.0236   -8.1146 H   0  0  0  0  0  0  0  0  0  0  0  0
   51.1852  -17.7841   -7.8419 H   0  0  0  0  0  0  0  0  0  0  0  0
   50.6144  -17.5792  -10.0248 H   0  0  0  0  0  0  0  0  0  0  0  0
   49.9198  -19.2776   -6.8632 H   0  0  0  0  0  0  0  0  0  0  0  0
   46.2555  -15.4963  -11.1294 H   0  0  0  0  0  0  0  0  0  0  0  0
   45.1802  -18.1531   -5.9638 H   0  0  0  0  0  0  0  0  0  0  0  0
   53.2134  -15.9574   -6.4877 H   0  0  0  0  0  0  0  0  0  0  0  0
   53.0278  -17.7231   -6.1295 H   0  0  0  0  0  0  0  0  0  0  0  0
   54.9719  -15.6497   -4.8418 H   0  0  0  0  0  0  0  0  0  0  0  0
   54.9252  -17.4461   -4.5621 H   0  0  0  0  0  0  0  0  0  0  0  0
   54.7419  -16.2988   -3.1819 H   0  0  0  0  0  0  0  0  0  0  0  0
   50.8707  -15.5505   -5.7201 H   0  0  0  0  0  0  0  0  0  0  0  0
   50.6760  -17.3076   -5.3802 H   0  0  0  0  0  0  0  0  0  0  0  0
   49.8986  -17.3797  -12.3486 H   0  0  0  0  0  0  0  0  0  0  0  0
   48.4750  -20.8702   -5.7199 H   0  0  0  0  0  0  0  0  0  0  0  0
   46.1167  -20.3079   -5.2357 H   0  0  0  0  0  0  0  0  0  0  0  0
   47.7379  -16.3177  -12.9124 H   0  0  0  0  0  0  0  0  0  0  0  0
  2  1  1  0
  3  1  1  0
  4  6  1  0
  5  7  1  0
  6  2  2  0
  7  3  2  0
  8 14  1  0
  9  1  1  0
 10  2  1  0
 11  3  1  0
 12  6  1  0
 13  7  1  0
 14 16  1  0
 15  8  1  0
 16  9  1  0
 17 10  2  0
 18 11  2  0
 19 18  1  0
 20 17  1  0
  5  4  2  0
 19 13  2  0
 20 12  2  0
  1 21  1  0
  4 22  1  0
  5 23  1  0
  8 24  1  0
  9 25  1  0
  9 26  1  0
 10 27  1  0
 11 28  1  0
 12 29  1  0
 13 30  1  0
 14 31  1  0
 14 32  1  0
 15 33  1  0
 15 34  1  0
 15 35  1  0
 16 36  1  0
 16 37  1  0
 17 38  1  0
 18 39  1  0
 19 40  1  0
 20 41  1  0
M  END
> <Uni-Dock RESULT> 
ENERGY=   -5.137  LOWER_BOUND=    2.592  UPPER_BOUND=    4.869
INTER + INTRA:          -5.137
INTER:                  -5.137
INTRA:                   0.000
UNBOUND:                 0.000

$$$$

     RDKit          3D

 41 43  0  0  0  0  0  0  0  0999 V2000
   47.9291  -17.4228   -8.2489 C   0  0  0  0  0  0  0  0  0  0  0  0
   48.8603  -16.3923   -7.6364 C   0  0  0  0  0  0  0  0  0  0  0  0
   47.4421  -18.3313   -7.1314 C   0  0  0  0  0  0  0  0  0  0  0  0
   50.5696  -18.2273   -7.1787 C   0  0  0  0  0  0  0  0  0  0  0  0
   49.7932  -19.2915   -6.9127 C   0  0  0  0  0  0  0  0  0  0  0  0
   50.1252  -16.8098   -7.1473 C   0  0  0  0  0  0  0  0  0  0  0  0
   48.3591  -19.2323   -6.5308 C   0  0  0  0  0  0  0  0  0  0  0  0
   44.4065  -18.3789  -11.6970 N   0  0  0  0  0  0  0  0  0  0  0  0
   46.8363  -16.8361   -9.1829 C   0  0  0  0  0  0  0  0  0  0  0  0
   48.4889  -15.0376   -7.4936 C   0  0  0  0  0  0  0  0  0  0  0  0
   46.1259  -18.2651   -6.6240 C   0  0  0  0  0  0  0  0  0  0  0  0
   51.0169  -15.8554   -6.6315 C   0  0  0  0  0  0  0  0  0  0  0  0
   47.9099  -20.1198   -5.5396 C   0  0  0  0  0  0  0  0  0  0  0  0
   45.0498  -17.3211  -10.9097 C   0  0  0  0  0  0  0  0  0  0  0  0
   43.4533  -17.7979  -12.6437 C   0  0  0  0  0  0  0  0  0  0  0  0
   46.1228  -17.9265  -10.0000 C   0  0  0  0  0  0  0  0  0  0  0  0
   49.3796  -14.1096   -6.9521 C   0  0  0  0  0  0  0  0  0  0  0  0
   45.7064  -19.1371   -5.6180 C   0  0  0  0  0  0  0  0  0  0  0  0
   46.5915  -20.0727   -5.0880 C   0  0  0  0  0  0  0  0  0  0  0  0
   50.6452  -14.5148   -6.5341 C   0  0  0  0  0  0  0  0  0  0  0  0
   48.5531  -18.0432   -8.9315 H   0  0  0  0  0  0  0  0  0  0  0  0
   51.6273  -18.4120   -7.3271 H   0  0  0  0  0  0  0  0  0  0  0  0
   50.2801  -20.2587   -6.8646 H   0  0  0  0  0  0  0  0  0  0  0  0
   43.8626  -18.9884  -11.0413 H   0  0  0  0  0  0  0  0  0  0  0  0
   47.3266  -16.1398   -9.8991 H   0  0  0  0  0  0  0  0  0  0  0  0
   46.0906  -16.2437   -8.6142 H   0  0  0  0  0  0  0  0  0  0  0  0
   47.5175  -14.6817   -7.8039 H   0  0  0  0  0  0  0  0  0  0  0  0
   45.4060  -17.5559   -7.0020 H   0  0  0  0  0  0  0  0  0  0  0  0
   51.9970  -16.1547   -6.2796 H   0  0  0  0  0  0  0  0  0  0  0  0
   48.5917  -20.8337   -5.0930 H   0  0  0  0  0  0  0  0  0  0  0  0
   45.5331  -16.5845  -11.5904 H   0  0  0  0  0  0  0  0  0  0  0  0
   44.2926  -16.7918  -10.2870 H   0  0  0  0  0  0  0  0  0  0  0  0
   43.9810  -17.1449  -13.3716 H   0  0  0  0  0  0  0  0  0  0  0  0
   42.6714  -17.2117  -12.1116 H   0  0  0  0  0  0  0  0  0  0  0  0
   42.9567  -18.6127  -13.2119 H   0  0  0  0  0  0  0  0  0  0  0  0
   46.8665  -18.4653  -10.6273 H   0  0  0  0  0  0  0  0  0  0  0  0
   45.6452  -18.6626   -9.3194 H   0  0  0  0  0  0  0  0  0  0  0  0
   49.0882  -13.0712   -6.8598 H   0  0  0  0  0  0  0  0  0  0  0  0
   44.6894  -19.0886   -5.2504 H   0  0  0  0  0  0  0  0  0  0  0  0
   46.2604  -20.7514   -4.3126 H   0  0  0  0  0  0  0  0  0  0  0  0
   51.3356  -13.7906   -6.1212 H   0  0  0  0  0  0  0  0  0  0  0  0
  2  1  1  0
  3  1  1  0
  4  6  1  0
  5  7  1  0
  6  2  2  0
  7  3  2  0
  8 14  1  0
  9  1  1  0
 10  2  1  0
 11  3  1  0
 12  6  1  0
 13  7  1  0
 14 16  1  0
 15  8  1  0
 16  9  1  0
 17 10  2  0
 18 11  2  0
 19 18  1  0
 20 17  1  0
  5  4  2  0
 19 13  2  0
 20 12  2  0
  1 21  1  0
  4 22  1  0
  5 23  1  0
  8 24  1  0
  9 25  1  0
  9 26  1  0
 10 27  1  0
 11 28  1  0
 12 29  1  0
 13 30  1  0
 14 31  1  0
 14 32  1  0
 15 33  1  0
 15 34  1  0
 15 35  1  0
 16 36  1  0
 16 37  1  0
 17 38  1  0
 18 39  1  0
 19 40  1  0
 20 41  1  0
M  END
> <Uni-Dock RESULT> 
ENERGY=   -5.050  LOWER_BOUND=    3.156  UPPER_BOUND=    5.889
INTER + INTRA:          -5.050
INTER:                  -5.050
INTRA:                   0.000
UNBOUND:                 0.000

$$$$

     RDKit          3D

 41 43  0  0  0  0  0  0  0  0999 V2000
   47.4274  -16.7110  -10.7217 C   0  0  0  0  0  0  0  0  0  0  0  0
   47.1381  -16.5585   -9.2394 C   0  0  0  0  0  0  0  0  0  0  0  0
   46.2876  -16.0581  -11.4870 C   0  0  0  0  0  0  0  0  0  0  0  0
   45.1827  -18.1780   -9.4672 C   0  0  0  0  0  0  0  0  0  0  0  0
   44.7237  -17.9115  -10.7019 C   0  0  0  0  0  0  0  0  0  0  0  0
   46.0641  -17.2886   -8.6675 C   0  0  0  0  0  0  0  0  0  0  0  0
   45.0103  -16.6761  -11.4750 C   0  0  0  0  0  0  0  0  0  0  0  0
   50.9137  -16.8029  -14.3341 N   0  0  0  0  0  0  0  0  0  0  0  0
   48.8637  -16.3029  -11.1479 C   0  0  0  0  0  0  0  0  0  0  0  0
   47.8739  -15.6758   -8.4191 C   0  0  0  0  0  0  0  0  0  0  0  0
   46.4368  -14.8234  -12.1560 C   0  0  0  0  0  0  0  0  0  0  0  0
   45.8243  -17.1989   -7.2867 C   0  0  0  0  0  0  0  0  0  0  0  0
   43.9634  -16.1179  -12.2263 C   0  0  0  0  0  0  0  0  0  0  0  0
   50.6149  -16.3362  -12.9756 C   0  0  0  0  0  0  0  0  0  0  0  0
   52.3033  -16.5001  -14.6801 C   0  0  0  0  0  0  0  0  0  0  0  0
   49.1952  -16.7531  -12.5807 C   0  0  0  0  0  0  0  0  0  0  0  0
   47.6011  -15.5802   -7.0536 C   0  0  0  0  0  0  0  0  0  0  0  0
   45.3754  -14.2703  -12.8741 C   0  0  0  0  0  0  0  0  0  0  0  0
   44.1464  -14.9236  -12.9222 C   0  0  0  0  0  0  0  0  0  0  0  0
   46.5877  -16.3494   -6.4863 C   0  0  0  0  0  0  0  0  0  0  0  0
   47.3889  -17.8026  -10.9383 H   0  0  0  0  0  0  0  0  0  0  0  0
   44.7961  -19.0640   -8.9769 H   0  0  0  0  0  0  0  0  0  0  0  0
   43.9989  -18.6011  -11.1191 H   0  0  0  0  0  0  0  0  0  0  0  0
   50.3039  -16.2743  -15.0019 H   0  0  0  0  0  0  0  0  0  0  0  0
   49.5854  -16.7972  -10.4601 H   0  0  0  0  0  0  0  0  0  0  0  0
   49.0212  -15.2092  -11.0512 H   0  0  0  0  0  0  0  0  0  0  0  0
   48.6671  -15.0610   -8.8185 H   0  0  0  0  0  0  0  0  0  0  0  0
   47.3690  -14.2802  -12.1453 H   0  0  0  0  0  0  0  0  0  0  0  0
   45.0255  -17.7715   -6.8307 H   0  0  0  0  0  0  0  0  0  0  0  0
   42.9909  -16.5951  -12.2505 H   0  0  0  0  0  0  0  0  0  0  0  0
   51.3329  -16.7878  -12.2546 H   0  0  0  0  0  0  0  0  0  0  0  0
   50.7028  -15.2268  -12.9230 H   0  0  0  0  0  0  0  0  0  0  0  0
   52.9972  -17.0444  -14.0040 H   0  0  0  0  0  0  0  0  0  0  0  0
   52.4994  -15.4066  -14.6181 H   0  0  0  0  0  0  0  0  0  0  0  0
   52.5046  -16.8354  -15.7195 H   0  0  0  0  0  0  0  0  0  0  0  0
   49.1110  -17.8598  -12.6500 H   0  0  0  0  0  0  0  0  0  0  0  0
   48.4752  -16.3052  -13.2979 H   0  0  0  0  0  0  0  0  0  0  0  0
   48.1809  -14.9095   -6.4325 H   0  0  0  0  0  0  0  0  0  0  0  0
   45.5080  -13.3323  -13.3980 H   0  0  0  0  0  0  0  0  0  0  0  0
   43.3278  -14.4947  -13.4855 H   0  0  0  0  0  0  0  0  0  0  0  0
   46.3840  -16.2776   -5.4257 H   0  0  0  0  0  0  0  0  0  0  0  0
  2  1  1  0
  3  1  1  0
  4  6  1  0
  5  7  1  0
  6  2  2  0
  7  3  2  0
  8 14  1  0
  9  1  1  0
 10  2  1  0
 11  3  1  0
 12  6  1  0
 13  7  1  0
 14 16  1  0
 15  8  1  0
 16  9  1  0
 17 10  2  0
 18 11  2  0
 19 18  1  0
 20 17  1  0
  5  4  2  0
 19 13  2  0
 20 12  2  0
  1 21  1  0
  4 22  1  0
  5 23  1  0
  8 24  1  0
  9 25  1  0
  9 26  1  0
 10 27  1  0
 11 28  1  0
 12 29  1  0
 13 30  1  0
 14 31  1  0
 14 32  1  0
 15 33  1  0
 15 34  1  0
 15 35  1  0
 16 36  1  0
 16 37  1  0
 17 38  1  0
 18 39  1  0
 19 40  1  0
 20 41  1  0
M  END
> <Uni-Dock RESULT> 
ENERGY=   -4.431  LOWER_BOUND=    4.250  UPPER_BOUND=    6.271
INTER + INTRA:          -4.431
INTER:                  -4.431
INTRA:                   0.000
UNBOUND:                 0.000

$$$$

     RDKit          3D

 41 43  0  0  0  0  0  0  0  0999 V2000
   50.1974  -18.1288   -7.3315 C   0  0  0  0  0  0  0  0  0  0  0  0
   51.3379  -18.4370   -8.2846 C   0  0  0  0  0  0  0  0  0  0  0  0
   50.1016  -16.6177   -7.1949 C   0  0  0  0  0  0  0  0  0  0  0  0
   53.0018  -17.5980   -6.5452 C   0  0  0  0  0  0  0  0  0  0  0  0
   52.3210  -16.6089   -5.9414 C   0  0  0  0  0  0  0  0  0  0  0  0
   52.6711  -18.1849   -7.8695 C   0  0  0  0  0  0  0  0  0  0  0  0
   51.1267  -15.9251   -6.4999 C   0  0  0  0  0  0  0  0  0  0  0  0
   45.6235  -19.4059   -5.7004 N   0  0  0  0  0  0  0  0  0  0  0  0
   48.8721  -18.8759   -7.6420 C   0  0  0  0  0  0  0  0  0  0  0  0
   51.1122  -18.9224   -9.5912 C   0  0  0  0  0  0  0  0  0  0  0  0
   49.0627  -15.8699   -7.7915 C   0  0  0  0  0  0  0  0  0  0  0  0
   53.7360  -18.5202   -8.7213 C   0  0  0  0  0  0  0  0  0  0  0  0
   51.0215  -14.5373   -6.3131 C   0  0  0  0  0  0  0  0  0  0  0  0
   46.5604  -19.5059   -6.8250 C   0  0  0  0  0  0  0  0  0  0  0  0
   44.4233  -20.2000   -5.9681 C   0  0  0  0  0  0  0  0  0  0  0  0
   47.8574  -18.7630   -6.4917 C   0  0  0  0  0  0  0  0  0  0  0  0
   52.1842  -19.2229  -10.4329 C   0  0  0  0  0  0  0  0  0  0  0  0
   48.9913  -14.4868   -7.6181 C   0  0  0  0  0  0  0  0  0  0  0  0
   49.9595  -13.8240   -6.8677 C   0  0  0  0  0  0  0  0  0  0  0  0
   53.4930  -19.0347   -9.9946 C   0  0  0  0  0  0  0  0  0  0  0  0
   50.5003  -18.5321   -6.3387 H   0  0  0  0  0  0  0  0  0  0  0  0
   53.9236  -17.9215   -6.0758 H   0  0  0  0  0  0  0  0  0  0  0  0
   52.7427  -16.2047   -5.0284 H   0  0  0  0  0  0  0  0  0  0  0  0
   45.3230  -18.4062   -5.6142 H   0  0  0  0  0  0  0  0  0  0  0  0
   49.1052  -19.9544   -7.7859 H   0  0  0  0  0  0  0  0  0  0  0  0
   48.4133  -18.5150   -8.5852 H   0  0  0  0  0  0  0  0  0  0  0  0
   50.1137  -19.0817   -9.9708 H   0  0  0  0  0  0  0  0  0  0  0  0
   48.2918  -16.3393   -8.3827 H   0  0  0  0  0  0  0  0  0  0  0  0
   54.7605  -18.3593   -8.4076 H   0  0  0  0  0  0  0  0  0  0  0  0
   51.7815  -13.9995   -5.7589 H   0  0  0  0  0  0  0  0  0  0  0  0
   46.8018  -20.5748   -7.0216 H   0  0  0  0  0  0  0  0  0  0  0  0
   46.1071  -19.0654   -7.7424 H   0  0  0  0  0  0  0  0  0  0  0  0
   44.6848  -21.2760   -6.0611 H   0  0  0  0  0  0  0  0  0  0  0  0
   43.9173  -19.8550   -6.8970 H   0  0  0  0  0  0  0  0  0  0  0  0
   43.7145  -20.0918   -5.1201 H   0  0  0  0  0  0  0  0  0  0  0  0
   48.2959  -19.1984   -5.5670 H   0  0  0  0  0  0  0  0  0  0  0  0
   47.6213  -17.6961   -6.2942 H   0  0  0  0  0  0  0  0  0  0  0  0
   51.9987  -19.6068  -11.4279 H   0  0  0  0  0  0  0  0  0  0  0  0
   48.1796  -13.9273   -8.0653 H   0  0  0  0  0  0  0  0  0  0  0  0
   49.8970  -12.7523   -6.7301 H   0  0  0  0  0  0  0  0  0  0  0  0
   54.3217  -19.2756  -10.6479 H   0  0  0  0  0  0  0  0  0  0  0  0
  2  1  1  0
  3  1  1  0
  4  6  1  0
  5  7  1  0
  6  2  2  0
  7  3  2  0
  8 14  1  0
  9  1  1  0
 10  2  1  0
 11  3  1  0
 12  6  1  0
 13  7  1  0
 14 16  1  0
 15  8  1  0
 16  9  1  0
 17 10  2  0
 18 11  2  0
 19 18  1  0
 20 17  1  0
  5  4  2  0
 19 13  2  0
 20 12  2  0
  1 21  1  0
  4 22  1  0
  5 23  1  0
  8 24  1  0
  9 25  1  0
  9 26  1  0
 10 27  1  0
 11 28  1  0
 12 29  1  0
 13 30  1  0
 14 31  1  0
 14 32  1  0
 15 33  1  0
 15 34  1  0
 15 35  1  0
 16 36  1  0
 16 37  1  0
 17 38  1  0
 18 39  1  0
 19 40  1  0
 20 41  1  0
M  END
> <Uni-Dock RESULT> 
ENERGY=   -4.343  LOWER_BOUND=    2.497  UPPER_BOUND=    5.568
INTER + INTRA:          -4.343
INTER:                  -4.343
INTRA:                   0.000
UNBOUND:                 0.000

$$$$

     RDKit          3D

 41 43  0  0  0  0  0  0  0  0999 V2000
   46.7475  -15.8952   -9.8089 C   0  0  0  0  0  0  0  0  0  0  0  0
   46.2942  -16.8394   -8.7102 C   0  0  0  0  0  0  0  0  0  0  0  0
   48.1374  -16.3270  -10.2483 C   0  0  0  0  0  0  0  0  0  0  0  0
   48.0593  -15.8574   -7.1551 C   0  0  0  0  0  0  0  0  0  0  0  0
   49.0644  -15.5670   -7.9988 C   0  0  0  0  0  0  0  0  0  0  0  0
   46.9344  -16.7837   -7.4451 C   0  0  0  0  0  0  0  0  0  0  0  0
   49.2288  -16.1312   -9.3628 C   0  0  0  0  0  0  0  0  0  0  0  0
   45.4254  -13.1504  -13.8002 N   0  0  0  0  0  0  0  0  0  0  0  0
   45.7085  -15.6695  -10.9404 C   0  0  0  0  0  0  0  0  0  0  0  0
   45.2868  -17.8059   -8.9211 C   0  0  0  0  0  0  0  0  0  0  0  0
   48.3722  -16.9764  -11.4802 C   0  0  0  0  0  0  0  0  0  0  0  0
   46.4842  -17.6127   -6.4049 C   0  0  0  0  0  0  0  0  0  0  0  0
   50.5271  -16.4689   -9.7780 C   0  0  0  0  0  0  0  0  0  0  0  0
   45.0510  -14.2949  -12.9619 C   0  0  0  0  0  0  0  0  0  0  0  0
   44.3848  -12.8893  -14.7959 C   0  0  0  0  0  0  0  0  0  0  0  0
   46.0904  -14.4934  -11.8548 C   0  0  0  0  0  0  0  0  0  0  0  0
   44.8731  -18.6401   -7.8814 C   0  0  0  0  0  0  0  0  0  0  0  0
   49.6671  -17.3303  -11.8626 C   0  0  0  0  0  0  0  0  0  0  0  0
   50.7438  -17.0631  -11.0206 C   0  0  0  0  0  0  0  0  0  0  0  0
   45.4610  -18.5350   -6.6229 C   0  0  0  0  0  0  0  0  0  0  0  0
   46.8464  -14.8907   -9.3385 H   0  0  0  0  0  0  0  0  0  0  0  0
   48.1308  -15.4645   -6.1475 H   0  0  0  0  0  0  0  0  0  0  0  0
   49.8753  -14.9611   -7.6112 H   0  0  0  0  0  0  0  0  0  0  0  0
   46.2995  -13.3996  -14.3207 H   0  0  0  0  0  0  0  0  0  0  0  0
   44.7279  -15.4317  -10.4712 H   0  0  0  0  0  0  0  0  0  0  0  0
   45.5630  -16.5864  -11.5476 H   0  0  0  0  0  0  0  0  0  0  0  0
   44.8057  -17.9213   -9.8812 H   0  0  0  0  0  0  0  0  0  0  0  0
   47.5696  -17.2055  -12.1639 H   0  0  0  0  0  0  0  0  0  0  0  0
   46.9446  -17.5623   -5.4253 H   0  0  0  0  0  0  0  0  0  0  0  0
   51.3738  -16.2975   -9.1240 H   0  0  0  0  0  0  0  0  0  0  0  0
   44.0592  -14.1099  -12.4912 H   0  0  0  0  0  0  0  0  0  0  0  0
   44.9883  -15.2193  -13.5805 H   0  0  0  0  0  0  0  0  0  0  0  0
   43.4324  -12.6108  -14.2955 H   0  0  0  0  0  0  0  0  0  0  0  0
   44.2221  -13.7791  -15.4439 H   0  0  0  0  0  0  0  0  0  0  0  0
   44.6959  -12.0383  -15.4380 H   0  0  0  0  0  0  0  0  0  0  0  0
   46.1579  -13.5618  -11.2512 H   0  0  0  0  0  0  0  0  0  0  0  0
   47.0819  -14.6776  -12.3199 H   0  0  0  0  0  0  0  0  0  0  0  0
   44.0905  -19.3684   -8.0518 H   0  0  0  0  0  0  0  0  0  0  0  0
   49.8361  -17.8111  -12.8176 H   0  0  0  0  0  0  0  0  0  0  0  0
   51.7471  -17.3332  -11.3237 H   0  0  0  0  0  0  0  0  0  0  0  0
   45.1324  -19.1789   -5.8173 H   0  0  0  0  0  0  0  0  0  0  0  0
  2  1  1  0
  3  1  1  0
  4  6  1  0
  5  7  1  0
  6  2  2  0
  7  3  2  0
  8 14  1  0
  9  1  1  0
 10  2  1  0
 11  3  1  0
 12  6  1  0
 13  7  1  0
 14 16  1  0
 15  8  1  0
 16  9  1  0
 17 10  2  0
 18 11  2  0
 19 18  1  0
 20 17  1  0
  5  4  2  0
 19 13  2  0
 20 12  2  0
  1 21  1  0
  4 22  1  0
  5 23  1  0
  8 24  1  0
  9 25  1  0
  9 26  1  0
 10 27  1  0
 11 28  1  0
 12 29  1  0
 13 30  1  0
 14 31  1  0
 14 32  1  0
 15 33  1  0
 15 34  1  0
 15 35  1  0
 16 36  1  0
 16 37  1  0
 17 38  1  0
 18 39  1  0
 19 40  1  0
 20 41  1  0
M  END
> <Uni-Dock RESULT> 
ENERGY=   -4.198  LOWER_BOUND=    4.236  UPPER_BOUND=    5.899
INTER + INTRA:          -4.198
INTER:                  -4.198
INTRA:                   0.000
UNBOUND:                 0.000

$$$$
