
     RDKit          3D

 41 43  0  0  0  0  0  0  0  0999 V2000
   50.1139  -17.1233   -7.9226 C   0  0  0  0  0  0  0  0  0  0  0  0
   48.6877  -17.0311   -7.4140 C   0  0  0  0  0  0  0  0  0  0  0  0
   51.0825  -16.5872   -6.8862 C   0  0  0  0  0  0  0  0  0  0  0  0
   48.7611  -14.4900   -7.1808 C   0  0  0  0  0  0  0  0  0  0  0  0
   50.0433  -14.2519   -6.8806 C   0  0  0  0  0  0  0  0  0  0  0  0
   48.0737  -15.7962   -7.0845 C   0  0  0  0  0  0  0  0  0  0  0  0
   51.0300  -15.2506   -6.4114 C   0  0  0  0  0  0  0  0  0  0  0  0
   48.8403  -18.8296  -11.9498 N   0  0  0  0  0  0  0  0  0  0  0  0
   50.3278  -16.4702   -9.3123 C   0  0  0  0  0  0  0  0  0  0  0  0
   47.9346  -18.2182   -7.3003 C   0  0  0  0  0  0  0  0  0  0  0  0
   52.0906  -17.4441   -6.3970 C   0  0  0  0  0  0  0  0  0  0  0  0
   46.7223  -15.7821   -6.6959 C   0  0  0  0  0  0  0  0  0  0  0  0
   51.9996  -14.8084   -5.4938 C   0  0  0  0  0  0  0  0  0  0  0  0
   49.6419  -18.4618  -10.7773 C   0  0  0  0  0  0  0  0  0  0  0  0
   49.1496  -20.1980  -12.3673 C   0  0  0  0  0  0  0  0  0  0  0  0
   49.3815  -16.9957  -10.4087 C   0  0  0  0  0  0  0  0  0  0  0  0
   46.6018  -18.1842   -6.8916 C   0  0  0  0  0  0  0  0  0  0  0  0
   53.0292  -16.9905   -5.4703 C   0  0  0  0  0  0  0  0  0  0  0  0
   52.9858  -15.6738   -5.0218 C   0  0  0  0  0  0  0  0  0  0  0  0
   45.9948  -16.9674   -6.5947 C   0  0  0  0  0  0  0  0  0  0  0  0
   50.3555  -18.1984   -8.0682 H   0  0  0  0  0  0  0  0  0  0  0  0
   48.1487  -13.6282   -7.4211 H   0  0  0  0  0  0  0  0  0  0  0  0
   50.3648  -13.2166   -6.9037 H   0  0  0  0  0  0  0  0  0  0  0  0
   47.8302  -18.8082  -11.6734 H   0  0  0  0  0  0  0  0  0  0  0  0
   51.3792  -16.6417   -9.6324 H   0  0  0  0  0  0  0  0  0  0  0  0
   50.1980  -15.3720   -9.2583 H   0  0  0  0  0  0  0  0  0  0  0  0
   48.3751  -19.1782   -7.5385 H   0  0  0  0  0  0  0  0  0  0  0  0
   52.1593  -18.4699   -6.7373 H   0  0  0  0  0  0  0  0  0  0  0  0
   46.2295  -14.8467   -6.4581 H   0  0  0  0  0  0  0  0  0  0  0  0
   51.9876  -13.7867   -5.1327 H   0  0  0  0  0  0  0  0  0  0  0  0
   50.7238  -18.5876  -11.0066 H   0  0  0  0  0  0  0  0  0  0  0  0
   49.3764  -19.1193   -9.9207 H   0  0  0  0  0  0  0  0  0  0  0  0
   48.5179  -20.4675  -13.2399 H   0  0  0  0  0  0  0  0  0  0  0  0
   48.9436  -20.9203  -11.5464 H   0  0  0  0  0  0  0  0  0  0  0  0
   50.2139  -20.2763  -12.6772 H   0  0  0  0  0  0  0  0  0  0  0  0
   49.5340  -16.3738  -11.3180 H   0  0  0  0  0  0  0  0  0  0  0  0
   48.3226  -16.8666  -10.0973 H   0  0  0  0  0  0  0  0  0  0  0  0
   46.0362  -19.1037   -6.8130 H   0  0  0  0  0  0  0  0  0  0  0  0
   53.7968  -17.6606   -5.1052 H   0  0  0  0  0  0  0  0  0  0  0  0
   53.7196  -15.3209   -4.3087 H   0  0  0  0  0  0  0  0  0  0  0  0
   44.9579  -16.9415   -6.2854 H   0  0  0  0  0  0  0  0  0  0  0  0
  2  1  1  0
  3  1  1  0
  4  6  1  0
  5  7  1  0
  6  2  2  0
  7  3  2  0
  8 14  1  0
  9  1  1  0
 10  2  1  0
 11  3  1  0
 12  6  1  0
 13  7  1  0
 14 16  1  0
 15  8  1  0
 16  9  1  0
 17 10  2  0
 18 11  2  0
 19 18  1  0
 20 17  1  0
  5  4  2  0
 19 13  2  0
 20 12  2  0
  1 21  1  0
  4 22  1  0
  5 23  1  0
  8 24  1  0
  9 25  1  0
  9 26  1  0
 10 27  1  0
 11 28  1  0
 12 29  1  0
 13 30  1  0
 14 31  1  0
 14 32  1  0
 15 33  1  0
 15 34  1  0
 15 35  1  0
 16 36  1  0
 16 37  1  0
 17 38  1  0
 18 39  1  0
 19 40  1  0
 20 41  1  0
M  END
> <Uni-Dock RESULT> 
ENERGY=   -6.017  LOWER_BOUND=    0.000  UPPER_BOUND=    0.000
INTER + INTRA:          -6.017
INTER:                  -6.017
INTRA:                   0.000
UNBOUND:                 0.000

$$$$

     RDKit          3D

 41 43  0  0  0  0  0  0  0  0999 V2000
   47.7877  -17.2653   -7.9763 C   0  0  0  0  0  0  0  0  0  0  0  0
   48.8241  -16.2984   -7.4356 C   0  0  0  0  0  0  0  0  0  0  0  0
   47.4119  -18.2858   -6.9195 C   0  0  0  0  0  0  0  0  0  0  0  0
   50.5491  -18.1307   -7.0064 C   0  0  0  0  0  0  0  0  0  0  0  0
   49.7921  -19.1943   -6.7125 C   0  0  0  0  0  0  0  0  0  0  0  0
   50.1059  -16.7194   -6.9995 C   0  0  0  0  0  0  0  0  0  0  0  0
   48.3594  -19.1703   -6.3410 C   0  0  0  0  0  0  0  0  0  0  0  0
   47.7577  -15.3296  -12.0999 N   0  0  0  0  0  0  0  0  0  0  0  0
   48.1926  -17.9350   -9.3146 C   0  0  0  0  0  0  0  0  0  0  0  0
   48.5100  -14.9238   -7.4008 C   0  0  0  0  0  0  0  0  0  0  0  0
   46.0627  -18.3761   -6.5174 C   0  0  0  0  0  0  0  0  0  0  0  0
   51.0426  -15.7556   -6.5859 C   0  0  0  0  0  0  0  0  0  0  0  0
   47.9247  -20.1303   -5.4100 C   0  0  0  0  0  0  0  0  0  0  0  0
   47.3715  -16.1075  -10.9174 C   0  0  0  0  0  0  0  0  0  0  0  0
   46.6026  -14.6022  -12.6285 C   0  0  0  0  0  0  0  0  0  0  0  0
   48.5644  -16.9403  -10.4309 C   0  0  0  0  0  0  0  0  0  0  0  0
   49.4463  -13.9862   -6.9660 C   0  0  0  0  0  0  0  0  0  0  0  0
   45.6573  -19.3218   -5.5758 C   0  0  0  0  0  0  0  0  0  0  0  0
   46.5862  -20.1998   -5.0253 C   0  0  0  0  0  0  0  0  0  0  0  0
   50.7126  -14.4009   -6.5639 C   0  0  0  0  0  0  0  0  0  0  0  0
   46.8688  -16.6853   -8.2097 H   0  0  0  0  0  0  0  0  0  0  0  0
   51.6055  -18.3138   -7.1673 H   0  0  0  0  0  0  0  0  0  0  0  0
   50.2973  -20.1523   -6.6608 H   0  0  0  0  0  0  0  0  0  0  0  0
   48.4664  -14.6174  -11.8039 H   0  0  0  0  0  0  0  0  0  0  0  0
   47.3518  -18.5726   -9.6667 H   0  0  0  0  0  0  0  0  0  0  0  0
   49.0553  -18.6144   -9.1727 H   0  0  0  0  0  0  0  0  0  0  0  0
   47.5383  -14.5696   -7.7213 H   0  0  0  0  0  0  0  0  0  0  0  0
   45.3138  -17.7163   -6.9379 H   0  0  0  0  0  0  0  0  0  0  0  0
   52.0338  -16.0553   -6.2667 H   0  0  0  0  0  0  0  0  0  0  0  0
   48.6292  -20.8264   -4.9701 H   0  0  0  0  0  0  0  0  0  0  0  0
   46.5352  -16.7951  -11.1760 H   0  0  0  0  0  0  0  0  0  0  0  0
   47.0364  -15.4203  -10.1099 H   0  0  0  0  0  0  0  0  0  0  0  0
   46.9178  -14.0014  -13.5076 H   0  0  0  0  0  0  0  0  0  0  0  0
   46.1822  -13.9131  -11.8628 H   0  0  0  0  0  0  0  0  0  0  0  0
   45.8178  -15.3142  -12.9634 H   0  0  0  0  0  0  0  0  0  0  0  0
   48.9577  -17.5245  -11.2916 H   0  0  0  0  0  0  0  0  0  0  0  0
   49.3811  -16.2679  -10.0906 H   0  0  0  0  0  0  0  0  0  0  0  0
   49.1911  -12.9345   -6.9488 H   0  0  0  0  0  0  0  0  0  0  0  0
   44.6181  -19.3784   -5.2785 H   0  0  0  0  0  0  0  0  0  0  0  0
   46.2687  -20.9384   -4.3006 H   0  0  0  0  0  0  0  0  0  0  0  0
   51.4412  -13.6715   -6.2342 H   0  0  0  0  0  0  0  0  0  0  0  0
  2  1  1  0
  3  1  1  0
  4  6  1  0
  5  7  1  0
  6  2  2  0
  7  3  2  0
  8 14  1  0
  9  1  1  0
 10  2  1  0
 11  3  1  0
 12  6  1  0
 13  7  1  0
 14 16  1  0
 15  8  1  0
 16  9  1  0
 17 10  2  0
 18 11  2  0
 19 18  1  0
 20 17  1  0
  5  4  2  0
 19 13  2  0
 20 12  2  0
  1 21  1  0
  4 22  1  0
  5 23  1  0
  8 24  1  0
  9 25  1  0
  9 26  1  0
 10 27  1  0
 11 28  1  0
 12 29  1  0
 13 30  1  0
 14 31  1  0
 14 32  1  0
 15 33  1  0
 15 34  1  0
 15 35  1  0
 16 36  1  0
 16 37  1  0
 17 38  1  0
 18 39  1  0
 19 40  1  0
 20 41  1  0
M  END
> <Uni-Dock RESULT> 
ENERGY=   -5.412  LOWER_BOUND=    1.921  UPPER_BOUND=    4.733
INTER + INTRA:          -5.412
INTER:                  -5.412
INTRA:                   0.000
UNBOUND:                 0.000

$$$$

     RDKit          3D

 41 43  0  0  0  0  0  0  0  0999 V2000
   50.2941  -17.4629   -7.7550 C   0  0  0  0  0  0  0  0  0  0  0  0
   51.0678  -17.8138   -6.4982 C   0  0  0  0  0  0  0  0  0  0  0  0
   48.8803  -17.0392   -7.4067 C   0  0  0  0  0  0  0  0  0  0  0  0
   49.4771  -19.7019   -5.8486 C   0  0  0  0  0  0  0  0  0  0  0  0
   48.2987  -19.2791   -6.3212 C   0  0  0  0  0  0  0  0  0  0  0  0
   50.6773  -18.8652   -5.6306 C   0  0  0  0  0  0  0  0  0  0  0  0
   47.9696  -17.8967   -6.7358 C   0  0  0  0  0  0  0  0  0  0  0  0
   53.7790  -18.4996  -10.4995 N   0  0  0  0  0  0  0  0  0  0  0  0
   50.3195  -18.5723   -8.8375 C   0  0  0  0  0  0  0  0  0  0  0  0
   52.2406  -17.0877   -6.2039 C   0  0  0  0  0  0  0  0  0  0  0  0
   48.4472  -15.7525   -7.7898 C   0  0  0  0  0  0  0  0  0  0  0  0
   51.4890  -19.1840   -4.5275 C   0  0  0  0  0  0  0  0  0  0  0  0
   46.6556  -17.4547   -6.5000 C   0  0  0  0  0  0  0  0  0  0  0  0
   52.5273  -17.9374   -9.9801 C   0  0  0  0  0  0  0  0  0  0  0  0
   54.5000  -17.4954  -11.2832 C   0  0  0  0  0  0  0  0  0  0  0  0
   51.7350  -19.0252   -9.2438 C   0  0  0  0  0  0  0  0  0  0  0  0
   53.0198  -17.4060   -5.0921 C   0  0  0  0  0  0  0  0  0  0  0  0
   47.1454  -15.3265   -7.5263 C   0  0  0  0  0  0  0  0  0  0  0  0
   46.2500  -16.1775   -6.8852 C   0  0  0  0  0  0  0  0  0  0  0  0
   52.6473  -18.4560   -4.2578 C   0  0  0  0  0  0  0  0  0  0  0  0
   50.7892  -16.5869   -8.2271 H   0  0  0  0  0  0  0  0  0  0  0  0
   49.5236  -20.7285   -5.5029 H   0  0  0  0  0  0  0  0  0  0  0  0
   47.4874  -19.9984   -6.3208 H   0  0  0  0  0  0  0  0  0  0  0  0
   54.3852  -18.7534   -9.6838 H   0  0  0  0  0  0  0  0  0  0  0  0
   49.7863  -18.2048   -9.7420 H   0  0  0  0  0  0  0  0  0  0  0  0
   49.7670  -19.4698   -8.4983 H   0  0  0  0  0  0  0  0  0  0  0  0
   52.5636  -16.2752   -6.8427 H   0  0  0  0  0  0  0  0  0  0  0  0
   49.1161  -15.0724   -8.3026 H   0  0  0  0  0  0  0  0  0  0  0  0
   51.2179  -19.9961   -3.8633 H   0  0  0  0  0  0  0  0  0  0  0  0
   45.9400  -18.1007   -6.0050 H   0  0  0  0  0  0  0  0  0  0  0  0
   51.9101  -17.5516  -10.8223 H   0  0  0  0  0  0  0  0  0  0  0  0
   52.7530  -17.0991   -9.2853 H   0  0  0  0  0  0  0  0  0  0  0  0
   55.4544  -17.9300  -11.6483 H   0  0  0  0  0  0  0  0  0  0  0  0
   54.7338  -16.6008  -10.6644 H   0  0  0  0  0  0  0  0  0  0  0  0
   53.9004  -17.1926  -12.1686 H   0  0  0  0  0  0  0  0  0  0  0  0
   51.6319  -19.9018   -9.9205 H   0  0  0  0  0  0  0  0  0  0  0  0
   52.3012  -19.3658   -8.3503 H   0  0  0  0  0  0  0  0  0  0  0  0
   53.9191  -16.8416   -4.8820 H   0  0  0  0  0  0  0  0  0  0  0  0
   46.8286  -14.3363   -7.8273 H   0  0  0  0  0  0  0  0  0  0  0  0
   45.2378  -15.8485   -6.6885 H   0  0  0  0  0  0  0  0  0  0  0  0
   53.2572  -18.7073   -3.3996 H   0  0  0  0  0  0  0  0  0  0  0  0
  2  1  1  0
  3  1  1  0
  4  6  1  0
  5  7  1  0
  6  2  2  0
  7  3  2  0
  8 14  1  0
  9  1  1  0
 10  2  1  0
 11  3  1  0
 12  6  1  0
 13  7  1  0
 14 16  1  0
 15  8  1  0
 16  9  1  0
 17 10  2  0
 18 11  2  0
 19 18  1  0
 20 17  1  0
  5  4  2  0
 19 13  2  0
 20 12  2  0
  1 21  1  0
  4 22  1  0
  5 23  1  0
  8 24  1  0
  9 25  1  0
  9 26  1  0
 10 27  1  0
 11 28  1  0
 12 29  1  0
 13 30  1  0
 14 31  1  0
 14 32  1  0
 15 33  1  0
 15 34  1  0
 15 35  1  0
 16 36  1  0
 16 37  1  0
 17 38  1  0
 18 39  1  0
 19 40  1  0
 20 41  1  0
M  END
> <Uni-Dock RESULT> 
ENERGY=   -4.978  LOWER_BOUND=    2.188  UPPER_BOUND=    4.982
INTER + INTRA:          -4.978
INTER:                  -4.978
INTRA:                   0.000
UNBOUND:                 0.000

$$$$

     RDKit          3D

 41 43  0  0  0  0  0  0  0  0999 V2000
   45.7942  -19.0264   -8.9786 C   0  0  0  0  0  0  0  0  0  0  0  0
   46.3147  -17.6960   -8.4683 C   0  0  0  0  0  0  0  0  0  0  0  0
   44.4393  -19.3344   -8.3711 C   0  0  0  0  0  0  0  0  0  0  0  0
   46.3438  -18.4558   -6.0312 C   0  0  0  0  0  0  0  0  0  0  0  0
   45.3263  -19.3230   -5.9739 C   0  0  0  0  0  0  0  0  0  0  0  0
   46.5737  -17.4543   -7.0953 C   0  0  0  0  0  0  0  0  0  0  0  0
   44.2417  -19.4636   -6.9714 C   0  0  0  0  0  0  0  0  0  0  0  0
   49.5220  -19.8203  -11.4737 N   0  0  0  0  0  0  0  0  0  0  0  0
   46.7918  -20.1998   -8.8020 C   0  0  0  0  0  0  0  0  0  0  0  0
   46.5846  -16.6746   -9.4027 C   0  0  0  0  0  0  0  0  0  0  0  0
   43.3400  -19.5263   -9.2341 C   0  0  0  0  0  0  0  0  0  0  0  0
   47.1312  -16.2232   -6.7069 C   0  0  0  0  0  0  0  0  0  0  0  0
   42.9681  -19.8096   -6.4860 C   0  0  0  0  0  0  0  0  0  0  0  0
   48.1512  -19.8694  -10.9528 C   0  0  0  0  0  0  0  0  0  0  0  0
   49.5099  -19.8400  -12.9373 C   0  0  0  0  0  0  0  0  0  0  0  0
   48.1798  -19.9465   -9.4210 C   0  0  0  0  0  0  0  0  0  0  0  0
   47.1170  -15.4524   -8.9936 C   0  0  0  0  0  0  0  0  0  0  0  0
   42.0802  -19.8476   -8.7293 C   0  0  0  0  0  0  0  0  0  0  0  0
   41.8951  -19.9921   -7.3575 C   0  0  0  0  0  0  0  0  0  0  0  0
   47.3947  -15.2287   -7.6482 C   0  0  0  0  0  0  0  0  0  0  0  0
   45.6454  -18.9362  -10.0764 H   0  0  0  0  0  0  0  0  0  0  0  0
   47.0021  -18.4192   -5.1706 H   0  0  0  0  0  0  0  0  0  0  0  0
   45.2445  -19.9189   -5.0717 H   0  0  0  0  0  0  0  0  0  0  0  0
   49.9506  -18.9116  -11.1772 H   0  0  0  0  0  0  0  0  0  0  0  0
   46.3557  -21.1149   -9.2599 H   0  0  0  0  0  0  0  0  0  0  0  0
   46.9425  -20.4340   -7.7304 H   0  0  0  0  0  0  0  0  0  0  0  0
   46.3927  -16.8246  -10.4577 H   0  0  0  0  0  0  0  0  0  0  0  0
   43.4552  -19.4346  -10.3070 H   0  0  0  0  0  0  0  0  0  0  0  0
   47.3539  -16.0260   -5.6649 H   0  0  0  0  0  0  0  0  0  0  0  0
   42.8007  -19.9304   -5.4221 H   0  0  0  0  0  0  0  0  0  0  0  0
   47.6306  -20.7704  -11.3480 H   0  0  0  0  0  0  0  0  0  0  0  0
   47.5953  -18.9617  -11.2748 H   0  0  0  0  0  0  0  0  0  0  0  0
   50.5526  -19.7786  -13.3141 H   0  0  0  0  0  0  0  0  0  0  0  0
   48.9372  -18.9762  -13.3419 H   0  0  0  0  0  0  0  0  0  0  0  0
   49.0670  -20.7897  -13.3073 H   0  0  0  0  0  0  0  0  0  0  0  0
   48.8442  -20.7880   -9.1252 H   0  0  0  0  0  0  0  0  0  0  0  0
   48.6231  -19.0168   -9.0039 H   0  0  0  0  0  0  0  0  0  0  0  0
   47.3221  -14.6799   -9.7235 H   0  0  0  0  0  0  0  0  0  0  0  0
   41.2471  -19.9922   -9.4051 H   0  0  0  0  0  0  0  0  0  0  0  0
   40.9187  -20.2492   -6.9677 H   0  0  0  0  0  0  0  0  0  0  0  0
   47.8155  -14.2826   -7.3329 H   0  0  0  0  0  0  0  0  0  0  0  0
  2  1  1  0
  3  1  1  0
  4  6  1  0
  5  7  1  0
  6  2  2  0
  7  3  2  0
  8 14  1  0
  9  1  1  0
 10  2  1  0
 11  3  1  0
 12  6  1  0
 13  7  1  0
 14 16  1  0
 15  8  1  0
 16  9  1  0
 17 10  2  0
 18 11  2  0
 19 18  1  0
 20 17  1  0
  5  4  2  0
 19 13  2  0
 20 12  2  0
  1 21  1  0
  4 22  1  0
  5 23  1  0
  8 24  1  0
  9 25  1  0
  9 26  1  0
 10 27  1  0
 11 28  1  0
 12 29  1  0
 13 30  1  0
 14 31  1  0
 14 32  1  0
 15 33  1  0
 15 34  1  0
 15 35  1  0
 16 36  1  0
 16 37  1  0
 17 38  1  0
 18 39  1  0
 19 40  1  0
 20 41  1  0
M  END
> <Uni-Dock RESULT> 
ENERGY=   -4.941  LOWER_BOUND=    3.279  UPPER_BOUND=    6.241
INTER + INTRA:          -4.941
INTER:                  -4.941
INTRA:                   0.000
UNBOUND:                 0.000

$$$$

     RDKit          3D

 41 43  0  0  0  0  0  0  0  0999 V2000
   50.9849  -18.2026   -6.8131 C   0  0  0  0  0  0  0  0  0  0  0  0
   50.4178  -16.7973   -6.8825 C   0  0  0  0  0  0  0  0  0  0  0  0
   51.2114  -18.6127   -5.3709 C   0  0  0  0  0  0  0  0  0  0  0  0
   52.4448  -15.7464   -5.7406 C   0  0  0  0  0  0  0  0  0  0  0  0
   52.8617  -16.7145   -4.9161 C   0  0  0  0  0  0  0  0  0  0  0  0
   51.1169  -15.6673   -6.3876 C   0  0  0  0  0  0  0  0  0  0  0  0
   52.0844  -17.9049   -4.5039 C   0  0  0  0  0  0  0  0  0  0  0  0
   51.1203  -18.6485  -11.3447 N   0  0  0  0  0  0  0  0  0  0  0  0
   52.2504  -18.4120   -7.6837 C   0  0  0  0  0  0  0  0  0  0  0  0
   49.1623  -16.6067   -7.4963 C   0  0  0  0  0  0  0  0  0  0  0  0
   50.5488  -19.7584   -4.8825 C   0  0  0  0  0  0  0  0  0  0  0  0
   50.5630  -14.3863   -6.5593 C   0  0  0  0  0  0  0  0  0  0  0  0
   52.2896  -18.3806   -3.1966 C   0  0  0  0  0  0  0  0  0  0  0  0
   51.0947  -18.9530   -9.9097 C   0  0  0  0  0  0  0  0  0  0  0  0
   50.2658  -19.5841  -12.0775 C   0  0  0  0  0  0  0  0  0  0  0  0
   52.0676  -18.0298   -9.1651 C   0  0  0  0  0  0  0  0  0  0  0  0
   48.6206  -15.3294   -7.6368 C   0  0  0  0  0  0  0  0  0  0  0  0
   50.7504  -20.1999   -3.5749 C   0  0  0  0  0  0  0  0  0  0  0  0
   51.6218  -19.5140   -2.7342 C   0  0  0  0  0  0  0  0  0  0  0  0
   49.3222  -14.2202   -7.1735 C   0  0  0  0  0  0  0  0  0  0  0  0
   50.2264  -18.8978   -7.2337 H   0  0  0  0  0  0  0  0  0  0  0  0
   53.1046  -14.8953   -5.8658 H   0  0  0  0  0  0  0  0  0  0  0  0
   53.8259  -16.5687   -4.4420 H   0  0  0  0  0  0  0  0  0  0  0  0
   50.7219  -17.6893  -11.4811 H   0  0  0  0  0  0  0  0  0  0  0  0
   52.5562  -19.4798   -7.6232 H   0  0  0  0  0  0  0  0  0  0  0  0
   53.1032  -17.8252   -7.2910 H   0  0  0  0  0  0  0  0  0  0  0  0
   48.5999  -17.4488   -7.8797 H   0  0  0  0  0  0  0  0  0  0  0  0
   49.8753  -20.3216   -5.5166 H   0  0  0  0  0  0  0  0  0  0  0  0
   51.0903  -13.5085   -6.2048 H   0  0  0  0  0  0  0  0  0  0  0  0
   52.9656  -17.8647   -2.5249 H   0  0  0  0  0  0  0  0  0  0  0  0
   51.4039  -20.0093   -9.7437 H   0  0  0  0  0  0  0  0  0  0  0  0
   50.0645  -18.8129   -9.5152 H   0  0  0  0  0  0  0  0  0  0  0  0
   50.2785  -19.3247  -13.1572 H   0  0  0  0  0  0  0  0  0  0  0  0
   49.2155  -19.5314  -11.7145 H   0  0  0  0  0  0  0  0  0  0  0  0
   50.6480  -20.6221  -11.9698 H   0  0  0  0  0  0  0  0  0  0  0  0
   53.0614  -18.0963   -9.6599 H   0  0  0  0  0  0  0  0  0  0  0  0
   51.7286  -16.9751   -9.2512 H   0  0  0  0  0  0  0  0  0  0  0  0
   47.6577  -15.1994   -8.1137 H   0  0  0  0  0  0  0  0  0  0  0  0
   50.2347  -21.0812   -3.2158 H   0  0  0  0  0  0  0  0  0  0  0  0
   51.7834  -19.8624   -1.7223 H   0  0  0  0  0  0  0  0  0  0  0  0
   48.9044  -13.2285   -7.2903 H   0  0  0  0  0  0  0  0  0  0  0  0
  2  1  1  0
  3  1  1  0
  4  6  1  0
  5  7  1  0
  6  2  2  0
  7  3  2  0
  8 14  1  0
  9  1  1  0
 10  2  1  0
 11  3  1  0
 12  6  1  0
 13  7  1  0
 14 16  1  0
 15  8  1  0
 16  9  1  0
 17 10  2  0
 18 11  2  0
 19 18  1  0
 20 17  1  0
  5  4  2  0
 19 13  2  0
 20 12  2  0
  1 21  1  0
  4 22  1  0
  5 23  1  0
  8 24  1  0
  9 25  1  0
  9 26  1  0
 10 27  1  0
 11 28  1  0
 12 29  1  0
 13 30  1  0
 14 31  1  0
 14 32  1  0
 15 33  1  0
 15 34  1  0
 15 35  1  0
 16 36  1  0
 16 37  1  0
 17 38  1  0
 18 39  1  0
 19 40  1  0
 20 41  1  0
M  END
> <Uni-Dock RESULT> 
ENERGY=   -4.663  LOWER_BOUND=    2.014  UPPER_BOUND=    3.329
INTER + INTRA:          -4.663
INTER:                  -4.663
INTRA:                   0.000
UNBOUND:                 0.000

$$$$

     RDKit          3D

 41 43  0  0  0  0  0  0  0  0999 V2000
   47.3190  -17.6613   -7.6300 C   0  0  0  0  0  0  0  0  0  0  0  0
   47.6790  -18.5325   -8.8186 C   0  0  0  0  0  0  0  0  0  0  0  0
   48.4107  -16.6415   -7.3695 C   0  0  0  0  0  0  0  0  0  0  0  0
   49.7983  -19.4387   -7.7212 C   0  0  0  0  0  0  0  0  0  0  0  0
   50.2014  -18.4179   -6.9557 C   0  0  0  0  0  0  0  0  0  0  0  0
   48.8305  -19.3596   -8.8371 C   0  0  0  0  0  0  0  0  0  0  0  0
   49.7455  -17.0136   -7.0623 C   0  0  0  0  0  0  0  0  0  0  0  0
   43.4256  -19.8929   -6.8464 N   0  0  0  0  0  0  0  0  0  0  0  0
   46.9533  -18.4617   -6.3536 C   0  0  0  0  0  0  0  0  0  0  0  0
   46.8131  -18.5449   -9.9319 C   0  0  0  0  0  0  0  0  0  0  0  0
   48.0778  -15.2712   -7.4078 C   0  0  0  0  0  0  0  0  0  0  0  0
   49.0560  -20.2000   -9.9417 C   0  0  0  0  0  0  0  0  0  0  0  0
   50.6894  -16.0119   -6.7740 C   0  0  0  0  0  0  0  0  0  0  0  0
   44.4689  -18.8613   -6.8548 C   0  0  0  0  0  0  0  0  0  0  0  0
   42.1081  -19.2840   -7.0359 C   0  0  0  0  0  0  0  0  0  0  0  0
   45.8324  -19.4987   -6.5586 C   0  0  0  0  0  0  0  0  0  0  0  0
   47.0671  -19.3698  -11.0272 C   0  0  0  0  0  0  0  0  0  0  0  0
   49.0356  -14.2933   -7.1398 C   0  0  0  0  0  0  0  0  0  0  0  0
   50.3386  -14.6631   -6.8203 C   0  0  0  0  0  0  0  0  0  0  0  0
   48.1842  -20.2000  -11.0300 C   0  0  0  0  0  0  0  0  0  0  0  0
   46.3989  -17.0939   -7.8889 H   0  0  0  0  0  0  0  0  0  0  0  0
   50.3010  -20.3878   -7.5722 H   0  0  0  0  0  0  0  0  0  0  0  0
   50.9969  -18.6240   -6.2483 H   0  0  0  0  0  0  0  0  0  0  0  0
   43.5937  -20.5326   -7.6587 H   0  0  0  0  0  0  0  0  0  0  0  0
   46.6421  -17.7486   -5.5586 H   0  0  0  0  0  0  0  0  0  0  0  0
   47.8360  -18.9991   -5.9563 H   0  0  0  0  0  0  0  0  0  0  0  0
   45.9284  -17.9210   -9.9522 H   0  0  0  0  0  0  0  0  0  0  0  0
   47.0692  -14.9521   -7.6396 H   0  0  0  0  0  0  0  0  0  0  0  0
   49.9202  -20.8533   -9.9667 H   0  0  0  0  0  0  0  0  0  0  0  0
   51.7093  -16.2758   -6.5199 H   0  0  0  0  0  0  0  0  0  0  0  0
   44.2512  -18.0996   -6.0729 H   0  0  0  0  0  0  0  0  0  0  0  0
   44.4935  -18.3615   -7.8479 H   0  0  0  0  0  0  0  0  0  0  0  0
   41.3341  -20.0802   -7.0505 H   0  0  0  0  0  0  0  0  0  0  0  0
   42.0613  -18.7291   -7.9992 H   0  0  0  0  0  0  0  0  0  0  0  0
   41.8759  -18.5956   -6.1950 H   0  0  0  0  0  0  0  0  0  0  0  0
   45.7443  -20.0954   -5.6242 H   0  0  0  0  0  0  0  0  0  0  0  0
   46.1050  -20.2038   -7.3731 H   0  0  0  0  0  0  0  0  0  0  0  0
   46.3909  -19.3707  -11.8723 H   0  0  0  0  0  0  0  0  0  0  0  0
   48.7638  -13.2461   -7.1728 H   0  0  0  0  0  0  0  0  0  0  0  0
   51.0789  -13.9035   -6.6048 H   0  0  0  0  0  0  0  0  0  0  0  0
   48.3760  -20.8457  -11.8773 H   0  0  0  0  0  0  0  0  0  0  0  0
  2  1  1  0
  3  1  1  0
  4  6  1  0
  5  7  1  0
  6  2  2  0
  7  3  2  0
  8 14  1  0
  9  1  1  0
 10  2  1  0
 11  3  1  0
 12  6  1  0
 13  7  1  0
 14 16  1  0
 15  8  1  0
 16  9  1  0
 17 10  2  0
 18 11  2  0
 19 18  1  0
 20 17  1  0
  5  4  2  0
 19 13  2  0
 20 12  2  0
  1 21  1  0
  4 22  1  0
  5 23  1  0
  8 24  1  0
  9 25  1  0
  9 26  1  0
 10 27  1  0
 11 28  1  0
 12 29  1  0
 13 30  1  0
 14 31  1  0
 14 32  1  0
 15 33  1  0
 15 34  1  0
 15 35  1  0
 16 36  1  0
 16 37  1  0
 17 38  1  0
 18 39  1  0
 19 40  1  0
 20 41  1  0
M  END
> <Uni-Dock RESULT> 
ENERGY=   -4.280  LOWER_BOUND=    2.498  UPPER_BOUND=    4.911
INTER + INTRA:          -4.280
INTER:                  -4.280
INTRA:                   0.000
UNBOUND:                 0.000

$$$$

     RDKit          3D

 41 43  0  0  0  0  0  0  0  0999 V2000
   50.2631  -17.1247   -8.4693 C   0  0  0  0  0  0  0  0  0  0  0  0
   48.9163  -16.8155   -7.8432 C   0  0  0  0  0  0  0  0  0  0  0  0
   50.0841  -17.6518   -9.8798 C   0  0  0  0  0  0  0  0  0  0  0  0
   48.0939  -19.2254   -8.0260 C   0  0  0  0  0  0  0  0  0  0  0  0
   48.7073  -19.6702   -9.1290 C   0  0  0  0  0  0  0  0  0  0  0  0
   47.9254  -17.8084   -7.6363 C   0  0  0  0  0  0  0  0  0  0  0  0
   49.3532  -18.8344  -10.1661 C   0  0  0  0  0  0  0  0  0  0  0  0
   52.5642  -15.9671   -4.7120 N   0  0  0  0  0  0  0  0  0  0  0  0
   51.1560  -18.0553   -7.6089 C   0  0  0  0  0  0  0  0  0  0  0  0
   48.6574  -15.4956   -7.4189 C   0  0  0  0  0  0  0  0  0  0  0  0
   50.6914  -16.9528  -10.9441 C   0  0  0  0  0  0  0  0  0  0  0  0
   46.7324  -17.4626   -6.9771 C   0  0  0  0  0  0  0  0  0  0  0  0
   49.2809  -19.2937  -11.4932 C   0  0  0  0  0  0  0  0  0  0  0  0
   52.2268  -16.2719   -6.1069 C   0  0  0  0  0  0  0  0  0  0  0  0
   53.4422  -14.7978   -4.6458 C   0  0  0  0  0  0  0  0  0  0  0  0
   51.3875  -17.5544   -6.1703 C   0  0  0  0  0  0  0  0  0  0  0  0
   47.4581  -15.1691   -6.7866 C   0  0  0  0  0  0  0  0  0  0  0  0
   50.5885  -17.4148  -12.2561 C   0  0  0  0  0  0  0  0  0  0  0  0
   49.8871  -18.5852  -12.5299 C   0  0  0  0  0  0  0  0  0  0  0  0
   46.4990  -16.1522   -6.5615 C   0  0  0  0  0  0  0  0  0  0  0  0
   50.8299  -16.1718   -8.5476 H   0  0  0  0  0  0  0  0  0  0  0  0
   47.5907  -19.9667   -7.4156 H   0  0  0  0  0  0  0  0  0  0  0  0
   48.6517  -20.7359   -9.3210 H   0  0  0  0  0  0  0  0  0  0  0  0
   51.6788  -15.7216   -4.2090 H   0  0  0  0  0  0  0  0  0  0  0  0
   52.1413  -18.1737   -8.1112 H   0  0  0  0  0  0  0  0  0  0  0  0
   50.7208  -19.0712   -7.5420 H   0  0  0  0  0  0  0  0  0  0  0  0
   49.3905  -14.7126   -7.5671 H   0  0  0  0  0  0  0  0  0  0  0  0
   51.2558  -16.0467  -10.7615 H   0  0  0  0  0  0  0  0  0  0  0  0
   45.9707  -18.2109   -6.7927 H   0  0  0  0  0  0  0  0  0  0  0  0
   48.7428  -20.2040  -11.7301 H   0  0  0  0  0  0  0  0  0  0  0  0
   53.1595  -16.4237   -6.6951 H   0  0  0  0  0  0  0  0  0  0  0  0
   51.6564  -15.4252   -6.5480 H   0  0  0  0  0  0  0  0  0  0  0  0
   53.6680  -14.5676   -3.5833 H   0  0  0  0  0  0  0  0  0  0  0  0
   52.9550  -13.9083   -5.1035 H   0  0  0  0  0  0  0  0  0  0  0  0
   54.4033  -15.0065   -5.1632 H   0  0  0  0  0  0  0  0  0  0  0  0
   51.9254  -18.3526   -5.6134 H   0  0  0  0  0  0  0  0  0  0  0  0
   50.4148  -17.3953   -5.6572 H   0  0  0  0  0  0  0  0  0  0  0  0
   47.2761  -14.1522   -6.4635 H   0  0  0  0  0  0  0  0  0  0  0  0
   51.0609  -16.8670  -13.0613 H   0  0  0  0  0  0  0  0  0  0  0  0
   49.8147  -18.9467  -13.5475 H   0  0  0  0  0  0  0  0  0  0  0  0
   45.5718  -15.8992   -6.0635 H   0  0  0  0  0  0  0  0  0  0  0  0
  2  1  1  0
  3  1  1  0
  4  6  1  0
  5  7  1  0
  6  2  2  0
  7  3  2  0
  8 14  1  0
  9  1  1  0
 10  2  1  0
 11  3  1  0
 12  6  1  0
 13  7  1  0
 14 16  1  0
 15  8  1  0
 16  9  1  0
 17 10  2  0
 18 11  2  0
 19 18  1  0
 20 17  1  0
  5  4  2  0
 19 13  2  0
 20 12  2  0
  1 21  1  0
  4 22  1  0
  5 23  1  0
  8 24  1  0
  9 25  1  0
  9 26  1  0
 10 27  1  0
 11 28  1  0
 12 29  1  0
 13 30  1  0
 14 31  1  0
 14 32  1  0
 15 33  1  0
 15 34  1  0
 15 35  1  0
 16 36  1  0
 16 37  1  0
 17 38  1  0
 18 39  1  0
 19 40  1  0
 20 41  1  0
M  END
> <Uni-Dock RESULT> 
ENERGY=   -4.199  LOWER_BOUND=    2.256  UPPER_BOUND=    5.402
INTER + INTRA:          -4.199
INTER:                  -4.199
INTRA:                   0.000
UNBOUND:                 0.000

$$$$

     RDKit          3D

 41 43  0  0  0  0  0  0  0  0999 V2000
   48.9354  -16.8084   -7.4235 C   0  0  0  0  0  0  0  0  0  0  0  0
   49.6055  -17.0339   -8.7656 C   0  0  0  0  0  0  0  0  0  0  0  0
   47.5694  -17.4664   -7.3952 C   0  0  0  0  0  0  0  0  0  0  0  0
   47.7712  -15.8282  -10.0690 C   0  0  0  0  0  0  0  0  0  0  0  0
   46.6744  -16.0740   -9.3429 C   0  0  0  0  0  0  0  0  0  0  0  0
   49.0532  -16.5611   -9.9830 C   0  0  0  0  0  0  0  0  0  0  0  0
   46.5333  -17.1142   -8.2991 C   0  0  0  0  0  0  0  0  0  0  0  0
   52.3854  -14.2940   -5.8336 N   0  0  0  0  0  0  0  0  0  0  0  0
   48.8734  -15.3196   -6.9956 C   0  0  0  0  0  0  0  0  0  0  0  0
   50.8436  -17.7088   -8.7958 C   0  0  0  0  0  0  0  0  0  0  0  0
   47.3123  -18.4468   -6.4140 C   0  0  0  0  0  0  0  0  0  0  0  0
   49.7716  -16.7382  -11.1787 C   0  0  0  0  0  0  0  0  0  0  0  0
   45.2735  -17.7260   -8.1731 C   0  0  0  0  0  0  0  0  0  0  0  0
   51.1895  -15.1410   -5.9061 C   0  0  0  0  0  0  0  0  0  0  0  0
   53.2560  -14.7372   -4.7436 C   0  0  0  0  0  0  0  0  0  0  0  0
   50.2401  -14.6082   -6.9868 C   0  0  0  0  0  0  0  0  0  0  0  0
   51.5294  -17.8934   -9.9959 C   0  0  0  0  0  0  0  0  0  0  0  0
   46.0615  -19.0568   -6.3209 C   0  0  0  0  0  0  0  0  0  0  0  0
   45.0426  -18.6947   -7.1971 C   0  0  0  0  0  0  0  0  0  0  0  0
   50.9966  -17.4043  -11.1851 C   0  0  0  0  0  0  0  0  0  0  0  0
   49.5529  -17.3072   -6.6455 H   0  0  0  0  0  0  0  0  0  0  0  0
   47.6780  -15.0908  -10.8583 H   0  0  0  0  0  0  0  0  0  0  0  0
   45.7827  -15.5146   -9.6029 H   0  0  0  0  0  0  0  0  0  0  0  0
   52.9203  -14.4088   -6.7268 H   0  0  0  0  0  0  0  0  0  0  0  0
   48.4285  -15.2558   -5.9781 H   0  0  0  0  0  0  0  0  0  0  0  0
   48.2021  -14.7435   -7.6614 H   0  0  0  0  0  0  0  0  0  0  0  0
   51.2901  -18.0875   -7.8849 H   0  0  0  0  0  0  0  0  0  0  0  0
   48.0803  -18.7400   -5.7089 H   0  0  0  0  0  0  0  0  0  0  0  0
   49.3755  -16.3676  -12.1168 H   0  0  0  0  0  0  0  0  0  0  0  0
   44.4641  -17.4582   -8.8421 H   0  0  0  0  0  0  0  0  0  0  0  0
   50.6608  -15.1301   -4.9266 H   0  0  0  0  0  0  0  0  0  0  0  0
   51.4846  -16.1862   -6.1447 H   0  0  0  0  0  0  0  0  0  0  0  0
   54.1658  -14.1011   -4.7183 H   0  0  0  0  0  0  0  0  0  0  0  0
   53.5692  -15.7948   -4.8898 H   0  0  0  0  0  0  0  0  0  0  0  0
   52.7366  -14.6317   -3.7668 H   0  0  0  0  0  0  0  0  0  0  0  0
   50.0612  -13.5276   -6.7938 H   0  0  0  0  0  0  0  0  0  0  0  0
   50.7214  -14.6875   -7.9852 H   0  0  0  0  0  0  0  0  0  0  0  0
   52.4804  -18.4101  -10.0018 H   0  0  0  0  0  0  0  0  0  0  0  0
   45.8802  -19.8069   -5.5619 H   0  0  0  0  0  0  0  0  0  0  0  0
   44.0700  -19.1631   -7.1186 H   0  0  0  0  0  0  0  0  0  0  0  0
   51.5337  -17.5411  -12.1149 H   0  0  0  0  0  0  0  0  0  0  0  0
  2  1  1  0
  3  1  1  0
  4  6  1  0
  5  7  1  0
  6  2  2  0
  7  3  2  0
  8 14  1  0
  9  1  1  0
 10  2  1  0
 11  3  1  0
 12  6  1  0
 13  7  1  0
 14 16  1  0
 15  8  1  0
 16  9  1  0
 17 10  2  0
 18 11  2  0
 19 18  1  0
 20 17  1  0
  5  4  2  0
 19 13  2  0
 20 12  2  0
  1 21  1  0
  4 22  1  0
  5 23  1  0
  8 24  1  0
  9 25  1  0
  9 26  1  0
 10 27  1  0
 11 28  1  0
 12 29  1  0
 13 30  1  0
 14 31  1  0
 14 32  1  0
 15 33  1  0
 15 34  1  0
 15 35  1  0
 16 36  1  0
 16 37  1  0
 17 38  1  0
 18 39  1  0
 19 40  1  0
 20 41  1  0
M  END
> <Uni-Dock RESULT> 
ENERGY=   -4.059  LOWER_BOUND=    2.417  UPPER_BOUND=    5.758
INTER + INTRA:          -4.059
INTER:                  -4.059
INTRA:                   0.000
UNBOUND:                 0.000

$$$$

     RDKit          3D

 41 43  0  0  0  0  0  0  0  0999 V2000
   46.9086  -15.7643  -10.6721 C   0  0  0  0  0  0  0  0  0  0  0  0
   47.6456  -16.8293  -11.4619 C   0  0  0  0  0  0  0  0  0  0  0  0
   46.7400  -16.1961   -9.2282 C   0  0  0  0  0  0  0  0  0  0  0  0
   45.8629  -18.6076  -11.0417 C   0  0  0  0  0  0  0  0  0  0  0  0
   45.3876  -18.2784   -9.8349 C   0  0  0  0  0  0  0  0  0  0  0  0
   47.1375  -18.1422  -11.6308 C   0  0  0  0  0  0  0  0  0  0  0  0
   46.0333  -17.3708   -8.8601 C   0  0  0  0  0  0  0  0  0  0  0  0
   46.3767  -13.0709  -14.3073 N   0  0  0  0  0  0  0  0  0  0  0  0
   45.5648  -15.3276  -11.3100 C   0  0  0  0  0  0  0  0  0  0  0  0
   48.8655  -16.4859  -12.0811 C   0  0  0  0  0  0  0  0  0  0  0  0
   47.2839  -15.3826   -8.2121 C   0  0  0  0  0  0  0  0  0  0  0  0
   47.8377  -19.0515  -12.4432 C   0  0  0  0  0  0  0  0  0  0  0  0
   45.8673  -17.6745   -7.4972 C   0  0  0  0  0  0  0  0  0  0  0  0
   46.4704  -13.5504  -12.9238 C   0  0  0  0  0  0  0  0  0  0  0  0
   47.0457  -11.7760  -14.4422 C   0  0  0  0  0  0  0  0  0  0  0  0
   45.6837  -14.8586  -12.7728 C   0  0  0  0  0  0  0  0  0  0  0  0
   49.5555  -17.4100  -12.8650 C   0  0  0  0  0  0  0  0  0  0  0  0
   47.1258  -15.7146   -6.8667 C   0  0  0  0  0  0  0  0  0  0  0  0
   46.4159  -16.8571   -6.5096 C   0  0  0  0  0  0  0  0  0  0  0  0
   49.0399  -18.6895  -13.0500 C   0  0  0  0  0  0  0  0  0  0  0  0
   47.5372  -14.8476  -10.6661 H   0  0  0  0  0  0  0  0  0  0  0  0
   45.3110  -19.3596  -11.5945 H   0  0  0  0  0  0  0  0  0  0  0  0
   44.4887  -18.7900   -9.5094 H   0  0  0  0  0  0  0  0  0  0  0  0
   46.8842  -13.7502  -14.9224 H   0  0  0  0  0  0  0  0  0  0  0  0
   45.1292  -14.5037  -10.7027 H   0  0  0  0  0  0  0  0  0  0  0  0
   44.8269  -16.1526  -11.2834 H   0  0  0  0  0  0  0  0  0  0  0  0
   49.2841  -15.4938  -11.9674 H   0  0  0  0  0  0  0  0  0  0  0  0
   47.8294  -14.4798   -8.4575 H   0  0  0  0  0  0  0  0  0  0  0  0
   47.4563  -20.0536  -12.6000 H   0  0  0  0  0  0  0  0  0  0  0  0
   45.3159  -18.5572   -7.1950 H   0  0  0  0  0  0  0  0  0  0  0  0
   46.0408  -12.7912  -12.2326 H   0  0  0  0  0  0  0  0  0  0  0  0
   47.5368  -13.7182  -12.6569 H   0  0  0  0  0  0  0  0  0  0  0  0
   46.9856  -11.4398  -15.4989 H   0  0  0  0  0  0  0  0  0  0  0  0
   48.1184  -11.8509  -14.1565 H   0  0  0  0  0  0  0  0  0  0  0  0
   46.5418  -11.0131  -13.8105 H   0  0  0  0  0  0  0  0  0  0  0  0
   44.6553  -14.6958  -13.1637 H   0  0  0  0  0  0  0  0  0  0  0  0
   46.1487  -15.6533  -13.3949 H   0  0  0  0  0  0  0  0  0  0  0  0
   50.4886  -17.1299  -13.3365 H   0  0  0  0  0  0  0  0  0  0  0  0
   47.5489  -15.0795   -6.0992 H   0  0  0  0  0  0  0  0  0  0  0  0
   46.2872  -17.1093   -5.4649 H   0  0  0  0  0  0  0  0  0  0  0  0
   49.5723  -19.4034  -13.6653 H   0  0  0  0  0  0  0  0  0  0  0  0
  2  1  1  0
  3  1  1  0
  4  6  1  0
  5  7  1  0
  6  2  2  0
  7  3  2  0
  8 14  1  0
  9  1  1  0
 10  2  1  0
 11  3  1  0
 12  6  1  0
 13  7  1  0
 14 16  1  0
 15  8  1  0
 16  9  1  0
 17 10  2  0
 18 11  2  0
 19 18  1  0
 20 17  1  0
  5  4  2  0
 19 13  2  0
 20 12  2  0
  1 21  1  0
  4 22  1  0
  5 23  1  0
  8 24  1  0
  9 25  1  0
  9 26  1  0
 10 27  1  0
 11 28  1  0
 12 29  1  0
 13 30  1  0
 14 31  1  0
 14 32  1  0
 15 33  1  0
 15 34  1  0
 15 35  1  0
 16 36  1  0
 16 37  1  0
 17 38  1  0
 18 39  1  0
 19 40  1  0
 20 41  1  0
M  END
> <Uni-Dock RESULT> 
ENERGY=   -3.946  LOWER_BOUND=    3.648  UPPER_BOUND=    6.174
INTER + INTRA:          -3.946
INTER:                  -3.946
INTRA:                   0.000
UNBOUND:                 0.000

$$$$
