
     RDKit          3D

 41 43  0  0  0  0  0  0  0  0999 V2000
   50.2004  -17.7066   -7.4558 C   0  0  0  0  0  0  0  0  0  0  0  0
   51.0433  -16.8043   -6.5745 C   0  0  0  0  0  0  0  0  0  0  0  0
   48.7393  -17.6243   -7.0604 C   0  0  0  0  0  0  0  0  0  0  0  0
   49.8158  -14.6818   -7.2888 C   0  0  0  0  0  0  0  0  0  0  0  0
   48.5786  -15.1216   -7.5478 C   0  0  0  0  0  0  0  0  0  0  0  0
   50.8513  -15.4004   -6.5138 C   0  0  0  0  0  0  0  0  0  0  0  0
   48.0029  -16.4126   -7.1098 C   0  0  0  0  0  0  0  0  0  0  0  0
   53.4250  -17.8119  -11.2922 N   0  0  0  0  0  0  0  0  0  0  0  0
   50.4115  -17.4646   -8.9691 C   0  0  0  0  0  0  0  0  0  0  0  0
   52.0801  -17.3839   -5.8144 C   0  0  0  0  0  0  0  0  0  0  0  0
   48.0816  -18.8051   -6.6571 C   0  0  0  0  0  0  0  0  0  0  0  0
   51.7192  -14.6212   -5.7285 C   0  0  0  0  0  0  0  0  0  0  0  0
   46.6338  -16.4265   -6.7893 C   0  0  0  0  0  0  0  0  0  0  0  0
   52.0291  -17.5654  -10.9133 C   0  0  0  0  0  0  0  0  0  0  0  0
   53.6197  -17.5385  -12.7169 C   0  0  0  0  0  0  0  0  0  0  0  0
   51.8591  -17.7450   -9.4021 C   0  0  0  0  0  0  0  0  0  0  0  0
   52.9160  -16.5949   -5.0246 C   0  0  0  0  0  0  0  0  0  0  0  0
   46.7277  -18.7920   -6.3220 C   0  0  0  0  0  0  0  0  0  0  0  0
   46.0040  -17.6053   -6.3915 C   0  0  0  0  0  0  0  0  0  0  0  0
   52.7385  -15.2150   -4.9849 C   0  0  0  0  0  0  0  0  0  0  0  0
   50.5320  -18.7564   -7.2868 H   0  0  0  0  0  0  0  0  0  0  0  0
   50.0475  -13.6689   -7.5982 H   0  0  0  0  0  0  0  0  0  0  0  0
   47.9096  -14.4286   -8.0454 H   0  0  0  0  0  0  0  0  0  0  0  0
   53.6300  -18.8274  -11.1386 H   0  0  0  0  0  0  0  0  0  0  0  0
   50.1456  -16.4286   -9.2573 H   0  0  0  0  0  0  0  0  0  0  0  0
   49.7351  -18.1464   -9.5311 H   0  0  0  0  0  0  0  0  0  0  0  0
   52.2532  -18.4527   -5.8386 H   0  0  0  0  0  0  0  0  0  0  0  0
   48.6143  -19.7467   -6.6072 H   0  0  0  0  0  0  0  0  0  0  0  0
   51.6007  -13.5450   -5.6830 H   0  0  0  0  0  0  0  0  0  0  0  0
   46.0496  -15.5151   -6.8377 H   0  0  0  0  0  0  0  0  0  0  0  0
   51.7431  -16.5236  -11.1827 H   0  0  0  0  0  0  0  0  0  0  0  0
   51.3553  -18.2727  -11.4490 H   0  0  0  0  0  0  0  0  0  0  0  0
   53.4224  -16.4668  -12.9351 H   0  0  0  0  0  0  0  0  0  0  0  0
   54.6734  -17.7556  -12.9921 H   0  0  0  0  0  0  0  0  0  0  0  0
   52.9540  -18.1770  -13.3390 H   0  0  0  0  0  0  0  0  0  0  0  0
   52.5480  -17.0465   -8.8787 H   0  0  0  0  0  0  0  0  0  0  0  0
   52.1347  -18.7860   -9.1247 H   0  0  0  0  0  0  0  0  0  0  0  0
   53.7090  -17.0545   -4.4489 H   0  0  0  0  0  0  0  0  0  0  0  0
   46.2373  -19.7069   -6.0152 H   0  0  0  0  0  0  0  0  0  0  0  0
   44.9515  -17.5982   -6.1389 H   0  0  0  0  0  0  0  0  0  0  0  0
   53.3931  -14.6028   -4.3779 H   0  0  0  0  0  0  0  0  0  0  0  0
  2  1  1  0
  3  1  1  0
  4  6  1  0
  5  7  1  0
  6  2  2  0
  7  3  2  0
  8 14  1  0
  9  1  1  0
 10  2  1  0
 11  3  1  0
 12  6  1  0
 13  7  1  0
 14 16  1  0
 15  8  1  0
 16  9  1  0
 17 10  2  0
 18 11  2  0
 19 18  1  0
 20 17  1  0
  5  4  2  0
 19 13  2  0
 20 12  2  0
  1 21  1  0
  4 22  1  0
  5 23  1  0
  8 24  1  0
  9 25  1  0
  9 26  1  0
 10 27  1  0
 11 28  1  0
 12 29  1  0
 13 30  1  0
 14 31  1  0
 14 32  1  0
 15 33  1  0
 15 34  1  0
 15 35  1  0
 16 36  1  0
 16 37  1  0
 17 38  1  0
 18 39  1  0
 19 40  1  0
 20 41  1  0
M  END
> <Uni-Dock RESULT> 
ENERGY=   -6.141  LOWER_BOUND=    0.000  UPPER_BOUND=    0.000
INTER + INTRA:          -6.141
INTER:                  -6.141
INTRA:                   0.000
UNBOUND:                 0.000

$$$$

     RDKit          3D

 41 43  0  0  0  0  0  0  0  0999 V2000
   50.1110  -16.2073   -7.6017 C   0  0  0  0  0  0  0  0  0  0  0  0
   48.7032  -16.5931   -7.1888 C   0  0  0  0  0  0  0  0  0  0  0  0
   51.0980  -16.5310   -6.4977 C   0  0  0  0  0  0  0  0  0  0  0  0
   49.2850  -19.0637   -6.9063 C   0  0  0  0  0  0  0  0  0  0  0  0
   50.5699  -19.0303   -6.5335 C   0  0  0  0  0  0  0  0  0  0  0  0
   48.3385  -17.9269   -6.8733 C   0  0  0  0  0  0  0  0  0  0  0  0
   51.2965  -17.8501   -6.0146 C   0  0  0  0  0  0  0  0  0  0  0  0
   49.2523  -16.3904  -12.5369 N   0  0  0  0  0  0  0  0  0  0  0  0
   50.5406  -16.8025   -8.9635 C   0  0  0  0  0  0  0  0  0  0  0  0
   47.7134  -15.5892   -7.1528 C   0  0  0  0  0  0  0  0  0  0  0  0
   51.8687  -15.4828   -5.9526 C   0  0  0  0  0  0  0  0  0  0  0  0
   46.9971  -18.2192   -6.5691 C   0  0  0  0  0  0  0  0  0  0  0  0
   52.2762  -18.0828   -5.0330 C   0  0  0  0  0  0  0  0  0  0  0  0
   50.1357  -16.8552  -11.4616 C   0  0  0  0  0  0  0  0  0  0  0  0
   49.6440  -16.9940  -13.8116 C   0  0  0  0  0  0  0  0  0  0  0  0
   49.6514  -16.3086  -10.1156 C   0  0  0  0  0  0  0  0  0  0  0  0
   46.3928  -15.8972   -6.8270 C   0  0  0  0  0  0  0  0  0  0  0  0
   52.8198  -15.7328   -4.9635 C   0  0  0  0  0  0  0  0  0  0  0  0
   53.0258  -17.0313   -4.5069 C   0  0  0  0  0  0  0  0  0  0  0  0
   46.0342  -17.2109   -6.5395 C   0  0  0  0  0  0  0  0  0  0  0  0
   50.1325  -15.1041   -7.7541 H   0  0  0  0  0  0  0  0  0  0  0  0
   48.8793  -20.0339   -7.1700 H   0  0  0  0  0  0  0  0  0  0  0  0
   51.0994  -19.9763   -6.5255 H   0  0  0  0  0  0  0  0  0  0  0  0
   49.3723  -15.3544  -12.6324 H   0  0  0  0  0  0  0  0  0  0  0  0
   50.5244  -17.9099   -8.9478 H   0  0  0  0  0  0  0  0  0  0  0  0
   51.5895  -16.4915   -9.1671 H   0  0  0  0  0  0  0  0  0  0  0  0
   47.9592  -14.5611   -7.3885 H   0  0  0  0  0  0  0  0  0  0  0  0
   51.7416  -14.4642   -6.2977 H   0  0  0  0  0  0  0  0  0  0  0  0
   46.6945  -19.2348   -6.3429 H   0  0  0  0  0  0  0  0  0  0  0  0
   52.4553  -19.0856   -4.6635 H   0  0  0  0  0  0  0  0  0  0  0  0
   50.1254  -17.9678  -11.4188 H   0  0  0  0  0  0  0  0  0  0  0  0
   51.1794  -16.5126  -11.6471 H   0  0  0  0  0  0  0  0  0  0  0  0
   49.5273  -18.0984  -13.7681 H   0  0  0  0  0  0  0  0  0  0  0  0
   48.9832  -16.6113  -14.6178 H   0  0  0  0  0  0  0  0  0  0  0  0
   50.6962  -16.7375  -14.0664 H   0  0  0  0  0  0  0  0  0  0  0  0
   48.6040  -16.6427   -9.9493 H   0  0  0  0  0  0  0  0  0  0  0  0
   49.6664  -15.1970  -10.1461 H   0  0  0  0  0  0  0  0  0  0  0  0
   45.6442  -15.1157   -6.8062 H   0  0  0  0  0  0  0  0  0  0  0  0
   53.4038  -14.9176   -4.5560 H   0  0  0  0  0  0  0  0  0  0  0  0
   53.7698  -17.2250   -3.7450 H   0  0  0  0  0  0  0  0  0  0  0  0
   45.0073  -17.4499   -6.2948 H   0  0  0  0  0  0  0  0  0  0  0  0
  2  1  1  0
  3  1  1  0
  4  6  1  0
  5  7  1  0
  6  2  2  0
  7  3  2  0
  8 14  1  0
  9  1  1  0
 10  2  1  0
 11  3  1  0
 12  6  1  0
 13  7  1  0
 14 16  1  0
 15  8  1  0
 16  9  1  0
 17 10  2  0
 18 11  2  0
 19 18  1  0
 20 17  1  0
  5  4  2  0
 19 13  2  0
 20 12  2  0
  1 21  1  0
  4 22  1  0
  5 23  1  0
  8 24  1  0
  9 25  1  0
  9 26  1  0
 10 27  1  0
 11 28  1  0
 12 29  1  0
 13 30  1  0
 14 31  1  0
 14 32  1  0
 15 33  1  0
 15 34  1  0
 15 35  1  0
 16 36  1  0
 16 37  1  0
 17 38  1  0
 18 39  1  0
 19 40  1  0
 20 41  1  0
M  END
> <Uni-Dock RESULT> 
ENERGY=   -5.806  LOWER_BOUND=    1.677  UPPER_BOUND=    4.772
INTER + INTRA:          -5.806
INTER:                  -5.806
INTRA:                   0.000
UNBOUND:                 0.000

$$$$

     RDKit          3D

 41 43  0  0  0  0  0  0  0  0999 V2000
   49.6799  -16.0093   -7.6675 C   0  0  0  0  0  0  0  0  0  0  0  0
   48.4800  -16.7856   -7.1587 C   0  0  0  0  0  0  0  0  0  0  0  0
   50.8109  -16.0547   -6.6593 C   0  0  0  0  0  0  0  0  0  0  0  0
   49.7578  -18.9924   -7.0196 C   0  0  0  0  0  0  0  0  0  0  0  0
   51.0085  -18.6002   -6.7497 C   0  0  0  0  0  0  0  0  0  0  0  0
   48.5357  -18.1725   -6.8670 C   0  0  0  0  0  0  0  0  0  0  0  0
   51.4151  -17.2698   -6.2452 C   0  0  0  0  0  0  0  0  0  0  0  0
   48.4786  -16.3574  -12.5216 N   0  0  0  0  0  0  0  0  0  0  0  0
   50.1388  -16.4378   -9.0813 C   0  0  0  0  0  0  0  0  0  0  0  0
   47.2543  -16.1054   -7.0047 C   0  0  0  0  0  0  0  0  0  0  0  0
   51.2992  -14.8387   -6.1373 C   0  0  0  0  0  0  0  0  0  0  0  0
   47.3633  -18.8386   -6.4681 C   0  0  0  0  0  0  0  0  0  0  0  0
   52.5028  -17.2284   -5.3548 C   0  0  0  0  0  0  0  0  0  0  0  0
   49.5479  -16.5673  -11.5392 C   0  0  0  0  0  0  0  0  0  0  0  0
   48.9114  -16.8061  -13.8460 C   0  0  0  0  0  0  0  0  0  0  0  0
   49.0490  -16.2006  -10.1386 C   0  0  0  0  0  0  0  0  0  0  0  0
   46.1081  -16.7810   -6.5866 C   0  0  0  0  0  0  0  0  0  0  0  0
   52.3650  -14.8221   -5.2377 C   0  0  0  0  0  0  0  0  0  0  0  0
   52.9683  -16.0148   -4.8498 C   0  0  0  0  0  0  0  0  0  0  0  0
   46.1615  -18.1465   -6.3226 C   0  0  0  0  0  0  0  0  0  0  0  0
   49.3757  -14.9435   -7.7781 H   0  0  0  0  0  0  0  0  0  0  0  0
   49.6209  -20.0340   -7.2875 H   0  0  0  0  0  0  0  0  0  0  0  0
   51.7821  -19.3565   -6.8207 H   0  0  0  0  0  0  0  0  0  0  0  0
   48.2925  -15.3288  -12.5861 H   0  0  0  0  0  0  0  0  0  0  0  0
   50.4373  -17.5042   -9.1074 H   0  0  0  0  0  0  0  0  0  0  0  0
   51.0353  -15.8383   -9.3558 H   0  0  0  0  0  0  0  0  0  0  0  0
   47.1782  -15.0466   -7.2192 H   0  0  0  0  0  0  0  0  0  0  0  0
   50.8600  -13.8934   -6.4313 H   0  0  0  0  0  0  0  0  0  0  0  0
   47.3807  -19.9016   -6.2581 H   0  0  0  0  0  0  0  0  0  0  0  0
   52.9893  -18.1441   -5.0399 H   0  0  0  0  0  0  0  0  0  0  0  0
   49.8558  -17.6373  -11.5389 H   0  0  0  0  0  0  0  0  0  0  0  0
   50.4321  -15.9392  -11.7941 H   0  0  0  0  0  0  0  0  0  0  0  0
   49.1154  -17.8985  -13.8362 H   0  0  0  0  0  0  0  0  0  0  0  0
   48.1014  -16.6155  -14.5813 H   0  0  0  0  0  0  0  0  0  0  0  0
   49.8219  -16.2571  -14.1739 H   0  0  0  0  0  0  0  0  0  0  0  0
   48.1573  -16.8213   -9.9022 H   0  0  0  0  0  0  0  0  0  0  0  0
   48.7469  -15.1304  -10.1270 H   0  0  0  0  0  0  0  0  0  0  0  0
   45.1742  -16.2452   -6.4757 H   0  0  0  0  0  0  0  0  0  0  0  0
   52.7286  -13.8805   -4.8469 H   0  0  0  0  0  0  0  0  0  0  0  0
   53.8005  -15.9999   -4.1579 H   0  0  0  0  0  0  0  0  0  0  0  0
   45.2693  -18.6713   -6.0060 H   0  0  0  0  0  0  0  0  0  0  0  0
  2  1  1  0
  3  1  1  0
  4  6  1  0
  5  7  1  0
  6  2  2  0
  7  3  2  0
  8 14  1  0
  9  1  1  0
 10  2  1  0
 11  3  1  0
 12  6  1  0
 13  7  1  0
 14 16  1  0
 15  8  1  0
 16  9  1  0
 17 10  2  0
 18 11  2  0
 19 18  1  0
 20 17  1  0
  5  4  2  0
 19 13  2  0
 20 12  2  0
  1 21  1  0
  4 22  1  0
  5 23  1  0
  8 24  1  0
  9 25  1  0
  9 26  1  0
 10 27  1  0
 11 28  1  0
 12 29  1  0
 13 30  1  0
 14 31  1  0
 14 32  1  0
 15 33  1  0
 15 34  1  0
 15 35  1  0
 16 36  1  0
 16 37  1  0
 17 38  1  0
 18 39  1  0
 19 40  1  0
 20 41  1  0
M  END
> <Uni-Dock RESULT> 
ENERGY=   -5.728  LOWER_BOUND=    1.889  UPPER_BOUND=    4.919
INTER + INTRA:          -5.728
INTER:                  -5.728
INTRA:                   0.000
UNBOUND:                 0.000

$$$$

     RDKit          3D

 41 43  0  0  0  0  0  0  0  0999 V2000
   49.1060  -17.1534   -8.4589 C   0  0  0  0  0  0  0  0  0  0  0  0
   48.3004  -18.0303   -7.5191 C   0  0  0  0  0  0  0  0  0  0  0  0
   48.2357  -16.6449   -9.5910 C   0  0  0  0  0  0  0  0  0  0  0  0
   46.6653  -16.1645   -6.9129 C   0  0  0  0  0  0  0  0  0  0  0  0
   46.6291  -15.4220   -8.0257 C   0  0  0  0  0  0  0  0  0  0  0  0
   47.1716  -17.5508   -6.8069 C   0  0  0  0  0  0  0  0  0  0  0  0
   47.0877  -15.8413   -9.3688 C   0  0  0  0  0  0  0  0  0  0  0  0
   52.6263  -15.9299   -5.1067 N   0  0  0  0  0  0  0  0  0  0  0  0
   49.8608  -16.0091   -7.7418 C   0  0  0  0  0  0  0  0  0  0  0  0
   48.7148  -19.3638   -7.3218 C   0  0  0  0  0  0  0  0  0  0  0  0
   48.6007  -16.9593  -10.9168 C   0  0  0  0  0  0  0  0  0  0  0  0
   46.5189  -18.4031   -5.8986 C   0  0  0  0  0  0  0  0  0  0  0  0
   46.3660  -15.3530  -10.4725 C   0  0  0  0  0  0  0  0  0  0  0  0
   51.6725  -15.3944   -6.0846 C   0  0  0  0  0  0  0  0  0  0  0  0
   53.3023  -14.8368   -4.4063 C   0  0  0  0  0  0  0  0  0  0  0  0
   50.8903  -16.5405   -6.7321 C   0  0  0  0  0  0  0  0  0  0  0  0
   48.0395  -20.1992   -6.4324 C   0  0  0  0  0  0  0  0  0  0  0  0
   47.8574  -16.4826  -11.9965 C   0  0  0  0  0  0  0  0  0  0  0  0
   46.7439  -15.6776  -11.7749 C   0  0  0  0  0  0  0  0  0  0  0  0
   46.9456  -19.7184   -5.7187 C   0  0  0  0  0  0  0  0  0  0  0  0
   49.9064  -17.7821   -8.9115 H   0  0  0  0  0  0  0  0  0  0  0  0
   46.1975  -15.7429   -6.0304 H   0  0  0  0  0  0  0  0  0  0  0  0
   46.1345  -14.4599   -7.9533 H   0  0  0  0  0  0  0  0  0  0  0  0
   53.3593  -16.4675   -5.6270 H   0  0  0  0  0  0  0  0  0  0  0  0
   49.1635  -15.3269   -7.2171 H   0  0  0  0  0  0  0  0  0  0  0  0
   50.3956  -15.4066   -8.5094 H   0  0  0  0  0  0  0  0  0  0  0  0
   49.5728  -19.7606   -7.8502 H   0  0  0  0  0  0  0  0  0  0  0  0
   49.4703  -17.5713  -11.1217 H   0  0  0  0  0  0  0  0  0  0  0  0
   45.6656  -18.0503   -5.3313 H   0  0  0  0  0  0  0  0  0  0  0  0
   45.4966  -14.7233  -10.3245 H   0  0  0  0  0  0  0  0  0  0  0  0
   50.9524  -14.7142   -5.5762 H   0  0  0  0  0  0  0  0  0  0  0  0
   52.2121  -14.8216   -6.8732 H   0  0  0  0  0  0  0  0  0  0  0  0
   52.5677  -14.2358   -3.8280 H   0  0  0  0  0  0  0  0  0  0  0  0
   54.0387  -15.2588   -3.6904 H   0  0  0  0  0  0  0  0  0  0  0  0
   53.8435  -14.1798   -5.1229 H   0  0  0  0  0  0  0  0  0  0  0  0
   50.3700  -17.1146   -5.9346 H   0  0  0  0  0  0  0  0  0  0  0  0
   51.6012  -17.2212   -7.2500 H   0  0  0  0  0  0  0  0  0  0  0  0
   48.3714  -21.2196   -6.2901 H   0  0  0  0  0  0  0  0  0  0  0  0
   48.1512  -16.7321  -13.0080 H   0  0  0  0  0  0  0  0  0  0  0  0
   46.1727  -15.3017  -12.6140 H   0  0  0  0  0  0  0  0  0  0  0  0
   46.4274  -20.3653   -5.0226 H   0  0  0  0  0  0  0  0  0  0  0  0
  2  1  1  0
  3  1  1  0
  4  6  1  0
  5  7  1  0
  6  2  2  0
  7  3  2  0
  8 14  1  0
  9  1  1  0
 10  2  1  0
 11  3  1  0
 12  6  1  0
 13  7  1  0
 14 16  1  0
 15  8  1  0
 16  9  1  0
 17 10  2  0
 18 11  2  0
 19 18  1  0
 20 17  1  0
  5  4  2  0
 19 13  2  0
 20 12  2  0
  1 21  1  0
  4 22  1  0
  5 23  1  0
  8 24  1  0
  9 25  1  0
  9 26  1  0
 10 27  1  0
 11 28  1  0
 12 29  1  0
 13 30  1  0
 14 31  1  0
 14 32  1  0
 15 33  1  0
 15 34  1  0
 15 35  1  0
 16 36  1  0
 16 37  1  0
 17 38  1  0
 18 39  1  0
 19 40  1  0
 20 41  1  0
M  END
> <Uni-Dock RESULT> 
ENERGY=   -4.920  LOWER_BOUND=    2.535  UPPER_BOUND=    4.910
INTER + INTRA:          -4.920
INTER:                  -4.920
INTRA:                   0.000
UNBOUND:                 0.000

$$$$

     RDKit          3D

 41 43  0  0  0  0  0  0  0  0999 V2000
   48.2018  -17.0119   -8.0502 C   0  0  0  0  0  0  0  0  0  0  0  0
   47.6226  -18.0177   -7.0734 C   0  0  0  0  0  0  0  0  0  0  0  0
   49.2685  -16.1698   -7.3787 C   0  0  0  0  0  0  0  0  0  0  0  0
   49.8652  -19.1731   -6.6764 C   0  0  0  0  0  0  0  0  0  0  0  0
   50.7486  -18.1809   -6.8384 C   0  0  0  0  0  0  0  0  0  0  0  0
   48.4117  -19.0168   -6.4485 C   0  0  0  0  0  0  0  0  0  0  0  0
   50.4454  -16.7325   -6.8209 C   0  0  0  0  0  0  0  0  0  0  0  0
   46.9747  -19.5667  -12.1847 N   0  0  0  0  0  0  0  0  0  0  0  0
   48.7028  -17.6484   -9.3683 C   0  0  0  0  0  0  0  0  0  0  0  0
   46.2385  -17.9763   -6.8064 C   0  0  0  0  0  0  0  0  0  0  0  0
   49.0956  -14.7706   -7.3348 C   0  0  0  0  0  0  0  0  0  0  0  0
   47.7901  -19.9592   -5.6101 C   0  0  0  0  0  0  0  0  0  0  0  0
   51.4208  -15.8815   -6.2714 C   0  0  0  0  0  0  0  0  0  0  0  0
   48.0719  -18.8959  -11.4784 C   0  0  0  0  0  0  0  0  0  0  0  0
   47.4708  -20.2000  -13.4076 C   0  0  0  0  0  0  0  0  0  0  0  0
   47.5680  -18.3329  -10.1465 C   0  0  0  0  0  0  0  0  0  0  0  0
   45.6456  -18.9074   -5.9540 C   0  0  0  0  0  0  0  0  0  0  0  0
   50.0659  -13.9466   -6.7648 C   0  0  0  0  0  0  0  0  0  0  0  0
   51.2284  -14.5008   -6.2371 C   0  0  0  0  0  0  0  0  0  0  0  0
   46.4195  -19.9000   -5.3599 C   0  0  0  0  0  0  0  0  0  0  0  0
   47.3818  -16.3247   -8.3600 H   0  0  0  0  0  0  0  0  0  0  0  0
   50.2671  -20.1783   -6.6167 H   0  0  0  0  0  0  0  0  0  0  0  0
   51.7936  -18.4637   -6.8961 H   0  0  0  0  0  0  0  0  0  0  0  0
   46.2781  -18.8389  -12.4709 H   0  0  0  0  0  0  0  0  0  0  0  0
   49.5074  -18.3871   -9.1843 H   0  0  0  0  0  0  0  0  0  0  0  0
   49.1338  -16.8438  -10.0047 H   0  0  0  0  0  0  0  0  0  0  0  0
   45.6081  -17.2260   -7.2675 H   0  0  0  0  0  0  0  0  0  0  0  0
   48.2085  -14.3086   -7.7501 H   0  0  0  0  0  0  0  0  0  0  0  0
   48.3723  -20.7414   -5.1374 H   0  0  0  0  0  0  0  0  0  0  0  0
   52.3345  -16.2901   -5.8561 H   0  0  0  0  0  0  0  0  0  0  0  0
   48.8886  -19.6239  -11.2713 H   0  0  0  0  0  0  0  0  0  0  0  0
   48.4793  -18.0668  -12.1012 H   0  0  0  0  0  0  0  0  0  0  0  0
   48.2113  -20.9908  -13.1600 H   0  0  0  0  0  0  0  0  0  0  0  0
   46.6241  -20.6792  -13.9427 H   0  0  0  0  0  0  0  0  0  0  0  0
   47.9358  -19.4489  -14.0840 H   0  0  0  0  0  0  0  0  0  0  0  0
   47.1489  -19.1660   -9.5411 H   0  0  0  0  0  0  0  0  0  0  0  0
   46.7571  -17.5979  -10.3440 H   0  0  0  0  0  0  0  0  0  0  0  0
   44.5814  -18.8638   -5.7611 H   0  0  0  0  0  0  0  0  0  0  0  0
   49.9186  -12.8745   -6.7397 H   0  0  0  0  0  0  0  0  0  0  0  0
   51.9842  -13.8595   -5.8023 H   0  0  0  0  0  0  0  0  0  0  0  0
   45.9567  -20.6270   -4.7050 H   0  0  0  0  0  0  0  0  0  0  0  0
  2  1  1  0
  3  1  1  0
  4  6  1  0
  5  7  1  0
  6  2  2  0
  7  3  2  0
  8 14  1  0
  9  1  1  0
 10  2  1  0
 11  3  1  0
 12  6  1  0
 13  7  1  0
 14 16  1  0
 15  8  1  0
 16  9  1  0
 17 10  2  0
 18 11  2  0
 19 18  1  0
 20 17  1  0
  5  4  2  0
 19 13  2  0
 20 12  2  0
  1 21  1  0
  4 22  1  0
  5 23  1  0
  8 24  1  0
  9 25  1  0
  9 26  1  0
 10 27  1  0
 11 28  1  0
 12 29  1  0
 13 30  1  0
 14 31  1  0
 14 32  1  0
 15 33  1  0
 15 34  1  0
 15 35  1  0
 16 36  1  0
 16 37  1  0
 17 38  1  0
 18 39  1  0
 19 40  1  0
 20 41  1  0
M  END
> <Uni-Dock RESULT> 
ENERGY=   -4.834  LOWER_BOUND=    2.506  UPPER_BOUND=    5.126
INTER + INTRA:          -4.834
INTER:                  -4.834
INTRA:                   0.000
UNBOUND:                 0.000

$$$$

     RDKit          3D

 41 43  0  0  0  0  0  0  0  0999 V2000
   46.9286  -15.7216  -10.5151 C   0  0  0  0  0  0  0  0  0  0  0  0
   45.6295  -15.5956  -11.2882 C   0  0  0  0  0  0  0  0  0  0  0  0
   46.6678  -16.2416   -9.1154 C   0  0  0  0  0  0  0  0  0  0  0  0
   45.0887  -18.0852  -11.1095 C   0  0  0  0  0  0  0  0  0  0  0  0
   45.6444  -18.4315   -9.9423 C   0  0  0  0  0  0  0  0  0  0  0  0
   44.7903  -16.7069  -11.5573 C   0  0  0  0  0  0  0  0  0  0  0  0
   46.0692  -17.5043   -8.8700 C   0  0  0  0  0  0  0  0  0  0  0  0
   49.8802  -16.0734  -14.5514 N   0  0  0  0  0  0  0  0  0  0  0  0
   48.0097  -16.5459  -11.2534 C   0  0  0  0  0  0  0  0  0  0  0  0
   45.2635  -14.3285  -11.7873 C   0  0  0  0  0  0  0  0  0  0  0  0
   47.0639  -15.4506   -8.0167 C   0  0  0  0  0  0  0  0  0  0  0  0
   43.6382  -16.5241  -12.3425 C   0  0  0  0  0  0  0  0  0  0  0  0
   45.9177  -17.9475   -7.5441 C   0  0  0  0  0  0  0  0  0  0  0  0
   49.5339  -16.6959  -13.2687 C   0  0  0  0  0  0  0  0  0  0  0  0
   50.8722  -16.8855  -15.2578 C   0  0  0  0  0  0  0  0  0  0  0  0
   48.4157  -15.9013  -12.5881 C   0  0  0  0  0  0  0  0  0  0  0  0
   44.1045  -14.1651  -12.5456 C   0  0  0  0  0  0  0  0  0  0  0  0
   46.8839  -15.9002   -6.7087 C   0  0  0  0  0  0  0  0  0  0  0  0
   46.3150  -17.1483   -6.4727 C   0  0  0  0  0  0  0  0  0  0  0  0
   43.2951  -15.2620  -12.8263 C   0  0  0  0  0  0  0  0  0  0  0  0
   47.3671  -14.7026  -10.4150 H   0  0  0  0  0  0  0  0  0  0  0  0
   44.7439  -18.8939  -11.7440 H   0  0  0  0  0  0  0  0  0  0  0  0
   45.7037  -19.4924   -9.7269 H   0  0  0  0  0  0  0  0  0  0  0  0
   50.3210  -15.1441  -14.3543 H   0  0  0  0  0  0  0  0  0  0  0  0
   47.6716  -17.5832  -11.4448 H   0  0  0  0  0  0  0  0  0  0  0  0
   48.9095  -16.6080  -10.6017 H   0  0  0  0  0  0  0  0  0  0  0  0
   45.8825  -13.4599  -11.5996 H   0  0  0  0  0  0  0  0  0  0  0  0
   47.5226  -14.4814   -8.1684 H   0  0  0  0  0  0  0  0  0  0  0  0
   42.9935  -17.3636  -12.5746 H   0  0  0  0  0  0  0  0  0  0  0  0
   45.4788  -18.9162   -7.3361 H   0  0  0  0  0  0  0  0  0  0  0  0
   49.1785  -17.7374  -13.4381 H   0  0  0  0  0  0  0  0  0  0  0  0
   50.4266  -16.7249  -12.6026 H   0  0  0  0  0  0  0  0  0  0  0  0
   50.4513  -17.8851  -15.5003 H   0  0  0  0  0  0  0  0  0  0  0  0
   51.1425  -16.3871  -16.2126 H   0  0  0  0  0  0  0  0  0  0  0  0
   51.7954  -17.0047  -14.6484 H   0  0  0  0  0  0  0  0  0  0  0  0
   47.5370  -15.8649  -13.2685 H   0  0  0  0  0  0  0  0  0  0  0  0
   48.7649  -14.8610  -12.4071 H   0  0  0  0  0  0  0  0  0  0  0  0
   43.8386  -13.1864  -12.9237 H   0  0  0  0  0  0  0  0  0  0  0  0
   47.1940  -15.2816   -5.8763 H   0  0  0  0  0  0  0  0  0  0  0  0
   46.1833  -17.4993   -5.4573 H   0  0  0  0  0  0  0  0  0  0  0  0
   42.4001  -15.1354  -13.4218 H   0  0  0  0  0  0  0  0  0  0  0  0
  2  1  1  0
  3  1  1  0
  4  6  1  0
  5  7  1  0
  6  2  2  0
  7  3  2  0
  8 14  1  0
  9  1  1  0
 10  2  1  0
 11  3  1  0
 12  6  1  0
 13  7  1  0
 14 16  1  0
 15  8  1  0
 16  9  1  0
 17 10  2  0
 18 11  2  0
 19 18  1  0
 20 17  1  0
  5  4  2  0
 19 13  2  0
 20 12  2  0
  1 21  1  0
  4 22  1  0
  5 23  1  0
  8 24  1  0
  9 25  1  0
  9 26  1  0
 10 27  1  0
 11 28  1  0
 12 29  1  0
 13 30  1  0
 14 31  1  0
 14 32  1  0
 15 33  1  0
 15 34  1  0
 15 35  1  0
 16 36  1  0
 16 37  1  0
 17 38  1  0
 18 39  1  0
 19 40  1  0
 20 41  1  0
M  END
> <Uni-Dock RESULT> 
ENERGY=   -4.778  LOWER_BOUND=    4.239  UPPER_BOUND=    6.500
INTER + INTRA:          -4.778
INTER:                  -4.778
INTRA:                   0.000
UNBOUND:                 0.000

$$$$

     RDKit          3D

 41 43  0  0  0  0  0  0  0  0999 V2000
   49.6524  -17.9946   -7.2307 C   0  0  0  0  0  0  0  0  0  0  0  0
   49.5961  -17.7600   -8.7284 C   0  0  0  0  0  0  0  0  0  0  0  0
   50.6593  -17.0648   -6.5829 C   0  0  0  0  0  0  0  0  0  0  0  0
   48.8663  -15.3246   -8.4871 C   0  0  0  0  0  0  0  0  0  0  0  0
   49.4385  -14.9509   -7.3364 C   0  0  0  0  0  0  0  0  0  0  0  0
   49.2247  -16.5129   -9.2925 C   0  0  0  0  0  0  0  0  0  0  0  0
   50.5423  -15.6522   -6.6437 C   0  0  0  0  0  0  0  0  0  0  0  0
   45.0710  -19.9956   -6.8656 N   0  0  0  0  0  0  0  0  0  0  0  0
   48.2685  -17.9291   -6.5425 C   0  0  0  0  0  0  0  0  0  0  0  0
   49.8912  -18.8369   -9.5898 C   0  0  0  0  0  0  0  0  0  0  0  0
   51.7362  -17.6289   -5.8675 C   0  0  0  0  0  0  0  0  0  0  0  0
   49.1255  -16.3928  -10.6900 C   0  0  0  0  0  0  0  0  0  0  0  0
   51.4799  -14.8547   -5.9637 C   0  0  0  0  0  0  0  0  0  0  0  0
   45.9723  -18.9718   -6.3250 C   0  0  0  0  0  0  0  0  0  0  0  0
   43.7533  -19.8948   -6.2362 C   0  0  0  0  0  0  0  0  0  0  0  0
   47.3112  -19.0110   -7.0669 C   0  0  0  0  0  0  0  0  0  0  0  0
   49.8079  -18.6900  -10.9742 C   0  0  0  0  0  0  0  0  0  0  0  0
   52.6677  -16.8185   -5.2188 C   0  0  0  0  0  0  0  0  0  0  0  0
   52.5378  -15.4336   -5.2637 C   0  0  0  0  0  0  0  0  0  0  0  0
   49.4216  -17.4709  -11.5235 C   0  0  0  0  0  0  0  0  0  0  0  0
   50.0054  -19.0373   -7.0609 H   0  0  0  0  0  0  0  0  0  0  0  0
   48.1365  -14.6445   -8.9117 H   0  0  0  0  0  0  0  0  0  0  0  0
   49.1255  -13.9985   -6.9236 H   0  0  0  0  0  0  0  0  0  0  0  0
   45.4622  -20.9359   -6.6216 H   0  0  0  0  0  0  0  0  0  0  0  0
   47.7942  -16.9368   -6.6741 H   0  0  0  0  0  0  0  0  0  0  0  0
   48.4124  -18.0828   -5.4498 H   0  0  0  0  0  0  0  0  0  0  0  0
   50.1779  -19.8021   -9.1909 H   0  0  0  0  0  0  0  0  0  0  0  0
   51.8558  -18.7033   -5.8022 H   0  0  0  0  0  0  0  0  0  0  0  0
   48.8258  -15.4537  -11.1401 H   0  0  0  0  0  0  0  0  0  0  0  0
   51.3980  -13.7743   -5.9834 H   0  0  0  0  0  0  0  0  0  0  0  0
   45.5207  -17.9627   -6.4582 H   0  0  0  0  0  0  0  0  0  0  0  0
   46.1450  -19.1474   -5.2385 H   0  0  0  0  0  0  0  0  0  0  0  0
   43.2869  -18.9138   -6.4712 H   0  0  0  0  0  0  0  0  0  0  0  0
   43.0929  -20.6926   -6.6366 H   0  0  0  0  0  0  0  0  0  0  0  0
   43.8288  -20.0199   -5.1332 H   0  0  0  0  0  0  0  0  0  0  0  0
   47.1247  -18.8515   -8.1514 H   0  0  0  0  0  0  0  0  0  0  0  0
   47.7741  -20.0132   -6.9325 H   0  0  0  0  0  0  0  0  0  0  0  0
   50.0352  -19.5268  -11.6219 H   0  0  0  0  0  0  0  0  0  0  0  0
   53.4881  -17.2669   -4.6732 H   0  0  0  0  0  0  0  0  0  0  0  0
   53.2569  -14.8061   -4.7530 H   0  0  0  0  0  0  0  0  0  0  0  0
   49.3494  -17.3605  -12.5978 H   0  0  0  0  0  0  0  0  0  0  0  0
  2  1  1  0
  3  1  1  0
  4  6  1  0
  5  7  1  0
  6  2  2  0
  7  3  2  0
  8 14  1  0
  9  1  1  0
 10  2  1  0
 11  3  1  0
 12  6  1  0
 13  7  1  0
 14 16  1  0
 15  8  1  0
 16  9  1  0
 17 10  2  0
 18 11  2  0
 19 18  1  0
 20 17  1  0
  5  4  2  0
 19 13  2  0
 20 12  2  0
  1 21  1  0
  4 22  1  0
  5 23  1  0
  8 24  1  0
  9 25  1  0
  9 26  1  0
 10 27  1  0
 11 28  1  0
 12 29  1  0
 13 30  1  0
 14 31  1  0
 14 32  1  0
 15 33  1  0
 15 34  1  0
 15 35  1  0
 16 36  1  0
 16 37  1  0
 17 38  1  0
 18 39  1  0
 19 40  1  0
 20 41  1  0
M  END
> <Uni-Dock RESULT> 
ENERGY=   -4.297  LOWER_BOUND=    2.638  UPPER_BOUND=    5.775
INTER + INTRA:          -4.297
INTER:                  -4.297
INTRA:                   0.000
UNBOUND:                 0.000

$$$$

     RDKit          3D

 41 43  0  0  0  0  0  0  0  0999 V2000
   46.1237  -18.5315  -10.1320 C   0  0  0  0  0  0  0  0  0  0  0  0
   46.2592  -17.6810   -8.8831 C   0  0  0  0  0  0  0  0  0  0  0  0
   44.9678  -18.0467  -10.9844 C   0  0  0  0  0  0  0  0  0  0  0  0
   46.6699  -15.5277  -10.1933 C   0  0  0  0  0  0  0  0  0  0  0  0
   45.9752  -15.7232  -11.3203 C   0  0  0  0  0  0  0  0  0  0  0  0
   46.5169  -16.2872   -8.9328 C   0  0  0  0  0  0  0  0  0  0  0  0
   44.9172  -16.7370  -11.5274 C   0  0  0  0  0  0  0  0  0  0  0  0
   50.8751  -20.1285  -10.1668 N   0  0  0  0  0  0  0  0  0  0  0  0
   47.4364  -18.6541  -10.9414 C   0  0  0  0  0  0  0  0  0  0  0  0
   46.1593  -18.3113   -7.6256 C   0  0  0  0  0  0  0  0  0  0  0  0
   43.9182  -18.9442  -11.2718 C   0  0  0  0  0  0  0  0  0  0  0  0
   46.7014  -15.5791   -7.7320 C   0  0  0  0  0  0  0  0  0  0  0  0
   43.8435  -16.3796  -12.3622 C   0  0  0  0  0  0  0  0  0  0  0  0
   49.8200  -19.5051  -10.9736 C   0  0  0  0  0  0  0  0  0  0  0  0
   52.1220  -20.1996  -10.9301 C   0  0  0  0  0  0  0  0  0  0  0  0
   48.5527  -19.3324  -10.1317 C   0  0  0  0  0  0  0  0  0  0  0  0
   46.3239  -17.5858   -6.4460 C   0  0  0  0  0  0  0  0  0  0  0  0
   42.8511  -18.5615  -12.0845 C   0  0  0  0  0  0  0  0  0  0  0  0
   42.8156  -17.2824  -12.6319 C   0  0  0  0  0  0  0  0  0  0  0  0
   46.5987  -16.2224   -6.4991 C   0  0  0  0  0  0  0  0  0  0  0  0
   45.8881  -19.5723   -9.8130 H   0  0  0  0  0  0  0  0  0  0  0  0
   47.3409  -14.6762  -10.1760 H   0  0  0  0  0  0  0  0  0  0  0  0
   46.1402  -15.0137  -12.1234 H   0  0  0  0  0  0  0  0  0  0  0  0
   50.5839  -21.1114   -9.9527 H   0  0  0  0  0  0  0  0  0  0  0  0
   47.7955  -17.6653  -11.2882 H   0  0  0  0  0  0  0  0  0  0  0  0
   47.2336  -19.2670  -11.8478 H   0  0  0  0  0  0  0  0  0  0  0  0
   45.9634  -19.3740   -7.5532 H   0  0  0  0  0  0  0  0  0  0  0  0
   43.9249  -19.9508  -10.8725 H   0  0  0  0  0  0  0  0  0  0  0  0
   46.9171  -14.5173   -7.7489 H   0  0  0  0  0  0  0  0  0  0  0  0
   43.7954  -15.3899  -12.8009 H   0  0  0  0  0  0  0  0  0  0  0  0
   50.1548  -18.5023  -11.3233 H   0  0  0  0  0  0  0  0  0  0  0  0
   49.5918  -20.1374  -11.8620 H   0  0  0  0  0  0  0  0  0  0  0  0
   52.4822  -19.1779  -11.1779 H   0  0  0  0  0  0  0  0  0  0  0  0
   52.9012  -20.6976  -10.3153 H   0  0  0  0  0  0  0  0  0  0  0  0
   51.9828  -20.7857  -11.8656 H   0  0  0  0  0  0  0  0  0  0  0  0
   48.7963  -18.7143   -9.2402 H   0  0  0  0  0  0  0  0  0  0  0  0
   48.2058  -20.3305   -9.7848 H   0  0  0  0  0  0  0  0  0  0  0  0
   46.2468  -18.0846   -5.4885 H   0  0  0  0  0  0  0  0  0  0  0  0
   42.0538  -19.2623  -12.2963 H   0  0  0  0  0  0  0  0  0  0  0  0
   41.9910  -16.9895  -13.2689 H   0  0  0  0  0  0  0  0  0  0  0  0
   46.7343  -15.6620   -5.5830 H   0  0  0  0  0  0  0  0  0  0  0  0
  2  1  1  0
  3  1  1  0
  4  6  1  0
  5  7  1  0
  6  2  2  0
  7  3  2  0
  8 14  1  0
  9  1  1  0
 10  2  1  0
 11  3  1  0
 12  6  1  0
 13  7  1  0
 14 16  1  0
 15  8  1  0
 16  9  1  0
 17 10  2  0
 18 11  2  0
 19 18  1  0
 20 17  1  0
  5  4  2  0
 19 13  2  0
 20 12  2  0
  1 21  1  0
  4 22  1  0
  5 23  1  0
  8 24  1  0
  9 25  1  0
  9 26  1  0
 10 27  1  0
 11 28  1  0
 12 29  1  0
 13 30  1  0
 14 31  1  0
 14 32  1  0
 15 33  1  0
 15 34  1  0
 15 35  1  0
 16 36  1  0
 16 37  1  0
 17 38  1  0
 18 39  1  0
 19 40  1  0
 20 41  1  0
M  END
> <Uni-Dock RESULT> 
ENERGY=   -4.210  LOWER_BOUND=    4.012  UPPER_BOUND=    5.350
INTER + INTRA:          -4.210
INTER:                  -4.210
INTRA:                   0.000
UNBOUND:                 0.000

$$$$

     RDKit          3D

 41 43  0  0  0  0  0  0  0  0999 V2000
   46.7072  -15.9682   -9.5901 C   0  0  0  0  0  0  0  0  0  0  0  0
   48.0119  -15.9074   -8.8185 C   0  0  0  0  0  0  0  0  0  0  0  0
   46.9416  -15.6718  -11.0581 C   0  0  0  0  0  0  0  0  0  0  0  0
   49.0926  -17.7834  -10.1731 C   0  0  0  0  0  0  0  0  0  0  0  0
   48.5195  -17.6558  -11.3757 C   0  0  0  0  0  0  0  0  0  0  0  0
   49.1073  -16.7623   -9.1024 C   0  0  0  0  0  0  0  0  0  0  0  0
   47.7884  -16.4684  -11.8713 C   0  0  0  0  0  0  0  0  0  0  0  0
   44.3298  -18.9308   -6.3193 N   0  0  0  0  0  0  0  0  0  0  0  0
   45.9240  -17.2851   -9.3770 C   0  0  0  0  0  0  0  0  0  0  0  0
   48.1228  -14.9875   -7.7554 C   0  0  0  0  0  0  0  0  0  0  0  0
   46.2671  -14.5793  -11.6423 C   0  0  0  0  0  0  0  0  0  0  0  0
   50.2578  -16.6961   -8.2966 C   0  0  0  0  0  0  0  0  0  0  0  0
   47.9065  -16.1699  -13.2404 C   0  0  0  0  0  0  0  0  0  0  0  0
   44.6821  -18.7553   -7.7328 C   0  0  0  0  0  0  0  0  0  0  0  0
   43.6268  -20.1999   -6.1256 C   0  0  0  0  0  0  0  0  0  0  0  0
   45.5138  -17.4817   -7.9090 C   0  0  0  0  0  0  0  0  0  0  0  0
   49.2818  -14.9231   -6.9823 C   0  0  0  0  0  0  0  0  0  0  0  0
   46.4161  -14.2877  -12.9981 C   0  0  0  0  0  0  0  0  0  0  0  0
   47.2316  -15.0839  -13.7968 C   0  0  0  0  0  0  0  0  0  0  0  0
   50.3463  -15.7790   -7.2499 C   0  0  0  0  0  0  0  0  0  0  0  0
   46.0376  -15.1716   -9.1929 H   0  0  0  0  0  0  0  0  0  0  0  0
   49.6757  -18.6817  -10.0041 H   0  0  0  0  0  0  0  0  0  0  0  0
   48.6858  -18.4610  -12.0824 H   0  0  0  0  0  0  0  0  0  0  0  0
   43.6690  -18.1640   -6.0505 H   0  0  0  0  0  0  0  0  0  0  0  0
   46.5097  -18.1657   -9.7063 H   0  0  0  0  0  0  0  0  0  0  0  0
   45.0030  -17.2505  -10.0006 H   0  0  0  0  0  0  0  0  0  0  0  0
   47.3046  -14.3208   -7.5128 H   0  0  0  0  0  0  0  0  0  0  0  0
   45.6143  -13.9502  -11.0500 H   0  0  0  0  0  0  0  0  0  0  0  0
   51.0986  -17.3531   -8.4856 H   0  0  0  0  0  0  0  0  0  0  0  0
   48.5345  -16.7767  -13.8821 H   0  0  0  0  0  0  0  0  0  0  0  0
   45.2833  -19.6247   -8.0829 H   0  0  0  0  0  0  0  0  0  0  0  0
   43.7590  -18.6841   -8.3526 H   0  0  0  0  0  0  0  0  0  0  0  0
   44.2890  -21.0525   -6.3897 H   0  0  0  0  0  0  0  0  0  0  0  0
   43.3443  -20.3041   -5.0568 H   0  0  0  0  0  0  0  0  0  0  0  0
   42.7006  -20.2395   -6.7408 H   0  0  0  0  0  0  0  0  0  0  0  0
   46.4231  -17.5569   -7.2735 H   0  0  0  0  0  0  0  0  0  0  0  0
   44.9178  -16.6063   -7.5695 H   0  0  0  0  0  0  0  0  0  0  0  0
   49.3505  -14.2133   -6.1681 H   0  0  0  0  0  0  0  0  0  0  0  0
   45.8909  -13.4463  -13.4315 H   0  0  0  0  0  0  0  0  0  0  0  0
   47.3400  -14.8613  -14.8505 H   0  0  0  0  0  0  0  0  0  0  0  0
   51.2421  -15.7335   -6.6440 H   0  0  0  0  0  0  0  0  0  0  0  0
  2  1  1  0
  3  1  1  0
  4  6  1  0
  5  7  1  0
  6  2  2  0
  7  3  2  0
  8 14  1  0
  9  1  1  0
 10  2  1  0
 11  3  1  0
 12  6  1  0
 13  7  1  0
 14 16  1  0
 15  8  1  0
 16  9  1  0
 17 10  2  0
 18 11  2  0
 19 18  1  0
 20 17  1  0
  5  4  2  0
 19 13  2  0
 20 12  2  0
  1 21  1  0
  4 22  1  0
  5 23  1  0
  8 24  1  0
  9 25  1  0
  9 26  1  0
 10 27  1  0
 11 28  1  0
 12 29  1  0
 13 30  1  0
 14 31  1  0
 14 32  1  0
 15 33  1  0
 15 34  1  0
 15 35  1  0
 16 36  1  0
 16 37  1  0
 17 38  1  0
 18 39  1  0
 19 40  1  0
 20 41  1  0
M  END
> <Uni-Dock RESULT> 
ENERGY=   -4.036  LOWER_BOUND=    3.968  UPPER_BOUND=    6.346
INTER + INTRA:          -4.036
INTER:                  -4.036
INTRA:                   0.000
UNBOUND:                 0.000

$$$$
