
     RDKit          3D

 41 43  0  0  0  0  0  0  0  0999 V2000
   50.1475  -17.1547   -7.9047 C   0  0  0  0  0  0  0  0  0  0  0  0
   51.0895  -16.5491   -6.8825 C   0  0  0  0  0  0  0  0  0  0  0  0
   48.7185  -17.1176   -7.3963 C   0  0  0  0  0  0  0  0  0  0  0  0
   49.9412  -14.2657   -6.9305 C   0  0  0  0  0  0  0  0  0  0  0  0
   48.6718  -14.5707   -7.2247 C   0  0  0  0  0  0  0  0  0  0  0  0
   50.9738  -15.2057   -6.4389 C   0  0  0  0  0  0  0  0  0  0  0  0
   48.0466  -15.9052   -7.0973 C   0  0  0  0  0  0  0  0  0  0  0  0
   51.0299  -18.8561  -11.1484 N   0  0  0  0  0  0  0  0  0  0  0  0
   50.3298  -16.5234   -9.3086 C   0  0  0  0  0  0  0  0  0  0  0  0
   52.1381  -17.3452   -6.3758 C   0  0  0  0  0  0  0  0  0  0  0  0
   48.0252  -18.3362   -7.2432 C   0  0  0  0  0  0  0  0  0  0  0  0
   51.9217  -14.6967   -5.5334 C   0  0  0  0  0  0  0  0  0  0  0  0
   46.6967  -15.9455   -6.7058 C   0  0  0  0  0  0  0  0  0  0  0  0
   49.6542  -18.6156  -10.6929 C   0  0  0  0  0  0  0  0  0  0  0  0
   51.1490  -20.1997  -11.7173 C   0  0  0  0  0  0  0  0  0  0  0  0
   49.4201  -17.1251  -10.3998 C   0  0  0  0  0  0  0  0  0  0  0  0
   53.0544  -16.8261   -5.4615 C   0  0  0  0  0  0  0  0  0  0  0  0
   46.6929  -18.3552   -6.8316 C   0  0  0  0  0  0  0  0  0  0  0  0
   46.0276  -17.1613   -6.5692 C   0  0  0  0  0  0  0  0  0  0  0  0
   52.9483  -15.5030   -5.0432 C   0  0  0  0  0  0  0  0  0  0  0  0
   50.4403  -18.2198   -8.0254 H   0  0  0  0  0  0  0  0  0  0  0  0
   50.2136  -13.2174   -6.9778 H   0  0  0  0  0  0  0  0  0  0  0  0
   48.0196  -13.7446   -7.4849 H   0  0  0  0  0  0  0  0  0  0  0  0
   51.6589  -18.8269  -10.3123 H   0  0  0  0  0  0  0  0  0  0  0  0
   50.1313  -15.4348   -9.2804 H   0  0  0  0  0  0  0  0  0  0  0  0
   51.3922  -16.6239   -9.6177 H   0  0  0  0  0  0  0  0  0  0  0  0
   52.2558  -18.3741   -6.6929 H   0  0  0  0  0  0  0  0  0  0  0  0
   48.5125  -19.2805   -7.4509 H   0  0  0  0  0  0  0  0  0  0  0  0
   51.8612  -13.6687   -5.1960 H   0  0  0  0  0  0  0  0  0  0  0  0
   46.1598  -15.0289   -6.4917 H   0  0  0  0  0  0  0  0  0  0  0  0
   49.4230  -19.2345   -9.7996 H   0  0  0  0  0  0  0  0  0  0  0  0
   48.9333  -18.9074  -11.4898 H   0  0  0  0  0  0  0  0  0  0  0  0
   50.8421  -20.9730  -10.9784 H   0  0  0  0  0  0  0  0  0  0  0  0
   52.2055  -20.3857  -12.0043 H   0  0  0  0  0  0  0  0  0  0  0  0
   50.5257  -20.2874  -12.6331 H   0  0  0  0  0  0  0  0  0  0  0  0
   48.3557  -16.9770  -10.1165 H   0  0  0  0  0  0  0  0  0  0  0  0
   49.5828  -16.5555  -11.3408 H   0  0  0  0  0  0  0  0  0  0  0  0
   53.8536  -17.4501   -5.0825 H   0  0  0  0  0  0  0  0  0  0  0  0
   46.1734  -19.2987   -6.7232 H   0  0  0  0  0  0  0  0  0  0  0  0
   44.9912  -17.1769   -6.2574 H   0  0  0  0  0  0  0  0  0  0  0  0
   53.6649  -15.0992   -4.3396 H   0  0  0  0  0  0  0  0  0  0  0  0
  2  1  1  0
  3  1  1  0
  4  6  1  0
  5  7  1  0
  6  2  2  0
  7  3  2  0
  8 14  1  0
  9  1  1  0
 10  2  1  0
 11  3  1  0
 12  6  1  0
 13  7  1  0
 14 16  1  0
 15  8  1  0
 16  9  1  0
 17 10  2  0
 18 11  2  0
 19 18  1  0
 20 17  1  0
  5  4  2  0
 19 13  2  0
 20 12  2  0
  1 21  1  0
  4 22  1  0
  5 23  1  0
  8 24  1  0
  9 25  1  0
  9 26  1  0
 10 27  1  0
 11 28  1  0
 12 29  1  0
 13 30  1  0
 14 31  1  0
 14 32  1  0
 15 33  1  0
 15 34  1  0
 15 35  1  0
 16 36  1  0
 16 37  1  0
 17 38  1  0
 18 39  1  0
 19 40  1  0
 20 41  1  0
M  END
> <Uni-Dock RESULT> 
ENERGY=   -6.055  LOWER_BOUND=    0.000  UPPER_BOUND=    0.000
INTER + INTRA:          -6.055
INTER:                  -6.055
INTRA:                   0.000
UNBOUND:                 0.000

$$$$

     RDKit          3D

 41 43  0  0  0  0  0  0  0  0999 V2000
   47.8352  -17.2242   -7.9954 C   0  0  0  0  0  0  0  0  0  0  0  0
   47.4273  -18.2463   -6.9522 C   0  0  0  0  0  0  0  0  0  0  0  0
   48.8783  -16.2780   -7.4312 C   0  0  0  0  0  0  0  0  0  0  0  0
   49.7897  -19.1939   -6.7156 C   0  0  0  0  0  0  0  0  0  0  0  0
   50.5680  -18.1407   -6.9911 C   0  0  0  0  0  0  0  0  0  0  0  0
   48.3519  -19.1496   -6.3657 C   0  0  0  0  0  0  0  0  0  0  0  0
   50.1472  -16.7226   -6.9807 C   0  0  0  0  0  0  0  0  0  0  0  0
   46.3778  -16.7108  -11.4317 N   0  0  0  0  0  0  0  0  0  0  0  0
   48.2513  -17.8916   -9.3312 C   0  0  0  0  0  0  0  0  0  0  0  0
   46.0705  -18.3191   -6.5729 C   0  0  0  0  0  0  0  0  0  0  0  0
   48.5821  -14.9000   -7.3805 C   0  0  0  0  0  0  0  0  0  0  0  0
   47.8877  -20.1095   -5.4489 C   0  0  0  0  0  0  0  0  0  0  0  0
   51.0920  -15.7772   -6.5439 C   0  0  0  0  0  0  0  0  0  0  0  0
   47.5198  -15.9547  -10.9007 C   0  0  0  0  0  0  0  0  0  0  0  0
   45.4629  -15.8163  -12.1428 C   0  0  0  0  0  0  0  0  0  0  0  0
   48.6443  -16.8976  -10.4437 C   0  0  0  0  0  0  0  0  0  0  0  0
   45.6358  -19.2653   -5.6450 C   0  0  0  0  0  0  0  0  0  0  0  0
   49.5257  -13.9811   -6.9222 C   0  0  0  0  0  0  0  0  0  0  0  0
   50.7811  -14.4183   -6.5103 C   0  0  0  0  0  0  0  0  0  0  0  0
   46.5424  -20.1611   -5.0861 C   0  0  0  0  0  0  0  0  0  0  0  0
   46.9289  -16.6288   -8.2387 H   0  0  0  0  0  0  0  0  0  0  0  0
   50.2786  -20.1601   -6.6629 H   0  0  0  0  0  0  0  0  0  0  0  0
   51.6237  -18.3396   -7.1376 H   0  0  0  0  0  0  0  0  0  0  0  0
   45.8441  -17.1048  -10.6220 H   0  0  0  0  0  0  0  0  0  0  0  0
   49.1116  -18.5718   -9.1809 H   0  0  0  0  0  0  0  0  0  0  0  0
   47.4212  -18.5369   -9.6898 H   0  0  0  0  0  0  0  0  0  0  0  0
   45.3385  -17.6453   -7.0007 H   0  0  0  0  0  0  0  0  0  0  0  0
   47.6182  -14.5285   -7.7050 H   0  0  0  0  0  0  0  0  0  0  0  0
   48.5745  -20.8194   -5.0032 H   0  0  0  0  0  0  0  0  0  0  0  0
   52.0741  -16.0949   -6.2141 H   0  0  0  0  0  0  0  0  0  0  0  0
   47.1986  -15.2915  -10.0692 H   0  0  0  0  0  0  0  0  0  0  0  0
   47.9460  -15.3016  -11.6955 H   0  0  0  0  0  0  0  0  0  0  0  0
   45.1122  -14.9958  -11.4780 H   0  0  0  0  0  0  0  0  0  0  0  0
   44.5787  -16.3927  -12.4883 H   0  0  0  0  0  0  0  0  0  0  0  0
   45.9617  -15.3867  -13.0381 H   0  0  0  0  0  0  0  0  0  0  0  0
   49.5098  -16.2879  -10.1055 H   0  0  0  0  0  0  0  0  0  0  0  0
   48.9891  -17.4811  -11.3251 H   0  0  0  0  0  0  0  0  0  0  0  0
   44.5911  -19.3084   -5.3649 H   0  0  0  0  0  0  0  0  0  0  0  0
   49.2843  -12.9263   -6.8937 H   0  0  0  0  0  0  0  0  0  0  0  0
   51.5154  -13.7033   -6.1622 H   0  0  0  0  0  0  0  0  0  0  0  0
   46.2021  -20.9001   -4.3721 H   0  0  0  0  0  0  0  0  0  0  0  0
  2  1  1  0
  3  1  1  0
  4  6  1  0
  5  7  1  0
  6  2  2  0
  7  3  2  0
  8 14  1  0
  9  1  1  0
 10  2  1  0
 11  3  1  0
 12  6  1  0
 13  7  1  0
 14 16  1  0
 15  8  1  0
 16  9  1  0
 17 10  2  0
 18 11  2  0
 19 18  1  0
 20 17  1  0
  5  4  2  0
 19 13  2  0
 20 12  2  0
  1 21  1  0
  4 22  1  0
  5 23  1  0
  8 24  1  0
  9 25  1  0
  9 26  1  0
 10 27  1  0
 11 28  1  0
 12 29  1  0
 13 30  1  0
 14 31  1  0
 14 32  1  0
 15 33  1  0
 15 34  1  0
 15 35  1  0
 16 36  1  0
 16 37  1  0
 17 38  1  0
 18 39  1  0
 19 40  1  0
 20 41  1  0
M  END
> <Uni-Dock RESULT> 
ENERGY=   -5.199  LOWER_BOUND=    2.056  UPPER_BOUND=    4.915
INTER + INTRA:          -5.199
INTER:                  -5.199
INTRA:                   0.000
UNBOUND:                 0.000

$$$$

     RDKit          3D

 41 43  0  0  0  0  0  0  0  0999 V2000
   50.3061  -17.4302   -7.9238 C   0  0  0  0  0  0  0  0  0  0  0  0
   48.8853  -17.0616   -7.5436 C   0  0  0  0  0  0  0  0  0  0  0  0
   51.1487  -17.6455   -6.6807 C   0  0  0  0  0  0  0  0  0  0  0  0
   48.4799  -19.2456   -6.2786 C   0  0  0  0  0  0  0  0  0  0  0  0
   49.6993  -19.5679   -5.8313 C   0  0  0  0  0  0  0  0  0  0  0  0
   48.0543  -17.9171   -6.7739 C   0  0  0  0  0  0  0  0  0  0  0  0
   50.8565  -18.6527   -5.7263 C   0  0  0  0  0  0  0  0  0  0  0  0
   51.8308  -17.5364  -11.3676 N   0  0  0  0  0  0  0  0  0  0  0  0
   50.3515  -18.6131   -8.9245 C   0  0  0  0  0  0  0  0  0  0  0  0
   48.3621  -15.8327   -7.9979 C   0  0  0  0  0  0  0  0  0  0  0  0
   52.2821  -16.8294   -6.4844 C   0  0  0  0  0  0  0  0  0  0  0  0
   46.7272  -17.5327   -6.5118 C   0  0  0  0  0  0  0  0  0  0  0  0
   51.7282  -18.8442   -4.6397 C   0  0  0  0  0  0  0  0  0  0  0  0
   52.5408  -17.9224  -10.1409 C   0  0  0  0  0  0  0  0  0  0  0  0
   52.7069  -16.7461  -12.2342 C   0  0  0  0  0  0  0  0  0  0  0  0
   51.7722  -19.0112   -9.3751 C   0  0  0  0  0  0  0  0  0  0  0  0
   47.0494  -15.4618   -7.7076 C   0  0  0  0  0  0  0  0  0  0  0  0
   53.1213  -17.0213   -5.3872 C   0  0  0  0  0  0  0  0  0  0  0  0
   52.8483  -18.0313   -4.4695 C   0  0  0  0  0  0  0  0  0  0  0  0
   46.2322  -16.3117   -6.9683 C   0  0  0  0  0  0  0  0  0  0  0  0
   50.7289  -16.5649   -8.4783 H   0  0  0  0  0  0  0  0  0  0  0  0
   47.7124  -20.0064   -6.1913 H   0  0  0  0  0  0  0  0  0  0  0  0
   49.8195  -20.5627   -5.4172 H   0  0  0  0  0  0  0  0  0  0  0  0
   51.0329  -16.9142  -11.0992 H   0  0  0  0  0  0  0  0  0  0  0  0
   49.8809  -19.5158   -8.4896 H   0  0  0  0  0  0  0  0  0  0  0  0
   49.7394  -18.3592   -9.8162 H   0  0  0  0  0  0  0  0  0  0  0  0
   48.9685  -15.1562   -8.5874 H   0  0  0  0  0  0  0  0  0  0  0  0
   52.5268  -16.0430   -7.1873 H   0  0  0  0  0  0  0  0  0  0  0  0
   46.0713  -18.1795   -5.9410 H   0  0  0  0  0  0  0  0  0  0  0  0
   51.5332  -19.6213   -3.9100 H   0  0  0  0  0  0  0  0  0  0  0  0
   52.7180  -17.0361   -9.4949 H   0  0  0  0  0  0  0  0  0  0  0  0
   53.5379  -18.3470  -10.3964 H   0  0  0  0  0  0  0  0  0  0  0  0
   53.0846  -15.8448  -11.7022 H   0  0  0  0  0  0  0  0  0  0  0  0
   52.1384  -16.4152  -13.1290 H   0  0  0  0  0  0  0  0  0  0  0  0
   53.5632  -17.3629  -12.5823 H   0  0  0  0  0  0  0  0  0  0  0  0
   52.3689  -19.3168   -8.4888 H   0  0  0  0  0  0  0  0  0  0  0  0
   51.6911  -19.9060  -10.0301 H   0  0  0  0  0  0  0  0  0  0  0  0
   46.6629  -14.5156   -8.0640 H   0  0  0  0  0  0  0  0  0  0  0  0
   53.9898  -16.3892   -5.2531 H   0  0  0  0  0  0  0  0  0  0  0  0
   53.5048  -18.1844   -3.6225 H   0  0  0  0  0  0  0  0  0  0  0  0
   45.2110  -16.0260   -6.7506 H   0  0  0  0  0  0  0  0  0  0  0  0
  2  1  1  0
  3  1  1  0
  4  6  1  0
  5  7  1  0
  6  2  2  0
  7  3  2  0
  8 14  1  0
  9  1  1  0
 10  2  1  0
 11  3  1  0
 12  6  1  0
 13  7  1  0
 14 16  1  0
 15  8  1  0
 16  9  1  0
 17 10  2  0
 18 11  2  0
 19 18  1  0
 20 17  1  0
  5  4  2  0
 19 13  2  0
 20 12  2  0
  1 21  1  0
  4 22  1  0
  5 23  1  0
  8 24  1  0
  9 25  1  0
  9 26  1  0
 10 27  1  0
 11 28  1  0
 12 29  1  0
 13 30  1  0
 14 31  1  0
 14 32  1  0
 15 33  1  0
 15 34  1  0
 15 35  1  0
 16 36  1  0
 16 37  1  0
 17 38  1  0
 18 39  1  0
 19 40  1  0
 20 41  1  0
M  END
> <Uni-Dock RESULT> 
ENERGY=   -4.865  LOWER_BOUND=    1.720  UPPER_BOUND=    4.718
INTER + INTRA:          -4.865
INTER:                  -4.865
INTRA:                   0.000
UNBOUND:                 0.000

$$$$

     RDKit          3D

 41 43  0  0  0  0  0  0  0  0999 V2000
   50.3271  -17.9872   -7.2651 C   0  0  0  0  0  0  0  0  0  0  0  0
   49.0116  -17.2455   -7.1300 C   0  0  0  0  0  0  0  0  0  0  0  0
   50.7390  -18.5832   -5.9321 C   0  0  0  0  0  0  0  0  0  0  0  0
   47.7242  -19.3247   -6.3856 C   0  0  0  0  0  0  0  0  0  0  0  0
   48.6572  -20.0507   -5.7586 C   0  0  0  0  0  0  0  0  0  0  0  0
   47.8138  -17.8842   -6.7149 C   0  0  0  0  0  0  0  0  0  0  0  0
   49.9543  -19.5500   -5.2538 C   0  0  0  0  0  0  0  0  0  0  0  0
   52.5807  -18.1804  -10.2784 N   0  0  0  0  0  0  0  0  0  0  0  0
   50.2999  -19.0116   -8.4281 C   0  0  0  0  0  0  0  0  0  0  0  0
   48.9732  -15.8739   -7.4579 C   0  0  0  0  0  0  0  0  0  0  0  0
   51.9641  -18.1788   -5.3622 C   0  0  0  0  0  0  0  0  0  0  0  0
   46.6194  -17.1434   -6.6711 C   0  0  0  0  0  0  0  0  0  0  0  0
   50.4390  -20.1154   -4.0611 C   0  0  0  0  0  0  0  0  0  0  0  0
   52.8271  -18.8955   -9.0192 C   0  0  0  0  0  0  0  0  0  0  0  0
   53.8269  -17.6067  -10.7890 C   0  0  0  0  0  0  0  0  0  0  0  0
   51.6251  -19.7735   -8.6361 C   0  0  0  0  0  0  0  0  0  0  0  0
   47.7813  -15.1532   -7.3864 C   0  0  0  0  0  0  0  0  0  0  0  0
   52.4159  -18.7357   -4.1661 C   0  0  0  0  0  0  0  0  0  0  0  0
   51.6575  -19.7072   -3.5196 C   0  0  0  0  0  0  0  0  0  0  0  0
   46.6055  -15.7876   -6.9966 C   0  0  0  0  0  0  0  0  0  0  0  0
   51.0942  -17.2378   -7.5566 H   0  0  0  0  0  0  0  0  0  0  0  0
   46.7828  -19.8193   -6.5967 H   0  0  0  0  0  0  0  0  0  0  0  0
   48.3949  -21.0734   -5.5118 H   0  0  0  0  0  0  0  0  0  0  0  0
   51.9408  -17.3771  -10.0761 H   0  0  0  0  0  0  0  0  0  0  0  0
   49.5084  -19.7688   -8.2682 H   0  0  0  0  0  0  0  0  0  0  0  0
   50.0243  -18.4877   -9.3683 H   0  0  0  0  0  0  0  0  0  0  0  0
   49.8684  -15.3554   -7.7784 H   0  0  0  0  0  0  0  0  0  0  0  0
   52.5816  -17.4335   -5.8476 H   0  0  0  0  0  0  0  0  0  0  0  0
   45.6910  -17.6166   -6.3737 H   0  0  0  0  0  0  0  0  0  0  0  0
   49.8635  -20.8699   -3.5379 H   0  0  0  0  0  0  0  0  0  0  0  0
   53.0699  -18.1813   -8.2035 H   0  0  0  0  0  0  0  0  0  0  0  0
   53.7026  -19.5742   -9.1324 H   0  0  0  0  0  0  0  0  0  0  0  0
   54.2886  -16.9271  -10.0386 H   0  0  0  0  0  0  0  0  0  0  0  0
   53.6136  -17.0229  -11.7094 H   0  0  0  0  0  0  0  0  0  0  0  0
   54.5427  -18.4141  -11.0549 H   0  0  0  0  0  0  0  0  0  0  0  0
   51.8737  -20.3411   -7.7135 H   0  0  0  0  0  0  0  0  0  0  0  0
   51.4716  -20.5243   -9.4418 H   0  0  0  0  0  0  0  0  0  0  0  0
   47.7686  -14.1014   -7.6417 H   0  0  0  0  0  0  0  0  0  0  0  0
   53.3605  -18.4178   -3.7439 H   0  0  0  0  0  0  0  0  0  0  0  0
   52.0129  -20.1445   -2.5954 H   0  0  0  0  0  0  0  0  0  0  0  0
   45.6796  -15.2288   -6.9492 H   0  0  0  0  0  0  0  0  0  0  0  0
  2  1  1  0
  3  1  1  0
  4  6  1  0
  5  7  1  0
  6  2  2  0
  7  3  2  0
  8 14  1  0
  9  1  1  0
 10  2  1  0
 11  3  1  0
 12  6  1  0
 13  7  1  0
 14 16  1  0
 15  8  1  0
 16  9  1  0
 17 10  2  0
 18 11  2  0
 19 18  1  0
 20 17  1  0
  5  4  2  0
 19 13  2  0
 20 12  2  0
  1 21  1  0
  4 22  1  0
  5 23  1  0
  8 24  1  0
  9 25  1  0
  9 26  1  0
 10 27  1  0
 11 28  1  0
 12 29  1  0
 13 30  1  0
 14 31  1  0
 14 32  1  0
 15 33  1  0
 15 34  1  0
 15 35  1  0
 16 36  1  0
 16 37  1  0
 17 38  1  0
 18 39  1  0
 19 40  1  0
 20 41  1  0
M  END
> <Uni-Dock RESULT> 
ENERGY=   -4.834  LOWER_BOUND=    2.270  UPPER_BOUND=    4.692
INTER + INTRA:          -4.834
INTER:                  -4.834
INTRA:                   0.000
UNBOUND:                 0.000

$$$$

     RDKit          3D

 41 43  0  0  0  0  0  0  0  0999 V2000
   47.2878  -16.3000  -10.8560 C   0  0  0  0  0  0  0  0  0  0  0  0
   46.0540  -15.8285  -11.6007 C   0  0  0  0  0  0  0  0  0  0  0  0
   47.0143  -16.3660   -9.3651 C   0  0  0  0  0  0  0  0  0  0  0  0
   44.6216  -17.7923  -10.8093 C   0  0  0  0  0  0  0  0  0  0  0  0
   45.1500  -18.0921   -9.6169 C   0  0  0  0  0  0  0  0  0  0  0  0
   44.8227  -16.5337  -11.5622 C   0  0  0  0  0  0  0  0  0  0  0  0
   46.0241  -17.2145   -8.8082 C   0  0  0  0  0  0  0  0  0  0  0  0
   50.7270  -16.9547  -12.2484 N   0  0  0  0  0  0  0  0  0  0  0  0
   47.8565  -17.6150  -11.4477 C   0  0  0  0  0  0  0  0  0  0  0  0
   46.1444  -14.6590  -12.3844 C   0  0  0  0  0  0  0  0  0  0  0  0
   47.7962  -15.5725   -8.5002 C   0  0  0  0  0  0  0  0  0  0  0  0
   43.7391  -16.0670  -12.3274 C   0  0  0  0  0  0  0  0  0  0  0  0
   45.8816  -17.2805   -7.4109 C   0  0  0  0  0  0  0  0  0  0  0  0
   50.3480  -17.1870  -10.8483 C   0  0  0  0  0  0  0  0  0  0  0  0
   52.0488  -16.3297  -12.3198 C   0  0  0  0  0  0  0  0  0  0  0  0
   49.1348  -18.1257  -10.7510 C   0  0  0  0  0  0  0  0  0  0  0  0
   45.0501  -14.2021  -13.1185 C   0  0  0  0  0  0  0  0  0  0  0  0
   47.6231  -15.6361   -7.1178 C   0  0  0  0  0  0  0  0  0  0  0  0
   46.6715  -16.4934   -6.5735 C   0  0  0  0  0  0  0  0  0  0  0  0
   43.8502  -14.9066  -13.0925 C   0  0  0  0  0  0  0  0  0  0  0  0
   48.0800  -15.5393  -11.0253 H   0  0  0  0  0  0  0  0  0  0  0  0
   43.9151  -18.5040  -11.2215 H   0  0  0  0  0  0  0  0  0  0  0  0
   44.8274  -19.0210   -9.1602 H   0  0  0  0  0  0  0  0  0  0  0  0
   50.0489  -16.2715  -12.6596 H   0  0  0  0  0  0  0  0  0  0  0  0
   47.1073  -18.4281  -11.3941 H   0  0  0  0  0  0  0  0  0  0  0  0
   48.0598  -17.4690  -12.5301 H   0  0  0  0  0  0  0  0  0  0  0  0
   47.0686  -14.0968  -12.4365 H   0  0  0  0  0  0  0  0  0  0  0  0
   48.5522  -14.9046   -8.8933 H   0  0  0  0  0  0  0  0  0  0  0  0
   42.7960  -16.6007  -12.3254 H   0  0  0  0  0  0  0  0  0  0  0  0
   45.1440  -17.9372   -6.9648 H   0  0  0  0  0  0  0  0  0  0  0  0
   50.1445  -16.2244  -10.3322 H   0  0  0  0  0  0  0  0  0  0  0  0
   51.1852  -17.6803  -10.3047 H   0  0  0  0  0  0  0  0  0  0  0  0
   52.0692  -15.3760  -11.7470 H   0  0  0  0  0  0  0  0  0  0  0  0
   52.2952  -16.1096  -13.3801 H   0  0  0  0  0  0  0  0  0  0  0  0
   52.8242  -17.0211  -11.9253 H   0  0  0  0  0  0  0  0  0  0  0  0
   48.9176  -18.3230   -9.6791 H   0  0  0  0  0  0  0  0  0  0  0  0
   49.4123  -19.1015  -11.2060 H   0  0  0  0  0  0  0  0  0  0  0  0
   45.1359  -13.3031  -13.7152 H   0  0  0  0  0  0  0  0  0  0  0  0
   48.2343  -15.0239   -6.4672 H   0  0  0  0  0  0  0  0  0  0  0  0
   46.5434  -16.5478   -5.5000 H   0  0  0  0  0  0  0  0  0  0  0  0
   43.0041  -14.5551  -13.6690 H   0  0  0  0  0  0  0  0  0  0  0  0
  2  1  1  0
  3  1  1  0
  4  6  1  0
  5  7  1  0
  6  2  2  0
  7  3  2  0
  8 14  1  0
  9  1  1  0
 10  2  1  0
 11  3  1  0
 12  6  1  0
 13  7  1  0
 14 16  1  0
 15  8  1  0
 16  9  1  0
 17 10  2  0
 18 11  2  0
 19 18  1  0
 20 17  1  0
  5  4  2  0
 19 13  2  0
 20 12  2  0
  1 21  1  0
  4 22  1  0
  5 23  1  0
  8 24  1  0
  9 25  1  0
  9 26  1  0
 10 27  1  0
 11 28  1  0
 12 29  1  0
 13 30  1  0
 14 31  1  0
 14 32  1  0
 15 33  1  0
 15 34  1  0
 15 35  1  0
 16 36  1  0
 16 37  1  0
 17 38  1  0
 18 39  1  0
 19 40  1  0
 20 41  1  0
M  END
> <Uni-Dock RESULT> 
ENERGY=   -4.307  LOWER_BOUND=    3.506  UPPER_BOUND=    6.180
INTER + INTRA:          -4.307
INTER:                  -4.307
INTRA:                   0.000
UNBOUND:                 0.000

$$$$

     RDKit          3D

 41 43  0  0  0  0  0  0  0  0999 V2000
   50.2350  -18.0982   -7.2065 C   0  0  0  0  0  0  0  0  0  0  0  0
   48.7681  -18.2200   -6.8428 C   0  0  0  0  0  0  0  0  0  0  0  0
   50.3932  -17.8435   -8.6937 C   0  0  0  0  0  0  0  0  0  0  0  0
   48.2021  -15.8589   -7.6425 C   0  0  0  0  0  0  0  0  0  0  0  0
   49.0876  -15.6507   -8.6241 C   0  0  0  0  0  0  0  0  0  0  0  0
   47.8381  -17.1694   -7.0581 C   0  0  0  0  0  0  0  0  0  0  0  0
   49.8624  -16.6935   -9.3313 C   0  0  0  0  0  0  0  0  0  0  0  0
   53.2274  -18.6359   -4.9812 N   0  0  0  0  0  0  0  0  0  0  0  0
   50.9719  -17.0685   -6.3124 C   0  0  0  0  0  0  0  0  0  0  0  0
   48.3186  -19.4141   -6.2411 C   0  0  0  0  0  0  0  0  0  0  0  0
   51.1212  -18.7742   -9.4638 C   0  0  0  0  0  0  0  0  0  0  0  0
   46.5058  -17.3343   -6.6396 C   0  0  0  0  0  0  0  0  0  0  0  0
   50.1169  -16.4859  -10.6985 C   0  0  0  0  0  0  0  0  0  0  0  0
   53.3108  -18.1976   -6.3807 C   0  0  0  0  0  0  0  0  0  0  0  0
   54.2547  -19.6407   -4.7016 C   0  0  0  0  0  0  0  0  0  0  0  0
   52.4782  -16.9267   -6.6139 C   0  0  0  0  0  0  0  0  0  0  0  0
   46.9874  -19.5642   -5.8535 C   0  0  0  0  0  0  0  0  0  0  0  0
   51.3429  -18.5604  -10.8240 C   0  0  0  0  0  0  0  0  0  0  0  0
   50.8468  -17.4149  -11.4392 C   0  0  0  0  0  0  0  0  0  0  0  0
   46.0829  -18.5248   -6.0496 C   0  0  0  0  0  0  0  0  0  0  0  0
   50.7096  -19.0759   -6.9744 H   0  0  0  0  0  0  0  0  0  0  0  0
   47.6400  -14.9962   -7.3027 H   0  0  0  0  0  0  0  0  0  0  0  0
   49.1693  -14.6370   -9.0001 H   0  0  0  0  0  0  0  0  0  0  0  0
   52.3022  -19.1053   -4.8422 H   0  0  0  0  0  0  0  0  0  0  0  0
   50.5212  -16.0627   -6.4156 H   0  0  0  0  0  0  0  0  0  0  0  0
   50.8340  -17.3479   -5.2460 H   0  0  0  0  0  0  0  0  0  0  0  0
   49.0014  -20.2356   -6.0620 H   0  0  0  0  0  0  0  0  0  0  0  0
   51.5294  -19.6689   -9.0110 H   0  0  0  0  0  0  0  0  0  0  0  0
   45.7845  -16.5377   -6.7789 H   0  0  0  0  0  0  0  0  0  0  0  0
   49.7366  -15.6036  -11.1997 H   0  0  0  0  0  0  0  0  0  0  0  0
   52.9898  -19.0108   -7.0662 H   0  0  0  0  0  0  0  0  0  0  0  0
   54.3647  -17.9477   -6.6388 H   0  0  0  0  0  0  0  0  0  0  0  0
   54.1578  -20.5103   -5.3891 H   0  0  0  0  0  0  0  0  0  0  0  0
   54.1418  -20.0021   -3.6576 H   0  0  0  0  0  0  0  0  0  0  0  0
   55.2676  -19.1947   -4.8010 H   0  0  0  0  0  0  0  0  0  0  0  0
   52.6149  -16.5951   -7.6657 H   0  0  0  0  0  0  0  0  0  0  0  0
   52.8873  -16.1192   -5.9682 H   0  0  0  0  0  0  0  0  0  0  0  0
   46.6585  -20.4868   -5.3926 H   0  0  0  0  0  0  0  0  0  0  0  0
   51.9075  -19.2822  -11.4002 H   0  0  0  0  0  0  0  0  0  0  0  0
   51.0262  -17.2462  -12.4933 H   0  0  0  0  0  0  0  0  0  0  0  0
   45.0517  -18.6398   -5.7410 H   0  0  0  0  0  0  0  0  0  0  0  0
  2  1  1  0
  3  1  1  0
  4  6  1  0
  5  7  1  0
  6  2  2  0
  7  3  2  0
  8 14  1  0
  9  1  1  0
 10  2  1  0
 11  3  1  0
 12  6  1  0
 13  7  1  0
 14 16  1  0
 15  8  1  0
 16  9  1  0
 17 10  2  0
 18 11  2  0
 19 18  1  0
 20 17  1  0
  5  4  2  0
 19 13  2  0
 20 12  2  0
  1 21  1  0
  4 22  1  0
  5 23  1  0
  8 24  1  0
  9 25  1  0
  9 26  1  0
 10 27  1  0
 11 28  1  0
 12 29  1  0
 13 30  1  0
 14 31  1  0
 14 32  1  0
 15 33  1  0
 15 34  1  0
 15 35  1  0
 16 36  1  0
 16 37  1  0
 17 38  1  0
 18 39  1  0
 19 40  1  0
 20 41  1  0
M  END
> <Uni-Dock RESULT> 
ENERGY=   -4.302  LOWER_BOUND=    2.021  UPPER_BOUND=    5.000
INTER + INTRA:          -4.302
INTER:                  -4.302
INTRA:                   0.000
UNBOUND:                 0.000

$$$$

     RDKit          3D

 41 43  0  0  0  0  0  0  0  0999 V2000
   46.8158  -15.9492  -10.5264 C   0  0  0  0  0  0  0  0  0  0  0  0
   46.6660  -16.4083   -9.0891 C   0  0  0  0  0  0  0  0  0  0  0  0
   47.8178  -16.8208  -11.2598 C   0  0  0  0  0  0  0  0  0  0  0  0
   45.8542  -18.7422   -9.7440 C   0  0  0  0  0  0  0  0  0  0  0  0
   46.4588  -18.9550  -10.9188 C   0  0  0  0  0  0  0  0  0  0  0  0
   46.2223  -17.7124   -8.7463 C   0  0  0  0  0  0  0  0  0  0  0  0
   47.6274  -18.2141  -11.4417 C   0  0  0  0  0  0  0  0  0  0  0  0
   45.2812  -12.9235  -12.1652 N   0  0  0  0  0  0  0  0  0  0  0  0
   45.4468  -15.8286  -11.2436 C   0  0  0  0  0  0  0  0  0  0  0  0
   46.9518  -15.4927   -8.0547 C   0  0  0  0  0  0  0  0  0  0  0  0
   48.9682  -16.2137  -11.8050 C   0  0  0  0  0  0  0  0  0  0  0  0
   46.0507  -18.0459   -7.3910 C   0  0  0  0  0  0  0  0  0  0  0  0
   48.5606  -18.9426  -12.2005 C   0  0  0  0  0  0  0  0  0  0  0  0
   46.1038  -13.9140  -12.8723 C   0  0  0  0  0  0  0  0  0  0  0  0
   45.6421  -11.5691  -12.5876 C   0  0  0  0  0  0  0  0  0  0  0  0
   45.5338  -15.3312  -12.7013 C   0  0  0  0  0  0  0  0  0  0  0  0
   46.7953  -15.8521   -6.7162 C   0  0  0  0  0  0  0  0  0  0  0  0
   49.8934  -16.9591  -12.5352 C   0  0  0  0  0  0  0  0  0  0  0  0
   49.6868  -18.3203  -12.7380 C   0  0  0  0  0  0  0  0  0  0  0  0
   46.3425  -17.1257   -6.3849 C   0  0  0  0  0  0  0  0  0  0  0  0
   47.2196  -14.9143  -10.4965 H   0  0  0  0  0  0  0  0  0  0  0  0
   45.0767  -19.4434   -9.4625 H   0  0  0  0  0  0  0  0  0  0  0  0
   46.1228  -19.8118  -11.4919 H   0  0  0  0  0  0  0  0  0  0  0  0
   45.5006  -12.9883  -11.1438 H   0  0  0  0  0  0  0  0  0  0  0  0
   44.9235  -16.8038  -11.2610 H   0  0  0  0  0  0  0  0  0  0  0  0
   44.7892  -15.1488  -10.6607 H   0  0  0  0  0  0  0  0  0  0  0  0
   47.2922  -14.4897   -8.2807 H   0  0  0  0  0  0  0  0  0  0  0  0
   49.1503  -15.1545  -11.6739 H   0  0  0  0  0  0  0  0  0  0  0  0
   45.6963  -19.0303   -7.1090 H   0  0  0  0  0  0  0  0  0  0  0  0
   48.4229  -20.0044  -12.3675 H   0  0  0  0  0  0  0  0  0  0  0  0
   47.1581  -13.8681  -12.5247 H   0  0  0  0  0  0  0  0  0  0  0  0
   46.1083  -13.6948  -13.9640 H   0  0  0  0  0  0  0  0  0  0  0  0
   46.7235  -11.3732  -12.4137 H   0  0  0  0  0  0  0  0  0  0  0  0
   45.0517  -10.8317  -12.0035 H   0  0  0  0  0  0  0  0  0  0  0  0
   45.4024  -11.4236  -13.6629 H   0  0  0  0  0  0  0  0  0  0  0  0
   46.1478  -16.0402  -13.2976 H   0  0  0  0  0  0  0  0  0  0  0  0
   44.5108  -15.3498  -13.1365 H   0  0  0  0  0  0  0  0  0  0  0  0
   47.0186  -15.1376   -5.9343 H   0  0  0  0  0  0  0  0  0  0  0  0
   50.7690  -16.4773  -12.9510 H   0  0  0  0  0  0  0  0  0  0  0  0
   50.4016  -18.8963  -13.3117 H   0  0  0  0  0  0  0  0  0  0  0  0
   46.2139  -17.4006   -5.3458 H   0  0  0  0  0  0  0  0  0  0  0  0
  2  1  1  0
  3  1  1  0
  4  6  1  0
  5  7  1  0
  6  2  2  0
  7  3  2  0
  8 14  1  0
  9  1  1  0
 10  2  1  0
 11  3  1  0
 12  6  1  0
 13  7  1  0
 14 16  1  0
 15  8  1  0
 16  9  1  0
 17 10  2  0
 18 11  2  0
 19 18  1  0
 20 17  1  0
  5  4  2  0
 19 13  2  0
 20 12  2  0
  1 21  1  0
  4 22  1  0
  5 23  1  0
  8 24  1  0
  9 25  1  0
  9 26  1  0
 10 27  1  0
 11 28  1  0
 12 29  1  0
 13 30  1  0
 14 31  1  0
 14 32  1  0
 15 33  1  0
 15 34  1  0
 15 35  1  0
 16 36  1  0
 16 37  1  0
 17 38  1  0
 18 39  1  0
 19 40  1  0
 20 41  1  0
M  END
> <Uni-Dock RESULT> 
ENERGY=   -3.895  LOWER_BOUND=    3.948  UPPER_BOUND=    6.345
INTER + INTRA:          -3.895
INTER:                  -3.895
INTRA:                   0.000
UNBOUND:                 0.000

$$$$

     RDKit          3D

 41 43  0  0  0  0  0  0  0  0999 V2000
   44.6621  -14.3522  -12.8419 C   0  0  0  0  0  0  0  0  0  0  0  0
   43.2066  -13.9628  -12.6711 C   0  0  0  0  0  0  0  0  0  0  0  0
   45.0414  -15.4349  -11.8492 C   0  0  0  0  0  0  0  0  0  0  0  0
   42.3440  -16.3125  -13.1905 C   0  0  0  0  0  0  0  0  0  0  0  0
   43.3380  -17.1013  -12.7656 C   0  0  0  0  0  0  0  0  0  0  0  0
   42.1440  -14.8900  -12.8325 C   0  0  0  0  0  0  0  0  0  0  0  0
   44.4219  -16.7104  -11.8381 C   0  0  0  0  0  0  0  0  0  0  0  0
   47.2329  -12.7780  -15.1021 N   0  0  0  0  0  0  0  0  0  0  0  0
   45.0005  -14.7042  -14.3131 C   0  0  0  0  0  0  0  0  0  0  0  0
   42.8981  -12.6200  -12.3683 C   0  0  0  0  0  0  0  0  0  0  0  0
   46.0697  -15.1690  -10.9213 C   0  0  0  0  0  0  0  0  0  0  0  0
   40.8164  -14.4409  -12.7171 C   0  0  0  0  0  0  0  0  0  0  0  0
   44.8809  -17.6900  -10.9398 C   0  0  0  0  0  0  0  0  0  0  0  0
   47.4875  -13.9543  -14.2600 C   0  0  0  0  0  0  0  0  0  0  0  0
   48.3681  -11.8556  -15.0428 C   0  0  0  0  0  0  0  0  0  0  0  0
   46.4783  -15.0756  -14.5547 C   0  0  0  0  0  0  0  0  0  0  0  0
   41.5744  -12.2010  -12.2369 C   0  0  0  0  0  0  0  0  0  0  0  0
   46.4945  -16.1478  -10.0233 C   0  0  0  0  0  0  0  0  0  0  0  0
   45.9052  -17.4085  -10.0366 C   0  0  0  0  0  0  0  0  0  0  0  0
   40.5350  -13.1093  -12.4140 C   0  0  0  0  0  0  0  0  0  0  0  0
   45.2688  -13.4498  -12.6128 H   0  0  0  0  0  0  0  0  0  0  0  0
   41.5690  -16.7831  -13.7849 H   0  0  0  0  0  0  0  0  0  0  0  0
   43.2863  -18.1465  -13.0493 H   0  0  0  0  0  0  0  0  0  0  0  0
   46.4095  -12.2670  -14.7064 H   0  0  0  0  0  0  0  0  0  0  0  0
   44.3871  -15.5554  -14.6661 H   0  0  0  0  0  0  0  0  0  0  0  0
   44.7242  -13.8482  -14.9651 H   0  0  0  0  0  0  0  0  0  0  0  0
   43.6843  -11.8863  -12.2387 H   0  0  0  0  0  0  0  0  0  0  0  0
   46.5551  -14.2015  -10.8946 H   0  0  0  0  0  0  0  0  0  0  0  0
   39.9907  -15.1292  -12.8539 H   0  0  0  0  0  0  0  0  0  0  0  0
   44.4338  -18.6771  -10.9289 H   0  0  0  0  0  0  0  0  0  0  0  0
   47.4674  -13.6781  -13.1840 H   0  0  0  0  0  0  0  0  0  0  0  0
   48.5004  -14.3637  -14.4749 H   0  0  0  0  0  0  0  0  0  0  0  0
   48.5752  -11.5469  -13.9940 H   0  0  0  0  0  0  0  0  0  0  0  0
   48.1362  -10.9475  -15.6385 H   0  0  0  0  0  0  0  0  0  0  0  0
   49.2732  -12.3292  -15.4803 H   0  0  0  0  0  0  0  0  0  0  0  0
   46.7405  -15.9655  -13.9427 H   0  0  0  0  0  0  0  0  0  0  0  0
   46.5918  -15.3751  -15.6194 H   0  0  0  0  0  0  0  0  0  0  0  0
   41.3545  -11.1669  -12.0046 H   0  0  0  0  0  0  0  0  0  0  0  0
   47.2881  -15.9293   -9.3204 H   0  0  0  0  0  0  0  0  0  0  0  0
   46.2412  -18.1699   -9.3444 H   0  0  0  0  0  0  0  0  0  0  0  0
   39.5079  -12.7810  -12.3195 H   0  0  0  0  0  0  0  0  0  0  0  0
  2  1  1  0
  3  1  1  0
  4  6  1  0
  5  7  1  0
  6  2  2  0
  7  3  2  0
  8 14  1  0
  9  1  1  0
 10  2  1  0
 11  3  1  0
 12  6  1  0
 13  7  1  0
 14 16  1  0
 15  8  1  0
 16  9  1  0
 17 10  2  0
 18 11  2  0
 19 18  1  0
 20 17  1  0
  5  4  2  0
 19 13  2  0
 20 12  2  0
  1 21  1  0
  4 22  1  0
  5 23  1  0
  8 24  1  0
  9 25  1  0
  9 26  1  0
 10 27  1  0
 11 28  1  0
 12 29  1  0
 13 30  1  0
 14 31  1  0
 14 32  1  0
 15 33  1  0
 15 34  1  0
 15 35  1  0
 16 36  1  0
 16 37  1  0
 17 38  1  0
 18 39  1  0
 19 40  1  0
 20 41  1  0
M  END
> <Uni-Dock RESULT> 
ENERGY=   -3.870  LOWER_BOUND=    6.531  UPPER_BOUND=    8.986
INTER + INTRA:          -3.870
INTER:                  -3.870
INTRA:                   0.000
UNBOUND:                 0.000

$$$$

     RDKit          3D

 41 43  0  0  0  0  0  0  0  0999 V2000
   46.1677  -16.8252  -10.2178 C   0  0  0  0  0  0  0  0  0  0  0  0
   47.1111  -16.2721   -9.1675 C   0  0  0  0  0  0  0  0  0  0  0  0
   46.1601  -15.9342  -11.4457 C   0  0  0  0  0  0  0  0  0  0  0  0
   49.1624  -16.4354  -10.6842 C   0  0  0  0  0  0  0  0  0  0  0  0
   48.6479  -16.2723  -11.9088 C   0  0  0  0  0  0  0  0  0  0  0  0
   48.4991  -16.0938   -9.4056 C   0  0  0  0  0  0  0  0  0  0  0  0
   47.3212  -15.6995  -12.2250 C   0  0  0  0  0  0  0  0  0  0  0  0
   43.8401  -19.7731   -9.9212 N   0  0  0  0  0  0  0  0  0  0  0  0
   46.4532  -18.3169  -10.5276 C   0  0  0  0  0  0  0  0  0  0  0  0
   46.5918  -15.9500   -7.8960 C   0  0  0  0  0  0  0  0  0  0  0  0
   44.9432  -15.3406  -11.8408 C   0  0  0  0  0  0  0  0  0  0  0  0
   49.3216  -15.6319   -8.3628 C   0  0  0  0  0  0  0  0  0  0  0  0
   47.2198  -14.9255  -13.3945 C   0  0  0  0  0  0  0  0  0  0  0  0
   44.0216  -18.9882  -11.1495 C   0  0  0  0  0  0  0  0  0  0  0  0
   42.4218  -20.0693   -9.7126 C   0  0  0  0  0  0  0  0  0  0  0  0
   45.5005  -18.9448  -11.5660 C   0  0  0  0  0  0  0  0  0  0  0  0
   47.4226  -15.4726   -6.8827 C   0  0  0  0  0  0  0  0  0  0  0  0
   44.8693  -14.5573  -12.9923 C   0  0  0  0  0  0  0  0  0  0  0  0
   46.0045  -14.3551  -13.7715 C   0  0  0  0  0  0  0  0  0  0  0  0
   48.7859  -15.3166   -7.1146 C   0  0  0  0  0  0  0  0  0  0  0  0
   45.1473  -16.8106   -9.7779 H   0  0  0  0  0  0  0  0  0  0  0  0
   50.1918  -16.7712  -10.6294 H   0  0  0  0  0  0  0  0  0  0  0  0
   49.3028  -16.4878  -12.7455 H   0  0  0  0  0  0  0  0  0  0  0  0
   44.1466  -19.1850   -9.1113 H   0  0  0  0  0  0  0  0  0  0  0  0
   47.4847  -18.4506  -10.9066 H   0  0  0  0  0  0  0  0  0  0  0  0
   46.4056  -18.9004   -9.5834 H   0  0  0  0  0  0  0  0  0  0  0  0
   45.5377  -16.0740   -7.6802 H   0  0  0  0  0  0  0  0  0  0  0  0
   44.0407  -15.4891  -11.2614 H   0  0  0  0  0  0  0  0  0  0  0  0
   50.3865  -15.5057   -8.5189 H   0  0  0  0  0  0  0  0  0  0  0  0
   48.0914  -14.7508  -14.0142 H   0  0  0  0  0  0  0  0  0  0  0  0
   43.6174  -17.9612  -11.0219 H   0  0  0  0  0  0  0  0  0  0  0  0
   43.4613  -19.4596  -11.9882 H   0  0  0  0  0  0  0  0  0  0  0  0
   41.8222  -19.1330   -9.6691 H   0  0  0  0  0  0  0  0  0  0  0  0
   42.2965  -20.6132   -8.7525 H   0  0  0  0  0  0  0  0  0  0  0  0
   42.0402  -20.7218  -10.5272 H   0  0  0  0  0  0  0  0  0  0  0  0
   45.5875  -18.3944  -12.5275 H   0  0  0  0  0  0  0  0  0  0  0  0
   45.8377  -19.9861  -11.7619 H   0  0  0  0  0  0  0  0  0  0  0  0
   47.0085  -15.2303   -5.9124 H   0  0  0  0  0  0  0  0  0  0  0  0
   43.9268  -14.1123  -13.2844 H   0  0  0  0  0  0  0  0  0  0  0  0
   45.9442  -13.7535  -14.6693 H   0  0  0  0  0  0  0  0  0  0  0  0
   49.4308  -14.9535   -6.3247 H   0  0  0  0  0  0  0  0  0  0  0  0
  2  1  1  0
  3  1  1  0
  4  6  1  0
  5  7  1  0
  6  2  2  0
  7  3  2  0
  8 14  1  0
  9  1  1  0
 10  2  1  0
 11  3  1  0
 12  6  1  0
 13  7  1  0
 14 16  1  0
 15  8  1  0
 16  9  1  0
 17 10  2  0
 18 11  2  0
 19 18  1  0
 20 17  1  0
  5  4  2  0
 19 13  2  0
 20 12  2  0
  1 21  1  0
  4 22  1  0
  5 23  1  0
  8 24  1  0
  9 25  1  0
  9 26  1  0
 10 27  1  0
 11 28  1  0
 12 29  1  0
 13 30  1  0
 14 31  1  0
 14 32  1  0
 15 33  1  0
 15 34  1  0
 15 35  1  0
 16 36  1  0
 16 37  1  0
 17 38  1  0
 18 39  1  0
 19 40  1  0
 20 41  1  0
M  END
> <Uni-Dock RESULT> 
ENERGY=   -3.849  LOWER_BOUND=    3.861  UPPER_BOUND=    5.782
INTER + INTRA:          -3.849
INTER:                  -3.849
INTRA:                   0.000
UNBOUND:                 0.000

$$$$
