
     RDKit          3D

 41 43  0  0  0  0  0  0  0  0999 V2000
   49.2734  -16.7947   -7.3535 C   0  0  0  0  0  0  0  0  0  0  0  0
   48.3168  -17.8363   -6.7690 C   0  0  0  0  0  0  0  0  0  0  0  0
   49.0089  -16.6165   -8.8460 C   0  0  0  0  0  0  0  0  0  0  0  0
   46.3544  -16.2564   -7.1901 C   0  0  0  0  0  0  0  0  0  0  0  0
   46.7050  -15.6393   -8.3266 C   0  0  0  0  0  0  0  0  0  0  0  0
   46.9298  -17.5276   -6.6915 C   0  0  0  0  0  0  0  0  0  0  0  0
   47.7567  -16.0909   -9.2710 C   0  0  0  0  0  0  0  0  0  0  0  0
   53.8932  -18.7523   -8.0277 N   0  0  0  0  0  0  0  0  0  0  0  0
   50.7626  -16.7813   -6.8777 C   0  0  0  0  0  0  0  0  0  0  0  0
   48.7355  -19.1104   -6.3243 C   0  0  0  0  0  0  0  0  0  0  0  0
   49.9711  -16.9288   -9.8319 C   0  0  0  0  0  0  0  0  0  0  0  0
   46.0413  -18.4369   -6.0937 C   0  0  0  0  0  0  0  0  0  0  0  0
   47.5118  -15.8936  -10.6404 C   0  0  0  0  0  0  0  0  0  0  0  0
   53.0751  -17.6014   -7.6133 C   0  0  0  0  0  0  0  0  0  0  0  0
   54.3324  -19.5618   -6.8881 C   0  0  0  0  0  0  0  0  0  0  0  0
   51.6547  -18.0116   -7.1729 C   0  0  0  0  0  0  0  0  0  0  0  0
   47.8314  -20.0106   -5.7583 C   0  0  0  0  0  0  0  0  0  0  0  0
   49.6981  -16.7448  -11.1878 C   0  0  0  0  0  0  0  0  0  0  0  0
   48.4709  -16.2309  -11.5918 C   0  0  0  0  0  0  0  0  0  0  0  0
   46.4901  -19.6701   -5.6308 C   0  0  0  0  0  0  0  0  0  0  0  0
   48.9353  -15.8325   -6.9054 H   0  0  0  0  0  0  0  0  0  0  0  0
   45.5009  -15.8549   -6.6555 H   0  0  0  0  0  0  0  0  0  0  0  0
   46.1097  -14.7832   -8.6235 H   0  0  0  0  0  0  0  0  0  0  0  0
   53.3454  -19.3586   -8.6822 H   0  0  0  0  0  0  0  0  0  0  0  0
   51.2292  -15.8679   -7.3103 H   0  0  0  0  0  0  0  0  0  0  0  0
   50.7706  -16.6168   -5.7768 H   0  0  0  0  0  0  0  0  0  0  0  0
   49.7470  -19.4455   -6.3969 H   0  0  0  0  0  0  0  0  0  0  0  0
   50.9506  -17.2862   -9.5838 H   0  0  0  0  0  0  0  0  0  0  0  0
   44.9878  -18.1987   -6.0059 H   0  0  0  0  0  0  0  0  0  0  0  0
   46.5683  -15.4788  -10.9748 H   0  0  0  0  0  0  0  0  0  0  0  0
   53.5787  -17.0401   -6.7947 H   0  0  0  0  0  0  0  0  0  0  0  0
   53.0064  -16.9078   -8.4780 H   0  0  0  0  0  0  0  0  0  0  0  0
   55.0744  -20.3087   -7.2397 H   0  0  0  0  0  0  0  0  0  0  0  0
   53.4797  -20.1123   -6.4369 H   0  0  0  0  0  0  0  0  0  0  0  0
   54.8253  -18.9286   -6.1193 H   0  0  0  0  0  0  0  0  0  0  0  0
   51.7554  -18.5979   -6.2355 H   0  0  0  0  0  0  0  0  0  0  0  0
   51.1984  -18.6728   -7.9373 H   0  0  0  0  0  0  0  0  0  0  0  0
   48.1754  -20.9778   -5.4144 H   0  0  0  0  0  0  0  0  0  0  0  0
   50.4490  -16.9896  -11.9282 H   0  0  0  0  0  0  0  0  0  0  0  0
   48.2667  -16.0806  -12.6441 H   0  0  0  0  0  0  0  0  0  0  0  0
   45.7935  -20.3684   -5.1850 H   0  0  0  0  0  0  0  0  0  0  0  0
  2  1  1  0
  3  1  1  0
  4  6  1  0
  5  7  1  0
  6  2  2  0
  7  3  2  0
  8 14  1  0
  9  1  1  0
 10  2  1  0
 11  3  1  0
 12  6  1  0
 13  7  1  0
 14 16  1  0
 15  8  1  0
 16  9  1  0
 17 10  2  0
 18 11  2  0
 19 18  1  0
 20 17  1  0
  5  4  2  0
 19 13  2  0
 20 12  2  0
  1 21  1  0
  4 22  1  0
  5 23  1  0
  8 24  1  0
  9 25  1  0
  9 26  1  0
 10 27  1  0
 11 28  1  0
 12 29  1  0
 13 30  1  0
 14 31  1  0
 14 32  1  0
 15 33  1  0
 15 34  1  0
 15 35  1  0
 16 36  1  0
 16 37  1  0
 17 38  1  0
 18 39  1  0
 19 40  1  0
 20 41  1  0
M  END
> <Uni-Dock RESULT> 
ENERGY=   -5.224  LOWER_BOUND=    0.000  UPPER_BOUND=    0.000
INTER + INTRA:          -5.224
INTER:                  -5.224
INTRA:                   0.000
UNBOUND:                 0.000

$$$$

     RDKit          3D

 41 43  0  0  0  0  0  0  0  0999 V2000
   45.9074  -19.2800   -8.8306 C   0  0  0  0  0  0  0  0  0  0  0  0
   44.4719  -19.4956   -8.3464 C   0  0  0  0  0  0  0  0  0  0  0  0
   46.3878  -17.8832   -8.4466 C   0  0  0  0  0  0  0  0  0  0  0  0
   45.2867  -19.4180   -5.9267 C   0  0  0  0  0  0  0  0  0  0  0  0
   46.2800  -18.5200   -5.9737 C   0  0  0  0  0  0  0  0  0  0  0  0
   44.2241  -19.5758   -6.9474 C   0  0  0  0  0  0  0  0  0  0  0  0
   46.5221  -17.5495   -7.0699 C   0  0  0  0  0  0  0  0  0  0  0  0
   46.0224  -18.3556  -13.8068 N   0  0  0  0  0  0  0  0  0  0  0  0
   46.3240  -19.8257  -10.2352 C   0  0  0  0  0  0  0  0  0  0  0  0
   43.3652  -19.5920   -9.2196 C   0  0  0  0  0  0  0  0  0  0  0  0
   46.7331  -16.9065   -9.4069 C   0  0  0  0  0  0  0  0  0  0  0  0
   42.9272  -19.8450   -6.4792 C   0  0  0  0  0  0  0  0  0  0  0  0
   46.9922  -16.2773   -6.7032 C   0  0  0  0  0  0  0  0  0  0  0  0
   46.6350  -19.0258  -12.6487 C   0  0  0  0  0  0  0  0  0  0  0  0
   45.1422  -19.2486  -14.5648 C   0  0  0  0  0  0  0  0  0  0  0  0
   45.6341  -19.2521  -11.4969 C   0  0  0  0  0  0  0  0  0  0  0  0
   42.0797  -19.8323   -8.7320 C   0  0  0  0  0  0  0  0  0  0  0  0
   47.1774  -15.6417   -9.0196 C   0  0  0  0  0  0  0  0  0  0  0  0
   47.3044  -15.3265   -7.6714 C   0  0  0  0  0  0  0  0  0  0  0  0
   41.8627  -19.9719   -7.3664 C   0  0  0  0  0  0  0  0  0  0  0  0
   46.5160  -19.9576   -8.1894 H   0  0  0  0  0  0  0  0  0  0  0  0
   45.1862  -19.9930   -5.0132 H   0  0  0  0  0  0  0  0  0  0  0  0
   46.9097  -18.4390   -5.0949 H   0  0  0  0  0  0  0  0  0  0  0  0
   45.4683  -17.5279  -13.4844 H   0  0  0  0  0  0  0  0  0  0  0  0
   47.4259  -19.6918  -10.3173 H   0  0  0  0  0  0  0  0  0  0  0  0
   46.1653  -20.9275  -10.2371 H   0  0  0  0  0  0  0  0  0  0  0  0
   43.4526  -19.4875  -10.2789 H   0  0  0  0  0  0  0  0  0  0  0  0
   46.6994  -17.1015  -10.4604 H   0  0  0  0  0  0  0  0  0  0  0  0
   42.7342  -19.9347   -5.4167 H   0  0  0  0  0  0  0  0  0  0  0  0
   47.1140  -16.0175   -5.6583 H   0  0  0  0  0  0  0  0  0  0  0  0
   47.0873  -19.9957  -12.9542 H   0  0  0  0  0  0  0  0  0  0  0  0
   47.4690  -18.3855  -12.2909 H   0  0  0  0  0  0  0  0  0  0  0  0
   44.8440  -18.7465  -15.5088 H   0  0  0  0  0  0  0  0  0  0  0  0
   44.2184  -19.4790  -13.9927 H   0  0  0  0  0  0  0  0  0  0  0  0
   45.6685  -20.1902  -14.8319 H   0  0  0  0  0  0  0  0  0  0  0  0
   44.8868  -19.9937  -11.8491 H   0  0  0  0  0  0  0  0  0  0  0  0
   45.0949  -18.3090  -11.2742 H   0  0  0  0  0  0  0  0  0  0  0  0
   41.2473  -19.9130   -9.4195 H   0  0  0  0  0  0  0  0  0  0  0  0
   47.4378  -14.9071   -9.7709 H   0  0  0  0  0  0  0  0  0  0  0  0
   47.6587  -14.3475   -7.3752 H   0  0  0  0  0  0  0  0  0  0  0  0
   40.8652  -20.1651   -6.9931 H   0  0  0  0  0  0  0  0  0  0  0  0
  2  1  1  0
  3  1  1  0
  4  6  1  0
  5  7  1  0
  6  2  2  0
  7  3  2  0
  8 14  1  0
  9  1  1  0
 10  2  1  0
 11  3  1  0
 12  6  1  0
 13  7  1  0
 14 16  1  0
 15  8  1  0
 16  9  1  0
 17 10  2  0
 18 11  2  0
 19 18  1  0
 20 17  1  0
  5  4  2  0
 19 13  2  0
 20 12  2  0
  1 21  1  0
  4 22  1  0
  5 23  1  0
  8 24  1  0
  9 25  1  0
  9 26  1  0
 10 27  1  0
 11 28  1  0
 12 29  1  0
 13 30  1  0
 14 31  1  0
 14 32  1  0
 15 33  1  0
 15 34  1  0
 15 35  1  0
 16 36  1  0
 16 37  1  0
 17 38  1  0
 18 39  1  0
 19 40  1  0
 20 41  1  0
M  END
> <Uni-Dock RESULT> 
ENERGY=   -5.014  LOWER_BOUND=    3.873  UPPER_BOUND=    5.796
INTER + INTRA:          -5.014
INTER:                  -5.014
INTRA:                   0.000
UNBOUND:                 0.000

$$$$

     RDKit          3D

 41 43  0  0  0  0  0  0  0  0999 V2000
   46.3466  -17.8366   -9.9559 C   0  0  0  0  0  0  0  0  0  0  0  0
   46.8438  -16.8980   -8.8543 C   0  0  0  0  0  0  0  0  0  0  0  0
   45.8396  -17.0278  -11.1468 C   0  0  0  0  0  0  0  0  0  0  0  0
   48.7634  -16.1551  -10.3669 C   0  0  0  0  0  0  0  0  0  0  0  0
   48.2102  -16.1799  -11.5871 C   0  0  0  0  0  0  0  0  0  0  0  0
   48.0169  -16.1269   -9.0872 C   0  0  0  0  0  0  0  0  0  0  0  0
   46.7563  -16.2240  -11.8806 C   0  0  0  0  0  0  0  0  0  0  0  0
   41.7855  -19.7144   -8.8157 N   0  0  0  0  0  0  0  0  0  0  0  0
   45.5407  -19.1152   -9.5562 C   0  0  0  0  0  0  0  0  0  0  0  0
   46.1795  -16.7326   -7.6183 C   0  0  0  0  0  0  0  0  0  0  0  0
   44.4933  -17.0628  -11.5726 C   0  0  0  0  0  0  0  0  0  0  0  0
   48.5348  -15.3123   -8.0664 C   0  0  0  0  0  0  0  0  0  0  0  0
   46.3087  -15.4983  -12.9973 C   0  0  0  0  0  0  0  0  0  0  0  0
   43.1248  -19.9482   -9.3790 C   0  0  0  0  0  0  0  0  0  0  0  0
   41.6875  -20.1427   -7.4179 C   0  0  0  0  0  0  0  0  0  0  0  0
   44.1736  -18.9488   -8.8490 C   0  0  0  0  0  0  0  0  0  0  0  0
   46.6961  -15.8966   -6.6272 C   0  0  0  0  0  0  0  0  0  0  0  0
   44.0664  -16.3168  -12.6718 C   0  0  0  0  0  0  0  0  0  0  0  0
   44.9708  -15.5345  -13.3812 C   0  0  0  0  0  0  0  0  0  0  0  0
   47.8778  -15.1983   -6.8451 C   0  0  0  0  0  0  0  0  0  0  0  0
   47.2729  -18.3230  -10.3381 H   0  0  0  0  0  0  0  0  0  0  0  0
   49.8387  -16.0264  -10.3168 H   0  0  0  0  0  0  0  0  0  0  0  0
   48.8812  -16.0721  -12.4318 H   0  0  0  0  0  0  0  0  0  0  0  0
   41.5495  -18.6962   -8.8749 H   0  0  0  0  0  0  0  0  0  0  0  0
   45.4114  -19.7160  -10.4843 H   0  0  0  0  0  0  0  0  0  0  0  0
   46.1867  -19.7369   -8.8965 H   0  0  0  0  0  0  0  0  0  0  0  0
   45.2639  -17.2292   -7.3820 H   0  0  0  0  0  0  0  0  0  0  0  0
   43.7573  -17.6794  -11.0961 H   0  0  0  0  0  0  0  0  0  0  0  0
   49.4427  -14.7425   -8.2256 H   0  0  0  0  0  0  0  0  0  0  0  0
   47.0008  -14.8957  -13.5734 H   0  0  0  0  0  0  0  0  0  0  0  0
   43.4569  -20.9905   -9.1746 H   0  0  0  0  0  0  0  0  0  0  0  0
   43.0481  -19.8503  -10.4827 H   0  0  0  0  0  0  0  0  0  0  0  0
   40.6248  -20.0991   -7.1001 H   0  0  0  0  0  0  0  0  0  0  0  0
   42.2717  -19.4720   -6.7527 H   0  0  0  0  0  0  0  0  0  0  0  0
   42.0349  -21.1917   -7.2999 H   0  0  0  0  0  0  0  0  0  0  0  0
   44.3158  -19.1606   -7.7685 H   0  0  0  0  0  0  0  0  0  0  0  0
   43.7891  -17.9128   -8.9422 H   0  0  0  0  0  0  0  0  0  0  0  0
   46.1765  -15.7925   -5.6831 H   0  0  0  0  0  0  0  0  0  0  0  0
   43.0303  -16.3575  -12.9829 H   0  0  0  0  0  0  0  0  0  0  0  0
   44.6375  -14.9649  -14.2392 H   0  0  0  0  0  0  0  0  0  0  0  0
   48.2786  -14.5564   -6.0712 H   0  0  0  0  0  0  0  0  0  0  0  0
  2  1  1  0
  3  1  1  0
  4  6  1  0
  5  7  1  0
  6  2  2  0
  7  3  2  0
  8 14  1  0
  9  1  1  0
 10  2  1  0
 11  3  1  0
 12  6  1  0
 13  7  1  0
 14 16  1  0
 15  8  1  0
 16  9  1  0
 17 10  2  0
 18 11  2  0
 19 18  1  0
 20 17  1  0
  5  4  2  0
 19 13  2  0
 20 12  2  0
  1 21  1  0
  4 22  1  0
  5 23  1  0
  8 24  1  0
  9 25  1  0
  9 26  1  0
 10 27  1  0
 11 28  1  0
 12 29  1  0
 13 30  1  0
 14 31  1  0
 14 32  1  0
 15 33  1  0
 15 34  1  0
 15 35  1  0
 16 36  1  0
 16 37  1  0
 17 38  1  0
 18 39  1  0
 19 40  1  0
 20 41  1  0
M  END
> <Uni-Dock RESULT> 
ENERGY=   -4.329  LOWER_BOUND=    4.022  UPPER_BOUND=    6.194
INTER + INTRA:          -4.329
INTER:                  -4.329
INTRA:                   0.000
UNBOUND:                 0.000

$$$$

     RDKit          3D

 41 43  0  0  0  0  0  0  0  0999 V2000
   49.0796  -17.7219   -8.2211 C   0  0  0  0  0  0  0  0  0  0  0  0
   48.2370  -18.5012   -7.2089 C   0  0  0  0  0  0  0  0  0  0  0  0
   49.7754  -16.5497   -7.5348 C   0  0  0  0  0  0  0  0  0  0  0  0
   50.3715  -19.2455   -6.0196 C   0  0  0  0  0  0  0  0  0  0  0  0
   51.1758  -18.1822   -6.1542 C   0  0  0  0  0  0  0  0  0  0  0  0
   48.8989  -19.2331   -6.1837 C   0  0  0  0  0  0  0  0  0  0  0  0
   50.7481  -16.8119   -6.5298 C   0  0  0  0  0  0  0  0  0  0  0  0
   46.1605  -14.7727  -11.1213 N   0  0  0  0  0  0  0  0  0  0  0  0
   48.5102  -17.4827   -9.6574 C   0  0  0  0  0  0  0  0  0  0  0  0
   46.8241  -18.5105   -7.2199 C   0  0  0  0  0  0  0  0  0  0  0  0
   49.5127  -15.2041   -7.8747 C   0  0  0  0  0  0  0  0  0  0  0  0
   48.1522  -20.0144   -5.2861 C   0  0  0  0  0  0  0  0  0  0  0  0
   51.4178  -15.7427   -5.9116 C   0  0  0  0  0  0  0  0  0  0  0  0
   47.3157  -15.6799  -11.0301 C   0  0  0  0  0  0  0  0  0  0  0  0
   44.9498  -15.4582  -11.5808 C   0  0  0  0  0  0  0  0  0  0  0  0
   47.2250  -16.6356   -9.8226 C   0  0  0  0  0  0  0  0  0  0  0  0
   46.1000  -19.2720   -6.3013 C   0  0  0  0  0  0  0  0  0  0  0  0
   50.1744  -14.1571   -7.2321 C   0  0  0  0  0  0  0  0  0  0  0  0
   51.1228  -14.4249   -6.2513 C   0  0  0  0  0  0  0  0  0  0  0  0
   46.7620  -20.0328   -5.3451 C   0  0  0  0  0  0  0  0  0  0  0  0
   49.9129  -18.4165   -8.4740 H   0  0  0  0  0  0  0  0  0  0  0  0
   50.8213  -20.1583   -5.6459 H   0  0  0  0  0  0  0  0  0  0  0  0
   52.2165  -18.3171   -5.8816 H   0  0  0  0  0  0  0  0  0  0  0  0
   45.9721  -14.3444  -10.1847 H   0  0  0  0  0  0  0  0  0  0  0  0
   49.3334  -17.0352  -10.2582 H   0  0  0  0  0  0  0  0  0  0  0  0
   48.3198  -18.4762  -10.1219 H   0  0  0  0  0  0  0  0  0  0  0  0
   46.2468  -17.9454   -7.9185 H   0  0  0  0  0  0  0  0  0  0  0  0
   48.8263  -14.9328   -8.6519 H   0  0  0  0  0  0  0  0  0  0  0  0
   48.6495  -20.5965   -4.5191 H   0  0  0  0  0  0  0  0  0  0  0  0
   52.1720  -15.9306   -5.1567 H   0  0  0  0  0  0  0  0  0  0  0  0
   47.4261  -16.2656  -11.9699 H   0  0  0  0  0  0  0  0  0  0  0  0
   48.2288  -15.0546  -10.9367 H   0  0  0  0  0  0  0  0  0  0  0  0
   44.1637  -14.7027  -11.7892 H   0  0  0  0  0  0  0  0  0  0  0  0
   44.5626  -16.1496  -10.8026 H   0  0  0  0  0  0  0  0  0  0  0  0
   45.1437  -16.0158  -12.5222 H   0  0  0  0  0  0  0  0  0  0  0  0
   46.3774  -17.3274  -10.0113 H   0  0  0  0  0  0  0  0  0  0  0  0
   46.9936  -16.0612   -8.9027 H   0  0  0  0  0  0  0  0  0  0  0  0
   45.0179  -19.2731   -6.3341 H   0  0  0  0  0  0  0  0  0  0  0  0
   49.9596  -13.1323   -7.5074 H   0  0  0  0  0  0  0  0  0  0  0  0
   51.6409  -13.6101   -5.7621 H   0  0  0  0  0  0  0  0  0  0  0  0
   46.1968  -20.6273   -4.6390 H   0  0  0  0  0  0  0  0  0  0  0  0
  2  1  1  0
  3  1  1  0
  4  6  1  0
  5  7  1  0
  6  2  2  0
  7  3  2  0
  8 14  1  0
  9  1  1  0
 10  2  1  0
 11  3  1  0
 12  6  1  0
 13  7  1  0
 14 16  1  0
 15  8  1  0
 16  9  1  0
 17 10  2  0
 18 11  2  0
 19 18  1  0
 20 17  1  0
  5  4  2  0
 19 13  2  0
 20 12  2  0
  1 21  1  0
  4 22  1  0
  5 23  1  0
  8 24  1  0
  9 25  1  0
  9 26  1  0
 10 27  1  0
 11 28  1  0
 12 29  1  0
 13 30  1  0
 14 31  1  0
 14 32  1  0
 15 33  1  0
 15 34  1  0
 15 35  1  0
 16 36  1  0
 16 37  1  0
 17 38  1  0
 18 39  1  0
 19 40  1  0
 20 41  1  0
M  END
> <Uni-Dock RESULT> 
ENERGY=   -4.305  LOWER_BOUND=    2.540  UPPER_BOUND=    5.056
INTER + INTRA:          -4.305
INTER:                  -4.305
INTRA:                   0.000
UNBOUND:                 0.000

$$$$

     RDKit          3D

 41 43  0  0  0  0  0  0  0  0999 V2000
   49.6252  -16.1635   -9.2020 C   0  0  0  0  0  0  0  0  0  0  0  0
   50.7042  -16.5525   -8.1890 C   0  0  0  0  0  0  0  0  0  0  0  0
   48.2385  -16.4088   -8.6138 C   0  0  0  0  0  0  0  0  0  0  0  0
   49.9715  -14.6242   -6.6825 C   0  0  0  0  0  0  0  0  0  0  0  0
   48.6462  -14.5801   -6.8754 C   0  0  0  0  0  0  0  0  0  0  0  0
   50.8476  -15.7747   -7.0060 C   0  0  0  0  0  0  0  0  0  0  0  0
   47.8209  -15.6537   -7.4823 C   0  0  0  0  0  0  0  0  0  0  0  0
   49.1397  -19.7075  -12.7845 N   0  0  0  0  0  0  0  0  0  0  0  0
   49.8410  -16.5110  -10.7109 C   0  0  0  0  0  0  0  0  0  0  0  0
   51.5547  -17.6689   -8.3523 C   0  0  0  0  0  0  0  0  0  0  0  0
   47.3328  -17.3428   -9.1641 C   0  0  0  0  0  0  0  0  0  0  0  0
   51.8764  -16.0668   -6.0951 C   0  0  0  0  0  0  0  0  0  0  0  0
   46.5355  -15.8483   -6.9496 C   0  0  0  0  0  0  0  0  0  0  0  0
   49.1736  -18.2764  -12.4428 C   0  0  0  0  0  0  0  0  0  0  0  0
   50.4327  -20.1934  -13.2732 C   0  0  0  0  0  0  0  0  0  0  0  0
   49.9364  -17.9980  -11.1313 C   0  0  0  0  0  0  0  0  0  0  0  0
   52.5532  -17.9581   -7.4210 C   0  0  0  0  0  0  0  0  0  0  0  0
   46.0688  -17.5350   -8.6053 C   0  0  0  0  0  0  0  0  0  0  0  0
   45.6716  -16.7918   -7.4994 C   0  0  0  0  0  0  0  0  0  0  0  0
   52.7229  -17.1517   -6.3020 C   0  0  0  0  0  0  0  0  0  0  0  0
   49.6968  -15.0536   -9.2636 H   0  0  0  0  0  0  0  0  0  0  0  0
   50.4172  -13.7990   -6.1387 H   0  0  0  0  0  0  0  0  0  0  0  0
   48.1209  -13.7204   -6.4751 H   0  0  0  0  0  0  0  0  0  0  0  0
   48.8646  -20.2658  -11.9428 H   0  0  0  0  0  0  0  0  0  0  0  0
   49.0199  -16.0144  -11.2750 H   0  0  0  0  0  0  0  0  0  0  0  0
   50.7727  -16.0055  -11.0507 H   0  0  0  0  0  0  0  0  0  0  0  0
   51.4792  -18.3380   -9.1814 H   0  0  0  0  0  0  0  0  0  0  0  0
   47.5616  -17.9143  -10.0416 H   0  0  0  0  0  0  0  0  0  0  0  0
   52.0101  -15.4631   -5.2051 H   0  0  0  0  0  0  0  0  0  0  0  0
   46.2006  -15.2675   -6.0984 H   0  0  0  0  0  0  0  0  0  0  0  0
   49.6215  -17.6879  -13.2744 H   0  0  0  0  0  0  0  0  0  0  0  0
   48.1236  -17.9298  -12.3385 H   0  0  0  0  0  0  0  0  0  0  0  0
   50.3060  -21.2227  -13.6691 H   0  0  0  0  0  0  0  0  0  0  0  0
   51.1809  -20.2315  -12.4532 H   0  0  0  0  0  0  0  0  0  0  0  0
   50.8086  -19.5545  -14.1012 H   0  0  0  0  0  0  0  0  0  0  0  0
   51.0051  -18.2375  -11.3130 H   0  0  0  0  0  0  0  0  0  0  0  0
   49.5705  -18.6728  -10.3309 H   0  0  0  0  0  0  0  0  0  0  0  0
   53.2009  -18.8126   -7.5710 H   0  0  0  0  0  0  0  0  0  0  0  0
   45.3888  -18.2552   -9.0421 H   0  0  0  0  0  0  0  0  0  0  0  0
   44.6865  -16.9370   -7.0749 H   0  0  0  0  0  0  0  0  0  0  0  0
   53.5030  -17.3755   -5.5858 H   0  0  0  0  0  0  0  0  0  0  0  0
  2  1  1  0
  3  1  1  0
  4  6  1  0
  5  7  1  0
  6  2  2  0
  7  3  2  0
  8 14  1  0
  9  1  1  0
 10  2  1  0
 11  3  1  0
 12  6  1  0
 13  7  1  0
 14 16  1  0
 15  8  1  0
 16  9  1  0
 17 10  2  0
 18 11  2  0
 19 18  1  0
 20 17  1  0
  5  4  2  0
 19 13  2  0
 20 12  2  0
  1 21  1  0
  4 22  1  0
  5 23  1  0
  8 24  1  0
  9 25  1  0
  9 26  1  0
 10 27  1  0
 11 28  1  0
 12 29  1  0
 13 30  1  0
 14 31  1  0
 14 32  1  0
 15 33  1  0
 15 34  1  0
 15 35  1  0
 16 36  1  0
 16 37  1  0
 17 38  1  0
 18 39  1  0
 19 40  1  0
 20 41  1  0
M  END
> <Uni-Dock RESULT> 
ENERGY=   -4.262  LOWER_BOUND=    2.499  UPPER_BOUND=    4.642
INTER + INTRA:          -4.262
INTER:                  -4.262
INTRA:                   0.000
UNBOUND:                 0.000

$$$$

     RDKit          3D

 41 43  0  0  0  0  0  0  0  0999 V2000
   45.0303  -18.5670  -10.2348 C   0  0  0  0  0  0  0  0  0  0  0  0
   44.4259  -17.6040  -11.2591 C   0  0  0  0  0  0  0  0  0  0  0  0
   43.9732  -18.9817   -9.2151 C   0  0  0  0  0  0  0  0  0  0  0  0
   42.9542  -19.4916  -12.1511 C   0  0  0  0  0  0  0  0  0  0  0  0
   42.6746  -20.2000  -11.0486 C   0  0  0  0  0  0  0  0  0  0  0  0
   43.4498  -18.0952  -12.1706 C   0  0  0  0  0  0  0  0  0  0  0  0
   42.8466  -19.7342   -9.6503 C   0  0  0  0  0  0  0  0  0  0  0  0
   47.8525  -16.0760   -6.8495 N   0  0  0  0  0  0  0  0  0  0  0  0
   46.4777  -18.3020   -9.7067 C   0  0  0  0  0  0  0  0  0  0  0  0
   44.7667  -16.2346  -11.3311 C   0  0  0  0  0  0  0  0  0  0  0  0
   44.0780  -18.6709   -7.8412 C   0  0  0  0  0  0  0  0  0  0  0  0
   42.9325  -17.2504  -13.1667 C   0  0  0  0  0  0  0  0  0  0  0  0
   41.8816  -20.1481   -8.7168 C   0  0  0  0  0  0  0  0  0  0  0  0
   47.6856  -17.2656   -7.6996 C   0  0  0  0  0  0  0  0  0  0  0  0
   48.7127  -15.0652   -7.4701 C   0  0  0  0  0  0  0  0  0  0  0  0
   46.7576  -17.0078   -8.9046 C   0  0  0  0  0  0  0  0  0  0  0  0
   44.2201  -15.4053  -12.3117 C   0  0  0  0  0  0  0  0  0  0  0  0
   43.0964  -19.0740   -6.9351 C   0  0  0  0  0  0  0  0  0  0  0  0
   41.9995  -19.8086   -7.3716 C   0  0  0  0  0  0  0  0  0  0  0  0
   43.3154  -15.9144  -13.2357 C   0  0  0  0  0  0  0  0  0  0  0  0
   45.2211  -19.4981  -10.8157 H   0  0  0  0  0  0  0  0  0  0  0  0
   42.6839  -19.9353  -13.1026 H   0  0  0  0  0  0  0  0  0  0  0  0
   42.2017  -21.1649  -11.1928 H   0  0  0  0  0  0  0  0  0  0  0  0
   46.9175  -15.6489   -6.6511 H   0  0  0  0  0  0  0  0  0  0  0  0
   46.7645  -19.1889   -9.0984 H   0  0  0  0  0  0  0  0  0  0  0  0
   47.1695  -18.3130  -10.5787 H   0  0  0  0  0  0  0  0  0  0  0  0
   45.4474  -15.7708  -10.6513 H   0  0  0  0  0  0  0  0  0  0  0  0
   44.9197  -18.1463   -7.4349 H   0  0  0  0  0  0  0  0  0  0  0  0
   42.2089  -17.6233  -13.8821 H   0  0  0  0  0  0  0  0  0  0  0  0
   41.0280  -20.7355   -9.0338 H   0  0  0  0  0  0  0  0  0  0  0  0
   48.6746  -17.6328   -8.0543 H   0  0  0  0  0  0  0  0  0  0  0  0
   47.2549  -18.0725   -7.0695 H   0  0  0  0  0  0  0  0  0  0  0  0
   48.9367  -14.2740   -6.7243 H   0  0  0  0  0  0  0  0  0  0  0  0
   48.2067  -14.5868   -8.3354 H   0  0  0  0  0  0  0  0  0  0  0  0
   49.6780  -15.5110   -7.7932 H   0  0  0  0  0  0  0  0  0  0  0  0
   47.2774  -16.2916   -9.5751 H   0  0  0  0  0  0  0  0  0  0  0  0
   45.8181  -16.5285   -8.5621 H   0  0  0  0  0  0  0  0  0  0  0  0
   44.5029  -14.3612  -12.3555 H   0  0  0  0  0  0  0  0  0  0  0  0
   43.1952  -18.8264   -5.8859 H   0  0  0  0  0  0  0  0  0  0  0  0
   41.2452  -20.1277   -6.6639 H   0  0  0  0  0  0  0  0  0  0  0  0
   42.8992  -15.2694  -13.9988 H   0  0  0  0  0  0  0  0  0  0  0  0
  2  1  1  0
  3  1  1  0
  4  6  1  0
  5  7  1  0
  6  2  2  0
  7  3  2  0
  8 14  1  0
  9  1  1  0
 10  2  1  0
 11  3  1  0
 12  6  1  0
 13  7  1  0
 14 16  1  0
 15  8  1  0
 16  9  1  0
 17 10  2  0
 18 11  2  0
 19 18  1  0
 20 17  1  0
  5  4  2  0
 19 13  2  0
 20 12  2  0
  1 21  1  0
  4 22  1  0
  5 23  1  0
  8 24  1  0
  9 25  1  0
  9 26  1  0
 10 27  1  0
 11 28  1  0
 12 29  1  0
 13 30  1  0
 14 31  1  0
 14 32  1  0
 15 33  1  0
 15 34  1  0
 15 35  1  0
 16 36  1  0
 16 37  1  0
 17 38  1  0
 18 39  1  0
 19 40  1  0
 20 41  1  0
M  END
> <Uni-Dock RESULT> 
ENERGY=   -4.251  LOWER_BOUND=    4.253  UPPER_BOUND=    6.907
INTER + INTRA:          -4.251
INTER:                  -4.251
INTRA:                   0.000
UNBOUND:                 0.000

$$$$

     RDKit          3D

 41 43  0  0  0  0  0  0  0  0999 V2000
   49.0945  -19.1359   -7.8544 C   0  0  0  0  0  0  0  0  0  0  0  0
   48.2225  -17.9033   -7.6052 C   0  0  0  0  0  0  0  0  0  0  0  0
   49.9059  -19.4675   -6.6050 C   0  0  0  0  0  0  0  0  0  0  0  0
   46.8415  -19.2332   -5.9174 C   0  0  0  0  0  0  0  0  0  0  0  0
   47.7527  -20.0357   -5.3506 C   0  0  0  0  0  0  0  0  0  0  0  0
   47.1420  -18.0015   -6.6844 C   0  0  0  0  0  0  0  0  0  0  0  0
   49.2249  -19.8628   -5.4197 C   0  0  0  0  0  0  0  0  0  0  0  0
   53.1584  -17.9507  -10.6309 N   0  0  0  0  0  0  0  0  0  0  0  0
   49.8029  -19.2964   -9.2387 C   0  0  0  0  0  0  0  0  0  0  0  0
   48.4514  -16.6538   -8.2238 C   0  0  0  0  0  0  0  0  0  0  0  0
   51.3176  -19.4241   -6.5808 C   0  0  0  0  0  0  0  0  0  0  0  0
   46.2831  -16.9066   -6.4918 C   0  0  0  0  0  0  0  0  0  0  0  0
   49.9613  -20.1999   -4.2717 C   0  0  0  0  0  0  0  0  0  0  0  0
   52.0814  -18.9116  -10.3442 C   0  0  0  0  0  0  0  0  0  0  0  0
   52.8331  -17.0698  -11.7557 C   0  0  0  0  0  0  0  0  0  0  0  0
   50.8645  -18.2524   -9.6629 C   0  0  0  0  0  0  0  0  0  0  0  0
   47.6018  -15.5698   -7.9975 C   0  0  0  0  0  0  0  0  0  0  0  0
   52.0277  -19.7424   -5.4226 C   0  0  0  0  0  0  0  0  0  0  0  0
   51.3518  -20.1270   -4.2700 C   0  0  0  0  0  0  0  0  0  0  0  0
   46.5126  -15.6991   -7.1442 C   0  0  0  0  0  0  0  0  0  0  0  0
   48.3653  -19.9747   -7.9299 H   0  0  0  0  0  0  0  0  0  0  0  0
   45.8001  -19.4380   -5.6961 H   0  0  0  0  0  0  0  0  0  0  0  0
   47.3784  -20.8310   -4.7159 H   0  0  0  0  0  0  0  0  0  0  0  0
   53.3436  -17.3637   -9.7841 H   0  0  0  0  0  0  0  0  0  0  0  0
   50.2525  -20.3146   -9.2527 H   0  0  0  0  0  0  0  0  0  0  0  0
   49.0173  -19.3160  -10.0271 H   0  0  0  0  0  0  0  0  0  0  0  0
   49.2715  -16.4763   -8.8846 H   0  0  0  0  0  0  0  0  0  0  0  0
   51.8983  -19.1786   -7.4475 H   0  0  0  0  0  0  0  0  0  0  0  0
   45.4417  -16.9812   -5.8130 H   0  0  0  0  0  0  0  0  0  0  0  0
   49.4543  -20.5179   -3.3684 H   0  0  0  0  0  0  0  0  0  0  0  0
   51.7606  -19.4270  -11.2771 H   0  0  0  0  0  0  0  0  0  0  0  0
   52.4976  -19.6951   -9.6760 H   0  0  0  0  0  0  0  0  0  0  0  0
   53.7365  -16.4865  -12.0312 H   0  0  0  0  0  0  0  0  0  0  0  0
   52.0318  -16.3512  -11.4816 H   0  0  0  0  0  0  0  0  0  0  0  0
   52.5255  -17.6607  -12.6453 H   0  0  0  0  0  0  0  0  0  0  0  0
   50.3999  -17.5694  -10.4046 H   0  0  0  0  0  0  0  0  0  0  0  0
   51.2000  -17.6386   -8.8024 H   0  0  0  0  0  0  0  0  0  0  0  0
   47.7894  -14.6241   -8.4900 H   0  0  0  0  0  0  0  0  0  0  0  0
   53.1096  -19.7037   -5.4244 H   0  0  0  0  0  0  0  0  0  0  0  0
   51.9068  -20.3825   -3.3765 H   0  0  0  0  0  0  0  0  0  0  0  0
   45.8522  -14.8580   -6.9768 H   0  0  0  0  0  0  0  0  0  0  0  0
  2  1  1  0
  3  1  1  0
  4  6  1  0
  5  7  1  0
  6  2  2  0
  7  3  2  0
  8 14  1  0
  9  1  1  0
 10  2  1  0
 11  3  1  0
 12  6  1  0
 13  7  1  0
 14 16  1  0
 15  8  1  0
 16  9  1  0
 17 10  2  0
 18 11  2  0
 19 18  1  0
 20 17  1  0
  5  4  2  0
 19 13  2  0
 20 12  2  0
  1 21  1  0
  4 22  1  0
  5 23  1  0
  8 24  1  0
  9 25  1  0
  9 26  1  0
 10 27  1  0
 11 28  1  0
 12 29  1  0
 13 30  1  0
 14 31  1  0
 14 32  1  0
 15 33  1  0
 15 34  1  0
 15 35  1  0
 16 36  1  0
 16 37  1  0
 17 38  1  0
 18 39  1  0
 19 40  1  0
 20 41  1  0
M  END
> <Uni-Dock RESULT> 
ENERGY=   -4.180  LOWER_BOUND=    1.910  UPPER_BOUND=    4.612
INTER + INTRA:          -4.180
INTER:                  -4.180
INTRA:                   0.000
UNBOUND:                 0.000

$$$$

     RDKit          3D

 41 43  0  0  0  0  0  0  0  0999 V2000
   46.8279  -16.0307   -9.7395 C   0  0  0  0  0  0  0  0  0  0  0  0
   48.2261  -16.4147   -9.2503 C   0  0  0  0  0  0  0  0  0  0  0  0
   45.8283  -17.1300   -9.3909 C   0  0  0  0  0  0  0  0  0  0  0  0
   47.4238  -16.2186   -6.8332 C   0  0  0  0  0  0  0  0  0  0  0  0
   46.1559  -16.6465   -6.9026 C   0  0  0  0  0  0  0  0  0  0  0  0
   48.4716  -16.4723   -7.8498 C   0  0  0  0  0  0  0  0  0  0  0  0
   45.5589  -17.4149   -8.0230 C   0  0  0  0  0  0  0  0  0  0  0  0
   46.4039  -16.7167  -14.7374 N   0  0  0  0  0  0  0  0  0  0  0  0
   46.6763  -15.3317  -11.1296 C   0  0  0  0  0  0  0  0  0  0  0  0
   49.2884  -16.7458  -10.1211 C   0  0  0  0  0  0  0  0  0  0  0  0
   45.1328  -17.8663  -10.3755 C   0  0  0  0  0  0  0  0  0  0  0  0
   49.7640  -16.7518   -7.3753 C   0  0  0  0  0  0  0  0  0  0  0  0
   44.6185  -18.4037   -7.6885 C   0  0  0  0  0  0  0  0  0  0  0  0
   46.0967  -15.8855  -13.5625 C   0  0  0  0  0  0  0  0  0  0  0  0
   47.5739  -16.2296  -15.4728 C   0  0  0  0  0  0  0  0  0  0  0  0
   47.0938  -16.1026  -12.4057 C   0  0  0  0  0  0  0  0  0  0  0  0
   50.5588  -17.0477   -9.6279 C   0  0  0  0  0  0  0  0  0  0  0  0
   44.2188  -18.8590  -10.0203 C   0  0  0  0  0  0  0  0  0  0  0  0
   43.9638  -19.1291   -8.6804 C   0  0  0  0  0  0  0  0  0  0  0  0
   50.8000  -17.0378   -8.2593 C   0  0  0  0  0  0  0  0  0  0  0  0
   46.5324  -15.1822   -9.0811 H   0  0  0  0  0  0  0  0  0  0  0  0
   47.7355  -15.7524   -5.9054 H   0  0  0  0  0  0  0  0  0  0  0  0
   45.5373  -16.4910   -6.0260 H   0  0  0  0  0  0  0  0  0  0  0  0
   46.5804  -17.7037  -14.4363 H   0  0  0  0  0  0  0  0  0  0  0  0
   45.6127  -15.0146  -11.2149 H   0  0  0  0  0  0  0  0  0  0  0  0
   47.2596  -14.3840  -11.1037 H   0  0  0  0  0  0  0  0  0  0  0  0
   49.1771  -16.7821  -11.1827 H   0  0  0  0  0  0  0  0  0  0  0  0
   45.2516  -17.6762  -11.4237 H   0  0  0  0  0  0  0  0  0  0  0  0
   49.9663  -16.7710   -6.3109 H   0  0  0  0  0  0  0  0  0  0  0  0
   44.3932  -18.6180   -6.6505 H   0  0  0  0  0  0  0  0  0  0  0  0
   46.0701  -14.8089  -13.8433 H   0  0  0  0  0  0  0  0  0  0  0  0
   45.0735  -16.1497  -13.2209 H   0  0  0  0  0  0  0  0  0  0  0  0
   47.6574  -16.7867  -16.4293 H   0  0  0  0  0  0  0  0  0  0  0  0
   48.5075  -16.3988  -14.8954 H   0  0  0  0  0  0  0  0  0  0  0  0
   47.4677  -15.1505  -15.7159 H   0  0  0  0  0  0  0  0  0  0  0  0
   48.0777  -15.7111  -12.7391 H   0  0  0  0  0  0  0  0  0  0  0  0
   47.2117  -17.1872  -12.2071 H   0  0  0  0  0  0  0  0  0  0  0  0
   51.3614  -17.2884  -10.3134 H   0  0  0  0  0  0  0  0  0  0  0  0
   43.6954  -19.4118  -10.7898 H   0  0  0  0  0  0  0  0  0  0  0  0
   43.2467  -19.8933   -8.4091 H   0  0  0  0  0  0  0  0  0  0  0  0
   51.7883  -17.2657   -7.8814 H   0  0  0  0  0  0  0  0  0  0  0  0
  2  1  1  0
  3  1  1  0
  4  6  1  0
  5  7  1  0
  6  2  2  0
  7  3  2  0
  8 14  1  0
  9  1  1  0
 10  2  1  0
 11  3  1  0
 12  6  1  0
 13  7  1  0
 14 16  1  0
 15  8  1  0
 16  9  1  0
 17 10  2  0
 18 11  2  0
 19 18  1  0
 20 17  1  0
  5  4  2  0
 19 13  2  0
 20 12  2  0
  1 21  1  0
  4 22  1  0
  5 23  1  0
  8 24  1  0
  9 25  1  0
  9 26  1  0
 10 27  1  0
 11 28  1  0
 12 29  1  0
 13 30  1  0
 14 31  1  0
 14 32  1  0
 15 33  1  0
 15 34  1  0
 15 35  1  0
 16 36  1  0
 16 37  1  0
 17 38  1  0
 18 39  1  0
 19 40  1  0
 20 41  1  0
M  END
> <Uni-Dock RESULT> 
ENERGY=   -4.022  LOWER_BOUND=    3.107  UPPER_BOUND=    5.846
INTER + INTRA:          -4.022
INTER:                  -4.022
INTRA:                   0.000
UNBOUND:                 0.000

$$$$

     RDKit          3D

 41 43  0  0  0  0  0  0  0  0999 V2000
   46.4198  -16.3432   -9.8098 C   0  0  0  0  0  0  0  0  0  0  0  0
   47.8828  -16.5842  -10.1881 C   0  0  0  0  0  0  0  0  0  0  0  0
   46.0242  -17.2405   -8.6403 C   0  0  0  0  0  0  0  0  0  0  0  0
   48.6150  -15.5870   -7.9534 C   0  0  0  0  0  0  0  0  0  0  0  0
   47.6439  -15.9793   -7.1176 C   0  0  0  0  0  0  0  0  0  0  0  0
   48.9017  -16.1875   -9.2774 C   0  0  0  0  0  0  0  0  0  0  0  0
   46.6557  -17.0551   -7.3787 C   0  0  0  0  0  0  0  0  0  0  0  0
   43.3015  -18.6134  -13.0889 N   0  0  0  0  0  0  0  0  0  0  0  0
   45.3672  -16.1331  -10.9465 C   0  0  0  0  0  0  0  0  0  0  0  0
   48.2796  -17.2105  -11.3909 C   0  0  0  0  0  0  0  0  0  0  0  0
   45.0310  -18.2390   -8.7493 C   0  0  0  0  0  0  0  0  0  0  0  0
   50.2536  -16.3316   -9.6313 C   0  0  0  0  0  0  0  0  0  0  0  0
   46.2793  -17.8543   -6.2862 C   0  0  0  0  0  0  0  0  0  0  0  0
   43.5921  -17.4358  -12.2556 C   0  0  0  0  0  0  0  0  0  0  0  0
   43.7168  -18.4255  -14.4815 C   0  0  0  0  0  0  0  0  0  0  0  0
   45.0948  -17.2899  -11.9388 C   0  0  0  0  0  0  0  0  0  0  0  0
   49.6288  -17.3691  -11.7113 C   0  0  0  0  0  0  0  0  0  0  0  0
   44.6883  -19.0357   -7.6562 C   0  0  0  0  0  0  0  0  0  0  0  0
   45.3122  -18.8459   -6.4282 C   0  0  0  0  0  0  0  0  0  0  0  0
   50.6137  -16.9190  -10.8403 C   0  0  0  0  0  0  0  0  0  0  0  0
   46.4165  -15.3184   -9.3733 H   0  0  0  0  0  0  0  0  0  0  0  0
   49.3186  -14.8518   -7.5794 H   0  0  0  0  0  0  0  0  0  0  0  0
   47.6342  -15.5290   -6.1315 H   0  0  0  0  0  0  0  0  0  0  0  0
   43.7925  -19.4521  -12.6997 H   0  0  0  0  0  0  0  0  0  0  0  0
   44.4165  -15.8325  -10.4517 H   0  0  0  0  0  0  0  0  0  0  0  0
   45.6768  -15.2453  -11.5423 H   0  0  0  0  0  0  0  0  0  0  0  0
   47.5809  -17.5888  -12.1046 H   0  0  0  0  0  0  0  0  0  0  0  0
   44.4825  -18.4052   -9.6550 H   0  0  0  0  0  0  0  0  0  0  0  0
   51.0361  -16.0074   -8.9553 H   0  0  0  0  0  0  0  0  0  0  0  0
   46.7416  -17.7113   -5.3167 H   0  0  0  0  0  0  0  0  0  0  0  0
   43.2161  -16.5097  -12.7453 H   0  0  0  0  0  0  0  0  0  0  0  0
   43.0250  -17.5458  -11.3070 H   0  0  0  0  0  0  0  0  0  0  0  0
   43.3266  -19.2667  -15.0917 H   0  0  0  0  0  0  0  0  0  0  0  0
   44.8238  -18.4221  -14.5712 H   0  0  0  0  0  0  0  0  0  0  0  0
   43.2990  -17.4827  -14.8954 H   0  0  0  0  0  0  0  0  0  0  0  0
   45.6127  -17.0559  -12.8924 H   0  0  0  0  0  0  0  0  0  0  0  0
   45.4969  -18.2528  -11.5636 H   0  0  0  0  0  0  0  0  0  0  0  0
   49.9108  -17.8425  -12.6432 H   0  0  0  0  0  0  0  0  0  0  0  0
   43.9239  -19.7952   -7.7598 H   0  0  0  0  0  0  0  0  0  0  0  0
   45.0365  -19.4596   -5.5802 H   0  0  0  0  0  0  0  0  0  0  0  0
   51.6588  -17.0378  -11.0958 H   0  0  0  0  0  0  0  0  0  0  0  0
  2  1  1  0
  3  1  1  0
  4  6  1  0
  5  7  1  0
  6  2  2  0
  7  3  2  0
  8 14  1  0
  9  1  1  0
 10  2  1  0
 11  3  1  0
 12  6  1  0
 13  7  1  0
 14 16  1  0
 15  8  1  0
 16  9  1  0
 17 10  2  0
 18 11  2  0
 19 18  1  0
 20 17  1  0
  5  4  2  0
 19 13  2  0
 20 12  2  0
  1 21  1  0
  4 22  1  0
  5 23  1  0
  8 24  1  0
  9 25  1  0
  9 26  1  0
 10 27  1  0
 11 28  1  0
 12 29  1  0
 13 30  1  0
 14 31  1  0
 14 32  1  0
 15 33  1  0
 15 34  1  0
 15 35  1  0
 16 36  1  0
 16 37  1  0
 17 38  1  0
 18 39  1  0
 19 40  1  0
 20 41  1  0
M  END
> <Uni-Dock RESULT> 
ENERGY=   -3.997  LOWER_BOUND=    3.439  UPPER_BOUND=    6.696
INTER + INTRA:          -3.997
INTER:                  -3.997
INTRA:                   0.000
UNBOUND:                 0.000

$$$$
