
     RDKit          3D

 41 43  0  0  0  0  0  0  0  0999 V2000
   50.1453  -17.2551   -7.9192 C   0  0  0  0  0  0  0  0  0  0  0  0
   51.0461  -16.6412   -6.8608 C   0  0  0  0  0  0  0  0  0  0  0  0
   48.7417  -17.3288   -7.3457 C   0  0  0  0  0  0  0  0  0  0  0  0
   49.8610  -14.4075   -7.1734 C   0  0  0  0  0  0  0  0  0  0  0  0
   48.5944  -14.7833   -7.4212 C   0  0  0  0  0  0  0  0  0  0  0  0
   50.9014  -15.2647   -6.5504 C   0  0  0  0  0  0  0  0  0  0  0  0
   48.0216  -16.1241   -7.1316 C   0  0  0  0  0  0  0  0  0  0  0  0
   50.8666  -17.8692  -11.4660 N   0  0  0  0  0  0  0  0  0  0  0  0
   50.6545  -18.5695   -8.5759 C   0  0  0  0  0  0  0  0  0  0  0  0
   51.9691  -17.4098   -6.1188 C   0  0  0  0  0  0  0  0  0  0  0  0
   48.1433  -18.5536   -6.9778 C   0  0  0  0  0  0  0  0  0  0  0  0
   51.7680  -14.6696   -5.6193 C   0  0  0  0  0  0  0  0  0  0  0  0
   46.7018  -16.1825   -6.6555 C   0  0  0  0  0  0  0  0  0  0  0  0
   51.9430  -17.4838  -10.5455 C   0  0  0  0  0  0  0  0  0  0  0  0
   50.7529  -16.8943  -12.5515 C   0  0  0  0  0  0  0  0  0  0  0  0
   51.9933  -18.4271   -9.3338 C   0  0  0  0  0  0  0  0  0  0  0  0
   52.8022  -16.8056   -5.1758 C   0  0  0  0  0  0  0  0  0  0  0  0
   46.8398  -18.5868   -6.4798 C   0  0  0  0  0  0  0  0  0  0  0  0
   46.1164  -17.4058   -6.3306 C   0  0  0  0  0  0  0  0  0  0  0  0
   52.7142  -15.4358   -4.9393 C   0  0  0  0  0  0  0  0  0  0  0  0
   50.0834  -16.5381   -8.7642 H   0  0  0  0  0  0  0  0  0  0  0  0
   50.1083  -13.3648   -7.3358 H   0  0  0  0  0  0  0  0  0  0  0  0
   47.9108  -14.0168   -7.7675 H   0  0  0  0  0  0  0  0  0  0  0  0
   51.1197  -18.7904  -11.8950 H   0  0  0  0  0  0  0  0  0  0  0  0
   49.8828  -18.9378   -9.2865 H   0  0  0  0  0  0  0  0  0  0  0  0
   50.7758  -19.3672   -7.8153 H   0  0  0  0  0  0  0  0  0  0  0  0
   52.0667  -18.4747   -6.2647 H   0  0  0  0  0  0  0  0  0  0  0  0
   48.6666  -19.4928   -7.0773 H   0  0  0  0  0  0  0  0  0  0  0  0
   51.6899  -13.6125   -5.3951 H   0  0  0  0  0  0  0  0  0  0  0  0
   46.1300  -15.2733   -6.5128 H   0  0  0  0  0  0  0  0  0  0  0  0
   51.8063  -16.4374  -10.1961 H   0  0  0  0  0  0  0  0  0  0  0  0
   52.9251  -17.5315  -11.0683 H   0  0  0  0  0  0  0  0  0  0  0  0
   49.9562  -17.2181  -13.2540 H   0  0  0  0  0  0  0  0  0  0  0  0
   50.4692  -15.8987  -12.1471 H   0  0  0  0  0  0  0  0  0  0  0  0
   51.7089  -16.8130  -13.1146 H   0  0  0  0  0  0  0  0  0  0  0  0
   52.7896  -18.0778   -8.6443 H   0  0  0  0  0  0  0  0  0  0  0  0
   52.2980  -19.4357   -9.6889 H   0  0  0  0  0  0  0  0  0  0  0  0
   53.5201  -17.4023   -4.6280 H   0  0  0  0  0  0  0  0  0  0  0  0
   46.3874  -19.5332   -6.2127 H   0  0  0  0  0  0  0  0  0  0  0  0
   45.1032  -17.4368   -5.9510 H   0  0  0  0  0  0  0  0  0  0  0  0
   53.3661  -14.9697   -4.2116 H   0  0  0  0  0  0  0  0  0  0  0  0
  2  1  1  0
  3  1  1  0
  4  6  1  0
  5  7  1  0
  6  2  2  0
  7  3  2  0
  8 14  1  0
  9  1  1  0
 10  2  1  0
 11  3  1  0
 12  6  1  0
 13  7  1  0
 14 16  1  0
 15  8  1  0
 16  9  1  0
 17 10  2  0
 18 11  2  0
 19 18  1  0
 20 17  1  0
  5  4  2  0
 19 13  2  0
 20 12  2  0
  1 21  1  0
  4 22  1  0
  5 23  1  0
  8 24  1  0
  9 25  1  0
  9 26  1  0
 10 27  1  0
 11 28  1  0
 12 29  1  0
 13 30  1  0
 14 31  1  0
 14 32  1  0
 15 33  1  0
 15 34  1  0
 15 35  1  0
 16 36  1  0
 16 37  1  0
 17 38  1  0
 18 39  1  0
 19 40  1  0
 20 41  1  0
M  END
> <Uni-Dock RESULT> 
ENERGY=   -6.184  LOWER_BOUND=    0.000  UPPER_BOUND=    0.000
INTER + INTRA:          -6.184
INTER:                  -6.184
INTRA:                   0.000
UNBOUND:                 0.000

$$$$

     RDKit          3D

 41 43  0  0  0  0  0  0  0  0999 V2000
   50.1499  -17.1855   -7.9332 C   0  0  0  0  0  0  0  0  0  0  0  0
   51.0734  -16.6395   -6.8572 C   0  0  0  0  0  0  0  0  0  0  0  0
   48.7419  -17.2082   -7.3661 C   0  0  0  0  0  0  0  0  0  0  0  0
   49.9938  -14.3466   -7.1195 C   0  0  0  0  0  0  0  0  0  0  0  0
   48.7123  -14.6575   -7.3804 C   0  0  0  0  0  0  0  0  0  0  0  0
   50.9909  -15.2656   -6.5140 C   0  0  0  0  0  0  0  0  0  0  0  0
   48.0772  -15.9770   -7.1253 C   0  0  0  0  0  0  0  0  0  0  0  0
   50.8577  -17.7467  -11.4914 N   0  0  0  0  0  0  0  0  0  0  0  0
   50.6009  -18.5058   -8.6198 C   0  0  0  0  0  0  0  0  0  0  0  0
   51.9568  -17.4675   -6.1311 C   0  0  0  0  0  0  0  0  0  0  0  0
   48.0862  -18.4126   -7.0300 C   0  0  0  0  0  0  0  0  0  0  0  0
   51.8799  -14.7338   -5.5660 C   0  0  0  0  0  0  0  0  0  0  0  0
   46.7540  -15.9860   -6.6550 C   0  0  0  0  0  0  0  0  0  0  0  0
   51.9467  -17.4336  -10.5583 C   0  0  0  0  0  0  0  0  0  0  0  0
   50.7937  -16.7418  -12.5533 C   0  0  0  0  0  0  0  0  0  0  0  0
   51.9482  -18.4071   -9.3697 C   0  0  0  0  0  0  0  0  0  0  0  0
   52.8126  -16.9252   -5.1710 C   0  0  0  0  0  0  0  0  0  0  0  0
   46.7803  -18.3976   -6.5373 C   0  0  0  0  0  0  0  0  0  0  0  0
   46.1115  -17.1884   -6.3619 C   0  0  0  0  0  0  0  0  0  0  0  0
   52.7868  -15.5589   -4.9016 C   0  0  0  0  0  0  0  0  0  0  0  0
   50.1248  -16.4463   -8.7608 H   0  0  0  0  0  0  0  0  0  0  0  0
   50.2895  -13.3129   -7.2558 H   0  0  0  0  0  0  0  0  0  0  0  0
   48.0662  -13.8521   -7.7103 H   0  0  0  0  0  0  0  0  0  0  0  0
   51.0700  -18.6680  -11.9418 H   0  0  0  0  0  0  0  0  0  0  0  0
   49.8163  -18.8209   -9.3417 H   0  0  0  0  0  0  0  0  0  0  0  0
   50.6821  -19.3263   -7.8785 H   0  0  0  0  0  0  0  0  0  0  0  0
   52.0059  -18.5319   -6.3024 H   0  0  0  0  0  0  0  0  0  0  0  0
   48.5661  -19.3722   -7.1506 H   0  0  0  0  0  0  0  0  0  0  0  0
   51.8495  -13.6799   -5.3164 H   0  0  0  0  0  0  0  0  0  0  0  0
   46.2239  -15.0551   -6.4922 H   0  0  0  0  0  0  0  0  0  0  0  0
   51.8568  -16.3907  -10.1841 H   0  0  0  0  0  0  0  0  0  0  0  0
   52.9279  -17.5140  -11.0790 H   0  0  0  0  0  0  0  0  0  0  0  0
   49.9861  -17.0114  -13.2661 H   0  0  0  0  0  0  0  0  0  0  0  0
   50.5544  -15.7442  -12.1258 H   0  0  0  0  0  0  0  0  0  0  0  0
   51.7550  -16.6911  -13.1111 H   0  0  0  0  0  0  0  0  0  0  0  0
   52.7567  -18.1117   -8.6693 H   0  0  0  0  0  0  0  0  0  0  0  0
   52.2077  -19.4199   -9.7481 H   0  0  0  0  0  0  0  0  0  0  0  0
   53.5000  -17.5674   -4.6354 H   0  0  0  0  0  0  0  0  0  0  0  0
   46.2837  -19.3283   -6.2947 H   0  0  0  0  0  0  0  0  0  0  0  0
   45.0962  -17.1818   -5.9864 H   0  0  0  0  0  0  0  0  0  0  0  0
   53.4562  -15.1410   -4.1608 H   0  0  0  0  0  0  0  0  0  0  0  0
  2  1  1  0
  3  1  1  0
  4  6  1  0
  5  7  1  0
  6  2  2  0
  7  3  2  0
  8 14  1  0
  9  1  1  0
 10  2  1  0
 11  3  1  0
 12  6  1  0
 13  7  1  0
 14 16  1  0
 15  8  1  0
 16  9  1  0
 17 10  2  0
 18 11  2  0
 19 18  1  0
 20 17  1  0
  5  4  2  0
 19 13  2  0
 20 12  2  0
  1 21  1  0
  4 22  1  0
  5 23  1  0
  8 24  1  0
  9 25  1  0
  9 26  1  0
 10 27  1  0
 11 28  1  0
 12 29  1  0
 13 30  1  0
 14 31  1  0
 14 32  1  0
 15 33  1  0
 15 34  1  0
 15 35  1  0
 16 36  1  0
 16 37  1  0
 17 38  1  0
 18 39  1  0
 19 40  1  0
 20 41  1  0
M  END
> <Uni-Dock RESULT> 
ENERGY=   -6.168  LOWER_BOUND=    0.139  UPPER_BOUND=    0.139
INTER + INTRA:          -6.168
INTER:                  -6.168
INTRA:                   0.000
UNBOUND:                 0.000

$$$$

     RDKit          3D

 41 43  0  0  0  0  0  0  0  0999 V2000
   49.7525  -16.8681   -7.8846 C   0  0  0  0  0  0  0  0  0  0  0  0
   48.5525  -17.5083   -7.2074 C   0  0  0  0  0  0  0  0  0  0  0  0
   50.7646  -16.5267   -6.8060 C   0  0  0  0  0  0  0  0  0  0  0  0
   49.9714  -19.5546   -6.6679 C   0  0  0  0  0  0  0  0  0  0  0  0
   51.1796  -19.0154   -6.4301 C   0  0  0  0  0  0  0  0  0  0  0  0
   48.6862  -18.8107   -6.6614 C   0  0  0  0  0  0  0  0  0  0  0  0
   51.4401  -17.5815   -6.1375 C   0  0  0  0  0  0  0  0  0  0  0  0
   50.5500  -16.7126  -11.4647 N   0  0  0  0  0  0  0  0  0  0  0  0
   49.4441  -15.7155   -8.8819 C   0  0  0  0  0  0  0  0  0  0  0  0
   47.3311  -16.8223   -7.0324 C   0  0  0  0  0  0  0  0  0  0  0  0
   51.0264  -15.1955   -6.4149 C   0  0  0  0  0  0  0  0  0  0  0  0
   47.5692  -19.4394   -6.0876 C   0  0  0  0  0  0  0  0  0  0  0  0
   52.4197  -17.2772   -5.1785 C   0  0  0  0  0  0  0  0  0  0  0  0
   49.2281  -17.1680  -11.0178 C   0  0  0  0  0  0  0  0  0  0  0  0
   51.2094  -17.7578  -12.2484 C   0  0  0  0  0  0  0  0  0  0  0  0
   48.5753  -16.1321  -10.0897 C   0  0  0  0  0  0  0  0  0  0  0  0
   46.2402  -17.4537   -6.4328 C   0  0  0  0  0  0  0  0  0  0  0  0
   51.9846  -14.9165   -5.4391 C   0  0  0  0  0  0  0  0  0  0  0  0
   52.6883  -15.9536   -4.8312 C   0  0  0  0  0  0  0  0  0  0  0  0
   46.3535  -18.7652   -5.9775 C   0  0  0  0  0  0  0  0  0  0  0  0
   50.2377  -17.6446   -8.5120 H   0  0  0  0  0  0  0  0  0  0  0  0
   49.9204  -20.6335   -6.7580 H   0  0  0  0  0  0  0  0  0  0  0  0
   52.0173  -19.6982   -6.3470 H   0  0  0  0  0  0  0  0  0  0  0  0
   50.4139  -15.8859  -12.0931 H   0  0  0  0  0  0  0  0  0  0  0  0
   50.4042  -15.3034   -9.2618 H   0  0  0  0  0  0  0  0  0  0  0  0
   48.9333  -14.8768   -8.3670 H   0  0  0  0  0  0  0  0  0  0  0  0
   47.2005  -15.8036   -7.3641 H   0  0  0  0  0  0  0  0  0  0  0  0
   50.5054  -14.3610   -6.8598 H   0  0  0  0  0  0  0  0  0  0  0  0
   47.6482  -20.4459   -5.6945 H   0  0  0  0  0  0  0  0  0  0  0  0
   52.9631  -18.0707   -4.6793 H   0  0  0  0  0  0  0  0  0  0  0  0
   49.3056  -18.1432  -10.4896 H   0  0  0  0  0  0  0  0  0  0  0  0
   48.5618  -17.3208  -11.8969 H   0  0  0  0  0  0  0  0  0  0  0  0
   52.1930  -17.3849  -12.6041 H   0  0  0  0  0  0  0  0  0  0  0  0
   51.3908  -18.6553  -11.6185 H   0  0  0  0  0  0  0  0  0  0  0  0
   50.5964  -18.0374  -13.1337 H   0  0  0  0  0  0  0  0  0  0  0  0
   47.6001  -16.5314   -9.7417 H   0  0  0  0  0  0  0  0  0  0  0  0
   48.3528  -15.2204  -10.6858 H   0  0  0  0  0  0  0  0  0  0  0  0
   45.3026  -16.9240   -6.3229 H   0  0  0  0  0  0  0  0  0  0  0  0
   52.1851  -13.8910   -5.1564 H   0  0  0  0  0  0  0  0  0  0  0  0
   53.4357  -15.7323   -4.0802 H   0  0  0  0  0  0  0  0  0  0  0  0
   45.5036  -19.2536   -5.5185 H   0  0  0  0  0  0  0  0  0  0  0  0
  2  1  1  0
  3  1  1  0
  4  6  1  0
  5  7  1  0
  6  2  2  0
  7  3  2  0
  8 14  1  0
  9  1  1  0
 10  2  1  0
 11  3  1  0
 12  6  1  0
 13  7  1  0
 14 16  1  0
 15  8  1  0
 16  9  1  0
 17 10  2  0
 18 11  2  0
 19 18  1  0
 20 17  1  0
  5  4  2  0
 19 13  2  0
 20 12  2  0
  1 21  1  0
  4 22  1  0
  5 23  1  0
  8 24  1  0
  9 25  1  0
  9 26  1  0
 10 27  1  0
 11 28  1  0
 12 29  1  0
 13 30  1  0
 14 31  1  0
 14 32  1  0
 15 33  1  0
 15 34  1  0
 15 35  1  0
 16 36  1  0
 16 37  1  0
 17 38  1  0
 18 39  1  0
 19 40  1  0
 20 41  1  0
M  END
> <Uni-Dock RESULT> 
ENERGY=   -5.409  LOWER_BOUND=    1.267  UPPER_BOUND=    4.690
INTER + INTRA:          -5.409
INTER:                  -5.409
INTRA:                   0.000
UNBOUND:                 0.000

$$$$

     RDKit          3D

 41 43  0  0  0  0  0  0  0  0999 V2000
   48.0684  -17.3187   -8.2863 C   0  0  0  0  0  0  0  0  0  0  0  0
   47.5194  -18.2221   -7.1951 C   0  0  0  0  0  0  0  0  0  0  0  0
   48.9908  -16.3078   -7.6292 C   0  0  0  0  0  0  0  0  0  0  0  0
   49.8385  -19.2319   -6.8892 C   0  0  0  0  0  0  0  0  0  0  0  0
   50.6447  -18.1790   -7.1092 C   0  0  0  0  0  0  0  0  0  0  0  0
   48.3911  -19.1488   -6.5677 C   0  0  0  0  0  0  0  0  0  0  0  0
   50.2247  -16.7533   -7.0863 C   0  0  0  0  0  0  0  0  0  0  0  0
   47.8794  -17.7485  -11.9273 N   0  0  0  0  0  0  0  0  0  0  0  0
   47.0239  -16.7124   -9.2659 C   0  0  0  0  0  0  0  0  0  0  0  0
   46.1911  -18.1181   -6.7281 C   0  0  0  0  0  0  0  0  0  0  0  0
   48.6439  -14.9451   -7.5017 C   0  0  0  0  0  0  0  0  0  0  0  0
   47.8837  -20.0324   -5.6014 C   0  0  0  0  0  0  0  0  0  0  0  0
   51.1117  -15.8191   -6.5272 C   0  0  0  0  0  0  0  0  0  0  0  0
   47.0863  -18.6043  -11.0367 C   0  0  0  0  0  0  0  0  0  0  0  0
   48.7765  -18.5626  -12.7482 C   0  0  0  0  0  0  0  0  0  0  0  0
   46.2309  -17.7586  -10.0808 C   0  0  0  0  0  0  0  0  0  0  0  0
   45.7127  -18.9862   -5.7452 C   0  0  0  0  0  0  0  0  0  0  0  0
   49.5289  -14.0378   -6.9171 C   0  0  0  0  0  0  0  0  0  0  0  0
   50.7646  -14.4712   -6.4422 C   0  0  0  0  0  0  0  0  0  0  0  0
   46.5518  -19.9527   -5.1958 C   0  0  0  0  0  0  0  0  0  0  0  0
   48.7211  -17.9370   -8.9372 H   0  0  0  0  0  0  0  0  0  0  0  0
   50.3053  -20.2083   -6.8296 H   0  0  0  0  0  0  0  0  0  0  0  0
   51.7044  -18.3818   -7.2129 H   0  0  0  0  0  0  0  0  0  0  0  0
   47.2211  -17.2544  -12.5748 H   0  0  0  0  0  0  0  0  0  0  0  0
   47.5478  -16.0347   -9.9746 H   0  0  0  0  0  0  0  0  0  0  0  0
   46.2944  -16.0802   -8.7204 H   0  0  0  0  0  0  0  0  0  0  0  0
   45.5082  -17.3804   -7.1208 H   0  0  0  0  0  0  0  0  0  0  0  0
   47.6974  -14.5654   -7.8565 H   0  0  0  0  0  0  0  0  0  0  0  0
   48.5305  -20.7665   -5.1361 H   0  0  0  0  0  0  0  0  0  0  0  0
   52.0689  -16.1398   -6.1334 H   0  0  0  0  0  0  0  0  0  0  0  0
   47.7461  -19.2776  -10.4474 H   0  0  0  0  0  0  0  0  0  0  0  0
   46.4067  -19.2507  -11.6370 H   0  0  0  0  0  0  0  0  0  0  0  0
   49.3448  -17.9023  -13.4368 H   0  0  0  0  0  0  0  0  0  0  0  0
   49.5081  -19.0976  -12.1050 H   0  0  0  0  0  0  0  0  0  0  0  0
   48.2027  -19.2968  -13.3559 H   0  0  0  0  0  0  0  0  0  0  0  0
   45.6810  -18.4398   -9.3989 H   0  0  0  0  0  0  0  0  0  0  0  0
   45.4651  -17.2206  -10.6809 H   0  0  0  0  0  0  0  0  0  0  0  0
   44.6862  -18.9099   -5.4102 H   0  0  0  0  0  0  0  0  0  0  0  0
   49.2566  -12.9933   -6.8360 H   0  0  0  0  0  0  0  0  0  0  0  0
   51.4509  -13.7629   -5.9962 H   0  0  0  0  0  0  0  0  0  0  0  0
   46.1756  -20.6281   -4.4383 H   0  0  0  0  0  0  0  0  0  0  0  0
  2  1  1  0
  3  1  1  0
  4  6  1  0
  5  7  1  0
  6  2  2  0
  7  3  2  0
  8 14  1  0
  9  1  1  0
 10  2  1  0
 11  3  1  0
 12  6  1  0
 13  7  1  0
 14 16  1  0
 15  8  1  0
 16  9  1  0
 17 10  2  0
 18 11  2  0
 19 18  1  0
 20 17  1  0
  5  4  2  0
 19 13  2  0
 20 12  2  0
  1 21  1  0
  4 22  1  0
  5 23  1  0
  8 24  1  0
  9 25  1  0
  9 26  1  0
 10 27  1  0
 11 28  1  0
 12 29  1  0
 13 30  1  0
 14 31  1  0
 14 32  1  0
 15 33  1  0
 15 34  1  0
 15 35  1  0
 16 36  1  0
 16 37  1  0
 17 38  1  0
 18 39  1  0
 19 40  1  0
 20 41  1  0
M  END
> <Uni-Dock RESULT> 
ENERGY=   -4.879  LOWER_BOUND=    1.928  UPPER_BOUND=    4.807
INTER + INTRA:          -4.879
INTER:                  -4.879
INTRA:                   0.000
UNBOUND:                 0.000

$$$$

     RDKit          3D

 41 43  0  0  0  0  0  0  0  0999 V2000
   49.0875  -16.7670   -8.1270 C   0  0  0  0  0  0  0  0  0  0  0  0
   50.1486  -16.2110   -7.1923 C   0  0  0  0  0  0  0  0  0  0  0  0
   49.7690  -17.1378   -9.4318 C   0  0  0  0  0  0  0  0  0  0  0  0
   51.1766  -18.5348   -7.0063 C   0  0  0  0  0  0  0  0  0  0  0  0
   50.9850  -19.0364   -8.2386 C   0  0  0  0  0  0  0  0  0  0  0  0
   51.1168  -17.0945   -6.6499 C   0  0  0  0  0  0  0  0  0  0  0  0
   50.6635  -18.2401   -9.4520 C   0  0  0  0  0  0  0  0  0  0  0  0
   45.6370  -17.7502   -7.3495 N   0  0  0  0  0  0  0  0  0  0  0  0
   47.7949  -15.9164   -8.2817 C   0  0  0  0  0  0  0  0  0  0  0  0
   50.2532  -14.8325   -6.9061 C   0  0  0  0  0  0  0  0  0  0  0  0
   49.5758  -16.3966  -10.6179 C   0  0  0  0  0  0  0  0  0  0  0  0
   52.0654  -16.6065   -5.7366 C   0  0  0  0  0  0  0  0  0  0  0  0
   51.2557  -18.6281  -10.6647 C   0  0  0  0  0  0  0  0  0  0  0  0
   46.4389  -17.0142   -6.3647 C   0  0  0  0  0  0  0  0  0  0  0  0
   45.2093  -19.0363   -6.7976 C   0  0  0  0  0  0  0  0  0  0  0  0
   47.0003  -15.7191   -6.9714 C   0  0  0  0  0  0  0  0  0  0  0  0
   51.2219  -14.3620   -6.0181 C   0  0  0  0  0  0  0  0  0  0  0  0
   50.1965  -16.7831  -11.8069 C   0  0  0  0  0  0  0  0  0  0  0  0
   51.0244  -17.9030  -11.8332 C   0  0  0  0  0  0  0  0  0  0  0  0
   52.1145  -15.2490   -5.4210 C   0  0  0  0  0  0  0  0  0  0  0  0
   48.7296  -17.7253   -7.6962 H   0  0  0  0  0  0  0  0  0  0  0  0
   51.5124  -19.2228   -6.2390 H   0  0  0  0  0  0  0  0  0  0  0  0
   51.1786  -20.0938   -8.3769 H   0  0  0  0  0  0  0  0  0  0  0  0
   44.7746  -17.1909   -7.5501 H   0  0  0  0  0  0  0  0  0  0  0  0
   47.1313  -16.4049   -9.0280 H   0  0  0  0  0  0  0  0  0  0  0  0
   48.0312  -14.9138   -8.6920 H   0  0  0  0  0  0  0  0  0  0  0  0
   49.5870  -14.1091   -7.3507 H   0  0  0  0  0  0  0  0  0  0  0  0
   48.9422  -15.5227  -10.6436 H   0  0  0  0  0  0  0  0  0  0  0  0
   52.7915  -17.2753   -5.2902 H   0  0  0  0  0  0  0  0  0  0  0  0
   51.9193  -19.4838  -10.7015 H   0  0  0  0  0  0  0  0  0  0  0  0
   47.2763  -17.6424   -5.9905 H   0  0  0  0  0  0  0  0  0  0  0  0
   45.8093  -16.7461   -5.4862 H   0  0  0  0  0  0  0  0  0  0  0  0
   44.5787  -19.5646   -7.5433 H   0  0  0  0  0  0  0  0  0  0  0  0
   46.0924  -19.6756   -6.5813 H   0  0  0  0  0  0  0  0  0  0  0  0
   44.6132  -18.8921   -5.8694 H   0  0  0  0  0  0  0  0  0  0  0  0
   47.6326  -15.2154   -6.2111 H   0  0  0  0  0  0  0  0  0  0  0  0
   46.1496  -15.0353   -7.1832 H   0  0  0  0  0  0  0  0  0  0  0  0
   51.2789  -13.3052   -5.7909 H   0  0  0  0  0  0  0  0  0  0  0  0
   50.0309  -16.2139  -12.7126 H   0  0  0  0  0  0  0  0  0  0  0  0
   51.4979  -18.2034  -12.7591 H   0  0  0  0  0  0  0  0  0  0  0  0
   52.8605  -14.8812   -4.7283 H   0  0  0  0  0  0  0  0  0  0  0  0
  2  1  1  0
  3  1  1  0
  4  6  1  0
  5  7  1  0
  6  2  2  0
  7  3  2  0
  8 14  1  0
  9  1  1  0
 10  2  1  0
 11  3  1  0
 12  6  1  0
 13  7  1  0
 14 16  1  0
 15  8  1  0
 16  9  1  0
 17 10  2  0
 18 11  2  0
 19 18  1  0
 20 17  1  0
  5  4  2  0
 19 13  2  0
 20 12  2  0
  1 21  1  0
  4 22  1  0
  5 23  1  0
  8 24  1  0
  9 25  1  0
  9 26  1  0
 10 27  1  0
 11 28  1  0
 12 29  1  0
 13 30  1  0
 14 31  1  0
 14 32  1  0
 15 33  1  0
 15 34  1  0
 15 35  1  0
 16 36  1  0
 16 37  1  0
 17 38  1  0
 18 39  1  0
 19 40  1  0
 20 41  1  0
M  END
> <Uni-Dock RESULT> 
ENERGY=   -4.835  LOWER_BOUND=    1.872  UPPER_BOUND=    4.845
INTER + INTRA:          -4.835
INTER:                  -4.835
INTRA:                   0.000
UNBOUND:                 0.000

$$$$

     RDKit          3D

 41 43  0  0  0  0  0  0  0  0999 V2000
   47.3397  -16.6314  -10.7471 C   0  0  0  0  0  0  0  0  0  0  0  0
   46.1650  -16.0016  -11.4766 C   0  0  0  0  0  0  0  0  0  0  0  0
   47.0631  -16.5373   -9.2575 C   0  0  0  0  0  0  0  0  0  0  0  0
   44.6902  -17.9451  -10.7421 C   0  0  0  0  0  0  0  0  0  0  0  0
   45.1702  -18.2272   -9.5185 C   0  0  0  0  0  0  0  0  0  0  0  0
   44.9167  -16.6754  -11.4782 C   0  0  0  0  0  0  0  0  0  0  0  0
   46.0233  -17.3266   -8.6995 C   0  0  0  0  0  0  0  0  0  0  0  0
   50.0756  -18.6536  -12.1263 N   0  0  0  0  0  0  0  0  0  0  0  0
   48.7541  -16.1535  -11.1822 C   0  0  0  0  0  0  0  0  0  0  0  0
   46.2502  -14.7314  -12.0869 C   0  0  0  0  0  0  0  0  0  0  0  0
   47.7778  -15.6589   -8.4142 C   0  0  0  0  0  0  0  0  0  0  0  0
   43.8394  -16.1363  -12.1997 C   0  0  0  0  0  0  0  0  0  0  0  0
   45.7956  -17.2914   -7.3142 C   0  0  0  0  0  0  0  0  0  0  0  0
   49.1599  -17.9351  -13.0206 C   0  0  0  0  0  0  0  0  0  0  0  0
   50.0330  -20.0900  -12.4026 C   0  0  0  0  0  0  0  0  0  0  0  0
   49.0987  -16.4428  -12.6603 C   0  0  0  0  0  0  0  0  0  0  0  0
   45.1590  -14.1982  -12.7749 C   0  0  0  0  0  0  0  0  0  0  0  0
   47.5163  -15.6192   -7.0436 C   0  0  0  0  0  0  0  0  0  0  0  0
   46.5365  -16.4420   -6.4931 C   0  0  0  0  0  0  0  0  0  0  0  0
   43.9620  -14.9068  -12.8463 C   0  0  0  0  0  0  0  0  0  0  0  0
   47.3379  -17.7163  -10.9816 H   0  0  0  0  0  0  0  0  0  0  0  0
   43.9916  -18.6520  -11.1744 H   0  0  0  0  0  0  0  0  0  0  0  0
   44.8253  -19.1428   -9.0520 H   0  0  0  0  0  0  0  0  0  0  0  0
   51.0495  -18.3233  -12.3244 H   0  0  0  0  0  0  0  0  0  0  0  0
   49.5136  -16.6481  -10.5383 H   0  0  0  0  0  0  0  0  0  0  0  0
   48.8705  -15.0642  -11.0114 H   0  0  0  0  0  0  0  0  0  0  0  0
   47.1556  -14.1449  -12.0513 H   0  0  0  0  0  0  0  0  0  0  0  0
   48.5460  -15.0044   -8.7977 H   0  0  0  0  0  0  0  0  0  0  0  0
   42.8890  -16.6552  -12.2358 H   0  0  0  0  0  0  0  0  0  0  0  0
   45.0237  -17.9084   -6.8698 H   0  0  0  0  0  0  0  0  0  0  0  0
   48.1385  -18.3713  -12.9712 H   0  0  0  0  0  0  0  0  0  0  0  0
   49.5076  -18.0277  -14.0745 H   0  0  0  0  0  0  0  0  0  0  0  0
   50.7539  -20.6132  -11.7396 H   0  0  0  0  0  0  0  0  0  0  0  0
   49.0189  -20.4930  -12.1918 H   0  0  0  0  0  0  0  0  0  0  0  0
   50.3087  -20.2999  -13.4598 H   0  0  0  0  0  0  0  0  0  0  0  0
   48.3667  -15.9453  -13.3297 H   0  0  0  0  0  0  0  0  0  0  0  0
   50.0904  -15.9900  -12.8786 H   0  0  0  0  0  0  0  0  0  0  0  0
   45.2433  -13.2323  -13.2562 H   0  0  0  0  0  0  0  0  0  0  0  0
   48.0793  -14.9503   -6.4054 H   0  0  0  0  0  0  0  0  0  0  0  0
   46.3420  -16.4132   -5.4286 H   0  0  0  0  0  0  0  0  0  0  0  0
   43.1199  -14.4929  -13.3858 H   0  0  0  0  0  0  0  0  0  0  0  0
  2  1  1  0
  3  1  1  0
  4  6  1  0
  5  7  1  0
  6  2  2  0
  7  3  2  0
  8 14  1  0
  9  1  1  0
 10  2  1  0
 11  3  1  0
 12  6  1  0
 13  7  1  0
 14 16  1  0
 15  8  1  0
 16  9  1  0
 17 10  2  0
 18 11  2  0
 19 18  1  0
 20 17  1  0
  5  4  2  0
 19 13  2  0
 20 12  2  0
  1 21  1  0
  4 22  1  0
  5 23  1  0
  8 24  1  0
  9 25  1  0
  9 26  1  0
 10 27  1  0
 11 28  1  0
 12 29  1  0
 13 30  1  0
 14 31  1  0
 14 32  1  0
 15 33  1  0
 15 34  1  0
 15 35  1  0
 16 36  1  0
 16 37  1  0
 17 38  1  0
 18 39  1  0
 19 40  1  0
 20 41  1  0
M  END
> <Uni-Dock RESULT> 
ENERGY=   -4.306  LOWER_BOUND=    3.788  UPPER_BOUND=    6.144
INTER + INTRA:          -4.306
INTER:                  -4.306
INTRA:                   0.000
UNBOUND:                 0.000

$$$$

     RDKit          3D

 41 43  0  0  0  0  0  0  0  0999 V2000
   49.8673  -17.6369   -7.4736 C   0  0  0  0  0  0  0  0  0  0  0  0
   48.6143  -18.2748   -6.8978 C   0  0  0  0  0  0  0  0  0  0  0  0
   49.6029  -17.3384   -8.9383 C   0  0  0  0  0  0  0  0  0  0  0  0
   47.3977  -16.0477   -7.1251 C   0  0  0  0  0  0  0  0  0  0  0  0
   47.9261  -15.5423   -8.2531 C   0  0  0  0  0  0  0  0  0  0  0  0
   47.4573  -17.4742   -6.7167 C   0  0  0  0  0  0  0  0  0  0  0  0
   48.6750  -16.3183   -9.2762 C   0  0  0  0  0  0  0  0  0  0  0  0
   52.8087  -16.3503   -5.6932 N   0  0  0  0  0  0  0  0  0  0  0  0
   51.2066  -18.3731   -7.1865 C   0  0  0  0  0  0  0  0  0  0  0  0
   48.5354  -19.6546   -6.6096 C   0  0  0  0  0  0  0  0  0  0  0  0
   50.2175  -18.0704   -9.9775 C   0  0  0  0  0  0  0  0  0  0  0  0
   46.3120  -18.0348   -6.1285 C   0  0  0  0  0  0  0  0  0  0  0  0
   48.4648  -15.9941  -10.6262 C   0  0  0  0  0  0  0  0  0  0  0  0
   51.7994  -17.1446   -4.9824 C   0  0  0  0  0  0  0  0  0  0  0  0
   52.9371  -15.0271   -5.0815 C   0  0  0  0  0  0  0  0  0  0  0  0
   51.5624  -18.4890   -5.6874 C   0  0  0  0  0  0  0  0  0  0  0  0
   47.3776  -20.1998   -6.0523 C   0  0  0  0  0  0  0  0  0  0  0  0
   49.9730  -17.7498  -11.3139 C   0  0  0  0  0  0  0  0  0  0  0  0
   49.1087  -16.7066  -11.6374 C   0  0  0  0  0  0  0  0  0  0  0  0
   46.2748  -19.3886   -5.7958 C   0  0  0  0  0  0  0  0  0  0  0  0
   49.9940  -16.6473   -6.9871 H   0  0  0  0  0  0  0  0  0  0  0  0
   46.7840  -15.3849   -6.5262 H   0  0  0  0  0  0  0  0  0  0  0  0
   47.7020  -14.5070   -8.4826 H   0  0  0  0  0  0  0  0  0  0  0  0
   53.7322  -16.8342   -5.5943 H   0  0  0  0  0  0  0  0  0  0  0  0
   52.0299  -17.8353   -7.7051 H   0  0  0  0  0  0  0  0  0  0  0  0
   51.1920  -19.3960   -7.6140 H   0  0  0  0  0  0  0  0  0  0  0  0
   49.3631  -20.3213   -6.7977 H   0  0  0  0  0  0  0  0  0  0  0  0
   50.8948  -18.8860   -9.7729 H   0  0  0  0  0  0  0  0  0  0  0  0
   45.4315  -17.4279   -5.9553 H   0  0  0  0  0  0  0  0  0  0  0  0
   47.7803  -15.1997  -10.8989 H   0  0  0  0  0  0  0  0  0  0  0  0
   50.8396  -16.5884   -4.9110 H   0  0  0  0  0  0  0  0  0  0  0  0
   52.1405  -17.3492   -3.9422 H   0  0  0  0  0  0  0  0  0  0  0  0
   53.7259  -14.4525   -5.6114 H   0  0  0  0  0  0  0  0  0  0  0  0
   51.9828  -14.4652   -5.1748 H   0  0  0  0  0  0  0  0  0  0  0  0
   53.2210  -15.1107   -4.0091 H   0  0  0  0  0  0  0  0  0  0  0  0
   50.7656  -19.0390   -5.1451 H   0  0  0  0  0  0  0  0  0  0  0  0
   52.4883  -19.0979   -5.5984 H   0  0  0  0  0  0  0  0  0  0  0  0
   47.3368  -21.2555   -5.8166 H   0  0  0  0  0  0  0  0  0  0  0  0
   50.4597  -18.3105  -12.1017 H   0  0  0  0  0  0  0  0  0  0  0  0
   48.9276  -16.4566  -12.6749 H   0  0  0  0  0  0  0  0  0  0  0  0
   45.3808  -19.8137   -5.3580 H   0  0  0  0  0  0  0  0  0  0  0  0
  2  1  1  0
  3  1  1  0
  4  6  1  0
  5  7  1  0
  6  2  2  0
  7  3  2  0
  8 14  1  0
  9  1  1  0
 10  2  1  0
 11  3  1  0
 12  6  1  0
 13  7  1  0
 14 16  1  0
 15  8  1  0
 16  9  1  0
 17 10  2  0
 18 11  2  0
 19 18  1  0
 20 17  1  0
  5  4  2  0
 19 13  2  0
 20 12  2  0
  1 21  1  0
  4 22  1  0
  5 23  1  0
  8 24  1  0
  9 25  1  0
  9 26  1  0
 10 27  1  0
 11 28  1  0
 12 29  1  0
 13 30  1  0
 14 31  1  0
 14 32  1  0
 15 33  1  0
 15 34  1  0
 15 35  1  0
 16 36  1  0
 16 37  1  0
 17 38  1  0
 18 39  1  0
 19 40  1  0
 20 41  1  0
M  END
> <Uni-Dock RESULT> 
ENERGY=   -4.261  LOWER_BOUND=    2.002  UPPER_BOUND=    4.779
INTER + INTRA:          -4.261
INTER:                  -4.261
INTRA:                   0.000
UNBOUND:                 0.000

$$$$

     RDKit          3D

 41 43  0  0  0  0  0  0  0  0999 V2000
   50.3654  -17.6046   -7.0645 C   0  0  0  0  0  0  0  0  0  0  0  0
   50.5812  -18.2830   -8.4068 C   0  0  0  0  0  0  0  0  0  0  0  0
   48.9297  -17.1135   -7.0201 C   0  0  0  0  0  0  0  0  0  0  0  0
   49.0376  -20.1747   -7.6785 C   0  0  0  0  0  0  0  0  0  0  0  0
   48.1220  -19.5316   -6.9335 C   0  0  0  0  0  0  0  0  0  0  0  0
   49.9521  -19.5300   -8.6549 C   0  0  0  0  0  0  0  0  0  0  0  0
   47.8789  -18.0652   -6.9445 C   0  0  0  0  0  0  0  0  0  0  0  0
   52.5344  -17.6433   -4.1029 N   0  0  0  0  0  0  0  0  0  0  0  0
   51.4312  -16.5515   -6.6483 C   0  0  0  0  0  0  0  0  0  0  0  0
   51.3220  -17.6792   -9.4459 C   0  0  0  0  0  0  0  0  0  0  0  0
   48.6017  -15.7422   -7.0943 C   0  0  0  0  0  0  0  0  0  0  0  0
   50.1919  -20.1980   -9.8666 C   0  0  0  0  0  0  0  0  0  0  0  0
   46.5501  -17.6219   -6.8451 C   0  0  0  0  0  0  0  0  0  0  0  0
   53.0212  -18.1632   -5.3864 C   0  0  0  0  0  0  0  0  0  0  0  0
   52.5808  -18.6892   -3.0805 C   0  0  0  0  0  0  0  0  0  0  0  0
   52.8617  -17.1159   -6.4991 C   0  0  0  0  0  0  0  0  0  0  0  0
   51.5251  -18.3462  -10.6551 C   0  0  0  0  0  0  0  0  0  0  0  0
   47.2718  -15.3244   -7.0218 C   0  0  0  0  0  0  0  0  0  0  0  0
   46.2496  -16.2607   -6.8852 C   0  0  0  0  0  0  0  0  0  0  0  0
   50.9763  -19.6102  -10.8585 C   0  0  0  0  0  0  0  0  0  0  0  0
   50.4366  -18.3852   -6.2787 H   0  0  0  0  0  0  0  0  0  0  0  0
   49.0282  -21.2581   -7.6473 H   0  0  0  0  0  0  0  0  0  0  0  0
   47.4404  -20.1425   -6.3529 H   0  0  0  0  0  0  0  0  0  0  0  0
   53.1780  -16.8755   -3.7979 H   0  0  0  0  0  0  0  0  0  0  0  0
   51.1273  -16.0968   -5.6804 H   0  0  0  0  0  0  0  0  0  0  0  0
   51.4672  -15.7189   -7.3797 H   0  0  0  0  0  0  0  0  0  0  0  0
   51.7598  -16.6990   -9.3345 H   0  0  0  0  0  0  0  0  0  0  0  0
   49.3614  -14.9823   -7.1994 H   0  0  0  0  0  0  0  0  0  0  0  0
   49.7434  -21.1656  -10.0575 H   0  0  0  0  0  0  0  0  0  0  0  0
   45.7393  -18.3354   -6.7593 H   0  0  0  0  0  0  0  0  0  0  0  0
   52.4759  -19.0902   -5.6679 H   0  0  0  0  0  0  0  0  0  0  0  0
   54.1001  -18.4269   -5.3047 H   0  0  0  0  0  0  0  0  0  0  0  0
   52.2393  -18.2701   -2.1105 H   0  0  0  0  0  0  0  0  0  0  0  0
   51.8991  -19.5240   -3.3519 H   0  0  0  0  0  0  0  0  0  0  0  0
   53.6163  -19.0755   -2.9536 H   0  0  0  0  0  0  0  0  0  0  0  0
   53.2007  -17.5611   -7.4575 H   0  0  0  0  0  0  0  0  0  0  0  0
   53.5465  -16.2677   -6.2810 H   0  0  0  0  0  0  0  0  0  0  0  0
   52.1124  -17.8814  -11.4367 H   0  0  0  0  0  0  0  0  0  0  0  0
   47.0337  -14.2694   -7.0675 H   0  0  0  0  0  0  0  0  0  0  0  0
   45.2203  -15.9318   -6.8220 H   0  0  0  0  0  0  0  0  0  0  0  0
   51.1410  -20.1270  -11.7952 H   0  0  0  0  0  0  0  0  0  0  0  0
  2  1  1  0
  3  1  1  0
  4  6  1  0
  5  7  1  0
  6  2  2  0
  7  3  2  0
  8 14  1  0
  9  1  1  0
 10  2  1  0
 11  3  1  0
 12  6  1  0
 13  7  1  0
 14 16  1  0
 15  8  1  0
 16  9  1  0
 17 10  2  0
 18 11  2  0
 19 18  1  0
 20 17  1  0
  5  4  2  0
 19 13  2  0
 20 12  2  0
  1 21  1  0
  4 22  1  0
  5 23  1  0
  8 24  1  0
  9 25  1  0
  9 26  1  0
 10 27  1  0
 11 28  1  0
 12 29  1  0
 13 30  1  0
 14 31  1  0
 14 32  1  0
 15 33  1  0
 15 34  1  0
 15 35  1  0
 16 36  1  0
 16 37  1  0
 17 38  1  0
 18 39  1  0
 19 40  1  0
 20 41  1  0
M  END
> <Uni-Dock RESULT> 
ENERGY=   -4.207  LOWER_BOUND=    2.118  UPPER_BOUND=    4.830
INTER + INTRA:          -4.207
INTER:                  -4.207
INTRA:                   0.000
UNBOUND:                 0.000

$$$$
