
     RDKit          3D

 41 43  0  0  0  0  0  0  0  0999 V2000
   50.2784  -16.7204   -8.1766 C   0  0  0  0  0  0  0  0  0  0  0  0
   51.2104  -16.4756   -7.0038 C   0  0  0  0  0  0  0  0  0  0  0  0
   48.8585  -16.7811   -7.6366 C   0  0  0  0  0  0  0  0  0  0  0  0
   50.2573  -14.1247   -6.7531 C   0  0  0  0  0  0  0  0  0  0  0  0
   48.9722  -14.2896   -7.1100 C   0  0  0  0  0  0  0  0  0  0  0  0
   51.1851  -15.2143   -6.3541 C   0  0  0  0  0  0  0  0  0  0  0  0
   48.2556  -15.5899   -7.1563 C   0  0  0  0  0  0  0  0  0  0  0  0
   49.5638  -19.0384  -12.5731 N   0  0  0  0  0  0  0  0  0  0  0  0
   50.7066  -17.8811   -9.1148 C   0  0  0  0  0  0  0  0  0  0  0  0
   52.0695  -17.4800   -6.5068 C   0  0  0  0  0  0  0  0  0  0  0  0
   48.1404  -17.9929   -7.5348 C   0  0  0  0  0  0  0  0  0  0  0  0
   52.0835  -14.9582   -5.3055 C   0  0  0  0  0  0  0  0  0  0  0  0
   46.9240  -15.6180   -6.7110 C   0  0  0  0  0  0  0  0  0  0  0  0
   50.3523  -19.0430  -11.3357 C   0  0  0  0  0  0  0  0  0  0  0  0
   49.9069  -20.1982  -13.3975 C   0  0  0  0  0  0  0  0  0  0  0  0
   49.9076  -17.8920  -10.4289 C   0  0  0  0  0  0  0  0  0  0  0  0
   52.9350  -17.2136   -5.4447 C   0  0  0  0  0  0  0  0  0  0  0  0
   46.8270  -18.0042   -7.0625 C   0  0  0  0  0  0  0  0  0  0  0  0
   46.2148  -16.8178   -6.6663 C   0  0  0  0  0  0  0  0  0  0  0  0
   52.9514  -15.9521   -4.8540 C   0  0  0  0  0  0  0  0  0  0  0  0
   50.3472  -15.8183   -8.8257 H   0  0  0  0  0  0  0  0  0  0  0  0
   50.6145  -13.1066   -6.6496 H   0  0  0  0  0  0  0  0  0  0  0  0
   48.3841  -13.3931   -7.2680 H   0  0  0  0  0  0  0  0  0  0  0  0
   49.8185  -18.1815  -13.1187 H   0  0  0  0  0  0  0  0  0  0  0  0
   51.7810  -17.7447   -9.3708 H   0  0  0  0  0  0  0  0  0  0  0  0
   50.6163  -18.8652   -8.6110 H   0  0  0  0  0  0  0  0  0  0  0  0
   52.0879  -18.4714   -6.9350 H   0  0  0  0  0  0  0  0  0  0  0  0
   48.5737  -18.9367   -7.8278 H   0  0  0  0  0  0  0  0  0  0  0  0
   52.0953  -13.9906   -4.8180 H   0  0  0  0  0  0  0  0  0  0  0  0
   46.4408  -14.7105   -6.3691 H   0  0  0  0  0  0  0  0  0  0  0  0
   50.1980  -20.0032  -10.7933 H   0  0  0  0  0  0  0  0  0  0  0  0
   51.4358  -18.9333  -11.5704 H   0  0  0  0  0  0  0  0  0  0  0  0
   49.3217  -20.1646  -14.3407 H   0  0  0  0  0  0  0  0  0  0  0  0
   49.6478  -21.1396  -12.8668 H   0  0  0  0  0  0  0  0  0  0  0  0
   50.9896  -20.1975  -13.6539 H   0  0  0  0  0  0  0  0  0  0  0  0
   48.8228  -18.0015  -10.2177 H   0  0  0  0  0  0  0  0  0  0  0  0
   50.0620  -16.9281  -10.9618 H   0  0  0  0  0  0  0  0  0  0  0  0
   53.5983  -17.9878   -5.0809 H   0  0  0  0  0  0  0  0  0  0  0  0
   46.2810  -18.9372   -7.0066 H   0  0  0  0  0  0  0  0  0  0  0  0
   45.1940  -16.8299   -6.3067 H   0  0  0  0  0  0  0  0  0  0  0  0
   53.6291  -15.7474   -4.0353 H   0  0  0  0  0  0  0  0  0  0  0  0
  2  1  1  0
  3  1  1  0
  4  6  1  0
  5  7  1  0
  6  2  2  0
  7  3  2  0
  8 14  1  0
  9  1  1  0
 10  2  1  0
 11  3  1  0
 12  6  1  0
 13  7  1  0
 14 16  1  0
 15  8  1  0
 16  9  1  0
 17 10  2  0
 18 11  2  0
 19 18  1  0
 20 17  1  0
  5  4  2  0
 19 13  2  0
 20 12  2  0
  1 21  1  0
  4 22  1  0
  5 23  1  0
  8 24  1  0
  9 25  1  0
  9 26  1  0
 10 27  1  0
 11 28  1  0
 12 29  1  0
 13 30  1  0
 14 31  1  0
 14 32  1  0
 15 33  1  0
 15 34  1  0
 15 35  1  0
 16 36  1  0
 16 37  1  0
 17 38  1  0
 18 39  1  0
 19 40  1  0
 20 41  1  0
M  END
> <Uni-Dock RESULT> 
ENERGY=   -5.907  LOWER_BOUND=    0.000  UPPER_BOUND=    0.000
INTER + INTRA:          -5.907
INTER:                  -5.907
INTRA:                   0.000
UNBOUND:                 0.000

$$$$

     RDKit          3D

 41 43  0  0  0  0  0  0  0  0999 V2000
   48.1585  -17.2841   -8.2891 C   0  0  0  0  0  0  0  0  0  0  0  0
   47.5584  -18.1695   -7.2121 C   0  0  0  0  0  0  0  0  0  0  0  0
   49.0874  -16.2908   -7.6095 C   0  0  0  0  0  0  0  0  0  0  0  0
   49.8466  -19.2225   -6.8202 C   0  0  0  0  0  0  0  0  0  0  0  0
   50.6844  -18.1967   -7.0484 C   0  0  0  0  0  0  0  0  0  0  0  0
   48.3931  -19.0987   -6.5386 C   0  0  0  0  0  0  0  0  0  0  0  0
   50.3023  -16.7613   -7.0473 C   0  0  0  0  0  0  0  0  0  0  0  0
   47.4472  -14.8720  -12.6352 N   0  0  0  0  0  0  0  0  0  0  0  0
   47.1296  -16.6894   -9.2884 C   0  0  0  0  0  0  0  0  0  0  0  0
   46.2047  -18.0653   -6.8244 C   0  0  0  0  0  0  0  0  0  0  0  0
   48.7547  -14.9266   -7.4592 C   0  0  0  0  0  0  0  0  0  0  0  0
   47.8357  -19.9621   -5.5815 C   0  0  0  0  0  0  0  0  0  0  0  0
   51.1986  -15.8473   -6.4702 C   0  0  0  0  0  0  0  0  0  0  0  0
   46.7718  -15.4821  -11.4843 C   0  0  0  0  0  0  0  0  0  0  0  0
   46.4702  -14.2257  -13.5127 C   0  0  0  0  0  0  0  0  0  0  0  0
   47.8085  -16.0566  -10.5148 C   0  0  0  0  0  0  0  0  0  0  0  0
   45.6768  -18.9142   -5.8504 C   0  0  0  0  0  0  0  0  0  0  0  0
   49.6473  -14.0386   -6.8567 C   0  0  0  0  0  0  0  0  0  0  0  0
   50.8728  -14.4946   -6.3774 C   0  0  0  0  0  0  0  0  0  0  0  0
   46.4869  -19.8690   -5.2398 C   0  0  0  0  0  0  0  0  0  0  0  0
   48.7896  -17.9462   -8.9240 H   0  0  0  0  0  0  0  0  0  0  0  0
   50.2862  -20.2094   -6.7335 H   0  0  0  0  0  0  0  0  0  0  0  0
   51.7400  -18.4291   -7.1285 H   0  0  0  0  0  0  0  0  0  0  0  0
   47.9049  -15.6356  -13.1869 H   0  0  0  0  0  0  0  0  0  0  0  0
   46.4762  -17.5149   -9.6492 H   0  0  0  0  0  0  0  0  0  0  0  0
   46.4698  -15.9451   -8.7974 H   0  0  0  0  0  0  0  0  0  0  0  0
   45.5425  -17.3386   -7.2716 H   0  0  0  0  0  0  0  0  0  0  0  0
   47.8164  -14.5280   -7.8131 H   0  0  0  0  0  0  0  0  0  0  0  0
   48.4546  -20.6958   -5.0788 H   0  0  0  0  0  0  0  0  0  0  0  0
   52.1433  -16.1879   -6.0634 H   0  0  0  0  0  0  0  0  0  0  0  0
   46.1710  -14.7131  -10.9481 H   0  0  0  0  0  0  0  0  0  0  0  0
   46.0915  -16.2957  -11.8254 H   0  0  0  0  0  0  0  0  0  0  0  0
   46.9945  -13.7933  -14.3909 H   0  0  0  0  0  0  0  0  0  0  0  0
   45.9585  -13.3972  -12.9770 H   0  0  0  0  0  0  0  0  0  0  0  0
   45.7169  -14.9588  -13.8773 H   0  0  0  0  0  0  0  0  0  0  0  0
   48.4920  -15.2410  -10.1971 H   0  0  0  0  0  0  0  0  0  0  0  0
   48.4110  -16.8289  -11.0416 H   0  0  0  0  0  0  0  0  0  0  0  0
   44.6342  -18.8336   -5.5708 H   0  0  0  0  0  0  0  0  0  0  0  0
   49.3881  -12.9917   -6.7641 H   0  0  0  0  0  0  0  0  0  0  0  0
   51.5649  -13.8016   -5.9166 H   0  0  0  0  0  0  0  0  0  0  0  0
   46.0718  -20.5302   -4.4900 H   0  0  0  0  0  0  0  0  0  0  0  0
  2  1  1  0
  3  1  1  0
  4  6  1  0
  5  7  1  0
  6  2  2  0
  7  3  2  0
  8 14  1  0
  9  1  1  0
 10  2  1  0
 11  3  1  0
 12  6  1  0
 13  7  1  0
 14 16  1  0
 15  8  1  0
 16  9  1  0
 17 10  2  0
 18 11  2  0
 19 18  1  0
 20 17  1  0
  5  4  2  0
 19 13  2  0
 20 12  2  0
  1 21  1  0
  4 22  1  0
  5 23  1  0
  8 24  1  0
  9 25  1  0
  9 26  1  0
 10 27  1  0
 11 28  1  0
 12 29  1  0
 13 30  1  0
 14 31  1  0
 14 32  1  0
 15 33  1  0
 15 34  1  0
 15 35  1  0
 16 36  1  0
 16 37  1  0
 17 38  1  0
 18 39  1  0
 19 40  1  0
 20 41  1  0
M  END
> <Uni-Dock RESULT> 
ENERGY=   -5.418  LOWER_BOUND=    2.445  UPPER_BOUND=    4.905
INTER + INTRA:          -5.418
INTER:                  -5.418
INTRA:                   0.000
UNBOUND:                 0.000

$$$$

     RDKit          3D

 41 43  0  0  0  0  0  0  0  0999 V2000
   50.0096  -18.0769   -7.8012 C   0  0  0  0  0  0  0  0  0  0  0  0
   48.7215  -17.3600   -7.4391 C   0  0  0  0  0  0  0  0  0  0  0  0
   50.8051  -18.2773   -6.5212 C   0  0  0  0  0  0  0  0  0  0  0  0
   47.9186  -19.4471   -6.2152 C   0  0  0  0  0  0  0  0  0  0  0  0
   49.0608  -19.9553   -5.7218 C   0  0  0  0  0  0  0  0  0  0  0  0
   47.7338  -18.0519   -6.6912 C   0  0  0  0  0  0  0  0  0  0  0  0
   50.3322  -19.2052   -5.5575 C   0  0  0  0  0  0  0  0  0  0  0  0
   53.7122  -18.6487  -11.1442 N   0  0  0  0  0  0  0  0  0  0  0  0
   50.7806  -17.4606   -8.9997 C   0  0  0  0  0  0  0  0  0  0  0  0
   48.4937  -16.0094   -7.7817 C   0  0  0  0  0  0  0  0  0  0  0  0
   51.9636  -17.5253   -6.2265 C   0  0  0  0  0  0  0  0  0  0  0  0
   46.5152  -17.4171   -6.4007 C   0  0  0  0  0  0  0  0  0  0  0  0
   51.0874  -19.4459   -4.3984 C   0  0  0  0  0  0  0  0  0  0  0  0
   52.6411  -17.7542  -10.6909 C   0  0  0  0  0  0  0  0  0  0  0  0
   54.4938  -18.0082  -12.2031 C   0  0  0  0  0  0  0  0  0  0  0  0
   51.9005  -18.3842   -9.5079 C   0  0  0  0  0  0  0  0  0  0  0  0
   47.2864  -15.3879   -7.4587 C   0  0  0  0  0  0  0  0  0  0  0  0
   52.6851  -17.7595   -5.0549 C   0  0  0  0  0  0  0  0  0  0  0  0
   52.2570  -18.7282   -4.1505 C   0  0  0  0  0  0  0  0  0  0  0  0
   46.2945  -16.0937   -6.7815 C   0  0  0  0  0  0  0  0  0  0  0  0
   49.7146  -19.0857   -8.1688 H   0  0  0  0  0  0  0  0  0  0  0  0
   47.0367  -20.0752   -6.1663 H   0  0  0  0  0  0  0  0  0  0  0  0
   49.0185  -20.9566   -5.3092 H   0  0  0  0  0  0  0  0  0  0  0  0
   53.2700  -19.5039  -11.5566 H   0  0  0  0  0  0  0  0  0  0  0  0
   50.0616  -17.3061   -9.8350 H   0  0  0  0  0  0  0  0  0  0  0  0
   51.1996  -16.4656   -8.7450 H   0  0  0  0  0  0  0  0  0  0  0  0
   49.2361  -15.4257   -8.3058 H   0  0  0  0  0  0  0  0  0  0  0  0
   52.3322  -16.7634   -6.8958 H   0  0  0  0  0  0  0  0  0  0  0  0
   45.7404  -17.9418   -5.8546 H   0  0  0  0  0  0  0  0  0  0  0  0
   50.7540  -20.1731   -3.6677 H   0  0  0  0  0  0  0  0  0  0  0  0
   53.0745  -16.7825  -10.3626 H   0  0  0  0  0  0  0  0  0  0  0  0
   51.9222  -17.5648  -11.5206 H   0  0  0  0  0  0  0  0  0  0  0  0
   55.2818  -18.7082  -12.5528 H   0  0  0  0  0  0  0  0  0  0  0  0
   54.9943  -17.0949  -11.8153 H   0  0  0  0  0  0  0  0  0  0  0  0
   53.8478  -17.7431  -13.0693 H   0  0  0  0  0  0  0  0  0  0  0  0
   52.6301  -18.5858   -8.6953 H   0  0  0  0  0  0  0  0  0  0  0  0
   51.4609  -19.3542   -9.8284 H   0  0  0  0  0  0  0  0  0  0  0  0
   47.1181  -14.3558   -7.7382 H   0  0  0  0  0  0  0  0  0  0  0  0
   53.5818  -17.1891   -4.8493 H   0  0  0  0  0  0  0  0  0  0  0  0
   52.8229  -18.9113   -3.2461 H   0  0  0  0  0  0  0  0  0  0  0  0
   45.3568  -15.6103   -6.5392 H   0  0  0  0  0  0  0  0  0  0  0  0
  2  1  1  0
  3  1  1  0
  4  6  1  0
  5  7  1  0
  6  2  2  0
  7  3  2  0
  8 14  1  0
  9  1  1  0
 10  2  1  0
 11  3  1  0
 12  6  1  0
 13  7  1  0
 14 16  1  0
 15  8  1  0
 16  9  1  0
 17 10  2  0
 18 11  2  0
 19 18  1  0
 20 17  1  0
  5  4  2  0
 19 13  2  0
 20 12  2  0
  1 21  1  0
  4 22  1  0
  5 23  1  0
  8 24  1  0
  9 25  1  0
  9 26  1  0
 10 27  1  0
 11 28  1  0
 12 29  1  0
 13 30  1  0
 14 31  1  0
 14 32  1  0
 15 33  1  0
 15 34  1  0
 15 35  1  0
 16 36  1  0
 16 37  1  0
 17 38  1  0
 18 39  1  0
 19 40  1  0
 20 41  1  0
M  END
> <Uni-Dock RESULT> 
ENERGY=   -4.868  LOWER_BOUND=    2.094  UPPER_BOUND=    4.821
INTER + INTRA:          -4.868
INTER:                  -4.868
INTRA:                   0.000
UNBOUND:                 0.000

$$$$

     RDKit          3D

 41 43  0  0  0  0  0  0  0  0999 V2000
   45.9654  -19.2378   -8.9356 C   0  0  0  0  0  0  0  0  0  0  0  0
   44.5988  -19.4593   -8.3132 C   0  0  0  0  0  0  0  0  0  0  0  0
   46.4425  -17.8531   -8.5278 C   0  0  0  0  0  0  0  0  0  0  0  0
   45.6768  -19.5386   -6.0045 C   0  0  0  0  0  0  0  0  0  0  0  0
   46.6929  -18.6673   -6.1253 C   0  0  0  0  0  0  0  0  0  0  0  0
   44.4985  -19.6151   -6.9064 C   0  0  0  0  0  0  0  0  0  0  0  0
   46.8066  -17.6233   -7.1757 C   0  0  0  0  0  0  0  0  0  0  0  0
   48.9558  -19.9806  -12.9002 N   0  0  0  0  0  0  0  0  0  0  0  0
   46.0524  -19.5763  -10.4484 C   0  0  0  0  0  0  0  0  0  0  0  0
   43.4163  -19.4677   -9.0848 C   0  0  0  0  0  0  0  0  0  0  0  0
   46.4744  -16.7686   -9.4319 C   0  0  0  0  0  0  0  0  0  0  0  0
   43.2465  -19.8778   -6.3269 C   0  0  0  0  0  0  0  0  0  0  0  0
   47.3066  -16.3670   -6.7967 C   0  0  0  0  0  0  0  0  0  0  0  0
   47.5613  -19.9603  -12.4443 C   0  0  0  0  0  0  0  0  0  0  0  0
   49.0134  -20.1969  -14.3467 C   0  0  0  0  0  0  0  0  0  0  0  0
   47.5049  -19.6211  -10.9521 C   0  0  0  0  0  0  0  0  0  0  0  0
   42.1780  -19.7026   -8.4853 C   0  0  0  0  0  0  0  0  0  0  0  0
   46.9481  -15.5193   -9.0283 C   0  0  0  0  0  0  0  0  0  0  0  0
   47.3779  -15.3230   -7.7182 C   0  0  0  0  0  0  0  0  0  0  0  0
   42.0946  -19.9201   -7.1119 C   0  0  0  0  0  0  0  0  0  0  0  0
   46.6499  -19.9767   -8.4608 H   0  0  0  0  0  0  0  0  0  0  0  0
   45.6662  -20.1658   -5.1206 H   0  0  0  0  0  0  0  0  0  0  0  0
   47.4289  -18.6530   -5.3298 H   0  0  0  0  0  0  0  0  0  0  0  0
   49.4361  -20.7919  -12.4441 H   0  0  0  0  0  0  0  0  0  0  0  0
   45.6059  -20.5833  -10.6069 H   0  0  0  0  0  0  0  0  0  0  0  0
   45.4639  -18.8615  -11.0592 H   0  0  0  0  0  0  0  0  0  0  0  0
   43.4360  -19.3027  -10.1520 H   0  0  0  0  0  0  0  0  0  0  0  0
   46.1500  -16.8725  -10.4558 H   0  0  0  0  0  0  0  0  0  0  0  0
   43.1580  -20.0267   -5.2574 H   0  0  0  0  0  0  0  0  0  0  0  0
   47.6164  -16.1858   -5.7743 H   0  0  0  0  0  0  0  0  0  0  0  0
   46.9916  -19.1865  -13.0068 H   0  0  0  0  0  0  0  0  0  0  0  0
   47.0862  -20.9529  -12.6175 H   0  0  0  0  0  0  0  0  0  0  0  0
   50.0749  -20.2366  -14.6703 H   0  0  0  0  0  0  0  0  0  0  0  0
   48.5229  -19.3561  -14.8828 H   0  0  0  0  0  0  0  0  0  0  0  0
   48.5237  -21.1564  -14.6251 H   0  0  0  0  0  0  0  0  0  0  0  0
   47.9980  -18.6394  -10.7893 H   0  0  0  0  0  0  0  0  0  0  0  0
   48.0688  -20.3917  -10.3819 H   0  0  0  0  0  0  0  0  0  0  0  0
   41.2798  -19.7197   -9.0893 H   0  0  0  0  0  0  0  0  0  0  0  0
   46.9848  -14.7010   -9.7359 H   0  0  0  0  0  0  0  0  0  0  0  0
   47.7506  -14.3543   -7.4108 H   0  0  0  0  0  0  0  0  0  0  0  0
   41.1332  -20.1090   -6.6519 H   0  0  0  0  0  0  0  0  0  0  0  0
  2  1  1  0
  3  1  1  0
  4  6  1  0
  5  7  1  0
  6  2  2  0
  7  3  2  0
  8 14  1  0
  9  1  1  0
 10  2  1  0
 11  3  1  0
 12  6  1  0
 13  7  1  0
 14 16  1  0
 15  8  1  0
 16  9  1  0
 17 10  2  0
 18 11  2  0
 19 18  1  0
 20 17  1  0
  5  4  2  0
 19 13  2  0
 20 12  2  0
  1 21  1  0
  4 22  1  0
  5 23  1  0
  8 24  1  0
  9 25  1  0
  9 26  1  0
 10 27  1  0
 11 28  1  0
 12 29  1  0
 13 30  1  0
 14 31  1  0
 14 32  1  0
 15 33  1  0
 15 34  1  0
 15 35  1  0
 16 36  1  0
 16 37  1  0
 17 38  1  0
 18 39  1  0
 19 40  1  0
 20 41  1  0
M  END
> <Uni-Dock RESULT> 
ENERGY=   -4.796  LOWER_BOUND=    3.346  UPPER_BOUND=    6.183
INTER + INTRA:          -4.796
INTER:                  -4.796
INTRA:                   0.000
UNBOUND:                 0.000

$$$$

     RDKit          3D

 41 43  0  0  0  0  0  0  0  0999 V2000
   47.3860  -16.7729  -10.8341 C   0  0  0  0  0  0  0  0  0  0  0  0
   46.2544  -16.0760  -11.5675 C   0  0  0  0  0  0  0  0  0  0  0  0
   47.1492  -16.5991   -9.3424 C   0  0  0  0  0  0  0  0  0  0  0  0
   44.6294  -17.8462  -10.7168 C   0  0  0  0  0  0  0  0  0  0  0  0
   45.1254  -18.1406   -9.5030 C   0  0  0  0  0  0  0  0  0  0  0  0
   44.9481  -16.6264  -11.5028 C   0  0  0  0  0  0  0  0  0  0  0  0
   46.0699  -17.2906   -8.7338 C   0  0  0  0  0  0  0  0  0  0  0  0
   52.2775  -17.9033  -10.7429 N   0  0  0  0  0  0  0  0  0  0  0  0
   48.8077  -16.4208  -11.3494 C   0  0  0  0  0  0  0  0  0  0  0  0
   46.4502  -14.8693  -12.2740 C   0  0  0  0  0  0  0  0  0  0  0  0
   47.9246  -15.7228   -8.5517 C   0  0  0  0  0  0  0  0  0  0  0  0
   43.9062  -16.0217  -12.2246 C   0  0  0  0  0  0  0  0  0  0  0  0
   45.8754  -17.1881   -7.3469 C   0  0  0  0  0  0  0  0  0  0  0  0
   51.2722  -16.9977  -11.3104 C   0  0  0  0  0  0  0  0  0  0  0  0
   53.6205  -17.4927  -11.1553 C   0  0  0  0  0  0  0  0  0  0  0  0
   49.8820  -17.3648  -10.7836 C   0  0  0  0  0  0  0  0  0  0  0  0
   45.3945  -14.2688  -12.9618 C   0  0  0  0  0  0  0  0  0  0  0  0
   47.6971  -15.6132   -7.1790 C   0  0  0  0  0  0  0  0  0  0  0  0
   46.6854  -16.3557   -6.5752 C   0  0  0  0  0  0  0  0  0  0  0  0
   44.1288  -14.8504  -12.9480 C   0  0  0  0  0  0  0  0  0  0  0  0
   47.2853  -17.8585  -11.0608 H   0  0  0  0  0  0  0  0  0  0  0  0
   43.8579  -18.5000  -11.1071 H   0  0  0  0  0  0  0  0  0  0  0  0
   44.7182  -19.0101   -9.0002 H   0  0  0  0  0  0  0  0  0  0  0  0
   52.1106  -18.8610  -11.1326 H   0  0  0  0  0  0  0  0  0  0  0  0
   48.8129  -16.5246  -12.4575 H   0  0  0  0  0  0  0  0  0  0  0  0
   49.0734  -15.3683  -11.1216 H   0  0  0  0  0  0  0  0  0  0  0  0
   47.4149  -14.3846  -12.3096 H   0  0  0  0  0  0  0  0  0  0  0  0
   48.7177  -15.1262   -8.9755 H   0  0  0  0  0  0  0  0  0  0  0  0
   42.9094  -16.4461  -12.2075 H   0  0  0  0  0  0  0  0  0  0  0  0
   45.0735  -17.7337   -6.8638 H   0  0  0  0  0  0  0  0  0  0  0  0
   51.4992  -15.9486  -11.0144 H   0  0  0  0  0  0  0  0  0  0  0  0
   51.2778  -17.0663  -12.4224 H   0  0  0  0  0  0  0  0  0  0  0  0
   54.3658  -18.2034  -10.7400 H   0  0  0  0  0  0  0  0  0  0  0  0
   53.8539  -16.4810  -10.7592 H   0  0  0  0  0  0  0  0  0  0  0  0
   53.7133  -17.4922  -12.2641 H   0  0  0  0  0  0  0  0  0  0  0  0
   49.8941  -17.3115   -9.6744 H   0  0  0  0  0  0  0  0  0  0  0  0
   49.6455  -18.4108  -11.0784 H   0  0  0  0  0  0  0  0  0  0  0  0
   45.5600  -13.3506  -13.5107 H   0  0  0  0  0  0  0  0  0  0  0  0
   48.3104  -14.9516   -6.5808 H   0  0  0  0  0  0  0  0  0  0  0  0
   46.5163  -16.2727   -5.5093 H   0  0  0  0  0  0  0  0  0  0  0  0
   43.3144  -14.3854  -13.4886 H   0  0  0  0  0  0  0  0  0  0  0  0
  2  1  1  0
  3  1  1  0
  4  6  1  0
  5  7  1  0
  6  2  2  0
  7  3  2  0
  8 14  1  0
  9  1  1  0
 10  2  1  0
 11  3  1  0
 12  6  1  0
 13  7  1  0
 14 16  1  0
 15  8  1  0
 16  9  1  0
 17 10  2  0
 18 11  2  0
 19 18  1  0
 20 17  1  0
  5  4  2  0
 19 13  2  0
 20 12  2  0
  1 21  1  0
  4 22  1  0
  5 23  1  0
  8 24  1  0
  9 25  1  0
  9 26  1  0
 10 27  1  0
 11 28  1  0
 12 29  1  0
 13 30  1  0
 14 31  1  0
 14 32  1  0
 15 33  1  0
 15 34  1  0
 15 35  1  0
 16 36  1  0
 16 37  1  0
 17 38  1  0
 18 39  1  0
 19 40  1  0
 20 41  1  0
M  END
> <Uni-Dock RESULT> 
ENERGY=   -4.378  LOWER_BOUND=    3.692  UPPER_BOUND=    6.191
INTER + INTRA:          -4.378
INTER:                  -4.378
INTRA:                   0.000
UNBOUND:                 0.000

$$$$

     RDKit          3D

 41 43  0  0  0  0  0  0  0  0999 V2000
   50.0844  -17.9872   -7.5993 C   0  0  0  0  0  0  0  0  0  0  0  0
   49.9000  -18.5790   -8.9848 C   0  0  0  0  0  0  0  0  0  0  0  0
   48.8383  -17.1813   -7.2688 C   0  0  0  0  0  0  0  0  0  0  0  0
   48.0730  -20.1066   -8.0755 C   0  0  0  0  0  0  0  0  0  0  0  0
   47.4988  -19.3455   -7.1284 C   0  0  0  0  0  0  0  0  0  0  0  0
   48.9377  -19.6044   -9.1745 C   0  0  0  0  0  0  0  0  0  0  0  0
   47.6214  -17.8688   -7.0246 C   0  0  0  0  0  0  0  0  0  0  0  0
   53.2555  -15.9587   -4.2763 N   0  0  0  0  0  0  0  0  0  0  0  0
   51.4443  -17.2723   -7.3745 C   0  0  0  0  0  0  0  0  0  0  0  0
   50.6223  -18.1084  -10.1031 C   0  0  0  0  0  0  0  0  0  0  0  0
   48.8325  -15.7691   -7.2603 C   0  0  0  0  0  0  0  0  0  0  0  0
   48.7998  -20.1984  -10.4396 C   0  0  0  0  0  0  0  0  0  0  0  0
   46.4766  -17.1425   -6.6587 C   0  0  0  0  0  0  0  0  0  0  0  0
   53.0467  -16.2587   -5.6973 C   0  0  0  0  0  0  0  0  0  0  0  0
   54.4900  -15.1933   -4.0956 C   0  0  0  0  0  0  0  0  0  0  0  0
   51.6988  -16.9593   -5.8903 C   0  0  0  0  0  0  0  0  0  0  0  0
   50.4499  -18.6936  -11.3584 C   0  0  0  0  0  0  0  0  0  0  0  0
   47.6763  -15.0644   -6.9217 C   0  0  0  0  0  0  0  0  0  0  0  0
   46.5054  -15.7493   -6.6064 C   0  0  0  0  0  0  0  0  0  0  0  0
   49.5506  -19.7446  -11.5237 C   0  0  0  0  0  0  0  0  0  0  0  0
   50.1193  -18.8471   -6.8928 H   0  0  0  0  0  0  0  0  0  0  0  0
   47.8004  -21.1554   -8.0990 H   0  0  0  0  0  0  0  0  0  0  0  0
   46.8031  -19.8341   -6.4562 H   0  0  0  0  0  0  0  0  0  0  0  0
   53.3730  -16.8654   -3.7655 H   0  0  0  0  0  0  0  0  0  0  0  0
   52.2561  -17.9487   -7.7238 H   0  0  0  0  0  0  0  0  0  0  0  0
   51.5181  -16.3417   -7.9736 H   0  0  0  0  0  0  0  0  0  0  0  0
   51.3286  -17.2955  -10.0191 H   0  0  0  0  0  0  0  0  0  0  0  0
   49.7147  -15.1956   -7.4994 H   0  0  0  0  0  0  0  0  0  0  0  0
   48.0890  -21.0015  -10.5935 H   0  0  0  0  0  0  0  0  0  0  0  0
   45.5478  -17.6560   -6.4404 H   0  0  0  0  0  0  0  0  0  0  0  0
   53.0440  -15.3137   -6.2862 H   0  0  0  0  0  0  0  0  0  0  0  0
   53.8637  -16.9151   -6.0752 H   0  0  0  0  0  0  0  0  0  0  0  0
   54.6465  -14.9985   -3.0136 H   0  0  0  0  0  0  0  0  0  0  0  0
   54.4159  -14.2127   -4.6131 H   0  0  0  0  0  0  0  0  0  0  0  0
   55.3676  -15.7569   -4.4830 H   0  0  0  0  0  0  0  0  0  0  0  0
   50.8949  -16.3043   -5.4928 H   0  0  0  0  0  0  0  0  0  0  0  0
   51.6943  -17.9068   -5.3081 H   0  0  0  0  0  0  0  0  0  0  0  0
   51.0190  -18.3329  -12.2056 H   0  0  0  0  0  0  0  0  0  0  0  0
   47.6898  -13.9822   -6.9009 H   0  0  0  0  0  0  0  0  0  0  0  0
   45.6127  -15.1993   -6.3381 H   0  0  0  0  0  0  0  0  0  0  0  0
   49.4251  -20.2005  -12.4973 H   0  0  0  0  0  0  0  0  0  0  0  0
  2  1  1  0
  3  1  1  0
  4  6  1  0
  5  7  1  0
  6  2  2  0
  7  3  2  0
  8 14  1  0
  9  1  1  0
 10  2  1  0
 11  3  1  0
 12  6  1  0
 13  7  1  0
 14 16  1  0
 15  8  1  0
 16  9  1  0
 17 10  2  0
 18 11  2  0
 19 18  1  0
 20 17  1  0
  5  4  2  0
 19 13  2  0
 20 12  2  0
  1 21  1  0
  4 22  1  0
  5 23  1  0
  8 24  1  0
  9 25  1  0
  9 26  1  0
 10 27  1  0
 11 28  1  0
 12 29  1  0
 13 30  1  0
 14 31  1  0
 14 32  1  0
 15 33  1  0
 15 34  1  0
 15 35  1  0
 16 36  1  0
 16 37  1  0
 17 38  1  0
 18 39  1  0
 19 40  1  0
 20 41  1  0
M  END
> <Uni-Dock RESULT> 
ENERGY=   -4.206  LOWER_BOUND=    2.473  UPPER_BOUND=    5.624
INTER + INTRA:          -4.206
INTER:                  -4.206
INTRA:                   0.000
UNBOUND:                 0.000

$$$$

     RDKit          3D

 41 43  0  0  0  0  0  0  0  0999 V2000
   47.0003  -15.9744   -9.7471 C   0  0  0  0  0  0  0  0  0  0  0  0
   48.3660  -16.4046   -9.2432 C   0  0  0  0  0  0  0  0  0  0  0  0
   46.0076  -17.0694   -9.3906 C   0  0  0  0  0  0  0  0  0  0  0  0
   47.5566  -16.1187   -6.8429 C   0  0  0  0  0  0  0  0  0  0  0  0
   46.2627  -16.4722   -6.9256 C   0  0  0  0  0  0  0  0  0  0  0  0
   48.6032  -16.4476   -7.8449 C   0  0  0  0  0  0  0  0  0  0  0  0
   45.6589  -17.2625   -8.0288 C   0  0  0  0  0  0  0  0  0  0  0  0
   44.3805  -13.6601  -13.3517 N   0  0  0  0  0  0  0  0  0  0  0  0
   46.9776  -15.4793  -11.2186 C   0  0  0  0  0  0  0  0  0  0  0  0
   49.3950  -16.8100  -10.1209 C   0  0  0  0  0  0  0  0  0  0  0  0
   45.4692  -17.9451  -10.3589 C   0  0  0  0  0  0  0  0  0  0  0  0
   49.8801  -16.7886   -7.3700 C   0  0  0  0  0  0  0  0  0  0  0  0
   44.6981  -18.2290   -7.6900 C   0  0  0  0  0  0  0  0  0  0  0  0
   45.6598  -14.3037  -13.0322 C   0  0  0  0  0  0  0  0  0  0  0  0
   44.3366  -13.2944  -14.7683 C   0  0  0  0  0  0  0  0  0  0  0  0
   45.6534  -14.7847  -11.5784 C   0  0  0  0  0  0  0  0  0  0  0  0
   50.6490  -17.1726   -9.6267 C   0  0  0  0  0  0  0  0  0  0  0  0
   44.5365  -18.9186   -9.9977 C   0  0  0  0  0  0  0  0  0  0  0  0
   44.1400  -19.0501   -8.6692 C   0  0  0  0  0  0  0  0  0  0  0  0
   50.8951  -17.1494   -8.2558 C   0  0  0  0  0  0  0  0  0  0  0  0
   46.7200  -15.0701   -9.1608 H   0  0  0  0  0  0  0  0  0  0  0  0
   47.8817  -15.6454   -5.9236 H   0  0  0  0  0  0  0  0  0  0  0  0
   45.6364  -16.2598   -6.0669 H   0  0  0  0  0  0  0  0  0  0  0  0
   44.3146  -12.7733  -12.7984 H   0  0  0  0  0  0  0  0  0  0  0  0
   47.7974  -14.7382  -11.3501 H   0  0  0  0  0  0  0  0  0  0  0  0
   47.1733  -16.3082  -11.9292 H   0  0  0  0  0  0  0  0  0  0  0  0
   49.2463  -16.8432  -11.1901 H   0  0  0  0  0  0  0  0  0  0  0  0
   45.7477  -17.8823  -11.3995 H   0  0  0  0  0  0  0  0  0  0  0  0
   50.0845  -16.7990   -6.3060 H   0  0  0  0  0  0  0  0  0  0  0  0
   44.4000  -18.3676   -6.6575 H   0  0  0  0  0  0  0  0  0  0  0  0
   45.8164  -15.1830  -13.6971 H   0  0  0  0  0  0  0  0  0  0  0  0
   46.4986  -13.5861  -13.1821 H   0  0  0  0  0  0  0  0  0  0  0  0
   43.3744  -12.7850  -14.9867 H   0  0  0  0  0  0  0  0  0  0  0  0
   44.3948  -14.2040  -15.4041 H   0  0  0  0  0  0  0  0  0  0  0  0
   45.1687  -12.6022  -15.0263 H   0  0  0  0  0  0  0  0  0  0  0  0
   44.8023  -15.4838  -11.4365 H   0  0  0  0  0  0  0  0  0  0  0  0
   45.5012  -13.9115  -10.9066 H   0  0  0  0  0  0  0  0  0  0  0  0
   51.4342  -17.4691  -10.3104 H   0  0  0  0  0  0  0  0  0  0  0  0
   44.1173  -19.5717  -10.7524 H   0  0  0  0  0  0  0  0  0  0  0  0
   43.4116  -19.8021   -8.3941 H   0  0  0  0  0  0  0  0  0  0  0  0
   51.8711  -17.4245   -7.8771 H   0  0  0  0  0  0  0  0  0  0  0  0
  2  1  1  0
  3  1  1  0
  4  6  1  0
  5  7  1  0
  6  2  2  0
  7  3  2  0
  8 14  1  0
  9  1  1  0
 10  2  1  0
 11  3  1  0
 12  6  1  0
 13  7  1  0
 14 16  1  0
 15  8  1  0
 16  9  1  0
 17 10  2  0
 18 11  2  0
 19 18  1  0
 20 17  1  0
  5  4  2  0
 19 13  2  0
 20 12  2  0
  1 21  1  0
  4 22  1  0
  5 23  1  0
  8 24  1  0
  9 25  1  0
  9 26  1  0
 10 27  1  0
 11 28  1  0
 12 29  1  0
 13 30  1  0
 14 31  1  0
 14 32  1  0
 15 33  1  0
 15 34  1  0
 15 35  1  0
 16 36  1  0
 16 37  1  0
 17 38  1  0
 18 39  1  0
 19 40  1  0
 20 41  1  0
M  END
> <Uni-Dock RESULT> 
ENERGY=   -4.190  LOWER_BOUND=    3.707  UPPER_BOUND=    4.737
INTER + INTRA:          -4.190
INTER:                  -4.190
INTRA:                   0.000
UNBOUND:                 0.000

$$$$

     RDKit          3D

 41 43  0  0  0  0  0  0  0  0999 V2000
   46.9254  -16.7983  -11.1504 C   0  0  0  0  0  0  0  0  0  0  0  0
   45.6850  -16.1923  -11.7813 C   0  0  0  0  0  0  0  0  0  0  0  0
   46.7918  -16.6648   -9.6419 C   0  0  0  0  0  0  0  0  0  0  0  0
   44.2877  -18.1070  -10.8433 C   0  0  0  0  0  0  0  0  0  0  0  0
   44.9001  -18.3730   -9.6770 C   0  0  0  0  0  0  0  0  0  0  0  0
   44.4393  -16.8541  -11.6276 C   0  0  0  0  0  0  0  0  0  0  0  0
   45.8260  -17.4546   -8.9660 C   0  0  0  0  0  0  0  0  0  0  0  0
   51.8875  -17.5034  -11.4561 N   0  0  0  0  0  0  0  0  0  0  0  0
   48.2676  -16.3183  -11.7662 C   0  0  0  0  0  0  0  0  0  0  0  0
   45.7218  -14.9642  -12.4771 C   0  0  0  0  0  0  0  0  0  0  0  0
   47.5491  -15.7350   -8.8960 C   0  0  0  0  0  0  0  0  0  0  0  0
   43.2966  -16.3325  -12.2555 C   0  0  0  0  0  0  0  0  0  0  0  0
   45.7321  -17.3871   -7.5665 C   0  0  0  0  0  0  0  0  0  0  0  0
   50.7677  -16.6807  -11.9273 C   0  0  0  0  0  0  0  0  0  0  0  0
   53.1545  -16.9732  -11.9621 C   0  0  0  0  0  0  0  0  0  0  0  0
   49.4591  -17.1732  -11.3028 C   0  0  0  0  0  0  0  0  0  0  0  0
   44.5684  -14.4483  -13.0702 C   0  0  0  0  0  0  0  0  0  0  0  0
   47.4208  -15.6631   -7.5080 C   0  0  0  0  0  0  0  0  0  0  0  0
   46.5261  -16.4978   -6.8431 C   0  0  0  0  0  0  0  0  0  0  0  0
   43.3617  -15.1371  -12.9709 C   0  0  0  0  0  0  0  0  0  0  0  0
   46.9001  -17.8855  -11.3898 H   0  0  0  0  0  0  0  0  0  0  0  0
   43.5466  -18.8198  -11.1861 H   0  0  0  0  0  0  0  0  0  0  0  0
   44.6087  -19.2808   -9.1616 H   0  0  0  0  0  0  0  0  0  0  0  0
   51.7728  -18.4668  -11.8505 H   0  0  0  0  0  0  0  0  0  0  0  0
   48.1951  -16.4069  -12.8732 H   0  0  0  0  0  0  0  0  0  0  0  0
   48.4597  -15.2497  -11.5389 H   0  0  0  0  0  0  0  0  0  0  0  0
   46.6360  -14.3977  -12.5770 H   0  0  0  0  0  0  0  0  0  0  0  0
   48.2531  -15.0668   -9.3675 H   0  0  0  0  0  0  0  0  0  0  0  0
   42.3438  -16.8415  -12.1704 H   0  0  0  0  0  0  0  0  0  0  0  0
   45.0197  -18.0060   -7.0342 H   0  0  0  0  0  0  0  0  0  0  0  0
   50.9270  -15.6198  -11.6291 H   0  0  0  0  0  0  0  0  0  0  0  0
   50.6924  -16.7343  -13.0375 H   0  0  0  0  0  0  0  0  0  0  0  0
   53.9877  -17.6222  -11.6190 H   0  0  0  0  0  0  0  0  0  0  0  0
   53.3312  -15.9502  -11.5653 H   0  0  0  0  0  0  0  0  0  0  0  0
   53.1602  -16.9505  -13.0745 H   0  0  0  0  0  0  0  0  0  0  0  0
   49.5531  -17.1333  -10.1969 H   0  0  0  0  0  0  0  0  0  0  0  0
   49.2901  -18.2318  -11.5989 H   0  0  0  0  0  0  0  0  0  0  0  0
   44.6119  -13.5123  -13.6122 H   0  0  0  0  0  0  0  0  0  0  0  0
   48.0204  -14.9588   -6.9457 H   0  0  0  0  0  0  0  0  0  0  0  0
   46.4341  -16.4435   -5.7660 H   0  0  0  0  0  0  0  0  0  0  0  0
   42.4710  -14.7372  -13.4384 H   0  0  0  0  0  0  0  0  0  0  0  0
  2  1  1  0
  3  1  1  0
  4  6  1  0
  5  7  1  0
  6  2  2  0
  7  3  2  0
  8 14  1  0
  9  1  1  0
 10  2  1  0
 11  3  1  0
 12  6  1  0
 13  7  1  0
 14 16  1  0
 15  8  1  0
 16  9  1  0
 17 10  2  0
 18 11  2  0
 19 18  1  0
 20 17  1  0
  5  4  2  0
 19 13  2  0
 20 12  2  0
  1 21  1  0
  4 22  1  0
  5 23  1  0
  8 24  1  0
  9 25  1  0
  9 26  1  0
 10 27  1  0
 11 28  1  0
 12 29  1  0
 13 30  1  0
 14 31  1  0
 14 32  1  0
 15 33  1  0
 15 34  1  0
 15 35  1  0
 16 36  1  0
 16 37  1  0
 17 38  1  0
 18 39  1  0
 19 40  1  0
 20 41  1  0
M  END
> <Uni-Dock RESULT> 
ENERGY=   -4.130  LOWER_BOUND=    3.963  UPPER_BOUND=    6.544
INTER + INTRA:          -4.130
INTER:                  -4.130
INTRA:                   0.000
UNBOUND:                 0.000

$$$$

     RDKit          3D

 41 43  0  0  0  0  0  0  0  0999 V2000
   47.9328  -17.8140   -7.5423 C   0  0  0  0  0  0  0  0  0  0  0  0
   48.8001  -16.5977   -7.2733 C   0  0  0  0  0  0  0  0  0  0  0  0
   48.4234  -18.4589   -8.8287 C   0  0  0  0  0  0  0  0  0  0  0  0
   50.7802  -18.1306   -6.7961 C   0  0  0  0  0  0  0  0  0  0  0  0
   50.5681  -19.1549   -7.6399 C   0  0  0  0  0  0  0  0  0  0  0  0
   50.1567  -16.7862   -6.9025 C   0  0  0  0  0  0  0  0  0  0  0  0
   49.6817  -19.1147   -8.8310 C   0  0  0  0  0  0  0  0  0  0  0  0
   43.3451  -19.8436   -7.3273 N   0  0  0  0  0  0  0  0  0  0  0  0
   46.4048  -17.5568   -7.4423 C   0  0  0  0  0  0  0  0  0  0  0  0
   48.3131  -15.2813   -7.4267 C   0  0  0  0  0  0  0  0  0  0  0  0
   47.7019  -18.3726  -10.0397 C   0  0  0  0  0  0  0  0  0  0  0  0
   50.9515  -15.6698   -6.5955 C   0  0  0  0  0  0  0  0  0  0  0  0
   50.1209  -19.7671   -9.9944 C   0  0  0  0  0  0  0  0  0  0  0  0
   44.0931  -18.5813   -7.3240 C   0  0  0  0  0  0  0  0  0  0  0  0
   41.9053  -19.5800   -7.3385 C   0  0  0  0  0  0  0  0  0  0  0  0
   45.5945  -18.8640   -7.4269 C   0  0  0  0  0  0  0  0  0  0  0  0
   49.1283  -14.1843   -7.1436 C   0  0  0  0  0  0  0  0  0  0  0  0
   48.1695  -19.0041  -11.1932 C   0  0  0  0  0  0  0  0  0  0  0  0
   49.3681  -19.7128  -11.1669 C   0  0  0  0  0  0  0  0  0  0  0  0
   50.4400  -14.3780   -6.7165 C   0  0  0  0  0  0  0  0  0  0  0  0
   48.1335  -18.5318   -6.7150 H   0  0  0  0  0  0  0  0  0  0  0  0
   51.5440  -18.2644   -6.0388 H   0  0  0  0  0  0  0  0  0  0  0  0
   51.1767  -20.0413   -7.5039 H   0  0  0  0  0  0  0  0  0  0  0  0
   43.5620  -20.3534   -6.4385 H   0  0  0  0  0  0  0  0  0  0  0  0
   46.2030  -17.0200   -6.4885 H   0  0  0  0  0  0  0  0  0  0  0  0
   46.0483  -16.9024   -8.2638 H   0  0  0  0  0  0  0  0  0  0  0  0
   47.3031  -15.0865   -7.7561 H   0  0  0  0  0  0  0  0  0  0  0  0
   46.7699  -17.8332  -10.1088 H   0  0  0  0  0  0  0  0  0  0  0  0
   51.9812  -15.7990   -6.2840 H   0  0  0  0  0  0  0  0  0  0  0  0
   51.0659  -20.2971  -10.0024 H   0  0  0  0  0  0  0  0  0  0  0  0
   43.7876  -17.9593   -8.1956 H   0  0  0  0  0  0  0  0  0  0  0  0
   43.8853  -18.0144   -6.3878 H   0  0  0  0  0  0  0  0  0  0  0  0
   41.3550  -20.5442   -7.3135 H   0  0  0  0  0  0  0  0  0  0  0  0
   41.6177  -19.0454   -8.2693 H   0  0  0  0  0  0  0  0  0  0  0  0
   41.6042  -18.9789   -6.4520 H   0  0  0  0  0  0  0  0  0  0  0  0
   45.7865  -19.4455   -8.3533 H   0  0  0  0  0  0  0  0  0  0  0  0
   45.9091  -19.4821   -6.5575 H   0  0  0  0  0  0  0  0  0  0  0  0
   48.7396  -13.1799   -7.2524 H   0  0  0  0  0  0  0  0  0  0  0  0
   47.5979  -18.9458  -12.1106 H   0  0  0  0  0  0  0  0  0  0  0  0
   49.7241  -20.2065  -12.0619 H   0  0  0  0  0  0  0  0  0  0  0  0
   51.0667  -13.5247   -6.4912 H   0  0  0  0  0  0  0  0  0  0  0  0
  2  1  1  0
  3  1  1  0
  4  6  1  0
  5  7  1  0
  6  2  2  0
  7  3  2  0
  8 14  1  0
  9  1  1  0
 10  2  1  0
 11  3  1  0
 12  6  1  0
 13  7  1  0
 14 16  1  0
 15  8  1  0
 16  9  1  0
 17 10  2  0
 18 11  2  0
 19 18  1  0
 20 17  1  0
  5  4  2  0
 19 13  2  0
 20 12  2  0
  1 21  1  0
  4 22  1  0
  5 23  1  0
  8 24  1  0
  9 25  1  0
  9 26  1  0
 10 27  1  0
 11 28  1  0
 12 29  1  0
 13 30  1  0
 14 31  1  0
 14 32  1  0
 15 33  1  0
 15 34  1  0
 15 35  1  0
 16 36  1  0
 16 37  1  0
 17 38  1  0
 18 39  1  0
 19 40  1  0
 20 41  1  0
M  END
> <Uni-Dock RESULT> 
ENERGY=   -4.074  LOWER_BOUND=    2.558  UPPER_BOUND=    5.099
INTER + INTRA:          -4.074
INTER:                  -4.074
INTRA:                   0.000
UNBOUND:                 0.000

$$$$
