
     RDKit          3D

 41 43  0  0  0  0  0  0  0  0999 V2000
   50.1394  -17.6886   -7.4375 C   0  0  0  0  0  0  0  0  0  0  0  0
   51.0816  -16.9569   -6.5003 C   0  0  0  0  0  0  0  0  0  0  0  0
   48.6963  -17.3869   -7.0850 C   0  0  0  0  0  0  0  0  0  0  0  0
   50.2306  -14.6471   -7.1808 C   0  0  0  0  0  0  0  0  0  0  0  0
   48.9498  -14.8776   -7.4924 C   0  0  0  0  0  0  0  0  0  0  0  0
   51.1118  -15.5425   -6.3991 C   0  0  0  0  0  0  0  0  0  0  0  0
   48.1624  -16.0728   -7.1161 C   0  0  0  0  0  0  0  0  0  0  0  0
   53.4057  -18.2748  -11.2099 N   0  0  0  0  0  0  0  0  0  0  0  0
   50.4403  -17.4400   -8.9345 C   0  0  0  0  0  0  0  0  0  0  0  0
   51.9864  -17.7150   -5.7287 C   0  0  0  0  0  0  0  0  0  0  0  0
   47.8467  -18.4594   -6.7423 C   0  0  0  0  0  0  0  0  0  0  0  0
   52.0640  -14.9335   -5.5628 C   0  0  0  0  0  0  0  0  0  0  0  0
   46.7976  -15.8784   -6.8386 C   0  0  0  0  0  0  0  0  0  0  0  0
   52.0953  -17.7270  -10.8291 C   0  0  0  0  0  0  0  0  0  0  0  0
   54.4744  -17.2892  -11.0237 C   0  0  0  0  0  0  0  0  0  0  0  0
   51.8408  -17.9332   -9.3314 C   0  0  0  0  0  0  0  0  0  0  0  0
   52.9085  -17.0912   -4.8887 C   0  0  0  0  0  0  0  0  0  0  0  0
   46.5007  -18.2412   -6.4490 C   0  0  0  0  0  0  0  0  0  0  0  0
   45.9760  -16.9531   -6.5006 C   0  0  0  0  0  0  0  0  0  0  0  0
   52.9500  -15.7023   -4.8088 C   0  0  0  0  0  0  0  0  0  0  0  0
   50.2953  -18.7822   -7.2941 H   0  0  0  0  0  0  0  0  0  0  0  0
   50.6301  -13.6755   -7.4488 H   0  0  0  0  0  0  0  0  0  0  0  0
   48.4165  -14.0733   -7.9868 H   0  0  0  0  0  0  0  0  0  0  0  0
   53.3738  -18.5022  -12.2316 H   0  0  0  0  0  0  0  0  0  0  0  0
   50.3518  -16.3671   -9.1957 H   0  0  0  0  0  0  0  0  0  0  0  0
   49.6854  -17.9895   -9.5398 H   0  0  0  0  0  0  0  0  0  0  0  0
   51.9892  -18.7965   -5.7833 H   0  0  0  0  0  0  0  0  0  0  0  0
   48.2223  -19.4745   -6.7078 H   0  0  0  0  0  0  0  0  0  0  0  0
   52.1156  -13.8538   -5.4853 H   0  0  0  0  0  0  0  0  0  0  0  0
   46.3666  -14.8848   -6.8743 H   0  0  0  0  0  0  0  0  0  0  0  0
   52.0103  -16.6478  -11.0928 H   0  0  0  0  0  0  0  0  0  0  0  0
   51.3030  -18.2664  -11.3953 H   0  0  0  0  0  0  0  0  0  0  0  0
   54.2986  -16.3881  -11.6520 H   0  0  0  0  0  0  0  0  0  0  0  0
   54.5552  -16.9925   -9.9573 H   0  0  0  0  0  0  0  0  0  0  0  0
   55.4437  -17.7399  -11.3243 H   0  0  0  0  0  0  0  0  0  0  0  0
   52.6037  -17.3765   -8.7478 H   0  0  0  0  0  0  0  0  0  0  0  0
   51.9361  -19.0151   -9.0930 H   0  0  0  0  0  0  0  0  0  0  0  0
   53.5982  -17.6870   -4.3049 H   0  0  0  0  0  0  0  0  0  0  0  0
   45.8615  -19.0751   -6.1886 H   0  0  0  0  0  0  0  0  0  0  0  0
   44.9295  -16.7863   -6.2805 H   0  0  0  0  0  0  0  0  0  0  0  0
   53.6717  -15.2191   -4.1627 H   0  0  0  0  0  0  0  0  0  0  0  0
  2  1  1  0
  3  1  1  0
  4  6  1  0
  5  7  1  0
  6  2  2  0
  7  3  2  0
  8 14  1  0
  9  1  1  0
 10  2  1  0
 11  3  1  0
 12  6  1  0
 13  7  1  0
 14 16  1  0
 15  8  1  0
 16  9  1  0
 17 10  2  0
 18 11  2  0
 19 18  1  0
 20 17  1  0
  5  4  2  0
 19 13  2  0
 20 12  2  0
  1 21  1  0
  4 22  1  0
  5 23  1  0
  8 24  1  0
  9 25  1  0
  9 26  1  0
 10 27  1  0
 11 28  1  0
 12 29  1  0
 13 30  1  0
 14 31  1  0
 14 32  1  0
 15 33  1  0
 15 34  1  0
 15 35  1  0
 16 36  1  0
 16 37  1  0
 17 38  1  0
 18 39  1  0
 19 40  1  0
 20 41  1  0
M  END
> <Uni-Dock RESULT> 
ENERGY=   -6.227  LOWER_BOUND=    0.000  UPPER_BOUND=    0.000
INTER + INTRA:          -6.227
INTER:                  -6.227
INTRA:                   0.000
UNBOUND:                 0.000

$$$$

     RDKit          3D

 41 43  0  0  0  0  0  0  0  0999 V2000
   50.1114  -16.2082   -7.6034 C   0  0  0  0  0  0  0  0  0  0  0  0
   48.7029  -16.5910   -7.1895 C   0  0  0  0  0  0  0  0  0  0  0  0
   51.0977  -16.5311   -6.4985 C   0  0  0  0  0  0  0  0  0  0  0  0
   49.2808  -19.0620   -6.9026 C   0  0  0  0  0  0  0  0  0  0  0  0
   50.5656  -19.0297   -6.5294 C   0  0  0  0  0  0  0  0  0  0  0  0
   48.3359  -17.9237   -6.8723 C   0  0  0  0  0  0  0  0  0  0  0  0
   51.2939  -17.8496   -6.0127 C   0  0  0  0  0  0  0  0  0  0  0  0
   49.3188  -16.3357  -12.5630 N   0  0  0  0  0  0  0  0  0  0  0  0
   50.5401  -16.8070   -8.9638 C   0  0  0  0  0  0  0  0  0  0  0  0
   47.7146  -15.5855   -7.1560 C   0  0  0  0  0  0  0  0  0  0  0  0
   51.8700  -15.4832   -5.9554 C   0  0  0  0  0  0  0  0  0  0  0  0
   46.9938  -18.2135   -6.5694 C   0  0  0  0  0  0  0  0  0  0  0  0
   52.2729  -18.0818   -5.0303 C   0  0  0  0  0  0  0  0  0  0  0  0
   50.1282  -16.8769  -11.4611 C   0  0  0  0  0  0  0  0  0  0  0  0
   48.1194  -17.1453  -12.7963 C   0  0  0  0  0  0  0  0  0  0  0  0
   49.6511  -16.3149  -10.1169 C   0  0  0  0  0  0  0  0  0  0  0  0
   46.3931  -15.8911   -6.8316 C   0  0  0  0  0  0  0  0  0  0  0  0
   52.8204  -15.7326   -4.9655 C   0  0  0  0  0  0  0  0  0  0  0  0
   53.0242  -17.0306   -4.5062 C   0  0  0  0  0  0  0  0  0  0  0  0
   46.0323  -17.2039   -6.5426 C   0  0  0  0  0  0  0  0  0  0  0  0
   50.1346  -15.1054   -7.7582 H   0  0  0  0  0  0  0  0  0  0  0  0
   48.8738  -20.0321   -7.1647 H   0  0  0  0  0  0  0  0  0  0  0  0
   51.0937  -19.9766   -6.5193 H   0  0  0  0  0  0  0  0  0  0  0  0
   49.8941  -16.3824  -13.4367 H   0  0  0  0  0  0  0  0  0  0  0  0
   50.5219  -17.9145   -8.9460 H   0  0  0  0  0  0  0  0  0  0  0  0
   51.5895  -16.4983   -9.1676 H   0  0  0  0  0  0  0  0  0  0  0  0
   47.9622  -14.5583   -7.3932 H   0  0  0  0  0  0  0  0  0  0  0  0
   51.7445  -14.4651   -6.3026 H   0  0  0  0  0  0  0  0  0  0  0  0
   46.6894  -19.2284   -6.3421 H   0  0  0  0  0  0  0  0  0  0  0  0
   52.4504  -19.0842   -4.6587 H   0  0  0  0  0  0  0  0  0  0  0  0
   50.1070  -17.9908  -11.4461 H   0  0  0  0  0  0  0  0  0  0  0  0
   51.1880  -16.5710  -11.6110 H   0  0  0  0  0  0  0  0  0  0  0  0
   48.3907  -18.1892  -13.0684 H   0  0  0  0  0  0  0  0  0  0  0  0
   47.4665  -17.1496  -11.8988 H   0  0  0  0  0  0  0  0  0  0  0  0
   47.5394  -16.7060  -13.6350 H   0  0  0  0  0  0  0  0  0  0  0  0
   48.6041  -16.6353   -9.9341 H   0  0  0  0  0  0  0  0  0  0  0  0
   49.6766  -15.2039  -10.1588 H   0  0  0  0  0  0  0  0  0  0  0  0
   45.6456  -15.1085   -6.8129 H   0  0  0  0  0  0  0  0  0  0  0  0
   53.4057  -14.9175   -4.5596 H   0  0  0  0  0  0  0  0  0  0  0  0
   53.7677  -17.2238   -3.7437 H   0  0  0  0  0  0  0  0  0  0  0  0
   45.0046  -17.4411   -6.2991 H   0  0  0  0  0  0  0  0  0  0  0  0
  2  1  1  0
  3  1  1  0
  4  6  1  0
  5  7  1  0
  6  2  2  0
  7  3  2  0
  8 14  1  0
  9  1  1  0
 10  2  1  0
 11  3  1  0
 12  6  1  0
 13  7  1  0
 14 16  1  0
 15  8  1  0
 16  9  1  0
 17 10  2  0
 18 11  2  0
 19 18  1  0
 20 17  1  0
  5  4  2  0
 19 13  2  0
 20 12  2  0
  1 21  1  0
  4 22  1  0
  5 23  1  0
  8 24  1  0
  9 25  1  0
  9 26  1  0
 10 27  1  0
 11 28  1  0
 12 29  1  0
 13 30  1  0
 14 31  1  0
 14 32  1  0
 15 33  1  0
 15 34  1  0
 15 35  1  0
 16 36  1  0
 16 37  1  0
 17 38  1  0
 18 39  1  0
 19 40  1  0
 20 41  1  0
M  END
> <Uni-Dock RESULT> 
ENERGY=   -5.801  LOWER_BOUND=    1.769  UPPER_BOUND=    4.963
INTER + INTRA:          -5.801
INTER:                  -5.801
INTRA:                   0.000
UNBOUND:                 0.000

$$$$

     RDKit          3D

 41 43  0  0  0  0  0  0  0  0999 V2000
   46.9409  -15.7276  -10.5242 C   0  0  0  0  0  0  0  0  0  0  0  0
   45.6409  -15.5913  -11.2942 C   0  0  0  0  0  0  0  0  0  0  0  0
   46.6782  -16.2366   -9.1207 C   0  0  0  0  0  0  0  0  0  0  0  0
   45.0731  -18.0737  -11.1003 C   0  0  0  0  0  0  0  0  0  0  0  0
   45.6278  -18.4195   -9.9326 C   0  0  0  0  0  0  0  0  0  0  0  0
   44.7891  -16.6948  -11.5555 C   0  0  0  0  0  0  0  0  0  0  0  0
   46.0659  -17.4911   -8.8667 C   0  0  0  0  0  0  0  0  0  0  0  0
   49.9552  -16.0987  -14.5265 N   0  0  0  0  0  0  0  0  0  0  0  0
   48.0104  -16.5683  -11.2609 C   0  0  0  0  0  0  0  0  0  0  0  0
   45.2880  -14.3230  -11.7998 C   0  0  0  0  0  0  0  0  0  0  0  0
   47.0862  -15.4440   -8.0277 C   0  0  0  0  0  0  0  0  0  0  0  0
   43.6378  -16.5037  -12.3399 C   0  0  0  0  0  0  0  0  0  0  0  0
   45.9129  -17.9249   -7.5378 C   0  0  0  0  0  0  0  0  0  0  0  0
   49.5183  -16.7564  -13.2861 C   0  0  0  0  0  0  0  0  0  0  0  0
   49.1253  -16.4976  -15.6670 C   0  0  0  0  0  0  0  0  0  0  0  0
   48.4191  -15.9363  -12.6009 C   0  0  0  0  0  0  0  0  0  0  0  0
   44.1297  -14.1513  -12.5574 C   0  0  0  0  0  0  0  0  0  0  0  0
   46.9047  -15.8841   -6.7166 C   0  0  0  0  0  0  0  0  0  0  0  0
   46.3222  -17.1243   -6.4721 C   0  0  0  0  0  0  0  0  0  0  0  0
   43.3078  -15.2408  -12.8305 C   0  0  0  0  0  0  0  0  0  0  0  0
   47.3913  -14.7131  -10.4312 H   0  0  0  0  0  0  0  0  0  0  0  0
   44.7177  -18.8822  -11.7293 H   0  0  0  0  0  0  0  0  0  0  0  0
   45.6757  -19.4798   -9.7113 H   0  0  0  0  0  0  0  0  0  0  0  0
   50.9312  -16.4174  -14.7322 H   0  0  0  0  0  0  0  0  0  0  0  0
   47.6599  -17.6028  -11.4457 H   0  0  0  0  0  0  0  0  0  0  0  0
   48.9111  -16.6370  -10.6111 H   0  0  0  0  0  0  0  0  0  0  0  0
   45.9170  -13.4604  -11.6182 H   0  0  0  0  0  0  0  0  0  0  0  0
   47.5553  -14.4810   -8.1863 H   0  0  0  0  0  0  0  0  0  0  0  0
   42.9836  -17.3374  -12.5663 H   0  0  0  0  0  0  0  0  0  0  0  0
   45.4638  -18.8875   -7.3232 H   0  0  0  0  0  0  0  0  0  0  0  0
   49.1661  -17.7962  -13.4760 H   0  0  0  0  0  0  0  0  0  0  0  0
   50.3861  -16.8256  -12.5923 H   0  0  0  0  0  0  0  0  0  0  0  0
   49.1844  -17.5953  -15.8374 H   0  0  0  0  0  0  0  0  0  0  0  0
   48.0681  -16.1994  -15.5082 H   0  0  0  0  0  0  0  0  0  0  0  0
   49.4887  -15.9829  -16.5812 H   0  0  0  0  0  0  0  0  0  0  0  0
   47.5315  -15.8816  -13.2654 H   0  0  0  0  0  0  0  0  0  0  0  0
   48.7925  -14.9034  -12.4270 H   0  0  0  0  0  0  0  0  0  0  0  0
   43.8740  -13.1719  -12.9407 H   0  0  0  0  0  0  0  0  0  0  0  0
   47.2240  -15.2644   -5.8886 H   0  0  0  0  0  0  0  0  0  0  0  0
   46.1893  -17.4681   -5.4544 H   0  0  0  0  0  0  0  0  0  0  0  0
   42.4135  -15.1078  -13.4256 H   0  0  0  0  0  0  0  0  0  0  0  0
  2  1  1  0
  3  1  1  0
  4  6  1  0
  5  7  1  0
  6  2  2  0
  7  3  2  0
  8 14  1  0
  9  1  1  0
 10  2  1  0
 11  3  1  0
 12  6  1  0
 13  7  1  0
 14 16  1  0
 15  8  1  0
 16  9  1  0
 17 10  2  0
 18 11  2  0
 19 18  1  0
 20 17  1  0
  5  4  2  0
 19 13  2  0
 20 12  2  0
  1 21  1  0
  4 22  1  0
  5 23  1  0
  8 24  1  0
  9 25  1  0
  9 26  1  0
 10 27  1  0
 11 28  1  0
 12 29  1  0
 13 30  1  0
 14 31  1  0
 14 32  1  0
 15 33  1  0
 15 34  1  0
 15 35  1  0
 16 36  1  0
 16 37  1  0
 17 38  1  0
 18 39  1  0
 19 40  1  0
 20 41  1  0
M  END
> <Uni-Dock RESULT> 
ENERGY=   -4.775  LOWER_BOUND=    4.357  UPPER_BOUND=    6.768
INTER + INTRA:          -4.775
INTER:                  -4.775
INTRA:                   0.000
UNBOUND:                 0.000

$$$$

     RDKit          3D

 41 43  0  0  0  0  0  0  0  0999 V2000
   47.8307  -18.3408   -8.0801 C   0  0  0  0  0  0  0  0  0  0  0  0
   47.2738  -17.6032   -9.2832 C   0  0  0  0  0  0  0  0  0  0  0  0
   49.1554  -17.7401   -7.6532 C   0  0  0  0  0  0  0  0  0  0  0  0
   47.1366  -15.3671   -8.0572 C   0  0  0  0  0  0  0  0  0  0  0  0
   48.1480  -15.4396   -7.1839 C   0  0  0  0  0  0  0  0  0  0  0  0
   46.9532  -16.2220   -9.2508 C   0  0  0  0  0  0  0  0  0  0  0  0
   49.2822  -16.3887   -7.2403 C   0  0  0  0  0  0  0  0  0  0  0  0
   43.4546  -20.1998   -6.4564 N   0  0  0  0  0  0  0  0  0  0  0  0
   46.8312  -18.4488   -6.9043 C   0  0  0  0  0  0  0  0  0  0  0  0
   47.0324  -18.3315  -10.4665 C   0  0  0  0  0  0  0  0  0  0  0  0
   50.2980  -18.5669   -7.6383 C   0  0  0  0  0  0  0  0  0  0  0  0
   46.3712  -15.6248  -10.3830 C   0  0  0  0  0  0  0  0  0  0  0  0
   50.5314  -15.9195   -6.7967 C   0  0  0  0  0  0  0  0  0  0  0  0
   44.6191  -19.3778   -6.0953 C   0  0  0  0  0  0  0  0  0  0  0  0
   42.3859  -19.3878   -7.0454 C   0  0  0  0  0  0  0  0  0  0  0  0
   45.5689  -19.2362   -7.2903 C   0  0  0  0  0  0  0  0  0  0  0  0
   46.4743  -17.7143  -11.5857 C   0  0  0  0  0  0  0  0  0  0  0  0
   51.5327  -18.0748   -7.2153 C   0  0  0  0  0  0  0  0  0  0  0  0
   51.6485  -16.7541   -6.7917 C   0  0  0  0  0  0  0  0  0  0  0  0
   46.1405  -16.3637  -11.5428 C   0  0  0  0  0  0  0  0  0  0  0  0
   48.0260  -19.3942   -8.3850 H   0  0  0  0  0  0  0  0  0  0  0  0
   46.4381  -14.5482   -7.9268 H   0  0  0  0  0  0  0  0  0  0  0  0
   48.1861  -14.6731   -6.4180 H   0  0  0  0  0  0  0  0  0  0  0  0
   43.0714  -20.6178   -5.5761 H   0  0  0  0  0  0  0  0  0  0  0  0
   46.5296  -17.4500   -6.5322 H   0  0  0  0  0  0  0  0  0  0  0  0
   47.3349  -18.9752   -6.0633 H   0  0  0  0  0  0  0  0  0  0  0  0
   47.2657  -19.3874  -10.5237 H   0  0  0  0  0  0  0  0  0  0  0  0
   50.2364  -19.6027   -7.9484 H   0  0  0  0  0  0  0  0  0  0  0  0
   46.1021  -14.5751  -10.3723 H   0  0  0  0  0  0  0  0  0  0  0  0
   50.6452  -14.8956   -6.4606 H   0  0  0  0  0  0  0  0  0  0  0  0
   44.3119  -18.3740   -5.7220 H   0  0  0  0  0  0  0  0  0  0  0  0
   45.1702  -19.8804   -5.2689 H   0  0  0  0  0  0  0  0  0  0  0  0
   42.0334  -18.6136   -6.3285 H   0  0  0  0  0  0  0  0  0  0  0  0
   42.7309  -18.9020   -7.9818 H   0  0  0  0  0  0  0  0  0  0  0  0
   41.5270  -20.0435   -7.3005 H   0  0  0  0  0  0  0  0  0  0  0  0
   45.0468  -18.7086   -8.1157 H   0  0  0  0  0  0  0  0  0  0  0  0
   45.8566  -20.2495   -7.6469 H   0  0  0  0  0  0  0  0  0  0  0  0
   46.2926  -18.2876  -12.4856 H   0  0  0  0  0  0  0  0  0  0  0  0
   52.4000  -18.7224   -7.2090 H   0  0  0  0  0  0  0  0  0  0  0  0
   52.6054  -16.3758   -6.4561 H   0  0  0  0  0  0  0  0  0  0  0  0
   45.6998  -15.8878  -12.4094 H   0  0  0  0  0  0  0  0  0  0  0  0
  2  1  1  0
  3  1  1  0
  4  6  1  0
  5  7  1  0
  6  2  2  0
  7  3  2  0
  8 14  1  0
  9  1  1  0
 10  2  1  0
 11  3  1  0
 12  6  1  0
 13  7  1  0
 14 16  1  0
 15  8  1  0
 16  9  1  0
 17 10  2  0
 18 11  2  0
 19 18  1  0
 20 17  1  0
  5  4  2  0
 19 13  2  0
 20 12  2  0
  1 21  1  0
  4 22  1  0
  5 23  1  0
  8 24  1  0
  9 25  1  0
  9 26  1  0
 10 27  1  0
 11 28  1  0
 12 29  1  0
 13 30  1  0
 14 31  1  0
 14 32  1  0
 15 33  1  0
 15 34  1  0
 15 35  1  0
 16 36  1  0
 16 37  1  0
 17 38  1  0
 18 39  1  0
 19 40  1  0
 20 41  1  0
M  END
> <Uni-Dock RESULT> 
ENERGY=   -4.480  LOWER_BOUND=    3.519  UPPER_BOUND=    6.580
INTER + INTRA:          -4.480
INTER:                  -4.480
INTRA:                   0.000
UNBOUND:                 0.000

$$$$

     RDKit          3D

 41 43  0  0  0  0  0  0  0  0999 V2000
   48.0094  -18.3033   -7.8455 C   0  0  0  0  0  0  0  0  0  0  0  0
   47.5008  -17.7694   -9.1714 C   0  0  0  0  0  0  0  0  0  0  0  0
   49.2662  -17.5690   -7.4222 C   0  0  0  0  0  0  0  0  0  0  0  0
   47.1569  -15.4027   -8.2756 C   0  0  0  0  0  0  0  0  0  0  0  0
   48.1060  -15.2943   -7.3384 C   0  0  0  0  0  0  0  0  0  0  0  0
   47.1051  -16.4192   -9.3496 C   0  0  0  0  0  0  0  0  0  0  0  0
   49.2906  -16.1692   -7.1919 C   0  0  0  0  0  0  0  0  0  0  0  0
   43.6348  -20.1999   -6.2617 N   0  0  0  0  0  0  0  0  0  0  0  0
   46.9359  -18.3158   -6.7316 C   0  0  0  0  0  0  0  0  0  0  0  0
   47.3836  -18.6629  -10.2562 C   0  0  0  0  0  0  0  0  0  0  0  0
   50.4476  -18.3130   -7.2216 C   0  0  0  0  0  0  0  0  0  0  0  0
   46.5740  -16.0162  -10.5876 C   0  0  0  0  0  0  0  0  0  0  0  0
   50.4781  -15.5675   -6.7389 C   0  0  0  0  0  0  0  0  0  0  0  0
   44.7248  -19.2655   -5.9440 C   0  0  0  0  0  0  0  0  0  0  0  0
   42.5687  -19.5425   -7.0231 C   0  0  0  0  0  0  0  0  0  0  0  0
   45.7484  -19.2254   -7.0847 C   0  0  0  0  0  0  0  0  0  0  0  0
   46.8744  -18.2370  -11.4827 C   0  0  0  0  0  0  0  0  0  0  0  0
   51.6208  -17.6922   -6.7930 C   0  0  0  0  0  0  0  0  0  0  0  0
   51.6351  -16.3221   -6.5485 C   0  0  0  0  0  0  0  0  0  0  0  0
   46.4664  -16.9165  -11.6470 C   0  0  0  0  0  0  0  0  0  0  0  0
   48.2821  -19.3735   -7.9896 H   0  0  0  0  0  0  0  0  0  0  0  0
   46.4080  -14.6192   -8.3036 H   0  0  0  0  0  0  0  0  0  0  0  0
   48.0483  -14.4314   -6.6844 H   0  0  0  0  0  0  0  0  0  0  0  0
   43.2128  -20.5197   -5.3583 H   0  0  0  0  0  0  0  0  0  0  0  0
   46.5555  -17.2972   -6.5202 H   0  0  0  0  0  0  0  0  0  0  0  0
   47.4060  -18.6925   -5.7960 H   0  0  0  0  0  0  0  0  0  0  0  0
   47.6767  -19.7003  -10.1527 H   0  0  0  0  0  0  0  0  0  0  0  0
   50.4638  -19.3827   -7.3895 H   0  0  0  0  0  0  0  0  0  0  0  0
   46.2490  -14.9935  -10.7384 H   0  0  0  0  0  0  0  0  0  0  0  0
   50.5126  -14.5028   -6.5403 H   0  0  0  0  0  0  0  0  0  0  0  0
   44.3384  -18.2421   -5.7326 H   0  0  0  0  0  0  0  0  0  0  0  0
   45.2419  -19.6176   -5.0232 H   0  0  0  0  0  0  0  0  0  0  0  0
   42.1250  -18.7032   -6.4433 H   0  0  0  0  0  0  0  0  0  0  0  0
   42.9529  -19.1654   -7.9937 H   0  0  0  0  0  0  0  0  0  0  0  0
   41.7665  -20.2790   -7.2395 H   0  0  0  0  0  0  0  0  0  0  0  0
   45.2588  -18.8466   -8.0062 H   0  0  0  0  0  0  0  0  0  0  0  0
   46.1146  -20.2572   -7.2796 H   0  0  0  0  0  0  0  0  0  0  0  0
   46.7882  -18.9357  -12.3049 H   0  0  0  0  0  0  0  0  0  0  0  0
   52.5189  -18.2774   -6.6429 H   0  0  0  0  0  0  0  0  0  0  0  0
   52.5441  -15.8430   -6.2083 H   0  0  0  0  0  0  0  0  0  0  0  0
   46.0636  -16.5892  -12.5969 H   0  0  0  0  0  0  0  0  0  0  0  0
  2  1  1  0
  3  1  1  0
  4  6  1  0
  5  7  1  0
  6  2  2  0
  7  3  2  0
  8 14  1  0
  9  1  1  0
 10  2  1  0
 11  3  1  0
 12  6  1  0
 13  7  1  0
 14 16  1  0
 15  8  1  0
 16  9  1  0
 17 10  2  0
 18 11  2  0
 19 18  1  0
 20 17  1  0
  5  4  2  0
 19 13  2  0
 20 12  2  0
  1 21  1  0
  4 22  1  0
  5 23  1  0
  8 24  1  0
  9 25  1  0
  9 26  1  0
 10 27  1  0
 11 28  1  0
 12 29  1  0
 13 30  1  0
 14 31  1  0
 14 32  1  0
 15 33  1  0
 15 34  1  0
 15 35  1  0
 16 36  1  0
 16 37  1  0
 17 38  1  0
 18 39  1  0
 19 40  1  0
 20 41  1  0
M  END
> <Uni-Dock RESULT> 
ENERGY=   -4.390  LOWER_BOUND=    3.455  UPPER_BOUND=    6.497
INTER + INTRA:          -4.390
INTER:                  -4.390
INTRA:                   0.000
UNBOUND:                 0.000

$$$$

     RDKit          3D

 41 43  0  0  0  0  0  0  0  0999 V2000
   46.1233  -18.5255  -10.1358 C   0  0  0  0  0  0  0  0  0  0  0  0
   46.2575  -17.6768   -8.8855 C   0  0  0  0  0  0  0  0  0  0  0  0
   44.9667  -18.0405  -10.9873 C   0  0  0  0  0  0  0  0  0  0  0  0
   46.6666  -15.5210  -10.1921 C   0  0  0  0  0  0  0  0  0  0  0  0
   45.9718  -15.7153  -11.3192 C   0  0  0  0  0  0  0  0  0  0  0  0
   46.5147  -16.2829   -8.9328 C   0  0  0  0  0  0  0  0  0  0  0  0
   44.9148  -16.7298  -11.5279 C   0  0  0  0  0  0  0  0  0  0  0  0
   50.8595  -20.2000  -10.2174 N   0  0  0  0  0  0  0  0  0  0  0  0
   47.4361  -18.6451  -10.9454 C   0  0  0  0  0  0  0  0  0  0  0  0
   46.1587  -18.3095   -7.6290 C   0  0  0  0  0  0  0  0  0  0  0  0
   43.9181  -18.9386  -11.2763 C   0  0  0  0  0  0  0  0  0  0  0  0
   46.7002  -15.5769   -7.7310 C   0  0  0  0  0  0  0  0  0  0  0  0
   43.8406  -16.3721  -12.3620 C   0  0  0  0  0  0  0  0  0  0  0  0
   49.8263  -19.4800  -10.9764 C   0  0  0  0  0  0  0  0  0  0  0  0
   51.6641  -19.2841   -9.4037 C   0  0  0  0  0  0  0  0  0  0  0  0
   48.5535  -19.3226  -10.1364 C   0  0  0  0  0  0  0  0  0  0  0  0
   46.3245  -17.5861   -6.4482 C   0  0  0  0  0  0  0  0  0  0  0  0
   42.8506  -18.5556  -12.0882 C   0  0  0  0  0  0  0  0  0  0  0  0
   42.8136  -17.2755  -12.6332 C   0  0  0  0  0  0  0  0  0  0  0  0
   46.5988  -16.2225   -6.4991 C   0  0  0  0  0  0  0  0  0  0  0  0
   45.8890  -19.5672   -9.8187 H   0  0  0  0  0  0  0  0  0  0  0  0
   47.3368  -14.6690  -10.1736 H   0  0  0  0  0  0  0  0  0  0  0  0
   46.1359  -15.0042  -12.1211 H   0  0  0  0  0  0  0  0  0  0  0  0
   51.5089  -20.6487  -10.9054 H   0  0  0  0  0  0  0  0  0  0  0  0
   47.7943  -17.6552  -11.2903 H   0  0  0  0  0  0  0  0  0  0  0  0
   47.2338  -19.2564  -11.8529 H   0  0  0  0  0  0  0  0  0  0  0  0
   45.9634  -19.3723   -7.5585 H   0  0  0  0  0  0  0  0  0  0  0  0
   43.9260  -19.9458  -10.8787 H   0  0  0  0  0  0  0  0  0  0  0  0
   46.9156  -14.5150   -7.7460 H   0  0  0  0  0  0  0  0  0  0  0  0
   43.7914  -15.3817  -12.7990 H   0  0  0  0  0  0  0  0  0  0  0  0
   50.1899  -18.4849  -11.3211 H   0  0  0  0  0  0  0  0  0  0  0  0
   49.5734  -20.0698  -11.8861 H   0  0  0  0  0  0  0  0  0  0  0  0
   52.1849  -18.5371  -10.0427 H   0  0  0  0  0  0  0  0  0  0  0  0
   51.0313  -18.7617   -8.6564 H   0  0  0  0  0  0  0  0  0  0  0  0
   52.4318  -19.8651   -8.8505 H   0  0  0  0  0  0  0  0  0  0  0  0
   48.7780  -18.7099   -9.2384 H   0  0  0  0  0  0  0  0  0  0  0  0
   48.2139  -20.3270   -9.8010 H   0  0  0  0  0  0  0  0  0  0  0  0
   46.2483  -18.0867   -5.4916 H   0  0  0  0  0  0  0  0  0  0  0  0
   42.0540  -19.2569  -12.3012 H   0  0  0  0  0  0  0  0  0  0  0  0
   41.9887  -16.9824  -13.2696 H   0  0  0  0  0  0  0  0  0  0  0  0
   46.7354  -15.6638   -5.5821 H   0  0  0  0  0  0  0  0  0  0  0  0
  2  1  1  0
  3  1  1  0
  4  6  1  0
  5  7  1  0
  6  2  2  0
  7  3  2  0
  8 14  1  0
  9  1  1  0
 10  2  1  0
 11  3  1  0
 12  6  1  0
 13  7  1  0
 14 16  1  0
 15  8  1  0
 16  9  1  0
 17 10  2  0
 18 11  2  0
 19 18  1  0
 20 17  1  0
  5  4  2  0
 19 13  2  0
 20 12  2  0
  1 21  1  0
  4 22  1  0
  5 23  1  0
  8 24  1  0
  9 25  1  0
  9 26  1  0
 10 27  1  0
 11 28  1  0
 12 29  1  0
 13 30  1  0
 14 31  1  0
 14 32  1  0
 15 33  1  0
 15 34  1  0
 15 35  1  0
 16 36  1  0
 16 37  1  0
 17 38  1  0
 18 39  1  0
 19 40  1  0
 20 41  1  0
M  END
> <Uni-Dock RESULT> 
ENERGY=   -4.211  LOWER_BOUND=    3.962  UPPER_BOUND=    5.386
INTER + INTRA:          -4.211
INTER:                  -4.211
INTRA:                   0.000
UNBOUND:                 0.000

$$$$

     RDKit          3D

 41 43  0  0  0  0  0  0  0  0999 V2000
   46.6195  -16.0327   -9.4507 C   0  0  0  0  0  0  0  0  0  0  0  0
   47.9268  -15.8690   -8.6985 C   0  0  0  0  0  0  0  0  0  0  0  0
   46.7919  -15.6522  -10.9079 C   0  0  0  0  0  0  0  0  0  0  0  0
   49.1667  -17.5647  -10.1509 C   0  0  0  0  0  0  0  0  0  0  0  0
   48.5591  -17.4466  -11.3374 C   0  0  0  0  0  0  0  0  0  0  0  0
   49.0981  -16.5936   -9.0365 C   0  0  0  0  0  0  0  0  0  0  0  0
   47.6996  -16.3217  -11.7686 C   0  0  0  0  0  0  0  0  0  0  0  0
   44.5369  -19.3380   -6.2915 N   0  0  0  0  0  0  0  0  0  0  0  0
   45.9810  -17.4318   -9.2829 C   0  0  0  0  0  0  0  0  0  0  0  0
   47.9640  -14.9882   -7.5977 C   0  0  0  0  0  0  0  0  0  0  0  0
   45.9966  -14.6122  -11.4327 C   0  0  0  0  0  0  0  0  0  0  0  0
   50.2514  -16.4434   -8.2462 C   0  0  0  0  0  0  0  0  0  0  0  0
   47.7584  -15.9553  -13.1250 C   0  0  0  0  0  0  0  0  0  0  0  0
   44.9436  -19.0988   -7.6842 C   0  0  0  0  0  0  0  0  0  0  0  0
   45.6201  -19.9448   -5.5125 C   0  0  0  0  0  0  0  0  0  0  0  0
   45.6245  -17.7318   -7.8183 C   0  0  0  0  0  0  0  0  0  0  0  0
   49.1252  -14.8378   -6.8402 C   0  0  0  0  0  0  0  0  0  0  0  0
   46.0870  -14.2500  -12.7766 C   0  0  0  0  0  0  0  0  0  0  0  0
   46.9639  -14.9229  -13.6224 C   0  0  0  0  0  0  0  0  0  0  0  0
   50.2662  -15.5673   -7.1615 C   0  0  0  0  0  0  0  0  0  0  0  0
   45.8795  -15.3277   -9.0081 H   0  0  0  0  0  0  0  0  0  0  0  0
   49.8424  -18.4040  -10.0309 H   0  0  0  0  0  0  0  0  0  0  0  0
   48.7931  -18.1998  -12.0814 H   0  0  0  0  0  0  0  0  0  0  0  0
   43.7459  -20.0241   -6.3016 H   0  0  0  0  0  0  0  0  0  0  0  0
   46.6476  -18.2323   -9.6597 H   0  0  0  0  0  0  0  0  0  0  0  0
   45.0490  -17.4669   -9.8898 H   0  0  0  0  0  0  0  0  0  0  0  0
   47.0867  -14.4206   -7.3134 H   0  0  0  0  0  0  0  0  0  0  0  0
   45.2948  -14.0798  -10.8029 H   0  0  0  0  0  0  0  0  0  0  0  0
   51.1511  -17.0017   -8.4768 H   0  0  0  0  0  0  0  0  0  0  0  0
   48.4322  -16.4661  -13.8027 H   0  0  0  0  0  0  0  0  0  0  0  0
   45.6143  -19.9055   -8.0594 H   0  0  0  0  0  0  0  0  0  0  0  0
   44.0356  -19.1012   -8.3282 H   0  0  0  0  0  0  0  0  0  0  0  0
   45.9177  -20.9267   -5.9423 H   0  0  0  0  0  0  0  0  0  0  0  0
   46.5011  -19.2711   -5.4717 H   0  0  0  0  0  0  0  0  0  0  0  0
   45.2725  -20.1112   -4.4711 H   0  0  0  0  0  0  0  0  0  0  0  0
   46.5507  -17.7197   -7.2065 H   0  0  0  0  0  0  0  0  0  0  0  0
   44.9385  -16.9456   -7.4335 H   0  0  0  0  0  0  0  0  0  0  0  0
   49.1370  -14.1598   -5.9965 H   0  0  0  0  0  0  0  0  0  0  0  0
   45.4691  -13.4502  -13.1642 H   0  0  0  0  0  0  0  0  0  0  0  0
   47.0271  -14.6461  -14.6668 H   0  0  0  0  0  0  0  0  0  0  0  0
   51.1644  -15.4558   -6.5677 H   0  0  0  0  0  0  0  0  0  0  0  0
  2  1  1  0
  3  1  1  0
  4  6  1  0
  5  7  1  0
  6  2  2  0
  7  3  2  0
  8 14  1  0
  9  1  1  0
 10  2  1  0
 11  3  1  0
 12  6  1  0
 13  7  1  0
 14 16  1  0
 15  8  1  0
 16  9  1  0
 17 10  2  0
 18 11  2  0
 19 18  1  0
 20 17  1  0
  5  4  2  0
 19 13  2  0
 20 12  2  0
  1 21  1  0
  4 22  1  0
  5 23  1  0
  8 24  1  0
  9 25  1  0
  9 26  1  0
 10 27  1  0
 11 28  1  0
 12 29  1  0
 13 30  1  0
 14 31  1  0
 14 32  1  0
 15 33  1  0
 15 34  1  0
 15 35  1  0
 16 36  1  0
 16 37  1  0
 17 38  1  0
 18 39  1  0
 19 40  1  0
 20 41  1  0
M  END
> <Uni-Dock RESULT> 
ENERGY=   -4.130  LOWER_BOUND=    3.952  UPPER_BOUND=    6.093
INTER + INTRA:          -4.130
INTER:                  -4.130
INTRA:                   0.000
UNBOUND:                 0.000

$$$$

     RDKit          3D

 41 43  0  0  0  0  0  0  0  0999 V2000
   49.6315  -18.1554   -7.2415 C   0  0  0  0  0  0  0  0  0  0  0  0
   49.6734  -17.8893   -8.7345 C   0  0  0  0  0  0  0  0  0  0  0  0
   50.7349  -17.3944   -6.5334 C   0  0  0  0  0  0  0  0  0  0  0  0
   49.2956  -15.3779   -8.4653 C   0  0  0  0  0  0  0  0  0  0  0  0
   49.8674  -15.1119   -7.2850 C   0  0  0  0  0  0  0  0  0  0  0  0
   49.5105  -16.5918   -9.2836 C   0  0  0  0  0  0  0  0  0  0  0  0
   50.8274  -15.9790   -6.5662 C   0  0  0  0  0  0  0  0  0  0  0  0
   44.8033  -19.5282   -7.0272 N   0  0  0  0  0  0  0  0  0  0  0  0
   48.2440  -17.8997   -6.6068 C   0  0  0  0  0  0  0  0  0  0  0  0
   49.8442  -18.9828   -9.6084 C   0  0  0  0  0  0  0  0  0  0  0  0
   51.6871  -18.1222   -5.7898 C   0  0  0  0  0  0  0  0  0  0  0  0
   49.4870  -16.4347  -10.6807 C   0  0  0  0  0  0  0  0  0  0  0  0
   51.8417  -15.3391   -5.8319 C   0  0  0  0  0  0  0  0  0  0  0  0
   45.8091  -18.5875   -6.5120 C   0  0  0  0  0  0  0  0  0  0  0  0
   44.1433  -19.0050   -8.2269 C   0  0  0  0  0  0  0  0  0  0  0  0
   47.1622  -18.8201   -7.1941 C   0  0  0  0  0  0  0  0  0  0  0  0
   49.8396  -18.8017  -10.9913 C   0  0  0  0  0  0  0  0  0  0  0  0
   52.6986  -17.4682   -5.0865 C   0  0  0  0  0  0  0  0  0  0  0  0
   52.7737  -16.0785   -5.1046 C   0  0  0  0  0  0  0  0  0  0  0  0
   49.6572  -17.5300  -11.5268 C   0  0  0  0  0  0  0  0  0  0  0  0
   49.8212  -19.2413   -7.0822 H   0  0  0  0  0  0  0  0  0  0  0  0
   48.6909  -14.5911   -8.9021 H   0  0  0  0  0  0  0  0  0  0  0  0
   49.6794  -14.1311   -6.8628 H   0  0  0  0  0  0  0  0  0  0  0  0
   44.0631  -19.6395   -6.2949 H   0  0  0  0  0  0  0  0  0  0  0  0
   47.9250  -16.8466   -6.7341 H   0  0  0  0  0  0  0  0  0  0  0  0
   48.3181  -18.0914   -5.5132 H   0  0  0  0  0  0  0  0  0  0  0  0
   49.9708  -19.9862   -9.2211 H   0  0  0  0  0  0  0  0  0  0  0  0
   51.6462  -19.2034   -5.7448 H   0  0  0  0  0  0  0  0  0  0  0  0
   49.3454  -15.4544  -11.1203 H   0  0  0  0  0  0  0  0  0  0  0  0
   51.9188  -14.2582   -5.8297 H   0  0  0  0  0  0  0  0  0  0  0  0
   45.4850  -17.5295   -6.6422 H   0  0  0  0  0  0  0  0  0  0  0  0
   45.9347  -18.7599   -5.4194 H   0  0  0  0  0  0  0  0  0  0  0  0
   43.6187  -18.0489   -8.0075 H   0  0  0  0  0  0  0  0  0  0  0  0
   44.8777  -18.8503   -9.0446 H   0  0  0  0  0  0  0  0  0  0  0  0
   43.3919  -19.7415   -8.5813 H   0  0  0  0  0  0  0  0  0  0  0  0
   47.0653  -18.6227   -8.2822 H   0  0  0  0  0  0  0  0  0  0  0  0
   47.4609  -19.8821   -7.0545 H   0  0  0  0  0  0  0  0  0  0  0  0
   49.9693  -19.6516  -11.6488 H   0  0  0  0  0  0  0  0  0  0  0  0
   53.4213  -18.0411   -4.5198 H   0  0  0  0  0  0  0  0  0  0  0  0
   53.5543  -15.5719   -4.5519 H   0  0  0  0  0  0  0  0  0  0  0  0
   49.6456  -17.3919  -12.6003 H   0  0  0  0  0  0  0  0  0  0  0  0
  2  1  1  0
  3  1  1  0
  4  6  1  0
  5  7  1  0
  6  2  2  0
  7  3  2  0
  8 14  1  0
  9  1  1  0
 10  2  1  0
 11  3  1  0
 12  6  1  0
 13  7  1  0
 14 16  1  0
 15  8  1  0
 16  9  1  0
 17 10  2  0
 18 11  2  0
 19 18  1  0
 20 17  1  0
  5  4  2  0
 19 13  2  0
 20 12  2  0
  1 21  1  0
  4 22  1  0
  5 23  1  0
  8 24  1  0
  9 25  1  0
  9 26  1  0
 10 27  1  0
 11 28  1  0
 12 29  1  0
 13 30  1  0
 14 31  1  0
 14 32  1  0
 15 33  1  0
 15 34  1  0
 15 35  1  0
 16 36  1  0
 16 37  1  0
 17 38  1  0
 18 39  1  0
 19 40  1  0
 20 41  1  0
M  END
> <Uni-Dock RESULT> 
ENERGY=   -4.063  LOWER_BOUND=    2.706  UPPER_BOUND=    5.661
INTER + INTRA:          -4.063
INTER:                  -4.063
INTRA:                   0.000
UNBOUND:                 0.000

$$$$

     RDKit          3D

 41 43  0  0  0  0  0  0  0  0999 V2000
   48.9588  -17.6512   -8.7279 C   0  0  0  0  0  0  0  0  0  0  0  0
   48.0071  -18.2341   -7.7002 C   0  0  0  0  0  0  0  0  0  0  0  0
   48.1879  -16.9875   -9.8518 C   0  0  0  0  0  0  0  0  0  0  0  0
   46.9585  -15.9727   -7.1447 C   0  0  0  0  0  0  0  0  0  0  0  0
   47.0534  -15.3044   -8.3002 C   0  0  0  0  0  0  0  0  0  0  0  0
   47.0883  -17.4364   -6.9715 C   0  0  0  0  0  0  0  0  0  0  0  0
   47.3063  -15.8978   -9.6322 C   0  0  0  0  0  0  0  0  0  0  0  0
   52.9340  -17.2484   -5.6820 N   0  0  0  0  0  0  0  0  0  0  0  0
   50.0280  -16.7138   -8.1185 C   0  0  0  0  0  0  0  0  0  0  0  0
   48.0677  -19.6180   -7.4356 C   0  0  0  0  0  0  0  0  0  0  0  0
   48.3794  -17.4540  -11.1691 C   0  0  0  0  0  0  0  0  0  0  0  0
   46.2901  -18.0375   -5.9822 C   0  0  0  0  0  0  0  0  0  0  0  0
   46.6748  -15.2917  -10.7328 C   0  0  0  0  0  0  0  0  0  0  0  0
   52.0233  -16.5140   -6.5726 C   0  0  0  0  0  0  0  0  0  0  0  0
   52.4362  -17.2694   -4.3036 C   0  0  0  0  0  0  0  0  0  0  0  0
   50.9383  -17.4479   -7.1212 C   0  0  0  0  0  0  0  0  0  0  0  0
   47.2512  -20.1977   -6.4649 C   0  0  0  0  0  0  0  0  0  0  0  0
   47.7256  -16.8520  -12.2441 C   0  0  0  0  0  0  0  0  0  0  0  0
   46.8774  -15.7702  -12.0268 C   0  0  0  0  0  0  0  0  0  0  0  0
   46.3664  -19.4080   -5.7364 C   0  0  0  0  0  0  0  0  0  0  0  0
   49.5382  -18.4918   -9.1731 H   0  0  0  0  0  0  0  0  0  0  0  0
   46.6705  -15.3979   -6.2717 H   0  0  0  0  0  0  0  0  0  0  0  0
   46.8339  -14.2431   -8.2685 H   0  0  0  0  0  0  0  0  0  0  0  0
   53.8494  -16.7400   -5.6689 H   0  0  0  0  0  0  0  0  0  0  0  0
   49.5664  -15.8453   -7.6088 H   0  0  0  0  0  0  0  0  0  0  0  0
   50.6563  -16.3143   -8.9455 H   0  0  0  0  0  0  0  0  0  0  0  0
   48.7585  -20.2546   -7.9743 H   0  0  0  0  0  0  0  0  0  0  0  0
   49.0442  -18.2845  -11.3715 H   0  0  0  0  0  0  0  0  0  0  0  0
   45.5948  -17.4424   -5.4019 H   0  0  0  0  0  0  0  0  0  0  0  0
   46.0116  -14.4470  -10.5881 H   0  0  0  0  0  0  0  0  0  0  0  0
   51.5606  -15.6417   -6.0564 H   0  0  0  0  0  0  0  0  0  0  0  0
   52.6072  -16.1145   -7.4321 H   0  0  0  0  0  0  0  0  0  0  0  0
   52.3407  -16.2374   -3.8992 H   0  0  0  0  0  0  0  0  0  0  0  0
   51.4556  -17.7863   -4.2468 H   0  0  0  0  0  0  0  0  0  0  0  0
   53.1516  -17.8291   -3.6650 H   0  0  0  0  0  0  0  0  0  0  0  0
   50.3242  -17.8333   -6.2806 H   0  0  0  0  0  0  0  0  0  0  0  0
   51.4244  -18.3111   -7.6264 H   0  0  0  0  0  0  0  0  0  0  0  0
   47.3114  -21.2610   -6.2717 H   0  0  0  0  0  0  0  0  0  0  0  0
   47.8838  -17.2213  -13.2492 H   0  0  0  0  0  0  0  0  0  0  0  0
   46.3769  -15.2989  -12.8628 H   0  0  0  0  0  0  0  0  0  0  0  0
   45.7392  -19.8577   -4.9775 H   0  0  0  0  0  0  0  0  0  0  0  0
  2  1  1  0
  3  1  1  0
  4  6  1  0
  5  7  1  0
  6  2  2  0
  7  3  2  0
  8 14  1  0
  9  1  1  0
 10  2  1  0
 11  3  1  0
 12  6  1  0
 13  7  1  0
 14 16  1  0
 15  8  1  0
 16  9  1  0
 17 10  2  0
 18 11  2  0
 19 18  1  0
 20 17  1  0
  5  4  2  0
 19 13  2  0
 20 12  2  0
  1 21  1  0
  4 22  1  0
  5 23  1  0
  8 24  1  0
  9 25  1  0
  9 26  1  0
 10 27  1  0
 11 28  1  0
 12 29  1  0
 13 30  1  0
 14 31  1  0
 14 32  1  0
 15 33  1  0
 15 34  1  0
 15 35  1  0
 16 36  1  0
 16 37  1  0
 17 38  1  0
 18 39  1  0
 19 40  1  0
 20 41  1  0
M  END
> <Uni-Dock RESULT> 
ENERGY=   -4.037  LOWER_BOUND=    2.568  UPPER_BOUND=    4.739
INTER + INTRA:          -4.037
INTER:                  -4.037
INTRA:                   0.000
UNBOUND:                 0.000

$$$$
