
     RDKit          3D

 41 43  0  0  0  0  0  0  0  0999 V2000
   50.2304  -16.7909   -8.1141 C   0  0  0  0  0  0  0  0  0  0  0  0
   51.1549  -16.3806   -6.9818 C   0  0  0  0  0  0  0  0  0  0  0  0
   48.8290  -16.9322   -7.5414 C   0  0  0  0  0  0  0  0  0  0  0  0
   50.0059  -14.1074   -6.8833 C   0  0  0  0  0  0  0  0  0  0  0  0
   48.7345  -14.4079   -7.1988 C   0  0  0  0  0  0  0  0  0  0  0  0
   51.0306  -15.0810   -6.4260 C   0  0  0  0  0  0  0  0  0  0  0  0
   48.1329  -15.7644   -7.1348 C   0  0  0  0  0  0  0  0  0  0  0  0
   51.7071  -19.3336  -11.6176 N   0  0  0  0  0  0  0  0  0  0  0  0
   50.7456  -17.9778   -8.9720 C   0  0  0  0  0  0  0  0  0  0  0  0
   52.1048  -17.2682   -6.4311 C   0  0  0  0  0  0  0  0  0  0  0  0
   48.2181  -18.1898   -7.3411 C   0  0  0  0  0  0  0  0  0  0  0  0
   51.9192  -14.6716   -5.4185 C   0  0  0  0  0  0  0  0  0  0  0  0
   46.8156  -15.8728   -6.6604 C   0  0  0  0  0  0  0  0  0  0  0  0
   50.3454  -19.4127  -11.0538 C   0  0  0  0  0  0  0  0  0  0  0  0
   52.6475  -20.1973  -10.9000 C   0  0  0  0  0  0  0  0  0  0  0  0
   49.9401  -18.1493  -10.2722 C   0  0  0  0  0  0  0  0  0  0  0  0
   52.9601  -16.8505   -5.4103 C   0  0  0  0  0  0  0  0  0  0  0  0
   46.9179  -18.2778   -6.8413 C   0  0  0  0  0  0  0  0  0  0  0  0
   46.2127  -17.1216   -6.5161 C   0  0  0  0  0  0  0  0  0  0  0  0
   52.8765  -15.5515   -4.9142 C   0  0  0  0  0  0  0  0  0  0  0  0
   50.2109  -15.9379   -8.8299 H   0  0  0  0  0  0  0  0  0  0  0  0
   50.2749  -13.0578   -6.8622 H   0  0  0  0  0  0  0  0  0  0  0  0
   48.0684  -13.5791   -7.4089 H   0  0  0  0  0  0  0  0  0  0  0  0
   52.0716  -18.3525  -11.5991 H   0  0  0  0  0  0  0  0  0  0  0  0
   50.7424  -18.9256   -8.3962 H   0  0  0  0  0  0  0  0  0  0  0  0
   51.8010  -17.7653   -9.2484 H   0  0  0  0  0  0  0  0  0  0  0  0
   52.2026  -18.2838   -6.7858 H   0  0  0  0  0  0  0  0  0  0  0  0
   48.7249  -19.1122   -7.5782 H   0  0  0  0  0  0  0  0  0  0  0  0
   51.8547  -13.6728   -5.0035 H   0  0  0  0  0  0  0  0  0  0  0  0
   46.2614  -14.9870   -6.3738 H   0  0  0  0  0  0  0  0  0  0  0  0
   50.2041  -20.3126  -10.4120 H   0  0  0  0  0  0  0  0  0  0  0  0
   49.6370  -19.5259  -11.9018 H   0  0  0  0  0  0  0  0  0  0  0  0
   52.6930  -19.9329   -9.8223 H   0  0  0  0  0  0  0  0  0  0  0  0
   52.3483  -21.2617  -11.0098 H   0  0  0  0  0  0  0  0  0  0  0  0
   53.6622  -20.0800  -11.3354 H   0  0  0  0  0  0  0  0  0  0  0  0
   50.0690  -17.2531  -10.9176 H   0  0  0  0  0  0  0  0  0  0  0  0
   48.8586  -18.2307  -10.0345 H   0  0  0  0  0  0  0  0  0  0  0  0
   53.6933  -17.5361   -5.0053 H   0  0  0  0  0  0  0  0  0  0  0  0
   46.4543  -19.2469   -6.7092 H   0  0  0  0  0  0  0  0  0  0  0  0
   45.2021  -17.1939   -6.1350 H   0  0  0  0  0  0  0  0  0  0  0  0
   53.5464  -15.2292   -4.1274 H   0  0  0  0  0  0  0  0  0  0  0  0
  2  1  1  0
  3  1  1  0
  4  6  1  0
  5  7  1  0
  6  2  2  0
  7  3  2  0
  8 14  1  0
  9  1  1  0
 10  2  1  0
 11  3  1  0
 12  6  1  0
 13  7  1  0
 14 16  1  0
 15  8  1  0
 16  9  1  0
 17 10  2  0
 18 11  2  0
 19 18  1  0
 20 17  1  0
  5  4  2  0
 19 13  2  0
 20 12  2  0
  1 21  1  0
  4 22  1  0
  5 23  1  0
  8 24  1  0
  9 25  1  0
  9 26  1  0
 10 27  1  0
 11 28  1  0
 12 29  1  0
 13 30  1  0
 14 31  1  0
 14 32  1  0
 15 33  1  0
 15 34  1  0
 15 35  1  0
 16 36  1  0
 16 37  1  0
 17 38  1  0
 18 39  1  0
 19 40  1  0
 20 41  1  0
M  END
> <Uni-Dock RESULT> 
ENERGY=   -5.991  LOWER_BOUND=    0.000  UPPER_BOUND=    0.000
INTER + INTRA:          -5.991
INTER:                  -5.991
INTRA:                   0.000
UNBOUND:                 0.000

$$$$

     RDKit          3D

 41 43  0  0  0  0  0  0  0  0999 V2000
   50.2420  -16.8752   -8.1766 C   0  0  0  0  0  0  0  0  0  0  0  0
   51.1594  -16.4351   -7.0497 C   0  0  0  0  0  0  0  0  0  0  0  0
   48.8496  -17.0633   -7.5953 C   0  0  0  0  0  0  0  0  0  0  0  0
   49.9363  -14.2014   -6.9425 C   0  0  0  0  0  0  0  0  0  0  0  0
   48.6737  -14.5437   -7.2502 C   0  0  0  0  0  0  0  0  0  0  0  0
   50.9956  -15.1407   -6.4922 C   0  0  0  0  0  0  0  0  0  0  0  0
   48.1178  -15.9194   -7.1835 C   0  0  0  0  0  0  0  0  0  0  0  0
   51.7804  -19.3656  -11.6911 N   0  0  0  0  0  0  0  0  0  0  0  0
   50.7909  -18.0439   -9.0386 C   0  0  0  0  0  0  0  0  0  0  0  0
   52.1417  -17.2911   -6.5057 C   0  0  0  0  0  0  0  0  0  0  0  0
   48.2820  -18.3405   -7.3922 C   0  0  0  0  0  0  0  0  0  0  0  0
   51.8763  -14.7026   -5.4900 C   0  0  0  0  0  0  0  0  0  0  0  0
   46.8078  -16.0717   -6.7010 C   0  0  0  0  0  0  0  0  0  0  0  0
   50.4255  -19.4902  -11.1190 C   0  0  0  0  0  0  0  0  0  0  0  0
   52.7533  -20.1981  -10.9801 C   0  0  0  0  0  0  0  0  0  0  0  0
   49.9834  -18.2413  -10.3339 C   0  0  0  0  0  0  0  0  0  0  0  0
   52.9890  -16.8458   -5.4899 C   0  0  0  0  0  0  0  0  0  0  0  0
   46.9886  -18.4718   -6.8844 C   0  0  0  0  0  0  0  0  0  0  0  0
   46.2475  -17.3399   -6.5539 C   0  0  0  0  0  0  0  0  0  0  0  0
   52.8654  -15.5505   -4.9923 C   0  0  0  0  0  0  0  0  0  0  0  0
   50.1898  -16.0230   -8.8916 H   0  0  0  0  0  0  0  0  0  0  0  0
   50.1705  -13.1434   -6.9222 H   0  0  0  0  0  0  0  0  0  0  0  0
   47.9792  -13.7373   -7.4556 H   0  0  0  0  0  0  0  0  0  0  0  0
   52.1122  -18.3730  -11.6741 H   0  0  0  0  0  0  0  0  0  0  0  0
   50.8227  -18.9916   -8.4635 H   0  0  0  0  0  0  0  0  0  0  0  0
   51.8369  -17.7964   -9.3214 H   0  0  0  0  0  0  0  0  0  0  0  0
   52.2708  -18.3026   -6.8617 H   0  0  0  0  0  0  0  0  0  0  0  0
   48.8177  -19.2455   -7.6331 H   0  0  0  0  0  0  0  0  0  0  0  0
   51.7813  -13.7067   -5.0738 H   0  0  0  0  0  0  0  0  0  0  0  0
   46.2263  -15.2049   -6.4104 H   0  0  0  0  0  0  0  0  0  0  0  0
   50.3181  -20.3946  -10.4770 H   0  0  0  0  0  0  0  0  0  0  0  0
   49.7161  -19.6263  -11.9627 H   0  0  0  0  0  0  0  0  0  0  0  0
   52.7967  -19.9329   -9.9025 H   0  0  0  0  0  0  0  0  0  0  0  0
   52.4889  -21.2718  -11.0888 H   0  0  0  0  0  0  0  0  0  0  0  0
   53.7609  -20.0469  -11.4216 H   0  0  0  0  0  0  0  0  0  0  0  0
   50.0786  -17.3410  -10.9794 H   0  0  0  0  0  0  0  0  0  0  0  0
   48.9068  -18.3587  -10.0896 H   0  0  0  0  0  0  0  0  0  0  0  0
   53.7470  -17.5069   -5.0899 H   0  0  0  0  0  0  0  0  0  0  0  0
   46.5582  -19.4559   -6.7502 H   0  0  0  0  0  0  0  0  0  0  0  0
   45.2423  -17.4459   -6.1667 H   0  0  0  0  0  0  0  0  0  0  0  0
   53.5292  -15.2067   -4.2094 H   0  0  0  0  0  0  0  0  0  0  0  0
  2  1  1  0
  3  1  1  0
  4  6  1  0
  5  7  1  0
  6  2  2  0
  7  3  2  0
  8 14  1  0
  9  1  1  0
 10  2  1  0
 11  3  1  0
 12  6  1  0
 13  7  1  0
 14 16  1  0
 15  8  1  0
 16  9  1  0
 17 10  2  0
 18 11  2  0
 19 18  1  0
 20 17  1  0
  5  4  2  0
 19 13  2  0
 20 12  2  0
  1 21  1  0
  4 22  1  0
  5 23  1  0
  8 24  1  0
  9 25  1  0
  9 26  1  0
 10 27  1  0
 11 28  1  0
 12 29  1  0
 13 30  1  0
 14 31  1  0
 14 32  1  0
 15 33  1  0
 15 34  1  0
 15 35  1  0
 16 36  1  0
 16 37  1  0
 17 38  1  0
 18 39  1  0
 19 40  1  0
 20 41  1  0
M  END
> <Uni-Dock RESULT> 
ENERGY=   -5.946  LOWER_BOUND=    0.138  UPPER_BOUND=    0.138
INTER + INTRA:          -5.946
INTER:                  -5.946
INTRA:                   0.000
UNBOUND:                 0.000

$$$$

     RDKit          3D

 41 43  0  0  0  0  0  0  0  0999 V2000
   48.3028  -17.3421   -8.3192 C   0  0  0  0  0  0  0  0  0  0  0  0
   47.6496  -18.1916   -7.2437 C   0  0  0  0  0  0  0  0  0  0  0  0
   49.1872  -16.3165   -7.6276 C   0  0  0  0  0  0  0  0  0  0  0  0
   49.9185  -19.2112   -6.6877 C   0  0  0  0  0  0  0  0  0  0  0  0
   50.7613  -18.1875   -6.9068 C   0  0  0  0  0  0  0  0  0  0  0  0
   48.4510  -19.0888   -6.4915 C   0  0  0  0  0  0  0  0  0  0  0  0
   50.3711  -16.7564   -6.9806 C   0  0  0  0  0  0  0  0  0  0  0  0
   46.2164  -16.4839  -12.2980 N   0  0  0  0  0  0  0  0  0  0  0  0
   47.3251  -16.7941   -9.3935 C   0  0  0  0  0  0  0  0  0  0  0  0
   46.2760  -18.0836   -6.9351 C   0  0  0  0  0  0  0  0  0  0  0  0
   48.8412  -14.9493   -7.5518 C   0  0  0  0  0  0  0  0  0  0  0  0
   47.8467  -19.9207   -5.5350 C   0  0  0  0  0  0  0  0  0  0  0  0
   51.2287  -15.8143   -6.3898 C   0  0  0  0  0  0  0  0  0  0  0  0
   47.1104  -15.5320  -11.6102 C   0  0  0  0  0  0  0  0  0  0  0  0
   44.8356  -16.3804  -11.8207 C   0  0  0  0  0  0  0  0  0  0  0  0
   48.0648  -16.2123  -10.6113 C   0  0  0  0  0  0  0  0  0  0  0  0
   45.6999  -18.9002   -5.9607 C   0  0  0  0  0  0  0  0  0  0  0  0
   49.6938  -14.0326   -6.9349 C   0  0  0  0  0  0  0  0  0  0  0  0
   50.8918  -14.4615   -6.3687 C   0  0  0  0  0  0  0  0  0  0  0  0
   46.4805  -19.8256   -5.2716 C   0  0  0  0  0  0  0  0  0  0  0  0
   48.9719  -18.0216   -8.8945 H   0  0  0  0  0  0  0  0  0  0  0  0
   50.3586  -20.1906   -6.5401 H   0  0  0  0  0  0  0  0  0  0  0  0
   51.8212  -18.4141   -6.9196 H   0  0  0  0  0  0  0  0  0  0  0  0
   46.5413  -17.4711  -12.1733 H   0  0  0  0  0  0  0  0  0  0  0  0
   46.6395  -16.0337   -8.9674 H   0  0  0  0  0  0  0  0  0  0  0  0
   46.6975  -17.6409   -9.7463 H   0  0  0  0  0  0  0  0  0  0  0  0
   45.6352  -17.3790   -7.4447 H   0  0  0  0  0  0  0  0  0  0  0  0
   47.9241  -14.5706   -7.9756 H   0  0  0  0  0  0  0  0  0  0  0  0
   48.4410  -20.6306   -4.9721 H   0  0  0  0  0  0  0  0  0  0  0  0
   52.1506  -16.1323   -5.9178 H   0  0  0  0  0  0  0  0  0  0  0  0
   46.5485  -14.7177  -11.0975 H   0  0  0  0  0  0  0  0  0  0  0  0
   47.7320  -15.0354  -12.3852 H   0  0  0  0  0  0  0  0  0  0  0  0
   44.7744  -16.5621  -10.7268 H   0  0  0  0  0  0  0  0  0  0  0  0
   44.4252  -15.3746  -12.0544 H   0  0  0  0  0  0  0  0  0  0  0  0
   44.2082  -17.1355  -12.3396 H   0  0  0  0  0  0  0  0  0  0  0  0
   48.6345  -17.0160  -11.1269 H   0  0  0  0  0  0  0  0  0  0  0  0
   48.8003  -15.4519  -10.2744 H   0  0  0  0  0  0  0  0  0  0  0  0
   44.6431  -18.8174   -5.7423 H   0  0  0  0  0  0  0  0  0  0  0  0
   49.4256  -12.9846   -6.8992 H   0  0  0  0  0  0  0  0  0  0  0  0
   51.5534  -13.7464   -5.8970 H   0  0  0  0  0  0  0  0  0  0  0  0
   46.0285  -20.4620   -4.5218 H   0  0  0  0  0  0  0  0  0  0  0  0
  2  1  1  0
  3  1  1  0
  4  6  1  0
  5  7  1  0
  6  2  2  0
  7  3  2  0
  8 14  1  0
  9  1  1  0
 10  2  1  0
 11  3  1  0
 12  6  1  0
 13  7  1  0
 14 16  1  0
 15  8  1  0
 16  9  1  0
 17 10  2  0
 18 11  2  0
 19 18  1  0
 20 17  1  0
  5  4  2  0
 19 13  2  0
 20 12  2  0
  1 21  1  0
  4 22  1  0
  5 23  1  0
  8 24  1  0
  9 25  1  0
  9 26  1  0
 10 27  1  0
 11 28  1  0
 12 29  1  0
 13 30  1  0
 14 31  1  0
 14 32  1  0
 15 33  1  0
 15 34  1  0
 15 35  1  0
 16 36  1  0
 16 37  1  0
 17 38  1  0
 18 39  1  0
 19 40  1  0
 20 41  1  0
M  END
> <Uni-Dock RESULT> 
ENERGY=   -5.237  LOWER_BOUND=    2.505  UPPER_BOUND=    5.177
INTER + INTRA:          -5.237
INTER:                  -5.237
INTRA:                   0.000
UNBOUND:                 0.000

$$$$

     RDKit          3D

 41 43  0  0  0  0  0  0  0  0999 V2000
   49.2187  -17.1798   -7.0272 C   0  0  0  0  0  0  0  0  0  0  0  0
   48.0633  -18.0753   -6.6168 C   0  0  0  0  0  0  0  0  0  0  0  0
   49.1451  -16.9878   -8.5337 C   0  0  0  0  0  0  0  0  0  0  0  0
   46.4270  -16.2074   -7.1918 C   0  0  0  0  0  0  0  0  0  0  0  0
   47.0236  -15.6063   -8.2353 C   0  0  0  0  0  0  0  0  0  0  0  0
   46.7390  -17.5715   -6.6929 C   0  0  0  0  0  0  0  0  0  0  0  0
   48.0912  -16.2069   -9.0752 C   0  0  0  0  0  0  0  0  0  0  0  0
   53.1885  -17.1901   -4.7555 N   0  0  0  0  0  0  0  0  0  0  0  0
   50.5987  -17.6011   -6.4542 C   0  0  0  0  0  0  0  0  0  0  0  0
   48.2605  -19.4115   -6.2057 C   0  0  0  0  0  0  0  0  0  0  0  0
   50.0519  -17.6102   -9.4197 C   0  0  0  0  0  0  0  0  0  0  0  0
   45.6687  -18.3713   -6.2606 C   0  0  0  0  0  0  0  0  0  0  0  0
   48.0443  -15.9705  -10.4587 C   0  0  0  0  0  0  0  0  0  0  0  0
   53.0682  -16.9724   -6.2103 C   0  0  0  0  0  0  0  0  0  0  0  0
   53.2623  -18.6138   -4.4195 C   0  0  0  0  0  0  0  0  0  0  0  0
   51.6643  -16.5058   -6.6379 C   0  0  0  0  0  0  0  0  0  0  0  0
   47.1797  -20.1994   -5.8065 C   0  0  0  0  0  0  0  0  0  0  0  0
   49.9711  -17.3854  -10.7948 C   0  0  0  0  0  0  0  0  0  0  0  0
   48.9792  -16.5555  -11.3118 C   0  0  0  0  0  0  0  0  0  0  0  0
   45.8886  -19.6766   -5.8214 C   0  0  0  0  0  0  0  0  0  0  0  0
   49.0306  -16.1876   -6.5576 H   0  0  0  0  0  0  0  0  0  0  0  0
   45.5817  -15.6973   -6.7449 H   0  0  0  0  0  0  0  0  0  0  0  0
   46.6165  -14.6543   -8.5561 H   0  0  0  0  0  0  0  0  0  0  0  0
   52.3843  -16.7646   -4.2379 H   0  0  0  0  0  0  0  0  0  0  0  0
   50.9510  -18.5519   -6.9034 H   0  0  0  0  0  0  0  0  0  0  0  0
   50.4749  -17.7791   -5.3641 H   0  0  0  0  0  0  0  0  0  0  0  0
   49.2444  -19.8564   -6.1800 H   0  0  0  0  0  0  0  0  0  0  0  0
   50.8364  -18.2610   -9.0659 H   0  0  0  0  0  0  0  0  0  0  0  0
   44.6546  -17.9907   -6.2866 H   0  0  0  0  0  0  0  0  0  0  0  0
   47.2623  -15.3522  -10.8831 H   0  0  0  0  0  0  0  0  0  0  0  0
   53.3602  -17.8722   -6.7991 H   0  0  0  0  0  0  0  0  0  0  0  0
   53.7883  -16.1746   -6.4909 H   0  0  0  0  0  0  0  0  0  0  0  0
   52.3682  -19.1599   -4.7880 H   0  0  0  0  0  0  0  0  0  0  0  0
   54.1794  -19.0626   -4.8580 H   0  0  0  0  0  0  0  0  0  0  0  0
   53.3174  -18.7304   -3.3166 H   0  0  0  0  0  0  0  0  0  0  0  0
   51.3790  -15.6002   -6.0591 H   0  0  0  0  0  0  0  0  0  0  0  0
   51.7169  -16.2102   -7.7067 H   0  0  0  0  0  0  0  0  0  0  0  0
   47.3450  -21.2183   -5.4808 H   0  0  0  0  0  0  0  0  0  0  0  0
   50.6832  -17.8541  -11.4617 H   0  0  0  0  0  0  0  0  0  0  0  0
   48.9240  -16.3784  -12.3782 H   0  0  0  0  0  0  0  0  0  0  0  0
   45.0540  -20.2885   -5.5043 H   0  0  0  0  0  0  0  0  0  0  0  0
  2  1  1  0
  3  1  1  0
  4  6  1  0
  5  7  1  0
  6  2  2  0
  7  3  2  0
  8 14  1  0
  9  1  1  0
 10  2  1  0
 11  3  1  0
 12  6  1  0
 13  7  1  0
 14 16  1  0
 15  8  1  0
 16  9  1  0
 17 10  2  0
 18 11  2  0
 19 18  1  0
 20 17  1  0
  5  4  2  0
 19 13  2  0
 20 12  2  0
  1 21  1  0
  4 22  1  0
  5 23  1  0
  8 24  1  0
  9 25  1  0
  9 26  1  0
 10 27  1  0
 11 28  1  0
 12 29  1  0
 13 30  1  0
 14 31  1  0
 14 32  1  0
 15 33  1  0
 15 34  1  0
 15 35  1  0
 16 36  1  0
 16 37  1  0
 17 38  1  0
 18 39  1  0
 19 40  1  0
 20 41  1  0
M  END
> <Uni-Dock RESULT> 
ENERGY=   -4.922  LOWER_BOUND=    2.329  UPPER_BOUND=    4.967
INTER + INTRA:          -4.922
INTER:                  -4.922
INTRA:                   0.000
UNBOUND:                 0.000

$$$$

     RDKit          3D

 41 43  0  0  0  0  0  0  0  0999 V2000
   50.0960  -18.0711   -7.9171 C   0  0  0  0  0  0  0  0  0  0  0  0
   48.8062  -17.3439   -7.5817 C   0  0  0  0  0  0  0  0  0  0  0  0
   50.9240  -18.1590   -6.6449 C   0  0  0  0  0  0  0  0  0  0  0  0
   48.0617  -19.3364   -6.1774 C   0  0  0  0  0  0  0  0  0  0  0  0
   49.2221  -19.7884   -5.6719 C   0  0  0  0  0  0  0  0  0  0  0  0
   47.8457  -17.9863   -6.7583 C   0  0  0  0  0  0  0  0  0  0  0  0
   50.4858  -19.0115   -5.5985 C   0  0  0  0  0  0  0  0  0  0  0  0
   52.0075  -17.7816  -12.0623 N   0  0  0  0  0  0  0  0  0  0  0  0
   50.8284  -17.5407   -9.1790 C   0  0  0  0  0  0  0  0  0  0  0  0
   48.5512  -16.0277   -8.0249 C   0  0  0  0  0  0  0  0  0  0  0  0
   52.0811  -17.3751   -6.4410 C   0  0  0  0  0  0  0  0  0  0  0  0
   46.6250  -17.3459   -6.4904 C   0  0  0  0  0  0  0  0  0  0  0  0
   51.2709  -19.1493   -4.4423 C   0  0  0  0  0  0  0  0  0  0  0  0
   52.7715  -17.9040  -10.8055 C   0  0  0  0  0  0  0  0  0  0  0  0
   51.6840  -16.3872  -12.3725 C   0  0  0  0  0  0  0  0  0  0  0  0
   51.9427  -18.4927   -9.6488 C   0  0  0  0  0  0  0  0  0  0  0  0
   47.3426  -15.3978   -7.7239 C   0  0  0  0  0  0  0  0  0  0  0  0
   52.8324  -17.5060   -5.2721 C   0  0  0  0  0  0  0  0  0  0  0  0
   52.4369  -18.4018   -4.2818 C   0  0  0  0  0  0  0  0  0  0  0  0
   46.3765  -16.0600   -6.9697 C   0  0  0  0  0  0  0  0  0  0  0  0
   49.8084  -19.1100   -8.1971 H   0  0  0  0  0  0  0  0  0  0  0  0
   47.1905  -19.9698   -6.0575 H   0  0  0  0  0  0  0  0  0  0  0  0
   49.2039  -20.7539   -5.1797 H   0  0  0  0  0  0  0  0  0  0  0  0
   51.1178  -18.3317  -12.0235 H   0  0  0  0  0  0  0  0  0  0  0  0
   51.2428  -16.5259   -9.0107 H   0  0  0  0  0  0  0  0  0  0  0  0
   50.0808  -17.4583   -9.9973 H   0  0  0  0  0  0  0  0  0  0  0  0
   49.2730  -15.4782   -8.6112 H   0  0  0  0  0  0  0  0  0  0  0  0
   52.4261  -16.6681   -7.1793 H   0  0  0  0  0  0  0  0  0  0  0  0
   45.8704  -17.8351   -5.8862 H   0  0  0  0  0  0  0  0  0  0  0  0
   50.9639  -19.8188   -3.6477 H   0  0  0  0  0  0  0  0  0  0  0  0
   53.2239  -16.9362  -10.4886 H   0  0  0  0  0  0  0  0  0  0  0  0
   53.6218  -18.5929  -10.9954 H   0  0  0  0  0  0  0  0  0  0  0  0
   51.0980  -15.9194  -11.5532 H   0  0  0  0  0  0  0  0  0  0  0  0
   52.6166  -15.8072  -12.5410 H   0  0  0  0  0  0  0  0  0  0  0  0
   51.0820  -16.3465  -13.3047 H   0  0  0  0  0  0  0  0  0  0  0  0
   51.5024  -19.4647   -9.9615 H   0  0  0  0  0  0  0  0  0  0  0  0
   52.6364  -18.7012   -8.8074 H   0  0  0  0  0  0  0  0  0  0  0  0
   47.1533  -14.3935   -8.0804 H   0  0  0  0  0  0  0  0  0  0  0  0
   53.7272  -16.9124   -5.1357 H   0  0  0  0  0  0  0  0  0  0  0  0
   53.0260  -18.5052   -3.3796 H   0  0  0  0  0  0  0  0  0  0  0  0
   45.4376  -15.5707   -6.7445 H   0  0  0  0  0  0  0  0  0  0  0  0
  2  1  1  0
  3  1  1  0
  4  6  1  0
  5  7  1  0
  6  2  2  0
  7  3  2  0
  8 14  1  0
  9  1  1  0
 10  2  1  0
 11  3  1  0
 12  6  1  0
 13  7  1  0
 14 16  1  0
 15  8  1  0
 16  9  1  0
 17 10  2  0
 18 11  2  0
 19 18  1  0
 20 17  1  0
  5  4  2  0
 19 13  2  0
 20 12  2  0
  1 21  1  0
  4 22  1  0
  5 23  1  0
  8 24  1  0
  9 25  1  0
  9 26  1  0
 10 27  1  0
 11 28  1  0
 12 29  1  0
 13 30  1  0
 14 31  1  0
 14 32  1  0
 15 33  1  0
 15 34  1  0
 15 35  1  0
 16 36  1  0
 16 37  1  0
 17 38  1  0
 18 39  1  0
 19 40  1  0
 20 41  1  0
M  END
> <Uni-Dock RESULT> 
ENERGY=   -4.884  LOWER_BOUND=    1.675  UPPER_BOUND=    4.598
INTER + INTRA:          -4.884
INTER:                  -4.884
INTRA:                   0.000
UNBOUND:                 0.000

$$$$

     RDKit          3D

 41 43  0  0  0  0  0  0  0  0999 V2000
   47.0175  -15.9786   -9.7367 C   0  0  0  0  0  0  0  0  0  0  0  0
   48.3755  -16.4184   -9.2194 C   0  0  0  0  0  0  0  0  0  0  0  0
   46.0167  -17.0737   -9.4032 C   0  0  0  0  0  0  0  0  0  0  0  0
   47.5373  -16.1523   -6.8271 C   0  0  0  0  0  0  0  0  0  0  0  0
   46.2437  -16.5021   -6.9293 C   0  0  0  0  0  0  0  0  0  0  0  0
   48.5953  -16.4747   -7.8188 C   0  0  0  0  0  0  0  0  0  0  0  0
   45.6516  -17.2800   -8.0476 C   0  0  0  0  0  0  0  0  0  0  0  0
   46.6021  -13.3344  -13.4455 N   0  0  0  0  0  0  0  0  0  0  0  0
   47.0175  -15.4705  -11.2036 C   0  0  0  0  0  0  0  0  0  0  0  0
   49.4142  -16.8189  -10.0880 C   0  0  0  0  0  0  0  0  0  0  0  0
   45.4838  -17.9352  -10.3874 C   0  0  0  0  0  0  0  0  0  0  0  0
   49.8652  -16.8238   -7.3314 C   0  0  0  0  0  0  0  0  0  0  0  0
   44.6837  -18.2466   -7.7300 C   0  0  0  0  0  0  0  0  0  0  0  0
   45.6366  -14.3839  -13.0652 C   0  0  0  0  0  0  0  0  0  0  0  0
   47.7086  -13.8712  -14.2409 C   0  0  0  0  0  0  0  0  0  0  0  0
   45.7050  -14.7564  -11.5725 C   0  0  0  0  0  0  0  0  0  0  0  0
   50.6610  -17.1896   -9.5817 C   0  0  0  0  0  0  0  0  0  0  0  0
   44.5438  -18.9091  -10.0471 C   0  0  0  0  0  0  0  0  0  0  0  0
   44.1333  -19.0545   -8.7242 C   0  0  0  0  0  0  0  0  0  0  0  0
   50.8901  -17.1795   -8.2077 C   0  0  0  0  0  0  0  0  0  0  0  0
   46.7318  -15.0784   -9.1465 H   0  0  0  0  0  0  0  0  0  0  0  0
   47.8519  -15.6887   -5.8994 H   0  0  0  0  0  0  0  0  0  0  0  0
   45.6072  -16.2963   -6.0765 H   0  0  0  0  0  0  0  0  0  0  0  0
   46.9965  -12.8548  -12.6028 H   0  0  0  0  0  0  0  0  0  0  0  0
   47.2141  -16.2954  -11.9183 H   0  0  0  0  0  0  0  0  0  0  0  0
   47.8473  -14.7388  -11.3106 H   0  0  0  0  0  0  0  0  0  0  0  0
   49.2787  -16.8419  -11.1593 H   0  0  0  0  0  0  0  0  0  0  0  0
   45.7715  -17.8604  -11.4245 H   0  0  0  0  0  0  0  0  0  0  0  0
   50.0563  -16.8445   -6.2650 H   0  0  0  0  0  0  0  0  0  0  0  0
   44.3736  -18.3951   -6.7026 H   0  0  0  0  0  0  0  0  0  0  0  0
   45.7427  -15.3027  -13.6866 H   0  0  0  0  0  0  0  0  0  0  0  0
   44.6173  -13.9918  -13.2681 H   0  0  0  0  0  0  0  0  0  0  0  0
   48.2496  -14.6687  -13.6890 H   0  0  0  0  0  0  0  0  0  0  0  0
   47.3263  -14.2773  -15.2019 H   0  0  0  0  0  0  0  0  0  0  0  0
   48.4250  -13.0554  -14.4744 H   0  0  0  0  0  0  0  0  0  0  0  0
   45.5860  -13.8407  -10.9530 H   0  0  0  0  0  0  0  0  0  0  0  0
   44.8427  -15.4191  -11.3492 H   0  0  0  0  0  0  0  0  0  0  0  0
   51.4536  -17.4820  -10.2583 H   0  0  0  0  0  0  0  0  0  0  0  0
   44.1295  -19.5513  -10.8136 H   0  0  0  0  0  0  0  0  0  0  0  0
   43.3991  -19.8067   -8.4654 H   0  0  0  0  0  0  0  0  0  0  0  0
   51.8606  -17.4608   -7.8196 H   0  0  0  0  0  0  0  0  0  0  0  0
  2  1  1  0
  3  1  1  0
  4  6  1  0
  5  7  1  0
  6  2  2  0
  7  3  2  0
  8 14  1  0
  9  1  1  0
 10  2  1  0
 11  3  1  0
 12  6  1  0
 13  7  1  0
 14 16  1  0
 15  8  1  0
 16  9  1  0
 17 10  2  0
 18 11  2  0
 19 18  1  0
 20 17  1  0
  5  4  2  0
 19 13  2  0
 20 12  2  0
  1 21  1  0
  4 22  1  0
  5 23  1  0
  8 24  1  0
  9 25  1  0
  9 26  1  0
 10 27  1  0
 11 28  1  0
 12 29  1  0
 13 30  1  0
 14 31  1  0
 14 32  1  0
 15 33  1  0
 15 34  1  0
 15 35  1  0
 16 36  1  0
 16 37  1  0
 17 38  1  0
 18 39  1  0
 19 40  1  0
 20 41  1  0
M  END
> <Uni-Dock RESULT> 
ENERGY=   -4.487  LOWER_BOUND=    3.636  UPPER_BOUND=    4.783
INTER + INTRA:          -4.487
INTER:                  -4.487
INTRA:                   0.000
UNBOUND:                 0.000

$$$$

     RDKit          3D

 41 43  0  0  0  0  0  0  0  0999 V2000
   47.0170  -15.9801   -9.7356 C   0  0  0  0  0  0  0  0  0  0  0  0
   48.3749  -16.4195   -9.2176 C   0  0  0  0  0  0  0  0  0  0  0  0
   46.0163  -17.0755   -9.4027 C   0  0  0  0  0  0  0  0  0  0  0  0
   47.5353  -16.1537   -6.8257 C   0  0  0  0  0  0  0  0  0  0  0  0
   46.2418  -16.5038   -6.9287 C   0  0  0  0  0  0  0  0  0  0  0  0
   48.5939  -16.4758   -7.8169 C   0  0  0  0  0  0  0  0  0  0  0  0
   45.6506  -17.2819   -8.0472 C   0  0  0  0  0  0  0  0  0  0  0  0
   46.6029  -13.3360  -13.4447 N   0  0  0  0  0  0  0  0  0  0  0  0
   47.0177  -15.4720  -11.2026 C   0  0  0  0  0  0  0  0  0  0  0  0
   49.4141  -16.8197  -10.0856 C   0  0  0  0  0  0  0  0  0  0  0  0
   45.4842  -17.9371  -10.3872 C   0  0  0  0  0  0  0  0  0  0  0  0
   49.8637  -16.8245   -7.3288 C   0  0  0  0  0  0  0  0  0  0  0  0
   44.6828  -18.2488   -7.7302 C   0  0  0  0  0  0  0  0  0  0  0  0
   45.6374  -14.3858  -13.0649 C   0  0  0  0  0  0  0  0  0  0  0  0
   47.7100  -13.8724  -14.2395 C   0  0  0  0  0  0  0  0  0  0  0  0
   45.7052  -14.7582  -11.5722 C   0  0  0  0  0  0  0  0  0  0  0  0
   50.6607  -17.1900   -9.5787 C   0  0  0  0  0  0  0  0  0  0  0  0
   44.5443  -18.9113  -10.0474 C   0  0  0  0  0  0  0  0  0  0  0  0
   44.1331  -19.0569   -8.7247 C   0  0  0  0  0  0  0  0  0  0  0  0
   50.8892  -17.1799   -8.2046 C   0  0  0  0  0  0  0  0  0  0  0  0
   46.7308  -15.0800   -9.1455 H   0  0  0  0  0  0  0  0  0  0  0  0
   47.8492  -15.6900   -5.8978 H   0  0  0  0  0  0  0  0  0  0  0  0
   45.6049  -16.2983   -6.0762 H   0  0  0  0  0  0  0  0  0  0  0  0
   46.9966  -12.8563  -12.6018 H   0  0  0  0  0  0  0  0  0  0  0  0
   47.2149  -16.2968  -11.9172 H   0  0  0  0  0  0  0  0  0  0  0  0
   47.8474  -14.7401  -11.3091 H   0  0  0  0  0  0  0  0  0  0  0  0
   49.2793  -16.8427  -11.1570 H   0  0  0  0  0  0  0  0  0  0  0  0
   45.7725  -17.8623  -11.4241 H   0  0  0  0  0  0  0  0  0  0  0  0
   50.0542  -16.8451   -6.2623 H   0  0  0  0  0  0  0  0  0  0  0  0
   44.3722  -18.3974   -6.7029 H   0  0  0  0  0  0  0  0  0  0  0  0
   45.7441  -15.3046  -13.6862 H   0  0  0  0  0  0  0  0  0  0  0  0
   44.6182  -13.9940  -13.2683 H   0  0  0  0  0  0  0  0  0  0  0  0
   48.2509  -14.6698  -13.6872 H   0  0  0  0  0  0  0  0  0  0  0  0
   47.3283  -14.2786  -15.2007 H   0  0  0  0  0  0  0  0  0  0  0  0
   48.4262  -13.0565  -14.4726 H   0  0  0  0  0  0  0  0  0  0  0  0
   45.5855  -13.8426  -10.9527 H   0  0  0  0  0  0  0  0  0  0  0  0
   44.8429  -15.4212  -11.3493 H   0  0  0  0  0  0  0  0  0  0  0  0
   51.4538  -17.4823  -10.2549 H   0  0  0  0  0  0  0  0  0  0  0  0
   44.1306  -19.5536  -10.8141 H   0  0  0  0  0  0  0  0  0  0  0  0
   43.3991  -19.8092   -8.4664 H   0  0  0  0  0  0  0  0  0  0  0  0
   51.8595  -17.4609   -7.8159 H   0  0  0  0  0  0  0  0  0  0  0  0
  2  1  1  0
  3  1  1  0
  4  6  1  0
  5  7  1  0
  6  2  2  0
  7  3  2  0
  8 14  1  0
  9  1  1  0
 10  2  1  0
 11  3  1  0
 12  6  1  0
 13  7  1  0
 14 16  1  0
 15  8  1  0
 16  9  1  0
 17 10  2  0
 18 11  2  0
 19 18  1  0
 20 17  1  0
  5  4  2  0
 19 13  2  0
 20 12  2  0
  1 21  1  0
  4 22  1  0
  5 23  1  0
  8 24  1  0
  9 25  1  0
  9 26  1  0
 10 27  1  0
 11 28  1  0
 12 29  1  0
 13 30  1  0
 14 31  1  0
 14 32  1  0
 15 33  1  0
 15 34  1  0
 15 35  1  0
 16 36  1  0
 16 37  1  0
 17 38  1  0
 18 39  1  0
 19 40  1  0
 20 41  1  0
M  END
> <Uni-Dock RESULT> 
ENERGY=   -4.483  LOWER_BOUND=    3.636  UPPER_BOUND=    4.782
INTER + INTRA:          -4.483
INTER:                  -4.483
INTRA:                   0.000
UNBOUND:                 0.000

$$$$

     RDKit          3D

 41 43  0  0  0  0  0  0  0  0999 V2000
   46.4797  -17.1370  -10.1513 C   0  0  0  0  0  0  0  0  0  0  0  0
   47.2537  -16.4239   -9.0571 C   0  0  0  0  0  0  0  0  0  0  0  0
   46.3814  -16.1944  -11.3404 C   0  0  0  0  0  0  0  0  0  0  0  0
   49.3667  -16.5659  -10.4756 C   0  0  0  0  0  0  0  0  0  0  0  0
   48.8883  -16.4496  -11.7261 C   0  0  0  0  0  0  0  0  0  0  0  0
   48.6398  -16.1808   -9.2385 C   0  0  0  0  0  0  0  0  0  0  0  0
   47.5536  -15.9066  -12.0866 C   0  0  0  0  0  0  0  0  0  0  0  0
   43.2221  -20.1983   -9.1833 N   0  0  0  0  0  0  0  0  0  0  0  0
   45.1531  -17.7934   -9.6827 C   0  0  0  0  0  0  0  0  0  0  0  0
   46.6281  -15.9521   -7.8825 C   0  0  0  0  0  0  0  0  0  0  0  0
   45.1775  -15.5451  -11.6922 C   0  0  0  0  0  0  0  0  0  0  0  0
   49.3765  -15.5745   -8.2081 C   0  0  0  0  0  0  0  0  0  0  0  0
   47.4676  -15.0861  -13.2230 C   0  0  0  0  0  0  0  0  0  0  0  0
   43.1845  -19.2895  -10.3456 C   0  0  0  0  0  0  0  0  0  0  0  0
   42.6634  -19.5738   -7.9820 C   0  0  0  0  0  0  0  0  0  0  0  0
   44.5731  -18.7518  -10.7381 C   0  0  0  0  0  0  0  0  0  0  0  0
   47.3737  -15.3265   -6.8821 C   0  0  0  0  0  0  0  0  0  0  0  0
   45.1193  -14.7104  -12.8092 C   0  0  0  0  0  0  0  0  0  0  0  0
   46.2577  -14.4934  -13.5817 C   0  0  0  0  0  0  0  0  0  0  0  0
   48.7466  -15.1498   -7.0386 C   0  0  0  0  0  0  0  0  0  0  0  0
   47.1048  -18.0031  -10.4665 H   0  0  0  0  0  0  0  0  0  0  0  0
   50.4021  -16.8677  -10.3688 H   0  0  0  0  0  0  0  0  0  0  0  0
   49.5722  -16.6652  -12.5389 H   0  0  0  0  0  0  0  0  0  0  0  0
   44.1990  -20.5117   -8.9751 H   0  0  0  0  0  0  0  0  0  0  0  0
   44.3975  -17.0294   -9.4084 H   0  0  0  0  0  0  0  0  0  0  0  0
   45.3704  -18.3838   -8.7665 H   0  0  0  0  0  0  0  0  0  0  0  0
   45.5664  -16.0679   -7.7212 H   0  0  0  0  0  0  0  0  0  0  0  0
   44.2705  -15.6824  -11.1242 H   0  0  0  0  0  0  0  0  0  0  0  0
   50.4411  -15.4072   -8.3207 H   0  0  0  0  0  0  0  0  0  0  0  0
   48.3487  -14.8813  -13.8193 H   0  0  0  0  0  0  0  0  0  0  0  0
   42.4811  -18.4384  -10.1954 H   0  0  0  0  0  0  0  0  0  0  0  0
   42.7898  -19.8654  -11.2094 H   0  0  0  0  0  0  0  0  0  0  0  0
   43.2100  -18.6424   -7.7228 H   0  0  0  0  0  0  0  0  0  0  0  0
   41.5876  -19.3433   -8.1367 H   0  0  0  0  0  0  0  0  0  0  0  0
   42.7435  -20.2792   -7.1282 H   0  0  0  0  0  0  0  0  0  0  0  0
   45.2709  -19.6022  -10.9005 H   0  0  0  0  0  0  0  0  0  0  0  0
   44.4690  -18.2218  -11.7081 H   0  0  0  0  0  0  0  0  0  0  0  0
   46.8850  -14.9809   -5.9802 H   0  0  0  0  0  0  0  0  0  0  0  0
   44.1860  -14.2328  -13.0787 H   0  0  0  0  0  0  0  0  0  0  0  0
   46.2067  -13.8505  -14.4510 H   0  0  0  0  0  0  0  0  0  0  0  0
   49.3224  -14.6706   -6.2573 H   0  0  0  0  0  0  0  0  0  0  0  0
  2  1  1  0
  3  1  1  0
  4  6  1  0
  5  7  1  0
  6  2  2  0
  7  3  2  0
  8 14  1  0
  9  1  1  0
 10  2  1  0
 11  3  1  0
 12  6  1  0
 13  7  1  0
 14 16  1  0
 15  8  1  0
 16  9  1  0
 17 10  2  0
 18 11  2  0
 19 18  1  0
 20 17  1  0
  5  4  2  0
 19 13  2  0
 20 12  2  0
  1 21  1  0
  4 22  1  0
  5 23  1  0
  8 24  1  0
  9 25  1  0
  9 26  1  0
 10 27  1  0
 11 28  1  0
 12 29  1  0
 13 30  1  0
 14 31  1  0
 14 32  1  0
 15 33  1  0
 15 34  1  0
 15 35  1  0
 16 36  1  0
 16 37  1  0
 17 38  1  0
 18 39  1  0
 19 40  1  0
 20 41  1  0
M  END
> <Uni-Dock RESULT> 
ENERGY=   -4.241  LOWER_BOUND=    4.223  UPPER_BOUND=    6.070
INTER + INTRA:          -4.241
INTER:                  -4.241
INTRA:                   0.000
UNBOUND:                 0.000

$$$$

     RDKit          3D

 41 43  0  0  0  0  0  0  0  0999 V2000
   47.4055  -17.0097  -10.6829 C   0  0  0  0  0  0  0  0  0  0  0  0
   46.2913  -16.3748  -11.4956 C   0  0  0  0  0  0  0  0  0  0  0  0
   47.1580  -16.6809   -9.2191 C   0  0  0  0  0  0  0  0  0  0  0  0
   44.6312  -18.0249  -10.4867 C   0  0  0  0  0  0  0  0  0  0  0  0
   45.1108  -18.1997   -9.2434 C   0  0  0  0  0  0  0  0  0  0  0  0
   44.9763  -16.8970  -11.3898 C   0  0  0  0  0  0  0  0  0  0  0  0
   46.0613  -17.2892   -8.5552 C   0  0  0  0  0  0  0  0  0  0  0  0
   51.6149  -17.5480  -12.3891 N   0  0  0  0  0  0  0  0  0  0  0  0
   48.8360  -16.7310  -11.2179 C   0  0  0  0  0  0  0  0  0  0  0  0
   46.5125  -15.2496  -12.3194 C   0  0  0  0  0  0  0  0  0  0  0  0
   47.9430  -15.7433   -8.5123 C   0  0  0  0  0  0  0  0  0  0  0  0
   43.9508  -16.3546  -12.1812 C   0  0  0  0  0  0  0  0  0  0  0  0
   45.8555  -17.0424   -7.1882 C   0  0  0  0  0  0  0  0  0  0  0  0
   51.3276  -17.2636  -10.9696 C   0  0  0  0  0  0  0  0  0  0  0  0
   51.7032  -16.3221  -13.1858 C   0  0  0  0  0  0  0  0  0  0  0  0
   49.8913  -17.6357  -10.5571 C   0  0  0  0  0  0  0  0  0  0  0  0
   45.4729  -14.7077  -13.0768 C   0  0  0  0  0  0  0  0  0  0  0  0
   47.7043  -15.4906   -7.1606 C   0  0  0  0  0  0  0  0  0  0  0  0
   46.6729  -16.1497   -6.4962 C   0  0  0  0  0  0  0  0  0  0  0  0
   44.1983  -15.2667  -13.0180 C   0  0  0  0  0  0  0  0  0  0  0  0
   47.2915  -18.1115  -10.7984 H   0  0  0  0  0  0  0  0  0  0  0  0
   43.8536  -18.7040  -10.8162 H   0  0  0  0  0  0  0  0  0  0  0  0
   44.6853  -19.0070   -8.6586 H   0  0  0  0  0  0  0  0  0  0  0  0
   50.8850  -18.1694  -12.8095 H   0  0  0  0  0  0  0  0  0  0  0  0
   49.1163  -15.6657  -11.0900 H   0  0  0  0  0  0  0  0  0  0  0  0
   48.8387  -16.9423  -12.3091 H   0  0  0  0  0  0  0  0  0  0  0  0
   47.4847  -14.7849  -12.3936 H   0  0  0  0  0  0  0  0  0  0  0  0
   48.7523  -15.2085   -8.9845 H   0  0  0  0  0  0  0  0  0  0  0  0
   42.9474  -16.7606  -12.1319 H   0  0  0  0  0  0  0  0  0  0  0  0
   45.0397  -17.5227   -6.6610 H   0  0  0  0  0  0  0  0  0  0  0  0
   51.5324  -16.2020  -10.7002 H   0  0  0  0  0  0  0  0  0  0  0  0
   52.0232  -17.8757  -10.3572 H   0  0  0  0  0  0  0  0  0  0  0  0
   50.7626  -15.7350  -13.1242 H   0  0  0  0  0  0  0  0  0  0  0  0
   52.5542  -15.6995  -12.8355 H   0  0  0  0  0  0  0  0  0  0  0  0
   51.8861  -16.5853  -14.2490 H   0  0  0  0  0  0  0  0  0  0  0  0
   49.6921  -18.6990  -10.8145 H   0  0  0  0  0  0  0  0  0  0  0  0
   49.8225  -17.5461   -9.4526 H   0  0  0  0  0  0  0  0  0  0  0  0
   45.6578  -13.8530  -13.7148 H   0  0  0  0  0  0  0  0  0  0  0  0
   48.3245  -14.7830   -6.6256 H   0  0  0  0  0  0  0  0  0  0  0  0
   46.4953  -15.9558   -5.4462 H   0  0  0  0  0  0  0  0  0  0  0  0
   43.3965  -14.8479  -13.6124 H   0  0  0  0  0  0  0  0  0  0  0  0
  2  1  1  0
  3  1  1  0
  4  6  1  0
  5  7  1  0
  6  2  2  0
  7  3  2  0
  8 14  1  0
  9  1  1  0
 10  2  1  0
 11  3  1  0
 12  6  1  0
 13  7  1  0
 14 16  1  0
 15  8  1  0
 16  9  1  0
 17 10  2  0
 18 11  2  0
 19 18  1  0
 20 17  1  0
  5  4  2  0
 19 13  2  0
 20 12  2  0
  1 21  1  0
  4 22  1  0
  5 23  1  0
  8 24  1  0
  9 25  1  0
  9 26  1  0
 10 27  1  0
 11 28  1  0
 12 29  1  0
 13 30  1  0
 14 31  1  0
 14 32  1  0
 15 33  1  0
 15 34  1  0
 15 35  1  0
 16 36  1  0
 16 37  1  0
 17 38  1  0
 18 39  1  0
 19 40  1  0
 20 41  1  0
M  END
> <Uni-Dock RESULT> 
ENERGY=   -4.224  LOWER_BOUND=    3.657  UPPER_BOUND=    6.041
INTER + INTRA:          -4.224
INTER:                  -4.224
INTRA:                   0.000
UNBOUND:                 0.000

$$$$
