
     RDKit          3D

104107  0  0  0  0  0  0  0  0999 V2000
   48.3527    3.5197   18.7647 C   0  0  0  0  0  0  0  0  0  0  0  0
   48.3604    2.4699   19.5944 F   0  0  0  0  0  0  0  0  0  0  0  0
   47.6452    3.4485   17.5757 C   0  0  0  0  0  0  0  0  0  0  0  0
   47.6381    4.5455   16.7151 C   0  0  0  0  0  0  0  0  0  0  0  0
   46.9251    4.4275   15.5864 F   0  0  0  0  0  0  0  0  0  0  0  0
   48.3436    5.7168   17.0204 C   0  0  0  0  0  0  0  0  0  0  0  0
   47.8416    6.7104   14.9510 O   0  0  0  0  0  0  0  0  0  0  0  0
   48.3288    6.8648   16.0635 C   0  0  0  0  0  0  0  0  0  0  0  0
   48.8730    8.0455   16.5184 N   0  0  0  0  0  0  0  0  0  0  0  0
   49.0519    5.7499   18.2275 C   0  0  0  0  0  0  0  0  0  0  0  0
   49.7456    6.8399   18.5897 F   0  0  0  0  0  0  0  0  0  0  0  0
   49.0601    4.6637   19.1002 C   0  0  0  0  0  0  0  0  0  0  0  0
   49.5815   10.2207   16.5942 N   0  0  0  0  0  0  0  0  0  0  0  0
   49.7387   11.4461   16.0331 C   0  0  0  0  0  0  0  0  0  0  0  0
   48.9860    9.2659   15.8494 C   0  0  0  0  0  0  0  0  0  0  0  0
   48.5405    9.4995   14.5556 C   0  0  0  0  0  0  0  0  0  0  0  0
   48.7147   10.7648   13.9963 C   0  0  0  0  0  0  0  0  0  0  0  0
   49.3248   11.7607   14.7456 C   0  0  0  0  0  0  0  0  0  0  0  0
   50.3974   12.4954   16.8732 C   0  0  0  0  0  0  0  0  0  0  0  0
   50.8816   12.0950   18.2661 C   0  0  0  0  0  0  0  0  0  0  0  0
   49.7100   12.0843   19.2602 C   0  0  0  0  0  0  0  0  0  0  0  0
   49.7775   13.2606   20.2323 C   0  0  0  0  0  0  0  0  0  0  0  0
   51.0106   13.2325   21.0268 N   0  0  0  0  0  0  0  0  0  0  0  0
   52.2128   12.9034   20.2498 C   0  0  0  0  0  0  0  0  0  0  0  0
   52.0238   13.0088   18.7385 C   0  0  0  0  0  0  0  0  0  0  0  0
   50.5119   13.6410   16.4363 O   0  0  0  0  0  0  0  0  0  0  0  0
   51.1654   14.4810   21.7719 C   0  0  0  0  0  0  0  0  0  0  0  0
   51.5703    4.3883   18.1544 C   0  0  0  0  0  0  0  0  0  0  0  0
   52.4145    3.4476   17.7175 F   0  0  0  0  0  0  0  0  0  0  0  0
   51.0811    5.3320   17.2592 C   0  0  0  0  0  0  0  0  0  0  0  0
   50.2050    6.3108   17.7172 C   0  0  0  0  0  0  0  0  0  0  0  0
   49.7459    7.2107   16.8328 F   0  0  0  0  0  0  0  0  0  0  0  0
   49.8092    6.3553   19.0573 C   0  0  0  0  0  0  0  0  0  0  0  0
   48.0603    7.0244   20.4430 O   0  0  0  0  0  0  0  0  0  0  0  0
   48.8292    7.3538   19.5499 C   0  0  0  0  0  0  0  0  0  0  0  0
   48.8706    8.5844   18.9351 N   0  0  0  0  0  0  0  0  0  0  0  0
   50.3218    5.3938   19.9368 C   0  0  0  0  0  0  0  0  0  0  0  0
   50.0107    5.4137   21.2419 F   0  0  0  0  0  0  0  0  0  0  0  0
   51.2048    4.4124   19.4938 C   0  0  0  0  0  0  0  0  0  0  0  0
   48.3523   10.7464   18.3842 N   0  0  0  0  0  0  0  0  0  0  0  0
   47.5785   11.8534   18.4956 C   0  0  0  0  0  0  0  0  0  0  0  0
   48.0410    9.6854   19.1573 C   0  0  0  0  0  0  0  0  0  0  0  0
   46.9881    9.7031   20.0602 C   0  0  0  0  0  0  0  0  0  0  0  0
   46.2018   10.8496   20.1565 C   0  0  0  0  0  0  0  0  0  0  0  0
   46.4904   11.9436   19.3539 C   0  0  0  0  0  0  0  0  0  0  0  0
   47.9340   13.0326   17.6514 C   0  0  0  0  0  0  0  0  0  0  0  0
   49.3176   13.1550   17.0230 C   0  0  0  0  0  0  0  0  0  0  0  0
   50.4472   13.1194   18.0568 C   0  0  0  0  0  0  0  0  0  0  0  0
   51.8064   13.2690   17.3723 C   0  0  0  0  0  0  0  0  0  0  0  0
   52.0355   12.3034   16.2914 N   0  0  0  0  0  0  0  0  0  0  0  0
   50.9629   12.3591   15.2892 C   0  0  0  0  0  0  0  0  0  0  0  0
   49.5571   12.1772   15.8708 C   0  0  0  0  0  0  0  0  0  0  0  0
   47.0973   13.9261   17.4904 O   0  0  0  0  0  0  0  0  0  0  0  0
   52.2592   10.9499   16.7930 C   0  0  0  0  0  0  0  0  0  0  0  0
   48.4066    7.8257   17.6306 O   0  0  0  0  0  0  0  0  0  0  0  0
   49.5894    8.4664   17.5816 C   0  0  0  0  0  0  0  0  0  0  0  0
   50.5891    7.9759   18.0790 O   0  0  0  0  0  0  0  0  0  0  0  0
   49.4917    9.8067   16.9182 C   0  0  0  0  0  0  0  0  0  0  0  0
   49.2338   10.8822   17.9601 C   0  0  0  0  0  0  0  0  0  0  0  0
   50.5035   11.2505   18.6752 C   0  0  0  0  0  0  0  0  0  0  0  0
   51.5941   11.4411   18.1665 O   0  0  0  0  0  0  0  0  0  0  0  0
   50.3240   11.4111   19.9993 O   0  0  0  0  0  0  0  0  0  0  0  0
   47.0894    2.5530   17.3204 H   0  0  0  0  0  0  0  0  0  0  0  0
   49.2722    8.0938   17.4485 H   0  0  0  0  0  0  0  0  0  0  0  0
   49.6194    4.7122   20.0286 H   0  0  0  0  0  0  0  0  0  0  0  0
   48.0640    8.7287   13.9608 H   0  0  0  0  0  0  0  0  0  0  0  0
   48.3736   10.9678   12.9848 H   0  0  0  0  0  0  0  0  0  0  0  0
   49.4703   12.7548   14.3345 H   0  0  0  0  0  0  0  0  0  0  0  0
   51.2937   11.0801   18.1955 H   0  0  0  0  0  0  0  0  0  0  0  0
   49.7368   11.1463   19.8306 H   0  0  0  0  0  0  0  0  0  0  0  0
   48.7431   12.1026   18.7428 H   0  0  0  0  0  0  0  0  0  0  0  0
   48.9150   13.2092   20.9062 H   0  0  0  0  0  0  0  0  0  0  0  0
   49.6834   14.1980   19.6677 H   0  0  0  0  0  0  0  0  0  0  0  0
   53.0747   13.5091   20.5582 H   0  0  0  0  0  0  0  0  0  0  0  0
   52.4833   11.8677   20.4922 H   0  0  0  0  0  0  0  0  0  0  0  0
   51.8409   14.0575   18.4738 H   0  0  0  0  0  0  0  0  0  0  0  0
   52.9508   12.7232   18.2248 H   0  0  0  0  0  0  0  0  0  0  0  0
   52.0153   14.4185   22.4615 H   0  0  0  0  0  0  0  0  0  0  0  0
   51.3225   15.3396   21.1090 H   0  0  0  0  0  0  0  0  0  0  0  0
   50.2793   14.6796   22.3861 H   0  0  0  0  0  0  0  0  0  0  0  0
   51.3769    5.3004   16.2146 H   0  0  0  0  0  0  0  0  0  0  0  0
   49.5350    8.7543   18.1895 H   0  0  0  0  0  0  0  0  0  0  0  0
   51.5990    3.6756   20.1892 H   0  0  0  0  0  0  0  0  0  0  0  0
   46.7476    8.8527   20.6865 H   0  0  0  0  0  0  0  0  0  0  0  0
   45.3683   10.8786   20.8543 H   0  0  0  0  0  0  0  0  0  0  0  0
   45.8889   12.8470   19.4066 H   0  0  0  0  0  0  0  0  0  0  0  0
   49.3374   14.1650   16.5826 H   0  0  0  0  0  0  0  0  0  0  0  0
   50.4368   12.1920   18.6400 H   0  0  0  0  0  0  0  0  0  0  0  0
   50.3144   13.9335   18.7803 H   0  0  0  0  0  0  0  0  0  0  0  0
   52.6079   13.1986   18.1193 H   0  0  0  0  0  0  0  0  0  0  0  0
   51.8888   14.2815   16.9555 H   0  0  0  0  0  0  0  0  0  0  0  0
   51.0139   13.3328   14.7840 H   0  0  0  0  0  0  0  0  0  0  0  0
   51.1393   11.6143   14.5043 H   0  0  0  0  0  0  0  0  0  0  0  0
   48.8106   12.3499   15.0841 H   0  0  0  0  0  0  0  0  0  0  0  0
   49.4263   11.1365   16.1872 H   0  0  0  0  0  0  0  0  0  0  0  0
   52.5359   10.2830   15.9684 H   0  0  0  0  0  0  0  0  0  0  0  0
   51.3865   10.5167   17.2927 H   0  0  0  0  0  0  0  0  0  0  0  0
   53.0969   10.9314   17.5009 H   0  0  0  0  0  0  0  0  0  0  0  0
   48.6135    6.9835   18.0870 H   0  0  0  0  0  0  0  0  0  0  0  0
   50.4097    9.9735   16.3434 H   0  0  0  0  0  0  0  0  0  0  0  0
   48.6720    9.7762   16.1908 H   0  0  0  0  0  0  0  0  0  0  0  0
   48.4833   10.5456   18.6861 H   0  0  0  0  0  0  0  0  0  0  0  0
   48.8564   11.7948   17.4854 H   0  0  0  0  0  0  0  0  0  0  0  0
   51.2188   11.6394   20.3301 H   0  0  0  0  0  0  0  0  0  0  0  0
  1  2  1  0
  1 12  2  0
  3  1  1  0
  3  4  2  0
  4  6  1  0
  5  4  1  0
  7  8  2  0
  8  9  1  0
  8  6  1  0
  9 15  1  0
 10 11  1  0
 10  6  2  0
 12 10  1  0
 13 14  2  0
 14 18  1  0
 15 13  1  0
 15 16  2  0
 16 17  1  0
 18 17  2  0
 19 14  1  0
 19 20  1  0
 20 21  1  0
 21 22  1  0
 22 23  1  0
 23 24  1  0
 23 27  1  0
 24 25  1  0
 25 20  1  0
 26 19  2  0
 28 29  1  0
 28 39  2  0
 30 28  1  0
 30 31  2  0
 31 33  1  0
 32 31  1  0
 34 35  2  0
 35 36  1  0
 35 33  1  0
 36 42  1  0
 37 38  1  0
 37 33  2  0
 39 37  1  0
 40 41  2  0
 41 45  1  0
 42 40  1  0
 42 43  2  0
 43 44  1  0
 45 44  2  0
 46 41  1  0
 46 47  1  0
 47 48  1  0
 48 49  1  0
 49 50  1  0
 50 51  1  0
 50 54  1  0
 51 52  1  0
 52 47  1  0
 53 46  2  0
 55 56  1  0
 56 57  2  0
 56 58  1  0
 58 59  1  0
 59 60  1  0
 60 61  2  0
 60 62  1  0
  3 63  1  0
  9 64  1  0
 12 65  1  0
 16 66  1  0
 17 67  1  0
 18 68  1  0
 20 69  1  0
 21 70  1  0
 21 71  1  0
 22 72  1  0
 22 73  1  0
 24 74  1  0
 24 75  1  0
 25 76  1  0
 25 77  1  0
 27 78  1  0
 27 79  1  0
 27 80  1  0
 30 81  1  0
 36 82  1  0
 39 83  1  0
 43 84  1  0
 44 85  1  0
 45 86  1  0
 47 87  1  0
 48 88  1  0
 48 89  1  0
 49 90  1  0
 49 91  1  0
 51 92  1  0
 51 93  1  0
 52 94  1  0
 52 95  1  0
 54 96  1  0
 54 97  1  0
 54 98  1  0
 55 99  1  0
 58100  1  0
 58101  1  0
 59102  1  0
 59103  1  0
 62104  1  0
M  END
> <Uni-Dock RESULT> 
ENERGY=   -5.158  LOWER_BOUND=    0.000  UPPER_BOUND=    0.000
INTER + INTRA:          -5.158
INTER:                  -5.158
INTRA:                   0.000
UNBOUND:                 0.000

$$$$

     RDKit          3D

104107  0  0  0  0  0  0  0  0999 V2000
   47.3949    5.7558   19.3028 C   0  0  0  0  0  0  0  0  0  0  0  0
   46.2547    6.0249   18.6563 F   0  0  0  0  0  0  0  0  0  0  0  0
   47.3620    5.4579   20.6554 C   0  0  0  0  0  0  0  0  0  0  0  0
   48.5522    5.1760   21.3247 C   0  0  0  0  0  0  0  0  0  0  0  0
   48.4604    4.8795   22.6285 F   0  0  0  0  0  0  0  0  0  0  0  0
   49.7859    5.2006   20.6611 C   0  0  0  0  0  0  0  0  0  0  0  0
   51.0005    4.8238   22.6370 O   0  0  0  0  0  0  0  0  0  0  0  0
   51.0428    4.9127   21.4168 C   0  0  0  0  0  0  0  0  0  0  0  0
   52.1857    4.7577   20.6637 N   0  0  0  0  0  0  0  0  0  0  0  0
   49.7806    5.5116   19.2961 C   0  0  0  0  0  0  0  0  0  0  0  0
   50.9231    5.5481   18.5933 F   0  0  0  0  0  0  0  0  0  0  0  0
   48.5974    5.7868   18.6137 C   0  0  0  0  0  0  0  0  0  0  0  0
   54.3713    4.3993   20.0862 N   0  0  0  0  0  0  0  0  0  0  0  0
   55.6628    4.1320   20.4052 C   0  0  0  0  0  0  0  0  0  0  0  0
   53.4830    4.4799   21.0988 C   0  0  0  0  0  0  0  0  0  0  0  0
   53.8476    4.3003   22.4261 C   0  0  0  0  0  0  0  0  0  0  0  0
   55.1805    4.0298   22.7329 C   0  0  0  0  0  0  0  0  0  0  0  0
   56.1098    3.9426   21.7061 C   0  0  0  0  0  0  0  0  0  0  0  0
   56.6351    4.0419   19.2707 C   0  0  0  0  0  0  0  0  0  0  0  0
   56.1121    4.3045   17.8592 C   0  0  0  0  0  0  0  0  0  0  0  0
   55.4055    3.0569   17.3067 C   0  0  0  0  0  0  0  0  0  0  0  0
   56.2325    2.3674   16.2232 C   0  0  0  0  0  0  0  0  0  0  0  0
   56.4767    3.2584   15.0835 N   0  0  0  0  0  0  0  0  0  0  0  0
   56.8379    4.6298   15.4659 C   0  0  0  0  0  0  0  0  0  0  0  0
   57.2409    4.7806   16.9307 C   0  0  0  0  0  0  0  0  0  0  0  0
   57.8081    3.7429   19.4973 O   0  0  0  0  0  0  0  0  0  0  0  0
   57.4584    2.6671   14.1754 C   0  0  0  0  0  0  0  0  0  0  0  0
   49.5470    8.3082   18.7251 C   0  0  0  0  0  0  0  0  0  0  0  0
   49.1419    9.5566   18.9823 F   0  0  0  0  0  0  0  0  0  0  0  0
   50.4260    7.6841   19.6022 C   0  0  0  0  0  0  0  0  0  0  0  0
   50.8475    6.3864   19.3307 C   0  0  0  0  0  0  0  0  0  0  0  0
   51.6961    5.8051   20.1935 F   0  0  0  0  0  0  0  0  0  0  0  0
   50.3983    5.7042   18.1961 C   0  0  0  0  0  0  0  0  0  0  0  0
   49.9779    3.5646   17.3761 O   0  0  0  0  0  0  0  0  0  0  0  0
   50.7890    4.2995   17.9233 C   0  0  0  0  0  0  0  0  0  0  0  0
   52.0545    3.9423   18.3294 N   0  0  0  0  0  0  0  0  0  0  0  0
   49.5163    6.3601   17.3286 C   0  0  0  0  0  0  0  0  0  0  0  0
   49.0864    5.7702   16.2026 F   0  0  0  0  0  0  0  0  0  0  0  0
   49.0914    7.6612   17.5840 C   0  0  0  0  0  0  0  0  0  0  0  0
   53.9193    2.6765   18.7375 N   0  0  0  0  0  0  0  0  0  0  0  0
   54.5812    1.4939   18.7416 C   0  0  0  0  0  0  0  0  0  0  0  0
   52.6619    2.6877   18.2484 C   0  0  0  0  0  0  0  0  0  0  0  0
   52.0489    1.5522   17.7395 C   0  0  0  0  0  0  0  0  0  0  0  0
   52.7450    0.3450   17.7569 C   0  0  0  0  0  0  0  0  0  0  0  0
   54.0306    0.3068   18.2767 C   0  0  0  0  0  0  0  0  0  0  0  0
   55.9786    1.4862   19.2680 C   0  0  0  0  0  0  0  0  0  0  0  0
   56.7729    2.7813   19.3948 C   0  0  0  0  0  0  0  0  0  0  0  0
   56.9107    3.5288   18.0650 C   0  0  0  0  0  0  0  0  0  0  0  0
   57.7341    4.8042   18.2488 C   0  0  0  0  0  0  0  0  0  0  0  0
   57.2351    5.6842   19.3117 N   0  0  0  0  0  0  0  0  0  0  0  0
   57.1289    4.9697   20.5909 C   0  0  0  0  0  0  0  0  0  0  0  0
   56.2849    3.6927   20.5228 C   0  0  0  0  0  0  0  0  0  0  0  0
   56.4954    0.4078   19.5751 O   0  0  0  0  0  0  0  0  0  0  0  0
   55.9897    6.3520   18.9418 C   0  0  0  0  0  0  0  0  0  0  0  0
   51.5319    4.1845   19.7994 O   0  0  0  0  0  0  0  0  0  0  0  0
   52.5647    4.9399   19.3816 C   0  0  0  0  0  0  0  0  0  0  0  0
   52.3836    5.9025   18.6548 O   0  0  0  0  0  0  0  0  0  0  0  0
   53.8871    4.4257   19.8641 C   0  0  0  0  0  0  0  0  0  0  0  0
   54.4828    3.4819   18.8331 C   0  0  0  0  0  0  0  0  0  0  0  0
   55.1137    4.2498   17.7055 C   0  0  0  0  0  0  0  0  0  0  0  0
   55.8269    5.2324   17.8060 O   0  0  0  0  0  0  0  0  0  0  0  0
   54.8541    3.7077   16.5013 O   0  0  0  0  0  0  0  0  0  0  0  0
   46.4181    5.4300   21.1887 H   0  0  0  0  0  0  0  0  0  0  0  0
   52.1460    4.8603   19.6564 H   0  0  0  0  0  0  0  0  0  0  0  0
   48.6193    6.0285   17.5563 H   0  0  0  0  0  0  0  0  0  0  0  0
   53.1304    4.3675   23.2362 H   0  0  0  0  0  0  0  0  0  0  0  0
   55.4863    3.8866   23.7657 H   0  0  0  0  0  0  0  0  0  0  0  0
   57.1532    3.7308   21.9177 H   0  0  0  0  0  0  0  0  0  0  0  0
   55.3840    5.1236   17.9218 H   0  0  0  0  0  0  0  0  0  0  0  0
   54.4375    3.3554   16.8829 H   0  0  0  0  0  0  0  0  0  0  0  0
   55.1842    2.3346   18.1018 H   0  0  0  0  0  0  0  0  0  0  0  0
   55.6883    1.4818   15.8764 H   0  0  0  0  0  0  0  0  0  0  0  0
   57.1729    2.0095   16.6634 H   0  0  0  0  0  0  0  0  0  0  0  0
   57.6271    5.0373   14.8210 H   0  0  0  0  0  0  0  0  0  0  0  0
   55.9585    5.2606   15.2834 H   0  0  0  0  0  0  0  0  0  0  0  0
   58.1708    4.2253   17.1042 H   0  0  0  0  0  0  0  0  0  0  0  0
   57.4694    5.8316   17.1495 H   0  0  0  0  0  0  0  0  0  0  0  0
   57.5526    3.2663   13.2623 H   0  0  0  0  0  0  0  0  0  0  0  0
   58.4492    2.5848   14.6368 H   0  0  0  0  0  0  0  0  0  0  0  0
   57.1426    1.6657   13.8603 H   0  0  0  0  0  0  0  0  0  0  0  0
   50.7740    8.2036   20.4902 H   0  0  0  0  0  0  0  0  0  0  0  0
   52.6468    4.6215   18.7923 H   0  0  0  0  0  0  0  0  0  0  0  0
   48.4106    8.1601   16.8987 H   0  0  0  0  0  0  0  0  0  0  0  0
   51.0429    1.5673   17.3384 H   0  0  0  0  0  0  0  0  0  0  0  0
   52.2774   -0.5564   17.3680 H   0  0  0  0  0  0  0  0  0  0  0  0
   54.5918   -0.6231   18.3062 H   0  0  0  0  0  0  0  0  0  0  0  0
   57.7900    2.4606   19.6725 H   0  0  0  0  0  0  0  0  0  0  0  0
   55.9346    3.7874   17.6399 H   0  0  0  0  0  0  0  0  0  0  0  0
   57.4018    2.8840   17.3256 H   0  0  0  0  0  0  0  0  0  0  0  0
   57.7883    5.3512   17.2985 H   0  0  0  0  0  0  0  0  0  0  0  0
   58.7713    4.5309   18.4839 H   0  0  0  0  0  0  0  0  0  0  0  0
   58.1419    4.7074   20.9239 H   0  0  0  0  0  0  0  0  0  0  0  0
   56.7315    5.6366   21.3650 H   0  0  0  0  0  0  0  0  0  0  0  0
   56.3527    3.1580   21.4795 H   0  0  0  0  0  0  0  0  0  0  0  0
   55.2295    3.9603   20.4011 H   0  0  0  0  0  0  0  0  0  0  0  0
   55.7098    7.0811   19.7109 H   0  0  0  0  0  0  0  0  0  0  0  0
   55.1459    5.6666   18.8104 H   0  0  0  0  0  0  0  0  0  0  0  0
   56.1137    6.9168   18.0098 H   0  0  0  0  0  0  0  0  0  0  0  0
   50.7464    4.6242   19.4121 H   0  0  0  0  0  0  0  0  0  0  0  0
   54.5301    5.2852   20.0855 H   0  0  0  0  0  0  0  0  0  0  0  0
   53.7313    3.9026   20.8149 H   0  0  0  0  0  0  0  0  0  0  0  0
   53.7144    2.8060   18.4377 H   0  0  0  0  0  0  0  0  0  0  0  0
   55.2706    2.8680   19.2837 H   0  0  0  0  0  0  0  0  0  0  0  0
   55.3147    4.3039   15.8729 H   0  0  0  0  0  0  0  0  0  0  0  0
  1  2  1  0
  1 12  2  0
  3  1  1  0
  3  4  2  0
  4  6  1  0
  5  4  1  0
  7  8  2  0
  8  9  1  0
  8  6  1  0
  9 15  1  0
 10 11  1  0
 10  6  2  0
 12 10  1  0
 13 14  2  0
 14 18  1  0
 15 13  1  0
 15 16  2  0
 16 17  1  0
 18 17  2  0
 19 14  1  0
 19 20  1  0
 20 21  1  0
 21 22  1  0
 22 23  1  0
 23 24  1  0
 23 27  1  0
 24 25  1  0
 25 20  1  0
 26 19  2  0
 28 29  1  0
 28 39  2  0
 30 28  1  0
 30 31  2  0
 31 33  1  0
 32 31  1  0
 34 35  2  0
 35 36  1  0
 35 33  1  0
 36 42  1  0
 37 38  1  0
 37 33  2  0
 39 37  1  0
 40 41  2  0
 41 45  1  0
 42 40  1  0
 42 43  2  0
 43 44  1  0
 45 44  2  0
 46 41  1  0
 46 47  1  0
 47 48  1  0
 48 49  1  0
 49 50  1  0
 50 51  1  0
 50 54  1  0
 51 52  1  0
 52 47  1  0
 53 46  2  0
 55 56  1  0
 56 57  2  0
 56 58  1  0
 58 59  1  0
 59 60  1  0
 60 61  2  0
 60 62  1  0
  3 63  1  0
  9 64  1  0
 12 65  1  0
 16 66  1  0
 17 67  1  0
 18 68  1  0
 20 69  1  0
 21 70  1  0
 21 71  1  0
 22 72  1  0
 22 73  1  0
 24 74  1  0
 24 75  1  0
 25 76  1  0
 25 77  1  0
 27 78  1  0
 27 79  1  0
 27 80  1  0
 30 81  1  0
 36 82  1  0
 39 83  1  0
 43 84  1  0
 44 85  1  0
 45 86  1  0
 47 87  1  0
 48 88  1  0
 48 89  1  0
 49 90  1  0
 49 91  1  0
 51 92  1  0
 51 93  1  0
 52 94  1  0
 52 95  1  0
 54 96  1  0
 54 97  1  0
 54 98  1  0
 55 99  1  0
 58100  1  0
 58101  1  0
 59102  1  0
 59103  1  0
 62104  1  0
M  END
> <Uni-Dock RESULT> 
ENERGY=   -5.059  LOWER_BOUND=    4.634  UPPER_BOUND=    8.916
INTER + INTRA:          -5.059
INTER:                  -5.059
INTRA:                   0.000
UNBOUND:                 0.000

$$$$

     RDKit          3D

104107  0  0  0  0  0  0  0  0999 V2000
   51.1881    7.9234   14.6685 C   0  0  0  0  0  0  0  0  0  0  0  0
   52.4096    7.6080   15.1148 F   0  0  0  0  0  0  0  0  0  0  0  0
   50.0948    7.1779   15.0790 C   0  0  0  0  0  0  0  0  0  0  0  0
   48.8236    7.5112   14.6134 C   0  0  0  0  0  0  0  0  0  0  0  0
   47.8004    6.7664   15.0546 F   0  0  0  0  0  0  0  0  0  0  0  0
   48.6280    8.5780   13.7264 C   0  0  0  0  0  0  0  0  0  0  0  0
   46.3380    8.1157   13.4748 O   0  0  0  0  0  0  0  0  0  0  0  0
   47.2528    8.8926   13.2331 C   0  0  0  0  0  0  0  0  0  0  0  0
   47.1108   10.0683   12.5297 N   0  0  0  0  0  0  0  0  0  0  0  0
   49.7567    9.3046   13.3289 C   0  0  0  0  0  0  0  0  0  0  0  0
   49.6462   10.3430   12.4863 F   0  0  0  0  0  0  0  0  0  0  0  0
   51.0314    8.9871   13.7935 C   0  0  0  0  0  0  0  0  0  0  0  0
   46.1761   11.7829   11.3358 N   0  0  0  0  0  0  0  0  0  0  0  0
   45.1131   12.3917   10.7521 C   0  0  0  0  0  0  0  0  0  0  0  0
   45.9546   10.6095   11.9643 C   0  0  0  0  0  0  0  0  0  0  0  0
   44.6977   10.0237   12.0278 C   0  0  0  0  0  0  0  0  0  0  0  0
   43.6192   10.6639   11.4186 C   0  0  0  0  0  0  0  0  0  0  0  0
   43.8258   11.8716   10.7672 C   0  0  0  0  0  0  0  0  0  0  0  0
   45.3743   13.6943   10.0624 C   0  0  0  0  0  0  0  0  0  0  0  0
   46.8130   14.2077   10.0269 C   0  0  0  0  0  0  0  0  0  0  0  0
   47.1770   14.8804   11.3595 C   0  0  0  0  0  0  0  0  0  0  0  0
   47.2682   16.3992   11.2242 C   0  0  0  0  0  0  0  0  0  0  0  0
   48.2958   16.7927   10.2538 N   0  0  0  0  0  0  0  0  0  0  0  0
   48.2978   15.9845    9.0273 C   0  0  0  0  0  0  0  0  0  0  0  0
   47.0352   15.1489    8.8320 C   0  0  0  0  0  0  0  0  0  0  0  0
   44.4357   14.3193    9.5673 O   0  0  0  0  0  0  0  0  0  0  0  0
   48.2042   18.2233    9.9663 C   0  0  0  0  0  0  0  0  0  0  0  0
   51.3133    8.0396   11.2847 C   0  0  0  0  0  0  0  0  0  0  0  0
   51.7976    6.9811   10.6261 F   0  0  0  0  0  0  0  0  0  0  0  0
   49.9413    8.2598   11.3029 C   0  0  0  0  0  0  0  0  0  0  0  0
   49.4407    9.3631   11.9867 C   0  0  0  0  0  0  0  0  0  0  0  0
   48.1116    9.5537   11.9901 F   0  0  0  0  0  0  0  0  0  0  0  0
   50.2939   10.2460   12.6552 C   0  0  0  0  0  0  0  0  0  0  0  0
   50.3761   11.7284   14.4504 O   0  0  0  0  0  0  0  0  0  0  0  0
   49.7735   11.3922   13.4398 C   0  0  0  0  0  0  0  0  0  0  0  0
   48.6284   11.9789   12.9515 N   0  0  0  0  0  0  0  0  0  0  0  0
   51.6720   10.0007   12.6158 C   0  0  0  0  0  0  0  0  0  0  0  0
   52.5410   10.8378   13.2029 F   0  0  0  0  0  0  0  0  0  0  0  0
   52.1877    8.9043   11.9297 C   0  0  0  0  0  0  0  0  0  0  0  0
   46.8180   13.3703   12.7708 N   0  0  0  0  0  0  0  0  0  0  0  0
   46.0178   14.3551   13.2467 C   0  0  0  0  0  0  0  0  0  0  0  0
   47.8965   13.0304   13.5068 C   0  0  0  0  0  0  0  0  0  0  0  0
   48.2152   13.6623   14.6997 C   0  0  0  0  0  0  0  0  0  0  0  0
   47.3771   14.6695   15.1741 C   0  0  0  0  0  0  0  0  0  0  0  0
   46.2501   15.0187   14.4444 C   0  0  0  0  0  0  0  0  0  0  0  0
   44.8336   14.7417   12.4232 C   0  0  0  0  0  0  0  0  0  0  0  0
   44.7534   14.3691   10.9470 C   0  0  0  0  0  0  0  0  0  0  0  0
   45.9311   14.9101   10.1307 C   0  0  0  0  0  0  0  0  0  0  0  0
   45.7850   14.5258    8.6578 C   0  0  0  0  0  0  0  0  0  0  0  0
   45.5919   13.0882    8.4363 N   0  0  0  0  0  0  0  0  0  0  0  0
   44.4457   12.5791    9.2013 C   0  0  0  0  0  0  0  0  0  0  0  0
   44.5168   12.8773   10.7025 C   0  0  0  0  0  0  0  0  0  0  0  0
   43.9276   15.3948   12.9492 O   0  0  0  0  0  0  0  0  0  0  0  0
   46.8098   12.3194    8.6802 C   0  0  0  0  0  0  0  0  0  0  0  0
   47.9179   10.6075   13.2787 O   0  0  0  0  0  0  0  0  0  0  0  0
   47.9146   11.0108   11.9945 C   0  0  0  0  0  0  0  0  0  0  0  0
   48.9014   10.8718   11.2913 O   0  0  0  0  0  0  0  0  0  0  0  0
   46.6243   11.6621   11.5983 C   0  0  0  0  0  0  0  0  0  0  0  0
   46.7162   13.1639   11.8104 C   0  0  0  0  0  0  0  0  0  0  0  0
   47.4723   13.8179   10.6879 C   0  0  0  0  0  0  0  0  0  0  0  0
   47.3457   13.5901    9.4978 O   0  0  0  0  0  0  0  0  0  0  0  0
   48.3202   14.7694   11.1203 O   0  0  0  0  0  0  0  0  0  0  0  0
   50.2222    6.3499   15.7676 H   0  0  0  0  0  0  0  0  0  0  0  0
   47.9186   10.6548   12.3556 H   0  0  0  0  0  0  0  0  0  0  0  0
   51.8914    9.5631   13.4684 H   0  0  0  0  0  0  0  0  0  0  0  0
   44.5252    9.0801   12.5328 H   0  0  0  0  0  0  0  0  0  0  0  0
   42.6275   10.2215   11.4566 H   0  0  0  0  0  0  0  0  0  0  0  0
   43.0028   12.3915   10.2870 H   0  0  0  0  0  0  0  0  0  0  0  0
   47.4711   13.3419    9.8774 H   0  0  0  0  0  0  0  0  0  0  0  0
   48.1461   14.4923   11.7001 H   0  0  0  0  0  0  0  0  0  0  0  0
   46.4530   14.6340   12.1456 H   0  0  0  0  0  0  0  0  0  0  0  0
   47.5170   16.8246   12.2029 H   0  0  0  0  0  0  0  0  0  0  0  0
   46.2812   16.7943   10.9484 H   0  0  0  0  0  0  0  0  0  0  0  0
   48.4766   16.5992    8.1357 H   0  0  0  0  0  0  0  0  0  0  0  0
   49.1563   15.3034    9.0880 H   0  0  0  0  0  0  0  0  0  0  0  0
   46.1818   15.8212    8.6805 H   0  0  0  0  0  0  0  0  0  0  0  0
   47.1191   14.5532    7.9138 H   0  0  0  0  0  0  0  0  0  0  0  0
   49.0439   18.5479    9.3408 H   0  0  0  0  0  0  0  0  0  0  0  0
   47.2716   18.4811    9.4513 H   0  0  0  0  0  0  0  0  0  0  0  0
   48.2589   18.8099   10.8908 H   0  0  0  0  0  0  0  0  0  0  0  0
   49.2702    7.5748   10.7930 H   0  0  0  0  0  0  0  0  0  0  0  0
   48.1922   11.6143   12.1129 H   0  0  0  0  0  0  0  0  0  0  0  0
   53.2604    8.7294   11.9030 H   0  0  0  0  0  0  0  0  0  0  0  0
   49.0876   13.3934   15.2827 H   0  0  0  0  0  0  0  0  0  0  0  0
   47.6082   15.1711   16.1108 H   0  0  0  0  0  0  0  0  0  0  0  0
   45.5783   15.7970   14.7958 H   0  0  0  0  0  0  0  0  0  0  0  0
   43.8572   14.8909   10.5743 H   0  0  0  0  0  0  0  0  0  0  0  0
   46.8915   14.5404   10.5067 H   0  0  0  0  0  0  0  0  0  0  0  0
   45.9724   16.0030   10.2176 H   0  0  0  0  0  0  0  0  0  0  0  0
   46.6563   14.8825    8.0930 H   0  0  0  0  0  0  0  0  0  0  0  0
   44.9261   15.0605    8.2310 H   0  0  0  0  0  0  0  0  0  0  0  0
   43.5316   13.0307    8.7934 H   0  0  0  0  0  0  0  0  0  0  0  0
   44.3335   11.5002    9.0419 H   0  0  0  0  0  0  0  0  0  0  0  0
   43.5762   12.5735   11.1808 H   0  0  0  0  0  0  0  0  0  0  0  0
   45.2997   12.2617   11.1589 H   0  0  0  0  0  0  0  0  0  0  0  0
   46.6571   11.2714    8.3979 H   0  0  0  0  0  0  0  0  0  0  0  0
   47.1394   12.3381    9.7242 H   0  0  0  0  0  0  0  0  0  0  0  0
   47.6343   12.6907    8.0594 H   0  0  0  0  0  0  0  0  0  0  0  0
   48.8072   10.2139   13.3998 H   0  0  0  0  0  0  0  0  0  0  0  0
   46.4036   11.3850   10.5612 H   0  0  0  0  0  0  0  0  0  0  0  0
   45.8187   11.2393   12.2100 H   0  0  0  0  0  0  0  0  0  0  0  0
   47.2030   13.3905   12.7671 H   0  0  0  0  0  0  0  0  0  0  0  0
   45.7164   13.6117   11.8277 H   0  0  0  0  0  0  0  0  0  0  0  0
   48.7400   15.0993   10.2973 H   0  0  0  0  0  0  0  0  0  0  0  0
  1  2  1  0
  1 12  2  0
  3  1  1  0
  3  4  2  0
  4  6  1  0
  5  4  1  0
  7  8  2  0
  8  9  1  0
  8  6  1  0
  9 15  1  0
 10 11  1  0
 10  6  2  0
 12 10  1  0
 13 14  2  0
 14 18  1  0
 15 13  1  0
 15 16  2  0
 16 17  1  0
 18 17  2  0
 19 14  1  0
 19 20  1  0
 20 21  1  0
 21 22  1  0
 22 23  1  0
 23 24  1  0
 23 27  1  0
 24 25  1  0
 25 20  1  0
 26 19  2  0
 28 29  1  0
 28 39  2  0
 30 28  1  0
 30 31  2  0
 31 33  1  0
 32 31  1  0
 34 35  2  0
 35 36  1  0
 35 33  1  0
 36 42  1  0
 37 38  1  0
 37 33  2  0
 39 37  1  0
 40 41  2  0
 41 45  1  0
 42 40  1  0
 42 43  2  0
 43 44  1  0
 45 44  2  0
 46 41  1  0
 46 47  1  0
 47 48  1  0
 48 49  1  0
 49 50  1  0
 50 51  1  0
 50 54  1  0
 51 52  1  0
 52 47  1  0
 53 46  2  0
 55 56  1  0
 56 57  2  0
 56 58  1  0
 58 59  1  0
 59 60  1  0
 60 61  2  0
 60 62  1  0
  3 63  1  0
  9 64  1  0
 12 65  1  0
 16 66  1  0
 17 67  1  0
 18 68  1  0
 20 69  1  0
 21 70  1  0
 21 71  1  0
 22 72  1  0
 22 73  1  0
 24 74  1  0
 24 75  1  0
 25 76  1  0
 25 77  1  0
 27 78  1  0
 27 79  1  0
 27 80  1  0
 30 81  1  0
 36 82  1  0
 39 83  1  0
 43 84  1  0
 44 85  1  0
 45 86  1  0
 47 87  1  0
 48 88  1  0
 48 89  1  0
 49 90  1  0
 49 91  1  0
 51 92  1  0
 51 93  1  0
 52 94  1  0
 52 95  1  0
 54 96  1  0
 54 97  1  0
 54 98  1  0
 55 99  1  0
 58100  1  0
 58101  1  0
 59102  1  0
 59103  1  0
 62104  1  0
M  END
> <Uni-Dock RESULT> 
ENERGY=   -4.946  LOWER_BOUND=    5.084  UPPER_BOUND=    7.705
INTER + INTRA:          -4.946
INTER:                  -4.946
INTRA:                   0.000
UNBOUND:                 0.000

$$$$

     RDKit          3D

104107  0  0  0  0  0  0  0  0999 V2000
   47.2712    5.2902   18.3053 C   0  0  0  0  0  0  0  0  0  0  0  0
   46.1201    5.9565   18.4525 F   0  0  0  0  0  0  0  0  0  0  0  0
   47.2641    4.0275   17.7352 C   0  0  0  0  0  0  0  0  0  0  0  0
   48.4659    3.3376   17.5817 C   0  0  0  0  0  0  0  0  0  0  0  0
   48.4026    2.1268   17.0103 F   0  0  0  0  0  0  0  0  0  0  0  0
   49.6826    3.8886   18.0046 C   0  0  0  0  0  0  0  0  0  0  0  0
   50.8891    1.9372   17.4967 O   0  0  0  0  0  0  0  0  0  0  0  0
   50.9481    3.1103   17.8418 C   0  0  0  0  0  0  0  0  0  0  0  0
   52.1194    3.7905   18.0924 N   0  0  0  0  0  0  0  0  0  0  0  0
   49.6500    5.1637   18.5817 C   0  0  0  0  0  0  0  0  0  0  0  0
   50.7764    5.7576   19.0047 F   0  0  0  0  0  0  0  0  0  0  0  0
   48.4568    5.8672   18.7330 C   0  0  0  0  0  0  0  0  0  0  0  0
   54.3465    4.2597   18.3347 N   0  0  0  0  0  0  0  0  0  0  0  0
   55.6546    3.9019   18.2889 C   0  0  0  0  0  0  0  0  0  0  0  0
   53.4319    3.3208   18.0139 C   0  0  0  0  0  0  0  0  0  0  0  0
   53.7863    2.0299   17.6467 C   0  0  0  0  0  0  0  0  0  0  0  0
   55.1358    1.6815   17.6091 C   0  0  0  0  0  0  0  0  0  0  0  0
   56.0923    2.6324   17.9354 C   0  0  0  0  0  0  0  0  0  0  0  0
   56.6570    4.9554   18.6436 C   0  0  0  0  0  0  0  0  0  0  0  0
   56.1322    6.3246   19.0737 C   0  0  0  0  0  0  0  0  0  0  0  0
   55.7405    7.1605   17.8454 C   0  0  0  0  0  0  0  0  0  0  0  0
   56.7339    8.2915   17.5862 C   0  0  0  0  0  0  0  0  0  0  0  0
   56.8074    9.2149   18.7240 N   0  0  0  0  0  0  0  0  0  0  0  0
   56.8403    8.5474   20.0320 C   0  0  0  0  0  0  0  0  0  0  0  0
   57.1538    7.0550   19.9602 C   0  0  0  0  0  0  0  0  0  0  0  0
   57.8596    4.7032   18.5614 O   0  0  0  0  0  0  0  0  0  0  0  0
   57.9241   10.1435   18.5554 C   0  0  0  0  0  0  0  0  0  0  0  0
   48.8137    5.1972   21.3205 C   0  0  0  0  0  0  0  0  0  0  0  0
   48.1316    4.7341   22.3736 F   0  0  0  0  0  0  0  0  0  0  0  0
   49.7826    4.3940   20.7311 C   0  0  0  0  0  0  0  0  0  0  0  0
   50.4922    4.8795   19.6374 C   0  0  0  0  0  0  0  0  0  0  0  0
   51.4225    4.0842   19.0853 F   0  0  0  0  0  0  0  0  0  0  0  0
   50.2425    6.1555   19.1238 C   0  0  0  0  0  0  0  0  0  0  0  0
   50.3374    7.4045   17.1597 O   0  0  0  0  0  0  0  0  0  0  0  0
   50.9461    6.6653   17.9216 C   0  0  0  0  0  0  0  0  0  0  0  0
   52.2463    6.2418   17.7665 N   0  0  0  0  0  0  0  0  0  0  0  0
   49.2633    6.9435   19.7410 C   0  0  0  0  0  0  0  0  0  0  0  0
   49.0113    8.1917   19.3179 F   0  0  0  0  0  0  0  0  0  0  0  0
   48.5500    6.4733   20.8405 C   0  0  0  0  0  0  0  0  0  0  0  0
   54.3337    5.9472   16.8708 N   0  0  0  0  0  0  0  0  0  0  0  0
   55.2432    6.1226   15.8815 C   0  0  0  0  0  0  0  0  0  0  0  0
   53.1214    6.5185   16.7142 C   0  0  0  0  0  0  0  0  0  0  0  0
   52.7944    7.2830   15.6040 C   0  0  0  0  0  0  0  0  0  0  0  0
   53.7423    7.4476   14.5958 C   0  0  0  0  0  0  0  0  0  0  0  0
   54.9870    6.8494   14.7261 C   0  0  0  0  0  0  0  0  0  0  0  0
   56.5899    5.5036   16.0634 C   0  0  0  0  0  0  0  0  0  0  0  0
   57.0697    5.0682   17.4435 C   0  0  0  0  0  0  0  0  0  0  0  0
   57.0776    6.2134   18.4607 C   0  0  0  0  0  0  0  0  0  0  0  0
   57.5883    5.7239   19.8163 C   0  0  0  0  0  0  0  0  0  0  0  0
   56.8723    4.5513   20.3316 N   0  0  0  0  0  0  0  0  0  0  0  0
   56.8893    3.4468   19.3631 C   0  0  0  0  0  0  0  0  0  0  0  0
   56.3554    3.8251   17.9776 C   0  0  0  0  0  0  0  0  0  0  0  0
   57.3253    5.3734   15.0804 O   0  0  0  0  0  0  0  0  0  0  0  0
   55.5210    4.8776   20.7802 C   0  0  0  0  0  0  0  0  0  0  0  0
   51.6376    4.7966   17.5837 O   0  0  0  0  0  0  0  0  0  0  0  0
   52.4874    4.9805   18.6113 C   0  0  0  0  0  0  0  0  0  0  0  0
   52.1178    5.5183   19.6417 O   0  0  0  0  0  0  0  0  0  0  0  0
   53.8758    4.5083   18.3026 C   0  0  0  0  0  0  0  0  0  0  0  0
   54.6993    5.6548   17.7404 C   0  0  0  0  0  0  0  0  0  0  0  0
   55.1767    6.5610   18.8404 C   0  0  0  0  0  0  0  0  0  0  0  0
   55.6482    6.2182   19.9102 O   0  0  0  0  0  0  0  0  0  0  0  0
   55.0824    7.8637   18.5154 O   0  0  0  0  0  0  0  0  0  0  0  0
   46.3344    3.5827   17.3976 H   0  0  0  0  0  0  0  0  0  0  0  0
   52.0889    4.7588   18.3895 H   0  0  0  0  0  0  0  0  0  0  0  0
   48.4567    6.8529   19.1863 H   0  0  0  0  0  0  0  0  0  0  0  0
   53.0476    1.2787   17.3913 H   0  0  0  0  0  0  0  0  0  0  0  0
   55.4338    0.6760   17.3249 H   0  0  0  0  0  0  0  0  0  0  0  0
   57.1495    2.3877   17.9117 H   0  0  0  0  0  0  0  0  0  0  0  0
   55.2376    6.1594   19.6880 H   0  0  0  0  0  0  0  0  0  0  0  0
   54.7437    7.5902   18.0116 H   0  0  0  0  0  0  0  0  0  0  0  0
   55.6620    6.5397   16.9447 H   0  0  0  0  0  0  0  0  0  0  0  0
   56.4129    8.8437   16.6959 H   0  0  0  0  0  0  0  0  0  0  0  0
   57.7165    7.8592   17.3541 H   0  0  0  0  0  0  0  0  0  0  0  0
   57.5377    9.0394   20.7221 H   0  0  0  0  0  0  0  0  0  0  0  0
   55.8480    8.6700   20.4846 H   0  0  0  0  0  0  0  0  0  0  0  0
   58.1787    6.9227   19.5922 H   0  0  0  0  0  0  0  0  0  0  0  0
   57.1343    6.6198   20.9676 H   0  0  0  0  0  0  0  0  0  0  0  0
   57.9099   10.9133   19.3358 H   0  0  0  0  0  0  0  0  0  0  0  0
   58.8935    9.6333   18.5929 H   0  0  0  0  0  0  0  0  0  0  0  0
   57.8506   10.6700   17.5966 H   0  0  0  0  0  0  0  0  0  0  0  0
   49.9779    3.3983   21.1185 H   0  0  0  0  0  0  0  0  0  0  0  0
   52.6569    5.6124   18.4460 H   0  0  0  0  0  0  0  0  0  0  0  0
   47.7963    7.0983   21.3131 H   0  0  0  0  0  0  0  0  0  0  0  0
   51.8234    7.7484   15.4867 H   0  0  0  0  0  0  0  0  0  0  0  0
   53.5006    8.0382   13.7153 H   0  0  0  0  0  0  0  0  0  0  0  0
   55.7411    6.9585   13.9515 H   0  0  0  0  0  0  0  0  0  0  0  0
   58.1236    4.7819   17.2967 H   0  0  0  0  0  0  0  0  0  0  0  0
   56.0820    6.6529   18.5872 H   0  0  0  0  0  0  0  0  0  0  0  0
   57.7232    7.0246   18.1017 H   0  0  0  0  0  0  0  0  0  0  0  0
   57.5480    6.5432   20.5460 H   0  0  0  0  0  0  0  0  0  0  0  0
   58.6526    5.4686   19.7279 H   0  0  0  0  0  0  0  0  0  0  0  0
   57.9246    3.0954   19.2598 H   0  0  0  0  0  0  0  0  0  0  0  0
   56.3290    2.5903   19.7559 H   0  0  0  0  0  0  0  0  0  0  0  0
   56.5116    2.9879   17.2844 H   0  0  0  0  0  0  0  0  0  0  0  0
   55.2711    3.9719   18.0334 H   0  0  0  0  0  0  0  0  0  0  0  0
   55.0613    4.0051   21.2585 H   0  0  0  0  0  0  0  0  0  0  0  0
   54.8566    5.2030   19.9729 H   0  0  0  0  0  0  0  0  0  0  0  0
   55.5441    5.6703   21.5381 H   0  0  0  0  0  0  0  0  0  0  0  0
   50.7859    5.1495   17.9161 H   0  0  0  0  0  0  0  0  0  0  0  0
   54.3028    4.0765   19.2148 H   0  0  0  0  0  0  0  0  0  0  0  0
   53.8118    3.6917   17.5739 H   0  0  0  0  0  0  0  0  0  0  0  0
   54.1144    6.2309   17.0126 H   0  0  0  0  0  0  0  0  0  0  0  0
   55.5903    5.2737   17.2291 H   0  0  0  0  0  0  0  0  0  0  0  0
   55.4169    8.3277   19.3123 H   0  0  0  0  0  0  0  0  0  0  0  0
  1  2  1  0
  1 12  2  0
  3  1  1  0
  3  4  2  0
  4  6  1  0
  5  4  1  0
  7  8  2  0
  8  9  1  0
  8  6  1  0
  9 15  1  0
 10 11  1  0
 10  6  2  0
 12 10  1  0
 13 14  2  0
 14 18  1  0
 15 13  1  0
 15 16  2  0
 16 17  1  0
 18 17  2  0
 19 14  1  0
 19 20  1  0
 20 21  1  0
 21 22  1  0
 22 23  1  0
 23 24  1  0
 23 27  1  0
 24 25  1  0
 25 20  1  0
 26 19  2  0
 28 29  1  0
 28 39  2  0
 30 28  1  0
 30 31  2  0
 31 33  1  0
 32 31  1  0
 34 35  2  0
 35 36  1  0
 35 33  1  0
 36 42  1  0
 37 38  1  0
 37 33  2  0
 39 37  1  0
 40 41  2  0
 41 45  1  0
 42 40  1  0
 42 43  2  0
 43 44  1  0
 45 44  2  0
 46 41  1  0
 46 47  1  0
 47 48  1  0
 48 49  1  0
 49 50  1  0
 50 51  1  0
 50 54  1  0
 51 52  1  0
 52 47  1  0
 53 46  2  0
 55 56  1  0
 56 57  2  0
 56 58  1  0
 58 59  1  0
 59 60  1  0
 60 61  2  0
 60 62  1  0
  3 63  1  0
  9 64  1  0
 12 65  1  0
 16 66  1  0
 17 67  1  0
 18 68  1  0
 20 69  1  0
 21 70  1  0
 21 71  1  0
 22 72  1  0
 22 73  1  0
 24 74  1  0
 24 75  1  0
 25 76  1  0
 25 77  1  0
 27 78  1  0
 27 79  1  0
 27 80  1  0
 30 81  1  0
 36 82  1  0
 39 83  1  0
 43 84  1  0
 44 85  1  0
 45 86  1  0
 47 87  1  0
 48 88  1  0
 48 89  1  0
 49 90  1  0
 49 91  1  0
 51 92  1  0
 51 93  1  0
 52 94  1  0
 52 95  1  0
 54 96  1  0
 54 97  1  0
 54 98  1  0
 55 99  1  0
 58100  1  0
 58101  1  0
 59102  1  0
 59103  1  0
 62104  1  0
M  END
> <Uni-Dock RESULT> 
ENERGY=   -4.773  LOWER_BOUND=    4.469  UPPER_BOUND=    7.389
INTER + INTRA:          -4.773
INTER:                  -4.773
INTRA:                   0.000
UNBOUND:                 0.000

$$$$

     RDKit          3D

104107  0  0  0  0  0  0  0  0999 V2000
   47.9179    3.7973   17.2886 C   0  0  0  0  0  0  0  0  0  0  0  0
   46.5939    3.8435   17.1001 F   0  0  0  0  0  0  0  0  0  0  0  0
   48.6000    2.6110   17.0722 C   0  0  0  0  0  0  0  0  0  0  0  0
   49.9798    2.5678   17.2678 C   0  0  0  0  0  0  0  0  0  0  0  0
   50.5909    1.3991   17.0291 F   0  0  0  0  0  0  0  0  0  0  0  0
   50.6922    3.6970   17.6926 C   0  0  0  0  0  0  0  0  0  0  0  0
   52.7117    2.5103   17.8791 O   0  0  0  0  0  0  0  0  0  0  0  0
   52.1680    3.6067   17.9110 C   0  0  0  0  0  0  0  0  0  0  0  0
   52.8262    4.7964   18.1312 N   0  0  0  0  0  0  0  0  0  0  0  0
   49.9685    4.8760   17.9071 C   0  0  0  0  0  0  0  0  0  0  0  0
   50.5838    5.9988   18.3086 F   0  0  0  0  0  0  0  0  0  0  0  0
   48.5908    4.9347   17.7070 C   0  0  0  0  0  0  0  0  0  0  0  0
   54.4938    6.3097   18.5411 N   0  0  0  0  0  0  0  0  0  0  0  0
   55.7949    6.6215   18.7673 C   0  0  0  0  0  0  0  0  0  0  0  0
   54.1878    5.0085   18.3559 C   0  0  0  0  0  0  0  0  0  0  0  0
   55.1466    4.0053   18.3896 C   0  0  0  0  0  0  0  0  0  0  0  0
   56.4775    4.3465   18.6268 C   0  0  0  0  0  0  0  0  0  0  0  0
   56.8133    5.6790   18.8197 C   0  0  0  0  0  0  0  0  0  0  0  0
   56.1188    8.0692   18.9668 C   0  0  0  0  0  0  0  0  0  0  0  0
   54.9630    9.0685   18.9498 C   0  0  0  0  0  0  0  0  0  0  0  0
   54.5555    9.3950   17.5046 C   0  0  0  0  0  0  0  0  0  0  0  0
   54.9861   10.8023   17.0960 C   0  0  0  0  0  0  0  0  0  0  0  0
   54.3725   11.8233   17.9525 N   0  0  0  0  0  0  0  0  0  0  0  0
   54.3761   11.4831   19.3814 C   0  0  0  0  0  0  0  0  0  0  0  0
   55.3160   10.3362   19.7444 C   0  0  0  0  0  0  0  0  0  0  0  0
   57.2912    8.4152   19.1164 O   0  0  0  0  0  0  0  0  0  0  0  0
   54.9763   13.1307   17.6998 C   0  0  0  0  0  0  0  0  0  0  0  0
   48.5675    4.9619   20.4034 C   0  0  0  0  0  0  0  0  0  0  0  0
   47.9238    4.4119   21.4387 F   0  0  0  0  0  0  0  0  0  0  0  0
   49.9000    4.6364   20.1804 C   0  0  0  0  0  0  0  0  0  0  0  0
   50.5676    5.2120   19.1041 C   0  0  0  0  0  0  0  0  0  0  0  0
   51.8542    4.8811   18.9094 F   0  0  0  0  0  0  0  0  0  0  0  0
   49.9188    6.1052   18.2464 C   0  0  0  0  0  0  0  0  0  0  0  0
   49.9308    6.8979   16.0559 O   0  0  0  0  0  0  0  0  0  0  0  0
   50.5968    6.6808   17.0593 C   0  0  0  0  0  0  0  0  0  0  0  0
   51.9461    6.9139   17.1971 N   0  0  0  0  0  0  0  0  0  0  0  0
   48.5772    6.4173   18.4986 C   0  0  0  0  0  0  0  0  0  0  0  0
   47.9167    7.3007   17.7344 F   0  0  0  0  0  0  0  0  0  0  0  0
   47.8984    5.8541   19.5760 C   0  0  0  0  0  0  0  0  0  0  0  0
   54.1004    7.5120   16.6997 N   0  0  0  0  0  0  0  0  0  0  0  0
   55.0513    7.9339   15.8311 C   0  0  0  0  0  0  0  0  0  0  0  0
   52.8382    7.3961   16.2373 C   0  0  0  0  0  0  0  0  0  0  0  0
   52.4894    7.7118   14.9324 C   0  0  0  0  0  0  0  0  0  0  0  0
   53.4829    8.1397   14.0537 C   0  0  0  0  0  0  0  0  0  0  0  0
   54.7914    8.2436   14.5025 C   0  0  0  0  0  0  0  0  0  0  0  0
   56.4447    8.0774   16.3484 C   0  0  0  0  0  0  0  0  0  0  0  0
   56.7172    8.1636   17.8459 C   0  0  0  0  0  0  0  0  0  0  0  0
   55.9791    9.3238   18.5205 C   0  0  0  0  0  0  0  0  0  0  0  0
   56.3079    9.3741   20.0130 C   0  0  0  0  0  0  0  0  0  0  0  0
   56.0741    8.1068   20.7148 N   0  0  0  0  0  0  0  0  0  0  0  0
   56.8044    7.0017   20.0795 C   0  0  0  0  0  0  0  0  0  0  0  0
   56.5111    6.8395   18.5844 C   0  0  0  0  0  0  0  0  0  0  0  0
   57.3765    8.1537   15.5420 O   0  0  0  0  0  0  0  0  0  0  0  0
   54.6520    7.8146   20.8760 C   0  0  0  0  0  0  0  0  0  0  0  0
   52.0927    5.3466   17.3173 O   0  0  0  0  0  0  0  0  0  0  0  0
   52.5010    6.0847   18.3663 C   0  0  0  0  0  0  0  0  0  0  0  0
   51.6973    6.5429   19.1610 O   0  0  0  0  0  0  0  0  0  0  0  0
   53.9851    6.2926   18.3819 C   0  0  0  0  0  0  0  0  0  0  0  0
   54.3349    7.5811   17.6565 C   0  0  0  0  0  0  0  0  0  0  0  0
   54.0879    8.7746   18.5360 C   0  0  0  0  0  0  0  0  0  0  0  0
   54.3878    8.8846   19.7117 O   0  0  0  0  0  0  0  0  0  0  0  0
   53.5166    9.7970   17.8728 O   0  0  0  0  0  0  0  0  0  0  0  0
   48.0696    1.7254   16.7401 H   0  0  0  0  0  0  0  0  0  0  0  0
   52.3058    5.6654   18.1583 H   0  0  0  0  0  0  0  0  0  0  0  0
   48.0514    5.8595   17.8831 H   0  0  0  0  0  0  0  0  0  0  0  0
   54.8955    2.9612   18.2417 H   0  0  0  0  0  0  0  0  0  0  0  0
   57.2430    3.5759   18.6577 H   0  0  0  0  0  0  0  0  0  0  0  0
   57.8422    5.9715   19.0037 H   0  0  0  0  0  0  0  0  0  0  0  0
   54.1111    8.5999   19.4593 H   0  0  0  0  0  0  0  0  0  0  0  0
   53.4639    9.3146   17.4168 H   0  0  0  0  0  0  0  0  0  0  0  0
   54.9757    8.6719   16.7951 H   0  0  0  0  0  0  0  0  0  0  0  0
   54.6821   10.9749   16.0574 H   0  0  0  0  0  0  0  0  0  0  0  0
   56.0826   10.8627   17.1195 H   0  0  0  0  0  0  0  0  0  0  0  0
   54.5995   12.3569   20.0068 H   0  0  0  0  0  0  0  0  0  0  0  0
   53.3531   11.1883   19.6480 H   0  0  0  0  0  0  0  0  0  0  0  0
   56.3511   10.6524   19.5657 H   0  0  0  0  0  0  0  0  0  0  0  0
   55.2456   10.1205   20.8184 H   0  0  0  0  0  0  0  0  0  0  0  0
   54.4398   13.9174   18.2430 H   0  0  0  0  0  0  0  0  0  0  0  0
   56.0301   13.1627   17.9997 H   0  0  0  0  0  0  0  0  0  0  0  0
   54.9146   13.3884   16.6360 H   0  0  0  0  0  0  0  0  0  0  0  0
   50.4100    3.9374   20.8368 H   0  0  0  0  0  0  0  0  0  0  0  0
   52.4123    6.6826   18.0663 H   0  0  0  0  0  0  0  0  0  0  0  0
   46.8584    6.1098   19.7628 H   0  0  0  0  0  0  0  0  0  0  0  0
   51.4730    7.6272   14.5677 H   0  0  0  0  0  0  0  0  0  0  0  0
   53.2285    8.3851   13.0254 H   0  0  0  0  0  0  0  0  0  0  0  0
   55.5846    8.5698   13.8354 H   0  0  0  0  0  0  0  0  0  0  0  0
   57.7912    8.3981   17.9226 H   0  0  0  0  0  0  0  0  0  0  0  0
   54.8938    9.2458   18.3923 H   0  0  0  0  0  0  0  0  0  0  0  0
   56.2717   10.2722   18.0529 H   0  0  0  0  0  0  0  0  0  0  0  0
   55.7394   10.1825   20.4912 H   0  0  0  0  0  0  0  0  0  0  0  0
   57.3632    9.6501   20.1388 H   0  0  0  0  0  0  0  0  0  0  0  0
   57.8800    7.1786   20.2123 H   0  0  0  0  0  0  0  0  0  0  0  0
   56.5972    6.0610   20.6029 H   0  0  0  0  0  0  0  0  0  0  0  0
   57.1790    6.0774   18.1613 H   0  0  0  0  0  0  0  0  0  0  0  0
   55.4936    6.4551   18.4530 H   0  0  0  0  0  0  0  0  0  0  0  0
   54.5184    6.9226   21.4988 H   0  0  0  0  0  0  0  0  0  0  0  0
   54.1291    7.6409   19.9297 H   0  0  0  0  0  0  0  0  0  0  0  0
   54.1433    8.6352   21.3967 H   0  0  0  0  0  0  0  0  0  0  0  0
   51.1202    5.2975   17.4279 H   0  0  0  0  0  0  0  0  0  0  0  0
   54.3233    6.2781   19.4242 H   0  0  0  0  0  0  0  0  0  0  0  0
   54.4617    5.4366   17.8898 H   0  0  0  0  0  0  0  0  0  0  0  0
   53.7524    7.6747   16.7316 H   0  0  0  0  0  0  0  0  0  0  0  0
   55.3969    7.5948   17.3876 H   0  0  0  0  0  0  0  0  0  0  0  0
   53.4118   10.4905   18.5586 H   0  0  0  0  0  0  0  0  0  0  0  0
  1  2  1  0
  1 12  2  0
  3  1  1  0
  3  4  2  0
  4  6  1  0
  5  4  1  0
  7  8  2  0
  8  9  1  0
  8  6  1  0
  9 15  1  0
 10 11  1  0
 10  6  2  0
 12 10  1  0
 13 14  2  0
 14 18  1  0
 15 13  1  0
 15 16  2  0
 16 17  1  0
 18 17  2  0
 19 14  1  0
 19 20  1  0
 20 21  1  0
 21 22  1  0
 22 23  1  0
 23 24  1  0
 23 27  1  0
 24 25  1  0
 25 20  1  0
 26 19  2  0
 28 29  1  0
 28 39  2  0
 30 28  1  0
 30 31  2  0
 31 33  1  0
 32 31  1  0
 34 35  2  0
 35 36  1  0
 35 33  1  0
 36 42  1  0
 37 38  1  0
 37 33  2  0
 39 37  1  0
 40 41  2  0
 41 45  1  0
 42 40  1  0
 42 43  2  0
 43 44  1  0
 45 44  2  0
 46 41  1  0
 46 47  1  0
 47 48  1  0
 48 49  1  0
 49 50  1  0
 50 51  1  0
 50 54  1  0
 51 52  1  0
 52 47  1  0
 53 46  2  0
 55 56  1  0
 56 57  2  0
 56 58  1  0
 58 59  1  0
 59 60  1  0
 60 61  2  0
 60 62  1  0
  3 63  1  0
  9 64  1  0
 12 65  1  0
 16 66  1  0
 17 67  1  0
 18 68  1  0
 20 69  1  0
 21 70  1  0
 21 71  1  0
 22 72  1  0
 22 73  1  0
 24 74  1  0
 24 75  1  0
 25 76  1  0
 25 77  1  0
 27 78  1  0
 27 79  1  0
 27 80  1  0
 30 81  1  0
 36 82  1  0
 39 83  1  0
 43 84  1  0
 44 85  1  0
 45 86  1  0
 47 87  1  0
 48 88  1  0
 48 89  1  0
 49 90  1  0
 49 91  1  0
 51 92  1  0
 51 93  1  0
 52 94  1  0
 52 95  1  0
 54 96  1  0
 54 97  1  0
 54 98  1  0
 55 99  1  0
 58100  1  0
 58101  1  0
 59102  1  0
 59103  1  0
 62104  1  0
M  END
> <Uni-Dock RESULT> 
ENERGY=   -4.646  LOWER_BOUND=    3.781  UPPER_BOUND=    6.219
INTER + INTRA:          -4.646
INTER:                  -4.646
INTRA:                   0.000
UNBOUND:                 0.000

$$$$

     RDKit          3D

104107  0  0  0  0  0  0  0  0999 V2000
   49.1283    4.8058   20.2810 C   0  0  0  0  0  0  0  0  0  0  0  0
   49.2766    4.4772   21.5697 F   0  0  0  0  0  0  0  0  0  0  0  0
   48.0417    4.3213   19.5709 C   0  0  0  0  0  0  0  0  0  0  0  0
   47.8898    4.6678   18.2290 C   0  0  0  0  0  0  0  0  0  0  0  0
   46.8128    4.1838   17.5948 F   0  0  0  0  0  0  0  0  0  0  0  0
   48.8211    5.4865   17.5769 C   0  0  0  0  0  0  0  0  0  0  0  0
   47.7671    5.2415   15.4911 O   0  0  0  0  0  0  0  0  0  0  0  0
   48.6352    5.8199   16.1319 C   0  0  0  0  0  0  0  0  0  0  0  0
   49.4724    6.7841   15.6155 N   0  0  0  0  0  0  0  0  0  0  0  0
   49.9092    5.9521   18.3247 C   0  0  0  0  0  0  0  0  0  0  0  0
   50.8381    6.7452   17.7693 F   0  0  0  0  0  0  0  0  0  0  0  0
   50.0681    5.6201   19.6686 C   0  0  0  0  0  0  0  0  0  0  0  0
   50.4720    8.2307   14.1502 N   0  0  0  0  0  0  0  0  0  0  0  0
   50.5970    8.7873   12.9190 C   0  0  0  0  0  0  0  0  0  0  0  0
   49.5174    7.2912   14.3154 C   0  0  0  0  0  0  0  0  0  0  0  0
   48.6802    6.8898   13.2835 C   0  0  0  0  0  0  0  0  0  0  0  0
   48.8274    7.4719   12.0251 C   0  0  0  0  0  0  0  0  0  0  0  0
   49.8030    8.4400   11.8342 C   0  0  0  0  0  0  0  0  0  0  0  0
   51.6576    9.8305   12.7528 C   0  0  0  0  0  0  0  0  0  0  0  0
   52.5414   10.1488   13.9580 C   0  0  0  0  0  0  0  0  0  0  0  0
   51.8121   11.0944   14.9249 C   0  0  0  0  0  0  0  0  0  0  0  0
   52.3926   12.5067   14.8860 C   0  0  0  0  0  0  0  0  0  0  0  0
   53.8093   12.5173   15.2673 N   0  0  0  0  0  0  0  0  0  0  0  0
   54.5944   11.4269   14.6738 C   0  0  0  0  0  0  0  0  0  0  0  0
   53.8977   10.7199   13.5138 C   0  0  0  0  0  0  0  0  0  0  0  0
   51.7757   10.4112   11.6732 O   0  0  0  0  0  0  0  0  0  0  0  0
   54.4003   13.8271   14.9966 C   0  0  0  0  0  0  0  0  0  0  0  0
   52.0082    4.0349   18.6713 C   0  0  0  0  0  0  0  0  0  0  0  0
   52.4942    2.7945   18.7892 F   0  0  0  0  0  0  0  0  0  0  0  0
   51.3765    4.4085   17.4913 C   0  0  0  0  0  0  0  0  0  0  0  0
   50.8741    5.7003   17.3707 C   0  0  0  0  0  0  0  0  0  0  0  0
   50.2676    6.0368   16.2211 F   0  0  0  0  0  0  0  0  0  0  0  0
   50.9922    6.6210   18.4161 C   0  0  0  0  0  0  0  0  0  0  0  0
   49.9689    8.4947   19.3483 O   0  0  0  0  0  0  0  0  0  0  0  0
   50.4091    7.9820   18.3280 C   0  0  0  0  0  0  0  0  0  0  0  0
   50.4089    8.5514   17.0751 N   0  0  0  0  0  0  0  0  0  0  0  0
   51.6373    6.2171   19.5914 C   0  0  0  0  0  0  0  0  0  0  0  0
   51.8174    7.0712   20.6106 F   0  0  0  0  0  0  0  0  0  0  0  0
   52.1509    4.9297   19.7236 C   0  0  0  0  0  0  0  0  0  0  0  0
   50.0512   10.0485   15.3789 N   0  0  0  0  0  0  0  0  0  0  0  0
   49.5388   11.2076   14.8987 C   0  0  0  0  0  0  0  0  0  0  0  0
   49.8835    9.7871   16.6919 C   0  0  0  0  0  0  0  0  0  0  0  0
   49.2355   10.6629   17.5504 C   0  0  0  0  0  0  0  0  0  0  0  0
   48.7119   11.8475   17.0360 C   0  0  0  0  0  0  0  0  0  0  0  0
   48.8531   12.1249   15.6842 C   0  0  0  0  0  0  0  0  0  0  0  0
   49.7394   11.5034   13.4489 C   0  0  0  0  0  0  0  0  0  0  0  0
   50.8109   10.7764   12.6441 C   0  0  0  0  0  0  0  0  0  0  0  0
   52.2161   10.9508   13.2280 C   0  0  0  0  0  0  0  0  0  0  0  0
   53.2491   10.2210   12.3685 C   0  0  0  0  0  0  0  0  0  0  0  0
   52.9345    8.8067   12.1362 N   0  0  0  0  0  0  0  0  0  0  0  0
   51.5960    8.6461   11.5524 C   0  0  0  0  0  0  0  0  0  0  0  0
   50.4787    9.3092   12.3645 C   0  0  0  0  0  0  0  0  0  0  0  0
   49.0408   12.3692   12.9136 O   0  0  0  0  0  0  0  0  0  0  0  0
   53.1211    7.9915   13.3339 C   0  0  0  0  0  0  0  0  0  0  0  0
   49.4054    7.4009   16.6729 O   0  0  0  0  0  0  0  0  0  0  0  0
   50.5735    7.4589   16.0066 C   0  0  0  0  0  0  0  0  0  0  0  0
   51.6014    7.0317   16.5052 O   0  0  0  0  0  0  0  0  0  0  0  0
   50.4437    8.1306   14.6732 C   0  0  0  0  0  0  0  0  0  0  0  0
   50.7339    9.6157   14.8115 C   0  0  0  0  0  0  0  0  0  0  0  0
   52.2143    9.8685   14.8733 C   0  0  0  0  0  0  0  0  0  0  0  0
   53.0678    9.3591   14.1688 O   0  0  0  0  0  0  0  0  0  0  0  0
   52.5432   10.7951   15.7923 O   0  0  0  0  0  0  0  0  0  0  0  0
   47.3066    3.6886   20.0561 H   0  0  0  0  0  0  0  0  0  0  0  0
   50.1788    7.2094   16.2044 H   0  0  0  0  0  0  0  0  0  0  0  0
   50.9218    5.9907   20.2264 H   0  0  0  0  0  0  0  0  0  0  0  0
   47.9158    6.1336   13.4209 H   0  0  0  0  0  0  0  0  0  0  0  0
   48.1824    7.1709   11.2040 H   0  0  0  0  0  0  0  0  0  0  0  0
   49.9366    8.9103   10.8651 H   0  0  0  0  0  0  0  0  0  0  0  0
   52.7480    9.2039   14.4771 H   0  0  0  0  0  0  0  0  0  0  0  0
   51.9024   10.6979   15.9449 H   0  0  0  0  0  0  0  0  0  0  0  0
   50.7383   11.1427   14.7071 H   0  0  0  0  0  0  0  0  0  0  0  0
   51.8287   13.1375   15.5823 H   0  0  0  0  0  0  0  0  0  0  0  0
   52.2422   12.9286   13.8831 H   0  0  0  0  0  0  0  0  0  0  0  0
   55.5883   11.7675   14.3564 H   0  0  0  0  0  0  0  0  0  0  0  0
   54.7785   10.6902   15.4662 H   0  0  0  0  0  0  0  0  0  0  0  0
   53.7883   11.4244   12.6801 H   0  0  0  0  0  0  0  0  0  0  0  0
   54.5287    9.9032   13.1404 H   0  0  0  0  0  0  0  0  0  0  0  0
   55.4209   13.8816   15.3929 H   0  0  0  0  0  0  0  0  0  0  0  0
   54.4352   14.0496   13.9239 H   0  0  0  0  0  0  0  0  0  0  0  0
   53.8300   14.6209   15.4931 H   0  0  0  0  0  0  0  0  0  0  0  0
   51.2732    3.6974   16.6768 H   0  0  0  0  0  0  0  0  0  0  0  0
   50.7818    8.0366   16.2864 H   0  0  0  0  0  0  0  0  0  0  0  0
   52.6542    4.6317   20.6400 H   0  0  0  0  0  0  0  0  0  0  0  0
   49.1118   10.4541   18.6060 H   0  0  0  0  0  0  0  0  0  0  0  0
   48.1952   12.5426   17.6934 H   0  0  0  0  0  0  0  0  0  0  0  0
   48.4491   13.0392   15.2582 H   0  0  0  0  0  0  0  0  0  0  0  0
   50.8204   11.2845   11.6663 H   0  0  0  0  0  0  0  0  0  0  0  0
   52.2781   10.5821   14.2578 H   0  0  0  0  0  0  0  0  0  0  0  0
   52.4702   12.0172   13.2724 H   0  0  0  0  0  0  0  0  0  0  0  0
   54.2443   10.3182   12.8217 H   0  0  0  0  0  0  0  0  0  0  0  0
   53.3251   10.7233   11.3950 H   0  0  0  0  0  0  0  0  0  0  0  0
   51.6061    9.0799   10.5437 H   0  0  0  0  0  0  0  0  0  0  0  0
   51.3705    7.5827   11.4098 H   0  0  0  0  0  0  0  0  0  0  0  0
   49.5351    9.2484   11.8060 H   0  0  0  0  0  0  0  0  0  0  0  0
   50.3181    8.7455   13.2900 H   0  0  0  0  0  0  0  0  0  0  0  0
   52.9854    6.9309   13.0931 H   0  0  0  0  0  0  0  0  0  0  0  0
   52.4299    8.2394   14.1461 H   0  0  0  0  0  0  0  0  0  0  0  0
   54.1434    8.0938   13.7180 H   0  0  0  0  0  0  0  0  0  0  0  0
   49.6353    6.9521   17.5132 H   0  0  0  0  0  0  0  0  0  0  0  0
   51.1110    7.6240   13.9667 H   0  0  0  0  0  0  0  0  0  0  0  0
   49.4239    7.9743   14.3025 H   0  0  0  0  0  0  0  0  0  0  0  0
   50.2502   10.0226   15.7081 H   0  0  0  0  0  0  0  0  0  0  0  0
   50.3504   10.1648   13.9443 H   0  0  0  0  0  0  0  0  0  0  0  0
   53.5203   10.8523   15.7266 H   0  0  0  0  0  0  0  0  0  0  0  0
  1  2  1  0
  1 12  2  0
  3  1  1  0
  3  4  2  0
  4  6  1  0
  5  4  1  0
  7  8  2  0
  8  9  1  0
  8  6  1  0
  9 15  1  0
 10 11  1  0
 10  6  2  0
 12 10  1  0
 13 14  2  0
 14 18  1  0
 15 13  1  0
 15 16  2  0
 16 17  1  0
 18 17  2  0
 19 14  1  0
 19 20  1  0
 20 21  1  0
 21 22  1  0
 22 23  1  0
 23 24  1  0
 23 27  1  0
 24 25  1  0
 25 20  1  0
 26 19  2  0
 28 29  1  0
 28 39  2  0
 30 28  1  0
 30 31  2  0
 31 33  1  0
 32 31  1  0
 34 35  2  0
 35 36  1  0
 35 33  1  0
 36 42  1  0
 37 38  1  0
 37 33  2  0
 39 37  1  0
 40 41  2  0
 41 45  1  0
 42 40  1  0
 42 43  2  0
 43 44  1  0
 45 44  2  0
 46 41  1  0
 46 47  1  0
 47 48  1  0
 48 49  1  0
 49 50  1  0
 50 51  1  0
 50 54  1  0
 51 52  1  0
 52 47  1  0
 53 46  2  0
 55 56  1  0
 56 57  2  0
 56 58  1  0
 58 59  1  0
 59 60  1  0
 60 61  2  0
 60 62  1  0
  3 63  1  0
  9 64  1  0
 12 65  1  0
 16 66  1  0
 17 67  1  0
 18 68  1  0
 20 69  1  0
 21 70  1  0
 21 71  1  0
 22 72  1  0
 22 73  1  0
 24 74  1  0
 24 75  1  0
 25 76  1  0
 25 77  1  0
 27 78  1  0
 27 79  1  0
 27 80  1  0
 30 81  1  0
 36 82  1  0
 39 83  1  0
 43 84  1  0
 44 85  1  0
 45 86  1  0
 47 87  1  0
 48 88  1  0
 48 89  1  0
 49 90  1  0
 49 91  1  0
 51 92  1  0
 51 93  1  0
 52 94  1  0
 52 95  1  0
 54 96  1  0
 54 97  1  0
 54 98  1  0
 55 99  1  0
 58100  1  0
 58101  1  0
 59102  1  0
 59103  1  0
 62104  1  0
M  END
> <Uni-Dock RESULT> 
ENERGY=   -4.594  LOWER_BOUND=    2.473  UPPER_BOUND=    3.811
INTER + INTRA:          -4.594
INTER:                  -4.594
INTRA:                   0.000
UNBOUND:                 0.000

$$$$

     RDKit          3D

104107  0  0  0  0  0  0  0  0999 V2000
   48.6305    4.7994   19.9894 C   0  0  0  0  0  0  0  0  0  0  0  0
   48.6477    3.6868   20.7327 F   0  0  0  0  0  0  0  0  0  0  0  0
   47.8329    5.8661   20.3708 C   0  0  0  0  0  0  0  0  0  0  0  0
   47.8195    7.0243   19.5948 C   0  0  0  0  0  0  0  0  0  0  0  0
   47.0421    8.0306   20.0184 F   0  0  0  0  0  0  0  0  0  0  0  0
   48.5865    7.1290   18.4270 C   0  0  0  0  0  0  0  0  0  0  0  0
   47.6923    9.2309   17.8756 O   0  0  0  0  0  0  0  0  0  0  0  0
   48.5307    8.3792   17.6099 C   0  0  0  0  0  0  0  0  0  0  0  0
   49.4559    8.4869   16.5952 N   0  0  0  0  0  0  0  0  0  0  0  0
   49.3753    6.0289   18.0698 C   0  0  0  0  0  0  0  0  0  0  0  0
   50.1407    6.0584   16.9681 F   0  0  0  0  0  0  0  0  0  0  0  0
   49.4041    4.8689   18.8413 C   0  0  0  0  0  0  0  0  0  0  0  0
   50.6395    9.3082   14.8166 N   0  0  0  0  0  0  0  0  0  0  0  0
   50.8956   10.2691   13.8934 C   0  0  0  0  0  0  0  0  0  0  0  0
   49.6360    9.5346   15.6899 C   0  0  0  0  0  0  0  0  0  0  0  0
   48.8778   10.6971   15.6690 C   0  0  0  0  0  0  0  0  0  0  0  0
   49.1550   11.6707   14.7101 C   0  0  0  0  0  0  0  0  0  0  0  0
   50.1829   11.4574   13.8028 C   0  0  0  0  0  0  0  0  0  0  0  0
   52.0141   10.0049   12.9344 C   0  0  0  0  0  0  0  0  0  0  0  0
   52.7412    8.6649   13.0368 C   0  0  0  0  0  0  0  0  0  0  0  0
   53.7723    8.6982   14.1757 C   0  0  0  0  0  0  0  0  0  0  0  0
   55.2039    8.7512   13.6459 C   0  0  0  0  0  0  0  0  0  0  0  0
   55.5171    7.5783   12.8220 N   0  0  0  0  0  0  0  0  0  0  0  0
   54.4454    7.2006   11.8912 C   0  0  0  0  0  0  0  0  0  0  0  0
   53.3842    8.2804   11.6946 C   0  0  0  0  0  0  0  0  0  0  0  0
   52.3287   10.8680   12.1142 O   0  0  0  0  0  0  0  0  0  0  0  0
   56.7961    7.7627   12.1380 C   0  0  0  0  0  0  0  0  0  0  0  0
   47.9329    3.9080   16.7959 C   0  0  0  0  0  0  0  0  0  0  0  0
   46.8440    3.1673   16.5623 F   0  0  0  0  0  0  0  0  0  0  0  0
   47.9129    5.2628   16.4872 C   0  0  0  0  0  0  0  0  0  0  0  0
   49.0479    6.0301   16.7291 C   0  0  0  0  0  0  0  0  0  0  0  0
   49.0035    7.3366   16.4229 F   0  0  0  0  0  0  0  0  0  0  0  0
   50.2002    5.4607   17.2791 C   0  0  0  0  0  0  0  0  0  0  0  0
   52.0692    5.9654   18.5749 O   0  0  0  0  0  0  0  0  0  0  0  0
   51.3975    6.2754   17.6001 C   0  0  0  0  0  0  0  0  0  0  0  0
   51.6419    7.3353   16.7570 N   0  0  0  0  0  0  0  0  0  0  0  0
   50.1920    4.0923   17.5760 C   0  0  0  0  0  0  0  0  0  0  0  0
   51.2834    3.4837   18.0650 F   0  0  0  0  0  0  0  0  0  0  0  0
   49.0656    3.3107   17.3329 C   0  0  0  0  0  0  0  0  0  0  0  0
   52.6160    9.2005   15.8524 N   0  0  0  0  0  0  0  0  0  0  0  0
   53.5357   10.1957   15.8736 C   0  0  0  0  0  0  0  0  0  0  0  0
   52.6564    8.2904   16.8476 C   0  0  0  0  0  0  0  0  0  0  0  0
   53.6065    8.3304   17.8574 C   0  0  0  0  0  0  0  0  0  0  0  0
   54.5407    9.3644   17.8636 C   0  0  0  0  0  0  0  0  0  0  0  0
   54.5023   10.3239   16.8624 C   0  0  0  0  0  0  0  0  0  0  0  0
   53.5002   11.1929   14.7627 C   0  0  0  0  0  0  0  0  0  0  0  0
   52.7689   10.8863   13.4606 C   0  0  0  0  0  0  0  0  0  0  0  0
   53.2862    9.6208   12.7699 C   0  0  0  0  0  0  0  0  0  0  0  0
   52.5333    9.3773   11.4614 C   0  0  0  0  0  0  0  0  0  0  0  0
   51.0741    9.3493   11.6132 N   0  0  0  0  0  0  0  0  0  0  0  0
   50.5800   10.5761   12.2528 C   0  0  0  0  0  0  0  0  0  0  0  0
   51.2449   10.8889   13.5972 C   0  0  0  0  0  0  0  0  0  0  0  0
   54.0976   12.2643   14.9023 O   0  0  0  0  0  0  0  0  0  0  0  0
   50.6084    8.1418   12.2907 C   0  0  0  0  0  0  0  0  0  0  0  0
   50.2920    7.9418   17.3071 O   0  0  0  0  0  0  0  0  0  0  0  0
   50.3613    7.6933   15.9860 C   0  0  0  0  0  0  0  0  0  0  0  0
   50.2249    6.5614   15.5530 O   0  0  0  0  0  0  0  0  0  0  0  0
   50.6652    8.9222   15.1837 C   0  0  0  0  0  0  0  0  0  0  0  0
   52.1660    9.0530   14.9857 C   0  0  0  0  0  0  0  0  0  0  0  0
   52.6440    8.1368   13.8942 C   0  0  0  0  0  0  0  0  0  0  0  0
   52.1131    7.9576   12.8124 O   0  0  0  0  0  0  0  0  0  0  0  0
   53.8030    7.5257   14.2019 O   0  0  0  0  0  0  0  0  0  0  0  0
   47.2334    5.8085   21.2727 H   0  0  0  0  0  0  0  0  0  0  0  0
   50.1109    7.7327   16.4252 H   0  0  0  0  0  0  0  0  0  0  0  0
   50.0211    4.0281   18.5420 H   0  0  0  0  0  0  0  0  0  0  0  0
   48.0717   10.8736   16.3720 H   0  0  0  0  0  0  0  0  0  0  0  0
   48.5725   12.5874   14.6766 H   0  0  0  0  0  0  0  0  0  0  0  0
   50.4206   12.2003   13.0480 H   0  0  0  0  0  0  0  0  0  0  0  0
   51.9908    7.8962   13.2626 H   0  0  0  0  0  0  0  0  0  0  0  0
   53.6511    7.7968   14.7908 H   0  0  0  0  0  0  0  0  0  0  0  0
   53.6061    9.5519   14.8439 H   0  0  0  0  0  0  0  0  0  0  0  0
   55.8925    8.7859   14.4976 H   0  0  0  0  0  0  0  0  0  0  0  0
   55.3447    9.6858   13.0863 H   0  0  0  0  0  0  0  0  0  0  0  0
   54.8438    6.8912   10.9164 H   0  0  0  0  0  0  0  0  0  0  0  0
   53.9570    6.3079   12.3026 H   0  0  0  0  0  0  0  0  0  0  0  0
   53.8429    9.1462   11.2012 H   0  0  0  0  0  0  0  0  0  0  0  0
   52.6050    7.9190   11.0112 H   0  0  0  0  0  0  0  0  0  0  0  0
   57.0960    6.8433   11.6216 H   0  0  0  0  0  0  0  0  0  0  0  0
   56.7565    8.5737   11.4018 H   0  0  0  0  0  0  0  0  0  0  0  0
   57.5920    7.9905   12.8567 H   0  0  0  0  0  0  0  0  0  0  0  0
   47.0195    5.7153   16.0670 H   0  0  0  0  0  0  0  0  0  0  0  0
   51.0138    7.5211   15.9842 H   0  0  0  0  0  0  0  0  0  0  0  0
   49.0755    2.2483   17.5634 H   0  0  0  0  0  0  0  0  0  0  0  0
   53.6420    7.5920   18.6491 H   0  0  0  0  0  0  0  0  0  0  0  0
   55.2886    9.4150   18.6513 H   0  0  0  0  0  0  0  0  0  0  0  0
   55.2164   11.1427   16.8482 H   0  0  0  0  0  0  0  0  0  0  0  0
   53.0223   11.7251   12.7923 H   0  0  0  0  0  0  0  0  0  0  0  0
   53.1898    8.7380   13.4117 H   0  0  0  0  0  0  0  0  0  0  0  0
   54.3575    9.7250   12.5575 H   0  0  0  0  0  0  0  0  0  0  0  0
   52.8840    8.4451   10.9994 H   0  0  0  0  0  0  0  0  0  0  0  0
   52.7920   10.1689   10.7459 H   0  0  0  0  0  0  0  0  0  0  0  0
   50.7547   11.4161   11.5673 H   0  0  0  0  0  0  0  0  0  0  0  0
   49.4922   10.5251   12.3794 H   0  0  0  0  0  0  0  0  0  0  0  0
   50.9115   11.8739   13.9499 H   0  0  0  0  0  0  0  0  0  0  0  0
   50.9032   10.1683   14.3483 H   0  0  0  0  0  0  0  0  0  0  0  0
   49.5130    8.1050   12.2852 H   0  0  0  0  0  0  0  0  0  0  0  0
   50.9387    8.0672   13.3320 H   0  0  0  0  0  0  0  0  0  0  0  0
   50.9514    7.2435   11.7628 H   0  0  0  0  0  0  0  0  0  0  0  0
   50.0981    7.0660   17.7018 H   0  0  0  0  0  0  0  0  0  0  0  0
   50.1087    8.8638   14.2414 H   0  0  0  0  0  0  0  0  0  0  0  0
   50.2740    9.7942   15.7208 H   0  0  0  0  0  0  0  0  0  0  0  0
   52.7001    8.8300   15.9178 H   0  0  0  0  0  0  0  0  0  0  0  0
   52.4267   10.0738   14.6851 H   0  0  0  0  0  0  0  0  0  0  0  0
   53.9877    6.9670   13.4171 H   0  0  0  0  0  0  0  0  0  0  0  0
  1  2  1  0
  1 12  2  0
  3  1  1  0
  3  4  2  0
  4  6  1  0
  5  4  1  0
  7  8  2  0
  8  9  1  0
  8  6  1  0
  9 15  1  0
 10 11  1  0
 10  6  2  0
 12 10  1  0
 13 14  2  0
 14 18  1  0
 15 13  1  0
 15 16  2  0
 16 17  1  0
 18 17  2  0
 19 14  1  0
 19 20  1  0
 20 21  1  0
 21 22  1  0
 22 23  1  0
 23 24  1  0
 23 27  1  0
 24 25  1  0
 25 20  1  0
 26 19  2  0
 28 29  1  0
 28 39  2  0
 30 28  1  0
 30 31  2  0
 31 33  1  0
 32 31  1  0
 34 35  2  0
 35 36  1  0
 35 33  1  0
 36 42  1  0
 37 38  1  0
 37 33  2  0
 39 37  1  0
 40 41  2  0
 41 45  1  0
 42 40  1  0
 42 43  2  0
 43 44  1  0
 45 44  2  0
 46 41  1  0
 46 47  1  0
 47 48  1  0
 48 49  1  0
 49 50  1  0
 50 51  1  0
 50 54  1  0
 51 52  1  0
 52 47  1  0
 53 46  2  0
 55 56  1  0
 56 57  2  0
 56 58  1  0
 58 59  1  0
 59 60  1  0
 60 61  2  0
 60 62  1  0
  3 63  1  0
  9 64  1  0
 12 65  1  0
 16 66  1  0
 17 67  1  0
 18 68  1  0
 20 69  1  0
 21 70  1  0
 21 71  1  0
 22 72  1  0
 22 73  1  0
 24 74  1  0
 24 75  1  0
 25 76  1  0
 25 77  1  0
 27 78  1  0
 27 79  1  0
 27 80  1  0
 30 81  1  0
 36 82  1  0
 39 83  1  0
 43 84  1  0
 44 85  1  0
 45 86  1  0
 47 87  1  0
 48 88  1  0
 48 89  1  0
 49 90  1  0
 49 91  1  0
 51 92  1  0
 51 93  1  0
 52 94  1  0
 52 95  1  0
 54 96  1  0
 54 97  1  0
 54 98  1  0
 55 99  1  0
 58100  1  0
 58101  1  0
 59102  1  0
 59103  1  0
 62104  1  0
M  END
> <Uni-Dock RESULT> 
ENERGY=   -4.533  LOWER_BOUND=    3.107  UPPER_BOUND=    5.342
INTER + INTRA:          -4.533
INTER:                  -4.533
INTRA:                   0.000
UNBOUND:                 0.000

$$$$

     RDKit          3D

104107  0  0  0  0  0  0  0  0999 V2000
   51.5705    8.9354   13.9463 C   0  0  0  0  0  0  0  0  0  0  0  0
   52.4325    7.9125   13.9121 F   0  0  0  0  0  0  0  0  0  0  0  0
   51.7407    9.9442   14.8804 C   0  0  0  0  0  0  0  0  0  0  0  0
   50.8415   11.0093   14.9112 C   0  0  0  0  0  0  0  0  0  0  0  0
   51.0625   11.9648   15.8247 F   0  0  0  0  0  0  0  0  0  0  0  0
   49.7585   11.0756   14.0248 C   0  0  0  0  0  0  0  0  0  0  0  0
   48.8797   13.0029   15.0419 O   0  0  0  0  0  0  0  0  0  0  0  0
   48.8038   12.2229   14.1014 C   0  0  0  0  0  0  0  0  0  0  0  0
   47.8886   12.3247   13.0770 N   0  0  0  0  0  0  0  0  0  0  0  0
   49.6150   10.0352   13.0991 C   0  0  0  0  0  0  0  0  0  0  0  0
   48.6057   10.0338   12.2150 F   0  0  0  0  0  0  0  0  0  0  0  0
   50.5116    8.9696   13.0523 C   0  0  0  0  0  0  0  0  0  0  0  0
   46.1657   13.0820   11.7743 N   0  0  0  0  0  0  0  0  0  0  0  0
   45.1725   13.9657   11.5026 C   0  0  0  0  0  0  0  0  0  0  0  0
   46.8950   13.2879   12.8908 C   0  0  0  0  0  0  0  0  0  0  0  0
   46.6612   14.3547   13.7476 C   0  0  0  0  0  0  0  0  0  0  0  0
   45.6336   15.2495   13.4521 C   0  0  0  0  0  0  0  0  0  0  0  0
   44.8718   15.0557   12.3085 C   0  0  0  0  0  0  0  0  0  0  0  0
   44.3752   13.7259   10.2586 C   0  0  0  0  0  0  0  0  0  0  0  0
   44.7063   12.4885    9.4255 C   0  0  0  0  0  0  0  0  0  0  0  0
   45.9381   12.7475    8.5442 C   0  0  0  0  0  0  0  0  0  0  0  0
   45.5625   12.8986    7.0714 C   0  0  0  0  0  0  0  0  0  0  0  0
   44.9153   11.6879    6.5537 N   0  0  0  0  0  0  0  0  0  0  0  0
   43.9236   11.1052    7.4673 C   0  0  0  0  0  0  0  0  0  0  0  0
   43.4931   12.0400    8.5949 C   0  0  0  0  0  0  0  0  0  0  0  0
   43.5010   14.5296    9.9322 O   0  0  0  0  0  0  0  0  0  0  0  0
   44.3560   11.9369    5.2259 C   0  0  0  0  0  0  0  0  0  0  0  0
   48.4423    7.6539   14.1741 C   0  0  0  0  0  0  0  0  0  0  0  0
   48.1785    6.7815   15.1528 F   0  0  0  0  0  0  0  0  0  0  0  0
   47.9817    8.9604   14.2852 C   0  0  0  0  0  0  0  0  0  0  0  0
   48.2555    9.8649   13.2643 C   0  0  0  0  0  0  0  0  0  0  0  0
   47.8002   11.1212   13.3953 F   0  0  0  0  0  0  0  0  0  0  0  0
   48.9869    9.4807   12.1365 C   0  0  0  0  0  0  0  0  0  0  0  0
   50.4103   10.3111   10.4900 O   0  0  0  0  0  0  0  0  0  0  0  0
   49.3402   10.4468   11.0679 C   0  0  0  0  0  0  0  0  0  0  0  0
   48.4136   11.4353   10.8266 N   0  0  0  0  0  0  0  0  0  0  0  0
   49.4344    8.1566   12.0506 C   0  0  0  0  0  0  0  0  0  0  0  0
   50.1035    7.7208   10.9722 F   0  0  0  0  0  0  0  0  0  0  0  0
   49.1620    7.2387   13.0615 C   0  0  0  0  0  0  0  0  0  0  0  0
   47.4132   13.2918    9.9328 N   0  0  0  0  0  0  0  0  0  0  0  0
   47.4201   14.3763    9.1202 C   0  0  0  0  0  0  0  0  0  0  0  0
   48.5037   12.4973    9.9247 C   0  0  0  0  0  0  0  0  0  0  0  0
   49.5986   12.7411    9.1087 C   0  0  0  0  0  0  0  0  0  0  0  0
   49.5878   13.8641    8.2835 C   0  0  0  0  0  0  0  0  0  0  0  0
   48.4861   14.7069    8.2936 C   0  0  0  0  0  0  0  0  0  0  0  0
   46.2060   15.2456    9.1180 C   0  0  0  0  0  0  0  0  0  0  0  0
   44.8761   14.7318    9.6579 C   0  0  0  0  0  0  0  0  0  0  0  0
   44.3929   13.4648    8.9455 C   0  0  0  0  0  0  0  0  0  0  0  0
   43.0472   13.0104    9.5120 C   0  0  0  0  0  0  0  0  0  0  0  0
   43.0437   12.8427   10.9698 N   0  0  0  0  0  0  0  0  0  0  0  0
   43.4833   14.0685   11.6496 C   0  0  0  0  0  0  0  0  0  0  0  0
   44.8472   14.5857   11.1807 C   0  0  0  0  0  0  0  0  0  0  0  0
   46.2866   16.3832    8.6451 O   0  0  0  0  0  0  0  0  0  0  0  0
   43.7996   11.6677   11.3962 C   0  0  0  0  0  0  0  0  0  0  0  0
   48.7433   11.9473   12.2832 O   0  0  0  0  0  0  0  0  0  0  0  0
   47.4739   11.5743   12.0351 C   0  0  0  0  0  0  0  0  0  0  0  0
   47.1599   10.3961   12.0119 O   0  0  0  0  0  0  0  0  0  0  0  0
   46.5748   12.7404   11.7558 C   0  0  0  0  0  0  0  0  0  0  0  0
   46.5256   13.0096   10.2612 C   0  0  0  0  0  0  0  0  0  0  0  0
   45.6026   12.0432    9.5732 C   0  0  0  0  0  0  0  0  0  0  0  0
   44.4974   11.6991    9.9531 O   0  0  0  0  0  0  0  0  0  0  0  0
   46.1002   11.5937    8.4062 O   0  0  0  0  0  0  0  0  0  0  0  0
   52.5737    9.9152   15.5743 H   0  0  0  0  0  0  0  0  0  0  0  0
   47.8764   11.6313   12.3383 H   0  0  0  0  0  0  0  0  0  0  0  0
   50.3775    8.1733   12.3277 H   0  0  0  0  0  0  0  0  0  0  0  0
   47.2490   14.5150   14.6442 H   0  0  0  0  0  0  0  0  0  0  0  0
   45.4341   16.0907   14.1103 H   0  0  0  0  0  0  0  0  0  0  0  0
   44.0676   15.7390   12.0544 H   0  0  0  0  0  0  0  0  0  0  0  0
   44.9359   11.6712   10.1214 H   0  0  0  0  0  0  0  0  0  0  0  0
   46.6348   11.9056    8.6517 H   0  0  0  0  0  0  0  0  0  0  0  0
   46.4836   13.6421    8.8680 H   0  0  0  0  0  0  0  0  0  0  0  0
   46.4738   13.0930    6.4947 H   0  0  0  0  0  0  0  0  0  0  0  0
   44.9189   13.7808    6.9543 H   0  0  0  0  0  0  0  0  0  0  0  0
   43.0386   10.7424    6.9290 H   0  0  0  0  0  0  0  0  0  0  0  0
   44.3787   10.2122    7.9144 H   0  0  0  0  0  0  0  0  0  0  0  0
   42.9569   12.8950    8.1649 H   0  0  0  0  0  0  0  0  0  0  0  0
   42.7754   11.5299    9.2502 H   0  0  0  0  0  0  0  0  0  0  0  0
   43.9823   11.0070    4.7817 H   0  0  0  0  0  0  0  0  0  0  0  0
   43.5326   12.6599    5.2546 H   0  0  0  0  0  0  0  0  0  0  0  0
   45.1255   12.3204    4.5457 H   0  0  0  0  0  0  0  0  0  0  0  0
   47.4194    9.2699   15.1613 H   0  0  0  0  0  0  0  0  0  0  0  0
   47.5617   11.4733   11.3736 H   0  0  0  0  0  0  0  0  0  0  0  0
   49.5111    6.2124   12.9787 H   0  0  0  0  0  0  0  0  0  0  0  0
   50.4681   12.0952    9.0976 H   0  0  0  0  0  0  0  0  0  0  0  0
   50.4404   14.0741    7.6421 H   0  0  0  0  0  0  0  0  0  0  0  0
   48.4559   15.5915    7.6634 H   0  0  0  0  0  0  0  0  0  0  0  0
   44.1481   15.5203    9.4076 H   0  0  0  0  0  0  0  0  0  0  0  0
   45.1164   12.6469    9.0334 H   0  0  0  0  0  0  0  0  0  0  0  0
   44.2862   13.6606    7.8712 H   0  0  0  0  0  0  0  0  0  0  0  0
   42.7341   12.0788    9.0227 H   0  0  0  0  0  0  0  0  0  0  0  0
   42.2785   13.7481    9.2464 H   0  0  0  0  0  0  0  0  0  0  0  0
   42.7298   14.8481   11.4751 H   0  0  0  0  0  0  0  0  0  0  0  0
   43.4974   13.9150   12.7350 H   0  0  0  0  0  0  0  0  0  0  0  0
   45.0481   15.5604   11.6450 H   0  0  0  0  0  0  0  0  0  0  0  0
   45.6341   13.9131   11.5394 H   0  0  0  0  0  0  0  0  0  0  0  0
   43.6809   11.5139   12.4749 H   0  0  0  0  0  0  0  0  0  0  0  0
   44.8721   11.7352   11.1858 H   0  0  0  0  0  0  0  0  0  0  0  0
   43.4169   10.7621   10.9100 H   0  0  0  0  0  0  0  0  0  0  0  0
   49.2116   11.1006   12.4389 H   0  0  0  0  0  0  0  0  0  0  0  0
   45.5910   12.5273   12.1890 H   0  0  0  0  0  0  0  0  0  0  0  0
   46.9646   13.6159   12.2883 H   0  0  0  0  0  0  0  0  0  0  0  0
   47.5288   12.9410    9.8225 H   0  0  0  0  0  0  0  0  0  0  0  0
   46.1410   14.0165   10.0643 H   0  0  0  0  0  0  0  0  0  0  0  0
   45.4081   10.9808    8.0781 H   0  0  0  0  0  0  0  0  0  0  0  0
  1  2  1  0
  1 12  2  0
  3  1  1  0
  3  4  2  0
  4  6  1  0
  5  4  1  0
  7  8  2  0
  8  9  1  0
  8  6  1  0
  9 15  1  0
 10 11  1  0
 10  6  2  0
 12 10  1  0
 13 14  2  0
 14 18  1  0
 15 13  1  0
 15 16  2  0
 16 17  1  0
 18 17  2  0
 19 14  1  0
 19 20  1  0
 20 21  1  0
 21 22  1  0
 22 23  1  0
 23 24  1  0
 23 27  1  0
 24 25  1  0
 25 20  1  0
 26 19  2  0
 28 29  1  0
 28 39  2  0
 30 28  1  0
 30 31  2  0
 31 33  1  0
 32 31  1  0
 34 35  2  0
 35 36  1  0
 35 33  1  0
 36 42  1  0
 37 38  1  0
 37 33  2  0
 39 37  1  0
 40 41  2  0
 41 45  1  0
 42 40  1  0
 42 43  2  0
 43 44  1  0
 45 44  2  0
 46 41  1  0
 46 47  1  0
 47 48  1  0
 48 49  1  0
 49 50  1  0
 50 51  1  0
 50 54  1  0
 51 52  1  0
 52 47  1  0
 53 46  2  0
 55 56  1  0
 56 57  2  0
 56 58  1  0
 58 59  1  0
 59 60  1  0
 60 61  2  0
 60 62  1  0
  3 63  1  0
  9 64  1  0
 12 65  1  0
 16 66  1  0
 17 67  1  0
 18 68  1  0
 20 69  1  0
 21 70  1  0
 21 71  1  0
 22 72  1  0
 22 73  1  0
 24 74  1  0
 24 75  1  0
 25 76  1  0
 25 77  1  0
 27 78  1  0
 27 79  1  0
 27 80  1  0
 30 81  1  0
 36 82  1  0
 39 83  1  0
 43 84  1  0
 44 85  1  0
 45 86  1  0
 47 87  1  0
 48 88  1  0
 48 89  1  0
 49 90  1  0
 49 91  1  0
 51 92  1  0
 51 93  1  0
 52 94  1  0
 52 95  1  0
 54 96  1  0
 54 97  1  0
 54 98  1  0
 55 99  1  0
 58100  1  0
 58101  1  0
 59102  1  0
 59103  1  0
 62104  1  0
M  END
> <Uni-Dock RESULT> 
ENERGY=   -4.481  LOWER_BOUND=    5.743  UPPER_BOUND=    9.291
INTER + INTRA:          -4.481
INTER:                  -4.481
INTRA:                   0.000
UNBOUND:                 0.000

$$$$

     RDKit          3D

104107  0  0  0  0  0  0  0  0999 V2000
   50.8774    9.1848   11.4317 C   0  0  0  0  0  0  0  0  0  0  0  0
   51.4788    9.4077   10.2573 F   0  0  0  0  0  0  0  0  0  0  0  0
   50.3921    7.9205   11.7240 C   0  0  0  0  0  0  0  0  0  0  0  0
   49.7680    7.6919   12.9497 C   0  0  0  0  0  0  0  0  0  0  0  0
   49.3314    6.4470   13.1863 F   0  0  0  0  0  0  0  0  0  0  0  0
   49.6082    8.7185   13.8897 C   0  0  0  0  0  0  0  0  0  0  0  0
   48.3490    7.3664   15.3415 O   0  0  0  0  0  0  0  0  0  0  0  0
   48.9159    8.4401   15.1846 C   0  0  0  0  0  0  0  0  0  0  0  0
   48.9739    9.4363   16.1341 N   0  0  0  0  0  0  0  0  0  0  0  0
   50.1056    9.9841   13.5569 C   0  0  0  0  0  0  0  0  0  0  0  0
   49.9944   11.0142   14.4095 F   0  0  0  0  0  0  0  0  0  0  0  0
   50.7389   10.2236   12.3390 C   0  0  0  0  0  0  0  0  0  0  0  0
   48.6716   10.5939   18.0854 N   0  0  0  0  0  0  0  0  0  0  0  0
   48.1826   10.7025   19.3465 C   0  0  0  0  0  0  0  0  0  0  0  0
   48.4285    9.4457   17.4194 C   0  0  0  0  0  0  0  0  0  0  0  0
   47.7091    8.3981   17.9779 C   0  0  0  0  0  0  0  0  0  0  0  0
   47.2124    8.5312   19.2739 C   0  0  0  0  0  0  0  0  0  0  0  0
   47.4514    9.7040   19.9760 C   0  0  0  0  0  0  0  0  0  0  0  0
   48.4639   11.9804   20.0734 C   0  0  0  0  0  0  0  0  0  0  0  0
   49.2299   13.0724   19.3279 C   0  0  0  0  0  0  0  0  0  0  0  0
   50.7374   12.7750   19.3392 C   0  0  0  0  0  0  0  0  0  0  0  0
   51.4965   13.7174   20.2713 C   0  0  0  0  0  0  0  0  0  0  0  0
   51.3417   15.1183   19.8635 N   0  0  0  0  0  0  0  0  0  0  0  0
   49.9711   15.4784   19.4770 C   0  0  0  0  0  0  0  0  0  0  0  0
   48.9169   14.4614   19.9071 C   0  0  0  0  0  0  0  0  0  0  0  0
   48.0953   12.1096   21.2413 O   0  0  0  0  0  0  0  0  0  0  0  0
   51.8721   16.0105   20.8933 C   0  0  0  0  0  0  0  0  0  0  0  0
   48.4197   11.4882   11.7971 C   0  0  0  0  0  0  0  0  0  0  0  0
   47.5150   11.6181   10.8207 F   0  0  0  0  0  0  0  0  0  0  0  0
   48.0648   10.8331   12.9702 C   0  0  0  0  0  0  0  0  0  0  0  0
   49.0073   10.7016   13.9851 C   0  0  0  0  0  0  0  0  0  0  0  0
   48.6404   10.0643   15.1084 F   0  0  0  0  0  0  0  0  0  0  0  0
   50.3002   11.2131   13.8400 C   0  0  0  0  0  0  0  0  0  0  0  0
   52.5000   10.8920   14.5361 O   0  0  0  0  0  0  0  0  0  0  0  0
   51.3354   11.0287   14.8861 C   0  0  0  0  0  0  0  0  0  0  0  0
   50.8775   11.0189   16.1839 N   0  0  0  0  0  0  0  0  0  0  0  0
   50.6275   11.8718   12.6484 C   0  0  0  0  0  0  0  0  0  0  0  0
   51.8393   12.4200   12.4709 F   0  0  0  0  0  0  0  0  0  0  0  0
   49.6924   12.0168   11.6269 C   0  0  0  0  0  0  0  0  0  0  0  0
   50.8551   10.8697   18.4694 N   0  0  0  0  0  0  0  0  0  0  0  0
   51.4685   10.6428   19.6564 C   0  0  0  0  0  0  0  0  0  0  0  0
   51.6118   10.8144   17.3537 C   0  0  0  0  0  0  0  0  0  0  0  0
   52.9750   10.5601   17.3884 C   0  0  0  0  0  0  0  0  0  0  0  0
   53.5859   10.3251   18.6187 C   0  0  0  0  0  0  0  0  0  0  0  0
   52.8217   10.3544   19.7760 C   0  0  0  0  0  0  0  0  0  0  0  0
   50.6331   10.7205   20.8917 C   0  0  0  0  0  0  0  0  0  0  0  0
   49.2818   11.4262   20.8780 C   0  0  0  0  0  0  0  0  0  0  0  0
   49.3778   12.8895   20.4354 C   0  0  0  0  0  0  0  0  0  0  0  0
   47.9992   13.5505   20.4634 C   0  0  0  0  0  0  0  0  0  0  0  0
   46.9775   12.8236   19.7011 N   0  0  0  0  0  0  0  0  0  0  0  0
   46.8712   11.4277   20.1464 C   0  0  0  0  0  0  0  0  0  0  0  0
   48.1977   10.6615   20.1159 C   0  0  0  0  0  0  0  0  0  0  0  0
   51.0657   10.2271   21.9374 O   0  0  0  0  0  0  0  0  0  0  0  0
   47.1767   12.9342   18.2582 C   0  0  0  0  0  0  0  0  0  0  0  0
   50.1237    9.6884   15.7916 O   0  0  0  0  0  0  0  0  0  0  0  0
   49.3690   10.7248   16.2015 C   0  0  0  0  0  0  0  0  0  0  0  0
   49.1115   11.6491   15.4487 O   0  0  0  0  0  0  0  0  0  0  0  0
   48.9644   10.6096   17.6400 C   0  0  0  0  0  0  0  0  0  0  0  0
   49.9779   11.3205   18.5210 C   0  0  0  0  0  0  0  0  0  0  0  0
   49.7532   12.8065   18.5039 C   0  0  0  0  0  0  0  0  0  0  0  0
   48.6813   13.3797   18.5865 O   0  0  0  0  0  0  0  0  0  0  0  0
   50.9027   13.5030   18.4342 O   0  0  0  0  0  0  0  0  0  0  0  0
   50.5075    7.1100   11.0127 H   0  0  0  0  0  0  0  0  0  0  0  0
   49.4499   10.3064   15.9265 H   0  0  0  0  0  0  0  0  0  0  0  0
   51.1132   11.2140   12.1026 H   0  0  0  0  0  0  0  0  0  0  0  0
   47.5153    7.4782   17.4381 H   0  0  0  0  0  0  0  0  0  0  0  0
   46.6462    7.7229   19.7287 H   0  0  0  0  0  0  0  0  0  0  0  0
   47.0778    9.8320   20.9871 H   0  0  0  0  0  0  0  0  0  0  0  0
   48.8784   13.0739   18.2881 H   0  0  0  0  0  0  0  0  0  0  0  0
   51.1291   12.8875   18.3195 H   0  0  0  0  0  0  0  0  0  0  0  0
   50.9409   11.7387   19.6348 H   0  0  0  0  0  0  0  0  0  0  0  0
   52.5595   13.4524   20.2490 H   0  0  0  0  0  0  0  0  0  0  0  0
   51.1513   13.5573   21.3016 H   0  0  0  0  0  0  0  0  0  0  0  0
   49.6943   16.4757   19.8425 H   0  0  0  0  0  0  0  0  0  0  0  0
   49.9512   15.5539   18.3823 H   0  0  0  0  0  0  0  0  0  0  0  0
   48.8650   14.4424   21.0027 H   0  0  0  0  0  0  0  0  0  0  0  0
   47.9254   14.7817   19.5617 H   0  0  0  0  0  0  0  0  0  0  0  0
   51.8742   17.0493   20.5431 H   0  0  0  0  0  0  0  0  0  0  0  0
   51.2901   15.9612   21.8208 H   0  0  0  0  0  0  0  0  0  0  0  0
   52.9129   15.7582   21.1278 H   0  0  0  0  0  0  0  0  0  0  0  0
   47.0650   10.4256   13.0887 H   0  0  0  0  0  0  0  0  0  0  0  0
   49.8872   11.1225   16.3707 H   0  0  0  0  0  0  0  0  0  0  0  0
   49.9589   12.5353   10.7093 H   0  0  0  0  0  0  0  0  0  0  0  0
   53.5811   10.5265   16.4913 H   0  0  0  0  0  0  0  0  0  0  0  0
   54.6524   10.1177   18.6638 H   0  0  0  0  0  0  0  0  0  0  0  0
   53.2737   10.1693   20.7466 H   0  0  0  0  0  0  0  0  0  0  0  0
   48.9648   11.4457   21.9332 H   0  0  0  0  0  0  0  0  0  0  0  0
   49.8033   12.9841   19.4303 H   0  0  0  0  0  0  0  0  0  0  0  0
   50.0551   13.4359   21.1035 H   0  0  0  0  0  0  0  0  0  0  0  0
   48.0761   14.5847   20.1032 H   0  0  0  0  0  0  0  0  0  0  0  0
   47.6614   13.6321   21.5049 H   0  0  0  0  0  0  0  0  0  0  0  0
   46.4828   11.4226   21.1735 H   0  0  0  0  0  0  0  0  0  0  0  0
   46.1213   10.8960   19.5489 H   0  0  0  0  0  0  0  0  0  0  0  0
   48.0593    9.6723   20.5722 H   0  0  0  0  0  0  0  0  0  0  0  0
   48.4865   10.4758   19.0755 H   0  0  0  0  0  0  0  0  0  0  0  0
   46.3360   12.4753   17.7252 H   0  0  0  0  0  0  0  0  0  0  0  0
   48.0960   12.4564   17.9037 H   0  0  0  0  0  0  0  0  0  0  0  0
   47.2025   13.9863   17.9491 H   0  0  0  0  0  0  0  0  0  0  0  0
   50.3176    9.8945   14.8533 H   0  0  0  0  0  0  0  0  0  0  0  0
   47.9481   11.0063   17.7440 H   0  0  0  0  0  0  0  0  0  0  0  0
   48.9103    9.5465   17.9023 H   0  0  0  0  0  0  0  0  0  0  0  0
   51.0005   11.0959   18.1932 H   0  0  0  0  0  0  0  0  0  0  0  0
   49.8792   10.9928   19.5619 H   0  0  0  0  0  0  0  0  0  0  0  0
   50.6084   14.4388   18.4257 H   0  0  0  0  0  0  0  0  0  0  0  0
  1  2  1  0
  1 12  2  0
  3  1  1  0
  3  4  2  0
  4  6  1  0
  5  4  1  0
  7  8  2  0
  8  9  1  0
  8  6  1  0
  9 15  1  0
 10 11  1  0
 10  6  2  0
 12 10  1  0
 13 14  2  0
 14 18  1  0
 15 13  1  0
 15 16  2  0
 16 17  1  0
 18 17  2  0
 19 14  1  0
 19 20  1  0
 20 21  1  0
 21 22  1  0
 22 23  1  0
 23 24  1  0
 23 27  1  0
 24 25  1  0
 25 20  1  0
 26 19  2  0
 28 29  1  0
 28 39  2  0
 30 28  1  0
 30 31  2  0
 31 33  1  0
 32 31  1  0
 34 35  2  0
 35 36  1  0
 35 33  1  0
 36 42  1  0
 37 38  1  0
 37 33  2  0
 39 37  1  0
 40 41  2  0
 41 45  1  0
 42 40  1  0
 42 43  2  0
 43 44  1  0
 45 44  2  0
 46 41  1  0
 46 47  1  0
 47 48  1  0
 48 49  1  0
 49 50  1  0
 50 51  1  0
 50 54  1  0
 51 52  1  0
 52 47  1  0
 53 46  2  0
 55 56  1  0
 56 57  2  0
 56 58  1  0
 58 59  1  0
 59 60  1  0
 60 61  2  0
 60 62  1  0
  3 63  1  0
  9 64  1  0
 12 65  1  0
 16 66  1  0
 17 67  1  0
 18 68  1  0
 20 69  1  0
 21 70  1  0
 21 71  1  0
 22 72  1  0
 22 73  1  0
 24 74  1  0
 24 75  1  0
 25 76  1  0
 25 77  1  0
 27 78  1  0
 27 79  1  0
 27 80  1  0
 30 81  1  0
 36 82  1  0
 39 83  1  0
 43 84  1  0
 44 85  1  0
 45 86  1  0
 47 87  1  0
 48 88  1  0
 48 89  1  0
 49 90  1  0
 49 91  1  0
 51 92  1  0
 51 93  1  0
 52 94  1  0
 52 95  1  0
 54 96  1  0
 54 97  1  0
 54 98  1  0
 55 99  1  0
 58100  1  0
 58101  1  0
 59102  1  0
 59103  1  0
 62104  1  0
M  END
> <Uni-Dock RESULT> 
ENERGY=   -4.258  LOWER_BOUND=    2.978  UPPER_BOUND=    5.809
INTER + INTRA:          -4.258
INTER:                  -4.258
INTRA:                   0.000
UNBOUND:                 0.000

$$$$
