
     RDKit          3D

104107  0  0  0  0  0  0  0  0999 V2000
   49.8292    2.7999   17.1791 C   0  0  0  0  0  0  0  0  0  0  0  0
   50.4344    1.6992   16.7176 F   0  0  0  0  0  0  0  0  0  0  0  0
   48.4599    2.7820   17.4174 C   0  0  0  0  0  0  0  0  0  0  0  0
   47.8368    3.9311   17.9024 C   0  0  0  0  0  0  0  0  0  0  0  0
   46.5097    3.8939   18.0814 F   0  0  0  0  0  0  0  0  0  0  0  0
   48.5681    5.0971   18.1480 C   0  0  0  0  0  0  0  0  0  0  0  0
   46.9795    6.1291   19.4988 O   0  0  0  0  0  0  0  0  0  0  0  0
   47.8859    6.2945   18.6920 C   0  0  0  0  0  0  0  0  0  0  0  0
   48.3420    7.5063   18.2204 N   0  0  0  0  0  0  0  0  0  0  0  0
   49.9431    5.0858   17.8958 C   0  0  0  0  0  0  0  0  0  0  0  0
   50.6880    6.1782   18.1180 F   0  0  0  0  0  0  0  0  0  0  0  0
   50.5804    3.9438   17.4139 C   0  0  0  0  0  0  0  0  0  0  0  0
   48.5504    9.7665   17.8945 N   0  0  0  0  0  0  0  0  0  0  0  0
   48.2091   11.0475   18.1864 C   0  0  0  0  0  0  0  0  0  0  0  0
   47.9088    8.7885   18.5653 C   0  0  0  0  0  0  0  0  0  0  0  0
   46.9281    9.0492   19.5118 C   0  0  0  0  0  0  0  0  0  0  0  0
   46.6041   10.3718   19.8039 C   0  0  0  0  0  0  0  0  0  0  0  0
   47.2604   11.3939   19.1348 C   0  0  0  0  0  0  0  0  0  0  0  0
   48.8915   12.1239   17.4209 C   0  0  0  0  0  0  0  0  0  0  0  0
   49.5564   11.7564   16.1016 C   0  0  0  0  0  0  0  0  0  0  0  0
   49.1896   12.7994   15.0443 C   0  0  0  0  0  0  0  0  0  0  0  0
   49.8993   12.5235   13.7169 C   0  0  0  0  0  0  0  0  0  0  0  0
   51.2736   12.0216   13.8623 N   0  0  0  0  0  0  0  0  0  0  0  0
   51.8621   12.3491   15.1592 C   0  0  0  0  0  0  0  0  0  0  0  0
   51.0788   11.6540   16.2790 C   0  0  0  0  0  0  0  0  0  0  0  0
   48.8994   13.2741   17.8622 O   0  0  0  0  0  0  0  0  0  0  0  0
   52.1150   12.4776   12.7540 C   0  0  0  0  0  0  0  0  0  0  0  0
   50.7035   15.6959   16.8206 C   0  0  0  0  0  0  0  0  0  0  0  0
   51.2551   16.7000   17.5119 F   0  0  0  0  0  0  0  0  0  0  0  0
   50.9521   14.3874   17.2029 C   0  0  0  0  0  0  0  0  0  0  0  0
   50.3793   13.3467   16.4749 C   0  0  0  0  0  0  0  0  0  0  0  0
   50.6487   12.0942   16.8746 F   0  0  0  0  0  0  0  0  0  0  0  0
   49.5488   13.5900   15.3751 C   0  0  0  0  0  0  0  0  0  0  0  0
   48.3812   12.7627   13.5171 O   0  0  0  0  0  0  0  0  0  0  0  0
   48.9309   12.4900   14.5763 C   0  0  0  0  0  0  0  0  0  0  0  0
   49.0305   11.2181   15.0983 N   0  0  0  0  0  0  0  0  0  0  0  0
   49.3094   14.9273   15.0268 C   0  0  0  0  0  0  0  0  0  0  0  0
   48.5124   15.2527   13.9999 F   0  0  0  0  0  0  0  0  0  0  0  0
   49.8851   15.9787   15.7383 C   0  0  0  0  0  0  0  0  0  0  0  0
   48.8599    8.9393   15.3109 N   0  0  0  0  0  0  0  0  0  0  0  0
   48.4354    7.7291   14.8671 C   0  0  0  0  0  0  0  0  0  0  0  0
   48.5430   10.0217   14.5654 C   0  0  0  0  0  0  0  0  0  0  0  0
   47.8029    9.9323   13.3949 C   0  0  0  0  0  0  0  0  0  0  0  0
   47.3748    8.6812   12.9588 C   0  0  0  0  0  0  0  0  0  0  0  0
   47.6932    7.5561   13.7067 C   0  0  0  0  0  0  0  0  0  0  0  0
   48.8077    6.5319   15.6827 C   0  0  0  0  0  0  0  0  0  0  0  0
   49.6671    6.7452   16.9270 C   0  0  0  0  0  0  0  0  0  0  0  0
   50.4938    5.4914   17.2402 C   0  0  0  0  0  0  0  0  0  0  0  0
   51.2621    5.6507   18.5537 C   0  0  0  0  0  0  0  0  0  0  0  0
   50.4135    6.0128   19.6955 N   0  0  0  0  0  0  0  0  0  0  0  0
   49.6022    7.1990   19.4105 C   0  0  0  0  0  0  0  0  0  0  0  0
   48.7804    7.1023   18.1239 C   0  0  0  0  0  0  0  0  0  0  0  0
   48.4044    5.4179   15.3453 O   0  0  0  0  0  0  0  0  0  0  0  0
   49.6028    4.8893   20.1592 C   0  0  0  0  0  0  0  0  0  0  0  0
   50.0177    7.4354   16.5791 O   0  0  0  0  0  0  0  0  0  0  0  0
   49.2063    7.9906   17.4983 C   0  0  0  0  0  0  0  0  0  0  0  0
   49.2015    7.5749   18.6463 O   0  0  0  0  0  0  0  0  0  0  0  0
   48.2917    9.0471   16.9399 C   0  0  0  0  0  0  0  0  0  0  0  0
   48.9283    9.8861   15.8363 C   0  0  0  0  0  0  0  0  0  0  0  0
   50.1774   10.6070   16.2595 C   0  0  0  0  0  0  0  0  0  0  0  0
   51.0972   10.9257   15.5251 O   0  0  0  0  0  0  0  0  0  0  0  0
   50.1814   10.9819   17.5485 O   0  0  0  0  0  0  0  0  0  0  0  0
   47.8792    1.8882   17.2200 H   0  0  0  0  0  0  0  0  0  0  0  0
   49.1045    7.5340   17.5545 H   0  0  0  0  0  0  0  0  0  0  0  0
   51.6480    3.9414   17.2304 H   0  0  0  0  0  0  0  0  0  0  0  0
   46.4100    8.2594   20.0412 H   0  0  0  0  0  0  0  0  0  0  0  0
   45.8440   10.5966   20.5444 H   0  0  0  0  0  0  0  0  0  0  0  0
   47.0246   12.4325   19.3416 H   0  0  0  0  0  0  0  0  0  0  0  0
   49.1740   10.7908   15.7441 H   0  0  0  0  0  0  0  0  0  0  0  0
   48.1035   12.8118   14.8864 H   0  0  0  0  0  0  0  0  0  0  0  0
   49.4574   13.8076   15.3897 H   0  0  0  0  0  0  0  0  0  0  0  0
   49.8627   13.4476   13.1219 H   0  0  0  0  0  0  0  0  0  0  0  0
   49.3302   11.7712   13.1549 H   0  0  0  0  0  0  0  0  0  0  0  0
   52.9044   12.0034   15.2088 H   0  0  0  0  0  0  0  0  0  0  0  0
   51.8804   13.4338   15.3230 H   0  0  0  0  0  0  0  0  0  0  0  0
   51.4028   12.0642   17.2443 H   0  0  0  0  0  0  0  0  0  0  0  0
   51.3522   10.5895   16.3033 H   0  0  0  0  0  0  0  0  0  0  0  0
   52.2519   13.5688   12.7665 H   0  0  0  0  0  0  0  0  0  0  0  0
   53.1029   12.0008   12.7907 H   0  0  0  0  0  0  0  0  0  0  0  0
   51.6722   12.1969   11.7909 H   0  0  0  0  0  0  0  0  0  0  0  0
   51.5960   14.1777   18.0501 H   0  0  0  0  0  0  0  0  0  0  0  0
   49.5408   11.0646   15.9593 H   0  0  0  0  0  0  0  0  0  0  0  0
   49.6859   17.0063   15.4524 H   0  0  0  0  0  0  0  0  0  0  0  0
   47.5454   10.8030   12.8028 H   0  0  0  0  0  0  0  0  0  0  0  0
   46.8022    8.5912   12.0386 H   0  0  0  0  0  0  0  0  0  0  0  0
   47.3704    6.5706   13.3851 H   0  0  0  0  0  0  0  0  0  0  0  0
   50.3782    7.5579   16.7346 H   0  0  0  0  0  0  0  0  0  0  0  0
   51.2007    5.3014   16.4231 H   0  0  0  0  0  0  0  0  0  0  0  0
   49.8491    4.6042   17.2945 H   0  0  0  0  0  0  0  0  0  0  0  0
   51.8217    4.7300   18.7715 H   0  0  0  0  0  0  0  0  0  0  0  0
   52.0254    6.4334   18.4282 H   0  0  0  0  0  0  0  0  0  0  0  0
   48.9420    7.4216   20.2581 H   0  0  0  0  0  0  0  0  0  0  0  0
   50.2772    8.0602   19.3290 H   0  0  0  0  0  0  0  0  0  0  0  0
   47.9822    6.3576   18.2387 H   0  0  0  0  0  0  0  0  0  0  0  0
   48.2749    8.0604   17.9461 H   0  0  0  0  0  0  0  0  0  0  0  0
   48.8723    4.5433   19.4221 H   0  0  0  0  0  0  0  0  0  0  0  0
   50.2395    4.0377   20.4208 H   0  0  0  0  0  0  0  0  0  0  0  0
   49.0558    5.1606   21.0702 H   0  0  0  0  0  0  0  0  0  0  0  0
   50.4959    6.7372   17.0766 H   0  0  0  0  0  0  0  0  0  0  0  0
   47.4003    8.5396   16.5500 H   0  0  0  0  0  0  0  0  0  0  0  0
   47.9770    9.6947   17.7687 H   0  0  0  0  0  0  0  0  0  0  0  0
   49.1871    9.2522   14.9814 H   0  0  0  0  0  0  0  0  0  0  0  0
   48.2134   10.6382   15.4871 H   0  0  0  0  0  0  0  0  0  0  0  0
   51.0227   11.4744   17.6446 H   0  0  0  0  0  0  0  0  0  0  0  0
  1  2  1  0
  1 12  2  0
  3  1  1  0
  3  4  2  0
  4  6  1  0
  5  4  1  0
  7  8  2  0
  8  9  1  0
  8  6  1  0
  9 15  1  0
 10 11  1  0
 10  6  2  0
 12 10  1  0
 13 14  2  0
 14 18  1  0
 15 13  1  0
 15 16  2  0
 16 17  1  0
 18 17  2  0
 19 14  1  0
 19 20  1  0
 20 21  1  0
 21 22  1  0
 22 23  1  0
 23 24  1  0
 23 27  1  0
 24 25  1  0
 25 20  1  0
 26 19  2  0
 28 29  1  0
 28 39  2  0
 30 28  1  0
 30 31  2  0
 31 33  1  0
 32 31  1  0
 34 35  2  0
 35 36  1  0
 35 33  1  0
 36 42  1  0
 37 38  1  0
 37 33  2  0
 39 37  1  0
 40 41  2  0
 41 45  1  0
 42 40  1  0
 42 43  2  0
 43 44  1  0
 45 44  2  0
 46 41  1  0
 46 47  1  0
 47 48  1  0
 48 49  1  0
 49 50  1  0
 50 51  1  0
 50 54  1  0
 51 52  1  0
 52 47  1  0
 53 46  2  0
 55 56  1  0
 56 57  2  0
 56 58  1  0
 58 59  1  0
 59 60  1  0
 60 61  2  0
 60 62  1  0
  3 63  1  0
  9 64  1  0
 12 65  1  0
 16 66  1  0
 17 67  1  0
 18 68  1  0
 20 69  1  0
 21 70  1  0
 21 71  1  0
 22 72  1  0
 22 73  1  0
 24 74  1  0
 24 75  1  0
 25 76  1  0
 25 77  1  0
 27 78  1  0
 27 79  1  0
 27 80  1  0
 30 81  1  0
 36 82  1  0
 39 83  1  0
 43 84  1  0
 44 85  1  0
 45 86  1  0
 47 87  1  0
 48 88  1  0
 48 89  1  0
 49 90  1  0
 49 91  1  0
 51 92  1  0
 51 93  1  0
 52 94  1  0
 52 95  1  0
 54 96  1  0
 54 97  1  0
 54 98  1  0
 55 99  1  0
 58100  1  0
 58101  1  0
 59102  1  0
 59103  1  0
 62104  1  0
M  END
> <Uni-Dock RESULT> 
ENERGY=   -5.795  LOWER_BOUND=    0.000  UPPER_BOUND=    0.000
INTER + INTRA:          -5.795
INTER:                  -5.795
INTRA:                   0.000
UNBOUND:                 0.000

$$$$

     RDKit          3D

104107  0  0  0  0  0  0  0  0999 V2000
   48.9627   10.8729   20.3591 C   0  0  0  0  0  0  0  0  0  0  0  0
   49.0677   12.1379   20.7826 F   0  0  0  0  0  0  0  0  0  0  0  0
   47.8886   10.0958   20.7769 C   0  0  0  0  0  0  0  0  0  0  0  0
   47.7832    8.7799   20.3281 C   0  0  0  0  0  0  0  0  0  0  0  0
   46.7595    8.0449   20.7827 F   0  0  0  0  0  0  0  0  0  0  0  0
   48.7417    8.2335   19.4693 C   0  0  0  0  0  0  0  0  0  0  0  0
   47.4594    6.4299   18.7509 O   0  0  0  0  0  0  0  0  0  0  0  0
   48.5889    6.8422   18.9835 C   0  0  0  0  0  0  0  0  0  0  0  0
   49.7587    6.1272   18.8453 N   0  0  0  0  0  0  0  0  0  0  0  0
   49.8123    9.0384   19.0687 C   0  0  0  0  0  0  0  0  0  0  0  0
   50.7554    8.5610   18.2441 F   0  0  0  0  0  0  0  0  0  0  0  0
   49.9294   10.3564   19.5065 C   0  0  0  0  0  0  0  0  0  0  0  0
   51.2086    4.4060   18.4055 N   0  0  0  0  0  0  0  0  0  0  0  0
   51.4644    3.1503   17.9577 C   0  0  0  0  0  0  0  0  0  0  0  0
   49.9241    4.8160   18.3934 C   0  0  0  0  0  0  0  0  0  0  0  0
   48.8843    4.0069   17.9581 C   0  0  0  0  0  0  0  0  0  0  0  0
   49.1727    2.7270   17.4910 C   0  0  0  0  0  0  0  0  0  0  0  0
   50.4886    2.2892   17.4828 C   0  0  0  0  0  0  0  0  0  0  0  0
   52.8761    2.6865   18.0048 C   0  0  0  0  0  0  0  0  0  0  0  0
   53.8417    3.4162   18.9284 C   0  0  0  0  0  0  0  0  0  0  0  0
   54.6701    2.3903   19.7041 C   0  0  0  0  0  0  0  0  0  0  0  0
   55.7167    3.0708   20.5891 C   0  0  0  0  0  0  0  0  0  0  0  0
   56.3312    4.2628   19.9863 N   0  0  0  0  0  0  0  0  0  0  0  0
   56.2175    4.2834   18.5295 C   0  0  0  0  0  0  0  0  0  0  0  0
   54.7418    4.3641   18.1216 C   0  0  0  0  0  0  0  0  0  0  0  0
   53.2273    1.7322   17.3093 O   0  0  0  0  0  0  0  0  0  0  0  0
   57.7206    4.4108   20.4242 C   0  0  0  0  0  0  0  0  0  0  0  0
   56.2299    0.8173   16.7160 C   0  0  0  0  0  0  0  0  0  0  0  0
   56.7493    0.2845   15.6038 F   0  0  0  0  0  0  0  0  0  0  0  0
   55.5421    2.0178   16.6400 C   0  0  0  0  0  0  0  0  0  0  0  0
   55.0091    2.5697   17.8029 C   0  0  0  0  0  0  0  0  0  0  0  0
   54.3545    3.7356   17.6875 F   0  0  0  0  0  0  0  0  0  0  0  0
   55.1397    1.9357   19.0437 C   0  0  0  0  0  0  0  0  0  0  0  0
   54.9001    2.0140   21.3752 O   0  0  0  0  0  0  0  0  0  0  0  0
   54.5832    2.5130   20.3033 C   0  0  0  0  0  0  0  0  0  0  0  0
   53.7381    3.5933   20.1656 N   0  0  0  0  0  0  0  0  0  0  0  0
   55.8304    0.7156   19.0785 C   0  0  0  0  0  0  0  0  0  0  0  0
   55.9871    0.0307   20.2197 F   0  0  0  0  0  0  0  0  0  0  0  0
   56.3795    0.1571   17.9254 C   0  0  0  0  0  0  0  0  0  0  0  0
   52.3643    5.3555   20.6898 N   0  0  0  0  0  0  0  0  0  0  0  0
   51.6985    6.1208   21.5913 C   0  0  0  0  0  0  0  0  0  0  0  0
   53.0828    4.3145   21.1673 C   0  0  0  0  0  0  0  0  0  0  0  0
   53.1456    4.0074   22.5192 C   0  0  0  0  0  0  0  0  0  0  0  0
   52.4525    4.8038   23.4270 C   0  0  0  0  0  0  0  0  0  0  0  0
   51.7125    5.8806   22.9585 C   0  0  0  0  0  0  0  0  0  0  0  0
   50.9236    7.2850   21.0609 C   0  0  0  0  0  0  0  0  0  0  0  0
   50.9661    7.5561   19.5586 C   0  0  0  0  0  0  0  0  0  0  0  0
   50.7388    9.0449   19.2665 C   0  0  0  0  0  0  0  0  0  0  0  0
   50.6552    9.3056   17.7612 C   0  0  0  0  0  0  0  0  0  0  0  0
   49.6542    8.4818   17.0725 N   0  0  0  0  0  0  0  0  0  0  0  0
   49.8433    7.0561   17.3524 C   0  0  0  0  0  0  0  0  0  0  0  0
   49.9074    6.7125   18.8417 C   0  0  0  0  0  0  0  0  0  0  0  0
   50.2646    7.9796   21.8360 O   0  0  0  0  0  0  0  0  0  0  0  0
   48.2895    8.9219   17.3525 C   0  0  0  0  0  0  0  0  0  0  0  0
   51.7363    7.2037   19.5064 O   0  0  0  0  0  0  0  0  0  0  0  0
   50.9749    6.2510   18.9369 C   0  0  0  0  0  0  0  0  0  0  0  0
   50.1590    6.5469   18.0782 O   0  0  0  0  0  0  0  0  0  0  0  0
   51.1718    4.8826   19.5313 C   0  0  0  0  0  0  0  0  0  0  0  0
   52.6105    4.5995   19.9516 C   0  0  0  0  0  0  0  0  0  0  0  0
   53.6074    4.7075   18.8319 C   0  0  0  0  0  0  0  0  0  0  0  0
   54.7850    4.9992   18.9547 O   0  0  0  0  0  0  0  0  0  0  0  0
   53.1205    4.3553   17.6315 O   0  0  0  0  0  0  0  0  0  0  0  0
   47.1449   10.5034   21.4520 H   0  0  0  0  0  0  0  0  0  0  0  0
   50.6462    6.5650   19.0608 H   0  0  0  0  0  0  0  0  0  0  0  0
   50.7574   10.9756   19.1833 H   0  0  0  0  0  0  0  0  0  0  0  0
   47.8535    4.3385   17.9588 H   0  0  0  0  0  0  0  0  0  0  0  0
   48.3746    2.0810   17.1414 H   0  0  0  0  0  0  0  0  0  0  0  0
   50.7397    1.2956   17.1268 H   0  0  0  0  0  0  0  0  0  0  0  0
   53.2822    4.0019   19.6701 H   0  0  0  0  0  0  0  0  0  0  0  0
   54.0140    1.7649   20.3230 H   0  0  0  0  0  0  0  0  0  0  0  0
   55.1787    1.7046   19.0124 H   0  0  0  0  0  0  0  0  0  0  0  0
   56.4687    2.3144   20.8564 H   0  0  0  0  0  0  0  0  0  0  0  0
   55.2438    3.3825   21.5298 H   0  0  0  0  0  0  0  0  0  0  0  0
   56.7330    5.1610   18.1141 H   0  0  0  0  0  0  0  0  0  0  0  0
   56.6888    3.3990   18.0831 H   0  0  0  0  0  0  0  0  0  0  0  0
   54.6625    4.1779   17.0427 H   0  0  0  0  0  0  0  0  0  0  0  0
   54.3818    5.3920   18.2715 H   0  0  0  0  0  0  0  0  0  0  0  0
   58.3562    3.5944   20.0512 H   0  0  0  0  0  0  0  0  0  0  0  0
   58.1398    5.3652   20.0804 H   0  0  0  0  0  0  0  0  0  0  0  0
   57.7823    4.4230   21.5189 H   0  0  0  0  0  0  0  0  0  0  0  0
   55.4330    2.5268   15.6885 H   0  0  0  0  0  0  0  0  0  0  0  0
   53.5583    3.9794   19.2470 H   0  0  0  0  0  0  0  0  0  0  0  0
   56.9095   -0.7885   17.9746 H   0  0  0  0  0  0  0  0  0  0  0  0
   53.7176    3.1683   22.8980 H   0  0  0  0  0  0  0  0  0  0  0  0
   52.4984    4.5839   24.4910 H   0  0  0  0  0  0  0  0  0  0  0  0
   51.1650    6.5154   23.6486 H   0  0  0  0  0  0  0  0  0  0  0  0
   51.9635    7.3037   19.1784 H   0  0  0  0  0  0  0  0  0  0  0  0
   51.5583    9.6348   19.6954 H   0  0  0  0  0  0  0  0  0  0  0  0
   49.8221    9.4013   19.7546 H   0  0  0  0  0  0  0  0  0  0  0  0
   50.4622   10.3722   17.5784 H   0  0  0  0  0  0  0  0  0  0  0  0
   51.6383    9.1053   17.3090 H   0  0  0  0  0  0  0  0  0  0  0  0
   49.0562    6.4651   16.8675 H   0  0  0  0  0  0  0  0  0  0  0  0
   50.7820    6.7394   16.8809 H   0  0  0  0  0  0  0  0  0  0  0  0
   48.9251    6.8622   19.3081 H   0  0  0  0  0  0  0  0  0  0  0  0
   50.1353    5.6447   18.9558 H   0  0  0  0  0  0  0  0  0  0  0  0
   48.0021    8.8147   18.4026 H   0  0  0  0  0  0  0  0  0  0  0  0
   48.1611    9.9743   17.0788 H   0  0  0  0  0  0  0  0  0  0  0  0
   47.5713    8.3535   16.7496 H   0  0  0  0  0  0  0  0  0  0  0  0
   51.4521    8.0311   19.0612 H   0  0  0  0  0  0  0  0  0  0  0  0
   50.5101    4.8030   20.4030 H   0  0  0  0  0  0  0  0  0  0  0  0
   50.8453    4.1415   18.7899 H   0  0  0  0  0  0  0  0  0  0  0  0
   52.9194    5.2982   20.7365 H   0  0  0  0  0  0  0  0  0  0  0  0
   52.6814    3.5870   20.3623 H   0  0  0  0  0  0  0  0  0  0  0  0
   53.8948    4.4293   17.0359 H   0  0  0  0  0  0  0  0  0  0  0  0
  1  2  1  0
  1 12  2  0
  3  1  1  0
  3  4  2  0
  4  6  1  0
  5  4  1  0
  7  8  2  0
  8  9  1  0
  8  6  1  0
  9 15  1  0
 10 11  1  0
 10  6  2  0
 12 10  1  0
 13 14  2  0
 14 18  1  0
 15 13  1  0
 15 16  2  0
 16 17  1  0
 18 17  2  0
 19 14  1  0
 19 20  1  0
 20 21  1  0
 21 22  1  0
 22 23  1  0
 23 24  1  0
 23 27  1  0
 24 25  1  0
 25 20  1  0
 26 19  2  0
 28 29  1  0
 28 39  2  0
 30 28  1  0
 30 31  2  0
 31 33  1  0
 32 31  1  0
 34 35  2  0
 35 36  1  0
 35 33  1  0
 36 42  1  0
 37 38  1  0
 37 33  2  0
 39 37  1  0
 40 41  2  0
 41 45  1  0
 42 40  1  0
 42 43  2  0
 43 44  1  0
 45 44  2  0
 46 41  1  0
 46 47  1  0
 47 48  1  0
 48 49  1  0
 49 50  1  0
 50 51  1  0
 50 54  1  0
 51 52  1  0
 52 47  1  0
 53 46  2  0
 55 56  1  0
 56 57  2  0
 56 58  1  0
 58 59  1  0
 59 60  1  0
 60 61  2  0
 60 62  1  0
  3 63  1  0
  9 64  1  0
 12 65  1  0
 16 66  1  0
 17 67  1  0
 18 68  1  0
 20 69  1  0
 21 70  1  0
 21 71  1  0
 22 72  1  0
 22 73  1  0
 24 74  1  0
 24 75  1  0
 25 76  1  0
 25 77  1  0
 27 78  1  0
 27 79  1  0
 27 80  1  0
 30 81  1  0
 36 82  1  0
 39 83  1  0
 43 84  1  0
 44 85  1  0
 45 86  1  0
 47 87  1  0
 48 88  1  0
 48 89  1  0
 49 90  1  0
 49 91  1  0
 51 92  1  0
 51 93  1  0
 52 94  1  0
 52 95  1  0
 54 96  1  0
 54 97  1  0
 54 98  1  0
 55 99  1  0
 58100  1  0
 58101  1  0
 59102  1  0
 59103  1  0
 62104  1  0
M  END
> <Uni-Dock RESULT> 
ENERGY=   -4.740  LOWER_BOUND=    3.880  UPPER_BOUND=    9.362
INTER + INTRA:          -4.740
INTER:                  -4.740
INTRA:                   0.000
UNBOUND:                 0.000

$$$$

     RDKit          3D

104107  0  0  0  0  0  0  0  0999 V2000
   53.4599    8.1575   11.5745 C   0  0  0  0  0  0  0  0  0  0  0  0
   54.1780    7.2429   10.9124 F   0  0  0  0  0  0  0  0  0  0  0  0
   53.3757    8.0927   12.9605 C   0  0  0  0  0  0  0  0  0  0  0  0
   52.6294    9.0517   13.6442 C   0  0  0  0  0  0  0  0  0  0  0  0
   52.5337    8.9363   14.9754 F   0  0  0  0  0  0  0  0  0  0  0  0
   51.9649   10.0714   12.9561 C   0  0  0  0  0  0  0  0  0  0  0  0
   51.6447   11.4665   14.7904 O   0  0  0  0  0  0  0  0  0  0  0  0
   51.2039   11.0950   13.7099 C   0  0  0  0  0  0  0  0  0  0  0  0
   50.0424   11.5342   13.1124 N   0  0  0  0  0  0  0  0  0  0  0  0
   52.0656   10.1088   11.5622 C   0  0  0  0  0  0  0  0  0  0  0  0
   51.4488   11.0684   10.8578 F   0  0  0  0  0  0  0  0  0  0  0  0
   52.8104    9.1591   10.8653 C   0  0  0  0  0  0  0  0  0  0  0  0
   48.0843   12.6730   12.7555 N   0  0  0  0  0  0  0  0  0  0  0  0
   47.1700   13.6098   13.1147 C   0  0  0  0  0  0  0  0  0  0  0  0
   49.1418   12.4970   13.5735 C   0  0  0  0  0  0  0  0  0  0  0  0
   49.3097   13.2202   14.7458 C   0  0  0  0  0  0  0  0  0  0  0  0
   48.3651   14.1852   15.0868 C   0  0  0  0  0  0  0  0  0  0  0  0
   47.2760   14.3915   14.2536 C   0  0  0  0  0  0  0  0  0  0  0  0
   45.9865   13.7781   12.2308 C   0  0  0  0  0  0  0  0  0  0  0  0
   45.6348   12.6445   11.2774 C   0  0  0  0  0  0  0  0  0  0  0  0
   44.1291   12.3811   11.3406 C   0  0  0  0  0  0  0  0  0  0  0  0
   43.7073   11.3040   10.3388 C   0  0  0  0  0  0  0  0  0  0  0  0
   44.4288   11.3572    9.0588 N   0  0  0  0  0  0  0  0  0  0  0  0
   45.0154   12.6690    8.7932 C   0  0  0  0  0  0  0  0  0  0  0  0
   46.0809   12.9885    9.8483 C   0  0  0  0  0  0  0  0  0  0  0  0
   45.3227   14.8142   12.2922 O   0  0  0  0  0  0  0  0  0  0  0  0
   43.5710   10.9134    7.9581 C   0  0  0  0  0  0  0  0  0  0  0  0
   43.0981   15.7712   10.2089 C   0  0  0  0  0  0  0  0  0  0  0  0
   42.7888   17.0101    9.8089 F   0  0  0  0  0  0  0  0  0  0  0  0
   44.4068   15.3278   10.1047 C   0  0  0  0  0  0  0  0  0  0  0  0
   44.7205   14.0346   10.5175 C   0  0  0  0  0  0  0  0  0  0  0  0
   45.9981   13.6420   10.3955 F   0  0  0  0  0  0  0  0  0  0  0  0
   43.7497   13.1767   11.0466 C   0  0  0  0  0  0  0  0  0  0  0  0
   43.1397   11.0255   11.7537 O   0  0  0  0  0  0  0  0  0  0  0  0
   44.0623   11.7848   11.4879 C   0  0  0  0  0  0  0  0  0  0  0  0
   45.3966   11.4462   11.5609 N   0  0  0  0  0  0  0  0  0  0  0  0
   42.4392   13.6656   11.1492 C   0  0  0  0  0  0  0  0  0  0  0  0
   41.4504   12.9197   11.6608 F   0  0  0  0  0  0  0  0  0  0  0  0
   42.1079   14.9528   10.7293 C   0  0  0  0  0  0  0  0  0  0  0  0
   47.3107   10.2145   11.8542 N   0  0  0  0  0  0  0  0  0  0  0  0
   47.9492    9.0674   12.1980 C   0  0  0  0  0  0  0  0  0  0  0  0
   45.9618   10.2269   11.9436 C   0  0  0  0  0  0  0  0  0  0  0  0
   45.2316    9.1300   12.3791 C   0  0  0  0  0  0  0  0  0  0  0  0
   45.9066    7.9637   12.7297 C   0  0  0  0  0  0  0  0  0  0  0  0
   47.2913    7.9279   12.6407 C   0  0  0  0  0  0  0  0  0  0  0  0
   49.4398    9.0506   12.0757 C   0  0  0  0  0  0  0  0  0  0  0  0
   50.1339   10.3004   11.5385 C   0  0  0  0  0  0  0  0  0  0  0  0
   51.4586    9.9372   10.8553 C   0  0  0  0  0  0  0  0  0  0  0  0
   52.2201   11.1926   10.4250 C   0  0  0  0  0  0  0  0  0  0  0  0
   52.4423   12.1522   11.5135 N   0  0  0  0  0  0  0  0  0  0  0  0
   51.1904   12.4995   12.1908 C   0  0  0  0  0  0  0  0  0  0  0  0
   50.3851   11.2933   12.6775 C   0  0  0  0  0  0  0  0  0  0  0  0
   50.0662    8.0480   12.4217 O   0  0  0  0  0  0  0  0  0  0  0  0
   53.4675   11.6977   12.4497 C   0  0  0  0  0  0  0  0  0  0  0  0
   49.4424   10.5046   11.0909 O   0  0  0  0  0  0  0  0  0  0  0  0
   49.3884   11.4129   12.0826 C   0  0  0  0  0  0  0  0  0  0  0  0
   50.3809   12.0584   12.3807 O   0  0  0  0  0  0  0  0  0  0  0  0
   48.0649   11.4508   12.7980 C   0  0  0  0  0  0  0  0  0  0  0  0
   46.8685   11.2048   11.8842 C   0  0  0  0  0  0  0  0  0  0  0  0
   46.7512   12.1868   10.7522 C   0  0  0  0  0  0  0  0  0  0  0  0
   46.2319   11.9662    9.6712 O   0  0  0  0  0  0  0  0  0  0  0  0
   47.1946   13.4184   11.0497 O   0  0  0  0  0  0  0  0  0  0  0  0
   53.8763    7.3004   13.5052 H   0  0  0  0  0  0  0  0  0  0  0  0
   49.7681   11.1649   12.2102 H   0  0  0  0  0  0  0  0  0  0  0  0
   52.8905    9.2016    9.7858 H   0  0  0  0  0  0  0  0  0  0  0  0
   50.1566   13.0684   15.4033 H   0  0  0  0  0  0  0  0  0  0  0  0
   48.4811   14.7647   15.9964 H   0  0  0  0  0  0  0  0  0  0  0  0
   46.5244   15.1349   14.4978 H   0  0  0  0  0  0  0  0  0  0  0  0
   46.1347   11.7190   11.5932 H   0  0  0  0  0  0  0  0  0  0  0  0
   43.8413   12.0749   12.3545 H   0  0  0  0  0  0  0  0  0  0  0  0
   43.5685   13.3027   11.1315 H   0  0  0  0  0  0  0  0  0  0  0  0
   42.6199   11.3879   10.1985 H   0  0  0  0  0  0  0  0  0  0  0  0
   43.8869   10.3142   10.7787 H   0  0  0  0  0  0  0  0  0  0  0  0
   45.4997   12.6830    7.8064 H   0  0  0  0  0  0  0  0  0  0  0  0
   44.2461   13.4511    8.7791 H   0  0  0  0  0  0  0  0  0  0  0  0
   46.3648   14.0447    9.7555 H   0  0  0  0  0  0  0  0  0  0  0  0
   46.9927   12.4164    9.6248 H   0  0  0  0  0  0  0  0  0  0  0  0
   42.7298   11.6022    7.7920 H   0  0  0  0  0  0  0  0  0  0  0  0
   44.1433   10.8291    7.0253 H   0  0  0  0  0  0  0  0  0  0  0  0
   43.1644    9.9157    8.1622 H   0  0  0  0  0  0  0  0  0  0  0  0
   45.1732   15.9760    9.6938 H   0  0  0  0  0  0  0  0  0  0  0  0
   46.1029   12.1155   11.2810 H   0  0  0  0  0  0  0  0  0  0  0  0
   41.0877   15.3116   10.8184 H   0  0  0  0  0  0  0  0  0  0  0  0
   44.1505    9.1453   12.4554 H   0  0  0  0  0  0  0  0  0  0  0  0
   45.3500    7.0912   13.0637 H   0  0  0  0  0  0  0  0  0  0  0  0
   47.8381    7.0288   12.9083 H   0  0  0  0  0  0  0  0  0  0  0  0
   49.4961   10.7627   10.7752 H   0  0  0  0  0  0  0  0  0  0  0  0
   51.2616    9.3095    9.9774 H   0  0  0  0  0  0  0  0  0  0  0  0
   52.0880    9.3341   11.5230 H   0  0  0  0  0  0  0  0  0  0  0  0
   53.1778   10.9081    9.9663 H   0  0  0  0  0  0  0  0  0  0  0  0
   51.6538   11.6982    9.6284 H   0  0  0  0  0  0  0  0  0  0  0  0
   51.3870   13.1788   13.0298 H   0  0  0  0  0  0  0  0  0  0  0  0
   50.5715   13.0711   11.4880 H   0  0  0  0  0  0  0  0  0  0  0  0
   50.9090   10.7960   13.5040 H   0  0  0  0  0  0  0  0  0  0  0  0
   49.4300   11.6410   13.0922 H   0  0  0  0  0  0  0  0  0  0  0  0
   53.1937   10.7867   12.9900 H   0  0  0  0  0  0  0  0  0  0  0  0
   54.4084   11.5023   11.9247 H   0  0  0  0  0  0  0  0  0  0  0  0
   53.6812   12.4755   13.1927 H   0  0  0  0  0  0  0  0  0  0  0  0
   50.3691   10.5576   10.7718 H   0  0  0  0  0  0  0  0  0  0  0  0
   48.0924   10.6857   13.5840 H   0  0  0  0  0  0  0  0  0  0  0  0
   47.9705   12.4312   13.2831 H   0  0  0  0  0  0  0  0  0  0  0  0
   46.9272   10.2025   11.4463 H   0  0  0  0  0  0  0  0  0  0  0  0
   45.9432   11.2583   12.4670 H   0  0  0  0  0  0  0  0  0  0  0  0
   47.0013   13.9365   10.2412 H   0  0  0  0  0  0  0  0  0  0  0  0
  1  2  1  0
  1 12  2  0
  3  1  1  0
  3  4  2  0
  4  6  1  0
  5  4  1  0
  7  8  2  0
  8  9  1  0
  8  6  1  0
  9 15  1  0
 10 11  1  0
 10  6  2  0
 12 10  1  0
 13 14  2  0
 14 18  1  0
 15 13  1  0
 15 16  2  0
 16 17  1  0
 18 17  2  0
 19 14  1  0
 19 20  1  0
 20 21  1  0
 21 22  1  0
 22 23  1  0
 23 24  1  0
 23 27  1  0
 24 25  1  0
 25 20  1  0
 26 19  2  0
 28 29  1  0
 28 39  2  0
 30 28  1  0
 30 31  2  0
 31 33  1  0
 32 31  1  0
 34 35  2  0
 35 36  1  0
 35 33  1  0
 36 42  1  0
 37 38  1  0
 37 33  2  0
 39 37  1  0
 40 41  2  0
 41 45  1  0
 42 40  1  0
 42 43  2  0
 43 44  1  0
 45 44  2  0
 46 41  1  0
 46 47  1  0
 47 48  1  0
 48 49  1  0
 49 50  1  0
 50 51  1  0
 50 54  1  0
 51 52  1  0
 52 47  1  0
 53 46  2  0
 55 56  1  0
 56 57  2  0
 56 58  1  0
 58 59  1  0
 59 60  1  0
 60 61  2  0
 60 62  1  0
  3 63  1  0
  9 64  1  0
 12 65  1  0
 16 66  1  0
 17 67  1  0
 18 68  1  0
 20 69  1  0
 21 70  1  0
 21 71  1  0
 22 72  1  0
 22 73  1  0
 24 74  1  0
 24 75  1  0
 25 76  1  0
 25 77  1  0
 27 78  1  0
 27 79  1  0
 27 80  1  0
 30 81  1  0
 36 82  1  0
 39 83  1  0
 43 84  1  0
 44 85  1  0
 45 86  1  0
 47 87  1  0
 48 88  1  0
 48 89  1  0
 49 90  1  0
 49 91  1  0
 51 92  1  0
 51 93  1  0
 52 94  1  0
 52 95  1  0
 54 96  1  0
 54 97  1  0
 54 98  1  0
 55 99  1  0
 58100  1  0
 58101  1  0
 59102  1  0
 59103  1  0
 62104  1  0
M  END
> <Uni-Dock RESULT> 
ENERGY=   -4.725  LOWER_BOUND=    4.875  UPPER_BOUND=    7.413
INTER + INTRA:          -4.725
INTER:                  -4.725
INTRA:                   0.000
UNBOUND:                 0.000

$$$$

     RDKit          3D

104107  0  0  0  0  0  0  0  0999 V2000
   44.9973   14.1756   10.1630 C   0  0  0  0  0  0  0  0  0  0  0  0
   43.8608   14.8813   10.1991 F   0  0  0  0  0  0  0  0  0  0  0  0
   45.3328   13.4726    9.0118 C   0  0  0  0  0  0  0  0  0  0  0  0
   46.5206   12.7431    8.9798 C   0  0  0  0  0  0  0  0  0  0  0  0
   46.7939   12.0428    7.8710 F   0  0  0  0  0  0  0  0  0  0  0  0
   47.3733   12.7075   10.0873 C   0  0  0  0  0  0  0  0  0  0  0  0
   49.2525   11.9366    8.9527 O   0  0  0  0  0  0  0  0  0  0  0  0
   48.6441   11.9491   10.0153 C   0  0  0  0  0  0  0  0  0  0  0  0
   49.0229   11.3094   11.1755 N   0  0  0  0  0  0  0  0  0  0  0  0
   47.0076   13.4220   11.2319 C   0  0  0  0  0  0  0  0  0  0  0  0
   47.7932   13.4212   12.3183 F   0  0  0  0  0  0  0  0  0  0  0  0
   45.8251   14.1582   11.2777 C   0  0  0  0  0  0  0  0  0  0  0  0
   50.2237   10.0337   12.6551 N   0  0  0  0  0  0  0  0  0  0  0  0
   51.3179    9.2978   12.9770 C   0  0  0  0  0  0  0  0  0  0  0  0
   50.1690   10.5460   11.4090 C   0  0  0  0  0  0  0  0  0  0  0  0
   51.1685   10.3372   10.4695 C   0  0  0  0  0  0  0  0  0  0  0  0
   52.2879    9.5896   10.8270 C   0  0  0  0  0  0  0  0  0  0  0  0
   52.3707    9.0637   12.1075 C   0  0  0  0  0  0  0  0  0  0  0  0
   51.3606    8.7037   14.3392 C   0  0  0  0  0  0  0  0  0  0  0  0
   50.0510    8.5618   15.1026 C   0  0  0  0  0  0  0  0  0  0  0  0
   49.9826    7.1692   15.7321 C   0  0  0  0  0  0  0  0  0  0  0  0
   48.7210    7.0010   16.5817 C   0  0  0  0  0  0  0  0  0  0  0  0
   48.3342    8.2064   17.3296 N   0  0  0  0  0  0  0  0  0  0  0  0
   49.4466    9.1338   17.5239 C   0  0  0  0  0  0  0  0  0  0  0  0
   49.9300    9.6617   16.1681 C   0  0  0  0  0  0  0  0  0  0  0  0
   52.4387    8.3399   14.8116 O   0  0  0  0  0  0  0  0  0  0  0  0
   47.6968    7.8500   18.5988 C   0  0  0  0  0  0  0  0  0  0  0  0
   53.0118    7.5580   17.8554 C   0  0  0  0  0  0  0  0  0  0  0  0
   54.1153    7.7525   18.5870 F   0  0  0  0  0  0  0  0  0  0  0  0
   52.4163    8.6358   17.2199 C   0  0  0  0  0  0  0  0  0  0  0  0
   51.2642    8.4269   16.4648 C   0  0  0  0  0  0  0  0  0  0  0  0
   50.7156    9.4973   15.8694 F   0  0  0  0  0  0  0  0  0  0  0  0
   50.7006    7.1540   16.3216 C   0  0  0  0  0  0  0  0  0  0  0  0
   48.9138    5.8173   15.6003 O   0  0  0  0  0  0  0  0  0  0  0  0
   49.4624    6.9089   15.5237 C   0  0  0  0  0  0  0  0  0  0  0  0
   49.0137    7.9542   14.7451 N   0  0  0  0  0  0  0  0  0  0  0  0
   51.3392    6.0859   16.9682 C   0  0  0  0  0  0  0  0  0  0  0  0
   50.8795    4.8309   16.8704 F   0  0  0  0  0  0  0  0  0  0  0  0
   52.4856    6.2812   17.7369 C   0  0  0  0  0  0  0  0  0  0  0  0
   47.7114    9.1987   13.3230 N   0  0  0  0  0  0  0  0  0  0  0  0
   46.6436    9.3353   12.4966 C   0  0  0  0  0  0  0  0  0  0  0  0
   47.8960    7.9935   13.9072 C   0  0  0  0  0  0  0  0  0  0  0  0
   47.0519    6.9157   13.6801 C   0  0  0  0  0  0  0  0  0  0  0  0
   45.9638    7.0765   12.8263 C   0  0  0  0  0  0  0  0  0  0  0  0
   45.7529    8.3071   12.2197 C   0  0  0  0  0  0  0  0  0  0  0  0
   46.4300   10.6767   11.8704 C   0  0  0  0  0  0  0  0  0  0  0  0
   47.3954   11.8037   12.2314 C   0  0  0  0  0  0  0  0  0  0  0  0
   46.7125   13.1708   12.0964 C   0  0  0  0  0  0  0  0  0  0  0  0
   47.7059   14.3099   12.3346 C   0  0  0  0  0  0  0  0  0  0  0  0
   48.9015   14.2397   11.4858 N   0  0  0  0  0  0  0  0  0  0  0  0
   49.5596   12.9346   11.5872 C   0  0  0  0  0  0  0  0  0  0  0  0
   48.6338   11.7439   11.3319 C   0  0  0  0  0  0  0  0  0  0  0  0
   45.5020   10.8352   11.0759 O   0  0  0  0  0  0  0  0  0  0  0  0
   48.6178   14.6075   10.1007 C   0  0  0  0  0  0  0  0  0  0  0  0
   47.5406   11.4504   12.9893 O   0  0  0  0  0  0  0  0  0  0  0  0
   48.6905   11.1722   12.3475 C   0  0  0  0  0  0  0  0  0  0  0  0
   49.2809   12.0478   11.7349 O   0  0  0  0  0  0  0  0  0  0  0  0
   49.0721    9.7171   12.3916 C   0  0  0  0  0  0  0  0  0  0  0  0
   48.7127    9.0300   13.7052 C   0  0  0  0  0  0  0  0  0  0  0  0
   49.3450    9.6567   14.9162 C   0  0  0  0  0  0  0  0  0  0  0  0
   48.8889    9.6361   16.0469 O   0  0  0  0  0  0  0  0  0  0  0  0
   50.5544   10.1918   14.6856 O   0  0  0  0  0  0  0  0  0  0  0  0
   44.6749   13.4822    8.1504 H   0  0  0  0  0  0  0  0  0  0  0  0
   48.4481   11.3874   12.0056 H   0  0  0  0  0  0  0  0  0  0  0  0
   45.5546   14.7165   12.1657 H   0  0  0  0  0  0  0  0  0  0  0  0
   51.1151   10.7439    9.4673 H   0  0  0  0  0  0  0  0  0  0  0  0
   53.0826    9.4195   10.1086 H   0  0  0  0  0  0  0  0  0  0  0  0
   53.2305    8.4753   12.4103 H   0  0  0  0  0  0  0  0  0  0  0  0
   49.2020    8.6418   14.4104 H   0  0  0  0  0  0  0  0  0  0  0  0
   50.0060    6.3994   14.9500 H   0  0  0  0  0  0  0  0  0  0  0  0
   50.8643    6.9884   16.3622 H   0  0  0  0  0  0  0  0  0  0  0  0
   48.8809    6.1408   17.2478 H   0  0  0  0  0  0  0  0  0  0  0  0
   47.8805    6.7337   15.9277 H   0  0  0  0  0  0  0  0  0  0  0  0
   49.1306    9.9946   18.1303 H   0  0  0  0  0  0  0  0  0  0  0  0
   50.2729    8.6536   18.0628 H   0  0  0  0  0  0  0  0  0  0  0  0
   50.8803   10.1916   16.3133 H   0  0  0  0  0  0  0  0  0  0  0  0
   49.2219   10.4191   15.8027 H   0  0  0  0  0  0  0  0  0  0  0  0
   48.3994    7.3535   19.2841 H   0  0  0  0  0  0  0  0  0  0  0  0
   47.2924    8.7404   19.0973 H   0  0  0  0  0  0  0  0  0  0  0  0
   46.8470    7.1779   18.4300 H   0  0  0  0  0  0  0  0  0  0  0  0
   52.8355    9.6309   17.3215 H   0  0  0  0  0  0  0  0  0  0  0  0
   49.4962    8.8441   14.7686 H   0  0  0  0  0  0  0  0  0  0  0  0
   52.9645    5.4406   18.2281 H   0  0  0  0  0  0  0  0  0  0  0  0
   47.2064    5.9490   14.1453 H   0  0  0  0  0  0  0  0  0  0  0  0
   45.2862    6.2456   12.6444 H   0  0  0  0  0  0  0  0  0  0  0  0
   44.9105    8.4551   11.5510 H   0  0  0  0  0  0  0  0  0  0  0  0
   47.6925   11.6964   13.2818 H   0  0  0  0  0  0  0  0  0  0  0  0
   45.8896   13.2455   12.8180 H   0  0  0  0  0  0  0  0  0  0  0  0
   46.2553   13.2807   11.1041 H   0  0  0  0  0  0  0  0  0  0  0  0
   47.2011   15.2775   12.2028 H   0  0  0  0  0  0  0  0  0  0  0  0
   48.0270   14.2893   13.3869 H   0  0  0  0  0  0  0  0  0  0  0  0
   50.4208   12.8886   10.9089 H   0  0  0  0  0  0  0  0  0  0  0  0
   49.9757   12.8420   12.5981 H   0  0  0  0  0  0  0  0  0  0  0  0
   48.3335   11.7163   10.2764 H   0  0  0  0  0  0  0  0  0  0  0  0
   49.1861   10.8125   11.5121 H   0  0  0  0  0  0  0  0  0  0  0  0
   47.9303   13.9211    9.5978 H   0  0  0  0  0  0  0  0  0  0  0  0
   48.1813   15.6105   10.0508 H   0  0  0  0  0  0  0  0  0  0  0  0
   49.5442   14.6416    9.5148 H   0  0  0  0  0  0  0  0  0  0  0  0
   47.4002   12.4069   12.8191 H   0  0  0  0  0  0  0  0  0  0  0  0
   48.5595    9.2161   11.5607 H   0  0  0  0  0  0  0  0  0  0  0  0
   50.1533    9.6454   12.2147 H   0  0  0  0  0  0  0  0  0  0  0  0
   47.6278    9.0448   13.8549 H   0  0  0  0  0  0  0  0  0  0  0  0
   49.0283    7.9822   13.6708 H   0  0  0  0  0  0  0  0  0  0  0  0
   50.8433   10.5024   15.5685 H   0  0  0  0  0  0  0  0  0  0  0  0
  1  2  1  0
  1 12  2  0
  3  1  1  0
  3  4  2  0
  4  6  1  0
  5  4  1  0
  7  8  2  0
  8  9  1  0
  8  6  1  0
  9 15  1  0
 10 11  1  0
 10  6  2  0
 12 10  1  0
 13 14  2  0
 14 18  1  0
 15 13  1  0
 15 16  2  0
 16 17  1  0
 18 17  2  0
 19 14  1  0
 19 20  1  0
 20 21  1  0
 21 22  1  0
 22 23  1  0
 23 24  1  0
 23 27  1  0
 24 25  1  0
 25 20  1  0
 26 19  2  0
 28 29  1  0
 28 39  2  0
 30 28  1  0
 30 31  2  0
 31 33  1  0
 32 31  1  0
 34 35  2  0
 35 36  1  0
 35 33  1  0
 36 42  1  0
 37 38  1  0
 37 33  2  0
 39 37  1  0
 40 41  2  0
 41 45  1  0
 42 40  1  0
 42 43  2  0
 43 44  1  0
 45 44  2  0
 46 41  1  0
 46 47  1  0
 47 48  1  0
 48 49  1  0
 49 50  1  0
 50 51  1  0
 50 54  1  0
 51 52  1  0
 52 47  1  0
 53 46  2  0
 55 56  1  0
 56 57  2  0
 56 58  1  0
 58 59  1  0
 59 60  1  0
 60 61  2  0
 60 62  1  0
  3 63  1  0
  9 64  1  0
 12 65  1  0
 16 66  1  0
 17 67  1  0
 18 68  1  0
 20 69  1  0
 21 70  1  0
 21 71  1  0
 22 72  1  0
 22 73  1  0
 24 74  1  0
 24 75  1  0
 25 76  1  0
 25 77  1  0
 27 78  1  0
 27 79  1  0
 27 80  1  0
 30 81  1  0
 36 82  1  0
 39 83  1  0
 43 84  1  0
 44 85  1  0
 45 86  1  0
 47 87  1  0
 48 88  1  0
 48 89  1  0
 49 90  1  0
 49 91  1  0
 51 92  1  0
 51 93  1  0
 52 94  1  0
 52 95  1  0
 54 96  1  0
 54 97  1  0
 54 98  1  0
 55 99  1  0
 58100  1  0
 58101  1  0
 59102  1  0
 59103  1  0
 62104  1  0
M  END
> <Uni-Dock RESULT> 
ENERGY=   -4.645  LOWER_BOUND=    3.074  UPPER_BOUND=    8.342
INTER + INTRA:          -4.645
INTER:                  -4.645
INTRA:                   0.000
UNBOUND:                 0.000

$$$$

     RDKit          3D

104107  0  0  0  0  0  0  0  0999 V2000
   47.5004    5.8535   23.4359 C   0  0  0  0  0  0  0  0  0  0  0  0
   46.4558    5.4053   24.1420 F   0  0  0  0  0  0  0  0  0  0  0  0
   48.3749    6.7691   24.0095 C   0  0  0  0  0  0  0  0  0  0  0  0
   49.4638    7.2284   23.2695 C   0  0  0  0  0  0  0  0  0  0  0  0
   50.2633    8.1419   23.8360 F   0  0  0  0  0  0  0  0  0  0  0  0
   49.6844    6.7840   21.9624 C   0  0  0  0  0  0  0  0  0  0  0  0
   51.9084    7.4532   21.8247 O   0  0  0  0  0  0  0  0  0  0  0  0
   50.8663    7.2653   21.2096 C   0  0  0  0  0  0  0  0  0  0  0  0
   50.6718    7.4676   19.8605 N   0  0  0  0  0  0  0  0  0  0  0  0
   48.7860    5.8655   21.4113 C   0  0  0  0  0  0  0  0  0  0  0  0
   48.9563    5.4076   20.1628 F   0  0  0  0  0  0  0  0  0  0  0  0
   47.6950    5.3950   22.1397 C   0  0  0  0  0  0  0  0  0  0  0  0
   51.0732    8.0156   17.6703 N   0  0  0  0  0  0  0  0  0  0  0  0
   51.9111    8.4008   16.6743 C   0  0  0  0  0  0  0  0  0  0  0  0
   51.5986    7.8929   18.9061 C   0  0  0  0  0  0  0  0  0  0  0  0
   52.9335    8.1535   19.1811 C   0  0  0  0  0  0  0  0  0  0  0  0
   53.7769    8.5347   18.1404 C   0  0  0  0  0  0  0  0  0  0  0  0
   53.2604    8.6551   16.8591 C   0  0  0  0  0  0  0  0  0  0  0  0
   51.3233    8.5703   15.3193 C   0  0  0  0  0  0  0  0  0  0  0  0
   49.8156    8.7497   15.2075 C   0  0  0  0  0  0  0  0  0  0  0  0
   49.5145    9.8962   14.2403 C   0  0  0  0  0  0  0  0  0  0  0  0
   48.0088   10.0667   14.0268 C   0  0  0  0  0  0  0  0  0  0  0  0
   47.2604    8.8019   13.9820 N   0  0  0  0  0  0  0  0  0  0  0  0
   48.1039    7.6560   13.6488 C   0  0  0  0  0  0  0  0  0  0  0  0
   49.1532    7.4428   14.7462 C   0  0  0  0  0  0  0  0  0  0  0  0
   52.0591    8.5671   14.3312 O   0  0  0  0  0  0  0  0  0  0  0  0
   46.1100    8.9087   13.0823 C   0  0  0  0  0  0  0  0  0  0  0  0
   51.1413    8.3388   11.2799 C   0  0  0  0  0  0  0  0  0  0  0  0
   51.7517    7.7335   10.2545 F   0  0  0  0  0  0  0  0  0  0  0  0
   50.8763    7.6213   12.4354 C   0  0  0  0  0  0  0  0  0  0  0  0
   50.2350    8.2562   13.4969 C   0  0  0  0  0  0  0  0  0  0  0  0
   49.9922    7.5252   14.5959 F   0  0  0  0  0  0  0  0  0  0  0  0
   49.8635    9.6038   13.4304 C   0  0  0  0  0  0  0  0  0  0  0  0
   48.6977   11.4148   14.3582 O   0  0  0  0  0  0  0  0  0  0  0  0
   49.1688   10.3018   14.5528 C   0  0  0  0  0  0  0  0  0  0  0  0
   49.1022    9.6257   15.7522 N   0  0  0  0  0  0  0  0  0  0  0  0
   50.1607   10.3006   12.2501 C   0  0  0  0  0  0  0  0  0  0  0  0
   49.8579   11.5981   12.1065 F   0  0  0  0  0  0  0  0  0  0  0  0
   50.7910    9.6757   11.1752 C   0  0  0  0  0  0  0  0  0  0  0  0
   48.5855    9.1110   17.9283 N   0  0  0  0  0  0  0  0  0  0  0  0
   48.0376    9.4246   19.1297 C   0  0  0  0  0  0  0  0  0  0  0  0
   48.5201   10.0438   16.9519 C   0  0  0  0  0  0  0  0  0  0  0  0
   47.9342   11.2871   17.1441 C   0  0  0  0  0  0  0  0  0  0  0  0
   47.3804   11.5896   18.3854 C   0  0  0  0  0  0  0  0  0  0  0  0
   47.4325   10.6443   19.4005 C   0  0  0  0  0  0  0  0  0  0  0  0
   48.0918    8.3812   20.1999 C   0  0  0  0  0  0  0  0  0  0  0  0
   48.7181    7.0304   19.8599 C   0  0  0  0  0  0  0  0  0  0  0  0
   48.1248    5.9187   20.7348 C   0  0  0  0  0  0  0  0  0  0  0  0
   48.8338    4.5853   20.4890 C   0  0  0  0  0  0  0  0  0  0  0  0
   50.2914    4.6515   20.6498 N   0  0  0  0  0  0  0  0  0  0  0  0
   50.8764    5.7193   19.8348 C   0  0  0  0  0  0  0  0  0  0  0  0
   50.2371    7.0927   20.0478 C   0  0  0  0  0  0  0  0  0  0  0  0
   47.6503    8.6377   21.3210 O   0  0  0  0  0  0  0  0  0  0  0  0
   50.6885    4.7486   22.0524 C   0  0  0  0  0  0  0  0  0  0  0  0
   48.4986    7.1222   19.0453 O   0  0  0  0  0  0  0  0  0  0  0  0
   49.8261    7.3352   18.9829 C   0  0  0  0  0  0  0  0  0  0  0  0
   50.5993    6.5665   19.5325 O   0  0  0  0  0  0  0  0  0  0  0  0
   50.2023    8.6146   18.2856 C   0  0  0  0  0  0  0  0  0  0  0  0
   49.2888    8.9647   17.1152 C   0  0  0  0  0  0  0  0  0  0  0  0
   49.2382    7.9127   16.0428 C   0  0  0  0  0  0  0  0  0  0  0  0
   48.2986    7.7067   15.2934 O   0  0  0  0  0  0  0  0  0  0  0  0
   50.3866    7.2350   15.8882 O   0  0  0  0  0  0  0  0  0  0  0  0
   48.2088    7.1307   25.0178 H   0  0  0  0  0  0  0  0  0  0  0  0
   49.7675    7.2763   19.4467 H   0  0  0  0  0  0  0  0  0  0  0  0
   47.0094    4.6760   21.7078 H   0  0  0  0  0  0  0  0  0  0  0  0
   53.3480    8.0616   20.1772 H   0  0  0  0  0  0  0  0  0  0  0  0
   54.8247    8.7378   18.3338 H   0  0  0  0  0  0  0  0  0  0  0  0
   53.8954    8.9534   16.0314 H   0  0  0  0  0  0  0  0  0  0  0  0
   49.3978    9.0358   16.1822 H   0  0  0  0  0  0  0  0  0  0  0  0
   49.9416   10.8332   14.6202 H   0  0  0  0  0  0  0  0  0  0  0  0
   49.9949    9.7157   13.2688 H   0  0  0  0  0  0  0  0  0  0  0  0
   47.8678   10.6575   13.1101 H   0  0  0  0  0  0  0  0  0  0  0  0
   47.5952   10.6667   14.8480 H   0  0  0  0  0  0  0  0  0  0  0  0
   47.5000    6.7405   13.5740 H   0  0  0  0  0  0  0  0  0  0  0  0
   48.5920    7.7934   12.6759 H   0  0  0  0  0  0  0  0  0  0  0  0
   49.8949    6.7163   14.3899 H   0  0  0  0  0  0  0  0  0  0  0  0
   48.6740    6.9732   15.6171 H   0  0  0  0  0  0  0  0  0  0  0  0
   46.4204    9.0449   12.0360 H   0  0  0  0  0  0  0  0  0  0  0  0
   45.4789    8.0129   13.1460 H   0  0  0  0  0  0  0  0  0  0  0  0
   45.4738    9.7554   13.3661 H   0  0  0  0  0  0  0  0  0  0  0  0
   51.1528    6.5748   12.5054 H   0  0  0  0  0  0  0  0  0  0  0  0
   49.4762    8.6875   15.8240 H   0  0  0  0  0  0  0  0  0  0  0  0
   51.0125   10.2337   10.2714 H   0  0  0  0  0  0  0  0  0  0  0  0
   47.8889   12.0350   16.3609 H   0  0  0  0  0  0  0  0  0  0  0  0
   46.9084   12.5552   18.5509 H   0  0  0  0  0  0  0  0  0  0  0  0
   47.0064   10.8586   20.3759 H   0  0  0  0  0  0  0  0  0  0  0  0
   48.4816    6.7793   18.8188 H   0  0  0  0  0  0  0  0  0  0  0  0
   47.0548    5.8099   20.5187 H   0  0  0  0  0  0  0  0  0  0  0  0
   48.1930    6.1828   21.7985 H   0  0  0  0  0  0  0  0  0  0  0  0
   48.4124    3.8128   21.1479 H   0  0  0  0  0  0  0  0  0  0  0  0
   48.6137    4.2474   19.4651 H   0  0  0  0  0  0  0  0  0  0  0  0
   51.9581    5.7815   20.0079 H   0  0  0  0  0  0  0  0  0  0  0  0
   50.7625    5.4418   18.7794 H   0  0  0  0  0  0  0  0  0  0  0  0
   50.4790    7.4725   21.0488 H   0  0  0  0  0  0  0  0  0  0  0  0
   50.6756    7.8082   19.3401 H   0  0  0  0  0  0  0  0  0  0  0  0
   50.3549    5.6700   22.5387 H   0  0  0  0  0  0  0  0  0  0  0  0
   50.2864    3.9065   22.6251 H   0  0  0  0  0  0  0  0  0  0  0  0
   51.7798    4.6968   22.1471 H   0  0  0  0  0  0  0  0  0  0  0  0
   48.4157    6.2987   19.5730 H   0  0  0  0  0  0  0  0  0  0  0  0
   50.1710    9.4187   19.0316 H   0  0  0  0  0  0  0  0  0  0  0  0
   51.2385    8.5174   17.9361 H   0  0  0  0  0  0  0  0  0  0  0  0
   48.2647    9.1237   17.4696 H   0  0  0  0  0  0  0  0  0  0  0  0
   49.6271    9.8964   16.6502 H   0  0  0  0  0  0  0  0  0  0  0  0
   50.2049    6.6395   15.1319 H   0  0  0  0  0  0  0  0  0  0  0  0
  1  2  1  0
  1 12  2  0
  3  1  1  0
  3  4  2  0
  4  6  1  0
  5  4  1  0
  7  8  2  0
  8  9  1  0
  8  6  1  0
  9 15  1  0
 10 11  1  0
 10  6  2  0
 12 10  1  0
 13 14  2  0
 14 18  1  0
 15 13  1  0
 15 16  2  0
 16 17  1  0
 18 17  2  0
 19 14  1  0
 19 20  1  0
 20 21  1  0
 21 22  1  0
 22 23  1  0
 23 24  1  0
 23 27  1  0
 24 25  1  0
 25 20  1  0
 26 19  2  0
 28 29  1  0
 28 39  2  0
 30 28  1  0
 30 31  2  0
 31 33  1  0
 32 31  1  0
 34 35  2  0
 35 36  1  0
 35 33  1  0
 36 42  1  0
 37 38  1  0
 37 33  2  0
 39 37  1  0
 40 41  2  0
 41 45  1  0
 42 40  1  0
 42 43  2  0
 43 44  1  0
 45 44  2  0
 46 41  1  0
 46 47  1  0
 47 48  1  0
 48 49  1  0
 49 50  1  0
 50 51  1  0
 50 54  1  0
 51 52  1  0
 52 47  1  0
 53 46  2  0
 55 56  1  0
 56 57  2  0
 56 58  1  0
 58 59  1  0
 59 60  1  0
 60 61  2  0
 60 62  1  0
  3 63  1  0
  9 64  1  0
 12 65  1  0
 16 66  1  0
 17 67  1  0
 18 68  1  0
 20 69  1  0
 21 70  1  0
 21 71  1  0
 22 72  1  0
 22 73  1  0
 24 74  1  0
 24 75  1  0
 25 76  1  0
 25 77  1  0
 27 78  1  0
 27 79  1  0
 27 80  1  0
 30 81  1  0
 36 82  1  0
 39 83  1  0
 43 84  1  0
 44 85  1  0
 45 86  1  0
 47 87  1  0
 48 88  1  0
 48 89  1  0
 49 90  1  0
 49 91  1  0
 51 92  1  0
 51 93  1  0
 52 94  1  0
 52 95  1  0
 54 96  1  0
 54 97  1  0
 54 98  1  0
 55 99  1  0
 58100  1  0
 58101  1  0
 59102  1  0
 59103  1  0
 62104  1  0
M  END
> <Uni-Dock RESULT> 
ENERGY=   -4.567  LOWER_BOUND=    2.772  UPPER_BOUND=    5.191
INTER + INTRA:          -4.567
INTER:                  -4.567
INTRA:                   0.000
UNBOUND:                 0.000

$$$$

     RDKit          3D

104107  0  0  0  0  0  0  0  0999 V2000
   52.0411    5.6770   20.3881 C   0  0  0  0  0  0  0  0  0  0  0  0
   52.8258    5.8192   21.4627 F   0  0  0  0  0  0  0  0  0  0  0  0
   52.0670    4.4862   19.6716 C   0  0  0  0  0  0  0  0  0  0  0  0
   51.2434    4.3434   18.5557 C   0  0  0  0  0  0  0  0  0  0  0  0
   51.3232    3.1997   17.8627 F   0  0  0  0  0  0  0  0  0  0  0  0
   50.3978    5.3795   18.1481 C   0  0  0  0  0  0  0  0  0  0  0  0
   49.0200    4.0828   16.7941 O   0  0  0  0  0  0  0  0  0  0  0  0
   49.5109    5.1898   16.9765 C   0  0  0  0  0  0  0  0  0  0  0  0
   49.3265    6.3007   16.1824 N   0  0  0  0  0  0  0  0  0  0  0  0
   50.3959    6.5665   18.8868 C   0  0  0  0  0  0  0  0  0  0  0  0
   49.6007    7.5878   18.5374 F   0  0  0  0  0  0  0  0  0  0  0  0
   51.2112    6.7227   20.0062 C   0  0  0  0  0  0  0  0  0  0  0  0
   48.5997    7.6500   14.4767 N   0  0  0  0  0  0  0  0  0  0  0  0
   47.8427    7.8672   13.3711 C   0  0  0  0  0  0  0  0  0  0  0  0
   48.5374    6.4250   15.0367 C   0  0  0  0  0  0  0  0  0  0  0  0
   47.7505    5.4053   14.5205 C   0  0  0  0  0  0  0  0  0  0  0  0
   46.9724    5.6556   13.3929 C   0  0  0  0  0  0  0  0  0  0  0  0
   47.0115    6.9124   12.8080 C   0  0  0  0  0  0  0  0  0  0  0  0
   47.9393    9.2068   12.7337 C   0  0  0  0  0  0  0  0  0  0  0  0
   49.1555   10.0666   13.0492 C   0  0  0  0  0  0  0  0  0  0  0  0
   49.7005   10.6650   11.7510 C   0  0  0  0  0  0  0  0  0  0  0  0
   50.8767   11.6064   12.0199 C   0  0  0  0  0  0  0  0  0  0  0  0
   50.7357   12.4116   13.2420 N   0  0  0  0  0  0  0  0  0  0  0  0
   49.3470   12.5411   13.6780 C   0  0  0  0  0  0  0  0  0  0  0  0
   48.7881   11.1650   14.0582 C   0  0  0  0  0  0  0  0  0  0  0  0
   47.0484    9.5843   11.9711 O   0  0  0  0  0  0  0  0  0  0  0  0
   51.3783   13.7177   13.0825 C   0  0  0  0  0  0  0  0  0  0  0  0
   46.6182   12.5539   10.8750 C   0  0  0  0  0  0  0  0  0  0  0  0
   45.4782   13.2014   10.6070 F   0  0  0  0  0  0  0  0  0  0  0  0
   46.8056   11.9935   12.1283 C   0  0  0  0  0  0  0  0  0  0  0  0
   47.9975   11.3260   12.4023 C   0  0  0  0  0  0  0  0  0  0  0  0
   48.1418   10.8018   13.6293 F   0  0  0  0  0  0  0  0  0  0  0  0
   49.0046   11.1960   11.4394 C   0  0  0  0  0  0  0  0  0  0  0  0
   51.2038   10.5841   10.9021 O   0  0  0  0  0  0  0  0  0  0  0  0
   50.2924   10.4917   11.7140 C   0  0  0  0  0  0  0  0  0  0  0  0
   50.3653    9.7765   12.8902 N   0  0  0  0  0  0  0  0  0  0  0  0
   48.7729   11.7643   10.1784 C   0  0  0  0  0  0  0  0  0  0  0  0
   49.6744   11.6719    9.1911 F   0  0  0  0  0  0  0  0  0  0  0  0
   47.5906   12.4455    9.8933 C   0  0  0  0  0  0  0  0  0  0  0  0
   51.1941    8.4917   14.6017 N   0  0  0  0  0  0  0  0  0  0  0  0
   52.1830    7.7549   15.1683 C   0  0  0  0  0  0  0  0  0  0  0  0
   51.4376    9.0299   13.3857 C   0  0  0  0  0  0  0  0  0  0  0  0
   52.6366    8.8430   12.7122 C   0  0  0  0  0  0  0  0  0  0  0  0
   53.6370    8.0812   13.3102 C   0  0  0  0  0  0  0  0  0  0  0  0
   53.4096    7.5233   14.5607 C   0  0  0  0  0  0  0  0  0  0  0  0
   51.9180    7.1806   16.5236 C   0  0  0  0  0  0  0  0  0  0  0  0
   50.5800    7.4925   17.1906 C   0  0  0  0  0  0  0  0  0  0  0  0
   50.7082    7.4450   18.7185 C   0  0  0  0  0  0  0  0  0  0  0  0
   49.3476    7.6327   19.3928 C   0  0  0  0  0  0  0  0  0  0  0  0
   48.3217    6.6915   18.9274 N   0  0  0  0  0  0  0  0  0  0  0  0
   48.1952    6.7090   17.4679 C   0  0  0  0  0  0  0  0  0  0  0  0
   49.5138    6.4976   16.7216 C   0  0  0  0  0  0  0  0  0  0  0  0
   52.7674    6.4652   17.0568 O   0  0  0  0  0  0  0  0  0  0  0  0
   48.5341    5.3423   19.4459 C   0  0  0  0  0  0  0  0  0  0  0  0
   50.5299    8.2278   16.7697 O   0  0  0  0  0  0  0  0  0  0  0  0
   49.6111    7.4914   16.1178 C   0  0  0  0  0  0  0  0  0  0  0  0
   48.7758    6.8562   16.7419 O   0  0  0  0  0  0  0  0  0  0  0  0
   49.8003    7.4697   14.6250 C   0  0  0  0  0  0  0  0  0  0  0  0
   50.3068    8.7901   14.0534 C   0  0  0  0  0  0  0  0  0  0  0  0
   49.4104    9.9630   14.3361 C   0  0  0  0  0  0  0  0  0  0  0  0
   49.7684   11.1250   14.4277 O   0  0  0  0  0  0  0  0  0  0  0  0
   48.1059    9.6517   14.3946 O   0  0  0  0  0  0  0  0  0  0  0  0
   52.7266    3.6794   19.9699 H   0  0  0  0  0  0  0  0  0  0  0  0
   49.7764    7.1749   16.4252 H   0  0  0  0  0  0  0  0  0  0  0  0
   51.1961    7.6426   20.5781 H   0  0  0  0  0  0  0  0  0  0  0  0
   47.7111    4.4207   14.9695 H   0  0  0  0  0  0  0  0  0  0  0  0
   46.3465    4.8733   12.9772 H   0  0  0  0  0  0  0  0  0  0  0  0
   46.4174    7.1324   11.9272 H   0  0  0  0  0  0  0  0  0  0  0  0
   49.9548    9.4451   13.4750 H   0  0  0  0  0  0  0  0  0  0  0  0
   50.0167    9.8649   11.0695 H   0  0  0  0  0  0  0  0  0  0  0  0
   48.9126   11.2196   11.2229 H   0  0  0  0  0  0  0  0  0  0  0  0
   51.0087   12.2365   11.1284 H   0  0  0  0  0  0  0  0  0  0  0  0
   51.7958   11.0138   12.1186 H   0  0  0  0  0  0  0  0  0  0  0  0
   49.2785   13.1913   14.5618 H   0  0  0  0  0  0  0  0  0  0  0  0
   48.7284   13.0017   12.8977 H   0  0  0  0  0  0  0  0  0  0  0  0
   47.7013   11.2484   14.1886 H   0  0  0  0  0  0  0  0  0  0  0  0
   49.1826   10.8748   15.0424 H   0  0  0  0  0  0  0  0  0  0  0  0
   50.8709   14.3335   12.3255 H   0  0  0  0  0  0  0  0  0  0  0  0
   51.3874   14.2680   14.0322 H   0  0  0  0  0  0  0  0  0  0  0  0
   52.4269   13.5994   12.7842 H   0  0  0  0  0  0  0  0  0  0  0  0
   46.0387   12.0865   12.8897 H   0  0  0  0  0  0  0  0  0  0  0  0
   49.5842    9.7840   13.5344 H   0  0  0  0  0  0  0  0  0  0  0  0
   47.4313   12.8769    8.9106 H   0  0  0  0  0  0  0  0  0  0  0  0
   52.8262    9.2709   11.7346 H   0  0  0  0  0  0  0  0  0  0  0  0
   54.5865    7.9325   12.8013 H   0  0  0  0  0  0  0  0  0  0  0  0
   54.1759    6.9264   15.0458 H   0  0  0  0  0  0  0  0  0  0  0  0
   50.2788    8.5135   16.9260 H   0  0  0  0  0  0  0  0  0  0  0  0
   51.3957    8.2304   19.0562 H   0  0  0  0  0  0  0  0  0  0  0  0
   51.1529    6.4945   19.0421 H   0  0  0  0  0  0  0  0  0  0  0  0
   49.4605    7.5646   20.4841 H   0  0  0  0  0  0  0  0  0  0  0  0
   48.9916    8.6559   19.1995 H   0  0  0  0  0  0  0  0  0  0  0  0
   47.4588    5.9644   17.1404 H   0  0  0  0  0  0  0  0  0  0  0  0
   47.7809    7.6817   17.1748 H   0  0  0  0  0  0  0  0  0  0  0  0
   49.8688    5.4686   16.8626 H   0  0  0  0  0  0  0  0  0  0  0  0
   49.3402    6.6112   15.6436 H   0  0  0  0  0  0  0  0  0  0  0  0
   49.4590    4.8780   19.0914 H   0  0  0  0  0  0  0  0  0  0  0  0
   48.5654    5.3513   20.5404 H   0  0  0  0  0  0  0  0  0  0  0  0
   47.7015    4.6868   19.1636 H   0  0  0  0  0  0  0  0  0  0  0  0
   50.3123    8.0927   17.7173 H   0  0  0  0  0  0  0  0  0  0  0  0
   50.5147    6.6694   14.3943 H   0  0  0  0  0  0  0  0  0  0  0  0
   48.8382    7.2071   14.1658 H   0  0  0  0  0  0  0  0  0  0  0  0
   51.2954    9.0246   14.4625 H   0  0  0  0  0  0  0  0  0  0  0  0
   50.4094    8.7054   12.9666 H   0  0  0  0  0  0  0  0  0  0  0  0
   47.6664   10.5167   14.5291 H   0  0  0  0  0  0  0  0  0  0  0  0
  1  2  1  0
  1 12  2  0
  3  1  1  0
  3  4  2  0
  4  6  1  0
  5  4  1  0
  7  8  2  0
  8  9  1  0
  8  6  1  0
  9 15  1  0
 10 11  1  0
 10  6  2  0
 12 10  1  0
 13 14  2  0
 14 18  1  0
 15 13  1  0
 15 16  2  0
 16 17  1  0
 18 17  2  0
 19 14  1  0
 19 20  1  0
 20 21  1  0
 21 22  1  0
 22 23  1  0
 23 24  1  0
 23 27  1  0
 24 25  1  0
 25 20  1  0
 26 19  2  0
 28 29  1  0
 28 39  2  0
 30 28  1  0
 30 31  2  0
 31 33  1  0
 32 31  1  0
 34 35  2  0
 35 36  1  0
 35 33  1  0
 36 42  1  0
 37 38  1  0
 37 33  2  0
 39 37  1  0
 40 41  2  0
 41 45  1  0
 42 40  1  0
 42 43  2  0
 43 44  1  0
 45 44  2  0
 46 41  1  0
 46 47  1  0
 47 48  1  0
 48 49  1  0
 49 50  1  0
 50 51  1  0
 50 54  1  0
 51 52  1  0
 52 47  1  0
 53 46  2  0
 55 56  1  0
 56 57  2  0
 56 58  1  0
 58 59  1  0
 59 60  1  0
 60 61  2  0
 60 62  1  0
  3 63  1  0
  9 64  1  0
 12 65  1  0
 16 66  1  0
 17 67  1  0
 18 68  1  0
 20 69  1  0
 21 70  1  0
 21 71  1  0
 22 72  1  0
 22 73  1  0
 24 74  1  0
 24 75  1  0
 25 76  1  0
 25 77  1  0
 27 78  1  0
 27 79  1  0
 27 80  1  0
 30 81  1  0
 36 82  1  0
 39 83  1  0
 43 84  1  0
 44 85  1  0
 45 86  1  0
 47 87  1  0
 48 88  1  0
 48 89  1  0
 49 90  1  0
 49 91  1  0
 51 92  1  0
 51 93  1  0
 52 94  1  0
 52 95  1  0
 54 96  1  0
 54 97  1  0
 54 98  1  0
 55 99  1  0
 58100  1  0
 58101  1  0
 59102  1  0
 59103  1  0
 62104  1  0
M  END
> <Uni-Dock RESULT> 
ENERGY=   -4.564  LOWER_BOUND=    2.634  UPPER_BOUND=    4.447
INTER + INTRA:          -4.564
INTER:                  -4.564
INTRA:                   0.000
UNBOUND:                 0.000

$$$$

     RDKit          3D

104107  0  0  0  0  0  0  0  0999 V2000
   51.9538   14.4023   11.8186 C   0  0  0  0  0  0  0  0  0  0  0  0
   52.8039   15.4356   11.8356 F   0  0  0  0  0  0  0  0  0  0  0  0
   50.6531   14.5906   11.3658 C   0  0  0  0  0  0  0  0  0  0  0  0
   49.7741   13.5084   11.3466 C   0  0  0  0  0  0  0  0  0  0  0  0
   48.5160   13.7327   10.9446 F   0  0  0  0  0  0  0  0  0  0  0  0
   50.1816   12.2426   11.7780 C   0  0  0  0  0  0  0  0  0  0  0  0
   48.4506   11.0503   10.7803 O   0  0  0  0  0  0  0  0  0  0  0  0
   49.2360   11.1034   11.7184 C   0  0  0  0  0  0  0  0  0  0  0  0
   49.3282   10.1975   12.7526 N   0  0  0  0  0  0  0  0  0  0  0  0
   51.4948   12.0847   12.2308 C   0  0  0  0  0  0  0  0  0  0  0  0
   51.9337   10.8900   12.6522 F   0  0  0  0  0  0  0  0  0  0  0  0
   52.3857   13.1562   12.2529 C   0  0  0  0  0  0  0  0  0  0  0  0
   48.9114    8.3782   14.0849 N   0  0  0  0  0  0  0  0  0  0  0  0
   48.2584    7.2165   14.3425 C   0  0  0  0  0  0  0  0  0  0  0  0
   48.5892    9.0286   12.9484 C   0  0  0  0  0  0  0  0  0  0  0  0
   47.6265    8.5605   12.0655 C   0  0  0  0  0  0  0  0  0  0  0  0
   46.9791    7.3595   12.3446 C   0  0  0  0  0  0  0  0  0  0  0  0
   47.3038    6.6676   13.5017 C   0  0  0  0  0  0  0  0  0  0  0  0
   48.5886    6.5186   15.6130 C   0  0  0  0  0  0  0  0  0  0  0  0
   49.2558    7.3214   16.7213 C   0  0  0  0  0  0  0  0  0  0  0  0
   48.5694    7.0104   18.0526 C   0  0  0  0  0  0  0  0  0  0  0  0
   49.2548    7.7295   19.2166 C   0  0  0  0  0  0  0  0  0  0  0  0
   50.7188    7.8016   19.1009 N   0  0  0  0  0  0  0  0  0  0  0  0
   51.2676    6.7814   18.2100 C   0  0  0  0  0  0  0  0  0  0  0  0
   50.7580    7.0059   16.7816 C   0  0  0  0  0  0  0  0  0  0  0  0
   48.3144    5.3244   15.7412 O   0  0  0  0  0  0  0  0  0  0  0  0
   51.3485    7.7636   20.4224 C   0  0  0  0  0  0  0  0  0  0  0  0
   49.3525    3.3741   18.0485 C   0  0  0  0  0  0  0  0  0  0  0  0
   49.6539    2.0719   17.9853 F   0  0  0  0  0  0  0  0  0  0  0  0
   49.9597    4.2578   17.1706 C   0  0  0  0  0  0  0  0  0  0  0  0
   49.6457    5.6131   17.2461 C   0  0  0  0  0  0  0  0  0  0  0  0
   50.2588    6.4364   16.3816 F   0  0  0  0  0  0  0  0  0  0  0  0
   48.7229    6.1025   18.1773 C   0  0  0  0  0  0  0  0  0  0  0  0
   47.7193    7.9378   19.2378 O   0  0  0  0  0  0  0  0  0  0  0  0
   48.3774    7.5516   18.2806 C   0  0  0  0  0  0  0  0  0  0  0  0
   48.8389    8.3688   17.2709 N   0  0  0  0  0  0  0  0  0  0  0  0
   48.1188    5.1760   19.0397 C   0  0  0  0  0  0  0  0  0  0  0  0
   47.2104    5.5536   19.9496 F   0  0  0  0  0  0  0  0  0  0  0  0
   48.4318    3.8188   18.9842 C   0  0  0  0  0  0  0  0  0  0  0  0
   49.2909   10.2499   16.0363 N   0  0  0  0  0  0  0  0  0  0  0  0
   49.1799   11.5837   15.8118 C   0  0  0  0  0  0  0  0  0  0  0  0
   48.6588    9.7464   17.1201 C   0  0  0  0  0  0  0  0  0  0  0  0
   47.9075   10.5347   17.9803 C   0  0  0  0  0  0  0  0  0  0  0  0
   47.8043   11.9006   17.7302 C   0  0  0  0  0  0  0  0  0  0  0  0
   48.4494   12.4390   16.6255 C   0  0  0  0  0  0  0  0  0  0  0  0
   49.8997   12.1403   14.6247 C   0  0  0  0  0  0  0  0  0  0  0  0
   50.7368   11.1860   13.7756 C   0  0  0  0  0  0  0  0  0  0  0  0
   51.8822   11.9350   13.0824 C   0  0  0  0  0  0  0  0  0  0  0  0
   52.6496   11.0130   12.1326 C   0  0  0  0  0  0  0  0  0  0  0  0
   51.7976   10.3377   11.1462 N   0  0  0  0  0  0  0  0  0  0  0  0
   50.6865    9.6298   11.7873 C   0  0  0  0  0  0  0  0  0  0  0  0
   49.8523   10.4967   12.7321 C   0  0  0  0  0  0  0  0  0  0  0  0
   49.7892   13.3368   14.3536 O   0  0  0  0  0  0  0  0  0  0  0  0
   51.3402   11.2463   10.0976 C   0  0  0  0  0  0  0  0  0  0  0  0
   50.8725   10.6887   14.4498 O   0  0  0  0  0  0  0  0  0  0  0  0
   49.9931    9.9467   13.7515 C   0  0  0  0  0  0  0  0  0  0  0  0
   50.1601    9.7563   12.5572 O   0  0  0  0  0  0  0  0  0  0  0  0
   48.8023    9.5013   14.5568 C   0  0  0  0  0  0  0  0  0  0  0  0
   49.1335    9.1767   16.0100 C   0  0  0  0  0  0  0  0  0  0  0  0
   50.1672    8.0982   16.1756 C   0  0  0  0  0  0  0  0  0  0  0  0
   50.9288    7.9831   17.1210 O   0  0  0  0  0  0  0  0  0  0  0  0
   50.1403    7.1636   15.2124 O   0  0  0  0  0  0  0  0  0  0  0  0
   50.3208   15.5694   11.0397 H   0  0  0  0  0  0  0  0  0  0  0  0
   50.0194   10.3312   13.4806 H   0  0  0  0  0  0  0  0  0  0  0  0
   53.4043   13.0223   12.5965 H   0  0  0  0  0  0  0  0  0  0  0  0
   47.3657    9.0916   11.1586 H   0  0  0  0  0  0  0  0  0  0  0  0
   46.2272    6.9740   11.6643 H   0  0  0  0  0  0  0  0  0  0  0  0
   46.8121    5.7313   13.7439 H   0  0  0  0  0  0  0  0  0  0  0  0
   49.1250    8.3964   16.5377 H   0  0  0  0  0  0  0  0  0  0  0  0
   47.5121    7.3022   18.0100 H   0  0  0  0  0  0  0  0  0  0  0  0
   48.5779    5.9289   18.2461 H   0  0  0  0  0  0  0  0  0  0  0  0
   48.9426    7.2310   20.1456 H   0  0  0  0  0  0  0  0  0  0  0  0
   48.8768    8.7586   19.2757 H   0  0  0  0  0  0  0  0  0  0  0  0
   52.3654    6.8350   18.1912 H   0  0  0  0  0  0  0  0  0  0  0  0
   51.0060    5.7731   18.5543 H   0  0  0  0  0  0  0  0  0  0  0  0
   51.0125    6.1283   16.1733 H   0  0  0  0  0  0  0  0  0  0  0  0
   51.3050    7.8465   16.3314 H   0  0  0  0  0  0  0  0  0  0  0  0
   51.1913    6.7968   20.9227 H   0  0  0  0  0  0  0  0  0  0  0  0
   52.4281    7.9468   20.3469 H   0  0  0  0  0  0  0  0  0  0  0  0
   50.9454    8.5544   21.0661 H   0  0  0  0  0  0  0  0  0  0  0  0
   50.6804    3.8989   16.4440 H   0  0  0  0  0  0  0  0  0  0  0  0
   49.4168    7.9834   16.5343 H   0  0  0  0  0  0  0  0  0  0  0  0
   47.9520    3.1188   19.6602 H   0  0  0  0  0  0  0  0  0  0  0  0
   47.3969   10.1267   18.8450 H   0  0  0  0  0  0  0  0  0  0  0  0
   47.2279   12.5352   18.3993 H   0  0  0  0  0  0  0  0  0  0  0  0
   48.3831   13.5015   16.4117 H   0  0  0  0  0  0  0  0  0  0  0  0
   51.1953   10.4346   14.4301 H   0  0  0  0  0  0  0  0  0  0  0  0
   52.5695   12.3383   13.8363 H   0  0  0  0  0  0  0  0  0  0  0  0
   51.5001   12.8019   12.5272 H   0  0  0  0  0  0  0  0  0  0  0  0
   53.4444   11.5788   11.6261 H   0  0  0  0  0  0  0  0  0  0  0  0
   53.1700   10.2445   12.7240 H   0  0  0  0  0  0  0  0  0  0  0  0
   50.0371    9.1744   11.0291 H   0  0  0  0  0  0  0  0  0  0  0  0
   51.1033    8.7918   12.3598 H   0  0  0  0  0  0  0  0  0  0  0  0
   49.2878   11.2452   12.1611 H   0  0  0  0  0  0  0  0  0  0  0  0
   49.1018    9.8687   13.2295 H   0  0  0  0  0  0  0  0  0  0  0  0
   50.6895   12.0455   10.4643 H   0  0  0  0  0  0  0  0  0  0  0  0
   52.1932   11.7160    9.5967 H   0  0  0  0  0  0  0  0  0  0  0  0
   50.7903   10.6954    9.3251 H   0  0  0  0  0  0  0  0  0  0  0  0
   51.5447   10.9483   13.7833 H   0  0  0  0  0  0  0  0  0  0  0  0
   48.0582   10.3068   14.5188 H   0  0  0  0  0  0  0  0  0  0  0  0
   48.3718    8.6194   14.0646 H   0  0  0  0  0  0  0  0  0  0  0  0
   49.5052   10.0710   16.5217 H   0  0  0  0  0  0  0  0  0  0  0  0
   48.2270    8.8500   16.5298 H   0  0  0  0  0  0  0  0  0  0  0  0
   50.8245    6.5211   15.4929 H   0  0  0  0  0  0  0  0  0  0  0  0
  1  2  1  0
  1 12  2  0
  3  1  1  0
  3  4  2  0
  4  6  1  0
  5  4  1  0
  7  8  2  0
  8  9  1  0
  8  6  1  0
  9 15  1  0
 10 11  1  0
 10  6  2  0
 12 10  1  0
 13 14  2  0
 14 18  1  0
 15 13  1  0
 15 16  2  0
 16 17  1  0
 18 17  2  0
 19 14  1  0
 19 20  1  0
 20 21  1  0
 21 22  1  0
 22 23  1  0
 23 24  1  0
 23 27  1  0
 24 25  1  0
 25 20  1  0
 26 19  2  0
 28 29  1  0
 28 39  2  0
 30 28  1  0
 30 31  2  0
 31 33  1  0
 32 31  1  0
 34 35  2  0
 35 36  1  0
 35 33  1  0
 36 42  1  0
 37 38  1  0
 37 33  2  0
 39 37  1  0
 40 41  2  0
 41 45  1  0
 42 40  1  0
 42 43  2  0
 43 44  1  0
 45 44  2  0
 46 41  1  0
 46 47  1  0
 47 48  1  0
 48 49  1  0
 49 50  1  0
 50 51  1  0
 50 54  1  0
 51 52  1  0
 52 47  1  0
 53 46  2  0
 55 56  1  0
 56 57  2  0
 56 58  1  0
 58 59  1  0
 59 60  1  0
 60 61  2  0
 60 62  1  0
  3 63  1  0
  9 64  1  0
 12 65  1  0
 16 66  1  0
 17 67  1  0
 18 68  1  0
 20 69  1  0
 21 70  1  0
 21 71  1  0
 22 72  1  0
 22 73  1  0
 24 74  1  0
 24 75  1  0
 25 76  1  0
 25 77  1  0
 27 78  1  0
 27 79  1  0
 27 80  1  0
 30 81  1  0
 36 82  1  0
 39 83  1  0
 43 84  1  0
 44 85  1  0
 45 86  1  0
 47 87  1  0
 48 88  1  0
 48 89  1  0
 49 90  1  0
 49 91  1  0
 51 92  1  0
 51 93  1  0
 52 94  1  0
 52 95  1  0
 54 96  1  0
 54 97  1  0
 54 98  1  0
 55 99  1  0
 58100  1  0
 58101  1  0
 59102  1  0
 59103  1  0
 62104  1  0
M  END
> <Uni-Dock RESULT> 
ENERGY=   -4.529  LOWER_BOUND=    1.987  UPPER_BOUND=    8.100
INTER + INTRA:          -4.529
INTER:                  -4.529
INTRA:                   0.000
UNBOUND:                 0.000

$$$$

     RDKit          3D

104107  0  0  0  0  0  0  0  0999 V2000
   53.0634    9.8374    9.8780 C   0  0  0  0  0  0  0  0  0  0  0  0
   53.2974    9.4601    8.6156 F   0  0  0  0  0  0  0  0  0  0  0  0
   53.9259   10.7341   10.4978 C   0  0  0  0  0  0  0  0  0  0  0  0
   53.6735   11.1262   11.8118 C   0  0  0  0  0  0  0  0  0  0  0  0
   54.5470   11.9585   12.3940 F   0  0  0  0  0  0  0  0  0  0  0  0
   52.5704   10.6286   12.5119 C   0  0  0  0  0  0  0  0  0  0  0  0
   52.5595   12.2501   14.1804 O   0  0  0  0  0  0  0  0  0  0  0  0
   52.3088   11.0854   13.8969 C   0  0  0  0  0  0  0  0  0  0  0  0
   51.8051   10.1314   14.7541 N   0  0  0  0  0  0  0  0  0  0  0  0
   51.7226    9.7258   11.8633 C   0  0  0  0  0  0  0  0  0  0  0  0
   50.6504    9.2227   12.4916 F   0  0  0  0  0  0  0  0  0  0  0  0
   51.9602    9.3270   10.5493 C   0  0  0  0  0  0  0  0  0  0  0  0
   51.0104    9.1300   16.6578 N   0  0  0  0  0  0  0  0  0  0  0  0
   50.6169    9.1846   17.9558 C   0  0  0  0  0  0  0  0  0  0  0  0
   51.4471   10.2756   16.0964 C   0  0  0  0  0  0  0  0  0  0  0  0
   51.5136   11.4731   16.7943 C   0  0  0  0  0  0  0  0  0  0  0  0
   51.0922   11.5075   18.1212 C   0  0  0  0  0  0  0  0  0  0  0  0
   50.6275   10.3435   18.7149 C   0  0  0  0  0  0  0  0  0  0  0  0
   50.1693    7.9138   18.5842 C   0  0  0  0  0  0  0  0  0  0  0  0
   50.5878    6.6033   17.9320 C   0  0  0  0  0  0  0  0  0  0  0  0
   51.0838    5.6388   19.0110 C   0  0  0  0  0  0  0  0  0  0  0  0
   51.4408    4.2735   18.4192 C   0  0  0  0  0  0  0  0  0  0  0  0
   50.5434    3.8315   17.3416 N   0  0  0  0  0  0  0  0  0  0  0  0
   49.2424    4.4962   17.3795 C   0  0  0  0  0  0  0  0  0  0  0  0
   49.4171    6.0006   17.1410 C   0  0  0  0  0  0  0  0  0  0  0  0
   49.4837    7.9484   19.6072 O   0  0  0  0  0  0  0  0  0  0  0  0
   50.4079    2.3735   17.3414 C   0  0  0  0  0  0  0  0  0  0  0  0
   47.8863    5.5064   20.9071 C   0  0  0  0  0  0  0  0  0  0  0  0
   46.7145    5.5083   21.5531 F   0  0  0  0  0  0  0  0  0  0  0  0
   47.9658    6.0556   19.6374 C   0  0  0  0  0  0  0  0  0  0  0  0
   49.1878    6.0448   18.9681 C   0  0  0  0  0  0  0  0  0  0  0  0
   49.2215    6.5819   17.7387 F   0  0  0  0  0  0  0  0  0  0  0  0
   50.3397    5.5049   19.5512 C   0  0  0  0  0  0  0  0  0  0  0  0
   52.5709    4.8177   19.3293 O   0  0  0  0  0  0  0  0  0  0  0  0
   51.6573    5.4759   18.8491 C   0  0  0  0  0  0  0  0  0  0  0  0
   51.7505    6.2045   17.6827 N   0  0  0  0  0  0  0  0  0  0  0  0
   50.2231    4.9707   20.8427 C   0  0  0  0  0  0  0  0  0  0  0  0
   51.2782    4.4500   21.4842 F   0  0  0  0  0  0  0  0  0  0  0  0
   49.0047    4.9635   21.5199 C   0  0  0  0  0  0  0  0  0  0  0  0
   52.5904    7.0996   15.7434 N   0  0  0  0  0  0  0  0  0  0  0  0
   53.6020    7.2918   14.8595 C   0  0  0  0  0  0  0  0  0  0  0  0
   52.8545    6.3525   16.8388 C   0  0  0  0  0  0  0  0  0  0  0  0
   54.1044    5.8016   17.0841 C   0  0  0  0  0  0  0  0  0  0  0  0
   55.1293    6.0135   16.1656 C   0  0  0  0  0  0  0  0  0  0  0  0
   54.8784    6.7736   15.0317 C   0  0  0  0  0  0  0  0  0  0  0  0
   53.2992    8.0997   13.6377 C   0  0  0  0  0  0  0  0  0  0  0  0
   51.8742    8.6153   13.4484 C   0  0  0  0  0  0  0  0  0  0  0  0
   51.5539    8.7985   11.9593 C   0  0  0  0  0  0  0  0  0  0  0  0
   50.1747    9.4319   11.7652 C   0  0  0  0  0  0  0  0  0  0  0  0
   49.9946   10.6929   12.4948 N   0  0  0  0  0  0  0  0  0  0  0  0
   50.3123   10.5437   13.9173 C   0  0  0  0  0  0  0  0  0  0  0  0
   51.6916    9.9420   14.1921 C   0  0  0  0  0  0  0  0  0  0  0  0
   54.1983    8.3410   12.8309 O   0  0  0  0  0  0  0  0  0  0  0  0
   50.7279   11.7966   11.8794 C   0  0  0  0  0  0  0  0  0  0  0  0
   51.5674    7.9612   13.8936 O   0  0  0  0  0  0  0  0  0  0  0  0
   51.4184    8.9682   14.7741 C   0  0  0  0  0  0  0  0  0  0  0  0
   50.9085   10.0210   14.4244 O   0  0  0  0  0  0  0  0  0  0  0  0
   52.0175    8.6852   16.1252 C   0  0  0  0  0  0  0  0  0  0  0  0
   51.8869    7.2287   16.5592 C   0  0  0  0  0  0  0  0  0  0  0  0
   50.4686    6.7358   16.6282 C   0  0  0  0  0  0  0  0  0  0  0  0
   50.1097    5.5805   16.4755 O   0  0  0  0  0  0  0  0  0  0  0  0
   49.5793    7.6786   16.9778 O   0  0  0  0  0  0  0  0  0  0  0  0
   54.7914   11.1184    9.9703 H   0  0  0  0  0  0  0  0  0  0  0  0
   51.6278    9.1930   14.4169 H   0  0  0  0  0  0  0  0  0  0  0  0
   51.2924    8.6343   10.0515 H   0  0  0  0  0  0  0  0  0  0  0  0
   51.8734   12.3882   16.3407 H   0  0  0  0  0  0  0  0  0  0  0  0
   51.1314   12.4349   18.6824 H   0  0  0  0  0  0  0  0  0  0  0  0
   50.2962   10.3426   19.7480 H   0  0  0  0  0  0  0  0  0  0  0  0
   51.4287    6.7762   17.2469 H   0  0  0  0  0  0  0  0  0  0  0  0
   51.9595    6.0602   19.5210 H   0  0  0  0  0  0  0  0  0  0  0  0
   50.3174    5.5026   19.7865 H   0  0  0  0  0  0  0  0  0  0  0  0
   51.4724    3.5503   19.2469 H   0  0  0  0  0  0  0  0  0  0  0  0
   52.4573    4.3157   18.0064 H   0  0  0  0  0  0  0  0  0  0  0  0
   48.5841    4.1018   16.5924 H   0  0  0  0  0  0  0  0  0  0  0  0
   48.7345    4.3179   18.3355 H   0  0  0  0  0  0  0  0  0  0  0  0
   48.4703    6.5070   17.3694 H   0  0  0  0  0  0  0  0  0  0  0  0
   49.5966    6.1778   16.0710 H   0  0  0  0  0  0  0  0  0  0  0  0
   49.8992    2.0099   18.2463 H   0  0  0  0  0  0  0  0  0  0  0  0
   49.8448    2.0328   16.4629 H   0  0  0  0  0  0  0  0  0  0  0  0
   51.3919    1.8933   17.2827 H   0  0  0  0  0  0  0  0  0  0  0  0
   47.0836    6.4756   19.1665 H   0  0  0  0  0  0  0  0  0  0  0  0
   50.9366    6.6882   17.3236 H   0  0  0  0  0  0  0  0  0  0  0  0
   48.9368    4.5459   22.5190 H   0  0  0  0  0  0  0  0  0  0  0  0
   54.3144    5.2083   17.9664 H   0  0  0  0  0  0  0  0  0  0  0  0
   56.1124    5.5811   16.3367 H   0  0  0  0  0  0  0  0  0  0  0  0
   55.6625    6.9509   14.3020 H   0  0  0  0  0  0  0  0  0  0  0  0
   51.1702    7.8700   13.8381 H   0  0  0  0  0  0  0  0  0  0  0  0
   51.5849    7.8260   11.4525 H   0  0  0  0  0  0  0  0  0  0  0  0
   52.3173    9.4184   11.4708 H   0  0  0  0  0  0  0  0  0  0  0  0
   49.9811    9.5807   10.6934 H   0  0  0  0  0  0  0  0  0  0  0  0
   49.4051    8.7227   12.1051 H   0  0  0  0  0  0  0  0  0  0  0  0
   50.2176   11.5081   14.4319 H   0  0  0  0  0  0  0  0  0  0  0  0
   49.5523    9.8935   14.3682 H   0  0  0  0  0  0  0  0  0  0  0  0
   52.4788   10.6497   13.9017 H   0  0  0  0  0  0  0  0  0  0  0  0
   51.8090    9.7878   15.2726 H   0  0  0  0  0  0  0  0  0  0  0  0
   51.8138   11.6652   11.8990 H   0  0  0  0  0  0  0  0  0  0  0  0
   50.4275   11.9225   10.8340 H   0  0  0  0  0  0  0  0  0  0  0  0
   50.4964   12.7413   12.3859 H   0  0  0  0  0  0  0  0  0  0  0  0
   51.1885    8.3170   13.0609 H   0  0  0  0  0  0  0  0  0  0  0  0
   53.0780    8.9634   16.0809 H   0  0  0  0  0  0  0  0  0  0  0  0
   51.5262    9.3398   16.8570 H   0  0  0  0  0  0  0  0  0  0  0  0
   52.4288    6.5774   15.8651 H   0  0  0  0  0  0  0  0  0  0  0  0
   52.3317    7.0990   17.5512 H   0  0  0  0  0  0  0  0  0  0  0  0
   48.7312    7.1910   17.0276 H   0  0  0  0  0  0  0  0  0  0  0  0
  1  2  1  0
  1 12  2  0
  3  1  1  0
  3  4  2  0
  4  6  1  0
  5  4  1  0
  7  8  2  0
  8  9  1  0
  8  6  1  0
  9 15  1  0
 10 11  1  0
 10  6  2  0
 12 10  1  0
 13 14  2  0
 14 18  1  0
 15 13  1  0
 15 16  2  0
 16 17  1  0
 18 17  2  0
 19 14  1  0
 19 20  1  0
 20 21  1  0
 21 22  1  0
 22 23  1  0
 23 24  1  0
 23 27  1  0
 24 25  1  0
 25 20  1  0
 26 19  2  0
 28 29  1  0
 28 39  2  0
 30 28  1  0
 30 31  2  0
 31 33  1  0
 32 31  1  0
 34 35  2  0
 35 36  1  0
 35 33  1  0
 36 42  1  0
 37 38  1  0
 37 33  2  0
 39 37  1  0
 40 41  2  0
 41 45  1  0
 42 40  1  0
 42 43  2  0
 43 44  1  0
 45 44  2  0
 46 41  1  0
 46 47  1  0
 47 48  1  0
 48 49  1  0
 49 50  1  0
 50 51  1  0
 50 54  1  0
 51 52  1  0
 52 47  1  0
 53 46  2  0
 55 56  1  0
 56 57  2  0
 56 58  1  0
 58 59  1  0
 59 60  1  0
 60 61  2  0
 60 62  1  0
  3 63  1  0
  9 64  1  0
 12 65  1  0
 16 66  1  0
 17 67  1  0
 18 68  1  0
 20 69  1  0
 21 70  1  0
 21 71  1  0
 22 72  1  0
 22 73  1  0
 24 74  1  0
 24 75  1  0
 25 76  1  0
 25 77  1  0
 27 78  1  0
 27 79  1  0
 27 80  1  0
 30 81  1  0
 36 82  1  0
 39 83  1  0
 43 84  1  0
 44 85  1  0
 45 86  1  0
 47 87  1  0
 48 88  1  0
 48 89  1  0
 49 90  1  0
 49 91  1  0
 51 92  1  0
 51 93  1  0
 52 94  1  0
 52 95  1  0
 54 96  1  0
 54 97  1  0
 54 98  1  0
 55 99  1  0
 58100  1  0
 58101  1  0
 59102  1  0
 59103  1  0
 62104  1  0
M  END
> <Uni-Dock RESULT> 
ENERGY=   -4.428  LOWER_BOUND=    3.014  UPPER_BOUND=    7.962
INTER + INTRA:          -4.428
INTER:                  -4.428
INTRA:                   0.000
UNBOUND:                 0.000

$$$$

     RDKit          3D

104107  0  0  0  0  0  0  0  0999 V2000
   42.2325   15.4238    9.8503 C   0  0  0  0  0  0  0  0  0  0  0  0
   41.8274   16.5983    9.3532 F   0  0  0  0  0  0  0  0  0  0  0  0
   41.5491   14.8588   10.9208 C   0  0  0  0  0  0  0  0  0  0  0  0
   41.9740   13.6327   11.4308 C   0  0  0  0  0  0  0  0  0  0  0  0
   41.3201   13.1361   12.4893 F   0  0  0  0  0  0  0  0  0  0  0  0
   43.0760   12.9687   10.8836 C   0  0  0  0  0  0  0  0  0  0  0  0
   42.6136   10.8818   11.8025 O   0  0  0  0  0  0  0  0  0  0  0  0
   43.4874   11.6525   11.4254 C   0  0  0  0  0  0  0  0  0  0  0  0
   44.8452   11.4207   11.4612 N   0  0  0  0  0  0  0  0  0  0  0  0
   43.7451   13.5631    9.8096 C   0  0  0  0  0  0  0  0  0  0  0  0
   44.8055   12.9642    9.2490 F   0  0  0  0  0  0  0  0  0  0  0  0
   43.3302   14.7867    9.2871 C   0  0  0  0  0  0  0  0  0  0  0  0
   46.8593   10.3860   11.8240 N   0  0  0  0  0  0  0  0  0  0  0  0
   47.5923    9.3084   12.2035 C   0  0  0  0  0  0  0  0  0  0  0  0
   45.5172   10.2759   11.8955 C   0  0  0  0  0  0  0  0  0  0  0  0
   44.8836    9.1262   12.3450 C   0  0  0  0  0  0  0  0  0  0  0  0
   45.6564    8.0287   12.7166 C   0  0  0  0  0  0  0  0  0  0  0  0
   47.0383    8.1157   12.6391 C   0  0  0  0  0  0  0  0  0  0  0  0
   49.0722    9.4432   12.1581 C   0  0  0  0  0  0  0  0  0  0  0  0
   49.6658   10.8451   12.1387 C   0  0  0  0  0  0  0  0  0  0  0  0
   50.8264   10.9151   13.1329 C   0  0  0  0  0  0  0  0  0  0  0  0
   51.5139   12.2817   13.0944 C   0  0  0  0  0  0  0  0  0  0  0  0
   51.6126   12.8679   11.7497 N   0  0  0  0  0  0  0  0  0  0  0  0
   51.5097   11.8695   10.6875 C   0  0  0  0  0  0  0  0  0  0  0  0
   50.1244   11.2132   10.7196 C   0  0  0  0  0  0  0  0  0  0  0  0
   49.7758    8.4320   12.1425 O   0  0  0  0  0  0  0  0  0  0  0  0
   52.8282   13.6740   11.6205 C   0  0  0  0  0  0  0  0  0  0  0  0
   52.8998    8.3015   11.4879 C   0  0  0  0  0  0  0  0  0  0  0  0
   53.5946    7.3464   10.8588 F   0  0  0  0  0  0  0  0  0  0  0  0
   51.7949    8.8618   10.8671 C   0  0  0  0  0  0  0  0  0  0  0  0
   51.0797    9.8600   11.5254 C   0  0  0  0  0  0  0  0  0  0  0  0
   50.0193   10.3801   10.8882 F   0  0  0  0  0  0  0  0  0  0  0  0
   51.4415   10.3018   12.8030 C   0  0  0  0  0  0  0  0  0  0  0  0
   51.1750   11.8505   14.5439 O   0  0  0  0  0  0  0  0  0  0  0  0
   50.6941   11.3753   13.5233 C   0  0  0  0  0  0  0  0  0  0  0  0
   49.4924   11.7659   12.9723 N   0  0  0  0  0  0  0  0  0  0  0  0
   52.5571    9.7015   13.4047 C   0  0  0  0  0  0  0  0  0  0  0  0
   52.9636   10.0496   14.6333 F   0  0  0  0  0  0  0  0  0  0  0  0
   53.2896    8.7102   12.7536 C   0  0  0  0  0  0  0  0  0  0  0  0
   47.5317   12.9075   12.6269 N   0  0  0  0  0  0  0  0  0  0  0  0
   46.6121   13.8356   12.9939 C   0  0  0  0  0  0  0  0  0  0  0  0
   48.5992   12.7344   13.4382 C   0  0  0  0  0  0  0  0  0  0  0  0
   48.7691   13.4527   14.6134 C   0  0  0  0  0  0  0  0  0  0  0  0
   47.8121   14.3981   14.9729 C   0  0  0  0  0  0  0  0  0  0  0  0
   46.7106   14.5953   14.1517 C   0  0  0  0  0  0  0  0  0  0  0  0
   45.4445   14.0402   12.0818 C   0  0  0  0  0  0  0  0  0  0  0  0
   45.3866   13.2275   10.7901 C   0  0  0  0  0  0  0  0  0  0  0  0
   44.5927   13.9747    9.7109 C   0  0  0  0  0  0  0  0  0  0  0  0
   44.4231   13.1156    8.4562 C   0  0  0  0  0  0  0  0  0  0  0  0
   43.8326   11.7972    8.7170 N   0  0  0  0  0  0  0  0  0  0  0  0
   44.5667   11.0733    9.7580 C   0  0  0  0  0  0  0  0  0  0  0  0
   44.7511   11.8596   11.0573 C   0  0  0  0  0  0  0  0  0  0  0  0
   44.5598   14.8374   12.3972 O   0  0  0  0  0  0  0  0  0  0  0  0
   42.4031   11.8800    9.0071 C   0  0  0  0  0  0  0  0  0  0  0  0
   46.2338   13.1813   10.7692 O   0  0  0  0  0  0  0  0  0  0  0  0
   45.9135   11.9265   11.1357 C   0  0  0  0  0  0  0  0  0  0  0  0
   45.0527   11.3088   10.5289 O   0  0  0  0  0  0  0  0  0  0  0  0
   46.6300   11.4550   12.3722 C   0  0  0  0  0  0  0  0  0  0  0  0
   48.0610   11.9713   12.4843 C   0  0  0  0  0  0  0  0  0  0  0  0
   48.9419   11.5876   11.3284 C   0  0  0  0  0  0  0  0  0  0  0  0
   49.9083   12.2168   10.9321 O   0  0  0  0  0  0  0  0  0  0  0  0
   48.6413   10.3978   10.7843 O   0  0  0  0  0  0  0  0  0  0  0  0
   40.7004   15.3689   11.3620 H   0  0  0  0  0  0  0  0  0  0  0  0
   45.4867   12.1254   11.1186 H   0  0  0  0  0  0  0  0  0  0  0  0
   43.8491   15.2351    8.4486 H   0  0  0  0  0  0  0  0  0  0  0  0
   43.8055    9.0465   12.4086 H   0  0  0  0  0  0  0  0  0  0  0  0
   45.1800    7.1189   13.0657 H   0  0  0  0  0  0  0  0  0  0  0  0
   47.6632    7.2763   12.9255 H   0  0  0  0  0  0  0  0  0  0  0  0
   48.9157   11.5754   12.4709 H   0  0  0  0  0  0  0  0  0  0  0  0
   50.4659   10.7120   14.1495 H   0  0  0  0  0  0  0  0  0  0  0  0
   51.5687   10.1354   12.9128 H   0  0  0  0  0  0  0  0  0  0  0  0
   52.5015   12.1704   13.5651 H   0  0  0  0  0  0  0  0  0  0  0  0
   50.9501   12.9852   13.7212 H   0  0  0  0  0  0  0  0  0  0  0  0
   51.6402   12.3389    9.7021 H   0  0  0  0  0  0  0  0  0  0  0  0
   52.2945   11.1087   10.7819 H   0  0  0  0  0  0  0  0  0  0  0  0
   50.1322   10.3384   10.0565 H   0  0  0  0  0  0  0  0  0  0  0  0
   49.3874   11.9051   10.2878 H   0  0  0  0  0  0  0  0  0  0  0  0
   53.7367   13.0573   11.6844 H   0  0  0  0  0  0  0  0  0  0  0  0
   52.8394   14.2152   10.6656 H   0  0  0  0  0  0  0  0  0  0  0  0
   52.8728   14.4360   12.4078 H   0  0  0  0  0  0  0  0  0  0  0  0
   51.5003    8.5359    9.8755 H   0  0  0  0  0  0  0  0  0  0  0  0
   49.1811   11.3576   12.0997 H   0  0  0  0  0  0  0  0  0  0  0  0
   54.1490    8.2582   13.2377 H   0  0  0  0  0  0  0  0  0  0  0  0
   49.6231   13.3070   15.2647 H   0  0  0  0  0  0  0  0  0  0  0  0
   47.9339   14.9772   15.8853 H   0  0  0  0  0  0  0  0  0  0  0  0
   45.9526   15.3277   14.4122 H   0  0  0  0  0  0  0  0  0  0  0  0
   46.4053   13.0961   10.4052 H   0  0  0  0  0  0  0  0  0  0  0  0
   45.1103   14.9061    9.4498 H   0  0  0  0  0  0  0  0  0  0  0  0
   43.6065   14.2732   10.0903 H   0  0  0  0  0  0  0  0  0  0  0  0
   43.8264   13.6598    7.7104 H   0  0  0  0  0  0  0  0  0  0  0  0
   45.4085   12.9670    7.9894 H   0  0  0  0  0  0  0  0  0  0  0  0
   44.0795   10.1133    9.9700 H   0  0  0  0  0  0  0  0  0  0  0  0
   45.5573   10.8195    9.3606 H   0  0  0  0  0  0  0  0  0  0  0  0
   43.7863   11.9837   11.5658 H   0  0  0  0  0  0  0  0  0  0  0  0
   45.3808   11.2789   11.7438 H   0  0  0  0  0  0  0  0  0  0  0  0
   42.1743   12.4275    9.9261 H   0  0  0  0  0  0  0  0  0  0  0  0
   41.8719   12.3726    8.1861 H   0  0  0  0  0  0  0  0  0  0  0  0
   41.9712   10.8763    9.0997 H   0  0  0  0  0  0  0  0  0  0  0  0
   45.6493   13.3598   10.0010 H   0  0  0  0  0  0  0  0  0  0  0  0
   46.0475   11.7907   13.2395 H   0  0  0  0  0  0  0  0  0  0  0  0
   46.6270   10.3571   12.3671 H   0  0  0  0  0  0  0  0  0  0  0  0
   48.0641   13.0644   12.5524 H   0  0  0  0  0  0  0  0  0  0  0  0
   48.5226   11.5809   13.3971 H   0  0  0  0  0  0  0  0  0  0  0  0
   49.3276   10.2772   10.0957 H   0  0  0  0  0  0  0  0  0  0  0  0
  1  2  1  0
  1 12  2  0
  3  1  1  0
  3  4  2  0
  4  6  1  0
  5  4  1  0
  7  8  2  0
  8  9  1  0
  8  6  1  0
  9 15  1  0
 10 11  1  0
 10  6  2  0
 12 10  1  0
 13 14  2  0
 14 18  1  0
 15 13  1  0
 15 16  2  0
 16 17  1  0
 18 17  2  0
 19 14  1  0
 19 20  1  0
 20 21  1  0
 21 22  1  0
 22 23  1  0
 23 24  1  0
 23 27  1  0
 24 25  1  0
 25 20  1  0
 26 19  2  0
 28 29  1  0
 28 39  2  0
 30 28  1  0
 30 31  2  0
 31 33  1  0
 32 31  1  0
 34 35  2  0
 35 36  1  0
 35 33  1  0
 36 42  1  0
 37 38  1  0
 37 33  2  0
 39 37  1  0
 40 41  2  0
 41 45  1  0
 42 40  1  0
 42 43  2  0
 43 44  1  0
 45 44  2  0
 46 41  1  0
 46 47  1  0
 47 48  1  0
 48 49  1  0
 49 50  1  0
 50 51  1  0
 50 54  1  0
 51 52  1  0
 52 47  1  0
 53 46  2  0
 55 56  1  0
 56 57  2  0
 56 58  1  0
 58 59  1  0
 59 60  1  0
 60 61  2  0
 60 62  1  0
  3 63  1  0
  9 64  1  0
 12 65  1  0
 16 66  1  0
 17 67  1  0
 18 68  1  0
 20 69  1  0
 21 70  1  0
 21 71  1  0
 22 72  1  0
 22 73  1  0
 24 74  1  0
 24 75  1  0
 25 76  1  0
 25 77  1  0
 27 78  1  0
 27 79  1  0
 27 80  1  0
 30 81  1  0
 36 82  1  0
 39 83  1  0
 43 84  1  0
 44 85  1  0
 45 86  1  0
 47 87  1  0
 48 88  1  0
 48 89  1  0
 49 90  1  0
 49 91  1  0
 51 92  1  0
 51 93  1  0
 52 94  1  0
 52 95  1  0
 54 96  1  0
 54 97  1  0
 54 98  1  0
 55 99  1  0
 58100  1  0
 58101  1  0
 59102  1  0
 59103  1  0
 62104  1  0
M  END
> <Uni-Dock RESULT> 
ENERGY=   -4.389  LOWER_BOUND=    5.111  UPPER_BOUND=    9.061
INTER + INTRA:          -4.389
INTER:                  -4.389
INTRA:                   0.000
UNBOUND:                 0.000

$$$$
