
     RDKit          3D

104107  0  0  0  0  0  0  0  0999 V2000
   47.5137    6.0287   22.8645 C   0  0  0  0  0  0  0  0  0  0  0  0
   47.4538    4.7652   23.3004 F   0  0  0  0  0  0  0  0  0  0  0  0
   47.7023    6.2788   21.5143 C   0  0  0  0  0  0  0  0  0  0  0  0
   47.7664    7.5980   21.0691 C   0  0  0  0  0  0  0  0  0  0  0  0
   47.9520    7.7965   19.7550 F   0  0  0  0  0  0  0  0  0  0  0  0
   47.6424    8.6781   21.9504 C   0  0  0  0  0  0  0  0  0  0  0  0
   47.5147   10.9978   22.3074 O   0  0  0  0  0  0  0  0  0  0  0  0
   47.7046   10.1003   21.4951 C   0  0  0  0  0  0  0  0  0  0  0  0
   47.9825   10.3067   20.1618 N   0  0  0  0  0  0  0  0  0  0  0  0
   47.4523    8.3868   23.3082 C   0  0  0  0  0  0  0  0  0  0  0  0
   47.3322    9.3572   24.2246 F   0  0  0  0  0  0  0  0  0  0  0  0
   47.3884    7.0719   23.7684 C   0  0  0  0  0  0  0  0  0  0  0  0
   48.3935   11.3552   18.1710 N   0  0  0  0  0  0  0  0  0  0  0  0
   48.5426   12.4720   17.4155 C   0  0  0  0  0  0  0  0  0  0  0  0
   48.1087   11.5184   19.4790 C   0  0  0  0  0  0  0  0  0  0  0  0
   47.9665   12.7704   20.0606 C   0  0  0  0  0  0  0  0  0  0  0  0
   48.1224   13.9060   19.2669 C   0  0  0  0  0  0  0  0  0  0  0  0
   48.4178   13.7595   17.9187 C   0  0  0  0  0  0  0  0  0  0  0  0
   48.8715   12.2729   15.9710 C   0  0  0  0  0  0  0  0  0  0  0  0
   48.9458   10.8434   15.4359 C   0  0  0  0  0  0  0  0  0  0  0  0
   48.5257   10.7698   13.9543 C   0  0  0  0  0  0  0  0  0  0  0  0
   49.3979    9.8193   13.1276 C   0  0  0  0  0  0  0  0  0  0  0  0
   49.6731    8.6100   13.9028 N   0  0  0  0  0  0  0  0  0  0  0  0
   50.5255    8.8883   15.0664 C   0  0  0  0  0  0  0  0  0  0  0  0
   50.3644   10.3043   15.6310 C   0  0  0  0  0  0  0  0  0  0  0  0
   49.1061   13.2544   15.2656 O   0  0  0  0  0  0  0  0  0  0  0  0
   50.2496    7.5560   13.0730 C   0  0  0  0  0  0  0  0  0  0  0  0
   46.8072    6.1749   12.9706 C   0  0  0  0  0  0  0  0  0  0  0  0
   46.2852    4.9943   12.6197 F   0  0  0  0  0  0  0  0  0  0  0  0
   47.8488    6.2143   13.8872 C   0  0  0  0  0  0  0  0  0  0  0  0
   48.3814    7.4479   14.2522 C   0  0  0  0  0  0  0  0  0  0  0  0
   49.3831    7.4655   15.1446 F   0  0  0  0  0  0  0  0  0  0  0  0
   47.8892    8.6359   13.7122 C   0  0  0  0  0  0  0  0  0  0  0  0
   48.6010   10.7869   13.1826 O   0  0  0  0  0  0  0  0  0  0  0  0
   48.4735    9.9489   14.0669 C   0  0  0  0  0  0  0  0  0  0  0  0
   48.8252   10.1003   15.3888 N   0  0  0  0  0  0  0  0  0  0  0  0
   46.8431    8.5656   12.7889 C   0  0  0  0  0  0  0  0  0  0  0  0
   46.3095    9.6786   12.2612 F   0  0  0  0  0  0  0  0  0  0  0  0
   46.2952    7.3413   12.4160 C   0  0  0  0  0  0  0  0  0  0  0  0
   49.5765   11.0540   17.3336 N   0  0  0  0  0  0  0  0  0  0  0  0
   50.1235   12.0877   18.0234 C   0  0  0  0  0  0  0  0  0  0  0  0
   49.3950   11.2160   16.0062 C   0  0  0  0  0  0  0  0  0  0  0  0
   49.7478   12.3836   15.3427 C   0  0  0  0  0  0  0  0  0  0  0  0
   50.3189   13.4278   16.0680 C   0  0  0  0  0  0  0  0  0  0  0  0
   50.5154   13.2814   17.4342 C   0  0  0  0  0  0  0  0  0  0  0  0
   50.2987   11.9054   19.4964 C   0  0  0  0  0  0  0  0  0  0  0  0
   49.6808   10.6685   20.1453 C   0  0  0  0  0  0  0  0  0  0  0  0
   48.1616   10.8288   20.2612 C   0  0  0  0  0  0  0  0  0  0  0  0
   47.5331    9.6520   21.0068 C   0  0  0  0  0  0  0  0  0  0  0  0
   48.1362    9.4845   22.3332 N   0  0  0  0  0  0  0  0  0  0  0  0
   49.5839    9.2570   22.2403 C   0  0  0  0  0  0  0  0  0  0  0  0
   50.2773   10.4226   21.5370 C   0  0  0  0  0  0  0  0  0  0  0  0
   50.9176   12.7537   20.1389 O   0  0  0  0  0  0  0  0  0  0  0  0
   47.4945    8.3898   23.0585 C   0  0  0  0  0  0  0  0  0  0  0  0
   49.1821    8.9701   15.8082 O   0  0  0  0  0  0  0  0  0  0  0  0
   48.6545   10.1205   16.2679 C   0  0  0  0  0  0  0  0  0  0  0  0
   49.0261   11.1948   15.8267 O   0  0  0  0  0  0  0  0  0  0  0  0
   47.6010    9.9037   17.3157 C   0  0  0  0  0  0  0  0  0  0  0  0
   48.1844    9.2521   18.5593 C   0  0  0  0  0  0  0  0  0  0  0  0
   49.1021   10.1984   19.2792 C   0  0  0  0  0  0  0  0  0  0  0  0
   48.9347   11.3951   19.4390 O   0  0  0  0  0  0  0  0  0  0  0  0
   50.1814    9.5804   19.7923 O   0  0  0  0  0  0  0  0  0  0  0  0
   47.8019    5.4568   20.8136 H   0  0  0  0  0  0  0  0  0  0  0  0
   48.1203    9.5160   19.5429 H   0  0  0  0  0  0  0  0  0  0  0  0
   47.2416    6.8705   24.8243 H   0  0  0  0  0  0  0  0  0  0  0  0
   47.7371   12.8990   21.1114 H   0  0  0  0  0  0  0  0  0  0  0  0
   48.0177   14.8960   19.7035 H   0  0  0  0  0  0  0  0  0  0  0  0
   48.5489   14.6275   17.2804 H   0  0  0  0  0  0  0  0  0  0  0  0
   48.2419   10.2144   15.9955 H   0  0  0  0  0  0  0  0  0  0  0  0
   47.4829   10.4263   13.9161 H   0  0  0  0  0  0  0  0  0  0  0  0
   48.5286   11.7522   13.4687 H   0  0  0  0  0  0  0  0  0  0  0  0
   48.8519    9.5765   12.2066 H   0  0  0  0  0  0  0  0  0  0  0  0
   50.3302   10.3144   12.8228 H   0  0  0  0  0  0  0  0  0  0  0  0
   50.2816    8.1597   15.8481 H   0  0  0  0  0  0  0  0  0  0  0  0
   51.5877    8.7501   14.8269 H   0  0  0  0  0  0  0  0  0  0  0  0
   50.6398   10.3031   16.6929 H   0  0  0  0  0  0  0  0  0  0  0  0
   51.0794   10.9760   15.1353 H   0  0  0  0  0  0  0  0  0  0  0  0
   49.5663    7.2848   12.2606 H   0  0  0  0  0  0  0  0  0  0  0  0
   51.2051    7.8568   12.6285 H   0  0  0  0  0  0  0  0  0  0  0  0
   50.4143    6.6469   13.6632 H   0  0  0  0  0  0  0  0  0  0  0  0
   48.2438    5.2967   14.3101 H   0  0  0  0  0  0  0  0  0  0  0  0
   48.6900    9.3360   16.0383 H   0  0  0  0  0  0  0  0  0  0  0  0
   45.4762    7.3000   11.7040 H   0  0  0  0  0  0  0  0  0  0  0  0
   49.6031   12.5091   14.2760 H   0  0  0  0  0  0  0  0  0  0  0  0
   50.6084   14.3481   15.5666 H   0  0  0  0  0  0  0  0  0  0  0  0
   50.9577   14.0800   18.0226 H   0  0  0  0  0  0  0  0  0  0  0  0
   49.9228    9.7943   19.5263 H   0  0  0  0  0  0  0  0  0  0  0  0
   47.9238   11.7656   20.7828 H   0  0  0  0  0  0  0  0  0  0  0  0
   47.7018   10.9063   19.2692 H   0  0  0  0  0  0  0  0  0  0  0  0
   47.6374    8.7359   20.4100 H   0  0  0  0  0  0  0  0  0  0  0  0
   46.4590    9.8518   21.1112 H   0  0  0  0  0  0  0  0  0  0  0  0
   50.0095    9.1645   23.2476 H   0  0  0  0  0  0  0  0  0  0  0  0
   49.8009    8.3210   21.7085 H   0  0  0  0  0  0  0  0  0  0  0  0
   51.3507   10.2129   21.4507 H   0  0  0  0  0  0  0  0  0  0  0  0
   50.1843   11.3239   22.1579 H   0  0  0  0  0  0  0  0  0  0  0  0
   46.4180    8.5704   23.1575 H   0  0  0  0  0  0  0  0  0  0  0  0
   47.6372    7.4245   22.5595 H   0  0  0  0  0  0  0  0  0  0  0  0
   47.8948    8.3160   24.0771 H   0  0  0  0  0  0  0  0  0  0  0  0
   49.8369    9.2604   15.1376 H   0  0  0  0  0  0  0  0  0  0  0  0
   46.8163    9.2729   16.8816 H   0  0  0  0  0  0  0  0  0  0  0  0
   47.1415   10.8707   17.5489 H   0  0  0  0  0  0  0  0  0  0  0  0
   48.7342    8.3412   18.2960 H   0  0  0  0  0  0  0  0  0  0  0  0
   47.3849    8.9735   19.2551 H   0  0  0  0  0  0  0  0  0  0  0  0
   50.6847   10.3010   20.2274 H   0  0  0  0  0  0  0  0  0  0  0  0
  1  2  1  0
  1 12  2  0
  3  1  1  0
  3  4  2  0
  4  6  1  0
  5  4  1  0
  7  8  2  0
  8  9  1  0
  8  6  1  0
  9 15  1  0
 10 11  1  0
 10  6  2  0
 12 10  1  0
 13 14  2  0
 14 18  1  0
 15 13  1  0
 15 16  2  0
 16 17  1  0
 18 17  2  0
 19 14  1  0
 19 20  1  0
 20 21  1  0
 21 22  1  0
 22 23  1  0
 23 24  1  0
 23 27  1  0
 24 25  1  0
 25 20  1  0
 26 19  2  0
 28 29  1  0
 28 39  2  0
 30 28  1  0
 30 31  2  0
 31 33  1  0
 32 31  1  0
 34 35  2  0
 35 36  1  0
 35 33  1  0
 36 42  1  0
 37 38  1  0
 37 33  2  0
 39 37  1  0
 40 41  2  0
 41 45  1  0
 42 40  1  0
 42 43  2  0
 43 44  1  0
 45 44  2  0
 46 41  1  0
 46 47  1  0
 47 48  1  0
 48 49  1  0
 49 50  1  0
 50 51  1  0
 50 54  1  0
 51 52  1  0
 52 47  1  0
 53 46  2  0
 55 56  1  0
 56 57  2  0
 56 58  1  0
 58 59  1  0
 59 60  1  0
 60 61  2  0
 60 62  1  0
  3 63  1  0
  9 64  1  0
 12 65  1  0
 16 66  1  0
 17 67  1  0
 18 68  1  0
 20 69  1  0
 21 70  1  0
 21 71  1  0
 22 72  1  0
 22 73  1  0
 24 74  1  0
 24 75  1  0
 25 76  1  0
 25 77  1  0
 27 78  1  0
 27 79  1  0
 27 80  1  0
 30 81  1  0
 36 82  1  0
 39 83  1  0
 43 84  1  0
 44 85  1  0
 45 86  1  0
 47 87  1  0
 48 88  1  0
 48 89  1  0
 49 90  1  0
 49 91  1  0
 51 92  1  0
 51 93  1  0
 52 94  1  0
 52 95  1  0
 54 96  1  0
 54 97  1  0
 54 98  1  0
 55 99  1  0
 58100  1  0
 58101  1  0
 59102  1  0
 59103  1  0
 62104  1  0
M  END
> <Uni-Dock RESULT> 
ENERGY=   -5.841  LOWER_BOUND=    0.000  UPPER_BOUND=    0.000
INTER + INTRA:          -5.841
INTER:                  -5.841
INTRA:                   0.000
UNBOUND:                 0.000

$$$$

     RDKit          3D

104107  0  0  0  0  0  0  0  0999 V2000
   43.8699    4.0454   12.0976 C   0  0  0  0  0  0  0  0  0  0  0  0
   42.8563    3.1868   12.2576 F   0  0  0  0  0  0  0  0  0  0  0  0
   44.5433    4.5244   13.2104 C   0  0  0  0  0  0  0  0  0  0  0  0
   45.5961    5.4207   13.0349 C   0  0  0  0  0  0  0  0  0  0  0  0
   46.2202    5.8618   14.1380 F   0  0  0  0  0  0  0  0  0  0  0  0
   45.9934    5.8482   11.7629 C   0  0  0  0  0  0  0  0  0  0  0  0
   47.4657    7.0814   10.4076 O   0  0  0  0  0  0  0  0  0  0  0  0
   47.1213    6.8057   11.5508 C   0  0  0  0  0  0  0  0  0  0  0  0
   47.7056    7.3271   12.6840 N   0  0  0  0  0  0  0  0  0  0  0  0
   45.2897    5.3425   10.6613 C   0  0  0  0  0  0  0  0  0  0  0  0
   45.5950    5.7029    9.4071 F   0  0  0  0  0  0  0  0  0  0  0  0
   44.2328    4.4468   10.8216 C   0  0  0  0  0  0  0  0  0  0  0  0
   49.0782    8.5437   14.0507 N   0  0  0  0  0  0  0  0  0  0  0  0
   50.0867    9.4283   14.2526 C   0  0  0  0  0  0  0  0  0  0  0  0
   48.7580    8.2404   12.7762 C   0  0  0  0  0  0  0  0  0  0  0  0
   49.4182    8.7959   11.6892 C   0  0  0  0  0  0  0  0  0  0  0  0
   50.4528    9.7022   11.9176 C   0  0  0  0  0  0  0  0  0  0  0  0
   50.7963   10.0292   13.2221 C   0  0  0  0  0  0  0  0  0  0  0  0
   50.4191    9.7633   15.6709 C   0  0  0  0  0  0  0  0  0  0  0  0
   49.6580    9.0421   16.7825 C   0  0  0  0  0  0  0  0  0  0  0  0
   50.5285    8.8637   18.0425 C   0  0  0  0  0  0  0  0  0  0  0  0
   49.7572    9.0986   19.3454 C   0  0  0  0  0  0  0  0  0  0  0  0
   48.4301    8.4924   19.2437 N   0  0  0  0  0  0  0  0  0  0  0  0
   47.5902    9.1776   18.2523 C   0  0  0  0  0  0  0  0  0  0  0  0
   48.3794    9.8181   17.1047 C   0  0  0  0  0  0  0  0  0  0  0  0
   51.2639   10.6283   15.9036 O   0  0  0  0  0  0  0  0  0  0  0  0
   47.7630    8.4320   20.5411 C   0  0  0  0  0  0  0  0  0  0  0  0
   48.8879    4.8967   20.6126 C   0  0  0  0  0  0  0  0  0  0  0  0
   48.5579    3.8269   21.3448 F   0  0  0  0  0  0  0  0  0  0  0  0
   47.8894    5.6224   19.9777 C   0  0  0  0  0  0  0  0  0  0  0  0
   48.2423    6.7304   19.2118 C   0  0  0  0  0  0  0  0  0  0  0  0
   47.2636    7.4147   18.6004 F   0  0  0  0  0  0  0  0  0  0  0  0
   49.5745    7.1207   19.0764 C   0  0  0  0  0  0  0  0  0  0  0  0
   50.8477    9.0368   18.7278 O   0  0  0  0  0  0  0  0  0  0  0  0
   49.9554    8.3182   18.2941 C   0  0  0  0  0  0  0  0  0  0  0  0
   49.2499    8.5100   17.1282 N   0  0  0  0  0  0  0  0  0  0  0  0
   50.5578    6.3739   19.7300 C   0  0  0  0  0  0  0  0  0  0  0  0
   51.8580    6.6850   19.6092 F   0  0  0  0  0  0  0  0  0  0  0  0
   50.2236    5.2604   20.4960 C   0  0  0  0  0  0  0  0  0  0  0  0
   48.5673    9.4131   15.1345 N   0  0  0  0  0  0  0  0  0  0  0  0
   48.6295   10.3699   14.1730 C   0  0  0  0  0  0  0  0  0  0  0  0
   49.3869    9.5435   16.1986 C   0  0  0  0  0  0  0  0  0  0  0  0
   50.2688   10.6073   16.3342 C   0  0  0  0  0  0  0  0  0  0  0  0
   50.3078   11.5847   15.3414 C   0  0  0  0  0  0  0  0  0  0  0  0
   49.4723   11.4702   14.2389 C   0  0  0  0  0  0  0  0  0  0  0  0
   47.7336   10.2028   12.9885 C   0  0  0  0  0  0  0  0  0  0  0  0
   46.9662    8.8898   12.8481 C   0  0  0  0  0  0  0  0  0  0  0  0
   47.9070    7.7668   12.4000 C   0  0  0  0  0  0  0  0  0  0  0  0
   47.1422    6.4681   12.1462 C   0  0  0  0  0  0  0  0  0  0  0  0
   46.0736    6.6685   11.1618 N   0  0  0  0  0  0  0  0  0  0  0  0
   45.1188    7.6918   11.6060 C   0  0  0  0  0  0  0  0  0  0  0  0
   45.8189    9.0295   11.8394 C   0  0  0  0  0  0  0  0  0  0  0  0
   47.6506   11.1125   12.1631 O   0  0  0  0  0  0  0  0  0  0  0  0
   45.3808    5.4111   10.8874 C   0  0  0  0  0  0  0  0  0  0  0  0
   48.0905    8.0632   17.3197 O   0  0  0  0  0  0  0  0  0  0  0  0
   48.9625    8.2693   16.3147 C   0  0  0  0  0  0  0  0  0  0  0  0
   49.6695    9.2627   16.2990 O   0  0  0  0  0  0  0  0  0  0  0  0
   48.9535    7.1657   15.2965 C   0  0  0  0  0  0  0  0  0  0  0  0
   47.6085    7.0731   14.5938 C   0  0  0  0  0  0  0  0  0  0  0  0
   47.3820    8.2673   13.7115 C   0  0  0  0  0  0  0  0  0  0  0  0
   48.2117    8.8264   13.0154 O   0  0  0  0  0  0  0  0  0  0  0  0
   46.1032    8.6852   13.7270 O   0  0  0  0  0  0  0  0  0  0  0  0
   44.2515    4.2073   14.2058 H   0  0  0  0  0  0  0  0  0  0  0  0
   47.3753    7.0479   13.6007 H   0  0  0  0  0  0  0  0  0  0  0  0
   43.7019    4.0694    9.9541 H   0  0  0  0  0  0  0  0  0  0  0  0
   49.1597    8.5503   10.6663 H   0  0  0  0  0  0  0  0  0  0  0  0
   50.9808   10.1507   11.0800 H   0  0  0  0  0  0  0  0  0  0  0  0
   51.5945   10.7355   13.4268 H   0  0  0  0  0  0  0  0  0  0  0  0
   49.3903    8.0350   16.4383 H   0  0  0  0  0  0  0  0  0  0  0  0
   50.9228    7.8384   18.0376 H   0  0  0  0  0  0  0  0  0  0  0  0
   51.4088    9.5162   18.0393 H   0  0  0  0  0  0  0  0  0  0  0  0
   50.3318    8.6449   20.1634 H   0  0  0  0  0  0  0  0  0  0  0  0
   49.6855   10.1728   19.5655 H   0  0  0  0  0  0  0  0  0  0  0  0
   46.8862    8.4457   17.8397 H   0  0  0  0  0  0  0  0  0  0  0  0
   46.9870    9.9684   18.7164 H   0  0  0  0  0  0  0  0  0  0  0  0
   47.7342    9.8934   16.2208 H   0  0  0  0  0  0  0  0  0  0  0  0
   48.6401   10.8508   17.3760 H   0  0  0  0  0  0  0  0  0  0  0  0
   48.3492    7.8380   21.2512 H   0  0  0  0  0  0  0  0  0  0  0  0
   47.6108    9.4273   20.9737 H   0  0  0  0  0  0  0  0  0  0  0  0
   46.7866    7.9417   20.4505 H   0  0  0  0  0  0  0  0  0  0  0  0
   46.8492    5.3319   20.0798 H   0  0  0  0  0  0  0  0  0  0  0  0
   48.5187    7.8607   16.8674 H   0  0  0  0  0  0  0  0  0  0  0  0
   50.9978    4.6825   20.9921 H   0  0  0  0  0  0  0  0  0  0  0  0
   50.9236   10.7101   17.1917 H   0  0  0  0  0  0  0  0  0  0  0  0
   50.9865   12.4293   15.4313 H   0  0  0  0  0  0  0  0  0  0  0  0
   49.4836   12.2176   13.4509 H   0  0  0  0  0  0  0  0  0  0  0  0
   46.5191    8.6434   13.8203 H   0  0  0  0  0  0  0  0  0  0  0  0
   48.4382    8.0668   11.4868 H   0  0  0  0  0  0  0  0  0  0  0  0
   48.6792    7.5815   13.1556 H   0  0  0  0  0  0  0  0  0  0  0  0
   46.7370    6.0848   13.0923 H   0  0  0  0  0  0  0  0  0  0  0  0
   47.8553    5.7226   11.7717 H   0  0  0  0  0  0  0  0  0  0  0  0
   44.3495    7.8390   10.8374 H   0  0  0  0  0  0  0  0  0  0  0  0
   44.6049    7.3771   12.5241 H   0  0  0  0  0  0  0  0  0  0  0  0
   45.0913    9.7661   12.2021 H   0  0  0  0  0  0  0  0  0  0  0  0
   46.1965    9.4098   10.8805 H   0  0  0  0  0  0  0  0  0  0  0  0
   46.0849    4.6529   10.5257 H   0  0  0  0  0  0  0  0  0  0  0  0
   44.8757    5.0157   11.7760 H   0  0  0  0  0  0  0  0  0  0  0  0
   44.6338    5.5478   10.0959 H   0  0  0  0  0  0  0  0  0  0  0  0
   48.2095    8.8445   17.9013 H   0  0  0  0  0  0  0  0  0  0  0  0
   49.1846    6.2265   15.8129 H   0  0  0  0  0  0  0  0  0  0  0  0
   49.7657    7.3468   14.5835 H   0  0  0  0  0  0  0  0  0  0  0  0
   46.7952    7.0010   15.3250 H   0  0  0  0  0  0  0  0  0  0  0  0
   47.5703    6.1809   13.9586 H   0  0  0  0  0  0  0  0  0  0  0  0
   46.0963    9.4549   13.1192 H   0  0  0  0  0  0  0  0  0  0  0  0
  1  2  1  0
  1 12  2  0
  3  1  1  0
  3  4  2  0
  4  6  1  0
  5  4  1  0
  7  8  2  0
  8  9  1  0
  8  6  1  0
  9 15  1  0
 10 11  1  0
 10  6  2  0
 12 10  1  0
 13 14  2  0
 14 18  1  0
 15 13  1  0
 15 16  2  0
 16 17  1  0
 18 17  2  0
 19 14  1  0
 19 20  1  0
 20 21  1  0
 21 22  1  0
 22 23  1  0
 23 24  1  0
 23 27  1  0
 24 25  1  0
 25 20  1  0
 26 19  2  0
 28 29  1  0
 28 39  2  0
 30 28  1  0
 30 31  2  0
 31 33  1  0
 32 31  1  0
 34 35  2  0
 35 36  1  0
 35 33  1  0
 36 42  1  0
 37 38  1  0
 37 33  2  0
 39 37  1  0
 40 41  2  0
 41 45  1  0
 42 40  1  0
 42 43  2  0
 43 44  1  0
 45 44  2  0
 46 41  1  0
 46 47  1  0
 47 48  1  0
 48 49  1  0
 49 50  1  0
 50 51  1  0
 50 54  1  0
 51 52  1  0
 52 47  1  0
 53 46  2  0
 55 56  1  0
 56 57  2  0
 56 58  1  0
 58 59  1  0
 59 60  1  0
 60 61  2  0
 60 62  1  0
  3 63  1  0
  9 64  1  0
 12 65  1  0
 16 66  1  0
 17 67  1  0
 18 68  1  0
 20 69  1  0
 21 70  1  0
 21 71  1  0
 22 72  1  0
 22 73  1  0
 24 74  1  0
 24 75  1  0
 25 76  1  0
 25 77  1  0
 27 78  1  0
 27 79  1  0
 27 80  1  0
 30 81  1  0
 36 82  1  0
 39 83  1  0
 43 84  1  0
 44 85  1  0
 45 86  1  0
 47 87  1  0
 48 88  1  0
 48 89  1  0
 49 90  1  0
 49 91  1  0
 51 92  1  0
 51 93  1  0
 52 94  1  0
 52 95  1  0
 54 96  1  0
 54 97  1  0
 54 98  1  0
 55 99  1  0
 58100  1  0
 58101  1  0
 59102  1  0
 59103  1  0
 62104  1  0
M  END
> <Uni-Dock RESULT> 
ENERGY=   -5.533  LOWER_BOUND=    2.433  UPPER_BOUND=    7.775
INTER + INTRA:          -5.533
INTER:                  -5.533
INTRA:                   0.000
UNBOUND:                 0.000

$$$$

     RDKit          3D

104107  0  0  0  0  0  0  0  0999 V2000
   50.1762    3.7148   17.6790 C   0  0  0  0  0  0  0  0  0  0  0  0
   50.8685    2.7083   17.1332 F   0  0  0  0  0  0  0  0  0  0  0  0
   50.2126    4.9690   17.0901 C   0  0  0  0  0  0  0  0  0  0  0  0
   49.4908    6.0126   17.6667 C   0  0  0  0  0  0  0  0  0  0  0  0
   49.5545    7.2112   17.0667 F   0  0  0  0  0  0  0  0  0  0  0  0
   48.7272    5.8264   18.8247 C   0  0  0  0  0  0  0  0  0  0  0  0
   47.2365    6.6816   20.4284 O   0  0  0  0  0  0  0  0  0  0  0  0
   47.9430    6.9297   19.4583 C   0  0  0  0  0  0  0  0  0  0  0  0
   48.0766    8.1799   18.8956 N   0  0  0  0  0  0  0  0  0  0  0  0
   48.7140    4.5448   19.3919 C   0  0  0  0  0  0  0  0  0  0  0  0
   48.0178    4.2765   20.5052 F   0  0  0  0  0  0  0  0  0  0  0  0
   49.4329    3.4916   18.8273 C   0  0  0  0  0  0  0  0  0  0  0  0
   47.8329   10.4220   18.5142 N   0  0  0  0  0  0  0  0  0  0  0  0
   47.3075   11.6363   18.8138 C   0  0  0  0  0  0  0  0  0  0  0  0
   47.4746    9.3773   19.2881 C   0  0  0  0  0  0  0  0  0  0  0  0
   46.6016    9.5076   20.3590 C   0  0  0  0  0  0  0  0  0  0  0  0
   46.0713   10.7638   20.6500 C   0  0  0  0  0  0  0  0  0  0  0  0
   46.4293   11.8523   19.8666 C   0  0  0  0  0  0  0  0  0  0  0  0
   47.7261   12.7854   17.9542 C   0  0  0  0  0  0  0  0  0  0  0  0
   48.6489   12.5044   16.7691 C   0  0  0  0  0  0  0  0  0  0  0  0
   48.3917   13.4826   15.6055 C   0  0  0  0  0  0  0  0  0  0  0  0
   49.6783   13.9554   14.9208 C   0  0  0  0  0  0  0  0  0  0  0  0
   50.5992   12.8281   14.7794 N   0  0  0  0  0  0  0  0  0  0  0  0
   51.0900   12.3560   16.0810 C   0  0  0  0  0  0  0  0  0  0  0  0
   50.1046   12.5764   17.2345 C   0  0  0  0  0  0  0  0  0  0  0  0
   47.3485   13.9216   18.2416 O   0  0  0  0  0  0  0  0  0  0  0  0
   51.7098   13.1465   13.8865 C   0  0  0  0  0  0  0  0  0  0  0  0
   49.7667   11.3116   11.3125 C   0  0  0  0  0  0  0  0  0  0  0  0
   50.0578   10.8025   10.1102 F   0  0  0  0  0  0  0  0  0  0  0  0
   50.5577   10.9786   12.4034 C   0  0  0  0  0  0  0  0  0  0  0  0
   50.2434   11.5073   13.6526 C   0  0  0  0  0  0  0  0  0  0  0  0
   51.0158   11.1681   14.6957 F   0  0  0  0  0  0  0  0  0  0  0  0
   49.1548   12.3627   13.8221 C   0  0  0  0  0  0  0  0  0  0  0  0
   48.4612   14.1240   15.1751 O   0  0  0  0  0  0  0  0  0  0  0  0
   48.8350   12.9581   15.1391 C   0  0  0  0  0  0  0  0  0  0  0  0
   48.9949   12.1207   16.2194 N   0  0  0  0  0  0  0  0  0  0  0  0
   48.3788   12.6836   12.7056 C   0  0  0  0  0  0  0  0  0  0  0  0
   47.3013   13.4765   12.8163 F   0  0  0  0  0  0  0  0  0  0  0  0
   48.6755   12.1604   11.4500 C   0  0  0  0  0  0  0  0  0  0  0  0
   48.9835   11.3431   18.3762 N   0  0  0  0  0  0  0  0  0  0  0  0
   48.7915   11.5201   19.7087 C   0  0  0  0  0  0  0  0  0  0  0  0
   48.7742   12.4043   17.5691 C   0  0  0  0  0  0  0  0  0  0  0  0
   48.3801   13.6438   18.0549 C   0  0  0  0  0  0  0  0  0  0  0  0
   48.2003   13.8068   19.4274 C   0  0  0  0  0  0  0  0  0  0  0  0
   48.4114   12.7283   20.2754 C   0  0  0  0  0  0  0  0  0  0  0  0
   49.0042   10.3320   20.5900 C   0  0  0  0  0  0  0  0  0  0  0  0
   49.2268    8.9752   19.9250 C   0  0  0  0  0  0  0  0  0  0  0  0
   47.9077    8.4306   19.3680 C   0  0  0  0  0  0  0  0  0  0  0  0
   48.0837    7.0248   18.7950 C   0  0  0  0  0  0  0  0  0  0  0  0
   48.6351    6.1101   19.8002 N   0  0  0  0  0  0  0  0  0  0  0  0
   49.9362    6.5772   20.2955 C   0  0  0  0  0  0  0  0  0  0  0  0
   49.8180    7.9670   20.9187 C   0  0  0  0  0  0  0  0  0  0  0  0
   48.9813   10.4770   21.8124 O   0  0  0  0  0  0  0  0  0  0  0  0
   48.7523    4.7572   19.2596 C   0  0  0  0  0  0  0  0  0  0  0  0
   49.9433   11.3418   15.9464 O   0  0  0  0  0  0  0  0  0  0  0  0
   48.8239   11.3803   16.6938 C   0  0  0  0  0  0  0  0  0  0  0  0
   48.4948   12.4045   17.2680 O   0  0  0  0  0  0  0  0  0  0  0  0
   48.0802   10.0759   16.7016 C   0  0  0  0  0  0  0  0  0  0  0  0
   48.9056    8.9730   17.3448 C   0  0  0  0  0  0  0  0  0  0  0  0
   49.0627    9.2124   18.8193 C   0  0  0  0  0  0  0  0  0  0  0  0
   48.2128    9.6369   19.5828 O   0  0  0  0  0  0  0  0  0  0  0  0
   50.2848    8.8751   19.2695 O   0  0  0  0  0  0  0  0  0  0  0  0
   50.7987    5.1361   16.1928 H   0  0  0  0  0  0  0  0  0  0  0  0
   48.6728    8.3121   18.0867 H   0  0  0  0  0  0  0  0  0  0  0  0
   49.4085    2.5081   19.2845 H   0  0  0  0  0  0  0  0  0  0  0  0
   46.3146    8.6669   20.9789 H   0  0  0  0  0  0  0  0  0  0  0  0
   45.3878   10.8878   21.4860 H   0  0  0  0  0  0  0  0  0  0  0  0
   46.0344   12.8415   20.0751 H   0  0  0  0  0  0  0  0  0  0  0  0
   48.4433   11.4967   16.3859 H   0  0  0  0  0  0  0  0  0  0  0  0
   47.7588   12.9705   14.8680 H   0  0  0  0  0  0  0  0  0  0  0  0
   47.8220   14.3650   15.9182 H   0  0  0  0  0  0  0  0  0  0  0  0
   49.4067   14.3630   13.9383 H   0  0  0  0  0  0  0  0  0  0  0  0
   50.1408   14.7752   15.4877 H   0  0  0  0  0  0  0  0  0  0  0  0
   51.3078   11.2853   15.9939 H   0  0  0  0  0  0  0  0  0  0  0  0
   52.0318   12.8479   16.3563 H   0  0  0  0  0  0  0  0  0  0  0  0
   50.3004   11.8388   18.0224 H   0  0  0  0  0  0  0  0  0  0  0  0
   50.2923   13.5594   17.6889 H   0  0  0  0  0  0  0  0  0  0  0  0
   51.3420   13.4060   12.8876 H   0  0  0  0  0  0  0  0  0  0  0  0
   52.3098   13.9853   14.2571 H   0  0  0  0  0  0  0  0  0  0  0  0
   52.3679   12.2783   13.7646 H   0  0  0  0  0  0  0  0  0  0  0  0
   51.4103   10.3185   12.2831 H   0  0  0  0  0  0  0  0  0  0  0  0
   49.3246   11.1740   16.0805 H   0  0  0  0  0  0  0  0  0  0  0  0
   48.0595   12.4102   10.5913 H   0  0  0  0  0  0  0  0  0  0  0  0
   48.2156   14.4946   17.4039 H   0  0  0  0  0  0  0  0  0  0  0  0
   47.8982   14.7709   19.8291 H   0  0  0  0  0  0  0  0  0  0  0  0
   48.2774   12.8285   21.3485 H   0  0  0  0  0  0  0  0  0  0  0  0
   49.9564    9.1017   19.1141 H   0  0  0  0  0  0  0  0  0  0  0  0
   47.1467    8.4140   20.1596 H   0  0  0  0  0  0  0  0  0  0  0  0
   47.5166    9.0873   18.5822 H   0  0  0  0  0  0  0  0  0  0  0  0
   48.7270    7.0640   17.9057 H   0  0  0  0  0  0  0  0  0  0  0  0
   47.0991    6.6660   18.4688 H   0  0  0  0  0  0  0  0  0  0  0  0
   50.3083    5.8889   21.0649 H   0  0  0  0  0  0  0  0  0  0  0  0
   50.6802    6.5950   19.4880 H   0  0  0  0  0  0  0  0  0  0  0  0
   50.8075    8.3062   21.2496 H   0  0  0  0  0  0  0  0  0  0  0  0
   49.1920    7.9052   21.8192 H   0  0  0  0  0  0  0  0  0  0  0  0
   47.7773    4.3922   18.9169 H   0  0  0  0  0  0  0  0  0  0  0  0
   49.4532    4.7082   18.4185 H   0  0  0  0  0  0  0  0  0  0  0  0
   49.0926    4.0606   20.0355 H   0  0  0  0  0  0  0  0  0  0  0  0
   50.3136   12.2469   16.0265 H   0  0  0  0  0  0  0  0  0  0  0  0
   47.8352    9.8195   15.6641 H   0  0  0  0  0  0  0  0  0  0  0  0
   47.1301   10.2230   17.2275 H   0  0  0  0  0  0  0  0  0  0  0  0
   49.8955    8.9099   16.8786 H   0  0  0  0  0  0  0  0  0  0  0  0
   48.4114    8.0031   17.2182 H   0  0  0  0  0  0  0  0  0  0  0  0
   50.2501    9.0774   20.2285 H   0  0  0  0  0  0  0  0  0  0  0  0
  1  2  1  0
  1 12  2  0
  3  1  1  0
  3  4  2  0
  4  6  1  0
  5  4  1  0
  7  8  2  0
  8  9  1  0
  8  6  1  0
  9 15  1  0
 10 11  1  0
 10  6  2  0
 12 10  1  0
 13 14  2  0
 14 18  1  0
 15 13  1  0
 15 16  2  0
 16 17  1  0
 18 17  2  0
 19 14  1  0
 19 20  1  0
 20 21  1  0
 21 22  1  0
 22 23  1  0
 23 24  1  0
 23 27  1  0
 24 25  1  0
 25 20  1  0
 26 19  2  0
 28 29  1  0
 28 39  2  0
 30 28  1  0
 30 31  2  0
 31 33  1  0
 32 31  1  0
 34 35  2  0
 35 36  1  0
 35 33  1  0
 36 42  1  0
 37 38  1  0
 37 33  2  0
 39 37  1  0
 40 41  2  0
 41 45  1  0
 42 40  1  0
 42 43  2  0
 43 44  1  0
 45 44  2  0
 46 41  1  0
 46 47  1  0
 47 48  1  0
 48 49  1  0
 49 50  1  0
 50 51  1  0
 50 54  1  0
 51 52  1  0
 52 47  1  0
 53 46  2  0
 55 56  1  0
 56 57  2  0
 56 58  1  0
 58 59  1  0
 59 60  1  0
 60 61  2  0
 60 62  1  0
  3 63  1  0
  9 64  1  0
 12 65  1  0
 16 66  1  0
 17 67  1  0
 18 68  1  0
 20 69  1  0
 21 70  1  0
 21 71  1  0
 22 72  1  0
 22 73  1  0
 24 74  1  0
 24 75  1  0
 25 76  1  0
 25 77  1  0
 27 78  1  0
 27 79  1  0
 27 80  1  0
 30 81  1  0
 36 82  1  0
 39 83  1  0
 43 84  1  0
 44 85  1  0
 45 86  1  0
 47 87  1  0
 48 88  1  0
 48 89  1  0
 49 90  1  0
 49 91  1  0
 51 92  1  0
 51 93  1  0
 52 94  1  0
 52 95  1  0
 54 96  1  0
 54 97  1  0
 54 98  1  0
 55 99  1  0
 58100  1  0
 58101  1  0
 59102  1  0
 59103  1  0
 62104  1  0
M  END
> <Uni-Dock RESULT> 
ENERGY=   -5.338  LOWER_BOUND=    2.635  UPPER_BOUND=    3.909
INTER + INTRA:          -5.338
INTER:                  -5.338
INTRA:                   0.000
UNBOUND:                 0.000

$$$$

     RDKit          3D

104107  0  0  0  0  0  0  0  0999 V2000
   44.5591   10.5616   11.6943 C   0  0  0  0  0  0  0  0  0  0  0  0
   43.2229   10.6252   11.6710 F   0  0  0  0  0  0  0  0  0  0  0  0
   45.1908    9.7851   12.6530 C   0  0  0  0  0  0  0  0  0  0  0  0
   46.5833    9.7266   12.6719 C   0  0  0  0  0  0  0  0  0  0  0  0
   47.1553    8.9651   13.6173 F   0  0  0  0  0  0  0  0  0  0  0  0
   47.3612   10.4302   11.7454 C   0  0  0  0  0  0  0  0  0  0  0  0
   49.4732   10.9601   10.8601 O   0  0  0  0  0  0  0  0  0  0  0  0
   48.8549   10.3797   11.7447 C   0  0  0  0  0  0  0  0  0  0  0  0
   49.4459    9.6701   12.7668 N   0  0  0  0  0  0  0  0  0  0  0  0
   46.6878   11.2045   10.7906 C   0  0  0  0  0  0  0  0  0  0  0  0
   47.3511   11.9180    9.8703 F   0  0  0  0  0  0  0  0  0  0  0  0
   45.2953   11.2742   10.7609 C   0  0  0  0  0  0  0  0  0  0  0  0
   51.0368    8.7254   14.1115 N   0  0  0  0  0  0  0  0  0  0  0  0
   52.3284    8.4763   14.4434 C   0  0  0  0  0  0  0  0  0  0  0  0
   50.8063    9.4711   13.0118 C   0  0  0  0  0  0  0  0  0  0  0  0
   51.8320    9.9791   12.2269 C   0  0  0  0  0  0  0  0  0  0  0  0
   53.1527    9.7108   12.5840 C   0  0  0  0  0  0  0  0  0  0  0  0
   53.4112    8.9469   13.7137 C   0  0  0  0  0  0  0  0  0  0  0  0
   52.5657    7.6598   15.6728 C   0  0  0  0  0  0  0  0  0  0  0  0
   51.3526    7.1091   16.4214 C   0  0  0  0  0  0  0  0  0  0  0  0
   51.6716    5.7662   17.1082 C   0  0  0  0  0  0  0  0  0  0  0  0
   51.0513    5.6412   18.5037 C   0  0  0  0  0  0  0  0  0  0  0  0
   49.6934    6.1843   18.4852 N   0  0  0  0  0  0  0  0  0  0  0  0
   49.6883    7.6370   18.2668 C   0  0  0  0  0  0  0  0  0  0  0  0
   50.8745    8.1460   17.4398 C   0  0  0  0  0  0  0  0  0  0  0  0
   53.7193    7.4836   16.0657 O   0  0  0  0  0  0  0  0  0  0  0  0
   48.9556    5.8355   19.6959 C   0  0  0  0  0  0  0  0  0  0  0  0
   47.4370    3.1528   17.6306 C   0  0  0  0  0  0  0  0  0  0  0  0
   46.3713    2.3567   17.7714 F   0  0  0  0  0  0  0  0  0  0  0  0
   47.2849    4.5258   17.7671 C   0  0  0  0  0  0  0  0  0  0  0  0
   48.3981    5.3477   17.6118 C   0  0  0  0  0  0  0  0  0  0  0  0
   48.2293    6.6724   17.7407 F   0  0  0  0  0  0  0  0  0  0  0  0
   49.6552    4.8155   17.3260 C   0  0  0  0  0  0  0  0  0  0  0  0
   51.9101    5.2798   17.6632 O   0  0  0  0  0  0  0  0  0  0  0  0
   50.8506    5.6786   17.1953 C   0  0  0  0  0  0  0  0  0  0  0  0
   50.6465    6.8743   16.5452 N   0  0  0  0  0  0  0  0  0  0  0  0
   49.7791    3.4298   17.1981 C   0  0  0  0  0  0  0  0  0  0  0  0
   50.9583    2.8655   16.8927 F   0  0  0  0  0  0  0  0  0  0  0  0
   48.6762    2.5932   17.3454 C   0  0  0  0  0  0  0  0  0  0  0  0
   51.0615    8.9120   15.5799 N   0  0  0  0  0  0  0  0  0  0  0  0
   51.8929    9.9400   15.2705 C   0  0  0  0  0  0  0  0  0  0  0  0
   51.5783    7.8804   16.2798 C   0  0  0  0  0  0  0  0  0  0  0  0
   52.9058    7.8454   16.6850 C   0  0  0  0  0  0  0  0  0  0  0  0
   53.7389    8.9167   16.3672 C   0  0  0  0  0  0  0  0  0  0  0  0
   53.2270    9.9884   15.6488 C   0  0  0  0  0  0  0  0  0  0  0  0
   51.3152   11.0661   14.4756 C   0  0  0  0  0  0  0  0  0  0  0  0
   49.9081   10.8958   13.9068 C   0  0  0  0  0  0  0  0  0  0  0  0
   49.9295    9.9472   12.7040 C   0  0  0  0  0  0  0  0  0  0  0  0
   48.5520    9.8468   12.0497 C   0  0  0  0  0  0  0  0  0  0  0  0
   48.0578   11.1698   11.6538 N   0  0  0  0  0  0  0  0  0  0  0  0
   47.9609   12.0743   12.8065 C   0  0  0  0  0  0  0  0  0  0  0  0
   49.3201   12.2476   13.4823 C   0  0  0  0  0  0  0  0  0  0  0  0
   51.9871   12.0815   14.2935 O   0  0  0  0  0  0  0  0  0  0  0  0
   46.7637   11.0591   10.9836 C   0  0  0  0  0  0  0  0  0  0  0  0
   49.4698    7.2371   16.7991 O   0  0  0  0  0  0  0  0  0  0  0  0
   50.4073    7.3756   15.8425 C   0  0  0  0  0  0  0  0  0  0  0  0
   51.5843    7.4948   16.1382 O   0  0  0  0  0  0  0  0  0  0  0  0
   49.8360    7.3445   14.4542 C   0  0  0  0  0  0  0  0  0  0  0  0
   48.9004    8.5188   14.2152 C   0  0  0  0  0  0  0  0  0  0  0  0
   49.6639    9.8116   14.1728 C   0  0  0  0  0  0  0  0  0  0  0  0
   50.7536    9.9974   13.6594 O   0  0  0  0  0  0  0  0  0  0  0  0
   48.9985   10.8233   14.7592 O   0  0  0  0  0  0  0  0  0  0  0  0
   44.6076    9.2322   13.3815 H   0  0  0  0  0  0  0  0  0  0  0  0
   48.8721    9.2062   13.4616 H   0  0  0  0  0  0  0  0  0  0  0  0
   44.7958   11.8811   10.0131 H   0  0  0  0  0  0  0  0  0  0  0  0
   51.6444   10.5773   11.3435 H   0  0  0  0  0  0  0  0  0  0  0  0
   53.9708   10.1015   11.9842 H   0  0  0  0  0  0  0  0  0  0  0  0
   54.4303    8.7279   14.0160 H   0  0  0  0  0  0  0  0  0  0  0  0
   50.5469    6.9128   15.7027 H   0  0  0  0  0  0  0  0  0  0  0  0
   51.2852    4.9604   16.4692 H   0  0  0  0  0  0  0  0  0  0  0  0
   52.7489    5.5834   17.1910 H   0  0  0  0  0  0  0  0  0  0  0  0
   51.0423    4.5773   18.7742 H   0  0  0  0  0  0  0  0  0  0  0  0
   51.6721    6.1537   19.2515 H   0  0  0  0  0  0  0  0  0  0  0  0
   48.7548    7.9003   17.7562 H   0  0  0  0  0  0  0  0  0  0  0  0
   49.6929    8.1850   19.2178 H   0  0  0  0  0  0  0  0  0  0  0  0
   50.5925    9.0820   16.9422 H   0  0  0  0  0  0  0  0  0  0  0  0
   51.7038    8.4015   18.1144 H   0  0  0  0  0  0  0  0  0  0  0  0
   48.8799    4.7477   19.8038 H   0  0  0  0  0  0  0  0  0  0  0  0
   49.4312    6.2351   20.5987 H   0  0  0  0  0  0  0  0  0  0  0  0
   47.9300    6.2196   19.6469 H   0  0  0  0  0  0  0  0  0  0  0  0
   46.3132    4.9513   17.9946 H   0  0  0  0  0  0  0  0  0  0  0  0
   49.7232    7.1147   16.2077 H   0  0  0  0  0  0  0  0  0  0  0  0
   48.7834    1.5182   17.2348 H   0  0  0  0  0  0  0  0  0  0  0  0
   53.3167    7.0163   17.2495 H   0  0  0  0  0  0  0  0  0  0  0  0
   54.7799    8.9121   16.6806 H   0  0  0  0  0  0  0  0  0  0  0  0
   53.8550   10.8352   15.3876 H   0  0  0  0  0  0  0  0  0  0  0  0
   49.2612   10.4909   14.6964 H   0  0  0  0  0  0  0  0  0  0  0  0
   50.6640   10.2966   11.9661 H   0  0  0  0  0  0  0  0  0  0  0  0
   50.2527    8.9441   13.0054 H   0  0  0  0  0  0  0  0  0  0  0  0
   47.8497    9.3552   12.7364 H   0  0  0  0  0  0  0  0  0  0  0  0
   48.6435    9.2056   11.1638 H   0  0  0  0  0  0  0  0  0  0  0  0
   47.6168   13.0619   12.4742 H   0  0  0  0  0  0  0  0  0  0  0  0
   47.2287   11.7034   13.5360 H   0  0  0  0  0  0  0  0  0  0  0  0
   49.2138   12.8995   14.3583 H   0  0  0  0  0  0  0  0  0  0  0  0
   50.0021   12.7616   12.7915 H   0  0  0  0  0  0  0  0  0  0  0  0
   46.8383   10.4093   10.1041 H   0  0  0  0  0  0  0  0  0  0  0  0
   45.9893   10.6549   11.6455 H   0  0  0  0  0  0  0  0  0  0  0  0
   46.4326   12.0400   10.6212 H   0  0  0  0  0  0  0  0  0  0  0  0
   49.9794    7.2677   17.6371 H   0  0  0  0  0  0  0  0  0  0  0  0
   49.3029    6.3946   14.3286 H   0  0  0  0  0  0  0  0  0  0  0  0
   50.6661    7.3423   13.7389 H   0  0  0  0  0  0  0  0  0  0  0  0
   48.1384    8.5714   15.0013 H   0  0  0  0  0  0  0  0  0  0  0  0
   48.3856    8.4073   13.2542 H   0  0  0  0  0  0  0  0  0  0  0  0
   49.5989   11.5925   14.6609 H   0  0  0  0  0  0  0  0  0  0  0  0
  1  2  1  0
  1 12  2  0
  3  1  1  0
  3  4  2  0
  4  6  1  0
  5  4  1  0
  7  8  2  0
  8  9  1  0
  8  6  1  0
  9 15  1  0
 10 11  1  0
 10  6  2  0
 12 10  1  0
 13 14  2  0
 14 18  1  0
 15 13  1  0
 15 16  2  0
 16 17  1  0
 18 17  2  0
 19 14  1  0
 19 20  1  0
 20 21  1  0
 21 22  1  0
 22 23  1  0
 23 24  1  0
 23 27  1  0
 24 25  1  0
 25 20  1  0
 26 19  2  0
 28 29  1  0
 28 39  2  0
 30 28  1  0
 30 31  2  0
 31 33  1  0
 32 31  1  0
 34 35  2  0
 35 36  1  0
 35 33  1  0
 36 42  1  0
 37 38  1  0
 37 33  2  0
 39 37  1  0
 40 41  2  0
 41 45  1  0
 42 40  1  0
 42 43  2  0
 43 44  1  0
 45 44  2  0
 46 41  1  0
 46 47  1  0
 47 48  1  0
 48 49  1  0
 49 50  1  0
 50 51  1  0
 50 54  1  0
 51 52  1  0
 52 47  1  0
 53 46  2  0
 55 56  1  0
 56 57  2  0
 56 58  1  0
 58 59  1  0
 59 60  1  0
 60 61  2  0
 60 62  1  0
  3 63  1  0
  9 64  1  0
 12 65  1  0
 16 66  1  0
 17 67  1  0
 18 68  1  0
 20 69  1  0
 21 70  1  0
 21 71  1  0
 22 72  1  0
 22 73  1  0
 24 74  1  0
 24 75  1  0
 25 76  1  0
 25 77  1  0
 27 78  1  0
 27 79  1  0
 27 80  1  0
 30 81  1  0
 36 82  1  0
 39 83  1  0
 43 84  1  0
 44 85  1  0
 45 86  1  0
 47 87  1  0
 48 88  1  0
 48 89  1  0
 49 90  1  0
 49 91  1  0
 51 92  1  0
 51 93  1  0
 52 94  1  0
 52 95  1  0
 54 96  1  0
 54 97  1  0
 54 98  1  0
 55 99  1  0
 58100  1  0
 58101  1  0
 59102  1  0
 59103  1  0
 62104  1  0
M  END
> <Uni-Dock RESULT> 
ENERGY=   -5.261  LOWER_BOUND=    3.633  UPPER_BOUND=    7.624
INTER + INTRA:          -5.261
INTER:                  -5.261
INTRA:                   0.000
UNBOUND:                 0.000

$$$$

     RDKit          3D

104107  0  0  0  0  0  0  0  0999 V2000
   45.7096    4.6971   12.5493 C   0  0  0  0  0  0  0  0  0  0  0  0
   45.0224    3.6454   12.0893 F   0  0  0  0  0  0  0  0  0  0  0  0
   45.5511    5.9351   11.9466 C   0  0  0  0  0  0  0  0  0  0  0  0
   46.2730    7.0248   12.4303 C   0  0  0  0  0  0  0  0  0  0  0  0
   46.0921    8.2048   11.8174 F   0  0  0  0  0  0  0  0  0  0  0  0
   47.1527    6.9022   13.5118 C   0  0  0  0  0  0  0  0  0  0  0  0
   48.6304    7.8976   15.0450 O   0  0  0  0  0  0  0  0  0  0  0  0
   47.9342    8.0573   14.0492 C   0  0  0  0  0  0  0  0  0  0  0  0
   47.8172    9.2484   13.3674 N   0  0  0  0  0  0  0  0  0  0  0  0
   47.2869    5.6353   14.0962 C   0  0  0  0  0  0  0  0  0  0  0  0
   48.1125    5.4227   15.1303 F   0  0  0  0  0  0  0  0  0  0  0  0
   46.5728    4.5355   13.6216 C   0  0  0  0  0  0  0  0  0  0  0  0
   48.1022   11.4354   12.7613 N   0  0  0  0  0  0  0  0  0  0  0  0
   48.6547   12.6624   12.9336 C   0  0  0  0  0  0  0  0  0  0  0  0
   48.4369   10.4696   13.6410 C   0  0  0  0  0  0  0  0  0  0  0  0
   49.3118   10.6919   14.6952 C   0  0  0  0  0  0  0  0  0  0  0  0
   49.8681   11.9601   14.8560 C   0  0  0  0  0  0  0  0  0  0  0  0
   49.5380   12.9674   13.9599 C   0  0  0  0  0  0  0  0  0  0  0  0
   48.2834   13.7171   11.9416 C   0  0  0  0  0  0  0  0  0  0  0  0
   47.2651   13.3652   10.8579 C   0  0  0  0  0  0  0  0  0  0  0  0
   46.4306   14.5935   10.4434 C   0  0  0  0  0  0  0  0  0  0  0  0
   46.1787   14.6688    8.9339 C   0  0  0  0  0  0  0  0  0  0  0  0
   45.8748   13.3328    8.4220 N   0  0  0  0  0  0  0  0  0  0  0  0
   47.0372   12.4383    8.5034 C   0  0  0  0  0  0  0  0  0  0  0  0
   47.9955   12.7669    9.6540 C   0  0  0  0  0  0  0  0  0  0  0  0
   48.8284   14.8196   12.0019 O   0  0  0  0  0  0  0  0  0  0  0  0
   45.3483   13.3827    7.0611 C   0  0  0  0  0  0  0  0  0  0  0  0
   42.0185   13.0448    8.6631 C   0  0  0  0  0  0  0  0  0  0  0  0
   40.7955   12.7360    8.2178 F   0  0  0  0  0  0  0  0  0  0  0  0
   43.0834   12.2046    8.3685 C   0  0  0  0  0  0  0  0  0  0  0  0
   44.3518   12.5298    8.8420 C   0  0  0  0  0  0  0  0  0  0  0  0
   45.3668   11.7016    8.5524 F   0  0  0  0  0  0  0  0  0  0  0  0
   44.5671   13.6805    9.6002 C   0  0  0  0  0  0  0  0  0  0  0  0
   46.2384   15.2349   10.0521 O   0  0  0  0  0  0  0  0  0  0  0  0
   45.9181   14.0529   10.0768 C   0  0  0  0  0  0  0  0  0  0  0  0
   46.6999   13.0065   10.5102 N   0  0  0  0  0  0  0  0  0  0  0  0
   43.4774   14.5095    9.8779 C   0  0  0  0  0  0  0  0  0  0  0  0
   43.6207   15.6127   10.6292 F   0  0  0  0  0  0  0  0  0  0  0  0
   42.2014   14.1976    9.4167 C   0  0  0  0  0  0  0  0  0  0  0  0
   48.4721   11.8469   11.3883 N   0  0  0  0  0  0  0  0  0  0  0  0
   49.7336   11.7914   11.8877 C   0  0  0  0  0  0  0  0  0  0  0  0
   48.0046   13.0539   11.0064 C   0  0  0  0  0  0  0  0  0  0  0  0
   48.7634   14.2125   11.1056 C   0  0  0  0  0  0  0  0  0  0  0  0
   50.0601   14.1311   11.6099 C   0  0  0  0  0  0  0  0  0  0  0  0
   50.5609   12.8990   12.0074 C   0  0  0  0  0  0  0  0  0  0  0  0
   50.2321   10.4532   12.3284 C   0  0  0  0  0  0  0  0  0  0  0  0
   49.2379    9.2946   12.3701 C   0  0  0  0  0  0  0  0  0  0  0  0
   48.3030    9.4362   13.5754 C   0  0  0  0  0  0  0  0  0  0  0  0
   47.3709    8.2316   13.7014 C   0  0  0  0  0  0  0  0  0  0  0  0
   48.1326    6.9810   13.7844 N   0  0  0  0  0  0  0  0  0  0  0  0
   48.9827    6.7902   12.6024 C   0  0  0  0  0  0  0  0  0  0  0  0
   49.9677    7.9472   12.4439 C   0  0  0  0  0  0  0  0  0  0  0  0
   51.4129   10.3276   12.6536 O   0  0  0  0  0  0  0  0  0  0  0  0
   47.2358    5.8397   13.9557 C   0  0  0  0  0  0  0  0  0  0  0  0
   46.3851   12.0009    9.8244 O   0  0  0  0  0  0  0  0  0  0  0  0
   46.8836   12.3060   11.0375 C   0  0  0  0  0  0  0  0  0  0  0  0
   47.6711   13.2272   11.1722 O   0  0  0  0  0  0  0  0  0  0  0  0
   46.3513   11.4219   12.1283 C   0  0  0  0  0  0  0  0  0  0  0  0
   46.7691    9.9750   11.9201 C   0  0  0  0  0  0  0  0  0  0  0  0
   48.2479    9.8099   12.1250 C   0  0  0  0  0  0  0  0  0  0  0  0
   48.9304   10.3536   12.9761 O   0  0  0  0  0  0  0  0  0  0  0  0
   48.7948    8.9380   11.2585 O   0  0  0  0  0  0  0  0  0  0  0  0
   44.8754    6.0528   11.1063 H   0  0  0  0  0  0  0  0  0  0  0  0
   47.2151    9.3118   12.5545 H   0  0  0  0  0  0  0  0  0  0  0  0
   46.6937    3.5641   14.0893 H   0  0  0  0  0  0  0  0  0  0  0  0
   49.5787    9.9147   15.4009 H   0  0  0  0  0  0  0  0  0  0  0  0
   50.5576   12.1543   15.6735 H   0  0  0  0  0  0  0  0  0  0  0  0
   49.9611   13.9618   14.0601 H   0  0  0  0  0  0  0  0  0  0  0  0
   46.5603   12.6240   11.2556 H   0  0  0  0  0  0  0  0  0  0  0  0
   45.4664   14.5383   10.9668 H   0  0  0  0  0  0  0  0  0  0  0  0
   46.8853   15.5370   10.7656 H   0  0  0  0  0  0  0  0  0  0  0  0
   45.3355   15.3517    8.7668 H   0  0  0  0  0  0  0  0  0  0  0  0
   47.0459   15.1026    8.4170 H   0  0  0  0  0  0  0  0  0  0  0  0
   46.6690   11.4130    8.6240 H   0  0  0  0  0  0  0  0  0  0  0  0
   47.6221   12.4561    7.5748 H   0  0  0  0  0  0  0  0  0  0  0  0
   48.5417   11.8593    9.9392 H   0  0  0  0  0  0  0  0  0  0  0  0
   48.7560   13.4775    9.3008 H   0  0  0  0  0  0  0  0  0  0  0  0
   44.4263   13.9735    7.0235 H   0  0  0  0  0  0  0  0  0  0  0  0
   46.0639   13.8229    6.3575 H   0  0  0  0  0  0  0  0  0  0  0  0
   45.0924   12.3764    6.7093 H   0  0  0  0  0  0  0  0  0  0  0  0
   42.9295   11.3095    7.7751 H   0  0  0  0  0  0  0  0  0  0  0  0
   46.3423   12.0603   10.4753 H   0  0  0  0  0  0  0  0  0  0  0  0
   41.3606   14.8453    9.6466 H   0  0  0  0  0  0  0  0  0  0  0  0
   48.3855   15.1797   10.7953 H   0  0  0  0  0  0  0  0  0  0  0  0
   50.6734   15.0252   11.6898 H   0  0  0  0  0  0  0  0  0  0  0  0
   51.5677   12.8083   12.4045 H   0  0  0  0  0  0  0  0  0  0  0  0
   48.6573    9.3018   11.4380 H   0  0  0  0  0  0  0  0  0  0  0  0
   48.8934    9.5438   14.4952 H   0  0  0  0  0  0  0  0  0  0  0  0
   47.6973   10.3461   13.4931 H   0  0  0  0  0  0  0  0  0  0  0  0
   46.6741    8.2109   12.8525 H   0  0  0  0  0  0  0  0  0  0  0  0
   46.7713    8.3608   14.6114 H   0  0  0  0  0  0  0  0  0  0  0  0
   49.5600    5.8628   12.7073 H   0  0  0  0  0  0  0  0  0  0  0  0
   48.3748    6.6936   11.6930 H   0  0  0  0  0  0  0  0  0  0  0  0
   50.5666    7.7976   11.5369 H   0  0  0  0  0  0  0  0  0  0  0  0
   50.6712    7.9387   13.2874 H   0  0  0  0  0  0  0  0  0  0  0  0
   46.6207    5.9631   14.8545 H   0  0  0  0  0  0  0  0  0  0  0  0
   46.5678    5.7070   13.0970 H   0  0  0  0  0  0  0  0  0  0  0  0
   47.8105    4.9157   14.0939 H   0  0  0  0  0  0  0  0  0  0  0  0
   46.8068   12.6521    9.2237 H   0  0  0  0  0  0  0  0  0  0  0  0
   45.2585   11.5111   12.1336 H   0  0  0  0  0  0  0  0  0  0  0  0
   46.7082   11.8069   13.0901 H   0  0  0  0  0  0  0  0  0  0  0  0
   46.5011    9.6370   10.9125 H   0  0  0  0  0  0  0  0  0  0  0  0
   46.2609    9.3236   12.6400 H   0  0  0  0  0  0  0  0  0  0  0  0
   49.7451    8.9253   11.5005 H   0  0  0  0  0  0  0  0  0  0  0  0
  1  2  1  0
  1 12  2  0
  3  1  1  0
  3  4  2  0
  4  6  1  0
  5  4  1  0
  7  8  2  0
  8  9  1  0
  8  6  1  0
  9 15  1  0
 10 11  1  0
 10  6  2  0
 12 10  1  0
 13 14  2  0
 14 18  1  0
 15 13  1  0
 15 16  2  0
 16 17  1  0
 18 17  2  0
 19 14  1  0
 19 20  1  0
 20 21  1  0
 21 22  1  0
 22 23  1  0
 23 24  1  0
 23 27  1  0
 24 25  1  0
 25 20  1  0
 26 19  2  0
 28 29  1  0
 28 39  2  0
 30 28  1  0
 30 31  2  0
 31 33  1  0
 32 31  1  0
 34 35  2  0
 35 36  1  0
 35 33  1  0
 36 42  1  0
 37 38  1  0
 37 33  2  0
 39 37  1  0
 40 41  2  0
 41 45  1  0
 42 40  1  0
 42 43  2  0
 43 44  1  0
 45 44  2  0
 46 41  1  0
 46 47  1  0
 47 48  1  0
 48 49  1  0
 49 50  1  0
 50 51  1  0
 50 54  1  0
 51 52  1  0
 52 47  1  0
 53 46  2  0
 55 56  1  0
 56 57  2  0
 56 58  1  0
 58 59  1  0
 59 60  1  0
 60 61  2  0
 60 62  1  0
  3 63  1  0
  9 64  1  0
 12 65  1  0
 16 66  1  0
 17 67  1  0
 18 68  1  0
 20 69  1  0
 21 70  1  0
 21 71  1  0
 22 72  1  0
 22 73  1  0
 24 74  1  0
 24 75  1  0
 25 76  1  0
 25 77  1  0
 27 78  1  0
 27 79  1  0
 27 80  1  0
 30 81  1  0
 36 82  1  0
 39 83  1  0
 43 84  1  0
 44 85  1  0
 45 86  1  0
 47 87  1  0
 48 88  1  0
 48 89  1  0
 49 90  1  0
 49 91  1  0
 51 92  1  0
 51 93  1  0
 52 94  1  0
 52 95  1  0
 54 96  1  0
 54 97  1  0
 54 98  1  0
 55 99  1  0
 58100  1  0
 58101  1  0
 59102  1  0
 59103  1  0
 62104  1  0
M  END
> <Uni-Dock RESULT> 
ENERGY=   -4.997  LOWER_BOUND=    5.042  UPPER_BOUND=    7.585
INTER + INTRA:          -4.997
INTER:                  -4.997
INTRA:                   0.000
UNBOUND:                 0.000

$$$$

     RDKit          3D

104107  0  0  0  0  0  0  0  0999 V2000
   50.0576    2.6469   17.3111 C   0  0  0  0  0  0  0  0  0  0  0  0
   50.6933    1.5571   16.8660 F   0  0  0  0  0  0  0  0  0  0  0  0
   50.7923    3.7198   17.7910 C   0  0  0  0  0  0  0  0  0  0  0  0
   50.1220    4.8501   18.2554 C   0  0  0  0  0  0  0  0  0  0  0  0
   50.8703    5.8655   18.7134 F   0  0  0  0  0  0  0  0  0  0  0  0
   48.7248    4.9313   18.2475 C   0  0  0  0  0  0  0  0  0  0  0  0
   46.7648    6.1698   18.6336 O   0  0  0  0  0  0  0  0  0  0  0  0
   47.9852    6.1342   18.7372 C   0  0  0  0  0  0  0  0  0  0  0  0
   48.7467    7.1410   19.2884 N   0  0  0  0  0  0  0  0  0  0  0  0
   48.0154    3.8275   17.7547 C   0  0  0  0  0  0  0  0  0  0  0  0
   46.6758    3.8134   17.7171 F   0  0  0  0  0  0  0  0  0  0  0  0
   48.6724    2.6891   17.2888 C   0  0  0  0  0  0  0  0  0  0  0  0
   49.3372    9.1108   20.2900 N   0  0  0  0  0  0  0  0  0  0  0  0
   49.0303   10.3120   20.8406 C   0  0  0  0  0  0  0  0  0  0  0  0
   48.3195    8.3563   19.8277 C   0  0  0  0  0  0  0  0  0  0  0  0
   46.9955    8.7667   19.8976 C   0  0  0  0  0  0  0  0  0  0  0  0
   46.7008   10.0052   20.4659 C   0  0  0  0  0  0  0  0  0  0  0  0
   47.7339   10.7959   20.9496 C   0  0  0  0  0  0  0  0  0  0  0  0
   50.1691   11.1290   21.3603 C   0  0  0  0  0  0  0  0  0  0  0  0
   51.5882   10.5939   21.1737 C   0  0  0  0  0  0  0  0  0  0  0  0
   52.6098   11.7379   21.0171 C   0  0  0  0  0  0  0  0  0  0  0  0
   53.9241   11.4775   21.7603 C   0  0  0  0  0  0  0  0  0  0  0  0
   54.3141   10.0785   21.5880 N   0  0  0  0  0  0  0  0  0  0  0  0
   53.3835    9.1641   22.2632 C   0  0  0  0  0  0  0  0  0  0  0  0
   51.9487    9.6952   22.3584 C   0  0  0  0  0  0  0  0  0  0  0  0
   49.9340   12.1840   21.9501 O   0  0  0  0  0  0  0  0  0  0  0  0
   55.6873    9.8428   22.0246 C   0  0  0  0  0  0  0  0  0  0  0  0
   56.5478   10.0667   18.4222 C   0  0  0  0  0  0  0  0  0  0  0  0
   57.6202    9.7317   17.6961 F   0  0  0  0  0  0  0  0  0  0  0  0
   55.9720    9.1239   19.2625 C   0  0  0  0  0  0  0  0  0  0  0  0
   54.8516    9.4789   20.0093 C   0  0  0  0  0  0  0  0  0  0  0  0
   54.3055    8.5516   20.8105 F   0  0  0  0  0  0  0  0  0  0  0  0
   54.3051   10.7595   19.9281 C   0  0  0  0  0  0  0  0  0  0  0  0
   53.1204   12.2816   21.2294 O   0  0  0  0  0  0  0  0  0  0  0  0
   53.1365   11.1565   20.7454 C   0  0  0  0  0  0  0  0  0  0  0  0
   52.1603   10.1964   20.8842 N   0  0  0  0  0  0  0  0  0  0  0  0
   54.9080   11.6889   19.0770 C   0  0  0  0  0  0  0  0  0  0  0  0
   54.4058   12.9258   18.9356 F   0  0  0  0  0  0  0  0  0  0  0  0
   56.0257   11.3500   18.3193 C   0  0  0  0  0  0  0  0  0  0  0  0
   50.2000    9.1742   21.4913 N   0  0  0  0  0  0  0  0  0  0  0  0
   49.0100    9.1657   22.1451 C   0  0  0  0  0  0  0  0  0  0  0  0
   50.9599   10.2848   21.5928 C   0  0  0  0  0  0  0  0  0  0  0  0
   50.5672   11.3915   22.3336 C   0  0  0  0  0  0  0  0  0  0  0  0
   49.3472   11.3569   23.0068 C   0  0  0  0  0  0  0  0  0  0  0  0
   48.5507   10.2237   22.9165 C   0  0  0  0  0  0  0  0  0  0  0  0
   48.1669    7.9394   22.0068 C   0  0  0  0  0  0  0  0  0  0  0  0
   48.6031    6.8781   20.9989 C   0  0  0  0  0  0  0  0  0  0  0  0
   48.3065    7.3446   19.5701 C   0  0  0  0  0  0  0  0  0  0  0  0
   48.6327    6.2546   18.5497 C   0  0  0  0  0  0  0  0  0  0  0  0
   47.9053    5.0166   18.8488 N   0  0  0  0  0  0  0  0  0  0  0  0
   48.2312    4.5123   20.1889 C   0  0  0  0  0  0  0  0  0  0  0  0
   47.8892    5.5457   21.2609 C   0  0  0  0  0  0  0  0  0  0  0  0
   47.1502    7.8271   22.6920 O   0  0  0  0  0  0  0  0  0  0  0  0
   48.1837    3.9965   17.8397 C   0  0  0  0  0  0  0  0  0  0  0  0
   52.7362    9.0789   20.8720 O   0  0  0  0  0  0  0  0  0  0  0  0
   51.5437    9.6271   20.5711 C   0  0  0  0  0  0  0  0  0  0  0  0
   51.0718   10.5097   21.2677 O   0  0  0  0  0  0  0  0  0  0  0  0
   50.9304    9.0484   19.3286 C   0  0  0  0  0  0  0  0  0  0  0  0
   50.6146    7.5717   19.5045 C   0  0  0  0  0  0  0  0  0  0  0  0
   49.4934    7.3769   20.4848 C   0  0  0  0  0  0  0  0  0  0  0  0
   48.4919    8.0634   20.5915 O   0  0  0  0  0  0  0  0  0  0  0  0
   49.6761    6.3003   21.2706 O   0  0  0  0  0  0  0  0  0  0  0  0
   51.8760    3.6780   17.8074 H   0  0  0  0  0  0  0  0  0  0  0  0
   49.7550    7.0487   19.3345 H   0  0  0  0  0  0  0  0  0  0  0  0
   48.1022    1.8462   16.9127 H   0  0  0  0  0  0  0  0  0  0  0  0
   46.1797    8.1593   19.5249 H   0  0  0  0  0  0  0  0  0  0  0  0
   45.6701   10.3441   20.5327 H   0  0  0  0  0  0  0  0  0  0  0  0
   47.5307   11.7618   21.4010 H   0  0  0  0  0  0  0  0  0  0  0  0
   51.6301   10.0041   20.2492 H   0  0  0  0  0  0  0  0  0  0  0  0
   52.8200   11.8579   19.9455 H   0  0  0  0  0  0  0  0  0  0  0  0
   52.2112   12.7037   21.3474 H   0  0  0  0  0  0  0  0  0  0  0  0
   54.6857   12.1491   21.3431 H   0  0  0  0  0  0  0  0  0  0  0  0
   53.8250   11.7323   22.8246 H   0  0  0  0  0  0  0  0  0  0  0  0
   53.3801    8.2159   21.7133 H   0  0  0  0  0  0  0  0  0  0  0  0
   53.7165    8.9354   23.2838 H   0  0  0  0  0  0  0  0  0  0  0  0
   51.2547    8.8490   22.4329 H   0  0  0  0  0  0  0  0  0  0  0  0
   51.8332   10.2625   23.2927 H   0  0  0  0  0  0  0  0  0  0  0  0
   56.3879   10.4590   21.4503 H   0  0  0  0  0  0  0  0  0  0  0  0
   55.8270   10.0691   23.0877 H   0  0  0  0  0  0  0  0  0  0  0  0
   55.9726    8.7982   21.8534 H   0  0  0  0  0  0  0  0  0  0  0  0
   56.3912    8.1261   19.3384 H   0  0  0  0  0  0  0  0  0  0  0  0
   52.2792    9.2889   20.4525 H   0  0  0  0  0  0  0  0  0  0  0  0
   56.4802   12.0786   17.6545 H   0  0  0  0  0  0  0  0  0  0  0  0
   51.1814   12.2807   22.4151 H   0  0  0  0  0  0  0  0  0  0  0  0
   49.0239   12.2103   23.5977 H   0  0  0  0  0  0  0  0  0  0  0  0
   47.5954   10.1715   23.4306 H   0  0  0  0  0  0  0  0  0  0  0  0
   49.6799    6.7026   21.1237 H   0  0  0  0  0  0  0  0  0  0  0  0
   47.2492    7.6283   19.4819 H   0  0  0  0  0  0  0  0  0  0  0  0
   48.8851    8.2431   19.3263 H   0  0  0  0  0  0  0  0  0  0  0  0
   49.7164    6.0775   18.5291 H   0  0  0  0  0  0  0  0  0  0  0  0
   48.3442    6.6226   17.5568 H   0  0  0  0  0  0  0  0  0  0  0  0
   47.6511    3.6036   20.3937 H   0  0  0  0  0  0  0  0  0  0  0  0
   49.2934    4.2427   20.2593 H   0  0  0  0  0  0  0  0  0  0  0  0
   48.1729    5.1586   22.2475 H   0  0  0  0  0  0  0  0  0  0  0  0
   46.8009    5.6928   21.2844 H   0  0  0  0  0  0  0  0  0  0  0  0
   47.9128    4.3572   16.8408 H   0  0  0  0  0  0  0  0  0  0  0  0
   49.2406    3.7069   17.8263 H   0  0  0  0  0  0  0  0  0  0  0  0
   47.5804    3.0990   18.0230 H   0  0  0  0  0  0  0  0  0  0  0  0
   53.0156    9.5502   21.6860 H   0  0  0  0  0  0  0  0  0  0  0  0
   51.6355    9.1965   18.5023 H   0  0  0  0  0  0  0  0  0  0  0  0
   50.0298    9.6242   19.0876 H   0  0  0  0  0  0  0  0  0  0  0  0
   51.5000    7.0262   19.8507 H   0  0  0  0  0  0  0  0  0  0  0  0
   50.3000    7.1325   18.5510 H   0  0  0  0  0  0  0  0  0  0  0  0
   48.8854    6.2912   21.8507 H   0  0  0  0  0  0  0  0  0  0  0  0
  1  2  1  0
  1 12  2  0
  3  1  1  0
  3  4  2  0
  4  6  1  0
  5  4  1  0
  7  8  2  0
  8  9  1  0
  8  6  1  0
  9 15  1  0
 10 11  1  0
 10  6  2  0
 12 10  1  0
 13 14  2  0
 14 18  1  0
 15 13  1  0
 15 16  2  0
 16 17  1  0
 18 17  2  0
 19 14  1  0
 19 20  1  0
 20 21  1  0
 21 22  1  0
 22 23  1  0
 23 24  1  0
 23 27  1  0
 24 25  1  0
 25 20  1  0
 26 19  2  0
 28 29  1  0
 28 39  2  0
 30 28  1  0
 30 31  2  0
 31 33  1  0
 32 31  1  0
 34 35  2  0
 35 36  1  0
 35 33  1  0
 36 42  1  0
 37 38  1  0
 37 33  2  0
 39 37  1  0
 40 41  2  0
 41 45  1  0
 42 40  1  0
 42 43  2  0
 43 44  1  0
 45 44  2  0
 46 41  1  0
 46 47  1  0
 47 48  1  0
 48 49  1  0
 49 50  1  0
 50 51  1  0
 50 54  1  0
 51 52  1  0
 52 47  1  0
 53 46  2  0
 55 56  1  0
 56 57  2  0
 56 58  1  0
 58 59  1  0
 59 60  1  0
 60 61  2  0
 60 62  1  0
  3 63  1  0
  9 64  1  0
 12 65  1  0
 16 66  1  0
 17 67  1  0
 18 68  1  0
 20 69  1  0
 21 70  1  0
 21 71  1  0
 22 72  1  0
 22 73  1  0
 24 74  1  0
 24 75  1  0
 25 76  1  0
 25 77  1  0
 27 78  1  0
 27 79  1  0
 27 80  1  0
 30 81  1  0
 36 82  1  0
 39 83  1  0
 43 84  1  0
 44 85  1  0
 45 86  1  0
 47 87  1  0
 48 88  1  0
 48 89  1  0
 49 90  1  0
 49 91  1  0
 51 92  1  0
 51 93  1  0
 52 94  1  0
 52 95  1  0
 54 96  1  0
 54 97  1  0
 54 98  1  0
 55 99  1  0
 58100  1  0
 58101  1  0
 59102  1  0
 59103  1  0
 62104  1  0
M  END
> <Uni-Dock RESULT> 
ENERGY=   -4.974  LOWER_BOUND=    4.223  UPPER_BOUND=    6.968
INTER + INTRA:          -4.974
INTER:                  -4.974
INTRA:                   0.000
UNBOUND:                 0.000

$$$$

     RDKit          3D

104107  0  0  0  0  0  0  0  0999 V2000
   47.2003   12.7840   20.5863 C   0  0  0  0  0  0  0  0  0  0  0  0
   46.4116   13.5845   21.3124 F   0  0  0  0  0  0  0  0  0  0  0  0
   47.1926   12.8863   19.2041 C   0  0  0  0  0  0  0  0  0  0  0  0
   48.0152   12.0467   18.4551 C   0  0  0  0  0  0  0  0  0  0  0  0
   47.9762   12.1765   17.1200 F   0  0  0  0  0  0  0  0  0  0  0  0
   48.8517   11.1036   19.0631 C   0  0  0  0  0  0  0  0  0  0  0  0
   50.5062    9.4443   18.8776 O   0  0  0  0  0  0  0  0  0  0  0  0
   49.7443   10.1956   18.2804 C   0  0  0  0  0  0  0  0  0  0  0  0
   49.6415   10.2661   16.9086 N   0  0  0  0  0  0  0  0  0  0  0  0
   48.8332   11.0292   20.4625 C   0  0  0  0  0  0  0  0  0  0  0  0
   49.5945   10.1507   21.1293 F   0  0  0  0  0  0  0  0  0  0  0  0
   48.0137   11.8613   21.2248 C   0  0  0  0  0  0  0  0  0  0  0  0
   49.9856    9.8519   14.6855 N   0  0  0  0  0  0  0  0  0  0  0  0
   50.6018    9.1921   13.6729 C   0  0  0  0  0  0  0  0  0  0  0  0
   50.3399    9.5327   15.9470 C   0  0  0  0  0  0  0  0  0  0  0  0
   51.2973    8.5690   16.2314 C   0  0  0  0  0  0  0  0  0  0  0  0
   51.9200    7.9029   15.1767 C   0  0  0  0  0  0  0  0  0  0  0  0
   51.5679    8.2155   13.8709 C   0  0  0  0  0  0  0  0  0  0  0  0
   50.1872    9.5487   12.2818 C   0  0  0  0  0  0  0  0  0  0  0  0
   49.1629   10.6674   12.0960 C   0  0  0  0  0  0  0  0  0  0  0  0
   49.3881   11.4290   10.7745 C   0  0  0  0  0  0  0  0  0  0  0  0
   48.0833   11.7825   10.0534 C   0  0  0  0  0  0  0  0  0  0  0  0
   47.0903   12.2283   11.0303 N   0  0  0  0  0  0  0  0  0  0  0  0
   46.6724   11.1382   11.9219 C   0  0  0  0  0  0  0  0  0  0  0  0
   47.7530   10.0761   12.1547 C   0  0  0  0  0  0  0  0  0  0  0  0
   50.6507    8.9144   11.3336 O   0  0  0  0  0  0  0  0  0  0  0  0
   45.9361   12.8461   10.3839 C   0  0  0  0  0  0  0  0  0  0  0  0
   47.5697   16.0677   11.2326 C   0  0  0  0  0  0  0  0  0  0  0  0
   47.1598   17.3405   11.2711 F   0  0  0  0  0  0  0  0  0  0  0  0
   46.8452   15.0974   11.9109 C   0  0  0  0  0  0  0  0  0  0  0  0
   47.2829   13.7762   11.8715 C   0  0  0  0  0  0  0  0  0  0  0  0
   46.5729   12.8542   12.5391 F   0  0  0  0  0  0  0  0  0  0  0  0
   48.4290   13.4155   11.1632 C   0  0  0  0  0  0  0  0  0  0  0  0
   49.3238   11.5971   10.0202 O   0  0  0  0  0  0  0  0  0  0  0  0
   48.8812   12.0081   11.0858 C   0  0  0  0  0  0  0  0  0  0  0  0
   48.7547   11.2832   12.2487 N   0  0  0  0  0  0  0  0  0  0  0  0
   49.1361   14.4125   10.4866 C   0  0  0  0  0  0  0  0  0  0  0  0
   50.2631   14.1277    9.8152 F   0  0  0  0  0  0  0  0  0  0  0  0
   48.7157   15.7393   10.5190 C   0  0  0  0  0  0  0  0  0  0  0  0
   48.8834    9.5504   13.7445 N   0  0  0  0  0  0  0  0  0  0  0  0
   49.1852    8.2647   14.0598 C   0  0  0  0  0  0  0  0  0  0  0  0
   49.0926    9.9464   12.4714 C   0  0  0  0  0  0  0  0  0  0  0  0
   49.5936    9.0923   11.4981 C   0  0  0  0  0  0  0  0  0  0  0  0
   49.8854    7.7732   11.8404 C   0  0  0  0  0  0  0  0  0  0  0  0
   49.6765    7.3451   13.1442 C   0  0  0  0  0  0  0  0  0  0  0  0
   48.9709    7.8440   15.4778 C   0  0  0  0  0  0  0  0  0  0  0  0
   48.6203    8.9220   16.5014 C   0  0  0  0  0  0  0  0  0  0  0  0
   49.8598    9.7531   16.8476 C   0  0  0  0  0  0  0  0  0  0  0  0
   49.5597   10.7669   17.9511 C   0  0  0  0  0  0  0  0  0  0  0  0
   49.0334   10.1035   19.1487 N   0  0  0  0  0  0  0  0  0  0  0  0
   47.8027    9.3590   18.8534 C   0  0  0  0  0  0  0  0  0  0  0  0
   48.0481    8.2988   17.7811 C   0  0  0  0  0  0  0  0  0  0  0  0
   49.0941    6.6567   15.7790 O   0  0  0  0  0  0  0  0  0  0  0  0
   48.7974   11.0739   20.2159 C   0  0  0  0  0  0  0  0  0  0  0  0
   47.7448   11.7260   12.8526 O   0  0  0  0  0  0  0  0  0  0  0  0
   48.9177   11.1184   13.1140 C   0  0  0  0  0  0  0  0  0  0  0  0
   49.3481   10.2522   12.3715 O   0  0  0  0  0  0  0  0  0  0  0  0
   49.5828   11.6394   14.3553 C   0  0  0  0  0  0  0  0  0  0  0  0
   48.7455   11.3546   15.5920 C   0  0  0  0  0  0  0  0  0  0  0  0
   48.7141    9.8828   15.8900 C   0  0  0  0  0  0  0  0  0  0  0  0
   49.6424    9.0994   15.7894 O   0  0  0  0  0  0  0  0  0  0  0  0
   47.5119    9.4714   16.3320 O   0  0  0  0  0  0  0  0  0  0  0  0
   46.5513   13.6094   18.7118 H   0  0  0  0  0  0  0  0  0  0  0  0
   48.9948   10.9184   16.4801 H   0  0  0  0  0  0  0  0  0  0  0  0
   48.0153   11.7849   22.3070 H   0  0  0  0  0  0  0  0  0  0  0  0
   51.5807    8.3147   17.2454 H   0  0  0  0  0  0  0  0  0  0  0  0
   52.6706    7.1429   15.3779 H   0  0  0  0  0  0  0  0  0  0  0  0
   52.0342    7.7081   13.0324 H   0  0  0  0  0  0  0  0  0  0  0  0
   49.2802   11.3987   12.9059 H   0  0  0  0  0  0  0  0  0  0  0  0
   49.9328   12.3542   11.0071 H   0  0  0  0  0  0  0  0  0  0  0  0
   50.0301   10.8783   10.0778 H   0  0  0  0  0  0  0  0  0  0  0  0
   48.3033   12.5783    9.3298 H   0  0  0  0  0  0  0  0  0  0  0  0
   47.7132   10.9230    9.4773 H   0  0  0  0  0  0  0  0  0  0  0  0
   46.3869   11.5774   12.8847 H   0  0  0  0  0  0  0  0  0  0  0  0
   45.7843   10.6224   11.5349 H   0  0  0  0  0  0  0  0  0  0  0  0
   47.5747    9.5849   13.1192 H   0  0  0  0  0  0  0  0  0  0  0  0
   47.6576    9.2888   11.3937 H   0  0  0  0  0  0  0  0  0  0  0  0
   46.2420   13.7182    9.7954 H   0  0  0  0  0  0  0  0  0  0  0  0
   45.4154   12.1503    9.7163 H   0  0  0  0  0  0  0  0  0  0  0  0
   45.2212   13.2062   11.1330 H   0  0  0  0  0  0  0  0  0  0  0  0
   45.9491   15.3648   12.4610 H   0  0  0  0  0  0  0  0  0  0  0  0
   48.3611   11.7168   13.0741 H   0  0  0  0  0  0  0  0  0  0  0  0
   49.2787   16.5069    9.9964 H   0  0  0  0  0  0  0  0  0  0  0  0
   49.7577    9.4132   10.4759 H   0  0  0  0  0  0  0  0  0  0  0  0
   50.2724    7.0863   11.0918 H   0  0  0  0  0  0  0  0  0  0  0  0
   49.8965    6.3227   13.4372 H   0  0  0  0  0  0  0  0  0  0  0  0
   47.8403    9.5660   16.0739 H   0  0  0  0  0  0  0  0  0  0  0  0
   50.6760    9.0911   17.1665 H   0  0  0  0  0  0  0  0  0  0  0  0
   50.2281   10.2886   15.9649 H   0  0  0  0  0  0  0  0  0  0  0  0
   48.8546   11.5226   17.5795 H   0  0  0  0  0  0  0  0  0  0  0  0
   50.4944   11.2869   18.1969 H   0  0  0  0  0  0  0  0  0  0  0  0
   47.4503    8.8516   19.7603 H   0  0  0  0  0  0  0  0  0  0  0  0
   47.0022   10.0368   18.5282 H   0  0  0  0  0  0  0  0  0  0  0  0
   47.1077    7.7808   17.5552 H   0  0  0  0  0  0  0  0  0  0  0  0
   48.7355    7.5391   18.1772 H   0  0  0  0  0  0  0  0  0  0  0  0
   49.7210   11.6106   20.4613 H   0  0  0  0  0  0  0  0  0  0  0  0
   48.0334   11.8106   19.9424 H   0  0  0  0  0  0  0  0  0  0  0  0
   48.4767   10.5663   21.1338 H   0  0  0  0  0  0  0  0  0  0  0  0
   47.4348   11.2982   12.0258 H   0  0  0  0  0  0  0  0  0  0  0  0
   49.7336   12.7183   14.2314 H   0  0  0  0  0  0  0  0  0  0  0  0
   50.5767   11.1843   14.4317 H   0  0  0  0  0  0  0  0  0  0  0  0
   47.7213   11.7209   15.4573 H   0  0  0  0  0  0  0  0  0  0  0  0
   49.1716   11.8599   16.4661 H   0  0  0  0  0  0  0  0  0  0  0  0
   47.6304    8.5101   16.4862 H   0  0  0  0  0  0  0  0  0  0  0  0
  1  2  1  0
  1 12  2  0
  3  1  1  0
  3  4  2  0
  4  6  1  0
  5  4  1  0
  7  8  2  0
  8  9  1  0
  8  6  1  0
  9 15  1  0
 10 11  1  0
 10  6  2  0
 12 10  1  0
 13 14  2  0
 14 18  1  0
 15 13  1  0
 15 16  2  0
 16 17  1  0
 18 17  2  0
 19 14  1  0
 19 20  1  0
 20 21  1  0
 21 22  1  0
 22 23  1  0
 23 24  1  0
 23 27  1  0
 24 25  1  0
 25 20  1  0
 26 19  2  0
 28 29  1  0
 28 39  2  0
 30 28  1  0
 30 31  2  0
 31 33  1  0
 32 31  1  0
 34 35  2  0
 35 36  1  0
 35 33  1  0
 36 42  1  0
 37 38  1  0
 37 33  2  0
 39 37  1  0
 40 41  2  0
 41 45  1  0
 42 40  1  0
 42 43  2  0
 43 44  1  0
 45 44  2  0
 46 41  1  0
 46 47  1  0
 47 48  1  0
 48 49  1  0
 49 50  1  0
 50 51  1  0
 50 54  1  0
 51 52  1  0
 52 47  1  0
 53 46  2  0
 55 56  1  0
 56 57  2  0
 56 58  1  0
 58 59  1  0
 59 60  1  0
 60 61  2  0
 60 62  1  0
  3 63  1  0
  9 64  1  0
 12 65  1  0
 16 66  1  0
 17 67  1  0
 18 68  1  0
 20 69  1  0
 21 70  1  0
 21 71  1  0
 22 72  1  0
 22 73  1  0
 24 74  1  0
 24 75  1  0
 25 76  1  0
 25 77  1  0
 27 78  1  0
 27 79  1  0
 27 80  1  0
 30 81  1  0
 36 82  1  0
 39 83  1  0
 43 84  1  0
 44 85  1  0
 45 86  1  0
 47 87  1  0
 48 88  1  0
 48 89  1  0
 49 90  1  0
 49 91  1  0
 51 92  1  0
 51 93  1  0
 52 94  1  0
 52 95  1  0
 54 96  1  0
 54 97  1  0
 54 98  1  0
 55 99  1  0
 58100  1  0
 58101  1  0
 59102  1  0
 59103  1  0
 62104  1  0
M  END
> <Uni-Dock RESULT> 
ENERGY=   -4.882  LOWER_BOUND=    2.884  UPPER_BOUND=    5.694
INTER + INTRA:          -4.882
INTER:                  -4.882
INTRA:                   0.000
UNBOUND:                 0.000

$$$$

     RDKit          3D

104107  0  0  0  0  0  0  0  0999 V2000
   50.2385   15.8521   18.2585 C   0  0  0  0  0  0  0  0  0  0  0  0
   50.6799   16.5540   19.3086 F   0  0  0  0  0  0  0  0  0  0  0  0
   50.1585   14.4709   18.3432 C   0  0  0  0  0  0  0  0  0  0  0  0
   49.7003   13.7472   17.2437 C   0  0  0  0  0  0  0  0  0  0  0  0
   49.6401   12.4122   17.3664 F   0  0  0  0  0  0  0  0  0  0  0  0
   49.3158   14.3795   16.0559 C   0  0  0  0  0  0  0  0  0  0  0  0
   48.4282   14.2442   13.8836 O   0  0  0  0  0  0  0  0  0  0  0  0
   48.8185   13.6242   14.8659 C   0  0  0  0  0  0  0  0  0  0  0  0
   48.8388   12.2500   14.9583 N   0  0  0  0  0  0  0  0  0  0  0  0
   49.4098   15.7771   16.0071 C   0  0  0  0  0  0  0  0  0  0  0  0
   49.0717   16.4659   14.9084 F   0  0  0  0  0  0  0  0  0  0  0  0
   49.8685   16.5142   17.0985 C   0  0  0  0  0  0  0  0  0  0  0  0
   48.6060   10.0385   14.4229 N   0  0  0  0  0  0  0  0  0  0  0  0
   48.2592    9.0449   13.5669 C   0  0  0  0  0  0  0  0  0  0  0  0
   48.4466   11.3100   14.0029 C   0  0  0  0  0  0  0  0  0  0  0  0
   47.9477   11.6231   12.7462 C   0  0  0  0  0  0  0  0  0  0  0  0
   47.5959   10.5877   11.8814 C   0  0  0  0  0  0  0  0  0  0  0  0
   47.7543    9.2719   12.2940 C   0  0  0  0  0  0  0  0  0  0  0  0
   48.4553    7.6418   14.0436 C   0  0  0  0  0  0  0  0  0  0  0  0
   48.9591    7.4257   15.4700 C   0  0  0  0  0  0  0  0  0  0  0  0
   48.4112    6.1167   16.0728 C   0  0  0  0  0  0  0  0  0  0  0  0
   49.4516    5.3519   16.8976 C   0  0  0  0  0  0  0  0  0  0  0  0
   50.2272    6.2955   17.7021 N   0  0  0  0  0  0  0  0  0  0  0  0
   51.0651    7.1665   16.8671 C   0  0  0  0  0  0  0  0  0  0  0  0
   50.4891    7.4319   15.4715 C   0  0  0  0  0  0  0  0  0  0  0  0
   48.2415    6.7074   13.2707 O   0  0  0  0  0  0  0  0  0  0  0  0
   51.0290    5.6120   18.7128 C   0  0  0  0  0  0  0  0  0  0  0  0
   48.3049    6.5334   21.0577 C   0  0  0  0  0  0  0  0  0  0  0  0
   48.1908    6.5638   22.3902 F   0  0  0  0  0  0  0  0  0  0  0  0
   49.3717    7.1811   20.4501 C   0  0  0  0  0  0  0  0  0  0  0  0
   49.4789    7.1506   19.0621 C   0  0  0  0  0  0  0  0  0  0  0  0
   50.5131    7.7882   18.4932 F   0  0  0  0  0  0  0  0  0  0  0  0
   48.5385    6.4812   18.2792 C   0  0  0  0  0  0  0  0  0  0  0  0
   48.3795    5.3614   16.2458 O   0  0  0  0  0  0  0  0  0  0  0  0
   48.6645    6.4128   16.8059 C   0  0  0  0  0  0  0  0  0  0  0  0
   49.1018    7.5670   16.1971 N   0  0  0  0  0  0  0  0  0  0  0  0
   47.4776    5.8348   18.9183 C   0  0  0  0  0  0  0  0  0  0  0  0
   46.5266    5.2021   18.2131 F   0  0  0  0  0  0  0  0  0  0  0  0
   47.3520    5.8590   20.3046 C   0  0  0  0  0  0  0  0  0  0  0  0
   49.7059    9.0578   14.5635 N   0  0  0  0  0  0  0  0  0  0  0  0
   49.9368    9.3772   13.2641 C   0  0  0  0  0  0  0  0  0  0  0  0
   49.3161    7.7948   14.8359 C   0  0  0  0  0  0  0  0  0  0  0  0
   49.1520    6.8355   13.8457 C   0  0  0  0  0  0  0  0  0  0  0  0
   49.4060    7.1813   12.5196 C   0  0  0  0  0  0  0  0  0  0  0  0
   49.8091    8.4748   12.2177 C   0  0  0  0  0  0  0  0  0  0  0  0
   50.3459   10.7847   12.9722 C   0  0  0  0  0  0  0  0  0  0  0  0
   50.2864   11.8006   14.1110 C   0  0  0  0  0  0  0  0  0  0  0  0
   48.8343   12.1943   14.4002 C   0  0  0  0  0  0  0  0  0  0  0  0
   48.7559   13.2916   15.4611 C   0  0  0  0  0  0  0  0  0  0  0  0
   49.5389   14.4666   15.0643 N   0  0  0  0  0  0  0  0  0  0  0  0
   50.9510   14.1245   14.8519 C   0  0  0  0  0  0  0  0  0  0  0  0
   51.0989   13.0563   13.7697 C   0  0  0  0  0  0  0  0  0  0  0  0
   50.7027   11.0842   11.8326 O   0  0  0  0  0  0  0  0  0  0  0  0
   49.4170   15.5296   16.0600 C   0  0  0  0  0  0  0  0  0  0  0  0
   49.8813    8.1371   17.0021 O   0  0  0  0  0  0  0  0  0  0  0  0
   49.0452    8.4366   15.9900 C   0  0  0  0  0  0  0  0  0  0  0  0
   48.9588    7.7054   15.0179 O   0  0  0  0  0  0  0  0  0  0  0  0
   48.2732    9.7031   16.2238 C   0  0  0  0  0  0  0  0  0  0  0  0
   49.1973   10.9081   16.2969 C   0  0  0  0  0  0  0  0  0  0  0  0
   49.8067   11.1977   14.9549 C   0  0  0  0  0  0  0  0  0  0  0  0
   49.2516   11.1258   13.8722 O   0  0  0  0  0  0  0  0  0  0  0  0
   51.0889   11.5951   15.0453 O   0  0  0  0  0  0  0  0  0  0  0  0
   50.4523   13.9600   19.2538 H   0  0  0  0  0  0  0  0  0  0  0  0
   49.1672   11.8023   15.8062 H   0  0  0  0  0  0  0  0  0  0  0  0
   49.9337   17.5954   17.0373 H   0  0  0  0  0  0  0  0  0  0  0  0
   47.8199   12.6452   12.4112 H   0  0  0  0  0  0  0  0  0  0  0  0
   47.2057   10.8114   10.8918 H   0  0  0  0  0  0  0  0  0  0  0  0
   47.4926    8.4478   11.6381 H   0  0  0  0  0  0  0  0  0  0  0  0
   48.5955    8.2428   16.1060 H   0  0  0  0  0  0  0  0  0  0  0  0
   47.5589    6.3728   16.7169 H   0  0  0  0  0  0  0  0  0  0  0  0
   48.0093    5.4402   15.3101 H   0  0  0  0  0  0  0  0  0  0  0  0
   48.9158    4.6404   17.5394 H   0  0  0  0  0  0  0  0  0  0  0  0
   50.1057    4.7589   16.2434 H   0  0  0  0  0  0  0  0  0  0  0  0
   51.1910    8.1207   17.3914 H   0  0  0  0  0  0  0  0  0  0  0  0
   52.0699    6.7459   16.7321 H   0  0  0  0  0  0  0  0  0  0  0  0
   50.8768    8.3871   15.0965 H   0  0  0  0  0  0  0  0  0  0  0  0
   50.8559    6.6641   14.7757 H   0  0  0  0  0  0  0  0  0  0  0  0
   50.3891    5.0389   19.3930 H   0  0  0  0  0  0  0  0  0  0  0  0
   51.7554    4.9231   18.2670 H   0  0  0  0  0  0  0  0  0  0  0  0
   51.5737    6.3373   19.3285 H   0  0  0  0  0  0  0  0  0  0  0  0
   50.1125    7.7006   21.0486 H   0  0  0  0  0  0  0  0  0  0  0  0
   49.3248    8.3802   16.7568 H   0  0  0  0  0  0  0  0  0  0  0  0
   46.5179    5.3603   20.7894 H   0  0  0  0  0  0  0  0  0  0  0  0
   48.8414    5.8213   14.0686 H   0  0  0  0  0  0  0  0  0  0  0  0
   49.2899    6.4434   11.7297 H   0  0  0  0  0  0  0  0  0  0  0  0
   50.0126    8.7703   11.1926 H   0  0  0  0  0  0  0  0  0  0  0  0
   50.7408   11.3492   15.0030 H   0  0  0  0  0  0  0  0  0  0  0  0
   48.3498   12.5384   13.4767 H   0  0  0  0  0  0  0  0  0  0  0  0
   48.2573   11.3277   14.7432 H   0  0  0  0  0  0  0  0  0  0  0  0
   49.1000   12.8991   16.4275 H   0  0  0  0  0  0  0  0  0  0  0  0
   47.7017   13.5726   15.5807 H   0  0  0  0  0  0  0  0  0  0  0  0
   51.5034   15.0160   14.5289 H   0  0  0  0  0  0  0  0  0  0  0  0
   51.4147   13.7748   15.7839 H   0  0  0  0  0  0  0  0  0  0  0  0
   52.1582   12.7949   13.6544 H   0  0  0  0  0  0  0  0  0  0  0  0
   50.7736   13.4726   12.8067 H   0  0  0  0  0  0  0  0  0  0  0  0
   48.3666   15.8100   16.1992 H   0  0  0  0  0  0  0  0  0  0  0  0
   49.8260   15.2330   17.0326 H   0  0  0  0  0  0  0  0  0  0  0  0
   49.9406   16.4332   15.7246 H   0  0  0  0  0  0  0  0  0  0  0  0
   50.3043    7.2978   16.7202 H   0  0  0  0  0  0  0  0  0  0  0  0
   47.7120    9.5899   17.1590 H   0  0  0  0  0  0  0  0  0  0  0  0
   47.5365    9.8121   15.4200 H   0  0  0  0  0  0  0  0  0  0  0  0
   49.9944   10.7393   17.0301 H   0  0  0  0  0  0  0  0  0  0  0  0
   48.6391   11.7992   16.6056 H   0  0  0  0  0  0  0  0  0  0  0  0
   51.3574   11.7485   14.1146 H   0  0  0  0  0  0  0  0  0  0  0  0
  1  2  1  0
  1 12  2  0
  3  1  1  0
  3  4  2  0
  4  6  1  0
  5  4  1  0
  7  8  2  0
  8  9  1  0
  8  6  1  0
  9 15  1  0
 10 11  1  0
 10  6  2  0
 12 10  1  0
 13 14  2  0
 14 18  1  0
 15 13  1  0
 15 16  2  0
 16 17  1  0
 18 17  2  0
 19 14  1  0
 19 20  1  0
 20 21  1  0
 21 22  1  0
 22 23  1  0
 23 24  1  0
 23 27  1  0
 24 25  1  0
 25 20  1  0
 26 19  2  0
 28 29  1  0
 28 39  2  0
 30 28  1  0
 30 31  2  0
 31 33  1  0
 32 31  1  0
 34 35  2  0
 35 36  1  0
 35 33  1  0
 36 42  1  0
 37 38  1  0
 37 33  2  0
 39 37  1  0
 40 41  2  0
 41 45  1  0
 42 40  1  0
 42 43  2  0
 43 44  1  0
 45 44  2  0
 46 41  1  0
 46 47  1  0
 47 48  1  0
 48 49  1  0
 49 50  1  0
 50 51  1  0
 50 54  1  0
 51 52  1  0
 52 47  1  0
 53 46  2  0
 55 56  1  0
 56 57  2  0
 56 58  1  0
 58 59  1  0
 59 60  1  0
 60 61  2  0
 60 62  1  0
  3 63  1  0
  9 64  1  0
 12 65  1  0
 16 66  1  0
 17 67  1  0
 18 68  1  0
 20 69  1  0
 21 70  1  0
 21 71  1  0
 22 72  1  0
 22 73  1  0
 24 74  1  0
 24 75  1  0
 25 76  1  0
 25 77  1  0
 27 78  1  0
 27 79  1  0
 27 80  1  0
 30 81  1  0
 36 82  1  0
 39 83  1  0
 43 84  1  0
 44 85  1  0
 45 86  1  0
 47 87  1  0
 48 88  1  0
 48 89  1  0
 49 90  1  0
 49 91  1  0
 51 92  1  0
 51 93  1  0
 52 94  1  0
 52 95  1  0
 54 96  1  0
 54 97  1  0
 54 98  1  0
 55 99  1  0
 58100  1  0
 58101  1  0
 59102  1  0
 59103  1  0
 62104  1  0
M  END
> <Uni-Dock RESULT> 
ENERGY=   -4.838  LOWER_BOUND=    2.839  UPPER_BOUND=    6.877
INTER + INTRA:          -4.838
INTER:                  -4.838
INTRA:                   0.000
UNBOUND:                 0.000

$$$$

     RDKit          3D

104107  0  0  0  0  0  0  0  0999 V2000
   46.4525    5.4198   13.4841 C   0  0  0  0  0  0  0  0  0  0  0  0
   45.9623    4.2675   13.9552 F   0  0  0  0  0  0  0  0  0  0  0  0
   47.8092    5.5305   13.2226 C   0  0  0  0  0  0  0  0  0  0  0  0
   48.3120    6.7353   12.7347 C   0  0  0  0  0  0  0  0  0  0  0  0
   49.6311    6.8013   12.4967 F   0  0  0  0  0  0  0  0  0  0  0  0
   47.4815    7.8369   12.4991 C   0  0  0  0  0  0  0  0  0  0  0  0
   47.2063   10.0371   11.7192 O   0  0  0  0  0  0  0  0  0  0  0  0
   47.9981    9.1371   11.9732 C   0  0  0  0  0  0  0  0  0  0  0  0
   49.3625    9.2356   11.8114 N   0  0  0  0  0  0  0  0  0  0  0  0
   46.1154    7.6879   12.7746 C   0  0  0  0  0  0  0  0  0  0  0  0
   45.2475    8.6918   12.5873 F   0  0  0  0  0  0  0  0  0  0  0  0
   45.5984    6.4892   13.2652 C   0  0  0  0  0  0  0  0  0  0  0  0
   51.4316   10.0805   11.3250 N   0  0  0  0  0  0  0  0  0  0  0  0
   52.2468   11.0779   10.8997 C   0  0  0  0  0  0  0  0  0  0  0  0
   50.1058   10.3255   11.3533 C   0  0  0  0  0  0  0  0  0  0  0  0
   49.5642   11.5435   10.9670 C   0  0  0  0  0  0  0  0  0  0  0  0
   50.4186   12.5556   10.5317 C   0  0  0  0  0  0  0  0  0  0  0  0
   51.7868   12.3241   10.4972 C   0  0  0  0  0  0  0  0  0  0  0  0
   53.7143   10.7938   10.8877 C   0  0  0  0  0  0  0  0  0  0  0  0
   54.1838    9.3942   11.2822 C   0  0  0  0  0  0  0  0  0  0  0  0
   55.4754    8.9987   10.5389 C   0  0  0  0  0  0  0  0  0  0  0  0
   56.4762    8.2515   11.4265 C   0  0  0  0  0  0  0  0  0  0  0  0
   55.7610    7.2968   12.2728 N   0  0  0  0  0  0  0  0  0  0  0  0
   54.9078    7.9726   13.2594 C   0  0  0  0  0  0  0  0  0  0  0  0
   54.3842    9.3375   12.7980 C   0  0  0  0  0  0  0  0  0  0  0  0
   54.5003   11.6960   10.5971 O   0  0  0  0  0  0  0  0  0  0  0  0
   56.6745    6.3628   12.9246 C   0  0  0  0  0  0  0  0  0  0  0  0
   55.7139    4.0111   10.2200 C   0  0  0  0  0  0  0  0  0  0  0  0
   55.8456    2.6922   10.0395 F   0  0  0  0  0  0  0  0  0  0  0  0
   55.1410    4.4847   11.3923 C   0  0  0  0  0  0  0  0  0  0  0  0
   55.0011    5.8588   11.5689 C   0  0  0  0  0  0  0  0  0  0  0  0
   54.4388    6.2965   12.7057 F   0  0  0  0  0  0  0  0  0  0  0  0
   55.4276    6.7600   10.5936 C   0  0  0  0  0  0  0  0  0  0  0  0
   56.2357    8.9334   10.4010 O   0  0  0  0  0  0  0  0  0  0  0  0
   55.3162    8.2230   10.7886 C   0  0  0  0  0  0  0  0  0  0  0  0
   54.1609    8.6499   11.4028 N   0  0  0  0  0  0  0  0  0  0  0  0
   56.0042    6.2548    9.4256 C   0  0  0  0  0  0  0  0  0  0  0  0
   56.4036    7.0744    8.4403 F   0  0  0  0  0  0  0  0  0  0  0  0
   56.1476    4.8839    9.2300 C   0  0  0  0  0  0  0  0  0  0  0  0
   52.5615   10.0384   12.2805 N   0  0  0  0  0  0  0  0  0  0  0  0
   52.1064   11.2718   12.6199 C   0  0  0  0  0  0  0  0  0  0  0  0
   53.7853    9.9578   11.7173 C   0  0  0  0  0  0  0  0  0  0  0  0
   54.5737   11.0768   11.4844 C   0  0  0  0  0  0  0  0  0  0  0  0
   54.0922   12.3322   11.8516 C   0  0  0  0  0  0  0  0  0  0  0  0
   52.8363   12.4371   12.4334 C   0  0  0  0  0  0  0  0  0  0  0  0
   50.7408   11.3509   13.2218 C   0  0  0  0  0  0  0  0  0  0  0  0
   49.8864   10.0850   13.2326 C   0  0  0  0  0  0  0  0  0  0  0  0
   49.3426    9.7958   11.8298 C   0  0  0  0  0  0  0  0  0  0  0  0
   48.3954    8.5964   11.8365 C   0  0  0  0  0  0  0  0  0  0  0  0
   47.2945    8.7982   12.7843 N   0  0  0  0  0  0  0  0  0  0  0  0
   47.7925    9.0057   14.1500 C   0  0  0  0  0  0  0  0  0  0  0  0
   48.7176   10.2196   14.2170 C   0  0  0  0  0  0  0  0  0  0  0  0
   50.3435   12.4245   13.6747 O   0  0  0  0  0  0  0  0  0  0  0  0
   46.3665    7.6697   12.7470 C   0  0  0  0  0  0  0  0  0  0  0  0
   53.8130    7.7464   12.2049 O   0  0  0  0  0  0  0  0  0  0  0  0
   53.2718    8.7363   11.4697 C   0  0  0  0  0  0  0  0  0  0  0  0
   53.8491    9.8028   11.3422 O   0  0  0  0  0  0  0  0  0  0  0  0
   51.9552    8.3565   10.8557 C   0  0  0  0  0  0  0  0  0  0  0  0
   50.9063    8.0842   11.9220 C   0  0  0  0  0  0  0  0  0  0  0  0
   50.5259    9.3505   12.6347 C   0  0  0  0  0  0  0  0  0  0  0  0
   50.3778   10.4517   12.1338 O   0  0  0  0  0  0  0  0  0  0  0  0
   50.3205    9.1603   13.9506 O   0  0  0  0  0  0  0  0  0  0  0  0
   48.4714    4.6897   13.3989 H   0  0  0  0  0  0  0  0  0  0  0  0
   49.9590    8.4468   12.0336 H   0  0  0  0  0  0  0  0  0  0  0  0
   44.5374    6.3974   13.4722 H   0  0  0  0  0  0  0  0  0  0  0  0
   48.4988   11.7378   10.9899 H   0  0  0  0  0  0  0  0  0  0  0  0
   50.0149   13.5178   10.2273 H   0  0  0  0  0  0  0  0  0  0  0  0
   52.4736   13.0969   10.1671 H   0  0  0  0  0  0  0  0  0  0  0  0
   53.4169    8.6643   10.9933 H   0  0  0  0  0  0  0  0  0  0  0  0
   55.1945    8.3560    9.6934 H   0  0  0  0  0  0  0  0  0  0  0  0
   55.9841    9.8616   10.0948 H   0  0  0  0  0  0  0  0  0  0  0  0
   57.1878    7.7341   10.7700 H   0  0  0  0  0  0  0  0  0  0  0  0
   57.0597    8.9580   12.0330 H   0  0  0  0  0  0  0  0  0  0  0  0
   54.0574    7.3168   13.4788 H   0  0  0  0  0  0  0  0  0  0  0  0
   55.4383    8.1288   14.2075 H   0  0  0  0  0  0  0  0  0  0  0  0
   53.4488    9.5622   13.3250 H   0  0  0  0  0  0  0  0  0  0  0  0
   55.0952   10.1195   13.0997 H   0  0  0  0  0  0  0  0  0  0  0  0
   57.2413    5.7919   12.1807 H   0  0  0  0  0  0  0  0  0  0  0  0
   57.3897    6.8738   13.5792 H   0  0  0  0  0  0  0  0  0  0  0  0
   56.1175    5.6334   13.5244 H   0  0  0  0  0  0  0  0  0  0  0  0
   54.8102    3.7940   12.1606 H   0  0  0  0  0  0  0  0  0  0  0  0
   53.4668    7.9752   11.6982 H   0  0  0  0  0  0  0  0  0  0  0  0
   56.5893    4.5030    8.3139 H   0  0  0  0  0  0  0  0  0  0  0  0
   55.5572   11.0079   11.0344 H   0  0  0  0  0  0  0  0  0  0  0  0
   54.6963   13.2204   11.6840 H   0  0  0  0  0  0  0  0  0  0  0  0
   52.4374   13.4035   12.7279 H   0  0  0  0  0  0  0  0  0  0  0  0
   50.5094    9.2487   13.5766 H   0  0  0  0  0  0  0  0  0  0  0  0
   48.8167   10.6793   11.4439 H   0  0  0  0  0  0  0  0  0  0  0  0
   50.1612    9.5971   11.1285 H   0  0  0  0  0  0  0  0  0  0  0  0
   48.9555    7.6822   12.0748 H   0  0  0  0  0  0  0  0  0  0  0  0
   47.9932    8.4766   10.8224 H   0  0  0  0  0  0  0  0  0  0  0  0
   46.9487    9.1820   14.8291 H   0  0  0  0  0  0  0  0  0  0  0  0
   48.3222    8.1153   14.5142 H   0  0  0  0  0  0  0  0  0  0  0  0
   49.1018   10.3323   15.2385 H   0  0  0  0  0  0  0  0  0  0  0  0
   48.1371   11.1265   14.0001 H   0  0  0  0  0  0  0  0  0  0  0  0
   45.9680    7.5303   11.7355 H   0  0  0  0  0  0  0  0  0  0  0  0
   46.8420    6.7337   13.0617 H   0  0  0  0  0  0  0  0  0  0  0  0
   45.5053    7.8577   13.3998 H   0  0  0  0  0  0  0  0  0  0  0  0
   54.6568    8.1268   12.5308 H   0  0  0  0  0  0  0  0  0  0  0  0
   52.1149    7.4667   10.2354 H   0  0  0  0  0  0  0  0  0  0  0  0
   51.6421    9.1631   10.1833 H   0  0  0  0  0  0  0  0  0  0  0  0
   51.2768    7.3537   12.6503 H   0  0  0  0  0  0  0  0  0  0  0  0
   49.9971    7.6749   11.4673 H   0  0  0  0  0  0  0  0  0  0  0  0
   50.0824   10.0505   14.2861 H   0  0  0  0  0  0  0  0  0  0  0  0
  1  2  1  0
  1 12  2  0
  3  1  1  0
  3  4  2  0
  4  6  1  0
  5  4  1  0
  7  8  2  0
  8  9  1  0
  8  6  1  0
  9 15  1  0
 10 11  1  0
 10  6  2  0
 12 10  1  0
 13 14  2  0
 14 18  1  0
 15 13  1  0
 15 16  2  0
 16 17  1  0
 18 17  2  0
 19 14  1  0
 19 20  1  0
 20 21  1  0
 21 22  1  0
 22 23  1  0
 23 24  1  0
 23 27  1  0
 24 25  1  0
 25 20  1  0
 26 19  2  0
 28 29  1  0
 28 39  2  0
 30 28  1  0
 30 31  2  0
 31 33  1  0
 32 31  1  0
 34 35  2  0
 35 36  1  0
 35 33  1  0
 36 42  1  0
 37 38  1  0
 37 33  2  0
 39 37  1  0
 40 41  2  0
 41 45  1  0
 42 40  1  0
 42 43  2  0
 43 44  1  0
 45 44  2  0
 46 41  1  0
 46 47  1  0
 47 48  1  0
 48 49  1  0
 49 50  1  0
 50 51  1  0
 50 54  1  0
 51 52  1  0
 52 47  1  0
 53 46  2  0
 55 56  1  0
 56 57  2  0
 56 58  1  0
 58 59  1  0
 59 60  1  0
 60 61  2  0
 60 62  1  0
  3 63  1  0
  9 64  1  0
 12 65  1  0
 16 66  1  0
 17 67  1  0
 18 68  1  0
 20 69  1  0
 21 70  1  0
 21 71  1  0
 22 72  1  0
 22 73  1  0
 24 74  1  0
 24 75  1  0
 25 76  1  0
 25 77  1  0
 27 78  1  0
 27 79  1  0
 27 80  1  0
 30 81  1  0
 36 82  1  0
 39 83  1  0
 43 84  1  0
 44 85  1  0
 45 86  1  0
 47 87  1  0
 48 88  1  0
 48 89  1  0
 49 90  1  0
 49 91  1  0
 51 92  1  0
 51 93  1  0
 52 94  1  0
 52 95  1  0
 54 96  1  0
 54 97  1  0
 54 98  1  0
 55 99  1  0
 58100  1  0
 58101  1  0
 59102  1  0
 59103  1  0
 62104  1  0
M  END
> <Uni-Dock RESULT> 
ENERGY=   -4.768  LOWER_BOUND=    5.519  UPPER_BOUND=    8.108
INTER + INTRA:          -4.768
INTER:                  -4.768
INTRA:                   0.000
UNBOUND:                 0.000

$$$$
