
     RDKit          3D

104107  0  0  0  0  0  0  0  0999 V2000
   38.5388   14.2655    9.1493 C   0  0  0  0  0  0  0  0  0  0  0  0
   37.6755   15.2052    8.7468 F   0  0  0  0  0  0  0  0  0  0  0  0
   38.1366   13.3242   10.0900 C   0  0  0  0  0  0  0  0  0  0  0  0
   39.0403   12.3475   10.5025 C   0  0  0  0  0  0  0  0  0  0  0  0
   38.6404   11.4751   11.4381 F   0  0  0  0  0  0  0  0  0  0  0  0
   40.3403   12.3106    9.9908 C   0  0  0  0  0  0  0  0  0  0  0  0
   40.8327   10.1217   10.5971 O   0  0  0  0  0  0  0  0  0  0  0  0
   41.2733   11.2516   10.4282 C   0  0  0  0  0  0  0  0  0  0  0  0
   42.5739   11.6552   10.6310 N   0  0  0  0  0  0  0  0  0  0  0  0
   40.7158   13.2680    9.0480 C   0  0  0  0  0  0  0  0  0  0  0  0
   41.9512   13.2657    8.5267 F   0  0  0  0  0  0  0  0  0  0  0  0
   39.8218   14.2457    8.6205 C   0  0  0  0  0  0  0  0  0  0  0  0
   44.7719   11.6066   11.2788 N   0  0  0  0  0  0  0  0  0  0  0  0
   45.8750   10.9415   11.7046 C   0  0  0  0  0  0  0  0  0  0  0  0
   43.6563   10.8820   11.0547 C   0  0  0  0  0  0  0  0  0  0  0  0
   43.6121    9.5059   11.2336 C   0  0  0  0  0  0  0  0  0  0  0  0
   44.7603    8.8413   11.6593 C   0  0  0  0  0  0  0  0  0  0  0  0
   45.9171    9.5681   11.9015 C   0  0  0  0  0  0  0  0  0  0  0  0
   47.0905   11.7622   11.9937 C   0  0  0  0  0  0  0  0  0  0  0  0
   46.9695   13.2812   11.8909 C   0  0  0  0  0  0  0  0  0  0  0  0
   46.1698   13.8383   13.0827 C   0  0  0  0  0  0  0  0  0  0  0  0
   46.7270   15.1615   13.6207 C   0  0  0  0  0  0  0  0  0  0  0  0
   47.1244   16.0195   12.5061 N   0  0  0  0  0  0  0  0  0  0  0  0
   48.2629   15.4639   11.7578 C   0  0  0  0  0  0  0  0  0  0  0  0
   48.3545   13.9356   11.8178 C   0  0  0  0  0  0  0  0  0  0  0  0
   48.1370   11.2019   12.3228 O   0  0  0  0  0  0  0  0  0  0  0  0
   47.4045   17.3831   12.9479 C   0  0  0  0  0  0  0  0  0  0  0  0
   39.1723   12.4449   13.8312 C   0  0  0  0  0  0  0  0  0  0  0  0
   38.4223   12.6736   14.9155 F   0  0  0  0  0  0  0  0  0  0  0  0
   40.4819   12.8973   13.7991 C   0  0  0  0  0  0  0  0  0  0  0  0
   41.2561   12.6519   12.6665 C   0  0  0  0  0  0  0  0  0  0  0  0
   42.5194   13.1039   12.6745 F   0  0  0  0  0  0  0  0  0  0  0  0
   40.7451   11.9622   11.5593 C   0  0  0  0  0  0  0  0  0  0  0  0
   41.0807   10.9923    9.4431 O   0  0  0  0  0  0  0  0  0  0  0  0
   41.5605   11.6800   10.3380 C   0  0  0  0  0  0  0  0  0  0  0  0
   42.8270   12.2209   10.3091 N   0  0  0  0  0  0  0  0  0  0  0  0
   39.4167   11.5215   11.6278 C   0  0  0  0  0  0  0  0  0  0  0  0
   38.8410   10.8608   10.6132 F   0  0  0  0  0  0  0  0  0  0  0  0
   38.6302   11.7591   12.7549 C   0  0  0  0  0  0  0  0  0  0  0  0
   44.9482   12.7373    9.6352 N   0  0  0  0  0  0  0  0  0  0  0  0
   45.9725   12.6811    8.7540 C   0  0  0  0  0  0  0  0  0  0  0  0
   43.7984   12.1101    9.3128 C   0  0  0  0  0  0  0  0  0  0  0  0
   43.6303   11.4298    8.1152 C   0  0  0  0  0  0  0  0  0  0  0  0
   44.6919   11.3881    7.2130 C   0  0  0  0  0  0  0  0  0  0  0  0
   45.8859   12.0229    7.5345 C   0  0  0  0  0  0  0  0  0  0  0  0
   47.2490   13.3592    9.1385 C   0  0  0  0  0  0  0  0  0  0  0  0
   47.3868   14.0744   10.4809 C   0  0  0  0  0  0  0  0  0  0  0  0
   47.2395   13.1435   11.6859 C   0  0  0  0  0  0  0  0  0  0  0  0
   47.3824   13.9124   12.9991 C   0  0  0  0  0  0  0  0  0  0  0  0
   46.4337   15.0330   13.0552 N   0  0  0  0  0  0  0  0  0  0  0  0
   46.6718   15.9830   11.9592 C   0  0  0  0  0  0  0  0  0  0  0  0
   46.4870   15.3046   10.6016 C   0  0  0  0  0  0  0  0  0  0  0  0
   48.1970   13.3359    8.3499 O   0  0  0  0  0  0  0  0  0  0  0  0
   46.5188   15.7093   14.3497 C   0  0  0  0  0  0  0  0  0  0  0  0
   46.5805   14.2671   12.8756 O   0  0  0  0  0  0  0  0  0  0  0  0
   46.0569   13.9598   11.6728 C   0  0  0  0  0  0  0  0  0  0  0  0
   46.7071   14.1102   10.6526 O   0  0  0  0  0  0  0  0  0  0  0  0
   44.6508   13.4469   11.7868 C   0  0  0  0  0  0  0  0  0  0  0  0
   44.0985   13.0663   10.4173 C   0  0  0  0  0  0  0  0  0  0  0  0
   42.7088   12.4939   10.4596 C   0  0  0  0  0  0  0  0  0  0  0  0
   42.1285   11.9903    9.5098 O   0  0  0  0  0  0  0  0  0  0  0  0
   42.0890   12.6005   11.6471 O   0  0  0  0  0  0  0  0  0  0  0  0
   37.1338   13.3526   10.5034 H   0  0  0  0  0  0  0  0  0  0  0  0
   42.8291   12.6259   10.5009 H   0  0  0  0  0  0  0  0  0  0  0  0
   40.1231   14.9811    7.8819 H   0  0  0  0  0  0  0  0  0  0  0  0
   42.7144    8.9278   11.0463 H   0  0  0  0  0  0  0  0  0  0  0  0
   44.7445    7.7643   11.8051 H   0  0  0  0  0  0  0  0  0  0  0  0
   46.8231    9.0772   12.2415 H   0  0  0  0  0  0  0  0  0  0  0  0
   46.4523   13.5205   10.9519 H   0  0  0  0  0  0  0  0  0  0  0  0
   46.1263   13.1159   13.9092 H   0  0  0  0  0  0  0  0  0  0  0  0
   45.1309   13.9914   12.7600 H   0  0  0  0  0  0  0  0  0  0  0  0
   47.5706   14.9770   14.2985 H   0  0  0  0  0  0  0  0  0  0  0  0
   45.9397   15.6389   14.2161 H   0  0  0  0  0  0  0  0  0  0  0  0
   49.2184   15.8632   12.1205 H   0  0  0  0  0  0  0  0  0  0  0  0
   48.1674   15.7816   10.7132 H   0  0  0  0  0  0  0  0  0  0  0  0
   48.9455   13.6472   12.6978 H   0  0  0  0  0  0  0  0  0  0  0  0
   48.9078   13.5657   10.9443 H   0  0  0  0  0  0  0  0  0  0  0  0
   46.5166   17.8273   13.4135 H   0  0  0  0  0  0  0  0  0  0  0  0
   48.2259   17.4236   13.6725 H   0  0  0  0  0  0  0  0  0  0  0  0
   47.6619   18.0211   12.0937 H   0  0  0  0  0  0  0  0  0  0  0  0
   40.9001   13.4324   14.6456 H   0  0  0  0  0  0  0  0  0  0  0  0
   43.1663   12.7644   11.0964 H   0  0  0  0  0  0  0  0  0  0  0  0
   37.6048   11.4061   12.7857 H   0  0  0  0  0  0  0  0  0  0  0  0
   42.7038   10.9312    7.8543 H   0  0  0  0  0  0  0  0  0  0  0  0
   44.5876   10.8567    6.2699 H   0  0  0  0  0  0  0  0  0  0  0  0
   46.7270   12.0038    6.8489 H   0  0  0  0  0  0  0  0  0  0  0  0
   48.4235   14.4437   10.4979 H   0  0  0  0  0  0  0  0  0  0  0  0
   46.2693   12.6390   11.6871 H   0  0  0  0  0  0  0  0  0  0  0  0
   47.9940   12.3501   11.6378 H   0  0  0  0  0  0  0  0  0  0  0  0
   48.4148   14.2659   13.1172 H   0  0  0  0  0  0  0  0  0  0  0  0
   47.1835   13.2168   13.8231 H   0  0  0  0  0  0  0  0  0  0  0  0
   45.9600   16.8148   12.0233 H   0  0  0  0  0  0  0  0  0  0  0  0
   47.6812   16.4095   12.0259 H   0  0  0  0  0  0  0  0  0  0  0  0
   46.7193   16.0161    9.8008 H   0  0  0  0  0  0  0  0  0  0  0  0
   45.4318   15.0435   10.4778 H   0  0  0  0  0  0  0  0  0  0  0  0
   45.7859   16.5213   14.4103 H   0  0  0  0  0  0  0  0  0  0  0  0
   47.5144   16.1300   14.5329 H   0  0  0  0  0  0  0  0  0  0  0  0
   46.2779   15.0121   15.1621 H   0  0  0  0  0  0  0  0  0  0  0  0
   47.4838   14.5862   12.6696 H   0  0  0  0  0  0  0  0  0  0  0  0
   44.6555   12.5722   12.4475 H   0  0  0  0  0  0  0  0  0  0  0  0
   44.0347   14.2326   12.2400 H   0  0  0  0  0  0  0  0  0  0  0  0
   44.7488   12.3121    9.9569 H   0  0  0  0  0  0  0  0  0  0  0  0
   44.0779   13.9479    9.7642 H   0  0  0  0  0  0  0  0  0  0  0  0
   41.2066   12.2023   11.4870 H   0  0  0  0  0  0  0  0  0  0  0  0
  1  2  1  0
  1 12  2  0
  3  1  1  0
  3  4  2  0
  4  6  1  0
  5  4  1  0
  7  8  2  0
  8  9  1  0
  8  6  1  0
  9 15  1  0
 10 11  1  0
 10  6  2  0
 12 10  1  0
 13 14  2  0
 14 18  1  0
 15 13  1  0
 15 16  2  0
 16 17  1  0
 18 17  2  0
 19 14  1  0
 19 20  1  0
 20 21  1  0
 21 22  1  0
 22 23  1  0
 23 24  1  0
 23 27  1  0
 24 25  1  0
 25 20  1  0
 26 19  2  0
 28 29  1  0
 28 39  2  0
 30 28  1  0
 30 31  2  0
 31 33  1  0
 32 31  1  0
 34 35  2  0
 35 36  1  0
 35 33  1  0
 36 42  1  0
 37 38  1  0
 37 33  2  0
 39 37  1  0
 40 41  2  0
 41 45  1  0
 42 40  1  0
 42 43  2  0
 43 44  1  0
 45 44  2  0
 46 41  1  0
 46 47  1  0
 47 48  1  0
 48 49  1  0
 49 50  1  0
 50 51  1  0
 50 54  1  0
 51 52  1  0
 52 47  1  0
 53 46  2  0
 55 56  1  0
 56 57  2  0
 56 58  1  0
 58 59  1  0
 59 60  1  0
 60 61  2  0
 60 62  1  0
  3 63  1  0
  9 64  1  0
 12 65  1  0
 16 66  1  0
 17 67  1  0
 18 68  1  0
 20 69  1  0
 21 70  1  0
 21 71  1  0
 22 72  1  0
 22 73  1  0
 24 74  1  0
 24 75  1  0
 25 76  1  0
 25 77  1  0
 27 78  1  0
 27 79  1  0
 27 80  1  0
 30 81  1  0
 36 82  1  0
 39 83  1  0
 43 84  1  0
 44 85  1  0
 45 86  1  0
 47 87  1  0
 48 88  1  0
 48 89  1  0
 49 90  1  0
 49 91  1  0
 51 92  1  0
 51 93  1  0
 52 94  1  0
 52 95  1  0
 54 96  1  0
 54 97  1  0
 54 98  1  0
 55 99  1  0
 58100  1  0
 58101  1  0
 59102  1  0
 59103  1  0
 62104  1  0
M  END
> <Uni-Dock RESULT> 
ENERGY=   -5.049  LOWER_BOUND=    0.000  UPPER_BOUND=    0.000
INTER + INTRA:          -5.049
INTER:                  -5.049
INTRA:                   0.000
UNBOUND:                 0.000

$$$$

     RDKit          3D

104107  0  0  0  0  0  0  0  0999 V2000
   52.6835    9.6134    5.4107 C   0  0  0  0  0  0  0  0  0  0  0  0
   52.2381    9.7217    4.1536 F   0  0  0  0  0  0  0  0  0  0  0  0
   53.7128    8.7242    5.6980 C   0  0  0  0  0  0  0  0  0  0  0  0
   54.1727    8.6185    7.0088 C   0  0  0  0  0  0  0  0  0  0  0  0
   55.1395    7.7269    7.2665 F   0  0  0  0  0  0  0  0  0  0  0  0
   53.6076    9.3852    8.0316 C   0  0  0  0  0  0  0  0  0  0  0  0
   55.3354    9.1457    9.5673 O   0  0  0  0  0  0  0  0  0  0  0  0
   54.1275    9.2708    9.4099 C   0  0  0  0  0  0  0  0  0  0  0  0
   53.1765    9.2925   10.4052 N   0  0  0  0  0  0  0  0  0  0  0  0
   52.5762   10.2693    7.7135 C   0  0  0  0  0  0  0  0  0  0  0  0
   52.0096   11.0282    8.6628 F   0  0  0  0  0  0  0  0  0  0  0  0
   52.1108   10.3913    6.4071 C   0  0  0  0  0  0  0  0  0  0  0  0
   52.2218    9.1160   12.4814 N   0  0  0  0  0  0  0  0  0  0  0  0
   52.3136    9.0026   13.8302 C   0  0  0  0  0  0  0  0  0  0  0  0
   53.3738    9.1893   11.7833 C   0  0  0  0  0  0  0  0  0  0  0  0
   54.6199    9.1633   12.3952 C   0  0  0  0  0  0  0  0  0  0  0  0
   54.6906    9.0591   13.7828 C   0  0  0  0  0  0  0  0  0  0  0  0
   53.5180    8.9764   14.5199 C   0  0  0  0  0  0  0  0  0  0  0  0
   51.0310    8.8756   14.5874 C   0  0  0  0  0  0  0  0  0  0  0  0
   49.7340    8.7777   13.7870 C   0  0  0  0  0  0  0  0  0  0  0  0
   49.6139    7.3923   13.1262 C   0  0  0  0  0  0  0  0  0  0  0  0
   48.1870    6.8317   13.1492 C   0  0  0  0  0  0  0  0  0  0  0  0
   47.2325    7.8986   12.8539 N   0  0  0  0  0  0  0  0  0  0  0  0
   47.2006    8.9216   13.9110 C   0  0  0  0  0  0  0  0  0  0  0  0
   48.5189    9.0562   14.6801 C   0  0  0  0  0  0  0  0  0  0  0  0
   51.0546    8.8327   15.8183 O   0  0  0  0  0  0  0  0  0  0  0  0
   45.8954    7.3706   12.5967 C   0  0  0  0  0  0  0  0  0  0  0  0
   54.0547    5.3977    7.8567 C   0  0  0  0  0  0  0  0  0  0  0  0
   54.2031    4.1645    7.3590 F   0  0  0  0  0  0  0  0  0  0  0  0
   53.0541    5.6441    8.7833 C   0  0  0  0  0  0  0  0  0  0  0  0
   52.9090    6.9311    9.2982 C   0  0  0  0  0  0  0  0  0  0  0  0
   51.9302    7.1292   10.1942 F   0  0  0  0  0  0  0  0  0  0  0  0
   53.7464    7.9823    8.9022 C   0  0  0  0  0  0  0  0  0  0  0  0
   54.4376   10.2190    9.1279 O   0  0  0  0  0  0  0  0  0  0  0  0
   53.6145    9.3681    9.4482 C   0  0  0  0  0  0  0  0  0  0  0  0
   52.5549    9.5926   10.2991 N   0  0  0  0  0  0  0  0  0  0  0  0
   54.7455    7.6953    7.9626 C   0  0  0  0  0  0  0  0  0  0  0  0
   55.5873    8.6399    7.5193 F   0  0  0  0  0  0  0  0  0  0  0  0
   54.9030    6.4120    7.4393 C   0  0  0  0  0  0  0  0  0  0  0  0
   51.1211   10.6211   11.7506 N   0  0  0  0  0  0  0  0  0  0  0  0
   50.6958   11.6931   12.4569 C   0  0  0  0  0  0  0  0  0  0  0  0
   52.2013   10.7719   10.9569 C   0  0  0  0  0  0  0  0  0  0  0  0
   52.8728   11.9798   10.8327 C   0  0  0  0  0  0  0  0  0  0  0  0
   52.4174   13.0781   11.5600 C   0  0  0  0  0  0  0  0  0  0  0  0
   51.3103   12.9363   12.3884 C   0  0  0  0  0  0  0  0  0  0  0  0
   49.5132   11.5020   13.3524 C   0  0  0  0  0  0  0  0  0  0  0  0
   48.8256   10.1431   13.4687 C   0  0  0  0  0  0  0  0  0  0  0  0
   49.7315    9.0476   14.0340 C   0  0  0  0  0  0  0  0  0  0  0  0
   48.9936    7.7122   14.1241 C   0  0  0  0  0  0  0  0  0  0  0  0
   48.4303    7.3365   12.8201 N   0  0  0  0  0  0  0  0  0  0  0  0
   47.4668    8.3424   12.3505 C   0  0  0  0  0  0  0  0  0  0  0  0
   48.1429    9.7022   12.1737 C   0  0  0  0  0  0  0  0  0  0  0  0
   49.0942   12.4646   13.9997 O   0  0  0  0  0  0  0  0  0  0  0  0
   47.8011    6.0180   12.8968 C   0  0  0  0  0  0  0  0  0  0  0  0
   49.0431    7.6284   13.2440 O   0  0  0  0  0  0  0  0  0  0  0  0
   49.5451    8.7263   12.6457 C   0  0  0  0  0  0  0  0  0  0  0  0
   49.1056    9.8336   12.9043 O   0  0  0  0  0  0  0  0  0  0  0  0
   50.6443    8.3875   11.6814 C   0  0  0  0  0  0  0  0  0  0  0  0
   51.2231    9.6500   11.0517 C   0  0  0  0  0  0  0  0  0  0  0  0
   52.3672    9.3911   10.1111 C   0  0  0  0  0  0  0  0  0  0  0  0
   53.0719   10.2538    9.6097 O   0  0  0  0  0  0  0  0  0  0  0  0
   52.5656    8.0979    9.8043 O   0  0  0  0  0  0  0  0  0  0  0  0
   54.1489    8.1147    4.9135 H   0  0  0  0  0  0  0  0  0  0  0  0
   52.1952    9.3604   10.1666 H   0  0  0  0  0  0  0  0  0  0  0  0
   51.3125   11.0869    6.1706 H   0  0  0  0  0  0  0  0  0  0  0  0
   55.5424    9.2284   11.8297 H   0  0  0  0  0  0  0  0  0  0  0  0
   55.6572    9.0369   14.2794 H   0  0  0  0  0  0  0  0  0  0  0  0
   53.5440    8.8863   15.6009 H   0  0  0  0  0  0  0  0  0  0  0  0
   49.7492    9.5580   13.0142 H   0  0  0  0  0  0  0  0  0  0  0  0
   50.2836    6.6621   13.6007 H   0  0  0  0  0  0  0  0  0  0  0  0
   49.9492    7.4769   12.0835 H   0  0  0  0  0  0  0  0  0  0  0  0
   47.9719    6.3656   14.1196 H   0  0  0  0  0  0  0  0  0  0  0  0
   48.1268    6.0380   12.3953 H   0  0  0  0  0  0  0  0  0  0  0  0
   46.4122    8.7180   14.6467 H   0  0  0  0  0  0  0  0  0  0  0  0
   46.9524    9.8817   13.4441 H   0  0  0  0  0  0  0  0  0  0  0  0
   48.5133    8.3538   15.5248 H   0  0  0  0  0  0  0  0  0  0  0  0
   48.5878   10.0605   15.1190 H   0  0  0  0  0  0  0  0  0  0  0  0
   45.9096    6.6863   11.7400 H   0  0  0  0  0  0  0  0  0  0  0  0
   45.4906    6.8288   13.4593 H   0  0  0  0  0  0  0  0  0  0  0  0
   45.2028    8.1809   12.3382 H   0  0  0  0  0  0  0  0  0  0  0  0
   52.3944    4.8452    9.1065 H   0  0  0  0  0  0  0  0  0  0  0  0
   51.9232    8.8343   10.5364 H   0  0  0  0  0  0  0  0  0  0  0  0
   55.6854    6.2134    6.7145 H   0  0  0  0  0  0  0  0  0  0  0  0
   53.7371   12.1015   10.1899 H   0  0  0  0  0  0  0  0  0  0  0  0
   52.9296   14.0344   11.4846 H   0  0  0  0  0  0  0  0  0  0  0  0
   50.9374   13.7765   12.9654 H   0  0  0  0  0  0  0  0  0  0  0  0
   48.0239   10.2957   14.2072 H   0  0  0  0  0  0  0  0  0  0  0  0
   50.6232    8.9064   13.4170 H   0  0  0  0  0  0  0  0  0  0  0  0
   50.0925    9.3386   15.0269 H   0  0  0  0  0  0  0  0  0  0  0  0
   48.2088    7.7674   14.8895 H   0  0  0  0  0  0  0  0  0  0  0  0
   49.7105    6.9498   14.4517 H   0  0  0  0  0  0  0  0  0  0  0  0
   47.0524    8.0402   11.3813 H   0  0  0  0  0  0  0  0  0  0  0  0
   46.6272    8.4346   13.0517 H   0  0  0  0  0  0  0  0  0  0  0  0
   47.3970   10.4470   11.8734 H   0  0  0  0  0  0  0  0  0  0  0  0
   48.8560    9.6374   11.3464 H   0  0  0  0  0  0  0  0  0  0  0  0
   47.4137    5.7171   11.9172 H   0  0  0  0  0  0  0  0  0  0  0  0
   46.9737    5.9947   13.6158 H   0  0  0  0  0  0  0  0  0  0  0  0
   48.5383    5.2585   13.1860 H   0  0  0  0  0  0  0  0  0  0  0  0
   48.3450    7.9764   13.8371 H   0  0  0  0  0  0  0  0  0  0  0  0
   51.4261    7.8458   12.2264 H   0  0  0  0  0  0  0  0  0  0  0  0
   50.2305    7.7317   10.9061 H   0  0  0  0  0  0  0  0  0  0  0  0
   51.5932   10.3162   11.8410 H   0  0  0  0  0  0  0  0  0  0  0  0
   50.4425   10.1804   10.4918 H   0  0  0  0  0  0  0  0  0  0  0  0
   53.3214    8.1192    9.1789 H   0  0  0  0  0  0  0  0  0  0  0  0
  1  2  1  0
  1 12  2  0
  3  1  1  0
  3  4  2  0
  4  6  1  0
  5  4  1  0
  7  8  2  0
  8  9  1  0
  8  6  1  0
  9 15  1  0
 10 11  1  0
 10  6  2  0
 12 10  1  0
 13 14  2  0
 14 18  1  0
 15 13  1  0
 15 16  2  0
 16 17  1  0
 18 17  2  0
 19 14  1  0
 19 20  1  0
 20 21  1  0
 21 22  1  0
 22 23  1  0
 23 24  1  0
 23 27  1  0
 24 25  1  0
 25 20  1  0
 26 19  2  0
 28 29  1  0
 28 39  2  0
 30 28  1  0
 30 31  2  0
 31 33  1  0
 32 31  1  0
 34 35  2  0
 35 36  1  0
 35 33  1  0
 36 42  1  0
 37 38  1  0
 37 33  2  0
 39 37  1  0
 40 41  2  0
 41 45  1  0
 42 40  1  0
 42 43  2  0
 43 44  1  0
 45 44  2  0
 46 41  1  0
 46 47  1  0
 47 48  1  0
 48 49  1  0
 49 50  1  0
 50 51  1  0
 50 54  1  0
 51 52  1  0
 52 47  1  0
 53 46  2  0
 55 56  1  0
 56 57  2  0
 56 58  1  0
 58 59  1  0
 59 60  1  0
 60 61  2  0
 60 62  1  0
  3 63  1  0
  9 64  1  0
 12 65  1  0
 16 66  1  0
 17 67  1  0
 18 68  1  0
 20 69  1  0
 21 70  1  0
 21 71  1  0
 22 72  1  0
 22 73  1  0
 24 74  1  0
 24 75  1  0
 25 76  1  0
 25 77  1  0
 27 78  1  0
 27 79  1  0
 27 80  1  0
 30 81  1  0
 36 82  1  0
 39 83  1  0
 43 84  1  0
 44 85  1  0
 45 86  1  0
 47 87  1  0
 48 88  1  0
 48 89  1  0
 49 90  1  0
 49 91  1  0
 51 92  1  0
 51 93  1  0
 52 94  1  0
 52 95  1  0
 54 96  1  0
 54 97  1  0
 54 98  1  0
 55 99  1  0
 58100  1  0
 58101  1  0
 59102  1  0
 59103  1  0
 62104  1  0
M  END
> <Uni-Dock RESULT> 
ENERGY=   -4.997  LOWER_BOUND=    7.164  UPPER_BOUND=   11.044
INTER + INTRA:          -4.997
INTER:                  -4.997
INTRA:                   0.000
UNBOUND:                 0.000

$$$$

     RDKit          3D

104107  0  0  0  0  0  0  0  0999 V2000
   47.6107    5.6668   22.9896 C   0  0  0  0  0  0  0  0  0  0  0  0
   47.4960    5.0107   24.1501 F   0  0  0  0  0  0  0  0  0  0  0  0
   47.8316    4.9517   21.8180 C   0  0  0  0  0  0  0  0  0  0  0  0
   47.9477    5.6414   20.6132 C   0  0  0  0  0  0  0  0  0  0  0  0
   48.1983    4.9324   19.5038 F   0  0  0  0  0  0  0  0  0  0  0  0
   47.8542    7.0353   20.5723 C   0  0  0  0  0  0  0  0  0  0  0  0
   47.4358    7.2351   18.2951 O   0  0  0  0  0  0  0  0  0  0  0  0
   47.9592    7.7421   19.2790 C   0  0  0  0  0  0  0  0  0  0  0  0
   48.6739    8.9186   19.3036 N   0  0  0  0  0  0  0  0  0  0  0  0
   47.6321    7.7263   21.7638 C   0  0  0  0  0  0  0  0  0  0  0  0
   47.5299    9.0633   21.7695 F   0  0  0  0  0  0  0  0  0  0  0  0
   47.5066    7.0506   22.9745 C   0  0  0  0  0  0  0  0  0  0  0  0
   49.7832   10.7850   18.5692 N   0  0  0  0  0  0  0  0  0  0  0  0
   50.1145   11.6688   17.5947 C   0  0  0  0  0  0  0  0  0  0  0  0
   48.9457    9.7801   18.2394 C   0  0  0  0  0  0  0  0  0  0  0  0
   48.4187    9.6369   16.9629 C   0  0  0  0  0  0  0  0  0  0  0  0
   48.7623   10.5634   15.9807 C   0  0  0  0  0  0  0  0  0  0  0  0
   49.6270   11.6014   16.2967 C   0  0  0  0  0  0  0  0  0  0  0  0
   51.0794   12.7500   17.9613 C   0  0  0  0  0  0  0  0  0  0  0  0
   51.6943   12.7169   19.3590 C   0  0  0  0  0  0  0  0  0  0  0  0
   52.7404   11.5918   19.4591 C   0  0  0  0  0  0  0  0  0  0  0  0
   53.9778   11.9858   20.2744 C   0  0  0  0  0  0  0  0  0  0  0  0
   53.5704   12.7501   21.4518 N   0  0  0  0  0  0  0  0  0  0  0  0
   52.9858   14.0517   21.0924 C   0  0  0  0  0  0  0  0  0  0  0  0
   52.3229   14.0706   19.7112 C   0  0  0  0  0  0  0  0  0  0  0  0
   51.3655   13.6150   17.1323 O   0  0  0  0  0  0  0  0  0  0  0  0
   54.6722   12.9146   22.3962 C   0  0  0  0  0  0  0  0  0  0  0  0
   50.8039    4.6896   19.1837 C   0  0  0  0  0  0  0  0  0  0  0  0
   51.6154    3.6360   19.0355 F   0  0  0  0  0  0  0  0  0  0  0  0
   51.3487    5.9524   19.3546 C   0  0  0  0  0  0  0  0  0  0  0  0
   50.4955    7.0440   19.5054 C   0  0  0  0  0  0  0  0  0  0  0  0
   51.0611    8.2500   19.6665 F   0  0  0  0  0  0  0  0  0  0  0  0
   49.1021    6.8982   19.4910 C   0  0  0  0  0  0  0  0  0  0  0  0
   46.9613    7.8714   19.5284 O   0  0  0  0  0  0  0  0  0  0  0  0
   48.1684    8.0564   19.6419 C   0  0  0  0  0  0  0  0  0  0  0  0
   48.7470    9.2801   19.8967 N   0  0  0  0  0  0  0  0  0  0  0  0
   48.5882    5.6063   19.3175 C   0  0  0  0  0  0  0  0  0  0  0  0
   47.2686    5.3702   19.2989 F   0  0  0  0  0  0  0  0  0  0  0  0
   49.4298    4.5046   19.1646 C   0  0  0  0  0  0  0  0  0  0  0  0
   49.0070   11.5204   20.2626 N   0  0  0  0  0  0  0  0  0  0  0  0
   48.5219   12.7729   20.4208 C   0  0  0  0  0  0  0  0  0  0  0  0
   48.1254   10.5182   20.0682 C   0  0  0  0  0  0  0  0  0  0  0  0
   46.7538   10.7263   20.0399 C   0  0  0  0  0  0  0  0  0  0  0  0
   46.2684   12.0213   20.2133 C   0  0  0  0  0  0  0  0  0  0  0  0
   47.1648   13.0658   20.4066 C   0  0  0  0  0  0  0  0  0  0  0  0
   49.5139   13.8763   20.6086 C   0  0  0  0  0  0  0  0  0  0  0  0
   51.0149   13.5937   20.6083 C   0  0  0  0  0  0  0  0  0  0  0  0
   51.5299   13.0343   19.2808 C   0  0  0  0  0  0  0  0  0  0  0  0
   53.0338   12.7677   19.3397 C   0  0  0  0  0  0  0  0  0  0  0  0
   53.3654   11.8879   20.4687 N   0  0  0  0  0  0  0  0  0  0  0  0
   52.9750   12.4985   21.7475 C   0  0  0  0  0  0  0  0  0  0  0  0
   51.4665   12.7428   21.7955 C   0  0  0  0  0  0  0  0  0  0  0  0
   49.1014   15.0276   20.7680 O   0  0  0  0  0  0  0  0  0  0  0  0
   54.7934   11.5698   20.4654 C   0  0  0  0  0  0  0  0  0  0  0  0
   52.8857   12.0608   19.8520 O   0  0  0  0  0  0  0  0  0  0  0  0
   51.5939   11.9462   20.2174 C   0  0  0  0  0  0  0  0  0  0  0  0
   50.9919   12.8966   20.6870 O   0  0  0  0  0  0  0  0  0  0  0  0
   51.0620   10.5638   19.9746 C   0  0  0  0  0  0  0  0  0  0  0  0
   49.5882   10.4738   20.3557 C   0  0  0  0  0  0  0  0  0  0  0  0
   48.9722    9.1282   20.0899 C   0  0  0  0  0  0  0  0  0  0  0  0
   47.7813    8.8718   20.1805 O   0  0  0  0  0  0  0  0  0  0  0  0
   49.8460    8.1605   19.7647 O   0  0  0  0  0  0  0  0  0  0  0  0
   47.9193    3.8705   21.8411 H   0  0  0  0  0  0  0  0  0  0  0  0
   49.1028    9.2327   20.1649 H   0  0  0  0  0  0  0  0  0  0  0  0
   47.3275    7.5982   23.8938 H   0  0  0  0  0  0  0  0  0  0  0  0
   47.7414    8.8308   16.7049 H   0  0  0  0  0  0  0  0  0  0  0  0
   48.3598   10.4672   14.9756 H   0  0  0  0  0  0  0  0  0  0  0  0
   49.9178   12.3322   15.5492 H   0  0  0  0  0  0  0  0  0  0  0  0
   50.8878   12.5400   20.0834 H   0  0  0  0  0  0  0  0  0  0  0  0
   53.0687   11.2598   18.4647 H   0  0  0  0  0  0  0  0  0  0  0  0
   52.2652   10.7192   19.9275 H   0  0  0  0  0  0  0  0  0  0  0  0
   54.6810   12.5577   19.6551 H   0  0  0  0  0  0  0  0  0  0  0  0
   54.4919   11.0635   20.5696 H   0  0  0  0  0  0  0  0  0  0  0  0
   53.7386   14.8500   21.1048 H   0  0  0  0  0  0  0  0  0  0  0  0
   52.2430   14.3102   21.8558 H   0  0  0  0  0  0  0  0  0  0  0  0
   53.0764   14.3349   18.9567 H   0  0  0  0  0  0  0  0  0  0  0  0
   51.5658   14.8653   19.6775 H   0  0  0  0  0  0  0  0  0  0  0  0
   55.0350   11.9382   22.7388 H   0  0  0  0  0  0  0  0  0  0  0  0
   55.5171   13.4575   21.9570 H   0  0  0  0  0  0  0  0  0  0  0  0
   54.3379   13.4552   23.2901 H   0  0  0  0  0  0  0  0  0  0  0  0
   52.4252    6.0901   19.3674 H   0  0  0  0  0  0  0  0  0  0  0  0
   49.7568    9.3627   19.9578 H   0  0  0  0  0  0  0  0  0  0  0  0
   49.0085    3.5141   19.0293 H   0  0  0  0  0  0  0  0  0  0  0  0
   46.0459    9.9193   19.8896 H   0  0  0  0  0  0  0  0  0  0  0  0
   45.1980   12.2118   20.1895 H   0  0  0  0  0  0  0  0  0  0  0  0
   46.8112   14.0827   20.5430 H   0  0  0  0  0  0  0  0  0  0  0  0
   51.4870   14.5800   20.7343 H   0  0  0  0  0  0  0  0  0  0  0  0
   51.0256   12.1008   19.0162 H   0  0  0  0  0  0  0  0  0  0  0  0
   51.3104   13.7381   18.4700 H   0  0  0  0  0  0  0  0  0  0  0  0
   53.5812   13.7166   19.4074 H   0  0  0  0  0  0  0  0  0  0  0  0
   53.3308   12.2904   18.3982 H   0  0  0  0  0  0  0  0  0  0  0  0
   53.2378   11.8310   22.5769 H   0  0  0  0  0  0  0  0  0  0  0  0
   53.5087   13.4446   21.9064 H   0  0  0  0  0  0  0  0  0  0  0  0
   51.2053   13.2445   22.7344 H   0  0  0  0  0  0  0  0  0  0  0  0
   50.9526   11.7771   21.8153 H   0  0  0  0  0  0  0  0  0  0  0  0
   55.0381   10.8829   21.2830 H   0  0  0  0  0  0  0  0  0  0  0  0
   55.4177   12.4649   20.5696 H   0  0  0  0  0  0  0  0  0  0  0  0
   55.0688   11.0565   19.5355 H   0  0  0  0  0  0  0  0  0  0  0  0
   53.1117   12.9916   20.0584 H   0  0  0  0  0  0  0  0  0  0  0  0
   51.1916   10.3263   18.9122 H   0  0  0  0  0  0  0  0  0  0  0  0
   51.6526    9.8591   20.5719 H   0  0  0  0  0  0  0  0  0  0  0  0
   49.0160   11.2142   19.7829 H   0  0  0  0  0  0  0  0  0  0  0  0
   49.4640   10.6940   21.4235 H   0  0  0  0  0  0  0  0  0  0  0  0
   49.2824    7.3656   19.6492 H   0  0  0  0  0  0  0  0  0  0  0  0
  1  2  1  0
  1 12  2  0
  3  1  1  0
  3  4  2  0
  4  6  1  0
  5  4  1  0
  7  8  2  0
  8  9  1  0
  8  6  1  0
  9 15  1  0
 10 11  1  0
 10  6  2  0
 12 10  1  0
 13 14  2  0
 14 18  1  0
 15 13  1  0
 15 16  2  0
 16 17  1  0
 18 17  2  0
 19 14  1  0
 19 20  1  0
 20 21  1  0
 21 22  1  0
 22 23  1  0
 23 24  1  0
 23 27  1  0
 24 25  1  0
 25 20  1  0
 26 19  2  0
 28 29  1  0
 28 39  2  0
 30 28  1  0
 30 31  2  0
 31 33  1  0
 32 31  1  0
 34 35  2  0
 35 36  1  0
 35 33  1  0
 36 42  1  0
 37 38  1  0
 37 33  2  0
 39 37  1  0
 40 41  2  0
 41 45  1  0
 42 40  1  0
 42 43  2  0
 43 44  1  0
 45 44  2  0
 46 41  1  0
 46 47  1  0
 47 48  1  0
 48 49  1  0
 49 50  1  0
 50 51  1  0
 50 54  1  0
 51 52  1  0
 52 47  1  0
 53 46  2  0
 55 56  1  0
 56 57  2  0
 56 58  1  0
 58 59  1  0
 59 60  1  0
 60 61  2  0
 60 62  1  0
  3 63  1  0
  9 64  1  0
 12 65  1  0
 16 66  1  0
 17 67  1  0
 18 68  1  0
 20 69  1  0
 21 70  1  0
 21 71  1  0
 22 72  1  0
 22 73  1  0
 24 74  1  0
 24 75  1  0
 25 76  1  0
 25 77  1  0
 27 78  1  0
 27 79  1  0
 27 80  1  0
 30 81  1  0
 36 82  1  0
 39 83  1  0
 43 84  1  0
 44 85  1  0
 45 86  1  0
 47 87  1  0
 48 88  1  0
 48 89  1  0
 49 90  1  0
 49 91  1  0
 51 92  1  0
 51 93  1  0
 52 94  1  0
 52 95  1  0
 54 96  1  0
 54 97  1  0
 54 98  1  0
 55 99  1  0
 58100  1  0
 58101  1  0
 59102  1  0
 59103  1  0
 62104  1  0
M  END
> <Uni-Dock RESULT> 
ENERGY=   -4.887  LOWER_BOUND=    9.180  UPPER_BOUND=   12.197
INTER + INTRA:          -4.887
INTER:                  -4.887
INTRA:                   0.000
UNBOUND:                 0.000

$$$$

     RDKit          3D

104107  0  0  0  0  0  0  0  0999 V2000
   47.3711   12.8321   18.6974 C   0  0  0  0  0  0  0  0  0  0  0  0
   47.0775   13.8432   17.8716 F   0  0  0  0  0  0  0  0  0  0  0  0
   47.5863   13.0905   20.0464 C   0  0  0  0  0  0  0  0  0  0  0  0
   47.8894   12.0324   20.9004 C   0  0  0  0  0  0  0  0  0  0  0  0
   48.1297   12.3126   22.1888 F   0  0  0  0  0  0  0  0  0  0  0  0
   47.9876   10.7249   20.4164 C   0  0  0  0  0  0  0  0  0  0  0  0
   47.7819    9.6387   22.4606 O   0  0  0  0  0  0  0  0  0  0  0  0
   48.2889    9.6169   21.3463 C   0  0  0  0  0  0  0  0  0  0  0  0
   49.1510    8.6576   20.8646 N   0  0  0  0  0  0  0  0  0  0  0  0
   47.7664   10.4958   19.0581 C   0  0  0  0  0  0  0  0  0  0  0  0
   47.8446    9.2563   18.5526 F   0  0  0  0  0  0  0  0  0  0  0  0
   47.4555   11.5418   18.1936 C   0  0  0  0  0  0  0  0  0  0  0  0
   50.5558    6.8472   20.8174 N   0  0  0  0  0  0  0  0  0  0  0  0
   51.0792    5.7292   21.3801 C   0  0  0  0  0  0  0  0  0  0  0  0
   49.6197    7.5178   21.5202 C   0  0  0  0  0  0  0  0  0  0  0  0
   49.1813    7.0978   22.7689 C   0  0  0  0  0  0  0  0  0  0  0  0
   49.7232    5.9397   23.3224 C   0  0  0  0  0  0  0  0  0  0  0  0
   50.6916    5.2378   22.6192 C   0  0  0  0  0  0  0  0  0  0  0  0
   52.1484    5.0217   20.6115 C   0  0  0  0  0  0  0  0  0  0  0  0
   52.6403    5.6616   19.3149 C   0  0  0  0  0  0  0  0  0  0  0  0
   53.5145    6.8915   19.6207 C   0  0  0  0  0  0  0  0  0  0  0  0
   54.7249    7.0214   18.6885 C   0  0  0  0  0  0  0  0  0  0  0  0
   54.3317    6.6913   17.3199 N   0  0  0  0  0  0  0  0  0  0  0  0
   53.9577    5.2754   17.1772 C   0  0  0  0  0  0  0  0  0  0  0  0
   53.4151    4.6472   18.4650 C   0  0  0  0  0  0  0  0  0  0  0  0
   52.6130    3.9676   21.0477 O   0  0  0  0  0  0  0  0  0  0  0  0
   55.3671    7.0582   16.3576 C   0  0  0  0  0  0  0  0  0  0  0  0
   50.6961   12.8195   22.5158 C   0  0  0  0  0  0  0  0  0  0  0  0
   51.3679   13.8561   23.0303 F   0  0  0  0  0  0  0  0  0  0  0  0
   51.3904   11.8087   21.8701 C   0  0  0  0  0  0  0  0  0  0  0  0
   50.6824   10.7318   21.3399 C   0  0  0  0  0  0  0  0  0  0  0  0
   51.3903    9.7727   20.7241 F   0  0  0  0  0  0  0  0  0  0  0  0
   49.2876   10.6451   21.4405 C   0  0  0  0  0  0  0  0  0  0  0  0
   47.3008    9.4362   21.0900 O   0  0  0  0  0  0  0  0  0  0  0  0
   48.5089    9.4946   20.8871 C   0  0  0  0  0  0  0  0  0  0  0  0
   49.2246    8.5558   20.1776 N   0  0  0  0  0  0  0  0  0  0  0  0
   48.6201   11.6864   22.0989 C   0  0  0  0  0  0  0  0  0  0  0  0
   47.2864   11.6923   22.2357 F   0  0  0  0  0  0  0  0  0  0  0  0
   49.3156   12.7701   22.6351 C   0  0  0  0  0  0  0  0  0  0  0  0
   49.7534    6.6766   18.9903 N   0  0  0  0  0  0  0  0  0  0  0  0
   49.4300    5.5117   18.3843 C   0  0  0  0  0  0  0  0  0  0  0  0
   48.7634    7.3879   19.5677 C   0  0  0  0  0  0  0  0  0  0  0  0
   47.4389    6.9750   19.5478 C   0  0  0  0  0  0  0  0  0  0  0  0
   47.1196    5.7766   18.9116 C   0  0  0  0  0  0  0  0  0  0  0  0
   48.1300    5.0285   18.3190 C   0  0  0  0  0  0  0  0  0  0  0  0
   50.5432    4.7223   17.7723 C   0  0  0  0  0  0  0  0  0  0  0  0
   51.9879    5.2129   17.8438 C   0  0  0  0  0  0  0  0  0  0  0  0
   52.5268    5.3164   19.2718 C   0  0  0  0  0  0  0  0  0  0  0  0
   53.9717    5.8146   19.2824 C   0  0  0  0  0  0  0  0  0  0  0  0
   54.0914    7.0882   18.5596 N   0  0  0  0  0  0  0  0  0  0  0  0
   53.6863    6.9390   17.1545 C   0  0  0  0  0  0  0  0  0  0  0  0
   52.2253    6.4999   17.0534 C   0  0  0  0  0  0  0  0  0  0  0  0
   50.2778    3.6617   17.2014 O   0  0  0  0  0  0  0  0  0  0  0  0
   55.4594    7.5990   18.6489 C   0  0  0  0  0  0  0  0  0  0  0  0
   53.6898    6.6285   19.0770 O   0  0  0  0  0  0  0  0  0  0  0  0
   52.3695    6.6688   18.8118 C   0  0  0  0  0  0  0  0  0  0  0  0
   51.8652    5.8775   18.0335 O   0  0  0  0  0  0  0  0  0  0  0  0
   51.6776    7.7648   19.5688 C   0  0  0  0  0  0  0  0  0  0  0  0
   50.1795    7.7602   19.2840 C   0  0  0  0  0  0  0  0  0  0  0  0
   49.4114    8.8010   20.0505 C   0  0  0  0  0  0  0  0  0  0  0  0
   48.1934    8.8856   20.0907 O   0  0  0  0  0  0  0  0  0  0  0  0
   50.1702    9.7033   20.6951 O   0  0  0  0  0  0  0  0  0  0  0  0
   47.5258   14.1038   20.4294 H   0  0  0  0  0  0  0  0  0  0  0  0
   49.5485    8.7529   19.9386 H   0  0  0  0  0  0  0  0  0  0  0  0
   47.2791   11.3505   17.1403 H   0  0  0  0  0  0  0  0  0  0  0  0
   48.4245    7.6374   23.3267 H   0  0  0  0  0  0  0  0  0  0  0  0
   49.3924    5.5957   24.2990 H   0  0  0  0  0  0  0  0  0  0  0  0
   51.1364    4.3375   23.0301 H   0  0  0  0  0  0  0  0  0  0  0  0
   51.7624    5.9661   18.7291 H   0  0  0  0  0  0  0  0  0  0  0  0
   53.8731    6.8804   20.6591 H   0  0  0  0  0  0  0  0  0  0  0  0
   52.8907    7.7907   19.5260 H   0  0  0  0  0  0  0  0  0  0  0  0
   55.5455    6.3776   19.0307 H   0  0  0  0  0  0  0  0  0  0  0  0
   55.0853    8.0550   18.7498 H   0  0  0  0  0  0  0  0  0  0  0  0
   54.8075    4.6642   16.8480 H   0  0  0  0  0  0  0  0  0  0  0  0
   53.1981    5.2048   16.3902 H   0  0  0  0  0  0  0  0  0  0  0  0
   54.2548    4.2434   19.0471 H   0  0  0  0  0  0  0  0  0  0  0  0
   52.7768    3.7893   18.2152 H   0  0  0  0  0  0  0  0  0  0  0  0
   55.5671    8.1356   16.3988 H   0  0  0  0  0  0  0  0  0  0  0  0
   56.3095    6.5292   16.5406 H   0  0  0  0  0  0  0  0  0  0  0  0
   55.0385    6.8401   15.3341 H   0  0  0  0  0  0  0  0  0  0  0  0
   52.4712   11.8533   21.7814 H   0  0  0  0  0  0  0  0  0  0  0  0
   50.2283    8.6584   20.0664 H   0  0  0  0  0  0  0  0  0  0  0  0
   48.7770   13.5634   23.1427 H   0  0  0  0  0  0  0  0  0  0  0  0
   46.6431    7.5503   20.0068 H   0  0  0  0  0  0  0  0  0  0  0  0
   46.0898    5.4280   18.8870 H   0  0  0  0  0  0  0  0  0  0  0  0
   47.9066    4.0918   17.8185 H   0  0  0  0  0  0  0  0  0  0  0  0
   52.5766    4.4279   17.3453 H   0  0  0  0  0  0  0  0  0  0  0  0
   51.9243    5.9971   19.8796 H   0  0  0  0  0  0  0  0  0  0  0  0
   52.4689    4.3388   19.7634 H   0  0  0  0  0  0  0  0  0  0  0  0
   54.6346    5.0541   18.8502 H   0  0  0  0  0  0  0  0  0  0  0  0
   54.2758    5.9514   20.3271 H   0  0  0  0  0  0  0  0  0  0  0  0
   53.7903    7.8969   16.6310 H   0  0  0  0  0  0  0  0  0  0  0  0
   54.3279    6.2124   16.6392 H   0  0  0  0  0  0  0  0  0  0  0  0
   51.9602    6.3453   16.0012 H   0  0  0  0  0  0  0  0  0  0  0  0
   51.5864    7.3133   17.4101 H   0  0  0  0  0  0  0  0  0  0  0  0
   55.5440    8.5676   18.1440 H   0  0  0  0  0  0  0  0  0  0  0  0
   56.1881    6.9130   18.2013 H   0  0  0  0  0  0  0  0  0  0  0  0
   55.7363    7.7697   19.6968 H   0  0  0  0  0  0  0  0  0  0  0  0
   54.0218    5.8860   18.5306 H   0  0  0  0  0  0  0  0  0  0  0  0
   51.8580    7.6113   20.6392 H   0  0  0  0  0  0  0  0  0  0  0  0
   52.1189    8.7220   19.2666 H   0  0  0  0  0  0  0  0  0  0  0  0
   49.7593    6.7821   19.5496 H   0  0  0  0  0  0  0  0  0  0  0  0
   50.0016    7.9323   18.2149 H   0  0  0  0  0  0  0  0  0  0  0  0
   49.5159   10.3026   21.1141 H   0  0  0  0  0  0  0  0  0  0  0  0
  1  2  1  0
  1 12  2  0
  3  1  1  0
  3  4  2  0
  4  6  1  0
  5  4  1  0
  7  8  2  0
  8  9  1  0
  8  6  1  0
  9 15  1  0
 10 11  1  0
 10  6  2  0
 12 10  1  0
 13 14  2  0
 14 18  1  0
 15 13  1  0
 15 16  2  0
 16 17  1  0
 18 17  2  0
 19 14  1  0
 19 20  1  0
 20 21  1  0
 21 22  1  0
 22 23  1  0
 23 24  1  0
 23 27  1  0
 24 25  1  0
 25 20  1  0
 26 19  2  0
 28 29  1  0
 28 39  2  0
 30 28  1  0
 30 31  2  0
 31 33  1  0
 32 31  1  0
 34 35  2  0
 35 36  1  0
 35 33  1  0
 36 42  1  0
 37 38  1  0
 37 33  2  0
 39 37  1  0
 40 41  2  0
 41 45  1  0
 42 40  1  0
 42 43  2  0
 43 44  1  0
 45 44  2  0
 46 41  1  0
 46 47  1  0
 47 48  1  0
 48 49  1  0
 49 50  1  0
 50 51  1  0
 50 54  1  0
 51 52  1  0
 52 47  1  0
 53 46  2  0
 55 56  1  0
 56 57  2  0
 56 58  1  0
 58 59  1  0
 59 60  1  0
 60 61  2  0
 60 62  1  0
  3 63  1  0
  9 64  1  0
 12 65  1  0
 16 66  1  0
 17 67  1  0
 18 68  1  0
 20 69  1  0
 21 70  1  0
 21 71  1  0
 22 72  1  0
 22 73  1  0
 24 74  1  0
 24 75  1  0
 25 76  1  0
 25 77  1  0
 27 78  1  0
 27 79  1  0
 27 80  1  0
 30 81  1  0
 36 82  1  0
 39 83  1  0
 43 84  1  0
 44 85  1  0
 45 86  1  0
 47 87  1  0
 48 88  1  0
 48 89  1  0
 49 90  1  0
 49 91  1  0
 51 92  1  0
 51 93  1  0
 52 94  1  0
 52 95  1  0
 54 96  1  0
 54 97  1  0
 54 98  1  0
 55 99  1  0
 58100  1  0
 58101  1  0
 59102  1  0
 59103  1  0
 62104  1  0
M  END
> <Uni-Dock RESULT> 
ENERGY=   -4.779  LOWER_BOUND=    9.935  UPPER_BOUND=   12.845
INTER + INTRA:          -4.779
INTER:                  -4.779
INTRA:                   0.000
UNBOUND:                 0.000

$$$$

     RDKit          3D

104107  0  0  0  0  0  0  0  0999 V2000
   47.0900    5.1374   14.4411 C   0  0  0  0  0  0  0  0  0  0  0  0
   46.0840    4.2934   14.1840 F   0  0  0  0  0  0  0  0  0  0  0  0
   47.6775    5.1385   15.7011 C   0  0  0  0  0  0  0  0  0  0  0  0
   48.7258    6.0186   15.9607 C   0  0  0  0  0  0  0  0  0  0  0  0
   49.2498    6.0267   17.1942 F   0  0  0  0  0  0  0  0  0  0  0  0
   49.1831    6.9000   14.9772 C   0  0  0  0  0  0  0  0  0  0  0  0
   51.2374    7.3851   15.9496 O   0  0  0  0  0  0  0  0  0  0  0  0
   50.3108    7.8086   15.2704 C   0  0  0  0  0  0  0  0  0  0  0  0
   50.1942    9.0813   14.7583 N   0  0  0  0  0  0  0  0  0  0  0  0
   48.5745    6.8763   13.7220 C   0  0  0  0  0  0  0  0  0  0  0  0
   48.9857    7.7006   12.7476 F   0  0  0  0  0  0  0  0  0  0  0  0
   47.5308    5.9976   13.4452 C   0  0  0  0  0  0  0  0  0  0  0  0
   50.6211   11.3004   14.3755 N   0  0  0  0  0  0  0  0  0  0  0  0
   51.4193   12.3938   14.4649 C   0  0  0  0  0  0  0  0  0  0  0  0
   51.0901   10.1440   14.8879 C   0  0  0  0  0  0  0  0  0  0  0  0
   52.3419   10.0439   15.4801 C   0  0  0  0  0  0  0  0  0  0  0  0
   53.1503   11.1765   15.5499 C   0  0  0  0  0  0  0  0  0  0  0  0
   52.6852   12.3777   15.0343 C   0  0  0  0  0  0  0  0  0  0  0  0
   50.8689   13.6786   13.9350 C   0  0  0  0  0  0  0  0  0  0  0  0
   49.4258   13.6868   13.4349 C   0  0  0  0  0  0  0  0  0  0  0  0
   48.4460   13.6235   14.6207 C   0  0  0  0  0  0  0  0  0  0  0  0
   47.2086   14.5090   14.4322 C   0  0  0  0  0  0  0  0  0  0  0  0
   46.7370   14.4111   13.0521 N   0  0  0  0  0  0  0  0  0  0  0  0
   47.6986   14.9826   12.0962 C   0  0  0  0  0  0  0  0  0  0  0  0
   49.1529   14.9272   12.5755 C   0  0  0  0  0  0  0  0  0  0  0  0
   51.5757   14.6874   13.9347 O   0  0  0  0  0  0  0  0  0  0  0  0
   45.4167   15.0136   12.8889 C   0  0  0  0  0  0  0  0  0  0  0  0
   47.9323    7.7441   18.6993 C   0  0  0  0  0  0  0  0  0  0  0  0
   47.2985    7.6371   19.8729 F   0  0  0  0  0  0  0  0  0  0  0  0
   47.8234    8.9168   17.9689 C   0  0  0  0  0  0  0  0  0  0  0  0
   48.4893    9.0199   16.7490 C   0  0  0  0  0  0  0  0  0  0  0  0
   48.3609   10.1716   16.0728 F   0  0  0  0  0  0  0  0  0  0  0  0
   49.2638    7.9689   16.2406 C   0  0  0  0  0  0  0  0  0  0  0  0
   50.7270    7.1396   14.5967 O   0  0  0  0  0  0  0  0  0  0  0  0
   49.9938    8.0612   14.9389 C   0  0  0  0  0  0  0  0  0  0  0  0
   49.7902    9.2075   14.2028 N   0  0  0  0  0  0  0  0  0  0  0  0
   49.3491    6.7985   17.0063 C   0  0  0  0  0  0  0  0  0  0  0  0
   50.0603    5.7388   16.5956 F   0  0  0  0  0  0  0  0  0  0  0  0
   48.6888    6.6813   18.2293 C   0  0  0  0  0  0  0  0  0  0  0  0
   49.9554   10.7850   12.5583 N   0  0  0  0  0  0  0  0  0  0  0  0
   50.4466   11.2468   11.3859 C   0  0  0  0  0  0  0  0  0  0  0  0
   50.3458    9.5620   12.9723 C   0  0  0  0  0  0  0  0  0  0  0  0
   51.2129    8.7670   12.2365 C   0  0  0  0  0  0  0  0  0  0  0  0
   51.7039    9.2528   11.0258 C   0  0  0  0  0  0  0  0  0  0  0  0
   51.3171   10.5146   10.5896 C   0  0  0  0  0  0  0  0  0  0  0  0
   50.0246   12.6153   10.9544 C   0  0  0  0  0  0  0  0  0  0  0  0
   49.0853   13.4573   11.8155 C   0  0  0  0  0  0  0  0  0  0  0  0
   49.6656   13.8085   13.1867 C   0  0  0  0  0  0  0  0  0  0  0  0
   48.6831   14.6467   14.0043 C   0  0  0  0  0  0  0  0  0  0  0  0
   47.3848   13.9682   14.1179 N   0  0  0  0  0  0  0  0  0  0  0  0
   46.7841   13.7505   12.7942 C   0  0  0  0  0  0  0  0  0  0  0  0
   47.6807   12.8642   11.9292 C   0  0  0  0  0  0  0  0  0  0  0  0
   50.4461   13.0587    9.8835 O   0  0  0  0  0  0  0  0  0  0  0  0
   46.4804   14.7371   14.9730 C   0  0  0  0  0  0  0  0  0  0  0  0
   48.1838   13.9274   14.1366 O   0  0  0  0  0  0  0  0  0  0  0  0
   48.6145   12.8606   13.4356 C   0  0  0  0  0  0  0  0  0  0  0  0
   48.8518   12.9521   12.2433 O   0  0  0  0  0  0  0  0  0  0  0  0
   48.7396   11.6366   14.2954 C   0  0  0  0  0  0  0  0  0  0  0  0
   49.2696   10.4568   13.4877 C   0  0  0  0  0  0  0  0  0  0  0  0
   49.4707    9.2062   14.2979 C   0  0  0  0  0  0  0  0  0  0  0  0
   50.0179    8.1907   13.8960 O   0  0  0  0  0  0  0  0  0  0  0  0
   48.9607    9.2492   15.5404 O   0  0  0  0  0  0  0  0  0  0  0  0
   47.3207    4.4677   16.4756 H   0  0  0  0  0  0  0  0  0  0  0  0
   49.3654    9.3450   14.2406 H   0  0  0  0  0  0  0  0  0  0  0  0
   47.0695    5.9837   12.4633 H   0  0  0  0  0  0  0  0  0  0  0  0
   52.7161    9.1106   15.8851 H   0  0  0  0  0  0  0  0  0  0  0  0
   54.1333   11.1173   16.0102 H   0  0  0  0  0  0  0  0  0  0  0  0
   53.2904   13.2769   15.0826 H   0  0  0  0  0  0  0  0  0  0  0  0
   49.2830   12.8110   12.7877 H   0  0  0  0  0  0  0  0  0  0  0  0
   48.9369   13.9055   15.5622 H   0  0  0  0  0  0  0  0  0  0  0  0
   48.1247   12.5807   14.7479 H   0  0  0  0  0  0  0  0  0  0  0  0
   47.4349   15.5493   14.7002 H   0  0  0  0  0  0  0  0  0  0  0  0
   46.4384   14.1613   15.1307 H   0  0  0  0  0  0  0  0  0  0  0  0
   47.4686   16.0314   11.8699 H   0  0  0  0  0  0  0  0  0  0  0  0
   47.6053   14.4314   11.1535 H   0  0  0  0  0  0  0  0  0  0  0  0
   49.3727   15.8337   13.1559 H   0  0  0  0  0  0  0  0  0  0  0  0
   49.8268   14.9491   11.7088 H   0  0  0  0  0  0  0  0  0  0  0  0
   44.6825   14.5124   13.5309 H   0  0  0  0  0  0  0  0  0  0  0  0
   45.4145   16.0811   13.1374 H   0  0  0  0  0  0  0  0  0  0  0  0
   45.0625   14.8954   11.8575 H   0  0  0  0  0  0  0  0  0  0  0  0
   47.2305    9.7452   18.3434 H   0  0  0  0  0  0  0  0  0  0  0  0
   49.1836    9.9396   14.5583 H   0  0  0  0  0  0  0  0  0  0  0  0
   48.7717    5.7658   18.8056 H   0  0  0  0  0  0  0  0  0  0  0  0
   51.5213    7.7819   12.5671 H   0  0  0  0  0  0  0  0  0  0  0  0
   52.3894    8.6517   10.4330 H   0  0  0  0  0  0  0  0  0  0  0  0
   51.6865   10.9149    9.6510 H   0  0  0  0  0  0  0  0  0  0  0  0
   48.9793   14.4073   11.2699 H   0  0  0  0  0  0  0  0  0  0  0  0
   49.9113   12.9106   13.7604 H   0  0  0  0  0  0  0  0  0  0  0  0
   50.6064   14.3569   13.0635 H   0  0  0  0  0  0  0  0  0  0  0  0
   48.5687   15.6398   13.5513 H   0  0  0  0  0  0  0  0  0  0  0  0
   49.1124   14.7950   15.0024 H   0  0  0  0  0  0  0  0  0  0  0  0
   45.8137   13.2510   12.9008 H   0  0  0  0  0  0  0  0  0  0  0  0
   46.6065   14.7067   12.2850 H   0  0  0  0  0  0  0  0  0  0  0  0
   47.2393   12.7577   10.9316 H   0  0  0  0  0  0  0  0  0  0  0  0
   47.7037   11.8583   12.3589 H   0  0  0  0  0  0  0  0  0  0  0  0
   45.5243   14.2155   15.0918 H   0  0  0  0  0  0  0  0  0  0  0  0
   46.2792   15.7368   14.5704 H   0  0  0  0  0  0  0  0  0  0  0  0
   46.9036   14.8431   15.9797 H   0  0  0  0  0  0  0  0  0  0  0  0
   48.1425   14.6487   13.4747 H   0  0  0  0  0  0  0  0  0  0  0  0
   49.4228   11.8645   15.1220 H   0  0  0  0  0  0  0  0  0  0  0  0
   47.7499   11.4026   14.7052 H   0  0  0  0  0  0  0  0  0  0  0  0
   50.2393   10.7205   13.0474 H   0  0  0  0  0  0  0  0  0  0  0  0
   48.5746   10.2195   12.6723 H   0  0  0  0  0  0  0  0  0  0  0  0
   49.1625    8.3616   15.9068 H   0  0  0  0  0  0  0  0  0  0  0  0
  1  2  1  0
  1 12  2  0
  3  1  1  0
  3  4  2  0
  4  6  1  0
  5  4  1  0
  7  8  2  0
  8  9  1  0
  8  6  1  0
  9 15  1  0
 10 11  1  0
 10  6  2  0
 12 10  1  0
 13 14  2  0
 14 18  1  0
 15 13  1  0
 15 16  2  0
 16 17  1  0
 18 17  2  0
 19 14  1  0
 19 20  1  0
 20 21  1  0
 21 22  1  0
 22 23  1  0
 23 24  1  0
 23 27  1  0
 24 25  1  0
 25 20  1  0
 26 19  2  0
 28 29  1  0
 28 39  2  0
 30 28  1  0
 30 31  2  0
 31 33  1  0
 32 31  1  0
 34 35  2  0
 35 36  1  0
 35 33  1  0
 36 42  1  0
 37 38  1  0
 37 33  2  0
 39 37  1  0
 40 41  2  0
 41 45  1  0
 42 40  1  0
 42 43  2  0
 43 44  1  0
 45 44  2  0
 46 41  1  0
 46 47  1  0
 47 48  1  0
 48 49  1  0
 49 50  1  0
 50 51  1  0
 50 54  1  0
 51 52  1  0
 52 47  1  0
 53 46  2  0
 55 56  1  0
 56 57  2  0
 56 58  1  0
 58 59  1  0
 59 60  1  0
 60 61  2  0
 60 62  1  0
  3 63  1  0
  9 64  1  0
 12 65  1  0
 16 66  1  0
 17 67  1  0
 18 68  1  0
 20 69  1  0
 21 70  1  0
 21 71  1  0
 22 72  1  0
 22 73  1  0
 24 74  1  0
 24 75  1  0
 25 76  1  0
 25 77  1  0
 27 78  1  0
 27 79  1  0
 27 80  1  0
 30 81  1  0
 36 82  1  0
 39 83  1  0
 43 84  1  0
 44 85  1  0
 45 86  1  0
 47 87  1  0
 48 88  1  0
 48 89  1  0
 49 90  1  0
 49 91  1  0
 51 92  1  0
 51 93  1  0
 52 94  1  0
 52 95  1  0
 54 96  1  0
 54 97  1  0
 54 98  1  0
 55 99  1  0
 58100  1  0
 58101  1  0
 59102  1  0
 59103  1  0
 62104  1  0
M  END
> <Uni-Dock RESULT> 
ENERGY=   -4.712  LOWER_BOUND=    5.595  UPPER_BOUND=    8.394
INTER + INTRA:          -4.712
INTER:                  -4.712
INTRA:                   0.000
UNBOUND:                 0.000

$$$$

     RDKit          3D

104107  0  0  0  0  0  0  0  0999 V2000
   48.0199    3.6768   17.5700 C   0  0  0  0  0  0  0  0  0  0  0  0
   47.0086    2.8231   17.7674 F   0  0  0  0  0  0  0  0  0  0  0  0
   49.2859    3.3610   18.0496 C   0  0  0  0  0  0  0  0  0  0  0  0
   50.3343    4.2538   17.8383 C   0  0  0  0  0  0  0  0  0  0  0  0
   51.5364    3.9437   18.3435 F   0  0  0  0  0  0  0  0  0  0  0  0
   50.1254    5.4589   17.1621 C   0  0  0  0  0  0  0  0  0  0  0  0
   52.3497    5.8995   16.6528 O   0  0  0  0  0  0  0  0  0  0  0  0
   51.2582    6.3792   16.9318 C   0  0  0  0  0  0  0  0  0  0  0  0
   50.9732    7.7179   17.0808 N   0  0  0  0  0  0  0  0  0  0  0  0
   48.8443    5.7491   16.6920 C   0  0  0  0  0  0  0  0  0  0  0  0
   48.6007    6.8912   16.0330 F   0  0  0  0  0  0  0  0  0  0  0  0
   47.7882    4.8637   16.8889 C   0  0  0  0  0  0  0  0  0  0  0  0
   51.2814    9.9803   17.2796 N   0  0  0  0  0  0  0  0  0  0  0  0
   52.0546   11.0912   17.1856 C   0  0  0  0  0  0  0  0  0  0  0  0
   51.8423    8.8012   16.9405 C   0  0  0  0  0  0  0  0  0  0  0  0
   53.1545    8.6992   16.4984 C   0  0  0  0  0  0  0  0  0  0  0  0
   53.9267    9.8544   16.3972 C   0  0  0  0  0  0  0  0  0  0  0  0
   53.3714   11.0770   16.7467 C   0  0  0  0  0  0  0  0  0  0  0  0
   51.4354   12.3844   17.6085 C   0  0  0  0  0  0  0  0  0  0  0  0
   50.0311   12.3435   18.2073 C   0  0  0  0  0  0  0  0  0  0  0  0
   50.0718   11.7649   19.6334 C   0  0  0  0  0  0  0  0  0  0  0  0
   49.1209   12.4762   20.6033 C   0  0  0  0  0  0  0  0  0  0  0  0
   47.8519   12.7565   19.9340 N   0  0  0  0  0  0  0  0  0  0  0  0
   48.0038   13.7352   18.8459 C   0  0  0  0  0  0  0  0  0  0  0  0
   49.3977   13.7401   18.2099 C   0  0  0  0  0  0  0  0  0  0  0  0
   52.0723   13.4314   17.4844 O   0  0  0  0  0  0  0  0  0  0  0  0
   46.8250   13.1825   20.8809 C   0  0  0  0  0  0  0  0  0  0  0  0
   51.7283    4.8828   20.7994 C   0  0  0  0  0  0  0  0  0  0  0  0
   52.0146    4.3171   21.9777 F   0  0  0  0  0  0  0  0  0  0  0  0
   51.2948    6.1986   20.7610 C   0  0  0  0  0  0  0  0  0  0  0  0
   51.0017    6.7801   19.5288 C   0  0  0  0  0  0  0  0  0  0  0  0
   50.5869    8.0560   19.5332 F   0  0  0  0  0  0  0  0  0  0  0  0
   51.1315    6.0691   18.3285 C   0  0  0  0  0  0  0  0  0  0  0  0
   51.0536    6.0273   15.9783 O   0  0  0  0  0  0  0  0  0  0  0  0
   50.8313    6.6758   16.9952 C   0  0  0  0  0  0  0  0  0  0  0  0
   50.3206    7.9549   17.0057 N   0  0  0  0  0  0  0  0  0  0  0  0
   51.5709    4.7409   18.4072 C   0  0  0  0  0  0  0  0  0  0  0  0
   51.7167    3.9816   17.3119 F   0  0  0  0  0  0  0  0  0  0  0  0
   51.8687    4.1460   19.6331 C   0  0  0  0  0  0  0  0  0  0  0  0
   49.5352    9.9808   16.2991 N   0  0  0  0  0  0  0  0  0  0  0  0
   49.1819   10.8579   15.3322 C   0  0  0  0  0  0  0  0  0  0  0  0
   49.9655    8.7594   15.9216 C   0  0  0  0  0  0  0  0  0  0  0  0
   50.0429    8.3742   14.5908 C   0  0  0  0  0  0  0  0  0  0  0  0
   49.6669    9.2860   13.6059 C   0  0  0  0  0  0  0  0  0  0  0  0
   49.2289   10.5513   13.9788 C   0  0  0  0  0  0  0  0  0  0  0  0
   48.7323   12.2167   15.7666 C   0  0  0  0  0  0  0  0  0  0  0  0
   48.6884   12.5956   17.2456 C   0  0  0  0  0  0  0  0  0  0  0  0
   50.0602   12.5712   17.9223 C   0  0  0  0  0  0  0  0  0  0  0  0
   49.9551   12.9541   19.3983 C   0  0  0  0  0  0  0  0  0  0  0  0
   48.9872   12.0951   20.0941 N   0  0  0  0  0  0  0  0  0  0  0  0
   47.6459   12.2266   19.5075 C   0  0  0  0  0  0  0  0  0  0  0  0
   47.6506   11.8013   18.0389 C   0  0  0  0  0  0  0  0  0  0  0  0
   48.3917   13.0342   14.9083 O   0  0  0  0  0  0  0  0  0  0  0  0
   48.9574   12.4125   21.5219 C   0  0  0  0  0  0  0  0  0  0  0  0
   49.5913   12.1662   19.5741 O   0  0  0  0  0  0  0  0  0  0  0  0
   49.3363   11.4523   18.4602 C   0  0  0  0  0  0  0  0  0  0  0  0
   48.7402   11.9523   17.5217 O   0  0  0  0  0  0  0  0  0  0  0  0
   49.8614   10.0496   18.5595 C   0  0  0  0  0  0  0  0  0  0  0  0
   49.5981    9.2782   17.2708 C   0  0  0  0  0  0  0  0  0  0  0  0
   50.1444    7.8774   17.2779 C   0  0  0  0  0  0  0  0  0  0  0  0
   50.1785    7.1330   16.3099 O   0  0  0  0  0  0  0  0  0  0  0  0
   50.5846    7.4481   18.4727 O   0  0  0  0  0  0  0  0  0  0  0  0
   49.4554    2.4342   18.5877 H   0  0  0  0  0  0  0  0  0  0  0  0
   50.0433    8.0104   17.3534 H   0  0  0  0  0  0  0  0  0  0  0  0
   46.7976    5.0972   16.5131 H   0  0  0  0  0  0  0  0  0  0  0  0
   53.5983    7.7497   16.2216 H   0  0  0  0  0  0  0  0  0  0  0  0
   54.9560    9.7940   16.0533 H   0  0  0  0  0  0  0  0  0  0  0  0
   53.9525   11.9913   16.6854 H   0  0  0  0  0  0  0  0  0  0  0  0
   49.4043   11.7087   17.5665 H   0  0  0  0  0  0  0  0  0  0  0  0
   51.0872   11.7997   20.0515 H   0  0  0  0  0  0  0  0  0  0  0  0
   49.8023   10.7012   19.5823 H   0  0  0  0  0  0  0  0  0  0  0  0
   49.5788   13.3979   20.9853 H   0  0  0  0  0  0  0  0  0  0  0  0
   48.9671   11.8168   21.4656 H   0  0  0  0  0  0  0  0  0  0  0  0
   47.7975   14.7567   19.1895 H   0  0  0  0  0  0  0  0  0  0  0  0
   47.2551   13.5059   18.0790 H   0  0  0  0  0  0  0  0  0  0  0  0
   50.0415   14.4360   18.7651 H   0  0  0  0  0  0  0  0  0  0  0  0
   49.3338   14.1341   17.1868 H   0  0  0  0  0  0  0  0  0  0  0  0
   46.6443   12.4025   21.6302 H   0  0  0  0  0  0  0  0  0  0  0  0
   47.1026   14.1031   21.4072 H   0  0  0  0  0  0  0  0  0  0  0  0
   45.8705   13.3496   20.3670 H   0  0  0  0  0  0  0  0  0  0  0  0
   51.1884    6.7698   21.6777 H   0  0  0  0  0  0  0  0  0  0  0  0
   50.1810    8.4400   17.8863 H   0  0  0  0  0  0  0  0  0  0  0  0
   52.2096    3.1167   19.6687 H   0  0  0  0  0  0  0  0  0  0  0  0
   50.3831    7.3904   14.2887 H   0  0  0  0  0  0  0  0  0  0  0  0
   49.7238    9.0106   12.5553 H   0  0  0  0  0  0  0  0  0  0  0  0
   48.9316   11.2788   13.2304 H   0  0  0  0  0  0  0  0  0  0  0  0
   48.3542   13.6442   17.2576 H   0  0  0  0  0  0  0  0  0  0  0  0
   50.5228   11.5825   17.8560 H   0  0  0  0  0  0  0  0  0  0  0  0
   50.7409   13.2597   17.4091 H   0  0  0  0  0  0  0  0  0  0  0  0
   49.6802   14.0124   19.4933 H   0  0  0  0  0  0  0  0  0  0  0  0
   50.9471   12.8367   19.8507 H   0  0  0  0  0  0  0  0  0  0  0  0
   46.9375   11.5848   20.0449 H   0  0  0  0  0  0  0  0  0  0  0  0
   47.2829   13.2590   19.5930 H   0  0  0  0  0  0  0  0  0  0  0  0
   46.6544   11.9559   17.6086 H   0  0  0  0  0  0  0  0  0  0  0  0
   47.8406   10.7253   17.9832 H   0  0  0  0  0  0  0  0  0  0  0  0
   48.2653   11.7482   22.0511 H   0  0  0  0  0  0  0  0  0  0  0  0
   48.6516   13.4483   21.7100 H   0  0  0  0  0  0  0  0  0  0  0  0
   49.9460   12.2519   21.9702 H   0  0  0  0  0  0  0  0  0  0  0  0
   49.2041   13.0469   19.3884 H   0  0  0  0  0  0  0  0  0  0  0  0
   50.9388   10.0981   18.7562 H   0  0  0  0  0  0  0  0  0  0  0  0
   49.3665    9.5571   19.4050 H   0  0  0  0  0  0  0  0  0  0  0  0
   50.0612    9.8054   16.4274 H   0  0  0  0  0  0  0  0  0  0  0  0
   48.5182    9.2157   17.0863 H   0  0  0  0  0  0  0  0  0  0  0  0
   50.8794    6.5288   18.2969 H   0  0  0  0  0  0  0  0  0  0  0  0
  1  2  1  0
  1 12  2  0
  3  1  1  0
  3  4  2  0
  4  6  1  0
  5  4  1  0
  7  8  2  0
  8  9  1  0
  8  6  1  0
  9 15  1  0
 10 11  1  0
 10  6  2  0
 12 10  1  0
 13 14  2  0
 14 18  1  0
 15 13  1  0
 15 16  2  0
 16 17  1  0
 18 17  2  0
 19 14  1  0
 19 20  1  0
 20 21  1  0
 21 22  1  0
 22 23  1  0
 23 24  1  0
 23 27  1  0
 24 25  1  0
 25 20  1  0
 26 19  2  0
 28 29  1  0
 28 39  2  0
 30 28  1  0
 30 31  2  0
 31 33  1  0
 32 31  1  0
 34 35  2  0
 35 36  1  0
 35 33  1  0
 36 42  1  0
 37 38  1  0
 37 33  2  0
 39 37  1  0
 40 41  2  0
 41 45  1  0
 42 40  1  0
 42 43  2  0
 43 44  1  0
 45 44  2  0
 46 41  1  0
 46 47  1  0
 47 48  1  0
 48 49  1  0
 49 50  1  0
 50 51  1  0
 50 54  1  0
 51 52  1  0
 52 47  1  0
 53 46  2  0
 55 56  1  0
 56 57  2  0
 56 58  1  0
 58 59  1  0
 59 60  1  0
 60 61  2  0
 60 62  1  0
  3 63  1  0
  9 64  1  0
 12 65  1  0
 16 66  1  0
 17 67  1  0
 18 68  1  0
 20 69  1  0
 21 70  1  0
 21 71  1  0
 22 72  1  0
 22 73  1  0
 24 74  1  0
 24 75  1  0
 25 76  1  0
 25 77  1  0
 27 78  1  0
 27 79  1  0
 27 80  1  0
 30 81  1  0
 36 82  1  0
 39 83  1  0
 43 84  1  0
 44 85  1  0
 45 86  1  0
 47 87  1  0
 48 88  1  0
 48 89  1  0
 49 90  1  0
 49 91  1  0
 51 92  1  0
 51 93  1  0
 52 94  1  0
 52 95  1  0
 54 96  1  0
 54 97  1  0
 54 98  1  0
 55 99  1  0
 58100  1  0
 58101  1  0
 59102  1  0
 59103  1  0
 62104  1  0
M  END
> <Uni-Dock RESULT> 
ENERGY=   -4.599  LOWER_BOUND=    8.083  UPPER_BOUND=   11.289
INTER + INTRA:          -4.599
INTER:                  -4.599
INTRA:                   0.000
UNBOUND:                 0.000

$$$$

     RDKit          3D

104107  0  0  0  0  0  0  0  0999 V2000
   47.0137    6.2311   12.4694 C   0  0  0  0  0  0  0  0  0  0  0  0
   46.4097    5.4541   11.5629 F   0  0  0  0  0  0  0  0  0  0  0  0
   47.5120    7.4708   12.0851 C   0  0  0  0  0  0  0  0  0  0  0  0
   48.1377    8.2752   13.0349 C   0  0  0  0  0  0  0  0  0  0  0  0
   48.6431    9.4489   12.6309 F   0  0  0  0  0  0  0  0  0  0  0  0
   48.2765    7.8475   14.3582 C   0  0  0  0  0  0  0  0  0  0  0  0
   48.7003    9.9307   15.2973 O   0  0  0  0  0  0  0  0  0  0  0  0
   48.9248    8.7282   15.3518 C   0  0  0  0  0  0  0  0  0  0  0  0
   49.7574    8.0970   16.2485 N   0  0  0  0  0  0  0  0  0  0  0  0
   47.7666    6.5988   14.7149 C   0  0  0  0  0  0  0  0  0  0  0  0
   47.8728    6.1520   15.9747 F   0  0  0  0  0  0  0  0  0  0  0  0
   47.1323    5.7869   13.7788 C   0  0  0  0  0  0  0  0  0  0  0  0
   51.3208    7.7949   17.8970 N   0  0  0  0  0  0  0  0  0  0  0  0
   52.0964    8.2660   18.9056 C   0  0  0  0  0  0  0  0  0  0  0  0
   50.5052    8.6726   17.2772 C   0  0  0  0  0  0  0  0  0  0  0  0
   50.4329   10.0101   17.6428 C   0  0  0  0  0  0  0  0  0  0  0  0
   51.2290   10.4698   18.6897 C   0  0  0  0  0  0  0  0  0  0  0  0
   52.0796    9.5852   19.3372 C   0  0  0  0  0  0  0  0  0  0  0  0
   53.0290    7.2935   19.5529 C   0  0  0  0  0  0  0  0  0  0  0  0
   53.1144    5.8855   18.9674 C   0  0  0  0  0  0  0  0  0  0  0  0
   53.8791    5.9048   17.6313 C   0  0  0  0  0  0  0  0  0  0  0  0
   54.8060    4.6975   17.4463 C   0  0  0  0  0  0  0  0  0  0  0  0
   54.1404    3.4864   17.9222 N   0  0  0  0  0  0  0  0  0  0  0  0
   53.9192    3.5108   19.3767 C   0  0  0  0  0  0  0  0  0  0  0  0
   53.7815    4.9223   19.9567 C   0  0  0  0  0  0  0  0  0  0  0  0
   53.7099    7.6535   20.5142 O   0  0  0  0  0  0  0  0  0  0  0  0
   54.8626    2.2813   17.5234 C   0  0  0  0  0  0  0  0  0  0  0  0
   51.1313    9.1072   11.8295 C   0  0  0  0  0  0  0  0  0  0  0  0
   51.7746    9.3879   10.6902 F   0  0  0  0  0  0  0  0  0  0  0  0
   51.7693    8.3612   12.8078 C   0  0  0  0  0  0  0  0  0  0  0  0
   51.0923    8.0763   13.9922 C   0  0  0  0  0  0  0  0  0  0  0  0
   51.7442    7.3533   14.9156 F   0  0  0  0  0  0  0  0  0  0  0  0
   49.7835    8.5220   14.2189 C   0  0  0  0  0  0  0  0  0  0  0  0
   47.9339    8.7328   15.6562 O   0  0  0  0  0  0  0  0  0  0  0  0
   49.0419    8.2356   15.4854 C   0  0  0  0  0  0  0  0  0  0  0  0
   49.6764    7.4190   16.3952 N   0  0  0  0  0  0  0  0  0  0  0  0
   49.1706    9.2721   13.2065 C   0  0  0  0  0  0  0  0  0  0  0  0
   47.9180    9.7332   13.3320 F   0  0  0  0  0  0  0  0  0  0  0  0
   49.8361    9.5656   12.0163 C   0  0  0  0  0  0  0  0  0  0  0  0
   50.1318    6.2330   18.2942 N   0  0  0  0  0  0  0  0  0  0  0  0
   49.8179    5.7841   19.5307 C   0  0  0  0  0  0  0  0  0  0  0  0
   49.2292    7.0006   17.6496 C   0  0  0  0  0  0  0  0  0  0  0  0
   47.9992    7.3286   18.2016 C   0  0  0  0  0  0  0  0  0  0  0  0
   47.6861    6.8512   19.4731 C   0  0  0  0  0  0  0  0  0  0  0  0
   48.6092    6.0655   20.1533 C   0  0  0  0  0  0  0  0  0  0  0  0
   50.8404    4.9564   20.2424 C   0  0  0  0  0  0  0  0  0  0  0  0
   52.1890    4.6450   19.5966 C   0  0  0  0  0  0  0  0  0  0  0  0
   53.0369    5.8890   19.3250 C   0  0  0  0  0  0  0  0  0  0  0  0
   54.3703    5.5181   18.6764 C   0  0  0  0  0  0  0  0  0  0  0  0
   54.1569    4.7256   17.4577 N   0  0  0  0  0  0  0  0  0  0  0  0
   53.4488    3.4731   17.7584 C   0  0  0  0  0  0  0  0  0  0  0  0
   52.0711    3.7575   18.3572 C   0  0  0  0  0  0  0  0  0  0  0  0
   50.5779    4.5221   21.3665 O   0  0  0  0  0  0  0  0  0  0  0  0
   55.4334    4.4493   16.7986 C   0  0  0  0  0  0  0  0  0  0  0  0
   53.9500    5.3484   17.9157 O   0  0  0  0  0  0  0  0  0  0  0  0
   52.6099    5.4153   18.0371 C   0  0  0  0  0  0  0  0  0  0  0  0
   52.0348    4.8258   18.9360 O   0  0  0  0  0  0  0  0  0  0  0  0
   51.9904    6.2642   16.9654 C   0  0  0  0  0  0  0  0  0  0  0  0
   50.4798    6.3582   17.1518 C   0  0  0  0  0  0  0  0  0  0  0  0
   49.7959    7.2378   16.1422 C   0  0  0  0  0  0  0  0  0  0  0  0
   48.6220    7.5729   16.1849 O   0  0  0  0  0  0  0  0  0  0  0  0
   50.5706    7.6297   15.1165 O   0  0  0  0  0  0  0  0  0  0  0  0
   47.4213    7.8060   11.0572 H   0  0  0  0  0  0  0  0  0  0  0  0
   49.9071    7.0981   16.1839 H   0  0  0  0  0  0  0  0  0  0  0  0
   46.7339    4.8204   14.0693 H   0  0  0  0  0  0  0  0  0  0  0  0
   49.7713   10.7099   17.1450 H   0  0  0  0  0  0  0  0  0  0  0  0
   51.1862   11.5136   18.9897 H   0  0  0  0  0  0  0  0  0  0  0  0
   52.7165    9.9180   20.1501 H   0  0  0  0  0  0  0  0  0  0  0  0
   52.0914    5.5200   18.8049 H   0  0  0  0  0  0  0  0  0  0  0  0
   54.4742    6.8218   17.5230 H   0  0  0  0  0  0  0  0  0  0  0  0
   53.1455    5.9222   16.8138 H   0  0  0  0  0  0  0  0  0  0  0  0
   55.7572    4.8583   17.9703 H   0  0  0  0  0  0  0  0  0  0  0  0
   55.0414    4.6166   16.3785 H   0  0  0  0  0  0  0  0  0  0  0  0
   54.7339    3.0130   19.9177 H   0  0  0  0  0  0  0  0  0  0  0  0
   53.0080    2.9400   19.5891 H   0  0  0  0  0  0  0  0  0  0  0  0
   54.7790    5.2986   20.2221 H   0  0  0  0  0  0  0  0  0  0  0  0
   53.2119    4.8806   20.8946 H   0  0  0  0  0  0  0  0  0  0  0  0
   54.9333    2.2184   16.4309 H   0  0  0  0  0  0  0  0  0  0  0  0
   55.8788    2.2524   17.9330 H   0  0  0  0  0  0  0  0  0  0  0  0
   54.3280    1.3826   17.8544 H   0  0  0  0  0  0  0  0  0  0  0  0
   52.7837    8.0066   12.6554 H   0  0  0  0  0  0  0  0  0  0  0  0
   50.6041    7.0587   16.1952 H   0  0  0  0  0  0  0  0  0  0  0  0
   49.3417   10.1503   11.2477 H   0  0  0  0  0  0  0  0  0  0  0  0
   47.2720    7.9405   17.6802 H   0  0  0  0  0  0  0  0  0  0  0  0
   46.7310    7.0986   19.9304 H   0  0  0  0  0  0  0  0  0  0  0  0
   48.3889    5.6828   21.1447 H   0  0  0  0  0  0  0  0  0  0  0  0
   52.7329    4.0562   20.3509 H   0  0  0  0  0  0  0  0  0  0  0  0
   52.5187    6.5920   18.6670 H   0  0  0  0  0  0  0  0  0  0  0  0
   53.2185    6.4276   20.2619 H   0  0  0  0  0  0  0  0  0  0  0  0
   54.9985    4.9741   19.3934 H   0  0  0  0  0  0  0  0  0  0  0  0
   54.8963    6.4473   18.4268 H   0  0  0  0  0  0  0  0  0  0  0  0
   53.3066    2.8931   16.8387 H   0  0  0  0  0  0  0  0  0  0  0  0
   54.0325    2.8522   18.4504 H   0  0  0  0  0  0  0  0  0  0  0  0
   51.5830    2.8121   18.6209 H   0  0  0  0  0  0  0  0  0  0  0  0
   51.4414    4.2199   17.5912 H   0  0  0  0  0  0  0  0  0  0  0  0
   55.2755    3.8917   15.8689 H   0  0  0  0  0  0  0  0  0  0  0  0
   56.1122    3.8705   17.4359 H   0  0  0  0  0  0  0  0  0  0  0  0
   55.9299    5.3867   16.5181 H   0  0  0  0  0  0  0  0  0  0  0  0
   54.2300    4.7746   18.6590 H   0  0  0  0  0  0  0  0  0  0  0  0
   52.4390    7.2632   17.0147 H   0  0  0  0  0  0  0  0  0  0  0  0
   52.2260    5.8153   15.9932 H   0  0  0  0  0  0  0  0  0  0  0  0
   50.2583    6.7676   18.1454 H   0  0  0  0  0  0  0  0  0  0  0  0
   50.0317    5.3589   17.0837 H   0  0  0  0  0  0  0  0  0  0  0  0
   49.9672    8.1668   14.5596 H   0  0  0  0  0  0  0  0  0  0  0  0
  1  2  1  0
  1 12  2  0
  3  1  1  0
  3  4  2  0
  4  6  1  0
  5  4  1  0
  7  8  2  0
  8  9  1  0
  8  6  1  0
  9 15  1  0
 10 11  1  0
 10  6  2  0
 12 10  1  0
 13 14  2  0
 14 18  1  0
 15 13  1  0
 15 16  2  0
 16 17  1  0
 18 17  2  0
 19 14  1  0
 19 20  1  0
 20 21  1  0
 21 22  1  0
 22 23  1  0
 23 24  1  0
 23 27  1  0
 24 25  1  0
 25 20  1  0
 26 19  2  0
 28 29  1  0
 28 39  2  0
 30 28  1  0
 30 31  2  0
 31 33  1  0
 32 31  1  0
 34 35  2  0
 35 36  1  0
 35 33  1  0
 36 42  1  0
 37 38  1  0
 37 33  2  0
 39 37  1  0
 40 41  2  0
 41 45  1  0
 42 40  1  0
 42 43  2  0
 43 44  1  0
 45 44  2  0
 46 41  1  0
 46 47  1  0
 47 48  1  0
 48 49  1  0
 49 50  1  0
 50 51  1  0
 50 54  1  0
 51 52  1  0
 52 47  1  0
 53 46  2  0
 55 56  1  0
 56 57  2  0
 56 58  1  0
 58 59  1  0
 59 60  1  0
 60 61  2  0
 60 62  1  0
  3 63  1  0
  9 64  1  0
 12 65  1  0
 16 66  1  0
 17 67  1  0
 18 68  1  0
 20 69  1  0
 21 70  1  0
 21 71  1  0
 22 72  1  0
 22 73  1  0
 24 74  1  0
 24 75  1  0
 25 76  1  0
 25 77  1  0
 27 78  1  0
 27 79  1  0
 27 80  1  0
 30 81  1  0
 36 82  1  0
 39 83  1  0
 43 84  1  0
 44 85  1  0
 45 86  1  0
 47 87  1  0
 48 88  1  0
 48 89  1  0
 49 90  1  0
 49 91  1  0
 51 92  1  0
 51 93  1  0
 52 94  1  0
 52 95  1  0
 54 96  1  0
 54 97  1  0
 54 98  1  0
 55 99  1  0
 58100  1  0
 58101  1  0
 59102  1  0
 59103  1  0
 62104  1  0
M  END
> <Uni-Dock RESULT> 
ENERGY=   -4.567  LOWER_BOUND=    8.730  UPPER_BOUND=   12.051
INTER + INTRA:          -4.567
INTER:                  -4.567
INTRA:                   0.000
UNBOUND:                 0.000

$$$$

     RDKit          3D

104107  0  0  0  0  0  0  0  0999 V2000
   43.9592   15.4190   14.7190 C   0  0  0  0  0  0  0  0  0  0  0  0
   43.1044   15.7659   15.6883 F   0  0  0  0  0  0  0  0  0  0  0  0
   43.5175   15.3708   13.4017 C   0  0  0  0  0  0  0  0  0  0  0  0
   44.4138   15.0110   12.3978 C   0  0  0  0  0  0  0  0  0  0  0  0
   43.9539   14.9351   11.1412 F   0  0  0  0  0  0  0  0  0  0  0  0
   45.7402   14.6914   12.7007 C   0  0  0  0  0  0  0  0  0  0  0  0
   46.6002   14.9435   10.5564 O   0  0  0  0  0  0  0  0  0  0  0  0
   46.6770   14.3338   11.6155 C   0  0  0  0  0  0  0  0  0  0  0  0
   47.5500   13.3081   11.9010 N   0  0  0  0  0  0  0  0  0  0  0  0
   46.1552   14.7486   14.0315 C   0  0  0  0  0  0  0  0  0  0  0  0
   47.4203   14.4559   14.3659 F   0  0  0  0  0  0  0  0  0  0  0  0
   45.2732   15.1136   15.0448 C   0  0  0  0  0  0  0  0  0  0  0  0
   49.1295   11.6739   11.6050 N   0  0  0  0  0  0  0  0  0  0  0  0
   50.0865   11.0608   10.8641 C   0  0  0  0  0  0  0  0  0  0  0  0
   48.5254   12.7548   11.0697 C   0  0  0  0  0  0  0  0  0  0  0  0
   48.8571   13.2501    9.8157 C   0  0  0  0  0  0  0  0  0  0  0  0
   49.8517   12.6125    9.0773 C   0  0  0  0  0  0  0  0  0  0  0  0
   50.4818   11.4954    9.6064 C   0  0  0  0  0  0  0  0  0  0  0  0
   50.7150    9.8373   11.4493 C   0  0  0  0  0  0  0  0  0  0  0  0
   50.1652    9.3143   12.7747 C   0  0  0  0  0  0  0  0  0  0  0  0
   48.7940    8.6474   12.5617 C   0  0  0  0  0  0  0  0  0  0  0  0
   48.5982    7.3819   13.4051 C   0  0  0  0  0  0  0  0  0  0  0  0
   49.1386    7.5941   14.7466 N   0  0  0  0  0  0  0  0  0  0  0  0
   50.6008    7.7583   14.7352 C   0  0  0  0  0  0  0  0  0  0  0  0
   51.1476    8.3320   13.4239 C   0  0  0  0  0  0  0  0  0  0  0  0
   51.6324    9.2786   10.8463 O   0  0  0  0  0  0  0  0  0  0  0  0
   48.7390    6.5304   15.6639 C   0  0  0  0  0  0  0  0  0  0  0  0
   43.0442   12.5037   10.6817 C   0  0  0  0  0  0  0  0  0  0  0  0
   41.8681   12.0303   10.2536 F   0  0  0  0  0  0  0  0  0  0  0  0
   44.0111   11.6208   11.1359 C   0  0  0  0  0  0  0  0  0  0  0  0
   45.2339   12.1231   11.5773 C   0  0  0  0  0  0  0  0  0  0  0  0
   46.1445   11.2366   12.0074 F   0  0  0  0  0  0  0  0  0  0  0  0
   45.5105   13.4966   11.5761 C   0  0  0  0  0  0  0  0  0  0  0  0
   47.0282   15.2594   11.9232 O   0  0  0  0  0  0  0  0  0  0  0  0
   46.8184   14.0564   12.0365 C   0  0  0  0  0  0  0  0  0  0  0  0
   47.7190   13.1559   12.5613 N   0  0  0  0  0  0  0  0  0  0  0  0
   44.5082   14.3584   11.1112 C   0  0  0  0  0  0  0  0  0  0  0  0
   44.6807   15.6876   11.0813 F   0  0  0  0  0  0  0  0  0  0  0  0
   43.2799   13.8700   10.6657 C   0  0  0  0  0  0  0  0  0  0  0  0
   49.6260   12.2673   13.4523 N   0  0  0  0  0  0  0  0  0  0  0  0
   50.8880   12.3711   13.9272 C   0  0  0  0  0  0  0  0  0  0  0  0
   49.0043   13.3949   13.0504 C   0  0  0  0  0  0  0  0  0  0  0  0
   49.6052   14.6436   13.1210 C   0  0  0  0  0  0  0  0  0  0  0  0
   50.9030   14.7359   13.6211 C   0  0  0  0  0  0  0  0  0  0  0  0
   51.5597   13.5817   14.0317 C   0  0  0  0  0  0  0  0  0  0  0  0
   51.5725   11.1081   14.3436 C   0  0  0  0  0  0  0  0  0  0  0  0
   50.8718    9.7564   14.2226 C   0  0  0  0  0  0  0  0  0  0  0  0
   50.5258    9.3756   12.7819 C   0  0  0  0  0  0  0  0  0  0  0  0
   49.8246    8.0188   12.7221 C   0  0  0  0  0  0  0  0  0  0  0  0
   48.6398    8.0033   13.5908 N   0  0  0  0  0  0  0  0  0  0  0  0
   49.0085    8.2482   14.9925 C   0  0  0  0  0  0  0  0  0  0  0  0
   49.6644    9.6202   15.1506 C   0  0  0  0  0  0  0  0  0  0  0  0
   52.7194   11.1722   14.7926 O   0  0  0  0  0  0  0  0  0  0  0  0
   47.9283    6.7316   13.4608 C   0  0  0  0  0  0  0  0  0  0  0  0
   49.0899    8.3870   13.0517 O   0  0  0  0  0  0  0  0  0  0  0  0
   49.2734    9.6691   13.4227 C   0  0  0  0  0  0  0  0  0  0  0  0
   50.2146    9.9852   14.1300 O   0  0  0  0  0  0  0  0  0  0  0  0
   48.2095   10.5718   12.8692 C   0  0  0  0  0  0  0  0  0  0  0  0
   48.4653   12.0213   13.2677 C   0  0  0  0  0  0  0  0  0  0  0  0
   47.4656   12.9927   12.7038 C   0  0  0  0  0  0  0  0  0  0  0  0
   47.5552   14.2092   12.7704 O   0  0  0  0  0  0  0  0  0  0  0  0
   46.3937   12.4277   12.1228 O   0  0  0  0  0  0  0  0  0  0  0  0
   42.4862   15.6039   13.1579 H   0  0  0  0  0  0  0  0  0  0  0  0
   47.5058   12.8403   12.7975 H   0  0  0  0  0  0  0  0  0  0  0  0
   45.6089   15.1608   16.0754 H   0  0  0  0  0  0  0  0  0  0  0  0
   48.3724   14.1227    9.3929 H   0  0  0  0  0  0  0  0  0  0  0  0
   50.1245   12.9858    8.0935 H   0  0  0  0  0  0  0  0  0  0  0  0
   51.2540   10.9746    9.0497 H   0  0  0  0  0  0  0  0  0  0  0  0
   50.0618   10.1651   13.4618 H   0  0  0  0  0  0  0  0  0  0  0  0
   48.6321    8.3916   11.5057 H   0  0  0  0  0  0  0  0  0  0  0  0
   48.0124    9.3748   12.8197 H   0  0  0  0  0  0  0  0  0  0  0  0
   49.0716    6.5185   12.9198 H   0  0  0  0  0  0  0  0  0  0  0  0
   47.5231    7.1718   13.4490 H   0  0  0  0  0  0  0  0  0  0  0  0
   51.1157    6.8062   14.9155 H   0  0  0  0  0  0  0  0  0  0  0  0
   50.8721    8.4226   15.5637 H   0  0  0  0  0  0  0  0  0  0  0  0
   51.3545    7.5051   12.7308 H   0  0  0  0  0  0  0  0  0  0  0  0
   52.1125    8.8219   13.6108 H   0  0  0  0  0  0  0  0  0  0  0  0
   47.6466    6.4824   15.7458 H   0  0  0  0  0  0  0  0  0  0  0  0
   49.1003    5.5471   15.3411 H   0  0  0  0  0  0  0  0  0  0  0  0
   49.1199    6.7270   16.6735 H   0  0  0  0  0  0  0  0  0  0  0  0
   43.8201   10.5525   11.1446 H   0  0  0  0  0  0  0  0  0  0  0  0
   47.4849   12.1692   12.6057 H   0  0  0  0  0  0  0  0  0  0  0  0
   42.5201   14.5567   10.3080 H   0  0  0  0  0  0  0  0  0  0  0  0
   49.1026   15.5499   12.8034 H   0  0  0  0  0  0  0  0  0  0  0  0
   51.3984   15.7021   13.6814 H   0  0  0  0  0  0  0  0  0  0  0  0
   52.5706   13.6278   14.4237 H   0  0  0  0  0  0  0  0  0  0  0  0
   51.6151    9.0221   14.5685 H   0  0  0  0  0  0  0  0  0  0  0  0
   49.8743   10.1198   12.3156 H   0  0  0  0  0  0  0  0  0  0  0  0
   51.4378    9.3479   12.1749 H   0  0  0  0  0  0  0  0  0  0  0  0
   50.5255    7.2211   12.9997 H   0  0  0  0  0  0  0  0  0  0  0  0
   49.5247    7.8374   11.6830 H   0  0  0  0  0  0  0  0  0  0  0  0
   48.1129    8.2247   15.6249 H   0  0  0  0  0  0  0  0  0  0  0  0
   49.6887    7.4681   15.3584 H   0  0  0  0  0  0  0  0  0  0  0  0
   49.9771    9.7600   16.1918 H   0  0  0  0  0  0  0  0  0  0  0  0
   48.9169   10.3942   14.9525 H   0  0  0  0  0  0  0  0  0  0  0  0
   47.0229    6.7306   14.0777 H   0  0  0  0  0  0  0  0  0  0  0  0
   48.5481    5.8776   13.7581 H   0  0  0  0  0  0  0  0  0  0  0  0
   47.5987    6.5819   12.4250 H   0  0  0  0  0  0  0  0  0  0  0  0
   49.8345    7.9071   13.4705 H   0  0  0  0  0  0  0  0  0  0  0  0
   48.2098   10.4756   11.7772 H   0  0  0  0  0  0  0  0  0  0  0  0
   47.2398   10.2368   13.2563 H   0  0  0  0  0  0  0  0  0  0  0  0
   49.4566   12.3293   12.9124 H   0  0  0  0  0  0  0  0  0  0  0  0
   48.4462   12.1177   14.3606 H   0  0  0  0  0  0  0  0  0  0  0  0
   45.8516   13.1940   11.8369 H   0  0  0  0  0  0  0  0  0  0  0  0
  1  2  1  0
  1 12  2  0
  3  1  1  0
  3  4  2  0
  4  6  1  0
  5  4  1  0
  7  8  2  0
  8  9  1  0
  8  6  1  0
  9 15  1  0
 10 11  1  0
 10  6  2  0
 12 10  1  0
 13 14  2  0
 14 18  1  0
 15 13  1  0
 15 16  2  0
 16 17  1  0
 18 17  2  0
 19 14  1  0
 19 20  1  0
 20 21  1  0
 21 22  1  0
 22 23  1  0
 23 24  1  0
 23 27  1  0
 24 25  1  0
 25 20  1  0
 26 19  2  0
 28 29  1  0
 28 39  2  0
 30 28  1  0
 30 31  2  0
 31 33  1  0
 32 31  1  0
 34 35  2  0
 35 36  1  0
 35 33  1  0
 36 42  1  0
 37 38  1  0
 37 33  2  0
 39 37  1  0
 40 41  2  0
 41 45  1  0
 42 40  1  0
 42 43  2  0
 43 44  1  0
 45 44  2  0
 46 41  1  0
 46 47  1  0
 47 48  1  0
 48 49  1  0
 49 50  1  0
 50 51  1  0
 50 54  1  0
 51 52  1  0
 52 47  1  0
 53 46  2  0
 55 56  1  0
 56 57  2  0
 56 58  1  0
 58 59  1  0
 59 60  1  0
 60 61  2  0
 60 62  1  0
  3 63  1  0
  9 64  1  0
 12 65  1  0
 16 66  1  0
 17 67  1  0
 18 68  1  0
 20 69  1  0
 21 70  1  0
 21 71  1  0
 22 72  1  0
 22 73  1  0
 24 74  1  0
 24 75  1  0
 25 76  1  0
 25 77  1  0
 27 78  1  0
 27 79  1  0
 27 80  1  0
 30 81  1  0
 36 82  1  0
 39 83  1  0
 43 84  1  0
 44 85  1  0
 45 86  1  0
 47 87  1  0
 48 88  1  0
 48 89  1  0
 49 90  1  0
 49 91  1  0
 51 92  1  0
 51 93  1  0
 52 94  1  0
 52 95  1  0
 54 96  1  0
 54 97  1  0
 54 98  1  0
 55 99  1  0
 58100  1  0
 58101  1  0
 59102  1  0
 59103  1  0
 62104  1  0
M  END
> <Uni-Dock RESULT> 
ENERGY=   -4.544  LOWER_BOUND=    3.387  UPPER_BOUND=    6.733
INTER + INTRA:          -4.544
INTER:                  -4.544
INTRA:                   0.000
UNBOUND:                 0.000

$$$$

     RDKit          3D

104107  0  0  0  0  0  0  0  0999 V2000
   44.9652    9.4971   11.8691 C   0  0  0  0  0  0  0  0  0  0  0  0
   43.8726    8.7537   11.6593 F   0  0  0  0  0  0  0  0  0  0  0  0
   44.9284   10.8600   11.5971 C   0  0  0  0  0  0  0  0  0  0  0  0
   46.0692   11.6279   11.8201 C   0  0  0  0  0  0  0  0  0  0  0  0
   46.0197   12.9318   11.5142 F   0  0  0  0  0  0  0  0  0  0  0  0
   47.2441   11.0444   12.3022 C   0  0  0  0  0  0  0  0  0  0  0  0
   48.2690   13.0012   13.0245 O   0  0  0  0  0  0  0  0  0  0  0  0
   48.4341   11.8841   12.5510 C   0  0  0  0  0  0  0  0  0  0  0  0
   49.6398   11.3229   12.1945 N   0  0  0  0  0  0  0  0  0  0  0  0
   47.2514    9.6745   12.5663 C   0  0  0  0  0  0  0  0  0  0  0  0
   48.3554    9.0750   13.0354 F   0  0  0  0  0  0  0  0  0  0  0  0
   46.1173    8.8953   12.3555 C   0  0  0  0  0  0  0  0  0  0  0  0
   51.8782   11.1252   11.7432 N   0  0  0  0  0  0  0  0  0  0  0  0
   53.1497   11.5962   11.7881 C   0  0  0  0  0  0  0  0  0  0  0  0
   50.9130   11.8854   12.3005 C   0  0  0  0  0  0  0  0  0  0  0  0
   51.1822   13.1019   12.9130 C   0  0  0  0  0  0  0  0  0  0  0  0
   52.4970   13.5605   12.9589 C   0  0  0  0  0  0  0  0  0  0  0  0
   53.5045   12.7973   12.3866 C   0  0  0  0  0  0  0  0  0  0  0  0
   54.2024   10.7664   11.1264 C   0  0  0  0  0  0  0  0  0  0  0  0
   53.7575    9.5184   10.3667 C   0  0  0  0  0  0  0  0  0  0  0  0
   53.0730    9.9099    9.0444 C   0  0  0  0  0  0  0  0  0  0  0  0
   53.4300    8.9799    7.8788 C   0  0  0  0  0  0  0  0  0  0  0  0
   53.4499    7.5935    8.3416 N   0  0  0  0  0  0  0  0  0  0  0  0
   54.5354    7.3461    9.3036 C   0  0  0  0  0  0  0  0  0  0  0  0
   54.9467    8.5867   10.1031 C   0  0  0  0  0  0  0  0  0  0  0  0
   55.3815   11.1166   11.1920 O   0  0  0  0  0  0  0  0  0  0  0  0
   53.5153    6.6531    7.2262 C   0  0  0  0  0  0  0  0  0  0  0  0
   46.7370   13.2744    9.0005 C   0  0  0  0  0  0  0  0  0  0  0  0
   46.1495   13.8609    7.9510 F   0  0  0  0  0  0  0  0  0  0  0  0
   47.9017   12.5472    8.8127 C   0  0  0  0  0  0  0  0  0  0  0  0
   48.5079   11.9423    9.9123 C   0  0  0  0  0  0  0  0  0  0  0  0
   49.6348   11.2488    9.6901 F   0  0  0  0  0  0  0  0  0  0  0  0
   47.9698   12.0481   11.2016 C   0  0  0  0  0  0  0  0  0  0  0  0
   48.1356   11.6233   13.5089 O   0  0  0  0  0  0  0  0  0  0  0  0
   48.6082   11.4151   12.3965 C   0  0  0  0  0  0  0  0  0  0  0  0
   49.7138   10.6296   12.1558 N   0  0  0  0  0  0  0  0  0  0  0  0
   46.7907   12.7900   11.3521 C   0  0  0  0  0  0  0  0  0  0  0  0
   46.1999   12.9384   12.5464 F   0  0  0  0  0  0  0  0  0  0  0  0
   46.1734   13.4015   10.2610 C   0  0  0  0  0  0  0  0  0  0  0  0
   51.5399    9.2975   12.4888 N   0  0  0  0  0  0  0  0  0  0  0  0
   52.3907    8.6068   13.2814 C   0  0  0  0  0  0  0  0  0  0  0  0
   50.5054    9.9361   13.0729 C   0  0  0  0  0  0  0  0  0  0  0  0
   50.2809    9.8961   14.4416 C   0  0  0  0  0  0  0  0  0  0  0  0
   51.1612    9.1729   15.2446 C   0  0  0  0  0  0  0  0  0  0  0  0
   52.2366    8.5160   14.6583 C   0  0  0  0  0  0  0  0  0  0  0  0
   53.5475    7.9266   12.6210 C   0  0  0  0  0  0  0  0  0  0  0  0
   53.7600    8.0230   11.1116 C   0  0  0  0  0  0  0  0  0  0  0  0
   54.0115    9.4500   10.6210 C   0  0  0  0  0  0  0  0  0  0  0  0
   54.2130    9.4862    9.1063 C   0  0  0  0  0  0  0  0  0  0  0  0
   53.0783    8.8619    8.4125 N   0  0  0  0  0  0  0  0  0  0  0  0
   52.9289    7.4531    8.8043 C   0  0  0  0  0  0  0  0  0  0  0  0
   52.6610    7.3314   10.3046 C   0  0  0  0  0  0  0  0  0  0  0  0
   54.3336    7.2786   13.3162 O   0  0  0  0  0  0  0  0  0  0  0  0
   53.2399    8.9782    6.9631 C   0  0  0  0  0  0  0  0  0  0  0  0
   53.3464    9.3461    8.9904 O   0  0  0  0  0  0  0  0  0  0  0  0
   52.7019    9.0962   10.1468 C   0  0  0  0  0  0  0  0  0  0  0  0
   53.1262    8.2641   10.9302 O   0  0  0  0  0  0  0  0  0  0  0  0
   51.4703    9.9408   10.2974 C   0  0  0  0  0  0  0  0  0  0  0  0
   50.7850    9.6695   11.6324 C   0  0  0  0  0  0  0  0  0  0  0  0
   49.5693   10.5200   11.8761 C   0  0  0  0  0  0  0  0  0  0  0  0
   48.9529   10.5771   12.9292 O   0  0  0  0  0  0  0  0  0  0  0  0
   49.1498   11.2252   10.8119 O   0  0  0  0  0  0  0  0  0  0  0  0
   44.0253   11.3199   11.2097 H   0  0  0  0  0  0  0  0  0  0  0  0
   49.6652   10.4036   11.7718 H   0  0  0  0  0  0  0  0  0  0  0  0
   46.1329    7.8320   12.5706 H   0  0  0  0  0  0  0  0  0  0  0  0
   50.4034   13.7060   13.3644 H   0  0  0  0  0  0  0  0  0  0  0  0
   52.7269   14.5108   13.4340 H   0  0  0  0  0  0  0  0  0  0  0  0
   54.5358   13.1343   12.4008 H   0  0  0  0  0  0  0  0  0  0  0  0
   53.0517    8.9653   11.0010 H   0  0  0  0  0  0  0  0  0  0  0  0
   53.3181   10.9412    8.7559 H   0  0  0  0  0  0  0  0  0  0  0  0
   51.9856    9.8896    9.1993 H   0  0  0  0  0  0  0  0  0  0  0  0
   54.3954    9.2647    7.4405 H   0  0  0  0  0  0  0  0  0  0  0  0
   52.6735    9.1170    7.0973 H   0  0  0  0  0  0  0  0  0  0  0  0
   55.4361    6.9638    8.8069 H   0  0  0  0  0  0  0  0  0  0  0  0
   54.2024    6.5626    9.9939 H   0  0  0  0  0  0  0  0  0  0  0  0
   55.7238    9.1289    9.5472 H   0  0  0  0  0  0  0  0  0  0  0  0
   55.4088    8.2775   11.0501 H   0  0  0  0  0  0  0  0  0  0  0  0
   52.6466    6.7750    6.5681 H   0  0  0  0  0  0  0  0  0  0  0  0
   54.4210    6.7870    6.6236 H   0  0  0  0  0  0  0  0  0  0  0  0
   53.4891    5.6188    7.5903 H   0  0  0  0  0  0  0  0  0  0  0  0
   48.3381   12.4529    7.8235 H   0  0  0  0  0  0  0  0  0  0  0  0
   50.0623   10.5178   11.2090 H   0  0  0  0  0  0  0  0  0  0  0  0
   45.2622   13.9730   10.4027 H   0  0  0  0  0  0  0  0  0  0  0  0
   49.4457   10.4047   14.9093 H   0  0  0  0  0  0  0  0  0  0  0  0
   51.0106    9.1306   16.3208 H   0  0  0  0  0  0  0  0  0  0  0  0
   52.9361    7.9473   15.2625 H   0  0  0  0  0  0  0  0  0  0  0  0
   54.6870    7.4607   10.9215 H   0  0  0  0  0  0  0  0  0  0  0  0
   53.1794   10.1133   10.8728 H   0  0  0  0  0  0  0  0  0  0  0  0
   54.8933    9.8658   11.1216 H   0  0  0  0  0  0  0  0  0  0  0  0
   55.1560    8.9914    8.8408 H   0  0  0  0  0  0  0  0  0  0  0  0
   54.3023   10.5356    8.8009 H   0  0  0  0  0  0  0  0  0  0  0  0
   52.0831    7.0035    8.2704 H   0  0  0  0  0  0  0  0  0  0  0  0
   53.8261    6.8782    8.5404 H   0  0  0  0  0  0  0  0  0  0  0  0
   52.6044    6.2727   10.5829 H   0  0  0  0  0  0  0  0  0  0  0  0
   51.6761    7.7548   10.5232 H   0  0  0  0  0  0  0  0  0  0  0  0
   52.3772    8.5483    6.4424 H   0  0  0  0  0  0  0  0  0  0  0  0
   54.1447    8.4732    6.6050 H   0  0  0  0  0  0  0  0  0  0  0  0
   53.2871   10.0337    6.6670 H   0  0  0  0  0  0  0  0  0  0  0  0
   54.1173    8.7417    9.0099 H   0  0  0  0  0  0  0  0  0  0  0  0
   51.7651   10.9947   10.2327 H   0  0  0  0  0  0  0  0  0  0  0  0
   50.7917    9.7090    9.4679 H   0  0  0  0  0  0  0  0  0  0  0  0
   51.4889    9.8631   12.4514 H   0  0  0  0  0  0  0  0  0  0  0  0
   50.4748    8.6183   11.6866 H   0  0  0  0  0  0  0  0  0  0  0  0
   48.3535   11.6945   11.1414 H   0  0  0  0  0  0  0  0  0  0  0  0
  1  2  1  0
  1 12  2  0
  3  1  1  0
  3  4  2  0
  4  6  1  0
  5  4  1  0
  7  8  2  0
  8  9  1  0
  8  6  1  0
  9 15  1  0
 10 11  1  0
 10  6  2  0
 12 10  1  0
 13 14  2  0
 14 18  1  0
 15 13  1  0
 15 16  2  0
 16 17  1  0
 18 17  2  0
 19 14  1  0
 19 20  1  0
 20 21  1  0
 21 22  1  0
 22 23  1  0
 23 24  1  0
 23 27  1  0
 24 25  1  0
 25 20  1  0
 26 19  2  0
 28 29  1  0
 28 39  2  0
 30 28  1  0
 30 31  2  0
 31 33  1  0
 32 31  1  0
 34 35  2  0
 35 36  1  0
 35 33  1  0
 36 42  1  0
 37 38  1  0
 37 33  2  0
 39 37  1  0
 40 41  2  0
 41 45  1  0
 42 40  1  0
 42 43  2  0
 43 44  1  0
 45 44  2  0
 46 41  1  0
 46 47  1  0
 47 48  1  0
 48 49  1  0
 49 50  1  0
 50 51  1  0
 50 54  1  0
 51 52  1  0
 52 47  1  0
 53 46  2  0
 55 56  1  0
 56 57  2  0
 56 58  1  0
 58 59  1  0
 59 60  1  0
 60 61  2  0
 60 62  1  0
  3 63  1  0
  9 64  1  0
 12 65  1  0
 16 66  1  0
 17 67  1  0
 18 68  1  0
 20 69  1  0
 21 70  1  0
 21 71  1  0
 22 72  1  0
 22 73  1  0
 24 74  1  0
 24 75  1  0
 25 76  1  0
 25 77  1  0
 27 78  1  0
 27 79  1  0
 27 80  1  0
 30 81  1  0
 36 82  1  0
 39 83  1  0
 43 84  1  0
 44 85  1  0
 45 86  1  0
 47 87  1  0
 48 88  1  0
 48 89  1  0
 49 90  1  0
 49 91  1  0
 51 92  1  0
 51 93  1  0
 52 94  1  0
 52 95  1  0
 54 96  1  0
 54 97  1  0
 54 98  1  0
 55 99  1  0
 58100  1  0
 58101  1  0
 59102  1  0
 59103  1  0
 62104  1  0
M  END
> <Uni-Dock RESULT> 
ENERGY=   -4.448  LOWER_BOUND=    5.569  UPPER_BOUND=    8.737
INTER + INTRA:          -4.448
INTER:                  -4.448
INTRA:                   0.000
UNBOUND:                 0.000

$$$$
