
     RDKit          3D

104107  0  0  0  0  0  0  0  0999 V2000
   47.9242   12.2335   17.2907 C   0  0  0  0  0  0  0  0  0  0  0  0
   48.0508   13.1278   16.3029 F   0  0  0  0  0  0  0  0  0  0  0  0
   48.3436   10.9242   17.0832 C   0  0  0  0  0  0  0  0  0  0  0  0
   48.2180   10.0022   18.1188 C   0  0  0  0  0  0  0  0  0  0  0  0
   48.6330    8.7437   17.9046 F   0  0  0  0  0  0  0  0  0  0  0  0
   47.6749   10.3706   19.3506 C   0  0  0  0  0  0  0  0  0  0  0  0
   46.5288    9.4636   21.1626 O   0  0  0  0  0  0  0  0  0  0  0  0
   47.5250    9.3975   20.4557 C   0  0  0  0  0  0  0  0  0  0  0  0
   48.5671    8.5085   20.6011 N   0  0  0  0  0  0  0  0  0  0  0  0
   47.2557   11.6916   19.5290 C   0  0  0  0  0  0  0  0  0  0  0  0
   46.7601   12.1094   20.7019 F   0  0  0  0  0  0  0  0  0  0  0  0
   47.3824   12.6282   18.5058 C   0  0  0  0  0  0  0  0  0  0  0  0
   49.9213    6.8894   21.4939 N   0  0  0  0  0  0  0  0  0  0  0  0
   50.1848    5.9309   22.4199 C   0  0  0  0  0  0  0  0  0  0  0  0
   48.7352    7.5282   21.5808 C   0  0  0  0  0  0  0  0  0  0  0  0
   47.7971    7.2331   22.5601 C   0  0  0  0  0  0  0  0  0  0  0  0
   48.0850    6.2420   23.4969 C   0  0  0  0  0  0  0  0  0  0  0  0
   49.3025    5.5769   23.4306 C   0  0  0  0  0  0  0  0  0  0  0  0
   51.5212    5.2630   22.3408 C   0  0  0  0  0  0  0  0  0  0  0  0
   52.4378    5.6393   21.1748 C   0  0  0  0  0  0  0  0  0  0  0  0
   51.8818    5.1318   19.8334 C   0  0  0  0  0  0  0  0  0  0  0  0
   52.8710    4.2562   19.0612 C   0  0  0  0  0  0  0  0  0  0  0  0
   53.3450    3.1859   19.9295 N   0  0  0  0  0  0  0  0  0  0  0  0
   54.0634    3.6663   21.1179 C   0  0  0  0  0  0  0  0  0  0  0  0
   53.8747    5.1586   21.4108 C   0  0  0  0  0  0  0  0  0  0  0  0
   51.8534    4.4760   23.2274 O   0  0  0  0  0  0  0  0  0  0  0  0
   54.1172    2.1882   19.1992 C   0  0  0  0  0  0  0  0  0  0  0  0
   47.1166   12.4523   20.9041 C   0  0  0  0  0  0  0  0  0  0  0  0
   46.5899   13.6495   21.1864 F   0  0  0  0  0  0  0  0  0  0  0  0
   48.4449   12.1984   21.2065 C   0  0  0  0  0  0  0  0  0  0  0  0
   48.9887   10.9480   20.9103 C   0  0  0  0  0  0  0  0  0  0  0  0
   50.2808   10.7598   21.2102 F   0  0  0  0  0  0  0  0  0  0  0  0
   48.2194    9.9392   20.3141 C   0  0  0  0  0  0  0  0  0  0  0  0
   49.9435    8.3625   20.4700 O   0  0  0  0  0  0  0  0  0  0  0  0
   48.8316    8.6074   20.0177 C   0  0  0  0  0  0  0  0  0  0  0  0
   48.0705    7.7414   19.2512 N   0  0  0  0  0  0  0  0  0  0  0  0
   46.8843   10.2367   20.0177 C   0  0  0  0  0  0  0  0  0  0  0  0
   46.0901    9.3255   19.4332 F   0  0  0  0  0  0  0  0  0  0  0  0
   46.3281   11.4820   20.3061 C   0  0  0  0  0  0  0  0  0  0  0  0
   49.7139    6.0209   19.0798 N   0  0  0  0  0  0  0  0  0  0  0  0
   50.0626    4.7949   18.6277 C   0  0  0  0  0  0  0  0  0  0  0  0
   48.4760    6.4696   18.8187 C   0  0  0  0  0  0  0  0  0  0  0  0
   47.5533    5.7111   18.1022 C   0  0  0  0  0  0  0  0  0  0  0  0
   47.9199    4.4451   17.6500 C   0  0  0  0  0  0  0  0  0  0  0  0
   49.1998    3.9750   17.9144 C   0  0  0  0  0  0  0  0  0  0  0  0
   51.4503    4.3357   18.9329 C   0  0  0  0  0  0  0  0  0  0  0  0
   52.3667    5.2925   19.6953 C   0  0  0  0  0  0  0  0  0  0  0  0
   53.8466    5.0090   19.3929 C   0  0  0  0  0  0  0  0  0  0  0  0
   54.7290    5.4843   20.5435 C   0  0  0  0  0  0  0  0  0  0  0  0
   54.4616    4.7476   21.7862 N   0  0  0  0  0  0  0  0  0  0  0  0
   53.0633    4.3207   21.9300 C   0  0  0  0  0  0  0  0  0  0  0  0
   52.0701    5.2281   21.2031 C   0  0  0  0  0  0  0  0  0  0  0  0
   51.7984    3.2098   18.5778 O   0  0  0  0  0  0  0  0  0  0  0  0
   54.9235    5.5021   22.9485 C   0  0  0  0  0  0  0  0  0  0  0  0
   48.5181    8.6115   19.0346 O   0  0  0  0  0  0  0  0  0  0  0  0
   49.7129    8.4954   19.6442 C   0  0  0  0  0  0  0  0  0  0  0  0
   50.3976    9.4798   19.8592 O   0  0  0  0  0  0  0  0  0  0  0  0
   50.0347    7.0709   19.9885 C   0  0  0  0  0  0  0  0  0  0  0  0
   51.3914    6.9703   20.6726 C   0  0  0  0  0  0  0  0  0  0  0  0
   51.7124    5.5473   21.0185 C   0  0  0  0  0  0  0  0  0  0  0  0
   51.0278    4.5616   20.8048 O   0  0  0  0  0  0  0  0  0  0  0  0
   52.9033    5.4342   21.6352 O   0  0  0  0  0  0  0  0  0  0  0  0
   48.7632   10.6249   16.1281 H   0  0  0  0  0  0  0  0  0  0  0  0
   49.3476    8.5370   19.9581 H   0  0  0  0  0  0  0  0  0  0  0  0
   47.0657   13.6543   18.6631 H   0  0  0  0  0  0  0  0  0  0  0  0
   46.8443    7.7461   22.6217 H   0  0  0  0  0  0  0  0  0  0  0  0
   47.3641    5.9979   24.2727 H   0  0  0  0  0  0  0  0  0  0  0  0
   49.5541    4.8065   24.1525 H   0  0  0  0  0  0  0  0  0  0  0  0
   52.4820    6.7366   21.1578 H   0  0  0  0  0  0  0  0  0  0  0  0
   50.9548    4.5641   19.9841 H   0  0  0  0  0  0  0  0  0  0  0  0
   51.6129    5.9921   19.2078 H   0  0  0  0  0  0  0  0  0  0  0  0
   52.3454    3.8379   18.1932 H   0  0  0  0  0  0  0  0  0  0  0  0
   53.7028    4.8563   18.6705 H   0  0  0  0  0  0  0  0  0  0  0  0
   53.7208    3.0775   21.9766 H   0  0  0  0  0  0  0  0  0  0  0  0
   55.1440    3.4867   21.0337 H   0  0  0  0  0  0  0  0  0  0  0  0
   54.2023    5.3765   22.4363 H   0  0  0  0  0  0  0  0  0  0  0  0
   54.5431    5.7287   20.7496 H   0  0  0  0  0  0  0  0  0  0  0  0
   54.3934    1.3559   19.8552 H   0  0  0  0  0  0  0  0  0  0  0  0
   53.5202    1.7608   18.3847 H   0  0  0  0  0  0  0  0  0  0  0  0
   55.0319    2.6119   18.7715 H   0  0  0  0  0  0  0  0  0  0  0  0
   49.0614   12.9626   21.6681 H   0  0  0  0  0  0  0  0  0  0  0  0
   47.1360    8.0229   18.9853 H   0  0  0  0  0  0  0  0  0  0  0  0
   45.2905   11.6906   20.0692 H   0  0  0  0  0  0  0  0  0  0  0  0
   46.5553    6.0828   17.8927 H   0  0  0  0  0  0  0  0  0  0  0  0
   47.2160    3.8306   17.0963 H   0  0  0  0  0  0  0  0  0  0  0  0
   49.5186    2.9954   17.5740 H   0  0  0  0  0  0  0  0  0  0  0  0
   52.1569    6.3102   19.3415 H   0  0  0  0  0  0  0  0  0  0  0  0
   54.1311    5.5225   18.4669 H   0  0  0  0  0  0  0  0  0  0  0  0
   54.0333    3.9421   19.2166 H   0  0  0  0  0  0  0  0  0  0  0  0
   55.7828    5.3486   20.2719 H   0  0  0  0  0  0  0  0  0  0  0  0
   54.5689    6.5628   20.6765 H   0  0  0  0  0  0  0  0  0  0  0  0
   52.7799    4.2296   22.9858 H   0  0  0  0  0  0  0  0  0  0  0  0
   52.9798    3.3058   21.5193 H   0  0  0  0  0  0  0  0  0  0  0  0
   52.1347    6.2395   21.6245 H   0  0  0  0  0  0  0  0  0  0  0  0
   51.0499    4.8782   21.3991 H   0  0  0  0  0  0  0  0  0  0  0  0
   54.3487    6.4229   23.1010 H   0  0  0  0  0  0  0  0  0  0  0  0
   54.8497    4.8913   23.8558 H   0  0  0  0  0  0  0  0  0  0  0  0
   55.9804    5.7734   22.8375 H   0  0  0  0  0  0  0  0  0  0  0  0
   48.4223    9.5723   18.8643 H   0  0  0  0  0  0  0  0  0  0  0  0
   49.2495    6.6882   20.6510 H   0  0  0  0  0  0  0  0  0  0  0  0
   50.0327    6.4819   19.0637 H   0  0  0  0  0  0  0  0  0  0  0  0
   51.3900    7.5605   21.5962 H   0  0  0  0  0  0  0  0  0  0  0  0
   52.1779    7.3544   20.0127 H   0  0  0  0  0  0  0  0  0  0  0  0
   52.9949    4.4739   21.8093 H   0  0  0  0  0  0  0  0  0  0  0  0
  1  2  1  0
  1 12  2  0
  3  1  1  0
  3  4  2  0
  4  6  1  0
  5  4  1  0
  7  8  2  0
  8  9  1  0
  8  6  1  0
  9 15  1  0
 10 11  1  0
 10  6  2  0
 12 10  1  0
 13 14  2  0
 14 18  1  0
 15 13  1  0
 15 16  2  0
 16 17  1  0
 18 17  2  0
 19 14  1  0
 19 20  1  0
 20 21  1  0
 21 22  1  0
 22 23  1  0
 23 24  1  0
 23 27  1  0
 24 25  1  0
 25 20  1  0
 26 19  2  0
 28 29  1  0
 28 39  2  0
 30 28  1  0
 30 31  2  0
 31 33  1  0
 32 31  1  0
 34 35  2  0
 35 36  1  0
 35 33  1  0
 36 42  1  0
 37 38  1  0
 37 33  2  0
 39 37  1  0
 40 41  2  0
 41 45  1  0
 42 40  1  0
 42 43  2  0
 43 44  1  0
 45 44  2  0
 46 41  1  0
 46 47  1  0
 47 48  1  0
 48 49  1  0
 49 50  1  0
 50 51  1  0
 50 54  1  0
 51 52  1  0
 52 47  1  0
 53 46  2  0
 55 56  1  0
 56 57  2  0
 56 58  1  0
 58 59  1  0
 59 60  1  0
 60 61  2  0
 60 62  1  0
  3 63  1  0
  9 64  1  0
 12 65  1  0
 16 66  1  0
 17 67  1  0
 18 68  1  0
 20 69  1  0
 21 70  1  0
 21 71  1  0
 22 72  1  0
 22 73  1  0
 24 74  1  0
 24 75  1  0
 25 76  1  0
 25 77  1  0
 27 78  1  0
 27 79  1  0
 27 80  1  0
 30 81  1  0
 36 82  1  0
 39 83  1  0
 43 84  1  0
 44 85  1  0
 45 86  1  0
 47 87  1  0
 48 88  1  0
 48 89  1  0
 49 90  1  0
 49 91  1  0
 51 92  1  0
 51 93  1  0
 52 94  1  0
 52 95  1  0
 54 96  1  0
 54 97  1  0
 54 98  1  0
 55 99  1  0
 58100  1  0
 58101  1  0
 59102  1  0
 59103  1  0
 62104  1  0
M  END
> <Uni-Dock RESULT> 
ENERGY=   -6.740  LOWER_BOUND=    0.000  UPPER_BOUND=    0.000
INTER + INTRA:          -6.740
INTER:                  -6.740
INTRA:                   0.000
UNBOUND:                 0.000

$$$$

     RDKit          3D

104107  0  0  0  0  0  0  0  0999 V2000
   49.4318    9.7503   13.8536 C   0  0  0  0  0  0  0  0  0  0  0  0
   49.5213   10.2386   12.6105 F   0  0  0  0  0  0  0  0  0  0  0  0
   49.6619    8.3968   14.0729 C   0  0  0  0  0  0  0  0  0  0  0  0
   49.5768    7.8983   15.3700 C   0  0  0  0  0  0  0  0  0  0  0  0
   49.8076    6.5904   15.5659 F   0  0  0  0  0  0  0  0  0  0  0  0
   49.2597    8.7317   16.4437 C   0  0  0  0  0  0  0  0  0  0  0  0
   48.2828    8.6633   18.5557 O   0  0  0  0  0  0  0  0  0  0  0  0
   49.1546    8.2124   17.8256 C   0  0  0  0  0  0  0  0  0  0  0  0
   50.0959    7.2679   18.1714 N   0  0  0  0  0  0  0  0  0  0  0  0
   49.0271   10.0867   16.1932 C   0  0  0  0  0  0  0  0  0  0  0  0
   48.7541   10.9392   17.1904 F   0  0  0  0  0  0  0  0  0  0  0  0
   49.1166   10.6026   14.9024 C   0  0  0  0  0  0  0  0  0  0  0  0
   51.3640    5.8398   19.4383 N   0  0  0  0  0  0  0  0  0  0  0  0
   51.6418    5.2099   20.6095 C   0  0  0  0  0  0  0  0  0  0  0  0
   50.2849    6.6504   19.4092 C   0  0  0  0  0  0  0  0  0  0  0  0
   49.4663    6.8454   20.5128 C   0  0  0  0  0  0  0  0  0  0  0  0
   49.7658    6.1849   21.7032 C   0  0  0  0  0  0  0  0  0  0  0  0
   50.8756    5.3516   21.7577 C   0  0  0  0  0  0  0  0  0  0  0  0
   52.8664    4.3511   20.6419 C   0  0  0  0  0  0  0  0  0  0  0  0
   53.6469    4.1738   19.3378 C   0  0  0  0  0  0  0  0  0  0  0  0
   52.8517    3.3482   18.3120 C   0  0  0  0  0  0  0  0  0  0  0  0
   53.6130    2.1230   17.8012 C   0  0  0  0  0  0  0  0  0  0  0  0
   54.0765    1.3369   18.9376 N   0  0  0  0  0  0  0  0  0  0  0  0
   55.0065    2.0614   19.8147 C   0  0  0  0  0  0  0  0  0  0  0  0
   55.0367    3.5770   19.5905 C   0  0  0  0  0  0  0  0  0  0  0  0
   53.2262    3.8571   21.7108 O   0  0  0  0  0  0  0  0  0  0  0  0
   54.6161    0.0460   18.5281 C   0  0  0  0  0  0  0  0  0  0  0  0
   49.1732   11.2688   17.2276 C   0  0  0  0  0  0  0  0  0  0  0  0
   48.8351   12.5595   17.1269 F   0  0  0  0  0  0  0  0  0  0  0  0
   50.4920   10.9221   17.4741 C   0  0  0  0  0  0  0  0  0  0  0  0
   50.8388    9.5746   17.5786 C   0  0  0  0  0  0  0  0  0  0  0  0
   52.1294    9.2940   17.8035 F   0  0  0  0  0  0  0  0  0  0  0  0
   49.8806    8.5607   17.4417 C   0  0  0  0  0  0  0  0  0  0  0  0
   51.4134    6.8716   17.9714 O   0  0  0  0  0  0  0  0  0  0  0  0
   50.2850    7.1266   17.5678 C   0  0  0  0  0  0  0  0  0  0  0  0
   49.3276    6.1883   17.2218 N   0  0  0  0  0  0  0  0  0  0  0  0
   48.5610    8.9510   17.1864 C   0  0  0  0  0  0  0  0  0  0  0  0
   47.5914    8.0358   17.0291 F   0  0  0  0  0  0  0  0  0  0  0  0
   48.2003   10.2932   17.0775 C   0  0  0  0  0  0  0  0  0  0  0  0
   50.7180    4.2705   17.5030 N   0  0  0  0  0  0  0  0  0  0  0  0
   50.8538    2.9253   17.4716 C   0  0  0  0  0  0  0  0  0  0  0  0
   49.5167    4.7980   17.2194 C   0  0  0  0  0  0  0  0  0  0  0  0
   48.4199    4.0018   16.8980 C   0  0  0  0  0  0  0  0  0  0  0  0
   48.5686    2.6165   16.8787 C   0  0  0  0  0  0  0  0  0  0  0  0
   49.8093    2.0637   17.1688 C   0  0  0  0  0  0  0  0  0  0  0  0
   52.2075    2.3791   17.7861 C   0  0  0  0  0  0  0  0  0  0  0  0
   53.3278    3.3760   18.0824 C   0  0  0  0  0  0  0  0  0  0  0  0
   54.7069    2.7791   17.7603 C   0  0  0  0  0  0  0  0  0  0  0  0
   55.7922    3.4605   18.5886 C   0  0  0  0  0  0  0  0  0  0  0  0
   55.6186    3.2250   20.0284 N   0  0  0  0  0  0  0  0  0  0  0  0
   54.2144    3.0953   20.4402 C   0  0  0  0  0  0  0  0  0  0  0  0
   53.2414    3.8582   19.5404 C   0  0  0  0  0  0  0  0  0  0  0  0
   52.3681    1.1591   17.8109 O   0  0  0  0  0  0  0  0  0  0  0  0
   56.3248    4.2367   20.8103 C   0  0  0  0  0  0  0  0  0  0  0  0
   49.8386    6.8568   16.6775 O   0  0  0  0  0  0  0  0  0  0  0  0
   51.0857    6.7605   17.1758 C   0  0  0  0  0  0  0  0  0  0  0  0
   51.9041    7.6397   16.9729 O   0  0  0  0  0  0  0  0  0  0  0  0
   51.2843    5.4963   17.9592 C   0  0  0  0  0  0  0  0  0  0  0  0
   52.7028    5.4133   18.5065 C   0  0  0  0  0  0  0  0  0  0  0  0
   52.9010    4.1513   19.2911 C   0  0  0  0  0  0  0  0  0  0  0  0
   52.0827    3.2711   19.4956 O   0  0  0  0  0  0  0  0  0  0  0  0
   54.1455    4.0606   19.7953 O   0  0  0  0  0  0  0  0  0  0  0  0
   49.9047    7.7380   13.2452 H   0  0  0  0  0  0  0  0  0  0  0  0
   50.7758    6.9600   17.4885 H   0  0  0  0  0  0  0  0  0  0  0  0
   48.9473   11.6598   14.7245 H   0  0  0  0  0  0  0  0  0  0  0  0
   48.5982    7.4936   20.4819 H   0  0  0  0  0  0  0  0  0  0  0  0
   49.1381    6.3261   22.5791 H   0  0  0  0  0  0  0  0  0  0  0  0
   51.1349    4.8317   22.6744 H   0  0  0  0  0  0  0  0  0  0  0  0
   53.8161    5.1831   18.9389 H   0  0  0  0  0  0  0  0  0  0  0  0
   51.8954    3.0153   18.7350 H   0  0  0  0  0  0  0  0  0  0  0  0
   52.5997    3.9862   17.4558 H   0  0  0  0  0  0  0  0  0  0  0  0
   52.9250    1.5313   17.1839 H   0  0  0  0  0  0  0  0  0  0  0  0
   54.4457    2.4222   17.1518 H   0  0  0  0  0  0  0  0  0  0  0  0
   54.7221    1.8492   20.8518 H   0  0  0  0  0  0  0  0  0  0  0  0
   56.0360    1.6959   19.6975 H   0  0  0  0  0  0  0  0  0  0  0  0
   55.5289    4.0652   20.4425 H   0  0  0  0  0  0  0  0  0  0  0  0
   55.6670    3.7851   18.7140 H   0  0  0  0  0  0  0  0  0  0  0  0
   54.8830   -0.5570   19.4025 H   0  0  0  0  0  0  0  0  0  0  0  0
   53.8644   -0.5254   17.9707 H   0  0  0  0  0  0  0  0  0  0  0  0
   55.5044    0.1557   17.8974 H   0  0  0  0  0  0  0  0  0  0  0  0
   51.2525   11.6882   17.5840 H   0  0  0  0  0  0  0  0  0  0  0  0
   48.4042    6.5105   16.9632 H   0  0  0  0  0  0  0  0  0  0  0  0
   47.1712   10.5732   16.8808 H   0  0  0  0  0  0  0  0  0  0  0  0
   47.4526    4.4365   16.6668 H   0  0  0  0  0  0  0  0  0  0  0  0
   47.7268    1.9733   16.6392 H   0  0  0  0  0  0  0  0  0  0  0  0
   49.9603    0.9892   17.1595 H   0  0  0  0  0  0  0  0  0  0  0  0
   53.1904    4.2405   17.4202 H   0  0  0  0  0  0  0  0  0  0  0  0
   54.9158    2.9081   16.6918 H   0  0  0  0  0  0  0  0  0  0  0  0
   54.7409    1.6982   17.9467 H   0  0  0  0  0  0  0  0  0  0  0  0
   56.7740    3.0787   18.2839 H   0  0  0  0  0  0  0  0  0  0  0  0
   55.7795    4.5338   18.3553 H   0  0  0  0  0  0  0  0  0  0  0  0
   54.0741    3.4022   21.4840 H   0  0  0  0  0  0  0  0  0  0  0  0
   53.9559    2.0285   20.4148 H   0  0  0  0  0  0  0  0  0  0  0  0
   53.4825    4.9283   19.5787 H   0  0  0  0  0  0  0  0  0  0  0  0
   52.2253    3.7577   19.9392 H   0  0  0  0  0  0  0  0  0  0  0  0
   55.8887    5.2349   20.6884 H   0  0  0  0  0  0  0  0  0  0  0  0
   56.3089    3.9776   21.8755 H   0  0  0  0  0  0  0  0  0  0  0  0
   57.3798    4.2860   20.5147 H   0  0  0  0  0  0  0  0  0  0  0  0
   49.8326    7.7106   16.1956 H   0  0  0  0  0  0  0  0  0  0  0  0
   50.5611    5.4815   18.7831 H   0  0  0  0  0  0  0  0  0  0  0  0
   51.0831    4.6443   17.2991 H   0  0  0  0  0  0  0  0  0  0  0  0
   52.9007    6.2666   19.1655 H   0  0  0  0  0  0  0  0  0  0  0  0
   53.4278    5.4300   17.6846 H   0  0  0  0  0  0  0  0  0  0  0  0
   54.1480    3.2092   20.2810 H   0  0  0  0  0  0  0  0  0  0  0  0
  1  2  1  0
  1 12  2  0
  3  1  1  0
  3  4  2  0
  4  6  1  0
  5  4  1  0
  7  8  2  0
  8  9  1  0
  8  6  1  0
  9 15  1  0
 10 11  1  0
 10  6  2  0
 12 10  1  0
 13 14  2  0
 14 18  1  0
 15 13  1  0
 15 16  2  0
 16 17  1  0
 18 17  2  0
 19 14  1  0
 19 20  1  0
 20 21  1  0
 21 22  1  0
 22 23  1  0
 23 24  1  0
 23 27  1  0
 24 25  1  0
 25 20  1  0
 26 19  2  0
 28 29  1  0
 28 39  2  0
 30 28  1  0
 30 31  2  0
 31 33  1  0
 32 31  1  0
 34 35  2  0
 35 36  1  0
 35 33  1  0
 36 42  1  0
 37 38  1  0
 37 33  2  0
 39 37  1  0
 40 41  2  0
 41 45  1  0
 42 40  1  0
 42 43  2  0
 43 44  1  0
 45 44  2  0
 46 41  1  0
 46 47  1  0
 47 48  1  0
 48 49  1  0
 49 50  1  0
 50 51  1  0
 50 54  1  0
 51 52  1  0
 52 47  1  0
 53 46  2  0
 55 56  1  0
 56 57  2  0
 56 58  1  0
 58 59  1  0
 59 60  1  0
 60 61  2  0
 60 62  1  0
  3 63  1  0
  9 64  1  0
 12 65  1  0
 16 66  1  0
 17 67  1  0
 18 68  1  0
 20 69  1  0
 21 70  1  0
 21 71  1  0
 22 72  1  0
 22 73  1  0
 24 74  1  0
 24 75  1  0
 25 76  1  0
 25 77  1  0
 27 78  1  0
 27 79  1  0
 27 80  1  0
 30 81  1  0
 36 82  1  0
 39 83  1  0
 43 84  1  0
 44 85  1  0
 45 86  1  0
 47 87  1  0
 48 88  1  0
 48 89  1  0
 49 90  1  0
 49 91  1  0
 51 92  1  0
 51 93  1  0
 52 94  1  0
 52 95  1  0
 54 96  1  0
 54 97  1  0
 54 98  1  0
 55 99  1  0
 58100  1  0
 58101  1  0
 59102  1  0
 59103  1  0
 62104  1  0
M  END
> <Uni-Dock RESULT> 
ENERGY=   -5.647  LOWER_BOUND=    2.321  UPPER_BOUND=    3.156
INTER + INTRA:          -5.647
INTER:                  -5.647
INTRA:                   0.000
UNBOUND:                 0.000

$$$$

     RDKit          3D

104107  0  0  0  0  0  0  0  0999 V2000
   48.9212   10.9512   15.0345 C   0  0  0  0  0  0  0  0  0  0  0  0
   49.0009   11.6035   13.8684 F   0  0  0  0  0  0  0  0  0  0  0  0
   49.1417    9.5787   15.0647 C   0  0  0  0  0  0  0  0  0  0  0  0
   49.0670    8.9089   16.2829 C   0  0  0  0  0  0  0  0  0  0  0  0
   49.2883    7.5849   16.2961 F   0  0  0  0  0  0  0  0  0  0  0  0
   48.7696    9.5907   17.4639 C   0  0  0  0  0  0  0  0  0  0  0  0
   47.8164    9.2425   19.5590 O   0  0  0  0  0  0  0  0  0  0  0  0
   48.6757    8.8888   18.7635 C   0  0  0  0  0  0  0  0  0  0  0  0
   49.6124    7.8992   18.9657 N   0  0  0  0  0  0  0  0  0  0  0  0
   48.5464   10.9688   17.4030 C   0  0  0  0  0  0  0  0  0  0  0  0
   48.2925   11.6796   18.5103 F   0  0  0  0  0  0  0  0  0  0  0  0
   48.6257   11.6550   16.1934 C   0  0  0  0  0  0  0  0  0  0  0  0
   50.8820    6.3027   20.0105 N   0  0  0  0  0  0  0  0  0  0  0  0
   51.1676    5.5171   21.0816 C   0  0  0  0  0  0  0  0  0  0  0  0
   49.8100    7.1175   20.1056 C   0  0  0  0  0  0  0  0  0  0  0  0
   49.0059    7.1664   21.2356 C   0  0  0  0  0  0  0  0  0  0  0  0
   49.3130    6.3478   22.3212 C   0  0  0  0  0  0  0  0  0  0  0  0
   50.4159    5.5068   22.2479 C   0  0  0  0  0  0  0  0  0  0  0  0
   52.3847    4.6530   20.9814 C   0  0  0  0  0  0  0  0  0  0  0  0
   53.1487    4.6491   19.6556 C   0  0  0  0  0  0  0  0  0  0  0  0
   52.3344    3.9768   18.5372 C   0  0  0  0  0  0  0  0  0  0  0  0
   53.0788    2.8270   17.8549 C   0  0  0  0  0  0  0  0  0  0  0  0
   53.5482    1.8901   18.8678 N   0  0  0  0  0  0  0  0  0  0  0  0
   54.4947    2.4816   19.8236 C   0  0  0  0  0  0  0  0  0  0  0  0
   54.5358    4.0134   19.8074 C   0  0  0  0  0  0  0  0  0  0  0  0
   52.7523    4.0155   21.9686 O   0  0  0  0  0  0  0  0  0  0  0  0
   54.0715    0.6631   18.2798 C   0  0  0  0  0  0  0  0  0  0  0  0
   48.7148   11.9980   18.5868 C   0  0  0  0  0  0  0  0  0  0  0  0
   48.3872   13.2928   18.6668 F   0  0  0  0  0  0  0  0  0  0  0  0
   50.0333   11.6113   18.7672 C   0  0  0  0  0  0  0  0  0  0  0  0
   50.3691   10.2596   18.6831 C   0  0  0  0  0  0  0  0  0  0  0  0
   51.6596    9.9416   18.8514 F   0  0  0  0  0  0  0  0  0  0  0  0
   49.4004    9.2808   18.4215 C   0  0  0  0  0  0  0  0  0  0  0  0
   50.9239    7.5242   18.6972 O   0  0  0  0  0  0  0  0  0  0  0  0
   49.7934    7.8400   18.3462 C   0  0  0  0  0  0  0  0  0  0  0  0
   48.8236    6.9646   17.8878 N   0  0  0  0  0  0  0  0  0  0  0  0
   48.0815    9.7119   18.2382 C   0  0  0  0  0  0  0  0  0  0  0  0
   47.1020    8.8338   17.9700 F   0  0  0  0  0  0  0  0  0  0  0  0
   47.7316   11.0590   18.3176 C   0  0  0  0  0  0  0  0  0  0  0  0
   50.2000    5.0163   17.8880 N   0  0  0  0  0  0  0  0  0  0  0  0
   50.3233    3.6869   17.6722 C   0  0  0  0  0  0  0  0  0  0  0  0
   49.0002    5.5862   17.6939 C   0  0  0  0  0  0  0  0  0  0  0  0
   47.8927    4.8493   17.2809 C   0  0  0  0  0  0  0  0  0  0  0  0
   48.0288    3.4784   17.0715 C   0  0  0  0  0  0  0  0  0  0  0  0
   49.2677    2.8822   17.2681 C   0  0  0  0  0  0  0  0  0  0  0  0
   51.6756    3.0930   17.8925 C   0  0  0  0  0  0  0  0  0  0  0  0
   52.8080    4.0321   18.3075 C   0  0  0  0  0  0  0  0  0  0  0  0
   54.1780    3.4745   17.8899 C   0  0  0  0  0  0  0  0  0  0  0  0
   55.2787    4.0288   18.7896 C   0  0  0  0  0  0  0  0  0  0  0  0
   55.1196    3.6008   20.1859 N   0  0  0  0  0  0  0  0  0  0  0  0
   53.7190    3.4265   20.5938 C   0  0  0  0  0  0  0  0  0  0  0  0
   52.7427    4.3119   19.8186 C   0  0  0  0  0  0  0  0  0  0  0  0
   51.8255    1.8799   17.7490 O   0  0  0  0  0  0  0  0  0  0  0  0
   55.8437    4.4914   21.0894 C   0  0  0  0  0  0  0  0  0  0  0  0
   49.3344    7.6972   17.4332 O   0  0  0  0  0  0  0  0  0  0  0  0
   50.5862    7.5248   17.8980 C   0  0  0  0  0  0  0  0  0  0  0  0
   51.4100    8.4175   17.8064 O   0  0  0  0  0  0  0  0  0  0  0  0
   50.7823    6.1643   18.4996 C   0  0  0  0  0  0  0  0  0  0  0  0
   52.2063    5.9972   19.0127 C   0  0  0  0  0  0  0  0  0  0  0  0
   52.4020    4.6387   19.6157 C   0  0  0  0  0  0  0  0  0  0  0  0
   51.5783    3.7449   19.7088 O   0  0  0  0  0  0  0  0  0  0  0  0
   53.6514    4.4711   20.0872 O   0  0  0  0  0  0  0  0  0  0  0  0
   49.3691    9.0371   14.1521 H   0  0  0  0  0  0  0  0  0  0  0  0
   50.2816    7.6821   18.2388 H   0  0  0  0  0  0  0  0  0  0  0  0
   48.4639   12.7278   16.1631 H   0  0  0  0  0  0  0  0  0  0  0  0
   48.1433    7.8192   21.3041 H   0  0  0  0  0  0  0  0  0  0  0  0
   48.6966    6.3731   23.2160 H   0  0  0  0  0  0  0  0  0  0  0  0
   50.6810    4.8650   23.0820 H   0  0  0  0  0  0  0  0  0  0  0  0
   53.3223    5.7021   19.3957 H   0  0  0  0  0  0  0  0  0  0  0  0
   51.3800    3.5964   18.9229 H   0  0  0  0  0  0  0  0  0  0  0  0
   52.0783    4.7272   17.7790 H   0  0  0  0  0  0  0  0  0  0  0  0
   52.3785    2.3299   17.1715 H   0  0  0  0  0  0  0  0  0  0  0  0
   53.9067    3.2057   17.2418 H   0  0  0  0  0  0  0  0  0  0  0  0
   54.2202    2.1323   20.8257 H   0  0  0  0  0  0  0  0  0  0  0  0
   55.5194    2.1280   19.6449 H   0  0  0  0  0  0  0  0  0  0  0  0
   55.0421    4.3774   20.7117 H   0  0  0  0  0  0  0  0  0  0  0  0
   55.1579    4.3343   18.9595 H   0  0  0  0  0  0  0  0  0  0  0  0
   54.3430   -0.0553   19.0606 H   0  0  0  0  0  0  0  0  0  0  0  0
   53.3084    0.1784   17.6593 H   0  0  0  0  0  0  0  0  0  0  0  0
   54.9535    0.8511   17.6587 H   0  0  0  0  0  0  0  0  0  0  0  0
   50.8017   12.3497   18.9708 H   0  0  0  0  0  0  0  0  0  0  0  0
   47.9003    7.3258   17.6871 H   0  0  0  0  0  0  0  0  0  0  0  0
   46.7029   11.3708   18.1737 H   0  0  0  0  0  0  0  0  0  0  0  0
   46.9268    5.3185   17.1233 H   0  0  0  0  0  0  0  0  0  0  0  0
   47.1785    2.8800   16.7573 H   0  0  0  0  0  0  0  0  0  0  0  0
   49.4090    1.8179   17.1108 H   0  0  0  0  0  0  0  0  0  0  0  0
   52.6709    4.9797   17.7709 H   0  0  0  0  0  0  0  0  0  0  0  0
   54.3758    3.7463   16.8463 H   0  0  0  0  0  0  0  0  0  0  0  0
   54.2044    2.3781   17.9270 H   0  0  0  0  0  0  0  0  0  0  0  0
   56.2535    3.6849   18.4234 H   0  0  0  0  0  0  0  0  0  0  0  0
   55.2730    5.1240   18.7046 H   0  0  0  0  0  0  0  0  0  0  0  0
   53.5934    3.5894   21.6714 H   0  0  0  0  0  0  0  0  0  0  0  0
   53.4507    2.3750   20.4268 H   0  0  0  0  0  0  0  0  0  0  0  0
   52.9938    5.3650   19.9990 H   0  0  0  0  0  0  0  0  0  0  0  0
   51.7303    4.1655   20.2127 H   0  0  0  0  0  0  0  0  0  0  0  0
   55.4152    5.5001   21.1098 H   0  0  0  0  0  0  0  0  0  0  0  0
   55.8376    4.0899   22.1094 H   0  0  0  0  0  0  0  0  0  0  0  0
   56.8956    4.5727   20.7900 H   0  0  0  0  0  0  0  0  0  0  0  0
   49.3305    8.6087   17.0721 H   0  0  0  0  0  0  0  0  0  0  0  0
   50.0685    6.0427   19.3228 H   0  0  0  0  0  0  0  0  0  0  0  0
   50.5660    5.4116   17.7323 H   0  0  0  0  0  0  0  0  0  0  0  0
   52.4193    6.7513   19.7791 H   0  0  0  0  0  0  0  0  0  0  0  0
   52.9219    6.1204   18.1916 H   0  0  0  0  0  0  0  0  0  0  0  0
   53.6519    3.5615   20.4524 H   0  0  0  0  0  0  0  0  0  0  0  0
  1  2  1  0
  1 12  2  0
  3  1  1  0
  3  4  2  0
  4  6  1  0
  5  4  1  0
  7  8  2  0
  8  9  1  0
  8  6  1  0
  9 15  1  0
 10 11  1  0
 10  6  2  0
 12 10  1  0
 13 14  2  0
 14 18  1  0
 15 13  1  0
 15 16  2  0
 16 17  1  0
 18 17  2  0
 19 14  1  0
 19 20  1  0
 20 21  1  0
 21 22  1  0
 22 23  1  0
 23 24  1  0
 23 27  1  0
 24 25  1  0
 25 20  1  0
 26 19  2  0
 28 29  1  0
 28 39  2  0
 30 28  1  0
 30 31  2  0
 31 33  1  0
 32 31  1  0
 34 35  2  0
 35 36  1  0
 35 33  1  0
 36 42  1  0
 37 38  1  0
 37 33  2  0
 39 37  1  0
 40 41  2  0
 41 45  1  0
 42 40  1  0
 42 43  2  0
 43 44  1  0
 45 44  2  0
 46 41  1  0
 46 47  1  0
 47 48  1  0
 48 49  1  0
 49 50  1  0
 50 51  1  0
 50 54  1  0
 51 52  1  0
 52 47  1  0
 53 46  2  0
 55 56  1  0
 56 57  2  0
 56 58  1  0
 58 59  1  0
 59 60  1  0
 60 61  2  0
 60 62  1  0
  3 63  1  0
  9 64  1  0
 12 65  1  0
 16 66  1  0
 17 67  1  0
 18 68  1  0
 20 69  1  0
 21 70  1  0
 21 71  1  0
 22 72  1  0
 22 73  1  0
 24 74  1  0
 24 75  1  0
 25 76  1  0
 25 77  1  0
 27 78  1  0
 27 79  1  0
 27 80  1  0
 30 81  1  0
 36 82  1  0
 39 83  1  0
 43 84  1  0
 44 85  1  0
 45 86  1  0
 47 87  1  0
 48 88  1  0
 48 89  1  0
 49 90  1  0
 49 91  1  0
 51 92  1  0
 51 93  1  0
 52 94  1  0
 52 95  1  0
 54 96  1  0
 54 97  1  0
 54 98  1  0
 55 99  1  0
 58100  1  0
 58101  1  0
 59102  1  0
 59103  1  0
 62104  1  0
M  END
> <Uni-Dock RESULT> 
ENERGY=   -5.570  LOWER_BOUND=    1.656  UPPER_BOUND=    2.105
INTER + INTRA:          -5.570
INTER:                  -5.570
INTRA:                   0.000
UNBOUND:                 0.000

$$$$

     RDKit          3D

104107  0  0  0  0  0  0  0  0999 V2000
   50.9576    2.4652   17.4010 C   0  0  0  0  0  0  0  0  0  0  0  0
   51.6323    1.3960   16.9614 F   0  0  0  0  0  0  0  0  0  0  0  0
   51.6333    3.6642   17.5987 C   0  0  0  0  0  0  0  0  0  0  0  0
   50.9227    4.7745   18.0464 C   0  0  0  0  0  0  0  0  0  0  0  0
   51.5884    5.9262   18.2266 F   0  0  0  0  0  0  0  0  0  0  0  0
   49.5530    4.6986   18.3036 C   0  0  0  0  0  0  0  0  0  0  0  0
   47.9049    5.6868   19.6177 O   0  0  0  0  0  0  0  0  0  0  0  0
   48.7882    5.8682   18.7910 C   0  0  0  0  0  0  0  0  0  0  0  0
   49.1367    7.0751   18.2258 N   0  0  0  0  0  0  0  0  0  0  0  0
   48.9008    3.4792   18.1024 C   0  0  0  0  0  0  0  0  0  0  0  0
   47.5808    3.3582   18.2991 F   0  0  0  0  0  0  0  0  0  0  0  0
   49.5957    2.3614   17.6468 C   0  0  0  0  0  0  0  0  0  0  0  0
   49.0750    9.2923   17.6489 N   0  0  0  0  0  0  0  0  0  0  0  0
   48.5577   10.5428   17.7683 C   0  0  0  0  0  0  0  0  0  0  0  0
   48.5563    8.3271   18.4374 C   0  0  0  0  0  0  0  0  0  0  0  0
   47.5409    8.5734   19.3509 C   0  0  0  0  0  0  0  0  0  0  0  0
   47.0283    9.8649   19.4617 C   0  0  0  0  0  0  0  0  0  0  0  0
   47.5423   10.8718   18.6550 C   0  0  0  0  0  0  0  0  0  0  0  0
   49.1089   11.5929   16.8564 C   0  0  0  0  0  0  0  0  0  0  0  0
   50.2692   11.2019   15.9386 C   0  0  0  0  0  0  0  0  0  0  0  0
   51.5563   10.9365   16.7380 C   0  0  0  0  0  0  0  0  0  0  0  0
   52.7438   11.7804   16.2695 C   0  0  0  0  0  0  0  0  0  0  0  0
   52.3573   13.1855   16.2509 N   0  0  0  0  0  0  0  0  0  0  0  0
   51.2542   13.4806   15.3261 C   0  0  0  0  0  0  0  0  0  0  0  0
   50.4912   12.2450   14.8368 C   0  0  0  0  0  0  0  0  0  0  0  0
   48.5905   12.7096   16.8426 O   0  0  0  0  0  0  0  0  0  0  0  0
   53.4980   14.0653   16.0280 C   0  0  0  0  0  0  0  0  0  0  0  0
   47.3624    3.2758   17.8184 C   0  0  0  0  0  0  0  0  0  0  0  0
   46.6289    2.1582   17.7611 F   0  0  0  0  0  0  0  0  0  0  0  0
   47.4317    4.1085   16.7130 C   0  0  0  0  0  0  0  0  0  0  0  0
   48.1978    5.2729   16.7785 C   0  0  0  0  0  0  0  0  0  0  0  0
   48.2421    6.0350   15.6775 F   0  0  0  0  0  0  0  0  0  0  0  0
   48.8992    5.6217   17.9410 C   0  0  0  0  0  0  0  0  0  0  0  0
   49.5867    7.6779   17.0566 O   0  0  0  0  0  0  0  0  0  0  0  0
   49.7042    6.8813   17.9800 C   0  0  0  0  0  0  0  0  0  0  0  0
   50.5226    7.0502   19.0838 N   0  0  0  0  0  0  0  0  0  0  0  0
   48.8097    4.7514   19.0335 C   0  0  0  0  0  0  0  0  0  0  0  0
   49.4655    5.0118   20.1757 F   0  0  0  0  0  0  0  0  0  0  0  0
   48.0498    3.5838   18.9818 C   0  0  0  0  0  0  0  0  0  0  0  0
   51.5415    9.0798   18.3535 N   0  0  0  0  0  0  0  0  0  0  0  0
   52.4051   10.0925   18.5937 C   0  0  0  0  0  0  0  0  0  0  0  0
   51.3934    8.1307   19.2913 C   0  0  0  0  0  0  0  0  0  0  0  0
   52.0994    8.1645   20.4915 C   0  0  0  0  0  0  0  0  0  0  0  0
   52.9788    9.2181   20.7328 C   0  0  0  0  0  0  0  0  0  0  0  0
   53.1390   10.2025   19.7661 C   0  0  0  0  0  0  0  0  0  0  0  0
   52.5461   11.1235   17.5229 C   0  0  0  0  0  0  0  0  0  0  0  0
   51.7362   10.9352   16.2402 C   0  0  0  0  0  0  0  0  0  0  0  0
   52.4085   11.6326   15.0471 C   0  0  0  0  0  0  0  0  0  0  0  0
   51.3759   11.9811   13.9790 C   0  0  0  0  0  0  0  0  0  0  0  0
   50.3873   12.9545   14.4624 N   0  0  0  0  0  0  0  0  0  0  0  0
   50.0943   12.8353   15.8970 C   0  0  0  0  0  0  0  0  0  0  0  0
   50.2914   11.4214   16.4450 C   0  0  0  0  0  0  0  0  0  0  0  0
   53.2889   12.0859   17.7147 O   0  0  0  0  0  0  0  0  0  0  0  0
   49.1727   12.9090   13.6524 C   0  0  0  0  0  0  0  0  0  0  0  0
   50.5531    6.4029   18.3194 O   0  0  0  0  0  0  0  0  0  0  0  0
   50.2673    7.1784   17.2565 C   0  0  0  0  0  0  0  0  0  0  0  0
   49.9107    6.6804   16.2036 O   0  0  0  0  0  0  0  0  0  0  0  0
   50.4444    8.6374   17.5587 C   0  0  0  0  0  0  0  0  0  0  0  0
   50.1180    9.4885   16.3388 C   0  0  0  0  0  0  0  0  0  0  0  0
   50.2928   10.9465   16.6410 C   0  0  0  0  0  0  0  0  0  0  0  0
   50.6488   11.4462   17.6943 O   0  0  0  0  0  0  0  0  0  0  0  0
   49.9987   11.7205   15.5800 O   0  0  0  0  0  0  0  0  0  0  0  0
   52.6992    3.7340   17.4065 H   0  0  0  0  0  0  0  0  0  0  0  0
   49.8874    7.1168   17.5489 H   0  0  0  0  0  0  0  0  0  0  0  0
   49.0736    1.4243   17.4814 H   0  0  0  0  0  0  0  0  0  0  0  0
   47.1318    7.7953   19.9849 H   0  0  0  0  0  0  0  0  0  0  0  0
   46.2316   10.0773   20.1697 H   0  0  0  0  0  0  0  0  0  0  0  0
   47.1556   11.8840   18.7164 H   0  0  0  0  0  0  0  0  0  0  0  0
   49.9620   10.2792   15.4280 H   0  0  0  0  0  0  0  0  0  0  0  0
   51.3967   11.1197   17.8082 H   0  0  0  0  0  0  0  0  0  0  0  0
   51.8227    9.8761   16.6476 H   0  0  0  0  0  0  0  0  0  0  0  0
   53.5697   11.6217   16.9748 H   0  0  0  0  0  0  0  0  0  0  0  0
   53.0972   11.4466   15.2855 H   0  0  0  0  0  0  0  0  0  0  0  0
   50.5626   14.1608   15.8366 H   0  0  0  0  0  0  0  0  0  0  0  0
   51.6098   14.0158   14.4349 H   0  0  0  0  0  0  0  0  0  0  0  0
   49.5385   12.5553   14.3867 H   0  0  0  0  0  0  0  0  0  0  0  0
   51.0719   11.7766   14.0291 H   0  0  0  0  0  0  0  0  0  0  0  0
   53.1963   15.1158   16.0978 H   0  0  0  0  0  0  0  0  0  0  0  0
   54.2622   13.9066   16.7982 H   0  0  0  0  0  0  0  0  0  0  0  0
   53.9564   13.8999   15.0474 H   0  0  0  0  0  0  0  0  0  0  0  0
   46.8980    3.8608   15.8014 H   0  0  0  0  0  0  0  0  0  0  0  0
   50.4921    6.3577   19.8205 H   0  0  0  0  0  0  0  0  0  0  0  0
   47.9932    2.9244   19.8409 H   0  0  0  0  0  0  0  0  0  0  0  0
   51.9761    7.3914   21.2433 H   0  0  0  0  0  0  0  0  0  0  0  0
   53.5350    9.2719   21.6642 H   0  0  0  0  0  0  0  0  0  0  0  0
   53.8179   11.0346   19.9205 H   0  0  0  0  0  0  0  0  0  0  0  0
   51.7141    9.8616   16.0127 H   0  0  0  0  0  0  0  0  0  0  0  0
   53.1734   10.9700   14.6254 H   0  0  0  0  0  0  0  0  0  0  0  0
   52.9339   12.5477   15.3483 H   0  0  0  0  0  0  0  0  0  0  0  0
   51.8870   12.4011   13.1043 H   0  0  0  0  0  0  0  0  0  0  0  0
   50.8929   11.0505   13.6515 H   0  0  0  0  0  0  0  0  0  0  0  0
   49.0809   13.1858   16.1284 H   0  0  0  0  0  0  0  0  0  0  0  0
   50.7664   13.5182   16.4332 H   0  0  0  0  0  0  0  0  0  0  0  0
   49.6066   10.7380   15.9267 H   0  0  0  0  0  0  0  0  0  0  0  0
   50.0045   11.4000   17.5027 H   0  0  0  0  0  0  0  0  0  0  0  0
   48.6336   11.9612   13.7651 H   0  0  0  0  0  0  0  0  0  0  0  0
   48.4979   13.7281   13.9273 H   0  0  0  0  0  0  0  0  0  0  0  0
   49.4118   13.0420   12.5903 H   0  0  0  0  0  0  0  0  0  0  0  0
   50.4012    5.4875   18.0027 H   0  0  0  0  0  0  0  0  0  0  0  0
   49.7817    8.9023   18.3910 H   0  0  0  0  0  0  0  0  0  0  0  0
   51.4827    8.8036   17.8690 H   0  0  0  0  0  0  0  0  0  0  0  0
   49.0796    9.3196   16.0311 H   0  0  0  0  0  0  0  0  0  0  0  0
   50.7780    9.2240   15.5046 H   0  0  0  0  0  0  0  0  0  0  0  0
   50.1461   12.6352   15.9000 H   0  0  0  0  0  0  0  0  0  0  0  0
  1  2  1  0
  1 12  2  0
  3  1  1  0
  3  4  2  0
  4  6  1  0
  5  4  1  0
  7  8  2  0
  8  9  1  0
  8  6  1  0
  9 15  1  0
 10 11  1  0
 10  6  2  0
 12 10  1  0
 13 14  2  0
 14 18  1  0
 15 13  1  0
 15 16  2  0
 16 17  1  0
 18 17  2  0
 19 14  1  0
 19 20  1  0
 20 21  1  0
 21 22  1  0
 22 23  1  0
 23 24  1  0
 23 27  1  0
 24 25  1  0
 25 20  1  0
 26 19  2  0
 28 29  1  0
 28 39  2  0
 30 28  1  0
 30 31  2  0
 31 33  1  0
 32 31  1  0
 34 35  2  0
 35 36  1  0
 35 33  1  0
 36 42  1  0
 37 38  1  0
 37 33  2  0
 39 37  1  0
 40 41  2  0
 41 45  1  0
 42 40  1  0
 42 43  2  0
 43 44  1  0
 45 44  2  0
 46 41  1  0
 46 47  1  0
 47 48  1  0
 48 49  1  0
 49 50  1  0
 50 51  1  0
 50 54  1  0
 51 52  1  0
 52 47  1  0
 53 46  2  0
 55 56  1  0
 56 57  2  0
 56 58  1  0
 58 59  1  0
 59 60  1  0
 60 61  2  0
 60 62  1  0
  3 63  1  0
  9 64  1  0
 12 65  1  0
 16 66  1  0
 17 67  1  0
 18 68  1  0
 20 69  1  0
 21 70  1  0
 21 71  1  0
 22 72  1  0
 22 73  1  0
 24 74  1  0
 24 75  1  0
 25 76  1  0
 25 77  1  0
 27 78  1  0
 27 79  1  0
 27 80  1  0
 30 81  1  0
 36 82  1  0
 39 83  1  0
 43 84  1  0
 44 85  1  0
 45 86  1  0
 47 87  1  0
 48 88  1  0
 48 89  1  0
 49 90  1  0
 49 91  1  0
 51 92  1  0
 51 93  1  0
 52 94  1  0
 52 95  1  0
 54 96  1  0
 54 97  1  0
 54 98  1  0
 55 99  1  0
 58100  1  0
 58101  1  0
 59102  1  0
 59103  1  0
 62104  1  0
M  END
> <Uni-Dock RESULT> 
ENERGY=   -5.105  LOWER_BOUND=    3.442  UPPER_BOUND=    7.708
INTER + INTRA:          -5.105
INTER:                  -5.105
INTRA:                   0.000
UNBOUND:                 0.000

$$$$

     RDKit          3D

104107  0  0  0  0  0  0  0  0999 V2000
   47.4038   12.7386   20.1468 C   0  0  0  0  0  0  0  0  0  0  0  0
   47.0922   14.0235   20.3555 F   0  0  0  0  0  0  0  0  0  0  0  0
   47.8391   12.3382   18.8885 C   0  0  0  0  0  0  0  0  0  0  0  0
   48.1710   11.0020   18.6818 C   0  0  0  0  0  0  0  0  0  0  0  0
   48.5953   10.6325   17.4630 F   0  0  0  0  0  0  0  0  0  0  0  0
   48.0671   10.0654   19.7114 C   0  0  0  0  0  0  0  0  0  0  0  0
   47.7217    7.7888   20.0534 O   0  0  0  0  0  0  0  0  0  0  0  0
   48.4056    8.6399   19.5018 C   0  0  0  0  0  0  0  0  0  0  0  0
   49.5075    8.4082   18.7084 N   0  0  0  0  0  0  0  0  0  0  0  0
   47.6208   10.4947   20.9640 C   0  0  0  0  0  0  0  0  0  0  0  0
   47.5358    9.6463   21.9979 F   0  0  0  0  0  0  0  0  0  0  0  0
   47.2928   11.8295   21.1893 C   0  0  0  0  0  0  0  0  0  0  0  0
   51.2298    7.3158   17.6630 N   0  0  0  0  0  0  0  0  0  0  0  0
   51.8887    6.1782   17.3205 C   0  0  0  0  0  0  0  0  0  0  0  0
   50.0985    7.1846   18.3877 C   0  0  0  0  0  0  0  0  0  0  0  0
   49.5974    5.9496   18.7745 C   0  0  0  0  0  0  0  0  0  0  0  0
   50.2857    4.7944   18.4076 C   0  0  0  0  0  0  0  0  0  0  0  0
   51.4560    4.9064   17.6679 C   0  0  0  0  0  0  0  0  0  0  0  0
   53.1654    6.3395   16.5574 C   0  0  0  0  0  0  0  0  0  0  0  0
   53.5732    7.7545   16.1419 C   0  0  0  0  0  0  0  0  0  0  0  0
   52.6274    8.3225   15.0700 C   0  0  0  0  0  0  0  0  0  0  0  0
   53.3548    8.7860   13.8060 C   0  0  0  0  0  0  0  0  0  0  0  0
   54.1993    7.7050   13.3138 N   0  0  0  0  0  0  0  0  0  0  0  0
   55.2447    7.2960   14.2620 C   0  0  0  0  0  0  0  0  0  0  0  0
   55.0379    7.8085   15.6913 C   0  0  0  0  0  0  0  0  0  0  0  0
   53.8589    5.3480   16.3294 O   0  0  0  0  0  0  0  0  0  0  0  0
   54.7504    7.9959   11.9959 C   0  0  0  0  0  0  0  0  0  0  0  0
   47.9083    9.7978   22.3499 C   0  0  0  0  0  0  0  0  0  0  0  0
   47.4096   10.0435   23.5670 F   0  0  0  0  0  0  0  0  0  0  0  0
   49.2749    9.8854   22.1377 C   0  0  0  0  0  0  0  0  0  0  0  0
   49.7894    9.6277   20.8665 C   0  0  0  0  0  0  0  0  0  0  0  0
   51.1155    9.7402   20.7125 F   0  0  0  0  0  0  0  0  0  0  0  0
   48.9534    9.2792   19.7967 C   0  0  0  0  0  0  0  0  0  0  0  0
   50.7561    8.9040   18.3502 O   0  0  0  0  0  0  0  0  0  0  0  0
   49.5388    9.0014   18.4490 C   0  0  0  0  0  0  0  0  0  0  0  0
   48.6375    8.8635   17.4072 N   0  0  0  0  0  0  0  0  0  0  0  0
   47.5786    9.2081   20.0494 C   0  0  0  0  0  0  0  0  0  0  0  0
   46.7148    8.8945   19.0706 F   0  0  0  0  0  0  0  0  0  0  0  0
   47.0503    9.4648   21.3137 C   0  0  0  0  0  0  0  0  0  0  0  0
   50.2624    8.6350   15.6758 N   0  0  0  0  0  0  0  0  0  0  0  0
   50.5379    8.4433   14.3657 C   0  0  0  0  0  0  0  0  0  0  0  0
   48.9770    8.6516   16.0624 C   0  0  0  0  0  0  0  0  0  0  0  0
   47.9330    8.4775   15.1568 C   0  0  0  0  0  0  0  0  0  0  0  0
   48.2289    8.2705   13.8110 C   0  0  0  0  0  0  0  0  0  0  0  0
   49.5565    8.2544   13.4032 C   0  0  0  0  0  0  0  0  0  0  0  0
   51.9793    8.4387   13.9758 C   0  0  0  0  0  0  0  0  0  0  0  0
   53.0157    8.6821   15.0728 C   0  0  0  0  0  0  0  0  0  0  0  0
   54.3126    9.2713   14.4957 C   0  0  0  0  0  0  0  0  0  0  0  0
   55.4978    8.9451   15.3997 C   0  0  0  0  0  0  0  0  0  0  0  0
   55.7541    7.5004   15.4756 N   0  0  0  0  0  0  0  0  0  0  0  0
   54.5413    6.6791   15.3631 C   0  0  0  0  0  0  0  0  0  0  0  0
   53.2779    7.3850   15.8567 C   0  0  0  0  0  0  0  0  0  0  0  0
   52.2795    8.2260   12.8013 O   0  0  0  0  0  0  0  0  0  0  0  0
   56.5267    7.1708   16.6707 C   0  0  0  0  0  0  0  0  0  0  0  0
   48.8993    9.6522   17.9673 O   0  0  0  0  0  0  0  0  0  0  0  0
   50.2377    9.5317   18.0501 C   0  0  0  0  0  0  0  0  0  0  0  0
   50.8624   10.1313   18.9069 O   0  0  0  0  0  0  0  0  0  0  0  0
   50.7874    8.6110   17.0005 C   0  0  0  0  0  0  0  0  0  0  0  0
   52.3014    8.4972   17.1165 C   0  0  0  0  0  0  0  0  0  0  0  0
   52.8508    7.5757   16.0692 C   0  0  0  0  0  0  0  0  0  0  0  0
   52.2267    6.9744   15.2119 O   0  0  0  0  0  0  0  0  0  0  0  0
   54.1878    7.4499   16.1588 O   0  0  0  0  0  0  0  0  0  0  0  0
   47.9195   13.0566   18.0789 H   0  0  0  0  0  0  0  0  0  0  0  0
   50.0047    9.1868   18.2960 H   0  0  0  0  0  0  0  0  0  0  0  0
   46.9610   12.1516   22.1712 H   0  0  0  0  0  0  0  0  0  0  0  0
   48.6857    5.8504   19.3522 H   0  0  0  0  0  0  0  0  0  0  0  0
   49.9105    3.8181   18.7026 H   0  0  0  0  0  0  0  0  0  0  0  0
   52.0147    4.0230   17.3760 H   0  0  0  0  0  0  0  0  0  0  0  0
   53.5094    8.3731   17.0472 H   0  0  0  0  0  0  0  0  0  0  0  0
   51.8686    7.5822   14.7862 H   0  0  0  0  0  0  0  0  0  0  0  0
   52.0786    9.1743   15.4907 H   0  0  0  0  0  0  0  0  0  0  0  0
   52.5965    9.0481   13.0571 H   0  0  0  0  0  0  0  0  0  0  0  0
   53.9373    9.6956   14.0008 H   0  0  0  0  0  0  0  0  0  0  0  0
   55.2821    6.2005   14.2666 H   0  0  0  0  0  0  0  0  0  0  0  0
   56.2374    7.6359   13.9363 H   0  0  0  0  0  0  0  0  0  0  0  0
   55.6856    7.2492   16.3800 H   0  0  0  0  0  0  0  0  0  0  0  0
   55.3754    8.8540   15.7366 H   0  0  0  0  0  0  0  0  0  0  0  0
   55.3144    7.1382   11.6141 H   0  0  0  0  0  0  0  0  0  0  0  0
   53.9454    8.1873   11.2764 H   0  0  0  0  0  0  0  0  0  0  0  0
   55.4128    8.8676   12.0131 H   0  0  0  0  0  0  0  0  0  0  0  0
   49.9431   10.1534   22.9494 H   0  0  0  0  0  0  0  0  0  0  0  0
   47.6479    8.8981   17.6144 H   0  0  0  0  0  0  0  0  0  0  0  0
   45.9816    9.4024   21.4876 H   0  0  0  0  0  0  0  0  0  0  0  0
   46.8962    8.4953   15.4772 H   0  0  0  0  0  0  0  0  0  0  0  0
   47.4333    8.1239   13.0862 H   0  0  0  0  0  0  0  0  0  0  0  0
   49.8215    8.0990   12.3626 H   0  0  0  0  0  0  0  0  0  0  0  0
   52.6036    9.4296   15.7628 H   0  0  0  0  0  0  0  0  0  0  0  0
   54.2041   10.3580   14.3992 H   0  0  0  0  0  0  0  0  0  0  0  0
   54.5203    8.8972   13.4852 H   0  0  0  0  0  0  0  0  0  0  0  0
   56.3954    9.4435   15.0144 H   0  0  0  0  0  0  0  0  0  0  0  0
   55.2984    9.3679   16.3937 H   0  0  0  0  0  0  0  0  0  0  0  0
   54.6585    5.7201   15.8826 H   0  0  0  0  0  0  0  0  0  0  0  0
   54.4100    6.4204   14.3041 H   0  0  0  0  0  0  0  0  0  0  0  0
   53.3957    7.6271   16.9207 H   0  0  0  0  0  0  0  0  0  0  0  0
   52.4287    6.6950   15.7908 H   0  0  0  0  0  0  0  0  0  0  0  0
   55.9623    7.3510   17.5929 H   0  0  0  0  0  0  0  0  0  0  0  0
   56.8335    6.1185   16.6504 H   0  0  0  0  0  0  0  0  0  0  0  0
   57.4472    7.7656   16.7114 H   0  0  0  0  0  0  0  0  0  0  0  0
   48.6633   10.2673   18.6934 H   0  0  0  0  0  0  0  0  0  0  0  0
   50.3247    7.6251   17.1270 H   0  0  0  0  0  0  0  0  0  0  0  0
   50.5120    9.0051   16.0152 H   0  0  0  0  0  0  0  0  0  0  0  0
   52.5732    8.1034   18.1027 H   0  0  0  0  0  0  0  0  0  0  0  0
   52.7662    9.4821   16.9925 H   0  0  0  0  0  0  0  0  0  0  0  0
   54.4212    6.8308   15.4355 H   0  0  0  0  0  0  0  0  0  0  0  0
  1  2  1  0
  1 12  2  0
  3  1  1  0
  3  4  2  0
  4  6  1  0
  5  4  1  0
  7  8  2  0
  8  9  1  0
  8  6  1  0
  9 15  1  0
 10 11  1  0
 10  6  2  0
 12 10  1  0
 13 14  2  0
 14 18  1  0
 15 13  1  0
 15 16  2  0
 16 17  1  0
 18 17  2  0
 19 14  1  0
 19 20  1  0
 20 21  1  0
 21 22  1  0
 22 23  1  0
 23 24  1  0
 23 27  1  0
 24 25  1  0
 25 20  1  0
 26 19  2  0
 28 29  1  0
 28 39  2  0
 30 28  1  0
 30 31  2  0
 31 33  1  0
 32 31  1  0
 34 35  2  0
 35 36  1  0
 35 33  1  0
 36 42  1  0
 37 38  1  0
 37 33  2  0
 39 37  1  0
 40 41  2  0
 41 45  1  0
 42 40  1  0
 42 43  2  0
 43 44  1  0
 45 44  2  0
 46 41  1  0
 46 47  1  0
 47 48  1  0
 48 49  1  0
 49 50  1  0
 50 51  1  0
 50 54  1  0
 51 52  1  0
 52 47  1  0
 53 46  2  0
 55 56  1  0
 56 57  2  0
 56 58  1  0
 58 59  1  0
 59 60  1  0
 60 61  2  0
 60 62  1  0
  3 63  1  0
  9 64  1  0
 12 65  1  0
 16 66  1  0
 17 67  1  0
 18 68  1  0
 20 69  1  0
 21 70  1  0
 21 71  1  0
 22 72  1  0
 22 73  1  0
 24 74  1  0
 24 75  1  0
 25 76  1  0
 25 77  1  0
 27 78  1  0
 27 79  1  0
 27 80  1  0
 30 81  1  0
 36 82  1  0
 39 83  1  0
 43 84  1  0
 44 85  1  0
 45 86  1  0
 47 87  1  0
 48 88  1  0
 48 89  1  0
 49 90  1  0
 49 91  1  0
 51 92  1  0
 51 93  1  0
 52 94  1  0
 52 95  1  0
 54 96  1  0
 54 97  1  0
 54 98  1  0
 55 99  1  0
 58100  1  0
 58101  1  0
 59102  1  0
 59103  1  0
 62104  1  0
M  END
> <Uni-Dock RESULT> 
ENERGY=   -5.071  LOWER_BOUND=    3.710  UPPER_BOUND=    4.784
INTER + INTRA:          -5.071
INTER:                  -5.071
INTRA:                   0.000
UNBOUND:                 0.000

$$$$

     RDKit          3D

104107  0  0  0  0  0  0  0  0999 V2000
   48.8986   11.5678   11.0808 C   0  0  0  0  0  0  0  0  0  0  0  0
   47.9801   12.1901   10.3320 F   0  0  0  0  0  0  0  0  0  0  0  0
   48.6413   11.3428   12.4285 C   0  0  0  0  0  0  0  0  0  0  0  0
   49.5973   10.6859   13.1985 C   0  0  0  0  0  0  0  0  0  0  0  0
   49.3312   10.4711   14.4966 F   0  0  0  0  0  0  0  0  0  0  0  0
   50.8038   10.2596   12.6412 C   0  0  0  0  0  0  0  0  0  0  0  0
   53.0113    9.8190   13.2346 O   0  0  0  0  0  0  0  0  0  0  0  0
   51.8332    9.5707   13.4512 C   0  0  0  0  0  0  0  0  0  0  0  0
   51.3489    8.6698   14.3739 N   0  0  0  0  0  0  0  0  0  0  0  0
   51.0384   10.5047   11.2856 C   0  0  0  0  0  0  0  0  0  0  0  0
   52.1634   10.0861   10.6899 F   0  0  0  0  0  0  0  0  0  0  0  0
   50.0886   11.1531   10.4996 C   0  0  0  0  0  0  0  0  0  0  0  0
   51.2893    6.9978   15.9403 N   0  0  0  0  0  0  0  0  0  0  0  0
   51.9064    6.1299   16.7838 C   0  0  0  0  0  0  0  0  0  0  0  0
   52.0727    7.8339   15.2263 C   0  0  0  0  0  0  0  0  0  0  0  0
   53.4562    7.8375   15.3351 C   0  0  0  0  0  0  0  0  0  0  0  0
   54.0690    6.9429   16.2109 C   0  0  0  0  0  0  0  0  0  0  0  0
   53.2826    6.0687   16.9500 C   0  0  0  0  0  0  0  0  0  0  0  0
   51.0302    5.1774   17.5344 C   0  0  0  0  0  0  0  0  0  0  0  0
   49.5158    5.3206   17.3684 C   0  0  0  0  0  0  0  0  0  0  0  0
   48.9977    6.6178   18.0125 C   0  0  0  0  0  0  0  0  0  0  0  0
   47.8871    6.3818   19.0385 C   0  0  0  0  0  0  0  0  0  0  0  0
   48.3347    5.3943   20.0126 N   0  0  0  0  0  0  0  0  0  0  0  0
   48.6358    4.0817   19.4248 C   0  0  0  0  0  0  0  0  0  0  0  0
   48.7727    4.0885   17.8985 C   0  0  0  0  0  0  0  0  0  0  0  0
   51.5490    4.2941   18.2174 O   0  0  0  0  0  0  0  0  0  0  0  0
   47.4185    5.2826   21.1410 C   0  0  0  0  0  0  0  0  0  0  0  0
   52.0197    9.7038   10.3452 C   0  0  0  0  0  0  0  0  0  0  0  0
   52.4191    9.9510    9.0923 F   0  0  0  0  0  0  0  0  0  0  0  0
   51.3675    8.5162   10.6359 C   0  0  0  0  0  0  0  0  0  0  0  0
   50.9536    8.2636   11.9443 C   0  0  0  0  0  0  0  0  0  0  0  0
   50.3154    7.1071   12.1681 F   0  0  0  0  0  0  0  0  0  0  0  0
   51.1850    9.1852   12.9748 C   0  0  0  0  0  0  0  0  0  0  0  0
   50.3374    7.7476   14.6172 O   0  0  0  0  0  0  0  0  0  0  0  0
   50.7356    8.8791   14.3677 C   0  0  0  0  0  0  0  0  0  0  0  0
   50.8194    9.9174   15.2796 N   0  0  0  0  0  0  0  0  0  0  0  0
   51.8403   10.3757   12.6398 C   0  0  0  0  0  0  0  0  0  0  0  0
   52.0838   11.3121   13.5706 F   0  0  0  0  0  0  0  0  0  0  0  0
   52.2577   10.6425   11.3367 C   0  0  0  0  0  0  0  0  0  0  0  0
   49.8106    8.7552   17.1023 N   0  0  0  0  0  0  0  0  0  0  0  0
   49.4141    8.7525   18.3952 C   0  0  0  0  0  0  0  0  0  0  0  0
   50.4045    9.8576   16.6187 C   0  0  0  0  0  0  0  0  0  0  0  0
   50.6199   10.9849   17.4081 C   0  0  0  0  0  0  0  0  0  0  0  0
   50.2165   10.9672   18.7417 C   0  0  0  0  0  0  0  0  0  0  0  0
   49.5992    9.8309   19.2484 C   0  0  0  0  0  0  0  0  0  0  0  0
   48.7513    7.5101   18.8922 C   0  0  0  0  0  0  0  0  0  0  0  0
   48.5463    6.3653   17.9002 C   0  0  0  0  0  0  0  0  0  0  0  0
   47.3596    5.4780   18.3080 C   0  0  0  0  0  0  0  0  0  0  0  0
   47.5226    4.0712   17.7400 C   0  0  0  0  0  0  0  0  0  0  0  0
   48.6991    3.3852   18.2912 N   0  0  0  0  0  0  0  0  0  0  0  0
   49.8125    4.2883   18.6120 C   0  0  0  0  0  0  0  0  0  0  0  0
   49.8424    5.5508   17.7498 C   0  0  0  0  0  0  0  0  0  0  0  0
   48.4114    7.4462   20.0734 O   0  0  0  0  0  0  0  0  0  0  0  0
   49.1189    2.2902   17.4203 C   0  0  0  0  0  0  0  0  0  0  0  0
   50.2408    9.7784   14.4733 O   0  0  0  0  0  0  0  0  0  0  0  0
   49.8819    8.4851   14.5796 C   0  0  0  0  0  0  0  0  0  0  0  0
   49.4370    7.8840   13.6180 O   0  0  0  0  0  0  0  0  0  0  0  0
   50.1038    7.9498   15.9636 C   0  0  0  0  0  0  0  0  0  0  0  0
   49.6862    6.4883   16.0545 C   0  0  0  0  0  0  0  0  0  0  0  0
   49.9097    5.9525   17.4367 C   0  0  0  0  0  0  0  0  0  0  0  0
   50.3556    6.5526   18.3996 O   0  0  0  0  0  0  0  0  0  0  0  0
   49.5582    4.6574   17.5389 O   0  0  0  0  0  0  0  0  0  0  0  0
   47.7087   11.6739   12.8741 H   0  0  0  0  0  0  0  0  0  0  0  0
   50.3509    8.5396   14.4758 H   0  0  0  0  0  0  0  0  0  0  0  0
   50.2782   11.3244    9.4448 H   0  0  0  0  0  0  0  0  0  0  0  0
   54.0797    8.5147   14.7628 H   0  0  0  0  0  0  0  0  0  0  0  0
   55.1513    6.9290   16.3086 H   0  0  0  0  0  0  0  0  0  0  0  0
   53.7354    5.3572   17.6332 H   0  0  0  0  0  0  0  0  0  0  0  0
   49.3248    5.3505   16.2872 H   0  0  0  0  0  0  0  0  0  0  0  0
   49.8143    7.1657   18.4998 H   0  0  0  0  0  0  0  0  0  0  0  0
   48.6138    7.2802   17.2267 H   0  0  0  0  0  0  0  0  0  0  0  0
   47.6769    7.3380   19.5344 H   0  0  0  0  0  0  0  0  0  0  0  0
   46.9583    6.0685   18.5448 H   0  0  0  0  0  0  0  0  0  0  0  0
   49.5671    3.7193   19.8753 H   0  0  0  0  0  0  0  0  0  0  0  0
   47.8639    3.3420   19.6776 H   0  0  0  0  0  0  0  0  0  0  0  0
   49.2583    3.1602   17.5686 H   0  0  0  0  0  0  0  0  0  0  0  0
   47.7644    4.0777   17.4602 H   0  0  0  0  0  0  0  0  0  0  0  0
   47.8156    4.5953   21.8956 H   0  0  0  0  0  0  0  0  0  0  0  0
   47.2967    6.2541   21.6348 H   0  0  0  0  0  0  0  0  0  0  0  0
   46.4305    4.9260   20.8317 H   0  0  0  0  0  0  0  0  0  0  0  0
   51.1765    7.7866    9.8559 H   0  0  0  0  0  0  0  0  0  0  0  0
   51.2261   10.7939   14.9803 H   0  0  0  0  0  0  0  0  0  0  0  0
   52.7653   11.5711   11.0997 H   0  0  0  0  0  0  0  0  0  0  0  0
   51.0981   11.8734   17.0084 H   0  0  0  0  0  0  0  0  0  0  0  0
   50.3804   11.8304   19.3804 H   0  0  0  0  0  0  0  0  0  0  0  0
   49.2700    9.7851   20.2813 H   0  0  0  0  0  0  0  0  0  0  0  0
   48.2966    6.8066   16.9267 H   0  0  0  0  0  0  0  0  0  0  0  0
   46.4298    5.9253   17.9374 H   0  0  0  0  0  0  0  0  0  0  0  0
   47.2504    5.4128   19.3980 H   0  0  0  0  0  0  0  0  0  0  0  0
   46.6282    3.4807   17.9722 H   0  0  0  0  0  0  0  0  0  0  0  0
   47.5811    4.1471   16.6457 H   0  0  0  0  0  0  0  0  0  0  0  0
   50.7778    3.7711   18.5476 H   0  0  0  0  0  0  0  0  0  0  0  0
   49.7113    4.5825   19.6650 H   0  0  0  0  0  0  0  0  0  0  0  0
   49.9645    5.2629   16.6977 H   0  0  0  0  0  0  0  0  0  0  0  0
   50.7255    6.1458   18.0101 H   0  0  0  0  0  0  0  0  0  0  0  0
   49.4952    2.6483   16.4550 H   0  0  0  0  0  0  0  0  0  0  0  0
   49.9051    1.6973   17.9021 H   0  0  0  0  0  0  0  0  0  0  0  0
   48.2827    1.6068   17.2290 H   0  0  0  0  0  0  0  0  0  0  0  0
   50.0531   10.0087   13.5389 H   0  0  0  0  0  0  0  0  0  0  0  0
   51.1672    8.0537   16.2095 H   0  0  0  0  0  0  0  0  0  0  0  0
   49.5194    8.5546   16.6670 H   0  0  0  0  0  0  0  0  0  0  0  0
   50.2720    5.8867   15.3499 H   0  0  0  0  0  0  0  0  0  0  0  0
   48.6237    6.3816   15.8071 H   0  0  0  0  0  0  0  0  0  0  0  0
   49.7514    4.4275   18.4720 H   0  0  0  0  0  0  0  0  0  0  0  0
  1  2  1  0
  1 12  2  0
  3  1  1  0
  3  4  2  0
  4  6  1  0
  5  4  1  0
  7  8  2  0
  8  9  1  0
  8  6  1  0
  9 15  1  0
 10 11  1  0
 10  6  2  0
 12 10  1  0
 13 14  2  0
 14 18  1  0
 15 13  1  0
 15 16  2  0
 16 17  1  0
 18 17  2  0
 19 14  1  0
 19 20  1  0
 20 21  1  0
 21 22  1  0
 22 23  1  0
 23 24  1  0
 23 27  1  0
 24 25  1  0
 25 20  1  0
 26 19  2  0
 28 29  1  0
 28 39  2  0
 30 28  1  0
 30 31  2  0
 31 33  1  0
 32 31  1  0
 34 35  2  0
 35 36  1  0
 35 33  1  0
 36 42  1  0
 37 38  1  0
 37 33  2  0
 39 37  1  0
 40 41  2  0
 41 45  1  0
 42 40  1  0
 42 43  2  0
 43 44  1  0
 45 44  2  0
 46 41  1  0
 46 47  1  0
 47 48  1  0
 48 49  1  0
 49 50  1  0
 50 51  1  0
 50 54  1  0
 51 52  1  0
 52 47  1  0
 53 46  2  0
 55 56  1  0
 56 57  2  0
 56 58  1  0
 58 59  1  0
 59 60  1  0
 60 61  2  0
 60 62  1  0
  3 63  1  0
  9 64  1  0
 12 65  1  0
 16 66  1  0
 17 67  1  0
 18 68  1  0
 20 69  1  0
 21 70  1  0
 21 71  1  0
 22 72  1  0
 22 73  1  0
 24 74  1  0
 24 75  1  0
 25 76  1  0
 25 77  1  0
 27 78  1  0
 27 79  1  0
 27 80  1  0
 30 81  1  0
 36 82  1  0
 39 83  1  0
 43 84  1  0
 44 85  1  0
 45 86  1  0
 47 87  1  0
 48 88  1  0
 48 89  1  0
 49 90  1  0
 49 91  1  0
 51 92  1  0
 51 93  1  0
 52 94  1  0
 52 95  1  0
 54 96  1  0
 54 97  1  0
 54 98  1  0
 55 99  1  0
 58100  1  0
 58101  1  0
 59102  1  0
 59103  1  0
 62104  1  0
M  END
> <Uni-Dock RESULT> 
ENERGY=   -5.019  LOWER_BOUND=    4.317  UPPER_BOUND=    7.087
INTER + INTRA:          -5.019
INTER:                  -5.019
INTRA:                   0.000
UNBOUND:                 0.000

$$$$

     RDKit          3D

104107  0  0  0  0  0  0  0  0999 V2000
   47.4436    9.3020   20.7140 C   0  0  0  0  0  0  0  0  0  0  0  0
   46.7556    8.2641   21.2048 F   0  0  0  0  0  0  0  0  0  0  0  0
   47.5079    9.4881   19.3377 C   0  0  0  0  0  0  0  0  0  0  0  0
   48.2170   10.5757   18.8352 C   0  0  0  0  0  0  0  0  0  0  0  0
   48.2645   10.7448   17.5043 F   0  0  0  0  0  0  0  0  0  0  0  0
   48.8646   11.4708   19.6880 C   0  0  0  0  0  0  0  0  0  0  0  0
   50.6700   12.9399   19.7305 O   0  0  0  0  0  0  0  0  0  0  0  0
   49.6315   12.6242   19.1664 C   0  0  0  0  0  0  0  0  0  0  0  0
   49.0669   13.2646   18.0854 N   0  0  0  0  0  0  0  0  0  0  0  0
   48.7887   11.2557   21.0667 C   0  0  0  0  0  0  0  0  0  0  0  0
   49.3610   12.1028   21.9331 F   0  0  0  0  0  0  0  0  0  0  0  0
   48.0761   10.1772   21.5856 C   0  0  0  0  0  0  0  0  0  0  0  0
   48.6780   14.8341   16.4612 N   0  0  0  0  0  0  0  0  0  0  0  0
   49.0259   15.9547   15.7764 C   0  0  0  0  0  0  0  0  0  0  0  0
   49.5215   14.4077   17.4251 C   0  0  0  0  0  0  0  0  0  0  0  0
   50.7094   15.0610   17.7216 C   0  0  0  0  0  0  0  0  0  0  0  0
   51.0504   16.2056   17.0030 C   0  0  0  0  0  0  0  0  0  0  0  0
   50.1937   16.6663   16.0117 C   0  0  0  0  0  0  0  0  0  0  0  0
   48.0607   16.4430   14.7430 C   0  0  0  0  0  0  0  0  0  0  0  0
   46.8162   15.5947   14.4730 C   0  0  0  0  0  0  0  0  0  0  0  0
   47.1777   14.2625   13.7943 C   0  0  0  0  0  0  0  0  0  0  0  0
   46.4324   14.0329   12.4776 C   0  0  0  0  0  0  0  0  0  0  0  0
   46.6198   15.1898   11.6112 N   0  0  0  0  0  0  0  0  0  0  0  0
   46.0860   16.4385   12.1724 C   0  0  0  0  0  0  0  0  0  0  0  0
   45.7675   16.3737   13.6699 C   0  0  0  0  0  0  0  0  0  0  0  0
   48.2734   17.5183   14.1820 O   0  0  0  0  0  0  0  0  0  0  0  0
   46.1246   14.9501   10.2612 C   0  0  0  0  0  0  0  0  0  0  0  0
   48.9627   12.3442   22.1953 C   0  0  0  0  0  0  0  0  0  0  0  0
   49.0546   12.2128   23.5236 F   0  0  0  0  0  0  0  0  0  0  0  0
   47.9425   13.1073   21.6501 C   0  0  0  0  0  0  0  0  0  0  0  0
   47.8518   13.2413   20.2642 C   0  0  0  0  0  0  0  0  0  0  0  0
   46.8388   13.9781   19.7890 F   0  0  0  0  0  0  0  0  0  0  0  0
   48.7729   12.6216   19.4083 C   0  0  0  0  0  0  0  0  0  0  0  0
   47.8579   13.6221   17.4992 O   0  0  0  0  0  0  0  0  0  0  0  0
   48.6514   12.7928   17.9277 C   0  0  0  0  0  0  0  0  0  0  0  0
   49.4703   11.9918   17.1502 N   0  0  0  0  0  0  0  0  0  0  0  0
   49.7843   11.8538   19.9968 C   0  0  0  0  0  0  0  0  0  0  0  0
   50.6940   11.2189   19.2406 F   0  0  0  0  0  0  0  0  0  0  0  0
   49.8862   11.7095   21.3797 C   0  0  0  0  0  0  0  0  0  0  0  0
   48.6019   12.6890   15.0406 N   0  0  0  0  0  0  0  0  0  0  0  0
   48.6388   12.6099   13.6911 C   0  0  0  0  0  0  0  0  0  0  0  0
   49.4783   11.9580   15.7474 C   0  0  0  0  0  0  0  0  0  0  0  0
   50.4138   11.1305   15.1309 C   0  0  0  0  0  0  0  0  0  0  0  0
   50.4496   11.0646   13.7394 C   0  0  0  0  0  0  0  0  0  0  0  0
   49.5443   11.8163   13.0015 C   0  0  0  0  0  0  0  0  0  0  0  0
   47.6430   13.4329   12.9422 C   0  0  0  0  0  0  0  0  0  0  0  0
   46.6500   14.2643   13.7542 C   0  0  0  0  0  0  0  0  0  0  0  0
   45.3582   14.5224   12.9625 C   0  0  0  0  0  0  0  0  0  0  0  0
   44.6703   15.7909   13.4586 C   0  0  0  0  0  0  0  0  0  0  0  0
   45.4873   16.9897   13.2269 N   0  0  0  0  0  0  0  0  0  0  0  0
   46.9334   16.7421   13.3026 C   0  0  0  0  0  0  0  0  0  0  0  0
   47.3060   15.5757   14.2185 C   0  0  0  0  0  0  0  0  0  0  0  0
   47.6665   13.4251   11.7117 O   0  0  0  0  0  0  0  0  0  0  0  0
   45.0741   18.0796   14.1072 C   0  0  0  0  0  0  0  0  0  0  0  0
   48.6915   11.7783   17.7437 O   0  0  0  0  0  0  0  0  0  0  0  0
   47.8138   12.7569   17.4524 C   0  0  0  0  0  0  0  0  0  0  0  0
   46.8850   13.0000   18.2020 O   0  0  0  0  0  0  0  0  0  0  0  0
   48.1427   13.4432   16.1593 C   0  0  0  0  0  0  0  0  0  0  0  0
   47.1324   14.5411   15.8546 C   0  0  0  0  0  0  0  0  0  0  0  0
   47.4618   15.2285   14.5637 C   0  0  0  0  0  0  0  0  0  0  0  0
   48.3914   14.9868   13.8130 O   0  0  0  0  0  0  0  0  0  0  0  0
   46.5883   16.2119   14.2783 O   0  0  0  0  0  0  0  0  0  0  0  0
   47.0122    8.7960   18.6644 H   0  0  0  0  0  0  0  0  0  0  0  0
   48.2015   12.9200   17.6907 H   0  0  0  0  0  0  0  0  0  0  0  0
   48.0138   10.0304   22.6592 H   0  0  0  0  0  0  0  0  0  0  0  0
   51.3851   14.7109   18.4934 H   0  0  0  0  0  0  0  0  0  0  0  0
   51.9754   16.7325   17.2218 H   0  0  0  0  0  0  0  0  0  0  0  0
   50.4322   17.5593   15.4429 H   0  0  0  0  0  0  0  0  0  0  0  0
   46.3619   15.3918   15.4522 H   0  0  0  0  0  0  0  0  0  0  0  0
   48.2564   14.2020   13.6015 H   0  0  0  0  0  0  0  0  0  0  0  0
   46.9443   13.4366   14.4776 H   0  0  0  0  0  0  0  0  0  0  0  0
   46.8484   13.1330   12.0068 H   0  0  0  0  0  0  0  0  0  0  0  0
   45.3685   13.8340   12.6596 H   0  0  0  0  0  0  0  0  0  0  0  0
   46.8217   17.2297   11.9874 H   0  0  0  0  0  0  0  0  0  0  0  0
   45.1657   16.7484   11.6585 H   0  0  0  0  0  0  0  0  0  0  0  0
   45.6421   17.3913   14.0638 H   0  0  0  0  0  0  0  0  0  0  0  0
   44.7954   15.8758   13.7962 H   0  0  0  0  0  0  0  0  0  0  0  0
   46.3484   15.8016    9.6098 H   0  0  0  0  0  0  0  0  0  0  0  0
   46.6209   14.0780    9.8190 H   0  0  0  0  0  0  0  0  0  0  0  0
   45.0436   14.7764   10.2471 H   0  0  0  0  0  0  0  0  0  0  0  0
   47.2170   13.5971   22.2912 H   0  0  0  0  0  0  0  0  0  0  0  0
   50.1367   11.3868   17.6119 H   0  0  0  0  0  0  0  0  0  0  0  0
   50.6791   11.1109   21.8145 H   0  0  0  0  0  0  0  0  0  0  0  0
   51.1169   10.5403   15.7099 H   0  0  0  0  0  0  0  0  0  0  0  0
   51.1749   10.4333   13.2343 H   0  0  0  0  0  0  0  0  0  0  0  0
   49.5429   11.7856   11.9169 H   0  0  0  0  0  0  0  0  0  0  0  0
   46.3709   13.6807   14.6409 H   0  0  0  0  0  0  0  0  0  0  0  0
   44.6864   13.6636   13.0773 H   0  0  0  0  0  0  0  0  0  0  0  0
   45.5476   14.6164   11.8857 H   0  0  0  0  0  0  0  0  0  0  0  0
   43.7121   15.9104   12.9390 H   0  0  0  0  0  0  0  0  0  0  0  0
   44.4423   15.6633   14.5255 H   0  0  0  0  0  0  0  0  0  0  0  0
   47.4778   17.6439   13.6088 H   0  0  0  0  0  0  0  0  0  0  0  0
   47.2881   16.5207   12.2873 H   0  0  0  0  0  0  0  0  0  0  0  0
   46.9721   15.8015   15.2394 H   0  0  0  0  0  0  0  0  0  0  0  0
   48.3976   15.4866   14.2649 H   0  0  0  0  0  0  0  0  0  0  0  0
   45.2810   17.8629   15.1617 H   0  0  0  0  0  0  0  0  0  0  0  0
   45.5893   19.0082   13.8351 H   0  0  0  0  0  0  0  0  0  0  0  0
   43.9998   18.2741   14.0026 H   0  0  0  0  0  0  0  0  0  0  0  0
   48.3763   11.4125   18.5969 H   0  0  0  0  0  0  0  0  0  0  0  0
   49.1496   13.8695   16.2390 H   0  0  0  0  0  0  0  0  0  0  0  0
   48.1401   12.6941   15.3588 H   0  0  0  0  0  0  0  0  0  0  0  0
   47.1373   15.2880   16.6569 H   0  0  0  0  0  0  0  0  0  0  0  0
   46.1245   14.1176   15.7765 H   0  0  0  0  0  0  0  0  0  0  0  0
   46.9080   16.5797   13.4278 H   0  0  0  0  0  0  0  0  0  0  0  0
  1  2  1  0
  1 12  2  0
  3  1  1  0
  3  4  2  0
  4  6  1  0
  5  4  1  0
  7  8  2  0
  8  9  1  0
  8  6  1  0
  9 15  1  0
 10 11  1  0
 10  6  2  0
 12 10  1  0
 13 14  2  0
 14 18  1  0
 15 13  1  0
 15 16  2  0
 16 17  1  0
 18 17  2  0
 19 14  1  0
 19 20  1  0
 20 21  1  0
 21 22  1  0
 22 23  1  0
 23 24  1  0
 23 27  1  0
 24 25  1  0
 25 20  1  0
 26 19  2  0
 28 29  1  0
 28 39  2  0
 30 28  1  0
 30 31  2  0
 31 33  1  0
 32 31  1  0
 34 35  2  0
 35 36  1  0
 35 33  1  0
 36 42  1  0
 37 38  1  0
 37 33  2  0
 39 37  1  0
 40 41  2  0
 41 45  1  0
 42 40  1  0
 42 43  2  0
 43 44  1  0
 45 44  2  0
 46 41  1  0
 46 47  1  0
 47 48  1  0
 48 49  1  0
 49 50  1  0
 50 51  1  0
 50 54  1  0
 51 52  1  0
 52 47  1  0
 53 46  2  0
 55 56  1  0
 56 57  2  0
 56 58  1  0
 58 59  1  0
 59 60  1  0
 60 61  2  0
 60 62  1  0
  3 63  1  0
  9 64  1  0
 12 65  1  0
 16 66  1  0
 17 67  1  0
 18 68  1  0
 20 69  1  0
 21 70  1  0
 21 71  1  0
 22 72  1  0
 22 73  1  0
 24 74  1  0
 24 75  1  0
 25 76  1  0
 25 77  1  0
 27 78  1  0
 27 79  1  0
 27 80  1  0
 30 81  1  0
 36 82  1  0
 39 83  1  0
 43 84  1  0
 44 85  1  0
 45 86  1  0
 47 87  1  0
 48 88  1  0
 48 89  1  0
 49 90  1  0
 49 91  1  0
 51 92  1  0
 51 93  1  0
 52 94  1  0
 52 95  1  0
 54 96  1  0
 54 97  1  0
 54 98  1  0
 55 99  1  0
 58100  1  0
 58101  1  0
 59102  1  0
 59103  1  0
 62104  1  0
M  END
> <Uni-Dock RESULT> 
ENERGY=   -4.804  LOWER_BOUND=    5.366  UPPER_BOUND=   10.100
INTER + INTRA:          -4.804
INTER:                  -4.804
INTRA:                   0.000
UNBOUND:                 0.000

$$$$

     RDKit          3D

104107  0  0  0  0  0  0  0  0999 V2000
   47.1252   13.9590    5.3737 C   0  0  0  0  0  0  0  0  0  0  0  0
   47.0378   13.7641    4.0523 F   0  0  0  0  0  0  0  0  0  0  0  0
   46.6485   12.9818    6.2402 C   0  0  0  0  0  0  0  0  0  0  0  0
   46.7521   13.1872    7.6132 C   0  0  0  0  0  0  0  0  0  0  0  0
   46.2926   12.2316    8.4365 F   0  0  0  0  0  0  0  0  0  0  0  0
   47.3179   14.3550    8.1272 C   0  0  0  0  0  0  0  0  0  0  0  0
   47.2391   15.7234   10.0089 O   0  0  0  0  0  0  0  0  0  0  0  0
   47.4234   14.5910    9.5844 C   0  0  0  0  0  0  0  0  0  0  0  0
   47.7588   13.4861   10.3357 N   0  0  0  0  0  0  0  0  0  0  0  0
   47.7830   15.3230    7.2331 C   0  0  0  0  0  0  0  0  0  0  0  0
   48.3674   16.4469    7.6702 F   0  0  0  0  0  0  0  0  0  0  0  0
   47.6943   15.1289    5.8566 C   0  0  0  0  0  0  0  0  0  0  0  0
   48.3971   12.1939   12.1177 N   0  0  0  0  0  0  0  0  0  0  0  0
   48.6677   12.0330   13.4392 C   0  0  0  0  0  0  0  0  0  0  0  0
   47.9900   13.4150   11.7108 C   0  0  0  0  0  0  0  0  0  0  0  0
   47.8350   14.4814   12.5854 C   0  0  0  0  0  0  0  0  0  0  0  0
   48.1124   14.2932   13.9384 C   0  0  0  0  0  0  0  0  0  0  0  0
   48.5395   13.0469   14.3779 C   0  0  0  0  0  0  0  0  0  0  0  0
   49.1623   10.6883   13.8696 C   0  0  0  0  0  0  0  0  0  0  0  0
   49.2298    9.5826   12.8141 C   0  0  0  0  0  0  0  0  0  0  0  0
   47.8253    9.1441   12.3656 C   0  0  0  0  0  0  0  0  0  0  0  0
   47.5815    7.6417   12.5239 C   0  0  0  0  0  0  0  0  0  0  0  0
   47.8999    7.2444   13.8895 N   0  0  0  0  0  0  0  0  0  0  0  0
   49.3040    7.4731   14.2573 C   0  0  0  0  0  0  0  0  0  0  0  0
   50.0673    8.3928   13.2982 C   0  0  0  0  0  0  0  0  0  0  0  0
   49.5350   10.5286   15.0322 O   0  0  0  0  0  0  0  0  0  0  0  0
   47.4837    5.8765   14.1741 C   0  0  0  0  0  0  0  0  0  0  0  0
   48.8810   16.4174    7.5255 C   0  0  0  0  0  0  0  0  0  0  0  0
   49.2805   17.4654    6.7957 F   0  0  0  0  0  0  0  0  0  0  0  0
   49.7962   15.4391    7.8798 C   0  0  0  0  0  0  0  0  0  0  0  0
   49.3741   14.3487    8.6413 C   0  0  0  0  0  0  0  0  0  0  0  0
   50.2958   13.4248    8.9443 F   0  0  0  0  0  0  0  0  0  0  0  0
   48.0421   14.2209    9.0591 C   0  0  0  0  0  0  0  0  0  0  0  0
   48.4957   12.3072   10.3298 O   0  0  0  0  0  0  0  0  0  0  0  0
   47.6252   13.0436    9.8814 C   0  0  0  0  0  0  0  0  0  0  0  0
   46.2641   12.8878   10.0805 N   0  0  0  0  0  0  0  0  0  0  0  0
   47.1468   15.2259    8.6751 C   0  0  0  0  0  0  0  0  0  0  0  0
   45.8523   15.1643    9.0257 F   0  0  0  0  0  0  0  0  0  0  0  0
   47.5539   16.3199    7.9129 C   0  0  0  0  0  0  0  0  0  0  0  0
   46.4007   10.8165   11.2559 N   0  0  0  0  0  0  0  0  0  0  0  0
   45.7711    9.8105   11.9043 C   0  0  0  0  0  0  0  0  0  0  0  0
   45.6610   11.8283   10.7753 C   0  0  0  0  0  0  0  0  0  0  0  0
   44.2770   11.8661   10.9274 C   0  0  0  0  0  0  0  0  0  0  0  0
   43.6398   10.8293   11.6062 C   0  0  0  0  0  0  0  0  0  0  0  0
   44.3984    9.7779   12.1042 C   0  0  0  0  0  0  0  0  0  0  0  0
   46.6287    8.7009   12.4172 C   0  0  0  0  0  0  0  0  0  0  0  0
   48.1304    8.7743   12.1415 C   0  0  0  0  0  0  0  0  0  0  0  0
   48.7657    7.3749   12.1299 C   0  0  0  0  0  0  0  0  0  0  0  0
   50.2501    7.4577   12.4734 C   0  0  0  0  0  0  0  0  0  0  0  0
   50.4750    7.9505   13.8390 N   0  0  0  0  0  0  0  0  0  0  0  0
   49.4596    8.9091   14.2953 C   0  0  0  0  0  0  0  0  0  0  0  0
   48.8151    9.7031   13.1585 C   0  0  0  0  0  0  0  0  0  0  0  0
   46.1045    7.7848   13.0502 O   0  0  0  0  0  0  0  0  0  0  0  0
   51.8287    8.4794   13.9854 C   0  0  0  0  0  0  0  0  0  0  0  0
   46.8349   12.8100    9.2605 O   0  0  0  0  0  0  0  0  0  0  0  0
   47.9144   12.1408    9.7076 C   0  0  0  0  0  0  0  0  0  0  0  0
   48.9512   12.1387    9.0682 O   0  0  0  0  0  0  0  0  0  0  0  0
   47.6516   11.4562   11.0166 C   0  0  0  0  0  0  0  0  0  0  0  0
   48.8873   10.7058   11.4950 C   0  0  0  0  0  0  0  0  0  0  0  0
   48.6258   10.0233   12.8040 C   0  0  0  0  0  0  0  0  0  0  0  0
   47.5891   10.0253   13.4453 O   0  0  0  0  0  0  0  0  0  0  0  0
   49.7083    9.3619   13.2534 O   0  0  0  0  0  0  0  0  0  0  0  0
   46.2023   12.0716    5.8522 H   0  0  0  0  0  0  0  0  0  0  0  0
   47.8878   12.5899    9.8847 H   0  0  0  0  0  0  0  0  0  0  0  0
   48.0725   15.8830    5.1738 H   0  0  0  0  0  0  0  0  0  0  0  0
   47.5030   15.4583   12.2535 H   0  0  0  0  0  0  0  0  0  0  0  0
   47.9991   15.1165   14.6387 H   0  0  0  0  0  0  0  0  0  0  0  0
   48.7693   12.8762   15.4248 H   0  0  0  0  0  0  0  0  0  0  0  0
   49.7691   10.0065   11.9563 H   0  0  0  0  0  0  0  0  0  0  0  0
   47.0501    9.6855   12.9228 H   0  0  0  0  0  0  0  0  0  0  0  0
   47.6851    9.4126   11.3112 H   0  0  0  0  0  0  0  0  0  0  0  0
   46.5234    7.4467   12.3072 H   0  0  0  0  0  0  0  0  0  0  0  0
   48.1667    7.0709   11.7915 H   0  0  0  0  0  0  0  0  0  0  0  0
   49.3200    7.9006   15.2666 H   0  0  0  0  0  0  0  0  0  0  0  0
   49.8629    6.5290   14.3146 H   0  0  0  0  0  0  0  0  0  0  0  0
   50.9976    8.7305   13.7747 H   0  0  0  0  0  0  0  0  0  0  0  0
   50.3705    7.8035   12.4209 H   0  0  0  0  0  0  0  0  0  0  0  0
   47.6603    5.6290   15.2262 H   0  0  0  0  0  0  0  0  0  0  0  0
   46.4075    5.7581   14.0004 H   0  0  0  0  0  0  0  0  0  0  0  0
   48.0161    5.1495   13.5520 H   0  0  0  0  0  0  0  0  0  0  0  0
   50.8329   15.5150    7.5689 H   0  0  0  0  0  0  0  0  0  0  0  0
   45.6370   13.5941    9.7181 H   0  0  0  0  0  0  0  0  0  0  0  0
   46.8434   17.0880    7.6278 H   0  0  0  0  0  0  0  0  0  0  0  0
   43.6858   12.6865   10.5330 H   0  0  0  0  0  0  0  0  0  0  0  0
   42.5626   10.8393   11.7454 H   0  0  0  0  0  0  0  0  0  0  0  0
   43.9336    8.9533   12.6346 H   0  0  0  0  0  0  0  0  0  0  0  0
   48.2663    9.1960   11.1372 H   0  0  0  0  0  0  0  0  0  0  0  0
   48.6361    6.9275   11.1374 H   0  0  0  0  0  0  0  0  0  0  0  0
   48.2731    6.6939   12.8354 H   0  0  0  0  0  0  0  0  0  0  0  0
   50.7001    6.4622   12.3783 H   0  0  0  0  0  0  0  0  0  0  0  0
   50.7392    8.1025   11.7307 H   0  0  0  0  0  0  0  0  0  0  0  0
   49.8685    9.5980   15.0447 H   0  0  0  0  0  0  0  0  0  0  0  0
   48.6772    8.3436   14.8183 H   0  0  0  0  0  0  0  0  0  0  0  0
   49.5901   10.2869   12.6454 H   0  0  0  0  0  0  0  0  0  0  0  0
   48.1108   10.4303   13.5790 H   0  0  0  0  0  0  0  0  0  0  0  0
   51.9880    9.3842   13.3874 H   0  0  0  0  0  0  0  0  0  0  0  0
   52.0364    8.7154   15.0357 H   0  0  0  0  0  0  0  0  0  0  0  0
   52.5704    7.7319   13.6788 H   0  0  0  0  0  0  0  0  0  0  0  0
   47.1272   13.2088    8.4140 H   0  0  0  0  0  0  0  0  0  0  0  0
   47.3631   12.2151   11.7534 H   0  0  0  0  0  0  0  0  0  0  0  0
   46.8150   10.7605   10.8821 H   0  0  0  0  0  0  0  0  0  0  0  0
   49.7216   11.4041   11.6281 H   0  0  0  0  0  0  0  0  0  0  0  0
   49.1789    9.9478   10.7590 H   0  0  0  0  0  0  0  0  0  0  0  0
   49.4159    8.9682   14.1021 H   0  0  0  0  0  0  0  0  0  0  0  0
  1  2  1  0
  1 12  2  0
  3  1  1  0
  3  4  2  0
  4  6  1  0
  5  4  1  0
  7  8  2  0
  8  9  1  0
  8  6  1  0
  9 15  1  0
 10 11  1  0
 10  6  2  0
 12 10  1  0
 13 14  2  0
 14 18  1  0
 15 13  1  0
 15 16  2  0
 16 17  1  0
 18 17  2  0
 19 14  1  0
 19 20  1  0
 20 21  1  0
 21 22  1  0
 22 23  1  0
 23 24  1  0
 23 27  1  0
 24 25  1  0
 25 20  1  0
 26 19  2  0
 28 29  1  0
 28 39  2  0
 30 28  1  0
 30 31  2  0
 31 33  1  0
 32 31  1  0
 34 35  2  0
 35 36  1  0
 35 33  1  0
 36 42  1  0
 37 38  1  0
 37 33  2  0
 39 37  1  0
 40 41  2  0
 41 45  1  0
 42 40  1  0
 42 43  2  0
 43 44  1  0
 45 44  2  0
 46 41  1  0
 46 47  1  0
 47 48  1  0
 48 49  1  0
 49 50  1  0
 50 51  1  0
 50 54  1  0
 51 52  1  0
 52 47  1  0
 53 46  2  0
 55 56  1  0
 56 57  2  0
 56 58  1  0
 58 59  1  0
 59 60  1  0
 60 61  2  0
 60 62  1  0
  3 63  1  0
  9 64  1  0
 12 65  1  0
 16 66  1  0
 17 67  1  0
 18 68  1  0
 20 69  1  0
 21 70  1  0
 21 71  1  0
 22 72  1  0
 22 73  1  0
 24 74  1  0
 24 75  1  0
 25 76  1  0
 25 77  1  0
 27 78  1  0
 27 79  1  0
 27 80  1  0
 30 81  1  0
 36 82  1  0
 39 83  1  0
 43 84  1  0
 44 85  1  0
 45 86  1  0
 47 87  1  0
 48 88  1  0
 48 89  1  0
 49 90  1  0
 49 91  1  0
 51 92  1  0
 51 93  1  0
 52 94  1  0
 52 95  1  0
 54 96  1  0
 54 97  1  0
 54 98  1  0
 55 99  1  0
 58100  1  0
 58101  1  0
 59102  1  0
 59103  1  0
 62104  1  0
M  END
> <Uni-Dock RESULT> 
ENERGY=   -4.791  LOWER_BOUND=    7.776  UPPER_BOUND=   11.030
INTER + INTRA:          -4.791
INTER:                  -4.791
INTRA:                   0.000
UNBOUND:                 0.000

$$$$

     RDKit          3D

104107  0  0  0  0  0  0  0  0999 V2000
   51.7737    4.4196   17.9416 C   0  0  0  0  0  0  0  0  0  0  0  0
   52.6719    3.5653   17.4367 F   0  0  0  0  0  0  0  0  0  0  0  0
   52.1407    5.7419   18.1652 C   0  0  0  0  0  0  0  0  0  0  0  0
   51.1979    6.6269   18.6812 C   0  0  0  0  0  0  0  0  0  0  0  0
   51.5661    7.9015   18.8857 F   0  0  0  0  0  0  0  0  0  0  0  0
   49.9014    6.2058   18.9807 C   0  0  0  0  0  0  0  0  0  0  0  0
   48.1179    6.7131   20.3883 O   0  0  0  0  0  0  0  0  0  0  0  0
   48.8932    7.1335   19.5406 C   0  0  0  0  0  0  0  0  0  0  0  0
   48.9091    8.4061   19.0136 N   0  0  0  0  0  0  0  0  0  0  0  0
   49.5621    4.8697   18.7520 C   0  0  0  0  0  0  0  0  0  0  0  0
   48.3222    4.4190   18.9877 F   0  0  0  0  0  0  0  0  0  0  0  0
   50.4912    3.9738   18.2284 C   0  0  0  0  0  0  0  0  0  0  0  0
   48.2782   10.5556   18.5296 N   0  0  0  0  0  0  0  0  0  0  0  0
   47.4740   11.6344   18.7170 C   0  0  0  0  0  0  0  0  0  0  0  0
   48.0474    9.4679   19.2952 C   0  0  0  0  0  0  0  0  0  0  0  0
   47.0423    9.4261   20.2513 C   0  0  0  0  0  0  0  0  0  0  0  0
   46.2323   10.5461   20.4316 C   0  0  0  0  0  0  0  0  0  0  0  0
   46.4475   11.6737   19.6498 C   0  0  0  0  0  0  0  0  0  0  0  0
   47.7101   12.8163   17.8306 C   0  0  0  0  0  0  0  0  0  0  0  0
   48.8909   12.7539   16.8594 C   0  0  0  0  0  0  0  0  0  0  0  0
   50.2364   12.7912   17.6039 C   0  0  0  0  0  0  0  0  0  0  0  0
   51.1582   13.9173   17.1307 C   0  0  0  0  0  0  0  0  0  0  0  0
   50.4367   15.1826   17.1821 N   0  0  0  0  0  0  0  0  0  0  0  0
   49.2568   15.2236   16.3075 C   0  0  0  0  0  0  0  0  0  0  0  0
   48.8019   13.8533   15.7941 C   0  0  0  0  0  0  0  0  0  0  0  0
   46.9322   13.7694   17.8795 O   0  0  0  0  0  0  0  0  0  0  0  0
   51.3148   16.3243   16.9571 C   0  0  0  0  0  0  0  0  0  0  0  0
   48.1107    4.3000   18.5116 C   0  0  0  0  0  0  0  0  0  0  0  0
   47.6737    3.0378   18.4334 F   0  0  0  0  0  0  0  0  0  0  0  0
   47.9256    5.1579   17.4392 C   0  0  0  0  0  0  0  0  0  0  0  0
   48.3830    6.4733   17.5264 C   0  0  0  0  0  0  0  0  0  0  0  0
   48.1913    7.2564   16.4564 F   0  0  0  0  0  0  0  0  0  0  0  0
   49.0254    6.9487   18.6780 C   0  0  0  0  0  0  0  0  0  0  0  0
   49.1465    9.1377   17.8554 O   0  0  0  0  0  0  0  0  0  0  0  0
   49.4959    8.3667   18.7412 C   0  0  0  0  0  0  0  0  0  0  0  0
   50.2934    8.6989   19.8230 N   0  0  0  0  0  0  0  0  0  0  0  0
   49.1998    6.0499   19.7366 C   0  0  0  0  0  0  0  0  0  0  0  0
   49.8190    6.4292   20.8658 F   0  0  0  0  0  0  0  0  0  0  0  0
   48.7497    4.7325   19.6629 C   0  0  0  0  0  0  0  0  0  0  0  0
   50.7485   10.9394   19.1422 N   0  0  0  0  0  0  0  0  0  0  0  0
   51.3451   12.1267   19.3944 C   0  0  0  0  0  0  0  0  0  0  0  0
   50.8789    9.9546   20.0450 C   0  0  0  0  0  0  0  0  0  0  0  0
   51.6051   10.1250   21.2214 C   0  0  0  0  0  0  0  0  0  0  0  0
   52.2070   11.3558   21.4757 C   0  0  0  0  0  0  0  0  0  0  0  0
   52.0783   12.3787   20.5451 C   0  0  0  0  0  0  0  0  0  0  0  0
   51.1820   13.1933   18.3622 C   0  0  0  0  0  0  0  0  0  0  0  0
   50.3898   12.8500   17.1007 C   0  0  0  0  0  0  0  0  0  0  0  0
   50.8181   13.7292   15.9151 C   0  0  0  0  0  0  0  0  0  0  0  0
   49.6872   13.8438   14.8972 C   0  0  0  0  0  0  0  0  0  0  0  0
   48.5105   14.5261   15.4525 N   0  0  0  0  0  0  0  0  0  0  0  0
   48.3171   14.2934   16.8901 C   0  0  0  0  0  0  0  0  0  0  0  0
   48.8798   12.9562   17.3733 C   0  0  0  0  0  0  0  0  0  0  0  0
   51.6720   14.3034   18.5680 O   0  0  0  0  0  0  0  0  0  0  0  0
   47.3113   14.2061   14.6824 C   0  0  0  0  0  0  0  0  0  0  0  0
   50.4501    8.1035   19.0323 O   0  0  0  0  0  0  0  0  0  0  0  0
   49.9371    8.8166   18.0120 C   0  0  0  0  0  0  0  0  0  0  0  0
   49.6699    8.2787   16.9522 O   0  0  0  0  0  0  0  0  0  0  0  0
   49.7616   10.2638   18.3671 C   0  0  0  0  0  0  0  0  0  0  0  0
   49.1840   11.0449   17.1945 C   0  0  0  0  0  0  0  0  0  0  0  0
   49.0066   12.4906   17.5497 C   0  0  0  0  0  0  0  0  0  0  0  0
   49.2727   13.0300   18.6100 O   0  0  0  0  0  0  0  0  0  0  0  0
   48.4859   13.2002   16.5314 O   0  0  0  0  0  0  0  0  0  0  0  0
   53.1473    6.0798   17.9405 H   0  0  0  0  0  0  0  0  0  0  0  0
   49.5968    8.6537   18.3142 H   0  0  0  0  0  0  0  0  0  0  0  0
   50.2097    2.9421   18.0425 H   0  0  0  0  0  0  0  0  0  0  0  0
   46.8651    8.5516   20.8665 H   0  0  0  0  0  0  0  0  0  0  0  0
   45.4386   10.5322   21.1739 H   0  0  0  0  0  0  0  0  0  0  0  0
   45.8260   12.5559   19.7651 H   0  0  0  0  0  0  0  0  0  0  0  0
   48.7994   11.8002   16.3222 H   0  0  0  0  0  0  0  0  0  0  0  0
   50.0822   12.8957   18.6854 H   0  0  0  0  0  0  0  0  0  0  0  0
   50.7520   11.8333   17.4616 H   0  0  0  0  0  0  0  0  0  0  0  0
   52.0269   13.9465   17.8009 H   0  0  0  0  0  0  0  0  0  0  0  0
   51.5410   13.7124   16.1226 H   0  0  0  0  0  0  0  0  0  0  0  0
   48.4411   15.6949   16.8681 H   0  0  0  0  0  0  0  0  0  0  0  0
   49.4312   15.8578   15.4274 H   0  0  0  0  0  0  0  0  0  0  0  0
   47.7839   13.9314   15.3891 H   0  0  0  0  0  0  0  0  0  0  0  0
   49.4453   13.5688   14.9491 H   0  0  0  0  0  0  0  0  0  0  0  0
   50.7666   17.2645   17.0797 H   0  0  0  0  0  0  0  0  0  0  0  0
   52.1265   16.3361   17.6944 H   0  0  0  0  0  0  0  0  0  0  0  0
   51.7578   16.3083   15.9559 H   0  0  0  0  0  0  0  0  0  0  0  0
   47.4313    4.8141   16.5366 H   0  0  0  0  0  0  0  0  0  0  0  0
   50.4660    7.9979   20.5316 H   0  0  0  0  0  0  0  0  0  0  0  0
   48.8940    4.0533   20.4959 H   0  0  0  0  0  0  0  0  0  0  0  0
   51.7082    9.3225   21.9448 H   0  0  0  0  0  0  0  0  0  0  0  0
   52.7717   11.5168   22.3895 H   0  0  0  0  0  0  0  0  0  0  0  0
   52.5370   13.3480   20.7104 H   0  0  0  0  0  0  0  0  0  0  0  0
   50.6235   11.8121   16.8307 H   0  0  0  0  0  0  0  0  0  0  0  0
   51.7043   13.2903   15.4415 H   0  0  0  0  0  0  0  0  0  0  0  0
   51.1139   14.7361   16.2356 H   0  0  0  0  0  0  0  0  0  0  0  0
   50.0413   14.4044   14.0238 H   0  0  0  0  0  0  0  0  0  0  0  0
   49.4350   12.8332   14.5485 H   0  0  0  0  0  0  0  0  0  0  0  0
   47.2593   14.3743   17.1693 H   0  0  0  0  0  0  0  0  0  0  0  0
   48.8221   15.1046   17.4309 H   0  0  0  0  0  0  0  0  0  0  0  0
   48.3633   12.1408   16.8508 H   0  0  0  0  0  0  0  0  0  0  0  0
   48.6521   12.8315   18.4383 H   0  0  0  0  0  0  0  0  0  0  0  0
   47.0278   13.1512   14.7744 H   0  0  0  0  0  0  0  0  0  0  0  0
   46.4677   14.8233   15.0128 H   0  0  0  0  0  0  0  0  0  0  0  0
   47.4650   14.4272   13.6192 H   0  0  0  0  0  0  0  0  0  0  0  0
   50.5153    7.1894   18.6840 H   0  0  0  0  0  0  0  0  0  0  0  0
   49.0901   10.3301   19.2312 H   0  0  0  0  0  0  0  0  0  0  0  0
   50.7391   10.6725   18.6491 H   0  0  0  0  0  0  0  0  0  0  0  0
   48.2072   10.6335   16.9150 H   0  0  0  0  0  0  0  0  0  0  0  0
   49.8528   10.9784   16.3286 H   0  0  0  0  0  0  0  0  0  0  0  0
   48.4167   14.1125   16.8832 H   0  0  0  0  0  0  0  0  0  0  0  0
  1  2  1  0
  1 12  2  0
  3  1  1  0
  3  4  2  0
  4  6  1  0
  5  4  1  0
  7  8  2  0
  8  9  1  0
  8  6  1  0
  9 15  1  0
 10 11  1  0
 10  6  2  0
 12 10  1  0
 13 14  2  0
 14 18  1  0
 15 13  1  0
 15 16  2  0
 16 17  1  0
 18 17  2  0
 19 14  1  0
 19 20  1  0
 20 21  1  0
 21 22  1  0
 22 23  1  0
 23 24  1  0
 23 27  1  0
 24 25  1  0
 25 20  1  0
 26 19  2  0
 28 29  1  0
 28 39  2  0
 30 28  1  0
 30 31  2  0
 31 33  1  0
 32 31  1  0
 34 35  2  0
 35 36  1  0
 35 33  1  0
 36 42  1  0
 37 38  1  0
 37 33  2  0
 39 37  1  0
 40 41  2  0
 41 45  1  0
 42 40  1  0
 42 43  2  0
 43 44  1  0
 45 44  2  0
 46 41  1  0
 46 47  1  0
 47 48  1  0
 48 49  1  0
 49 50  1  0
 50 51  1  0
 50 54  1  0
 51 52  1  0
 52 47  1  0
 53 46  2  0
 55 56  1  0
 56 57  2  0
 56 58  1  0
 58 59  1  0
 59 60  1  0
 60 61  2  0
 60 62  1  0
  3 63  1  0
  9 64  1  0
 12 65  1  0
 16 66  1  0
 17 67  1  0
 18 68  1  0
 20 69  1  0
 21 70  1  0
 21 71  1  0
 22 72  1  0
 22 73  1  0
 24 74  1  0
 24 75  1  0
 25 76  1  0
 25 77  1  0
 27 78  1  0
 27 79  1  0
 27 80  1  0
 30 81  1  0
 36 82  1  0
 39 83  1  0
 43 84  1  0
 44 85  1  0
 45 86  1  0
 47 87  1  0
 48 88  1  0
 48 89  1  0
 49 90  1  0
 49 91  1  0
 51 92  1  0
 51 93  1  0
 52 94  1  0
 52 95  1  0
 54 96  1  0
 54 97  1  0
 54 98  1  0
 55 99  1  0
 58100  1  0
 58101  1  0
 59102  1  0
 59103  1  0
 62104  1  0
M  END
> <Uni-Dock RESULT> 
ENERGY=   -4.758  LOWER_BOUND=    3.147  UPPER_BOUND=    8.082
INTER + INTRA:          -4.758
INTER:                  -4.758
INTRA:                   0.000
UNBOUND:                 0.000

$$$$
