
     RDKit          3D

104107  0  0  0  0  0  0  0  0999 V2000
   47.0289   12.7766   20.1036 C   0  0  0  0  0  0  0  0  0  0  0  0
   46.7057   13.7615   20.9487 F   0  0  0  0  0  0  0  0  0  0  0  0
   46.7948   11.4598   20.4642 C   0  0  0  0  0  0  0  0  0  0  0  0
   47.1275   10.4390   19.5768 C   0  0  0  0  0  0  0  0  0  0  0  0
   46.8763    9.1826   19.9730 F   0  0  0  0  0  0  0  0  0  0  0  0
   47.7011   10.7136   18.3276 C   0  0  0  0  0  0  0  0  0  0  0  0
   47.9527    8.4349   17.8102 O   0  0  0  0  0  0  0  0  0  0  0  0
   48.0530    9.5888   17.4086 C   0  0  0  0  0  0  0  0  0  0  0  0
   48.4735    9.9398   16.1451 N   0  0  0  0  0  0  0  0  0  0  0  0
   47.9252   12.0554   17.9989 C   0  0  0  0  0  0  0  0  0  0  0  0
   48.4684   12.3982   16.8201 F   0  0  0  0  0  0  0  0  0  0  0  0
   47.5908   13.0871   18.8750 C   0  0  0  0  0  0  0  0  0  0  0  0
   49.2004    9.7887   13.9796 N   0  0  0  0  0  0  0  0  0  0  0  0
   49.5723    9.0705   12.8894 C   0  0  0  0  0  0  0  0  0  0  0  0
   48.8458    9.1051   15.0880 C   0  0  0  0  0  0  0  0  0  0  0  0
   48.8504    7.7182   15.1407 C   0  0  0  0  0  0  0  0  0  0  0  0
   49.2385    6.9993   14.0106 C   0  0  0  0  0  0  0  0  0  0  0  0
   49.6019    7.6851   12.8585 C   0  0  0  0  0  0  0  0  0  0  0  0
   49.9560    9.8459   11.6676 C   0  0  0  0  0  0  0  0  0  0  0  0
   49.9158   11.3722   11.7515 C   0  0  0  0  0  0  0  0  0  0  0  0
   49.7141   12.0077   10.3633 C   0  0  0  0  0  0  0  0  0  0  0  0
   51.0467   12.4402    9.7506 C   0  0  0  0  0  0  0  0  0  0  0  0
   51.7607   13.4348   10.5655 N   0  0  0  0  0  0  0  0  0  0  0  0
   51.5071   13.3131   12.0077 C   0  0  0  0  0  0  0  0  0  0  0  0
   51.1968   11.8796   12.4303 C   0  0  0  0  0  0  0  0  0  0  0  0
   50.3032    9.2500   10.6475 O   0  0  0  0  0  0  0  0  0  0  0  0
   51.4958   14.8033   10.1081 C   0  0  0  0  0  0  0  0  0  0  0  0
   47.8828    6.7313   19.1534 C   0  0  0  0  0  0  0  0  0  0  0  0
   47.8292    5.4677   19.5886 F   0  0  0  0  0  0  0  0  0  0  0  0
   48.3598    6.9965   17.8801 C   0  0  0  0  0  0  0  0  0  0  0  0
   48.4135    8.3165   17.4366 C   0  0  0  0  0  0  0  0  0  0  0  0
   48.8733    8.5327   16.1945 F   0  0  0  0  0  0  0  0  0  0  0  0
   48.0014    9.3819   18.2448 C   0  0  0  0  0  0  0  0  0  0  0  0
   47.5041   11.6647   18.4613 O   0  0  0  0  0  0  0  0  0  0  0  0
   48.0541   10.8023   17.7896 C   0  0  0  0  0  0  0  0  0  0  0  0
   48.7457   11.0439   16.6225 N   0  0  0  0  0  0  0  0  0  0  0  0
   47.5333    9.0759   19.5289 C   0  0  0  0  0  0  0  0  0  0  0  0
   47.1384   10.0354   20.3767 F   0  0  0  0  0  0  0  0  0  0  0  0
   47.4715    7.7598   19.9858 C   0  0  0  0  0  0  0  0  0  0  0  0
   49.6796   12.1432   14.8440 N   0  0  0  0  0  0  0  0  0  0  0  0
   49.9917   13.2819   14.1718 C   0  0  0  0  0  0  0  0  0  0  0  0
   48.9936   12.2688   15.9985 C   0  0  0  0  0  0  0  0  0  0  0  0
   48.5910   13.5010   16.4967 C   0  0  0  0  0  0  0  0  0  0  0  0
   48.9196   14.6565   15.7888 C   0  0  0  0  0  0  0  0  0  0  0  0
   49.6444   14.5515   14.6089 C   0  0  0  0  0  0  0  0  0  0  0  0
   50.7592   13.1297   12.8969 C   0  0  0  0  0  0  0  0  0  0  0  0
   50.8979   11.7174   12.3111 C   0  0  0  0  0  0  0  0  0  0  0  0
   49.5597   11.2178   11.7573 C   0  0  0  0  0  0  0  0  0  0  0  0
   49.1458   11.9615   10.4794 C   0  0  0  0  0  0  0  0  0  0  0  0
   50.2746   12.3481    9.6267 N   0  0  0  0  0  0  0  0  0  0  0  0
   51.4359   11.4814    9.8073 C   0  0  0  0  0  0  0  0  0  0  0  0
   51.9922   11.6317   11.2279 C   0  0  0  0  0  0  0  0  0  0  0  0
   51.2552   14.1316   12.3829 O   0  0  0  0  0  0  0  0  0  0  0  0
   49.8797   12.4489    8.2279 C   0  0  0  0  0  0  0  0  0  0  0  0
   49.9229    9.2227   15.9265 O   0  0  0  0  0  0  0  0  0  0  0  0
   49.9925   10.3778   15.2423 C   0  0  0  0  0  0  0  0  0  0  0  0
   51.0468   10.9789   15.1381 O   0  0  0  0  0  0  0  0  0  0  0  0
   48.6565   10.7656   14.6717 C   0  0  0  0  0  0  0  0  0  0  0  0
   48.6877   12.1650   14.0735 C   0  0  0  0  0  0  0  0  0  0  0  0
   49.5595   12.2857   12.8551 C   0  0  0  0  0  0  0  0  0  0  0  0
   50.1608   13.2884   12.5118 O   0  0  0  0  0  0  0  0  0  0  0  0
   49.5574   11.1942   12.0653 O   0  0  0  0  0  0  0  0  0  0  0  0
   46.3505   11.2216   21.4249 H   0  0  0  0  0  0  0  0  0  0  0  0
   48.5430   10.9184   15.8879 H   0  0  0  0  0  0  0  0  0  0  0  0
   47.7730   14.1214   18.6042 H   0  0  0  0  0  0  0  0  0  0  0  0
   48.5676    7.1697   16.0323 H   0  0  0  0  0  0  0  0  0  0  0  0
   49.2486    5.9115   14.0294 H   0  0  0  0  0  0  0  0  0  0  0  0
   49.9006    7.1510   11.9627 H   0  0  0  0  0  0  0  0  0  0  0  0
   49.0381   11.6564   12.3456 H   0  0  0  0  0  0  0  0  0  0  0  0
   49.0629   12.8843   10.4647 H   0  0  0  0  0  0  0  0  0  0  0  0
   49.1927   11.3263    9.6802 H   0  0  0  0  0  0  0  0  0  0  0  0
   51.6951   11.5604    9.6452 H   0  0  0  0  0  0  0  0  0  0  0  0
   50.8875   12.8075    8.7298 H   0  0  0  0  0  0  0  0  0  0  0  0
   50.6617   13.9472   12.3150 H   0  0  0  0  0  0  0  0  0  0  0  0
   52.3898   13.6683   12.5529 H   0  0  0  0  0  0  0  0  0  0  0  0
   52.0512   11.2324   12.1900 H   0  0  0  0  0  0  0  0  0  0  0  0
   51.0824   11.8391   13.5208 H   0  0  0  0  0  0  0  0  0  0  0  0
   50.4311   15.0646   10.1907 H   0  0  0  0  0  0  0  0  0  0  0  0
   52.0781   15.5254   10.6939 H   0  0  0  0  0  0  0  0  0  0  0  0
   51.8066   14.9320    9.0623 H   0  0  0  0  0  0  0  0  0  0  0  0
   48.6893    6.1856   17.2389 H   0  0  0  0  0  0  0  0  0  0  0  0
   49.1400   10.2734   16.0976 H   0  0  0  0  0  0  0  0  0  0  0  0
   47.1069    7.5479   20.9853 H   0  0  0  0  0  0  0  0  0  0  0  0
   48.0431   13.5995   17.4253 H   0  0  0  0  0  0  0  0  0  0  0  0
   48.6163   15.6316   16.1631 H   0  0  0  0  0  0  0  0  0  0  0  0
   49.9208   15.4367   14.0446 H   0  0  0  0  0  0  0  0  0  0  0  0
   51.2205   11.0709   13.1363 H   0  0  0  0  0  0  0  0  0  0  0  0
   49.6553   10.1471   11.5294 H   0  0  0  0  0  0  0  0  0  0  0  0
   48.7527   11.3020   12.4945 H   0  0  0  0  0  0  0  0  0  0  0  0
   48.6018   12.8718   10.7575 H   0  0  0  0  0  0  0  0  0  0  0  0
   48.4321   11.3223    9.9413 H   0  0  0  0  0  0  0  0  0  0  0  0
   51.1800   10.4319    9.6067 H   0  0  0  0  0  0  0  0  0  0  0  0
   52.2365   11.7488    9.1055 H   0  0  0  0  0  0  0  0  0  0  0  0
   52.6194   10.7543   11.4327 H   0  0  0  0  0  0  0  0  0  0  0  0
   52.6633   12.4960   11.2689 H   0  0  0  0  0  0  0  0  0  0  0  0
   49.0630   13.1691    8.1159 H   0  0  0  0  0  0  0  0  0  0  0  0
   50.7144   12.8191    7.6193 H   0  0  0  0  0  0  0  0  0  0  0  0
   49.5546   11.4847    7.8215 H   0  0  0  0  0  0  0  0  0  0  0  0
   50.8388    9.0627   16.2309 H   0  0  0  0  0  0  0  0  0  0  0  0
   47.9240   10.7605   15.4867 H   0  0  0  0  0  0  0  0  0  0  0  0
   48.3599   10.0161   13.9297 H   0  0  0  0  0  0  0  0  0  0  0  0
   47.6746   12.4622   13.7783 H   0  0  0  0  0  0  0  0  0  0  0  0
   49.0493   12.8835   14.8211 H   0  0  0  0  0  0  0  0  0  0  0  0
   50.1367   11.4505   11.3191 H   0  0  0  0  0  0  0  0  0  0  0  0
  1  2  1  0
  1 12  2  0
  3  1  1  0
  3  4  2  0
  4  6  1  0
  5  4  1  0
  7  8  2  0
  8  9  1  0
  8  6  1  0
  9 15  1  0
 10 11  1  0
 10  6  2  0
 12 10  1  0
 13 14  2  0
 14 18  1  0
 15 13  1  0
 15 16  2  0
 16 17  1  0
 18 17  2  0
 19 14  1  0
 19 20  1  0
 20 21  1  0
 21 22  1  0
 22 23  1  0
 23 24  1  0
 23 27  1  0
 24 25  1  0
 25 20  1  0
 26 19  2  0
 28 29  1  0
 28 39  2  0
 30 28  1  0
 30 31  2  0
 31 33  1  0
 32 31  1  0
 34 35  2  0
 35 36  1  0
 35 33  1  0
 36 42  1  0
 37 38  1  0
 37 33  2  0
 39 37  1  0
 40 41  2  0
 41 45  1  0
 42 40  1  0
 42 43  2  0
 43 44  1  0
 45 44  2  0
 46 41  1  0
 46 47  1  0
 47 48  1  0
 48 49  1  0
 49 50  1  0
 50 51  1  0
 50 54  1  0
 51 52  1  0
 52 47  1  0
 53 46  2  0
 55 56  1  0
 56 57  2  0
 56 58  1  0
 58 59  1  0
 59 60  1  0
 60 61  2  0
 60 62  1  0
  3 63  1  0
  9 64  1  0
 12 65  1  0
 16 66  1  0
 17 67  1  0
 18 68  1  0
 20 69  1  0
 21 70  1  0
 21 71  1  0
 22 72  1  0
 22 73  1  0
 24 74  1  0
 24 75  1  0
 25 76  1  0
 25 77  1  0
 27 78  1  0
 27 79  1  0
 27 80  1  0
 30 81  1  0
 36 82  1  0
 39 83  1  0
 43 84  1  0
 44 85  1  0
 45 86  1  0
 47 87  1  0
 48 88  1  0
 48 89  1  0
 49 90  1  0
 49 91  1  0
 51 92  1  0
 51 93  1  0
 52 94  1  0
 52 95  1  0
 54 96  1  0
 54 97  1  0
 54 98  1  0
 55 99  1  0
 58100  1  0
 58101  1  0
 59102  1  0
 59103  1  0
 62104  1  0
M  END
> <Uni-Dock RESULT> 
ENERGY=   -5.836  LOWER_BOUND=    0.000  UPPER_BOUND=    0.000
INTER + INTRA:          -5.836
INTER:                  -5.836
INTRA:                   0.000
UNBOUND:                 0.000

$$$$

     RDKit          3D

104107  0  0  0  0  0  0  0  0999 V2000
   48.8570    7.7158   13.6250 C   0  0  0  0  0  0  0  0  0  0  0  0
   50.0678    7.4156   14.1071 F   0  0  0  0  0  0  0  0  0  0  0  0
   47.8665    6.7476   13.6088 C   0  0  0  0  0  0  0  0  0  0  0  0
   46.6056    7.0685   13.1116 C   0  0  0  0  0  0  0  0  0  0  0  0
   45.6818    6.0963   13.1227 F   0  0  0  0  0  0  0  0  0  0  0  0
   46.3171    8.3491   12.6202 C   0  0  0  0  0  0  0  0  0  0  0  0
   44.1438    7.7377   11.9669 O   0  0  0  0  0  0  0  0  0  0  0  0
   44.9542    8.6499   12.0858 C   0  0  0  0  0  0  0  0  0  0  0  0
   44.7014    9.9636   11.7590 N   0  0  0  0  0  0  0  0  0  0  0  0
   47.3431    9.3005   12.6502 C   0  0  0  0  0  0  0  0  0  0  0  0
   47.1431   10.5492   12.1998 F   0  0  0  0  0  0  0  0  0  0  0  0
   48.6077    8.9945   13.1513 C   0  0  0  0  0  0  0  0  0  0  0  0
   43.6223   11.8561   11.0556 N   0  0  0  0  0  0  0  0  0  0  0  0
   42.5281   12.5026   10.5787 C   0  0  0  0  0  0  0  0  0  0  0  0
   43.5233   10.5256   11.2599 C   0  0  0  0  0  0  0  0  0  0  0  0
   42.3580    9.8174   11.0017 C   0  0  0  0  0  0  0  0  0  0  0  0
   41.2462   10.5001   10.5094 C   0  0  0  0  0  0  0  0  0  0  0  0
   41.3269   11.8706   10.2978 C   0  0  0  0  0  0  0  0  0  0  0  0
   42.6548   13.9788   10.3646 C   0  0  0  0  0  0  0  0  0  0  0  0
   44.0014   14.6308   10.6808 C   0  0  0  0  0  0  0  0  0  0  0  0
   43.8386   16.1243   11.0197 C   0  0  0  0  0  0  0  0  0  0  0  0
   44.1110   17.0045    9.7994 C   0  0  0  0  0  0  0  0  0  0  0  0
   45.4714   16.8436    9.2641 N   0  0  0  0  0  0  0  0  0  0  0  0
   46.0337   15.5011    9.4654 C   0  0  0  0  0  0  0  0  0  0  0  0
   44.9618   14.4151    9.5017 C   0  0  0  0  0  0  0  0  0  0  0  0
   41.6963   14.6201    9.9330 O   0  0  0  0  0  0  0  0  0  0  0  0
   46.3841   17.8689    9.7819 C   0  0  0  0  0  0  0  0  0  0  0  0
   43.3260    5.7449   11.7013 C   0  0  0  0  0  0  0  0  0  0  0  0
   42.4448    4.7558   11.5160 F   0  0  0  0  0  0  0  0  0  0  0  0
   43.0032    7.0320   11.3034 C   0  0  0  0  0  0  0  0  0  0  0  0
   43.9288    8.0552   11.4991 C   0  0  0  0  0  0  0  0  0  0  0  0
   43.5765    9.2898   11.1086 F   0  0  0  0  0  0  0  0  0  0  0  0
   45.1774    7.8164   12.0838 C   0  0  0  0  0  0  0  0  0  0  0  0
   47.1701    8.6665   12.9847 O   0  0  0  0  0  0  0  0  0  0  0  0
   46.1834    8.8976   12.2989 C   0  0  0  0  0  0  0  0  0  0  0  0
   45.9244   10.1032   11.6840 N   0  0  0  0  0  0  0  0  0  0  0  0
   45.4718    6.5013   12.4652 C   0  0  0  0  0  0  0  0  0  0  0  0
   46.6514    6.1791   13.0131 F   0  0  0  0  0  0  0  0  0  0  0  0
   44.5549    5.4674   12.2780 C   0  0  0  0  0  0  0  0  0  0  0  0
   46.1401   12.2773   10.9980 N   0  0  0  0  0  0  0  0  0  0  0  0
   46.8370   13.4404   10.9106 C   0  0  0  0  0  0  0  0  0  0  0  0
   46.7093   11.2588   11.6746 C   0  0  0  0  0  0  0  0  0  0  0  0
   47.9511   11.3711   12.2860 C   0  0  0  0  0  0  0  0  0  0  0  0
   48.6475   12.5750   12.1861 C   0  0  0  0  0  0  0  0  0  0  0  0
   48.0894   13.6296   11.4756 C   0  0  0  0  0  0  0  0  0  0  0  0
   46.1983   14.5598   10.1512 C   0  0  0  0  0  0  0  0  0  0  0  0
   44.7192   14.4104    9.7681 C   0  0  0  0  0  0  0  0  0  0  0  0
   43.8180   14.5148   11.0026 C   0  0  0  0  0  0  0  0  0  0  0  0
   43.7702   15.9416   11.5679 C   0  0  0  0  0  0  0  0  0  0  0  0
   43.8553   16.9879   10.5439 N   0  0  0  0  0  0  0  0  0  0  0  0
   43.3734   16.5376    9.2410 C   0  0  0  0  0  0  0  0  0  0  0  0
   44.2806   15.4285    8.6961 C   0  0  0  0  0  0  0  0  0  0  0  0
   46.8827   15.5387    9.8553 O   0  0  0  0  0  0  0  0  0  0  0  0
   43.1987   18.2149   10.9755 C   0  0  0  0  0  0  0  0  0  0  0  0
   44.1962    9.9630   10.2074 O   0  0  0  0  0  0  0  0  0  0  0  0
   44.8648   11.1190   10.3616 C   0  0  0  0  0  0  0  0  0  0  0  0
   45.4889   11.6073    9.4365 O   0  0  0  0  0  0  0  0  0  0  0  0
   44.7183   11.6625   11.7559 C   0  0  0  0  0  0  0  0  0  0  0  0
   45.6331   12.8562   11.9909 C   0  0  0  0  0  0  0  0  0  0  0  0
   45.2723   14.0676   11.1777 C   0  0  0  0  0  0  0  0  0  0  0  0
   46.0565   14.9091   10.7753 O   0  0  0  0  0  0  0  0  0  0  0  0
   43.9479   14.2347   10.9950 O   0  0  0  0  0  0  0  0  0  0  0  0
   48.0647    5.7494   13.9850 H   0  0  0  0  0  0  0  0  0  0  0  0
   45.4271   10.6628   11.8735 H   0  0  0  0  0  0  0  0  0  0  0  0
   49.3915    9.7439   13.1654 H   0  0  0  0  0  0  0  0  0  0  0  0
   42.2799    8.7481   11.1638 H   0  0  0  0  0  0  0  0  0  0  0  0
   40.3221    9.9649   10.3010 H   0  0  0  0  0  0  0  0  0  0  0  0
   40.4750   12.4279    9.9229 H   0  0  0  0  0  0  0  0  0  0  0  0
   44.4041   14.1568   11.5847 H   0  0  0  0  0  0  0  0  0  0  0  0
   44.5436   16.3867   11.8178 H   0  0  0  0  0  0  0  0  0  0  0  0
   42.8408   16.3400   11.4203 H   0  0  0  0  0  0  0  0  0  0  0  0
   43.4009   16.7438    9.0035 H   0  0  0  0  0  0  0  0  0  0  0  0
   43.9038   18.0537   10.0411 H   0  0  0  0  0  0  0  0  0  0  0  0
   46.6017   15.4478   10.4064 H   0  0  0  0  0  0  0  0  0  0  0  0
   46.7382   15.2876    8.6525 H   0  0  0  0  0  0  0  0  0  0  0  0
   44.4166   14.4046    8.5481 H   0  0  0  0  0  0  0  0  0  0  0  0
   45.4429   13.4327    9.5872 H   0  0  0  0  0  0  0  0  0  0  0  0
   46.4888   17.8105   10.8748 H   0  0  0  0  0  0  0  0  0  0  0  0
   47.3784   17.7639    9.3306 H   0  0  0  0  0  0  0  0  0  0  0  0
   46.0301   18.8750    9.5186 H   0  0  0  0  0  0  0  0  0  0  0  0
   42.0424    7.2381   10.8432 H   0  0  0  0  0  0  0  0  0  0  0  0
   45.0650   10.2341   11.1653 H   0  0  0  0  0  0  0  0  0  0  0  0
   44.8065    4.4562   12.5799 H   0  0  0  0  0  0  0  0  0  0  0  0
   48.4073   10.5510   12.8259 H   0  0  0  0  0  0  0  0  0  0  0  0
   49.6228   12.6828   12.6552 H   0  0  0  0  0  0  0  0  0  0  0  0
   48.6158   14.5737   11.3753 H   0  0  0  0  0  0  0  0  0  0  0  0
   44.6156   13.4153    9.3184 H   0  0  0  0  0  0  0  0  0  0  0  0
   42.8009   14.2119   10.7176 H   0  0  0  0  0  0  0  0  0  0  0  0
   44.1294   13.8278   11.7981 H   0  0  0  0  0  0  0  0  0  0  0  0
   44.6066   16.0773   12.2635 H   0  0  0  0  0  0  0  0  0  0  0  0
   42.8506   16.0309   12.1627 H   0  0  0  0  0  0  0  0  0  0  0  0
   42.3350   16.1842    9.3050 H   0  0  0  0  0  0  0  0  0  0  0  0
   43.3804   17.3610    8.5152 H   0  0  0  0  0  0  0  0  0  0  0  0
   43.7210   14.8961    7.9160 H   0  0  0  0  0  0  0  0  0  0  0  0
   45.1442   15.8759    8.1930 H   0  0  0  0  0  0  0  0  0  0  0  0
   43.6401   18.5714   11.9116 H   0  0  0  0  0  0  0  0  0  0  0  0
   43.3449   19.0098   10.2333 H   0  0  0  0  0  0  0  0  0  0  0  0
   42.1227   18.0746   11.1268 H   0  0  0  0  0  0  0  0  0  0  0  0
   44.3452    9.7167    9.2723 H   0  0  0  0  0  0  0  0  0  0  0  0
   45.0022   10.8727   12.4605 H   0  0  0  0  0  0  0  0  0  0  0  0
   43.6669   11.9205   11.9243 H   0  0  0  0  0  0  0  0  0  0  0  0
   45.5919   13.1499   13.0463 H   0  0  0  0  0  0  0  0  0  0  0  0
   46.6703   12.5853   11.7530 H   0  0  0  0  0  0  0  0  0  0  0  0
   43.8905   15.0685   10.4856 H   0  0  0  0  0  0  0  0  0  0  0  0
  1  2  1  0
  1 12  2  0
  3  1  1  0
  3  4  2  0
  4  6  1  0
  5  4  1  0
  7  8  2  0
  8  9  1  0
  8  6  1  0
  9 15  1  0
 10 11  1  0
 10  6  2  0
 12 10  1  0
 13 14  2  0
 14 18  1  0
 15 13  1  0
 15 16  2  0
 16 17  1  0
 18 17  2  0
 19 14  1  0
 19 20  1  0
 20 21  1  0
 21 22  1  0
 22 23  1  0
 23 24  1  0
 23 27  1  0
 24 25  1  0
 25 20  1  0
 26 19  2  0
 28 29  1  0
 28 39  2  0
 30 28  1  0
 30 31  2  0
 31 33  1  0
 32 31  1  0
 34 35  2  0
 35 36  1  0
 35 33  1  0
 36 42  1  0
 37 38  1  0
 37 33  2  0
 39 37  1  0
 40 41  2  0
 41 45  1  0
 42 40  1  0
 42 43  2  0
 43 44  1  0
 45 44  2  0
 46 41  1  0
 46 47  1  0
 47 48  1  0
 48 49  1  0
 49 50  1  0
 50 51  1  0
 50 54  1  0
 51 52  1  0
 52 47  1  0
 53 46  2  0
 55 56  1  0
 56 57  2  0
 56 58  1  0
 58 59  1  0
 59 60  1  0
 60 61  2  0
 60 62  1  0
  3 63  1  0
  9 64  1  0
 12 65  1  0
 16 66  1  0
 17 67  1  0
 18 68  1  0
 20 69  1  0
 21 70  1  0
 21 71  1  0
 22 72  1  0
 22 73  1  0
 24 74  1  0
 24 75  1  0
 25 76  1  0
 25 77  1  0
 27 78  1  0
 27 79  1  0
 27 80  1  0
 30 81  1  0
 36 82  1  0
 39 83  1  0
 43 84  1  0
 44 85  1  0
 45 86  1  0
 47 87  1  0
 48 88  1  0
 48 89  1  0
 49 90  1  0
 49 91  1  0
 51 92  1  0
 51 93  1  0
 52 94  1  0
 52 95  1  0
 54 96  1  0
 54 97  1  0
 54 98  1  0
 55 99  1  0
 58100  1  0
 58101  1  0
 59102  1  0
 59103  1  0
 62104  1  0
M  END
> <Uni-Dock RESULT> 
ENERGY=   -5.497  LOWER_BOUND=    5.453  UPPER_BOUND=    7.210
INTER + INTRA:          -5.497
INTER:                  -5.497
INTRA:                   0.000
UNBOUND:                 0.000

$$$$

     RDKit          3D

104107  0  0  0  0  0  0  0  0999 V2000
   47.3977    7.1046   22.4315 C   0  0  0  0  0  0  0  0  0  0  0  0
   47.1831    7.0012   23.7475 F   0  0  0  0  0  0  0  0  0  0  0  0
   47.2905    5.9804   21.6293 C   0  0  0  0  0  0  0  0  0  0  0  0
   47.5086    6.0960   20.2585 C   0  0  0  0  0  0  0  0  0  0  0  0
   47.3880    4.9784   19.5270 F   0  0  0  0  0  0  0  0  0  0  0  0
   47.8413    7.3247   19.6717 C   0  0  0  0  0  0  0  0  0  0  0  0
   48.1017    6.3703   17.5398 O   0  0  0  0  0  0  0  0  0  0  0  0
   48.0775    7.4043   18.1981 C   0  0  0  0  0  0  0  0  0  0  0  0
   48.2537    8.6654   17.6739 N   0  0  0  0  0  0  0  0  0  0  0  0
   47.9432    8.4380   20.5137 C   0  0  0  0  0  0  0  0  0  0  0  0
   48.2552    9.6491   20.0259 F   0  0  0  0  0  0  0  0  0  0  0  0
   47.7208    8.3375   21.8865 C   0  0  0  0  0  0  0  0  0  0  0  0
   48.5961   10.3670   16.1812 N   0  0  0  0  0  0  0  0  0  0  0  0
   48.8035   10.8312   14.9225 C   0  0  0  0  0  0  0  0  0  0  0  0
   48.4726    9.0328   16.3436 C   0  0  0  0  0  0  0  0  0  0  0  0
   48.5494    8.1432   15.2810 C   0  0  0  0  0  0  0  0  0  0  0  0
   48.7658    8.6405   13.9963 C   0  0  0  0  0  0  0  0  0  0  0  0
   48.8901   10.0113   13.8083 C   0  0  0  0  0  0  0  0  0  0  0  0
   48.9315   12.3140   14.7613 C   0  0  0  0  0  0  0  0  0  0  0  0
   48.8372   13.1775   16.0198 C   0  0  0  0  0  0  0  0  0  0  0  0
   48.3667   14.6061   15.6890 C   0  0  0  0  0  0  0  0  0  0  0  0
   49.5503   15.5658   15.5602 C   0  0  0  0  0  0  0  0  0  0  0  0
   50.3500   15.6638   16.7906 N   0  0  0  0  0  0  0  0  0  0  0  0
   50.3589   14.4328   17.5927 C   0  0  0  0  0  0  0  0  0  0  0  0
   50.1929   13.1765   16.7417 C   0  0  0  0  0  0  0  0  0  0  0  0
   49.1213   12.7949   13.6438 O   0  0  0  0  0  0  0  0  0  0  0  0
   49.9473   16.8117   17.6106 C   0  0  0  0  0  0  0  0  0  0  0  0
   48.3457    4.2772   17.0200 C   0  0  0  0  0  0  0  0  0  0  0  0
   48.4267    3.1579   16.2923 F   0  0  0  0  0  0  0  0  0  0  0  0
   48.5797    5.5028   16.4181 C   0  0  0  0  0  0  0  0  0  0  0  0
   48.4948    6.6631   17.1852 C   0  0  0  0  0  0  0  0  0  0  0  0
   48.7196    7.8316   16.5649 F   0  0  0  0  0  0  0  0  0  0  0  0
   48.1827    6.6228   18.5487 C   0  0  0  0  0  0  0  0  0  0  0  0
   47.6278    7.7714   20.5180 O   0  0  0  0  0  0  0  0  0  0  0  0
   48.0902    7.8534   19.3880 C   0  0  0  0  0  0  0  0  0  0  0  0
   48.5549    9.0181   18.8167 N   0  0  0  0  0  0  0  0  0  0  0  0
   47.9613    5.3654   19.1244 C   0  0  0  0  0  0  0  0  0  0  0  0
   47.6778    5.2324   20.4272 F   0  0  0  0  0  0  0  0  0  0  0  0
   48.0403    4.1957   18.3691 C   0  0  0  0  0  0  0  0  0  0  0  0
   49.1117   11.2209   18.5318 N   0  0  0  0  0  0  0  0  0  0  0  0
   49.2492   12.4897   18.9977 C   0  0  0  0  0  0  0  0  0  0  0  0
   48.6337   10.2918   19.3847 C   0  0  0  0  0  0  0  0  0  0  0  0
   48.2690   10.5949   20.6900 C   0  0  0  0  0  0  0  0  0  0  0  0
   48.4157   11.9043   21.1462 C   0  0  0  0  0  0  0  0  0  0  0  0
   48.9264   12.8721   20.2912 C   0  0  0  0  0  0  0  0  0  0  0  0
   49.7875   13.5091   18.0444 C   0  0  0  0  0  0  0  0  0  0  0  0
   49.8855   13.1196   16.5626 C   0  0  0  0  0  0  0  0  0  0  0  0
   48.4951   13.0194   15.9272 C   0  0  0  0  0  0  0  0  0  0  0  0
   47.8303   14.3938   15.7644 C   0  0  0  0  0  0  0  0  0  0  0  0
   48.7734   15.4769   15.4677 N   0  0  0  0  0  0  0  0  0  0  0  0
   49.9866   14.9992   14.8102 C   0  0  0  0  0  0  0  0  0  0  0  0
   50.7758   14.0859   15.7552 C   0  0  0  0  0  0  0  0  0  0  0  0
   50.1398   14.6024   18.4857 O   0  0  0  0  0  0  0  0  0  0  0  0
   48.1354   16.5541   14.7224 C   0  0  0  0  0  0  0  0  0  0  0  0
   49.6734    8.6357   16.8701 O   0  0  0  0  0  0  0  0  0  0  0  0
   49.5695    9.8835   17.3591 C   0  0  0  0  0  0  0  0  0  0  0  0
   50.5608   10.5073   17.6937 O   0  0  0  0  0  0  0  0  0  0  0  0
   48.1380   10.3403   17.4135 C   0  0  0  0  0  0  0  0  0  0  0  0
   48.0002   11.6651   18.1505 C   0  0  0  0  0  0  0  0  0  0  0  0
   48.6387   12.8252   17.4396 C   0  0  0  0  0  0  0  0  0  0  0  0
   49.1243   13.8046   17.9779 O   0  0  0  0  0  0  0  0  0  0  0  0
   48.5478   12.7666   16.0966 O   0  0  0  0  0  0  0  0  0  0  0  0
   47.0327    5.0183   22.0596 H   0  0  0  0  0  0  0  0  0  0  0  0
   48.2325    9.4752   18.2842 H   0  0  0  0  0  0  0  0  0  0  0  0
   47.8056    9.2106   22.5242 H   0  0  0  0  0  0  0  0  0  0  0  0
   48.4524    7.0712   15.4125 H   0  0  0  0  0  0  0  0  0  0  0  0
   48.8284    7.9613   13.1487 H   0  0  0  0  0  0  0  0  0  0  0  0
   49.0512   10.4259   12.8189 H   0  0  0  0  0  0  0  0  0  0  0  0
   48.0652   12.7469   16.6699 H   0  0  0  0  0  0  0  0  0  0  0  0
   47.7042   14.9567   16.4896 H   0  0  0  0  0  0  0  0  0  0  0  0
   47.7653   14.6300   14.7722 H   0  0  0  0  0  0  0  0  0  0  0  0
   50.2095   15.2159   14.7548 H   0  0  0  0  0  0  0  0  0  0  0  0
   49.1981   16.5532   15.2389 H   0  0  0  0  0  0  0  0  0  0  0  0
   49.5525   14.4434   18.3415 H   0  0  0  0  0  0  0  0  0  0  0  0
   51.3064   14.3756   18.1418 H   0  0  0  0  0  0  0  0  0  0  0  0
   51.0206   13.1075   16.0228 H   0  0  0  0  0  0  0  0  0  0  0  0
   50.2733   12.2900   17.3833 H   0  0  0  0  0  0  0  0  0  0  0  0
   48.9026   16.7312   17.9440 H   0  0  0  0  0  0  0  0  0  0  0  0
   50.5897   16.8981   18.4956 H   0  0  0  0  0  0  0  0  0  0  0  0
   50.0638   17.7503   17.0517 H   0  0  0  0  0  0  0  0  0  0  0  0
   48.8283    5.5562   15.3632 H   0  0  0  0  0  0  0  0  0  0  0  0
   48.8857    9.0171   17.8600 H   0  0  0  0  0  0  0  0  0  0  0  0
   47.8666    3.2330   18.8379 H   0  0  0  0  0  0  0  0  0  0  0  0
   47.8883    9.8467   21.3737 H   0  0  0  0  0  0  0  0  0  0  0  0
   48.1386   12.1621   22.1659 H   0  0  0  0  0  0  0  0  0  0  0  0
   49.0592   13.8963   20.6255 H   0  0  0  0  0  0  0  0  0  0  0  0
   50.3767   12.1394   16.5326 H   0  0  0  0  0  0  0  0  0  0  0  0
   48.5978   12.5555   14.9364 H   0  0  0  0  0  0  0  0  0  0  0  0
   47.8267   12.3674   16.5016 H   0  0  0  0  0  0  0  0  0  0  0  0
   47.3026   14.6463   16.6916 H   0  0  0  0  0  0  0  0  0  0  0  0
   47.0631   14.2996   14.9833 H   0  0  0  0  0  0  0  0  0  0  0  0
   49.7475   14.4688   13.8781 H   0  0  0  0  0  0  0  0  0  0  0  0
   50.6389   15.8382   14.5352 H   0  0  0  0  0  0  0  0  0  0  0  0
   51.4684   13.4942   15.1425 H   0  0  0  0  0  0  0  0  0  0  0  0
   51.4037   14.6951   16.4137 H   0  0  0  0  0  0  0  0  0  0  0  0
   47.2799   16.9462   15.2814 H   0  0  0  0  0  0  0  0  0  0  0  0
   48.8328   17.3897   14.5830 H   0  0  0  0  0  0  0  0  0  0  0  0
   47.7883   16.2235   13.7372 H   0  0  0  0  0  0  0  0  0  0  0  0
   50.6349    8.4544   16.8634 H   0  0  0  0  0  0  0  0  0  0  0  0
   47.5607    9.5858   17.9595 H   0  0  0  0  0  0  0  0  0  0  0  0
   47.7503   10.4053   16.3909 H   0  0  0  0  0  0  0  0  0  0  0  0
   46.9386   11.9071   18.2782 H   0  0  0  0  0  0  0  0  0  0  0  0
   48.4542   11.5875   19.1475 H   0  0  0  0  0  0  0  0  0  0  0  0
   48.9751   13.5963   15.8018 H   0  0  0  0  0  0  0  0  0  0  0  0
  1  2  1  0
  1 12  2  0
  3  1  1  0
  3  4  2  0
  4  6  1  0
  5  4  1  0
  7  8  2  0
  8  9  1  0
  8  6  1  0
  9 15  1  0
 10 11  1  0
 10  6  2  0
 12 10  1  0
 13 14  2  0
 14 18  1  0
 15 13  1  0
 15 16  2  0
 16 17  1  0
 18 17  2  0
 19 14  1  0
 19 20  1  0
 20 21  1  0
 21 22  1  0
 22 23  1  0
 23 24  1  0
 23 27  1  0
 24 25  1  0
 25 20  1  0
 26 19  2  0
 28 29  1  0
 28 39  2  0
 30 28  1  0
 30 31  2  0
 31 33  1  0
 32 31  1  0
 34 35  2  0
 35 36  1  0
 35 33  1  0
 36 42  1  0
 37 38  1  0
 37 33  2  0
 39 37  1  0
 40 41  2  0
 41 45  1  0
 42 40  1  0
 42 43  2  0
 43 44  1  0
 45 44  2  0
 46 41  1  0
 46 47  1  0
 47 48  1  0
 48 49  1  0
 49 50  1  0
 50 51  1  0
 50 54  1  0
 51 52  1  0
 52 47  1  0
 53 46  2  0
 55 56  1  0
 56 57  2  0
 56 58  1  0
 58 59  1  0
 59 60  1  0
 60 61  2  0
 60 62  1  0
  3 63  1  0
  9 64  1  0
 12 65  1  0
 16 66  1  0
 17 67  1  0
 18 68  1  0
 20 69  1  0
 21 70  1  0
 21 71  1  0
 22 72  1  0
 22 73  1  0
 24 74  1  0
 24 75  1  0
 25 76  1  0
 25 77  1  0
 27 78  1  0
 27 79  1  0
 27 80  1  0
 30 81  1  0
 36 82  1  0
 39 83  1  0
 43 84  1  0
 44 85  1  0
 45 86  1  0
 47 87  1  0
 48 88  1  0
 48 89  1  0
 49 90  1  0
 49 91  1  0
 51 92  1  0
 51 93  1  0
 52 94  1  0
 52 95  1  0
 54 96  1  0
 54 97  1  0
 54 98  1  0
 55 99  1  0
 58100  1  0
 58101  1  0
 59102  1  0
 59103  1  0
 62104  1  0
M  END
> <Uni-Dock RESULT> 
ENERGY=   -5.491  LOWER_BOUND=    2.725  UPPER_BOUND=    4.599
INTER + INTRA:          -5.491
INTER:                  -5.491
INTRA:                   0.000
UNBOUND:                 0.000

$$$$

     RDKit          3D

104107  0  0  0  0  0  0  0  0999 V2000
   46.1433    4.8031   12.6033 C   0  0  0  0  0  0  0  0  0  0  0  0
   45.4005    4.4265   11.5568 F   0  0  0  0  0  0  0  0  0  0  0  0
   46.4297    3.8897   13.6045 C   0  0  0  0  0  0  0  0  0  0  0  0
   47.2094    4.2862   14.6884 C   0  0  0  0  0  0  0  0  0  0  0  0
   47.4607    3.3622   15.6274 F   0  0  0  0  0  0  0  0  0  0  0  0
   47.7062    5.5927   14.7932 C   0  0  0  0  0  0  0  0  0  0  0  0
   48.6559    5.1886   16.9046 O   0  0  0  0  0  0  0  0  0  0  0  0
   48.5306    5.9811   15.9777 C   0  0  0  0  0  0  0  0  0  0  0  0
   49.1051    7.2321   15.9397 N   0  0  0  0  0  0  0  0  0  0  0  0
   47.3943    6.4886   13.7641 C   0  0  0  0  0  0  0  0  0  0  0  0
   47.8357    7.7560   13.7918 F   0  0  0  0  0  0  0  0  0  0  0  0
   46.6206    6.1028   12.6703 C   0  0  0  0  0  0  0  0  0  0  0  0
   50.3225    9.0799   16.5261 N   0  0  0  0  0  0  0  0  0  0  0  0
   51.1339    9.7579   17.3775 C   0  0  0  0  0  0  0  0  0  0  0  0
   49.9283    7.8415   16.8903 C   0  0  0  0  0  0  0  0  0  0  0  0
   50.3226    7.2560   18.0852 C   0  0  0  0  0  0  0  0  0  0  0  0
   51.1540    7.9706   18.9471 C   0  0  0  0  0  0  0  0  0  0  0  0
   51.5748    9.2446   18.5872 C   0  0  0  0  0  0  0  0  0  0  0  0
   51.5659   11.1271   16.9536 C   0  0  0  0  0  0  0  0  0  0  0  0
   51.0478   11.6543   15.6149 C   0  0  0  0  0  0  0  0  0  0  0  0
   51.9951   12.7139   15.0219 C   0  0  0  0  0  0  0  0  0  0  0  0
   51.5200   14.1301   15.3489 C   0  0  0  0  0  0  0  0  0  0  0  0
   50.1797   14.4254   14.8203 N   0  0  0  0  0  0  0  0  0  0  0  0
   49.3016   13.2502   14.7380 C   0  0  0  0  0  0  0  0  0  0  0  0
   49.6242   12.2009   15.7986 C   0  0  0  0  0  0  0  0  0  0  0  0
   52.3015   11.7913   17.6842 O   0  0  0  0  0  0  0  0  0  0  0  0
   50.2452   15.1129   13.5260 C   0  0  0  0  0  0  0  0  0  0  0  0
   48.2393    3.5637   18.2820 C   0  0  0  0  0  0  0  0  0  0  0  0
   48.3466    2.7341   19.3257 F   0  0  0  0  0  0  0  0  0  0  0  0
   48.8144    4.8224   18.3469 C   0  0  0  0  0  0  0  0  0  0  0  0
   48.6956    5.6801   17.2550 C   0  0  0  0  0  0  0  0  0  0  0  0
   49.2731    6.8875   17.3522 F   0  0  0  0  0  0  0  0  0  0  0  0
   48.0077    5.3049   16.0957 C   0  0  0  0  0  0  0  0  0  0  0  0
   47.4254    5.7592   13.8686 O   0  0  0  0  0  0  0  0  0  0  0  0
   47.8665    6.2099   14.9173 C   0  0  0  0  0  0  0  0  0  0  0  0
   48.2428    7.5218   15.1069 N   0  0  0  0  0  0  0  0  0  0  0  0
   47.4321    4.0283   16.0700 C   0  0  0  0  0  0  0  0  0  0  0  0
   46.7380    3.5950   15.0090 F   0  0  0  0  0  0  0  0  0  0  0  0
   47.5447    3.1580   17.1539 C   0  0  0  0  0  0  0  0  0  0  0  0
   48.6577    9.7377   14.7051 N   0  0  0  0  0  0  0  0  0  0  0  0
   48.6114   10.8381   13.9096 C   0  0  0  0  0  0  0  0  0  0  0  0
   48.1719    8.5841   14.2026 C   0  0  0  0  0  0  0  0  0  0  0  0
   47.6553    8.4896   12.9170 C   0  0  0  0  0  0  0  0  0  0  0  0
   47.6203    9.6309   12.1168 C   0  0  0  0  0  0  0  0  0  0  0  0
   48.0954   10.8340   12.6223 C   0  0  0  0  0  0  0  0  0  0  0  0
   49.1461   12.1129   14.4812 C   0  0  0  0  0  0  0  0  0  0  0  0
   49.9412   12.0297   15.7919 C   0  0  0  0  0  0  0  0  0  0  0  0
   51.3038   11.3664   15.5675 C   0  0  0  0  0  0  0  0  0  0  0  0
   52.2617   12.2626   14.7694 C   0  0  0  0  0  0  0  0  0  0  0  0
   52.0997   13.6943   15.0425 N   0  0  0  0  0  0  0  0  0  0  0  0
   51.5479   13.9528   16.3696 C   0  0  0  0  0  0  0  0  0  0  0  0
   50.1188   13.4063   16.4638 C   0  0  0  0  0  0  0  0  0  0  0  0
   48.9164   13.1673   13.8901 O   0  0  0  0  0  0  0  0  0  0  0  0
   53.3379   14.4272   14.8128 C   0  0  0  0  0  0  0  0  0  0  0  0
   48.6304    7.9982   17.3000 O   0  0  0  0  0  0  0  0  0  0  0  0
   48.7320    8.9617   16.3681 C   0  0  0  0  0  0  0  0  0  0  0  0
   47.9931    9.9299   16.3882 O   0  0  0  0  0  0  0  0  0  0  0  0
   49.8267    8.6651   15.3810 C   0  0  0  0  0  0  0  0  0  0  0  0
   49.8108    9.6443   14.2156 C   0  0  0  0  0  0  0  0  0  0  0  0
   50.1559   11.0550   14.6027 C   0  0  0  0  0  0  0  0  0  0  0  0
   49.7371   12.0610   14.0573 O   0  0  0  0  0  0  0  0  0  0  0  0
   51.0848   11.1488   15.5741 O   0  0  0  0  0  0  0  0  0  0  0  0
   46.0580    2.8721   13.5455 H   0  0  0  0  0  0  0  0  0  0  0  0
   48.9463    7.8384   15.1423 H   0  0  0  0  0  0  0  0  0  0  0  0
   46.3874    6.8109   11.8826 H   0  0  0  0  0  0  0  0  0  0  0  0
   50.0036    6.2619   18.3783 H   0  0  0  0  0  0  0  0  0  0  0  0
   51.4762    7.5305   19.8884 H   0  0  0  0  0  0  0  0  0  0  0  0
   52.2278    9.8197   19.2350 H   0  0  0  0  0  0  0  0  0  0  0  0
   51.0408   10.8205   14.9016 H   0  0  0  0  0  0  0  0  0  0  0  0
   52.0317   12.5886   13.9330 H   0  0  0  0  0  0  0  0  0  0  0  0
   53.0248   12.5752   15.3729 H   0  0  0  0  0  0  0  0  0  0  0  0
   51.4890   14.2550   16.4394 H   0  0  0  0  0  0  0  0  0  0  0  0
   52.2544   14.8625   14.9935 H   0  0  0  0  0  0  0  0  0  0  0  0
   49.3776   12.7687   13.7513 H   0  0  0  0  0  0  0  0  0  0  0  0
   48.2616   13.5771   14.8566 H   0  0  0  0  0  0  0  0  0  0  0  0
   49.4974   12.6378   16.7985 H   0  0  0  0  0  0  0  0  0  0  0  0
   48.8981   11.3811   15.7311 H   0  0  0  0  0  0  0  0  0  0  0  0
   50.7353   14.4966   12.7586 H   0  0  0  0  0  0  0  0  0  0  0  0
   49.2385   15.3712   13.1748 H   0  0  0  0  0  0  0  0  0  0  0  0
   50.7938   16.0606   13.6151 H   0  0  0  0  0  0  0  0  0  0  0  0
   49.3478    5.1353   19.2384 H   0  0  0  0  0  0  0  0  0  0  0  0
   48.6389    7.8133   15.9916 H   0  0  0  0  0  0  0  0  0  0  0  0
   47.0886    2.1747   17.1111 H   0  0  0  0  0  0  0  0  0  0  0  0
   47.2632    7.5631   12.5170 H   0  0  0  0  0  0  0  0  0  0  0  0
   47.2171    9.5789   11.1080 H   0  0  0  0  0  0  0  0  0  0  0  0
   48.0702   11.7385   12.0226 H   0  0  0  0  0  0  0  0  0  0  0  0
   49.3420   11.4192   16.4784 H   0  0  0  0  0  0  0  0  0  0  0  0
   51.7523   11.1522   16.5475 H   0  0  0  0  0  0  0  0  0  0  0  0
   51.2119   10.4010   15.0564 H   0  0  0  0  0  0  0  0  0  0  0  0
   52.0932   12.0991   13.6985 H   0  0  0  0  0  0  0  0  0  0  0  0
   53.2853   11.9233   14.9807 H   0  0  0  0  0  0  0  0  0  0  0  0
   52.1786   13.5091   17.1524 H   0  0  0  0  0  0  0  0  0  0  0  0
   51.5070   15.0307   16.5732 H   0  0  0  0  0  0  0  0  0  0  0  0
   49.8702   13.3106   17.5288 H   0  0  0  0  0  0  0  0  0  0  0  0
   49.4176   14.1426   16.0573 H   0  0  0  0  0  0  0  0  0  0  0  0
   53.6799   14.2794   13.7836 H   0  0  0  0  0  0  0  0  0  0  0  0
   53.1754   15.5047   14.9412 H   0  0  0  0  0  0  0  0  0  0  0  0
   54.1351   14.1125   15.4954 H   0  0  0  0  0  0  0  0  0  0  0  0
   47.9107    8.3020   17.8891 H   0  0  0  0  0  0  0  0  0  0  0  0
   49.6609    7.6583   14.9814 H   0  0  0  0  0  0  0  0  0  0  0  0
   50.7879    8.6792   15.9068 H   0  0  0  0  0  0  0  0  0  0  0  0
   50.5383    9.3282   13.4588 H   0  0  0  0  0  0  0  0  0  0  0  0
   48.8167    9.6546   13.7493 H   0  0  0  0  0  0  0  0  0  0  0  0
   51.2118   12.1138   15.6770 H   0  0  0  0  0  0  0  0  0  0  0  0
  1  2  1  0
  1 12  2  0
  3  1  1  0
  3  4  2  0
  4  6  1  0
  5  4  1  0
  7  8  2  0
  8  9  1  0
  8  6  1  0
  9 15  1  0
 10 11  1  0
 10  6  2  0
 12 10  1  0
 13 14  2  0
 14 18  1  0
 15 13  1  0
 15 16  2  0
 16 17  1  0
 18 17  2  0
 19 14  1  0
 19 20  1  0
 20 21  1  0
 21 22  1  0
 22 23  1  0
 23 24  1  0
 23 27  1  0
 24 25  1  0
 25 20  1  0
 26 19  2  0
 28 29  1  0
 28 39  2  0
 30 28  1  0
 30 31  2  0
 31 33  1  0
 32 31  1  0
 34 35  2  0
 35 36  1  0
 35 33  1  0
 36 42  1  0
 37 38  1  0
 37 33  2  0
 39 37  1  0
 40 41  2  0
 41 45  1  0
 42 40  1  0
 42 43  2  0
 43 44  1  0
 45 44  2  0
 46 41  1  0
 46 47  1  0
 47 48  1  0
 48 49  1  0
 49 50  1  0
 50 51  1  0
 50 54  1  0
 51 52  1  0
 52 47  1  0
 53 46  2  0
 55 56  1  0
 56 57  2  0
 56 58  1  0
 58 59  1  0
 59 60  1  0
 60 61  2  0
 60 62  1  0
  3 63  1  0
  9 64  1  0
 12 65  1  0
 16 66  1  0
 17 67  1  0
 18 68  1  0
 20 69  1  0
 21 70  1  0
 21 71  1  0
 22 72  1  0
 22 73  1  0
 24 74  1  0
 24 75  1  0
 25 76  1  0
 25 77  1  0
 27 78  1  0
 27 79  1  0
 27 80  1  0
 30 81  1  0
 36 82  1  0
 39 83  1  0
 43 84  1  0
 44 85  1  0
 45 86  1  0
 47 87  1  0
 48 88  1  0
 48 89  1  0
 49 90  1  0
 49 91  1  0
 51 92  1  0
 51 93  1  0
 52 94  1  0
 52 95  1  0
 54 96  1  0
 54 97  1  0
 54 98  1  0
 55 99  1  0
 58100  1  0
 58101  1  0
 59102  1  0
 59103  1  0
 62104  1  0
M  END
> <Uni-Dock RESULT> 
ENERGY=   -5.328  LOWER_BOUND=    3.044  UPPER_BOUND=    5.452
INTER + INTRA:          -5.328
INTER:                  -5.328
INTRA:                   0.000
UNBOUND:                 0.000

$$$$

     RDKit          3D

104107  0  0  0  0  0  0  0  0999 V2000
   47.6984    3.5341   17.0871 C   0  0  0  0  0  0  0  0  0  0  0  0
   46.4013    3.3308   16.8325 F   0  0  0  0  0  0  0  0  0  0  0  0
   48.6033    2.5020   16.9008 C   0  0  0  0  0  0  0  0  0  0  0  0
   49.9537    2.7222   17.1612 C   0  0  0  0  0  0  0  0  0  0  0  0
   50.7879    1.6914   16.9604 F   0  0  0  0  0  0  0  0  0  0  0  0
   50.4183    3.9644   17.6148 C   0  0  0  0  0  0  0  0  0  0  0  0
   52.6254    3.1890   17.8417 O   0  0  0  0  0  0  0  0  0  0  0  0
   51.8742    4.1565   17.8926 C   0  0  0  0  0  0  0  0  0  0  0  0
   52.2759    5.4393   18.1917 N   0  0  0  0  0  0  0  0  0  0  0  0
   49.4749    4.9825   17.7939 C   0  0  0  0  0  0  0  0  0  0  0  0
   49.8429    6.2001   18.2230 F   0  0  0  0  0  0  0  0  0  0  0  0
   48.1212    4.7776   17.5305 C   0  0  0  0  0  0  0  0  0  0  0  0
   53.5982    7.2323   18.7184 N   0  0  0  0  0  0  0  0  0  0  0  0
   54.8048    7.7889   18.9962 C   0  0  0  0  0  0  0  0  0  0  0  0
   53.5627    5.9054   18.4741 C   0  0  0  0  0  0  0  0  0  0  0  0
   54.7020    5.1132   18.4980 C   0  0  0  0  0  0  0  0  0  0  0  0
   55.9313    5.7042   18.7882 C   0  0  0  0  0  0  0  0  0  0  0  0
   55.9889    7.0696   19.0372 C   0  0  0  0  0  0  0  0  0  0  0  0
   54.8253    9.2627   19.2580 C   0  0  0  0  0  0  0  0  0  0  0  0
   53.4936   10.0128   19.2098 C   0  0  0  0  0  0  0  0  0  0  0  0
   53.6974   11.5021   18.8750 C   0  0  0  0  0  0  0  0  0  0  0  0
   53.7176   12.3592   20.1411 C   0  0  0  0  0  0  0  0  0  0  0  0
   52.4708   12.2723   20.9165 N   0  0  0  0  0  0  0  0  0  0  0  0
   51.7867   10.9774   20.7976 C   0  0  0  0  0  0  0  0  0  0  0  0
   52.7534    9.8240   20.5423 C   0  0  0  0  0  0  0  0  0  0  0  0
   55.8901    9.8246   19.5164 O   0  0  0  0  0  0  0  0  0  0  0  0
   51.5541   13.3721   20.5966 C   0  0  0  0  0  0  0  0  0  0  0  0
   53.3337    1.1386   17.9130 C   0  0  0  0  0  0  0  0  0  0  0  0
   54.1610    0.0876   17.9126 F   0  0  0  0  0  0  0  0  0  0  0  0
   53.8152    2.3880   18.2684 C   0  0  0  0  0  0  0  0  0  0  0  0
   52.9449    3.4764   18.2673 C   0  0  0  0  0  0  0  0  0  0  0  0
   53.4501    4.6717   18.6090 F   0  0  0  0  0  0  0  0  0  0  0  0
   51.5962    3.3401   17.9201 C   0  0  0  0  0  0  0  0  0  0  0  0
   49.5377    4.3494   17.4211 O   0  0  0  0  0  0  0  0  0  0  0  0
   50.6476    4.4923   17.9161 C   0  0  0  0  0  0  0  0  0  0  0  0
   51.1006    5.6577   18.4951 N   0  0  0  0  0  0  0  0  0  0  0  0
   51.1436    2.0604   17.5751 C   0  0  0  0  0  0  0  0  0  0  0  0
   49.8634    1.8351   17.2496 F   0  0  0  0  0  0  0  0  0  0  0  0
   52.0031    0.9622   17.5691 C   0  0  0  0  0  0  0  0  0  0  0  0
   51.1705    7.8184   19.2503 N   0  0  0  0  0  0  0  0  0  0  0  0
   50.5864    9.0219   19.4876 C   0  0  0  0  0  0  0  0  0  0  0  0
   50.4154    6.8621   18.6719 C   0  0  0  0  0  0  0  0  0  0  0  0
   49.0935    7.0764   18.3039 C   0  0  0  0  0  0  0  0  0  0  0  0
   48.5152    8.3202   18.5542 C   0  0  0  0  0  0  0  0  0  0  0  0
   49.2683    9.3121   19.1687 C   0  0  0  0  0  0  0  0  0  0  0  0
   51.4320   10.0715   20.1365 C   0  0  0  0  0  0  0  0  0  0  0  0
   52.9419    9.8116   20.2355 C   0  0  0  0  0  0  0  0  0  0  0  0
   53.6059    9.8951   18.8574 C   0  0  0  0  0  0  0  0  0  0  0  0
   53.6507   11.3328   18.3202 C   0  0  0  0  0  0  0  0  0  0  0  0
   53.8302   12.3493   19.3620 N   0  0  0  0  0  0  0  0  0  0  0  0
   54.5100   11.8265   20.5439 C   0  0  0  0  0  0  0  0  0  0  0  0
   53.6416   10.7636   21.2266 C   0  0  0  0  0  0  0  0  0  0  0  0
   50.8854   11.0839   20.5728 O   0  0  0  0  0  0  0  0  0  0  0  0
   54.4821   13.5430   18.8393 C   0  0  0  0  0  0  0  0  0  0  0  0
   53.0563    5.3556   19.6223 O   0  0  0  0  0  0  0  0  0  0  0  0
   52.4550    6.5579   19.6168 C   0  0  0  0  0  0  0  0  0  0  0  0
   52.0481    7.0570   20.6508 O   0  0  0  0  0  0  0  0  0  0  0  0
   52.3811    7.1346   18.2302 C   0  0  0  0  0  0  0  0  0  0  0  0
   51.5264    8.3936   18.1918 C   0  0  0  0  0  0  0  0  0  0  0  0
   52.1161    9.5516   18.9468 C   0  0  0  0  0  0  0  0  0  0  0  0
   51.4813   10.4302   19.5036 O   0  0  0  0  0  0  0  0  0  0  0  0
   53.4599    9.6242   18.8836 O   0  0  0  0  0  0  0  0  0  0  0  0
   48.2686    1.5318   16.5490 H   0  0  0  0  0  0  0  0  0  0  0  0
   51.5933    6.1887   18.2272 H   0  0  0  0  0  0  0  0  0  0  0  0
   47.4037    5.5777   17.6764 H   0  0  0  0  0  0  0  0  0  0  0  0
   54.6724    4.0467   18.3039 H   0  0  0  0  0  0  0  0  0  0  0  0
   56.8373    5.1023   18.8113 H   0  0  0  0  0  0  0  0  0  0  0  0
   56.9327    7.5566   19.2580 H   0  0  0  0  0  0  0  0  0  0  0  0
   52.8987    9.5957   18.3874 H   0  0  0  0  0  0  0  0  0  0  0  0
   52.8784   11.8362   18.2267 H   0  0  0  0  0  0  0  0  0  0  0  0
   54.6175   11.6635   18.3003 H   0  0  0  0  0  0  0  0  0  0  0  0
   54.5414   12.0264   20.7863 H   0  0  0  0  0  0  0  0  0  0  0  0
   53.9512   13.3994   19.8851 H   0  0  0  0  0  0  0  0  0  0  0  0
   51.0530   10.9921   19.9775 H   0  0  0  0  0  0  0  0  0  0  0  0
   51.2303   10.7855   21.7229 H   0  0  0  0  0  0  0  0  0  0  0  0
   53.4624    9.7469   21.3778 H   0  0  0  0  0  0  0  0  0  0  0  0
   52.1959    8.8791   20.5289 H   0  0  0  0  0  0  0  0  0  0  0  0
   51.2463   13.3558   19.5412 H   0  0  0  0  0  0  0  0  0  0  0  0
   50.6548   13.3193   21.2226 H   0  0  0  0  0  0  0  0  0  0  0  0
   52.0214   14.3435   20.8087 H   0  0  0  0  0  0  0  0  0  0  0  0
   54.8564    2.5149   18.5461 H   0  0  0  0  0  0  0  0  0  0  0  0
   52.0478    5.7144   18.8476 H   0  0  0  0  0  0  0  0  0  0  0  0
   51.6287   -0.0198   17.3000 H   0  0  0  0  0  0  0  0  0  0  0  0
   48.4885    6.3061   17.8425 H   0  0  0  0  0  0  0  0  0  0  0  0
   47.4805    8.5076   18.2764 H   0  0  0  0  0  0  0  0  0  0  0  0
   48.8380   10.2855   19.3829 H   0  0  0  0  0  0  0  0  0  0  0  0
   53.0551    8.7981   20.6391 H   0  0  0  0  0  0  0  0  0  0  0  0
   54.6338    9.5162   18.9428 H   0  0  0  0  0  0  0  0  0  0  0  0
   53.1054    9.2561   18.1206 H   0  0  0  0  0  0  0  0  0  0  0  0
   52.7125   11.5460   17.7946 H   0  0  0  0  0  0  0  0  0  0  0  0
   54.4493   11.3796   17.5669 H   0  0  0  0  0  0  0  0  0  0  0  0
   55.4911   11.4070   20.2816 H   0  0  0  0  0  0  0  0  0  0  0  0
   54.6953   12.6251   21.2739 H   0  0  0  0  0  0  0  0  0  0  0  0
   54.2957   10.1704   21.8790 H   0  0  0  0  0  0  0  0  0  0  0  0
   52.9194   11.2512   21.8896 H   0  0  0  0  0  0  0  0  0  0  0  0
   53.9028   13.9577   18.0084 H   0  0  0  0  0  0  0  0  0  0  0  0
   54.5321   14.3217   19.6108 H   0  0  0  0  0  0  0  0  0  0  0  0
   55.4993   13.3362   18.4883 H   0  0  0  0  0  0  0  0  0  0  0  0
   53.0646    5.0901   20.5639 H   0  0  0  0  0  0  0  0  0  0  0  0
   51.9169    6.3883   17.5757 H   0  0  0  0  0  0  0  0  0  0  0  0
   53.3994    7.3272   17.8745 H   0  0  0  0  0  0  0  0  0  0  0  0
   51.3937    8.7173   17.1528 H   0  0  0  0  0  0  0  0  0  0  0  0
   50.5339    8.1848   18.6129 H   0  0  0  0  0  0  0  0  0  0  0  0
   53.6694   10.4356   19.3893 H   0  0  0  0  0  0  0  0  0  0  0  0
  1  2  1  0
  1 12  2  0
  3  1  1  0
  3  4  2  0
  4  6  1  0
  5  4  1  0
  7  8  2  0
  8  9  1  0
  8  6  1  0
  9 15  1  0
 10 11  1  0
 10  6  2  0
 12 10  1  0
 13 14  2  0
 14 18  1  0
 15 13  1  0
 15 16  2  0
 16 17  1  0
 18 17  2  0
 19 14  1  0
 19 20  1  0
 20 21  1  0
 21 22  1  0
 22 23  1  0
 23 24  1  0
 23 27  1  0
 24 25  1  0
 25 20  1  0
 26 19  2  0
 28 29  1  0
 28 39  2  0
 30 28  1  0
 30 31  2  0
 31 33  1  0
 32 31  1  0
 34 35  2  0
 35 36  1  0
 35 33  1  0
 36 42  1  0
 37 38  1  0
 37 33  2  0
 39 37  1  0
 40 41  2  0
 41 45  1  0
 42 40  1  0
 42 43  2  0
 43 44  1  0
 45 44  2  0
 46 41  1  0
 46 47  1  0
 47 48  1  0
 48 49  1  0
 49 50  1  0
 50 51  1  0
 50 54  1  0
 51 52  1  0
 52 47  1  0
 53 46  2  0
 55 56  1  0
 56 57  2  0
 56 58  1  0
 58 59  1  0
 59 60  1  0
 60 61  2  0
 60 62  1  0
  3 63  1  0
  9 64  1  0
 12 65  1  0
 16 66  1  0
 17 67  1  0
 18 68  1  0
 20 69  1  0
 21 70  1  0
 21 71  1  0
 22 72  1  0
 22 73  1  0
 24 74  1  0
 24 75  1  0
 25 76  1  0
 25 77  1  0
 27 78  1  0
 27 79  1  0
 27 80  1  0
 30 81  1  0
 36 82  1  0
 39 83  1  0
 43 84  1  0
 44 85  1  0
 45 86  1  0
 47 87  1  0
 48 88  1  0
 48 89  1  0
 49 90  1  0
 49 91  1  0
 51 92  1  0
 51 93  1  0
 52 94  1  0
 52 95  1  0
 54 96  1  0
 54 97  1  0
 54 98  1  0
 55 99  1  0
 58100  1  0
 58101  1  0
 59102  1  0
 59103  1  0
 62104  1  0
M  END
> <Uni-Dock RESULT> 
ENERGY=   -5.137  LOWER_BOUND=    5.920  UPPER_BOUND=    8.219
INTER + INTRA:          -5.137
INTER:                  -5.137
INTRA:                   0.000
UNBOUND:                 0.000

$$$$

     RDKit          3D

104107  0  0  0  0  0  0  0  0999 V2000
   48.3997    3.6829   17.9644 C   0  0  0  0  0  0  0  0  0  0  0  0
   48.4564    2.8042   18.9711 F   0  0  0  0  0  0  0  0  0  0  0  0
   47.4049    3.5656   17.0076 C   0  0  0  0  0  0  0  0  0  0  0  0
   47.3472    4.4879   15.9655 C   0  0  0  0  0  0  0  0  0  0  0  0
   46.3623    4.3317   15.0687 F   0  0  0  0  0  0  0  0  0  0  0  0
   48.2783    5.5301   15.8585 C   0  0  0  0  0  0  0  0  0  0  0  0
   47.3777    6.2842   13.8229 O   0  0  0  0  0  0  0  0  0  0  0  0
   48.1878    6.4929   14.7191 C   0  0  0  0  0  0  0  0  0  0  0  0
   49.0418    7.5725   14.7609 N   0  0  0  0  0  0  0  0  0  0  0  0
   49.2705    5.6156   16.8419 C   0  0  0  0  0  0  0  0  0  0  0  0
   50.1961    6.5873   16.8094 F   0  0  0  0  0  0  0  0  0  0  0  0
   49.3356    4.7030   17.8941 C   0  0  0  0  0  0  0  0  0  0  0  0
   50.1022    9.5237   14.2051 N   0  0  0  0  0  0  0  0  0  0  0  0
   50.2926   10.5921   13.3896 C   0  0  0  0  0  0  0  0  0  0  0  0
   49.1607    8.6246   13.8490 C   0  0  0  0  0  0  0  0  0  0  0  0
   48.3986    8.7614   12.6972 C   0  0  0  0  0  0  0  0  0  0  0  0
   48.6118    9.8648   11.8716 C   0  0  0  0  0  0  0  0  0  0  0  0
   49.5728   10.8039   12.2242 C   0  0  0  0  0  0  0  0  0  0  0  0
   51.3365   11.5817   13.8044 C   0  0  0  0  0  0  0  0  0  0  0  0
   52.1104   11.3019   15.0932 C   0  0  0  0  0  0  0  0  0  0  0  0
   52.6539   12.6007   15.7174 C   0  0  0  0  0  0  0  0  0  0  0  0
   54.1122   12.8391   15.3241 C   0  0  0  0  0  0  0  0  0  0  0  0
   55.0109   11.7590   15.7586 N   0  0  0  0  0  0  0  0  0  0  0  0
   54.3684   10.4388   15.8155 C   0  0  0  0  0  0  0  0  0  0  0  0
   53.2333   10.2943   14.8052 C   0  0  0  0  0  0  0  0  0  0  0  0
   51.5553   12.5712   13.1049 O   0  0  0  0  0  0  0  0  0  0  0  0
   55.6601   12.0730   17.0361 C   0  0  0  0  0  0  0  0  0  0  0  0
   46.0496    5.2343   12.4647 C   0  0  0  0  0  0  0  0  0  0  0  0
   45.2086    4.9978   11.4518 F   0  0  0  0  0  0  0  0  0  0  0  0
   46.9048    6.3225   12.4036 C   0  0  0  0  0  0  0  0  0  0  0  0
   47.7786    6.5594   13.4631 C   0  0  0  0  0  0  0  0  0  0  0  0
   48.5854    7.6278   13.3713 F   0  0  0  0  0  0  0  0  0  0  0  0
   47.8176    5.7250   14.5857 C   0  0  0  0  0  0  0  0  0  0  0  0
   48.6022    5.3152   16.7587 O   0  0  0  0  0  0  0  0  0  0  0  0
   48.7481    5.9596   15.7287 C   0  0  0  0  0  0  0  0  0  0  0  0
   49.7344    6.9010   15.5293 N   0  0  0  0  0  0  0  0  0  0  0  0
   46.9447    4.6299   14.6080 C   0  0  0  0  0  0  0  0  0  0  0  0
   46.9296    3.7679   15.6337 F   0  0  0  0  0  0  0  0  0  0  0  0
   46.0630    4.3814   13.5565 C   0  0  0  0  0  0  0  0  0  0  0  0
   51.5380    8.2627   15.8989 N   0  0  0  0  0  0  0  0  0  0  0  0
   52.5793    8.6879   16.6609 C   0  0  0  0  0  0  0  0  0  0  0  0
   50.7586    7.2822   16.3994 C   0  0  0  0  0  0  0  0  0  0  0  0
   50.9760    6.7225   17.6516 C   0  0  0  0  0  0  0  0  0  0  0  0
   52.0489    7.1762   18.4179 C   0  0  0  0  0  0  0  0  0  0  0  0
   52.8770    8.1699   17.9125 C   0  0  0  0  0  0  0  0  0  0  0  0
   53.4407    9.7703   16.0915 C   0  0  0  0  0  0  0  0  0  0  0  0
   52.9374   10.4976   14.8365 C   0  0  0  0  0  0  0  0  0  0  0  0
   51.7406   11.3960   15.1643 C   0  0  0  0  0  0  0  0  0  0  0  0
   52.1446   12.6205   15.9981 C   0  0  0  0  0  0  0  0  0  0  0  0
   53.4774   13.1418   15.6780 N   0  0  0  0  0  0  0  0  0  0  0  0
   53.8886   12.8287   14.3122 C   0  0  0  0  0  0  0  0  0  0  0  0
   54.0463   11.3135   14.1417 C   0  0  0  0  0  0  0  0  0  0  0  0
   54.5138   10.0207   16.6391 O   0  0  0  0  0  0  0  0  0  0  0  0
   53.5792   14.5664   15.9668 C   0  0  0  0  0  0  0  0  0  0  0  0
   49.8678    7.5609   13.3537 O   0  0  0  0  0  0  0  0  0  0  0  0
   50.7273    8.0491   14.2647 C   0  0  0  0  0  0  0  0  0  0  0  0
   51.9229    7.8349   14.1725 O   0  0  0  0  0  0  0  0  0  0  0  0
   50.0180    8.8426   15.3268 C   0  0  0  0  0  0  0  0  0  0  0  0
   50.9570    9.2231   16.4629 C   0  0  0  0  0  0  0  0  0  0  0  0
   52.0350   10.1906   16.0620 C   0  0  0  0  0  0  0  0  0  0  0  0
   53.1484   10.2529   16.5533 O   0  0  0  0  0  0  0  0  0  0  0  0
   51.6461   11.1023   15.1495 O   0  0  0  0  0  0  0  0  0  0  0  0
   46.6716    2.7683   17.0693 H   0  0  0  0  0  0  0  0  0  0  0  0
   49.6948    7.6723   15.5305 H   0  0  0  0  0  0  0  0  0  0  0  0
   50.1124    4.7835   18.6466 H   0  0  0  0  0  0  0  0  0  0  0  0
   47.6438    8.0375   12.4104 H   0  0  0  0  0  0  0  0  0  0  0  0
   48.0250    9.9925   10.9644 H   0  0  0  0  0  0  0  0  0  0  0  0
   49.7541   11.6756   11.6045 H   0  0  0  0  0  0  0  0  0  0  0  0
   51.4092   10.8834   15.8261 H   0  0  0  0  0  0  0  0  0  0  0  0
   52.5826   12.5274   16.8093 H   0  0  0  0  0  0  0  0  0  0  0  0
   52.0448   13.4683   15.4363 H   0  0  0  0  0  0  0  0  0  0  0  0
   54.1805   12.9173   14.2310 H   0  0  0  0  0  0  0  0  0  0  0  0
   54.4488   13.8101   15.7063 H   0  0  0  0  0  0  0  0  0  0  0  0
   53.9570   10.2426   16.8172 H   0  0  0  0  0  0  0  0  0  0  0  0
   55.1251    9.6689   15.6226 H   0  0  0  0  0  0  0  0  0  0  0  0
   53.6274   10.4256   13.7883 H   0  0  0  0  0  0  0  0  0  0  0  0
   52.8372    9.2720   14.8478 H   0  0  0  0  0  0  0  0  0  0  0  0
   54.9295   12.1931   17.8489 H   0  0  0  0  0  0  0  0  0  0  0  0
   56.3652   11.2804   17.3158 H   0  0  0  0  0  0  0  0  0  0  0  0
   56.2494   12.9969   16.9574 H   0  0  0  0  0  0  0  0  0  0  0  0
   46.8945    6.9792   11.5400 H   0  0  0  0  0  0  0  0  0  0  0  0
   49.7677    7.4257   14.6643 H   0  0  0  0  0  0  0  0  0  0  0  0
   45.3975    3.5255   13.5957 H   0  0  0  0  0  0  0  0  0  0  0  0
   50.3508    5.9334   18.0498 H   0  0  0  0  0  0  0  0  0  0  0  0
   52.2383    6.7491   19.4000 H   0  0  0  0  0  0  0  0  0  0  0  0
   53.7243    8.5333   18.4856 H   0  0  0  0  0  0  0  0  0  0  0  0
   52.6306    9.7172   14.1294 H   0  0  0  0  0  0  0  0  0  0  0  0
   51.2954   11.7407   14.2207 H   0  0  0  0  0  0  0  0  0  0  0  0
   50.9503   10.8510   15.6935 H   0  0  0  0  0  0  0  0  0  0  0  0
   52.1315   12.3483   17.0600 H   0  0  0  0  0  0  0  0  0  0  0  0
   51.3671   13.3848   15.8611 H   0  0  0  0  0  0  0  0  0  0  0  0
   53.1669   13.2218   13.5829 H   0  0  0  0  0  0  0  0  0  0  0  0
   54.8553   13.2932   14.0785 H   0  0  0  0  0  0  0  0  0  0  0  0
   54.0185   11.0965   13.0659 H   0  0  0  0  0  0  0  0  0  0  0  0
   55.0408   11.0080   14.4835 H   0  0  0  0  0  0  0  0  0  0  0  0
   53.3462   14.7569   17.0192 H   0  0  0  0  0  0  0  0  0  0  0  0
   54.6047   14.9192   15.8003 H   0  0  0  0  0  0  0  0  0  0  0  0
   52.9018   15.1618   15.3447 H   0  0  0  0  0  0  0  0  0  0  0  0
   50.4341    7.0862   12.7123 H   0  0  0  0  0  0  0  0  0  0  0  0
   49.2186    8.2181   15.7411 H   0  0  0  0  0  0  0  0  0  0  0  0
   49.5668    9.7267   14.8630 H   0  0  0  0  0  0  0  0  0  0  0  0
   50.3851    9.6916   17.2724 H   0  0  0  0  0  0  0  0  0  0  0  0
   51.4418    8.3234   16.8647 H   0  0  0  0  0  0  0  0  0  0  0  0
   52.4415   11.6601   15.0298 H   0  0  0  0  0  0  0  0  0  0  0  0
  1  2  1  0
  1 12  2  0
  3  1  1  0
  3  4  2  0
  4  6  1  0
  5  4  1  0
  7  8  2  0
  8  9  1  0
  8  6  1  0
  9 15  1  0
 10 11  1  0
 10  6  2  0
 12 10  1  0
 13 14  2  0
 14 18  1  0
 15 13  1  0
 15 16  2  0
 16 17  1  0
 18 17  2  0
 19 14  1  0
 19 20  1  0
 20 21  1  0
 21 22  1  0
 22 23  1  0
 23 24  1  0
 23 27  1  0
 24 25  1  0
 25 20  1  0
 26 19  2  0
 28 29  1  0
 28 39  2  0
 30 28  1  0
 30 31  2  0
 31 33  1  0
 32 31  1  0
 34 35  2  0
 35 36  1  0
 35 33  1  0
 36 42  1  0
 37 38  1  0
 37 33  2  0
 39 37  1  0
 40 41  2  0
 41 45  1  0
 42 40  1  0
 42 43  2  0
 43 44  1  0
 45 44  2  0
 46 41  1  0
 46 47  1  0
 47 48  1  0
 48 49  1  0
 49 50  1  0
 50 51  1  0
 50 54  1  0
 51 52  1  0
 52 47  1  0
 53 46  2  0
 55 56  1  0
 56 57  2  0
 56 58  1  0
 58 59  1  0
 59 60  1  0
 60 61  2  0
 60 62  1  0
  3 63  1  0
  9 64  1  0
 12 65  1  0
 16 66  1  0
 17 67  1  0
 18 68  1  0
 20 69  1  0
 21 70  1  0
 21 71  1  0
 22 72  1  0
 22 73  1  0
 24 74  1  0
 24 75  1  0
 25 76  1  0
 25 77  1  0
 27 78  1  0
 27 79  1  0
 27 80  1  0
 30 81  1  0
 36 82  1  0
 39 83  1  0
 43 84  1  0
 44 85  1  0
 45 86  1  0
 47 87  1  0
 48 88  1  0
 48 89  1  0
 49 90  1  0
 49 91  1  0
 51 92  1  0
 51 93  1  0
 52 94  1  0
 52 95  1  0
 54 96  1  0
 54 97  1  0
 54 98  1  0
 55 99  1  0
 58100  1  0
 58101  1  0
 59102  1  0
 59103  1  0
 62104  1  0
M  END
> <Uni-Dock RESULT> 
ENERGY=   -5.080  LOWER_BOUND=    3.547  UPPER_BOUND=    5.823
INTER + INTRA:          -5.080
INTER:                  -5.080
INTRA:                   0.000
UNBOUND:                 0.000

$$$$

     RDKit          3D

104107  0  0  0  0  0  0  0  0999 V2000
   46.3719    4.7665   13.8327 C   0  0  0  0  0  0  0  0  0  0  0  0
   45.3620    3.9281   13.5759 F   0  0  0  0  0  0  0  0  0  0  0  0
   46.7826    5.6630   12.8599 C   0  0  0  0  0  0  0  0  0  0  0  0
   47.8305    6.5380   13.1359 C   0  0  0  0  0  0  0  0  0  0  0  0
   48.1858    7.3882   12.1615 F   0  0  0  0  0  0  0  0  0  0  0  0
   48.4849    6.5279   14.3755 C   0  0  0  0  0  0  0  0  0  0  0  0
   50.0330    8.1642   13.7048 O   0  0  0  0  0  0  0  0  0  0  0  0
   49.6119    7.4764   14.6282 C   0  0  0  0  0  0  0  0  0  0  0  0
   50.1066    7.5104   15.9129 N   0  0  0  0  0  0  0  0  0  0  0  0
   48.0444    5.6069   15.3327 C   0  0  0  0  0  0  0  0  0  0  0  0
   48.6191    5.5385   16.5440 F   0  0  0  0  0  0  0  0  0  0  0  0
   46.9922    4.7300   15.0718 C   0  0  0  0  0  0  0  0  0  0  0  0
   51.3576    8.0836   17.7423 N   0  0  0  0  0  0  0  0  0  0  0  0
   52.3320    8.8112   18.3456 C   0  0  0  0  0  0  0  0  0  0  0  0
   51.1338    8.3043   16.4298 C   0  0  0  0  0  0  0  0  0  0  0  0
   51.8571    9.2354   15.6975 C   0  0  0  0  0  0  0  0  0  0  0  0
   52.8556    9.9705   16.3356 C   0  0  0  0  0  0  0  0  0  0  0  0
   53.0970    9.7613   17.6875 C   0  0  0  0  0  0  0  0  0  0  0  0
   52.5612    8.5572   19.8031 C   0  0  0  0  0  0  0  0  0  0  0  0
   51.6987    7.4943   20.4846 C   0  0  0  0  0  0  0  0  0  0  0  0
   51.5762    7.7533   21.9978 C   0  0  0  0  0  0  0  0  0  0  0  0
   52.5851    6.9193   22.7883 C   0  0  0  0  0  0  0  0  0  0  0  0
   52.4124    5.4713   22.5970 N   0  0  0  0  0  0  0  0  0  0  0  0
   51.8822    5.1059   21.2763 C   0  0  0  0  0  0  0  0  0  0  0  0
   52.2766    6.1022   20.1892 C   0  0  0  0  0  0  0  0  0  0  0  0
   53.4320    9.1860   20.4053 O   0  0  0  0  0  0  0  0  0  0  0  0
   51.5993    4.8754   23.6629 C   0  0  0  0  0  0  0  0  0  0  0  0
   50.5141    8.8212   11.6929 C   0  0  0  0  0  0  0  0  0  0  0  0
   51.0217    9.5429   10.6876 F   0  0  0  0  0  0  0  0  0  0  0  0
   51.1023    8.8848   12.9455 C   0  0  0  0  0  0  0  0  0  0  0  0
   50.5673    8.1277   13.9860 C   0  0  0  0  0  0  0  0  0  0  0  0
   51.1592    8.2223   15.1866 F   0  0  0  0  0  0  0  0  0  0  0  0
   49.4533    7.3019   13.7981 C   0  0  0  0  0  0  0  0  0  0  0  0
   47.7871    5.9337   14.7238 O   0  0  0  0  0  0  0  0  0  0  0  0
   48.8676    6.4810   14.8983 C   0  0  0  0  0  0  0  0  0  0  0  0
   49.6121    6.3894   16.0541 N   0  0  0  0  0  0  0  0  0  0  0  0
   48.8910    7.2565   12.5161 C   0  0  0  0  0  0  0  0  0  0  0  0
   47.8362    6.4771   12.2420 F   0  0  0  0  0  0  0  0  0  0  0  0
   49.4138    8.0103   11.4657 C   0  0  0  0  0  0  0  0  0  0  0  0
   50.2632    5.8172   18.1736 N   0  0  0  0  0  0  0  0  0  0  0  0
   50.0939    5.1267   19.3314 C   0  0  0  0  0  0  0  0  0  0  0  0
   49.3324    5.6576   17.2107 C   0  0  0  0  0  0  0  0  0  0  0  0
   48.2218    4.8402   17.3749 C   0  0  0  0  0  0  0  0  0  0  0  0
   48.0666    4.1432   18.5725 C   0  0  0  0  0  0  0  0  0  0  0  0
   49.0245    4.2761   19.5690 C   0  0  0  0  0  0  0  0  0  0  0  0
   51.1370    5.3063   20.3886 C   0  0  0  0  0  0  0  0  0  0  0  0
   52.1544    6.4410   20.2025 C   0  0  0  0  0  0  0  0  0  0  0  0
   51.4924    7.8096   20.3913 C   0  0  0  0  0  0  0  0  0  0  0  0
   51.1122    8.0741   21.8552 C   0  0  0  0  0  0  0  0  0  0  0  0
   52.0465    7.4924   22.8245 N   0  0  0  0  0  0  0  0  0  0  0  0
   53.3900    7.3254   22.2773 C   0  0  0  0  0  0  0  0  0  0  0  0
   53.3731    6.3010   21.1370 C   0  0  0  0  0  0  0  0  0  0  0  0
   51.1450    4.5352   21.3474 O   0  0  0  0  0  0  0  0  0  0  0  0
   52.0544    8.2389   24.0757 C   0  0  0  0  0  0  0  0  0  0  0  0
   51.7107    7.2354   15.7959 O   0  0  0  0  0  0  0  0  0  0  0  0
   51.3410    6.6825   16.9642 C   0  0  0  0  0  0  0  0  0  0  0  0
   51.8991    5.6860   17.3874 O   0  0  0  0  0  0  0  0  0  0  0  0
   50.2159    7.4453   17.6071 C   0  0  0  0  0  0  0  0  0  0  0  0
   49.6627    6.7112   18.8204 C   0  0  0  0  0  0  0  0  0  0  0  0
   50.6300    6.6173   19.9669 C   0  0  0  0  0  0  0  0  0  0  0  0
   50.6761    5.7122   20.7815 O   0  0  0  0  0  0  0  0  0  0  0  0
   51.4196    7.6992   20.1121 O   0  0  0  0  0  0  0  0  0  0  0  0
   46.2911    5.6913   11.8930 H   0  0  0  0  0  0  0  0  0  0  0  0
   49.7144    6.9016   16.6231 H   0  0  0  0  0  0  0  0  0  0  0  0
   46.6650    4.0217   15.8251 H   0  0  0  0  0  0  0  0  0  0  0  0
   51.6783    9.4106   14.6424 H   0  0  0  0  0  0  0  0  0  0  0  0
   53.4340   10.7064   15.7811 H   0  0  0  0  0  0  0  0  0  0  0  0
   53.8624   10.3246   18.2107 H   0  0  0  0  0  0  0  0  0  0  0  0
   50.6816    7.5722   20.0803 H   0  0  0  0  0  0  0  0  0  0  0  0
   50.5613    7.4934   22.3220 H   0  0  0  0  0  0  0  0  0  0  0  0
   51.7025    8.8163   22.2360 H   0  0  0  0  0  0  0  0  0  0  0  0
   53.6006    7.1847   22.4658 H   0  0  0  0  0  0  0  0  0  0  0  0
   52.5392    7.1850   23.8510 H   0  0  0  0  0  0  0  0  0  0  0  0
   50.7837    5.0427   21.2953 H   0  0  0  0  0  0  0  0  0  0  0  0
   52.2565    4.1106   21.0083 H   0  0  0  0  0  0  0  0  0  0  0  0
   53.3712    6.1412   20.1058 H   0  0  0  0  0  0  0  0  0  0  0  0
   51.9106    5.7446   19.2187 H   0  0  0  0  0  0  0  0  0  0  0  0
   50.5824    5.2929   23.6851 H   0  0  0  0  0  0  0  0  0  0  0  0
   51.5269    3.7887   23.5313 H   0  0  0  0  0  0  0  0  0  0  0  0
   52.0644    5.0373   24.6449 H   0  0  0  0  0  0  0  0  0  0  0  0
   51.9700    9.5148   13.1116 H   0  0  0  0  0  0  0  0  0  0  0  0
   50.4790    6.9047   16.1415 H   0  0  0  0  0  0  0  0  0  0  0  0
   48.9620    7.9571   10.4809 H   0  0  0  0  0  0  0  0  0  0  0  0
   47.4776    4.7113   16.5992 H   0  0  0  0  0  0  0  0  0  0  0  0
   47.2054    3.4955   18.7202 H   0  0  0  0  0  0  0  0  0  0  0  0
   48.9313    3.7367   20.5065 H   0  0  0  0  0  0  0  0  0  0  0  0
   52.5322    6.3519   19.1766 H   0  0  0  0  0  0  0  0  0  0  0  0
   52.1974    8.5855   20.0622 H   0  0  0  0  0  0  0  0  0  0  0  0
   50.5992    7.9240   19.7661 H   0  0  0  0  0  0  0  0  0  0  0  0
   50.1178    7.6539   22.0464 H   0  0  0  0  0  0  0  0  0  0  0  0
   51.0222    9.1619   21.9821 H   0  0  0  0  0  0  0  0  0  0  0  0
   53.7938    8.2840   21.9232 H   0  0  0  0  0  0  0  0  0  0  0  0
   54.0825    6.9579   23.0456 H   0  0  0  0  0  0  0  0  0  0  0  0
   54.2862    6.4484   20.5456 H   0  0  0  0  0  0  0  0  0  0  0  0
   53.4445    5.2901   21.5517 H   0  0  0  0  0  0  0  0  0  0  0  0
   51.0470    8.2737   24.5022 H   0  0  0  0  0  0  0  0  0  0  0  0
   52.6947    7.7416   24.8151 H   0  0  0  0  0  0  0  0  0  0  0  0
   52.4131    9.2653   23.9402 H   0  0  0  0  0  0  0  0  0  0  0  0
   52.4496    6.6756   15.4829 H   0  0  0  0  0  0  0  0  0  0  0  0
   49.4088    7.5446   16.8726 H   0  0  0  0  0  0  0  0  0  0  0  0
   50.5749    8.4464   17.8703 H   0  0  0  0  0  0  0  0  0  0  0  0
   48.7707    7.2303   19.1900 H   0  0  0  0  0  0  0  0  0  0  0  0
   49.3709    5.6906   18.5391 H   0  0  0  0  0  0  0  0  0  0  0  0
   51.9520    7.4891   20.9062 H   0  0  0  0  0  0  0  0  0  0  0  0
  1  2  1  0
  1 12  2  0
  3  1  1  0
  3  4  2  0
  4  6  1  0
  5  4  1  0
  7  8  2  0
  8  9  1  0
  8  6  1  0
  9 15  1  0
 10 11  1  0
 10  6  2  0
 12 10  1  0
 13 14  2  0
 14 18  1  0
 15 13  1  0
 15 16  2  0
 16 17  1  0
 18 17  2  0
 19 14  1  0
 19 20  1  0
 20 21  1  0
 21 22  1  0
 22 23  1  0
 23 24  1  0
 23 27  1  0
 24 25  1  0
 25 20  1  0
 26 19  2  0
 28 29  1  0
 28 39  2  0
 30 28  1  0
 30 31  2  0
 31 33  1  0
 32 31  1  0
 34 35  2  0
 35 36  1  0
 35 33  1  0
 36 42  1  0
 37 38  1  0
 37 33  2  0
 39 37  1  0
 40 41  2  0
 41 45  1  0
 42 40  1  0
 42 43  2  0
 43 44  1  0
 45 44  2  0
 46 41  1  0
 46 47  1  0
 47 48  1  0
 48 49  1  0
 49 50  1  0
 50 51  1  0
 50 54  1  0
 51 52  1  0
 52 47  1  0
 53 46  2  0
 55 56  1  0
 56 57  2  0
 56 58  1  0
 58 59  1  0
 59 60  1  0
 60 61  2  0
 60 62  1  0
  3 63  1  0
  9 64  1  0
 12 65  1  0
 16 66  1  0
 17 67  1  0
 18 68  1  0
 20 69  1  0
 21 70  1  0
 21 71  1  0
 22 72  1  0
 22 73  1  0
 24 74  1  0
 24 75  1  0
 25 76  1  0
 25 77  1  0
 27 78  1  0
 27 79  1  0
 27 80  1  0
 30 81  1  0
 36 82  1  0
 39 83  1  0
 43 84  1  0
 44 85  1  0
 45 86  1  0
 47 87  1  0
 48 88  1  0
 48 89  1  0
 49 90  1  0
 49 91  1  0
 51 92  1  0
 51 93  1  0
 52 94  1  0
 52 95  1  0
 54 96  1  0
 54 97  1  0
 54 98  1  0
 55 99  1  0
 58100  1  0
 58101  1  0
 59102  1  0
 59103  1  0
 62104  1  0
M  END
> <Uni-Dock RESULT> 
ENERGY=   -5.063  LOWER_BOUND=    4.349  UPPER_BOUND=    9.117
INTER + INTRA:          -5.063
INTER:                  -5.063
INTRA:                   0.000
UNBOUND:                 0.000

$$$$

     RDKit          3D

104107  0  0  0  0  0  0  0  0999 V2000
   47.6412    3.5901   17.3113 C   0  0  0  0  0  0  0  0  0  0  0  0
   46.5616    2.8045   17.3892 F   0  0  0  0  0  0  0  0  0  0  0  0
   48.7115    3.3703   18.1629 C   0  0  0  0  0  0  0  0  0  0  0  0
   49.8356    4.1877   18.0722 C   0  0  0  0  0  0  0  0  0  0  0  0
   50.8452    3.9295   18.9165 F   0  0  0  0  0  0  0  0  0  0  0  0
   49.9065    5.2338   17.1420 C   0  0  0  0  0  0  0  0  0  0  0  0
   51.9979    5.9553   17.9351 O   0  0  0  0  0  0  0  0  0  0  0  0
   51.1268    6.0947   17.0838 C   0  0  0  0  0  0  0  0  0  0  0  0
   51.1856    7.0037   16.0510 N   0  0  0  0  0  0  0  0  0  0  0  0
   48.8053    5.4274   16.3001 C   0  0  0  0  0  0  0  0  0  0  0  0
   48.7992    6.4066   15.3818 F   0  0  0  0  0  0  0  0  0  0  0  0
   47.6766    4.6123   16.3757 C   0  0  0  0  0  0  0  0  0  0  0  0
   51.9347    8.6538   14.6522 N   0  0  0  0  0  0  0  0  0  0  0  0
   52.8646    9.5638   14.2650 C   0  0  0  0  0  0  0  0  0  0  0  0
   52.2030    7.9122   15.7475 C   0  0  0  0  0  0  0  0  0  0  0  0
   53.3789    8.0520   16.4714 C   0  0  0  0  0  0  0  0  0  0  0  0
   54.3199    8.9947   16.0585 C   0  0  0  0  0  0  0  0  0  0  0  0
   54.0640    9.7637   14.9303 C   0  0  0  0  0  0  0  0  0  0  0  0
   52.5522   10.3723   13.0444 C   0  0  0  0  0  0  0  0  0  0  0  0
   51.2136   10.1225   12.3486 C   0  0  0  0  0  0  0  0  0  0  0  0
   51.2726   10.5074   10.8586 C   0  0  0  0  0  0  0  0  0  0  0  0
   50.7172   11.9128   10.6247 C   0  0  0  0  0  0  0  0  0  0  0  0
   49.3126   12.0541   11.0373 N   0  0  0  0  0  0  0  0  0  0  0  0
   48.9328   11.1840   12.1587 C   0  0  0  0  0  0  0  0  0  0  0  0
   50.1037   10.8821   13.0903 C   0  0  0  0  0  0  0  0  0  0  0  0
   53.3567   11.2144   12.6445 O   0  0  0  0  0  0  0  0  0  0  0  0
   48.3936   11.8725    9.9083 C   0  0  0  0  0  0  0  0  0  0  0  0
   52.9651    5.4747   19.8178 C   0  0  0  0  0  0  0  0  0  0  0  0
   53.9030    5.3737   20.7660 F   0  0  0  0  0  0  0  0  0  0  0  0
   53.0840    6.4479   18.8391 C   0  0  0  0  0  0  0  0  0  0  0  0
   52.1006    6.5462   17.8565 C   0  0  0  0  0  0  0  0  0  0  0  0
   52.2551    7.4956   16.9207 F   0  0  0  0  0  0  0  0  0  0  0  0
   50.9941    5.6900   17.8343 C   0  0  0  0  0  0  0  0  0  0  0  0
   49.0948    4.8894   16.7130 O   0  0  0  0  0  0  0  0  0  0  0  0
   49.9289    5.7812   16.7929 C   0  0  0  0  0  0  0  0  0  0  0  0
   49.9586    6.8976   15.9857 N   0  0  0  0  0  0  0  0  0  0  0  0
   50.9033    4.7245   18.8448 C   0  0  0  0  0  0  0  0  0  0  0  0
   49.8673    3.8774   18.9122 F   0  0  0  0  0  0  0  0  0  0  0  0
   51.8807    4.6123   19.8332 C   0  0  0  0  0  0  0  0  0  0  0  0
   49.4104    8.4087   14.3549 N   0  0  0  0  0  0  0  0  0  0  0  0
   48.5914    8.8606   13.3695 C   0  0  0  0  0  0  0  0  0  0  0  0
   49.0666    7.2608   14.9739 C   0  0  0  0  0  0  0  0  0  0  0  0
   47.9345    6.5357   14.6258 C   0  0  0  0  0  0  0  0  0  0  0  0
   47.1098    7.0165   13.6095 C   0  0  0  0  0  0  0  0  0  0  0  0
   47.4335    8.2079   12.9737 C   0  0  0  0  0  0  0  0  0  0  0  0
   48.9795   10.1387   12.6960 C   0  0  0  0  0  0  0  0  0  0  0  0
   50.3852   10.6920   12.9700 C   0  0  0  0  0  0  0  0  0  0  0  0
   51.4575    9.8238   12.3041 C   0  0  0  0  0  0  0  0  0  0  0  0
   51.4470    9.9587   10.7747 C   0  0  0  0  0  0  0  0  0  0  0  0
   51.0898   11.2996   10.3005 N   0  0  0  0  0  0  0  0  0  0  0  0
   51.3999   12.3404   11.2767 C   0  0  0  0  0  0  0  0  0  0  0  0
   50.5372   12.1626   12.5313 C   0  0  0  0  0  0  0  0  0  0  0  0
   48.1584   10.6958   11.9683 O   0  0  0  0  0  0  0  0  0  0  0  0
   51.6760   11.5808    8.9965 C   0  0  0  0  0  0  0  0  0  0  0  0
   51.4318    8.4639   16.7363 O   0  0  0  0  0  0  0  0  0  0  0  0
   50.6801    8.7056   15.6483 C   0  0  0  0  0  0  0  0  0  0  0  0
   49.8679    9.6133   15.6399 O   0  0  0  0  0  0  0  0  0  0  0  0
   50.9918    7.7448   14.5345 C   0  0  0  0  0  0  0  0  0  0  0  0
   50.0076    7.8850   13.3817 C   0  0  0  0  0  0  0  0  0  0  0  0
   50.1049    9.1976   12.6561 C   0  0  0  0  0  0  0  0  0  0  0  0
   49.1829    9.7694   12.1011 O   0  0  0  0  0  0  0  0  0  0  0  0
   51.3579    9.6834   12.5606 O   0  0  0  0  0  0  0  0  0  0  0  0
   48.6814    2.5660   18.8904 H   0  0  0  0  0  0  0  0  0  0  0  0
   50.4191    7.0699   15.3901 H   0  0  0  0  0  0  0  0  0  0  0  0
   46.8317    4.7778   15.7163 H   0  0  0  0  0  0  0  0  0  0  0  0
   53.5929    7.4575   17.3527 H   0  0  0  0  0  0  0  0  0  0  0  0
   55.2490    9.1203   16.6105 H   0  0  0  0  0  0  0  0  0  0  0  0
   54.7818   10.4988   14.5823 H   0  0  0  0  0  0  0  0  0  0  0  0
   51.0132    9.0440   12.3755 H   0  0  0  0  0  0  0  0  0  0  0  0
   50.6819    9.7859   10.2813 H   0  0  0  0  0  0  0  0  0  0  0  0
   52.2940   10.4394   10.4651 H   0  0  0  0  0  0  0  0  0  0  0  0
   51.3132   12.6340   11.1995 H   0  0  0  0  0  0  0  0  0  0  0  0
   50.8504   12.1977    9.5744 H   0  0  0  0  0  0  0  0  0  0  0  0
   48.5323   10.2251   11.7966 H   0  0  0  0  0  0  0  0  0  0  0  0
   48.1328   11.6714   12.7289 H   0  0  0  0  0  0  0  0  0  0  0  0
   50.4864   11.8199   13.5156 H   0  0  0  0  0  0  0  0  0  0  0  0
   49.7475   10.2864   13.9400 H   0  0  0  0  0  0  0  0  0  0  0  0
   48.4728   10.8661    9.4728 H   0  0  0  0  0  0  0  0  0  0  0  0
   47.3560   12.0342   10.2256 H   0  0  0  0  0  0  0  0  0  0  0  0
   48.5940   12.6107    9.1197 H   0  0  0  0  0  0  0  0  0  0  0  0
   53.9314    7.1255   18.8408 H   0  0  0  0  0  0  0  0  0  0  0  0
   50.7051    7.5744   16.0831 H   0  0  0  0  0  0  0  0  0  0  0  0
   51.7875    3.8575   20.6068 H   0  0  0  0  0  0  0  0  0  0  0  0
   47.6591    5.6160   15.1263 H   0  0  0  0  0  0  0  0  0  0  0  0
   46.2169    6.4652   13.3236 H   0  0  0  0  0  0  0  0  0  0  0  0
   46.8025    8.6080   12.1862 H   0  0  0  0  0  0  0  0  0  0  0  0
   50.5180   10.6728   14.0586 H   0  0  0  0  0  0  0  0  0  0  0  0
   52.4414   10.1358   12.6810 H   0  0  0  0  0  0  0  0  0  0  0  0
   51.3514    8.7651   12.5681 H   0  0  0  0  0  0  0  0  0  0  0  0
   50.7239    9.2469   10.3593 H   0  0  0  0  0  0  0  0  0  0  0  0
   52.4360    9.6498   10.4087 H   0  0  0  0  0  0  0  0  0  0  0  0
   52.4661   12.3277   11.5418 H   0  0  0  0  0  0  0  0  0  0  0  0
   51.1905   13.3367   10.8663 H   0  0  0  0  0  0  0  0  0  0  0  0
   51.0162   12.7227   13.3450 H   0  0  0  0  0  0  0  0  0  0  0  0
   49.5620   12.6358   12.3754 H   0  0  0  0  0  0  0  0  0  0  0  0
   51.3564   10.8293    8.2677 H   0  0  0  0  0  0  0  0  0  0  0  0
   51.3305   12.5526    8.6220 H   0  0  0  0  0  0  0  0  0  0  0  0
   52.7711   11.5915    9.0313 H   0  0  0  0  0  0  0  0  0  0  0  0
   51.1607    9.1502   17.3788 H   0  0  0  0  0  0  0  0  0  0  0  0
   50.9088    6.7264   14.9305 H   0  0  0  0  0  0  0  0  0  0  0  0
   52.0240    7.9096   14.2061 H   0  0  0  0  0  0  0  0  0  0  0  0
   50.1874    7.0930   12.6453 H   0  0  0  0  0  0  0  0  0  0  0  0
   48.9795    7.7784   13.7526 H   0  0  0  0  0  0  0  0  0  0  0  0
   51.2456   10.5063   12.0426 H   0  0  0  0  0  0  0  0  0  0  0  0
  1  2  1  0
  1 12  2  0
  3  1  1  0
  3  4  2  0
  4  6  1  0
  5  4  1  0
  7  8  2  0
  8  9  1  0
  8  6  1  0
  9 15  1  0
 10 11  1  0
 10  6  2  0
 12 10  1  0
 13 14  2  0
 14 18  1  0
 15 13  1  0
 15 16  2  0
 16 17  1  0
 18 17  2  0
 19 14  1  0
 19 20  1  0
 20 21  1  0
 21 22  1  0
 22 23  1  0
 23 24  1  0
 23 27  1  0
 24 25  1  0
 25 20  1  0
 26 19  2  0
 28 29  1  0
 28 39  2  0
 30 28  1  0
 30 31  2  0
 31 33  1  0
 32 31  1  0
 34 35  2  0
 35 36  1  0
 35 33  1  0
 36 42  1  0
 37 38  1  0
 37 33  2  0
 39 37  1  0
 40 41  2  0
 41 45  1  0
 42 40  1  0
 42 43  2  0
 43 44  1  0
 45 44  2  0
 46 41  1  0
 46 47  1  0
 47 48  1  0
 48 49  1  0
 49 50  1  0
 50 51  1  0
 50 54  1  0
 51 52  1  0
 52 47  1  0
 53 46  2  0
 55 56  1  0
 56 57  2  0
 56 58  1  0
 58 59  1  0
 59 60  1  0
 60 61  2  0
 60 62  1  0
  3 63  1  0
  9 64  1  0
 12 65  1  0
 16 66  1  0
 17 67  1  0
 18 68  1  0
 20 69  1  0
 21 70  1  0
 21 71  1  0
 22 72  1  0
 22 73  1  0
 24 74  1  0
 24 75  1  0
 25 76  1  0
 25 77  1  0
 27 78  1  0
 27 79  1  0
 27 80  1  0
 30 81  1  0
 36 82  1  0
 39 83  1  0
 43 84  1  0
 44 85  1  0
 45 86  1  0
 47 87  1  0
 48 88  1  0
 48 89  1  0
 49 90  1  0
 49 91  1  0
 51 92  1  0
 51 93  1  0
 52 94  1  0
 52 95  1  0
 54 96  1  0
 54 97  1  0
 54 98  1  0
 55 99  1  0
 58100  1  0
 58101  1  0
 59102  1  0
 59103  1  0
 62104  1  0
M  END
> <Uni-Dock RESULT> 
ENERGY=   -5.021  LOWER_BOUND=    3.458  UPPER_BOUND=    5.029
INTER + INTRA:          -5.021
INTER:                  -5.021
INTRA:                   0.000
UNBOUND:                 0.000

$$$$

     RDKit          3D

104107  0  0  0  0  0  0  0  0999 V2000
   53.2780    0.9276   17.8610 C   0  0  0  0  0  0  0  0  0  0  0  0
   53.9976   -0.1994   17.8374 F   0  0  0  0  0  0  0  0  0  0  0  0
   51.9095    0.8714   17.6532 C   0  0  0  0  0  0  0  0  0  0  0  0
   51.1647    2.0478   17.6857 C   0  0  0  0  0  0  0  0  0  0  0  0
   49.8436    1.9372   17.4829 F   0  0  0  0  0  0  0  0  0  0  0  0
   51.7699    3.2907   17.9175 C   0  0  0  0  0  0  0  0  0  0  0  0
   49.7536    4.4609   17.6194 O   0  0  0  0  0  0  0  0  0  0  0  0
   50.9364    4.5311   17.9342 C   0  0  0  0  0  0  0  0  0  0  0  0
   51.5737    5.6915   18.3131 N   0  0  0  0  0  0  0  0  0  0  0  0
   53.1545    3.3089   18.1206 C   0  0  0  0  0  0  0  0  0  0  0  0
   53.8056    4.4600   18.3511 F   0  0  0  0  0  0  0  0  0  0  0  0
   53.9110    2.1380   18.0974 C   0  0  0  0  0  0  0  0  0  0  0  0
   51.9535    7.8874   18.8370 N   0  0  0  0  0  0  0  0  0  0  0  0
   51.5368    9.1699   18.9932 C   0  0  0  0  0  0  0  0  0  0  0  0
   51.0417    6.9781   18.4327 C   0  0  0  0  0  0  0  0  0  0  0  0
   49.7188    7.3124   18.1791 C   0  0  0  0  0  0  0  0  0  0  0  0
   49.3119    8.6361   18.3430 C   0  0  0  0  0  0  0  0  0  0  0  0
   50.2346    9.5855   18.7636 C   0  0  0  0  0  0  0  0  0  0  0  0
   52.5607   10.1628   19.4483 C   0  0  0  0  0  0  0  0  0  0  0  0
   53.9858    9.6597   19.6811 C   0  0  0  0  0  0  0  0  0  0  0  0
   54.7392   10.5474   20.6891 C   0  0  0  0  0  0  0  0  0  0  0  0
   55.6104   11.5824   19.9764 C   0  0  0  0  0  0  0  0  0  0  0  0
   56.6316   10.9772   19.1081 N   0  0  0  0  0  0  0  0  0  0  0  0
   56.2317    9.6860   18.5320 C   0  0  0  0  0  0  0  0  0  0  0  0
   54.7221    9.5730   18.3359 C   0  0  0  0  0  0  0  0  0  0  0  0
   52.2429   11.3418   19.6073 O   0  0  0  0  0  0  0  0  0  0  0  0
   57.9250   10.8600   19.7904 C   0  0  0  0  0  0  0  0  0  0  0  0
   47.9179    3.7695   16.6905 C   0  0  0  0  0  0  0  0  0  0  0  0
   46.6389    3.7235   16.3015 F   0  0  0  0  0  0  0  0  0  0  0  0
   48.4909    4.9886   17.0138 C   0  0  0  0  0  0  0  0  0  0  0  0
   49.8246    5.0262   17.4163 C   0  0  0  0  0  0  0  0  0  0  0  0
   50.3418    6.2243   17.7295 F   0  0  0  0  0  0  0  0  0  0  0  0
   50.6016    3.8654   17.4991 C   0  0  0  0  0  0  0  0  0  0  0  0
   52.5982    2.8267   18.1622 O   0  0  0  0  0  0  0  0  0  0  0  0
   52.0319    3.8851   17.9245 C   0  0  0  0  0  0  0  0  0  0  0  0
   52.6264    5.1253   18.0092 N   0  0  0  0  0  0  0  0  0  0  0  0
   49.9906    2.6527   17.1559 C   0  0  0  0  0  0  0  0  0  0  0  0
   50.6659    1.4958   17.1865 F   0  0  0  0  0  0  0  0  0  0  0  0
   48.6564    2.5989   16.7538 C   0  0  0  0  0  0  0  0  0  0  0  0
   54.1930    6.7593   18.3550 N   0  0  0  0  0  0  0  0  0  0  0  0
   55.4603    7.1612   18.6352 C   0  0  0  0  0  0  0  0  0  0  0  0
   53.9505    5.4327   18.3310 C   0  0  0  0  0  0  0  0  0  0  0  0
   54.9344    4.4896   18.5976 C   0  0  0  0  0  0  0  0  0  0  0  0
   56.2275    4.9246   18.8857 C   0  0  0  0  0  0  0  0  0  0  0  0
   56.5041    6.2855   18.8943 C   0  0  0  0  0  0  0  0  0  0  0  0
   55.7180    8.6346   18.6512 C   0  0  0  0  0  0  0  0  0  0  0  0
   54.5029    9.5725   18.6219 C   0  0  0  0  0  0  0  0  0  0  0  0
   53.7396    9.5253   19.9494 C   0  0  0  0  0  0  0  0  0  0  0  0
   54.5203   10.1896   21.0925 C   0  0  0  0  0  0  0  0  0  0  0  0
   55.3271   11.3389   20.6695 N   0  0  0  0  0  0  0  0  0  0  0  0
   54.7999   11.9824   19.4693 C   0  0  0  0  0  0  0  0  0  0  0  0
   54.8861   11.0254   18.2749 C   0  0  0  0  0  0  0  0  0  0  0  0
   56.8830    9.0301   18.6725 O   0  0  0  0  0  0  0  0  0  0  0  0
   55.5209   12.2875   21.7584 C   0  0  0  0  0  0  0  0  0  0  0  0
   51.3278    6.7659   17.1098 O   0  0  0  0  0  0  0  0  0  0  0  0
   52.5450    7.0565   17.6007 C   0  0  0  0  0  0  0  0  0  0  0  0
   53.4236    7.4880   16.8757 O   0  0  0  0  0  0  0  0  0  0  0  0
   52.6271    6.7839   19.0770 C   0  0  0  0  0  0  0  0  0  0  0  0
   54.0529    6.9182   19.5932 C   0  0  0  0  0  0  0  0  0  0  0  0
   54.5902    8.3207   19.5360 C   0  0  0  0  0  0  0  0  0  0  0  0
   55.7598    8.6245   19.3791 O   0  0  0  0  0  0  0  0  0  0  0  0
   53.6708    9.2739   19.7836 O   0  0  0  0  0  0  0  0  0  0  0  0
   51.4176   -0.0788   17.4733 H   0  0  0  0  0  0  0  0  0  0  0  0
   52.5601    5.6741   18.5486 H   0  0  0  0  0  0  0  0  0  0  0  0
   54.9834    2.1710   18.2553 H   0  0  0  0  0  0  0  0  0  0  0  0
   48.9872    6.5819   17.8521 H   0  0  0  0  0  0  0  0  0  0  0  0
   48.2794    8.9202   18.1508 H   0  0  0  0  0  0  0  0  0  0  0  0
   49.9436   10.6207   18.9066 H   0  0  0  0  0  0  0  0  0  0  0  0
   53.9238    8.6649   20.1401 H   0  0  0  0  0  0  0  0  0  0  0  0
   55.3754    9.9117   21.3167 H   0  0  0  0  0  0  0  0  0  0  0  0
   54.0491   11.0505   21.3772 H   0  0  0  0  0  0  0  0  0  0  0  0
   54.9709   12.2209   19.3528 H   0  0  0  0  0  0  0  0  0  0  0  0
   56.0664   12.2570   20.7107 H   0  0  0  0  0  0  0  0  0  0  0  0
   56.5533    8.8510   19.1726 H   0  0  0  0  0  0  0  0  0  0  0  0
   56.7329    9.5603   17.5648 H   0  0  0  0  0  0  0  0  0  0  0  0
   54.3806   10.3601   17.6500 H   0  0  0  0  0  0  0  0  0  0  0  0
   54.4901    8.6200   17.8443 H   0  0  0  0  0  0  0  0  0  0  0  0
   57.8652   10.2078   20.6735 H   0  0  0  0  0  0  0  0  0  0  0  0
   58.6850   10.4563   19.1100 H   0  0  0  0  0  0  0  0  0  0  0  0
   58.2886   11.8464   20.1092 H   0  0  0  0  0  0  0  0  0  0  0  0
   47.9078    5.9015   16.9515 H   0  0  0  0  0  0  0  0  0  0  0  0
   52.0824    5.9616   17.8376 H   0  0  0  0  0  0  0  0  0  0  0  0
   48.2057    1.6477   16.4911 H   0  0  0  0  0  0  0  0  0  0  0  0
   54.7380    3.4252   18.5747 H   0  0  0  0  0  0  0  0  0  0  0  0
   57.0133    4.2022   19.0946 H   0  0  0  0  0  0  0  0  0  0  0  0
   57.5048    6.6489   19.1063 H   0  0  0  0  0  0  0  0  0  0  0  0
   53.8563    9.2152   17.8112 H   0  0  0  0  0  0  0  0  0  0  0  0
   52.7837   10.0515   19.8201 H   0  0  0  0  0  0  0  0  0  0  0  0
   53.4861    8.4996   20.2415 H   0  0  0  0  0  0  0  0  0  0  0  0
   55.1922    9.4492   21.5423 H   0  0  0  0  0  0  0  0  0  0  0  0
   53.7955   10.4679   21.8700 H   0  0  0  0  0  0  0  0  0  0  0  0
   53.7625   12.3110   19.6211 H   0  0  0  0  0  0  0  0  0  0  0  0
   55.3800   12.8803   19.2199 H   0  0  0  0  0  0  0  0  0  0  0  0
   54.1969   11.3945   17.5042 H   0  0  0  0  0  0  0  0  0  0  0  0
   55.8866   11.0800   17.8332 H   0  0  0  0  0  0  0  0  0  0  0  0
   55.9944   11.7924   22.6120 H   0  0  0  0  0  0  0  0  0  0  0  0
   56.1942   13.0962   21.4475 H   0  0  0  0  0  0  0  0  0  0  0  0
   54.5758   12.7311   22.0908 H   0  0  0  0  0  0  0  0  0  0  0  0
   51.3848    6.9965   16.1607 H   0  0  0  0  0  0  0  0  0  0  0  0
   52.2980    5.7533   19.2515 H   0  0  0  0  0  0  0  0  0  0  0  0
   51.9435    7.4628   19.5988 H   0  0  0  0  0  0  0  0  0  0  0  0
   54.0976    6.5959   20.6401 H   0  0  0  0  0  0  0  0  0  0  0  0
   54.7242    6.2743   19.0096 H   0  0  0  0  0  0  0  0  0  0  0  0
   54.1856   10.1053   19.7401 H   0  0  0  0  0  0  0  0  0  0  0  0
  1  2  1  0
  1 12  2  0
  3  1  1  0
  3  4  2  0
  4  6  1  0
  5  4  1  0
  7  8  2  0
  8  9  1  0
  8  6  1  0
  9 15  1  0
 10 11  1  0
 10  6  2  0
 12 10  1  0
 13 14  2  0
 14 18  1  0
 15 13  1  0
 15 16  2  0
 16 17  1  0
 18 17  2  0
 19 14  1  0
 19 20  1  0
 20 21  1  0
 21 22  1  0
 22 23  1  0
 23 24  1  0
 23 27  1  0
 24 25  1  0
 25 20  1  0
 26 19  2  0
 28 29  1  0
 28 39  2  0
 30 28  1  0
 30 31  2  0
 31 33  1  0
 32 31  1  0
 34 35  2  0
 35 36  1  0
 35 33  1  0
 36 42  1  0
 37 38  1  0
 37 33  2  0
 39 37  1  0
 40 41  2  0
 41 45  1  0
 42 40  1  0
 42 43  2  0
 43 44  1  0
 45 44  2  0
 46 41  1  0
 46 47  1  0
 47 48  1  0
 48 49  1  0
 49 50  1  0
 50 51  1  0
 50 54  1  0
 51 52  1  0
 52 47  1  0
 53 46  2  0
 55 56  1  0
 56 57  2  0
 56 58  1  0
 58 59  1  0
 59 60  1  0
 60 61  2  0
 60 62  1  0
  3 63  1  0
  9 64  1  0
 12 65  1  0
 16 66  1  0
 17 67  1  0
 18 68  1  0
 20 69  1  0
 21 70  1  0
 21 71  1  0
 22 72  1  0
 22 73  1  0
 24 74  1  0
 24 75  1  0
 25 76  1  0
 25 77  1  0
 27 78  1  0
 27 79  1  0
 27 80  1  0
 30 81  1  0
 36 82  1  0
 39 83  1  0
 43 84  1  0
 44 85  1  0
 45 86  1  0
 47 87  1  0
 48 88  1  0
 48 89  1  0
 49 90  1  0
 49 91  1  0
 51 92  1  0
 51 93  1  0
 52 94  1  0
 52 95  1  0
 54 96  1  0
 54 97  1  0
 54 98  1  0
 55 99  1  0
 58100  1  0
 58101  1  0
 59102  1  0
 59103  1  0
 62104  1  0
M  END
> <Uni-Dock RESULT> 
ENERGY=   -4.998  LOWER_BOUND=    5.978  UPPER_BOUND=    8.895
INTER + INTRA:          -4.998
INTER:                  -4.998
INTRA:                   0.000
UNBOUND:                 0.000

$$$$
