
     RDKit          3D

104107  0  0  0  0  0  0  0  0999 V2000
   52.0833    1.6495   17.7359 C   0  0  0  0  0  0  0  0  0  0  0  0
   52.8266    0.5418   17.8570 F   0  0  0  0  0  0  0  0  0  0  0  0
   50.7239    1.5387   17.4724 C   0  0  0  0  0  0  0  0  0  0  0  0
   49.9590    2.6964   17.3482 C   0  0  0  0  0  0  0  0  0  0  0  0
   48.6559    2.5575   17.0605 F   0  0  0  0  0  0  0  0  0  0  0  0
   50.5405    3.9617   17.4776 C   0  0  0  0  0  0  0  0  0  0  0  0
   48.5629    5.1384   17.8362 O   0  0  0  0  0  0  0  0  0  0  0  0
   49.6997    5.1752   17.3804 C   0  0  0  0  0  0  0  0  0  0  0  0
   50.2957    6.2546   16.7659 N   0  0  0  0  0  0  0  0  0  0  0  0
   51.9101    4.0433   17.7388 C   0  0  0  0  0  0  0  0  0  0  0  0
   52.5148    5.2336   17.8760 F   0  0  0  0  0  0  0  0  0  0  0  0
   52.6854    2.8939   17.8713 C   0  0  0  0  0  0  0  0  0  0  0  0
   50.6038    8.3474   15.8898 N   0  0  0  0  0  0  0  0  0  0  0  0
   50.1879    9.6180   15.6627 C   0  0  0  0  0  0  0  0  0  0  0  0
   49.7721    7.5342   16.5733 C   0  0  0  0  0  0  0  0  0  0  0  0
   48.5328    7.9508   17.0384 C   0  0  0  0  0  0  0  0  0  0  0  0
   48.1303    9.2631   16.8002 C   0  0  0  0  0  0  0  0  0  0  0  0
   48.9735   10.1208   16.1091 C   0  0  0  0  0  0  0  0  0  0  0  0
   51.1023   10.5028   14.8824 C   0  0  0  0  0  0  0  0  0  0  0  0
   52.2763    9.8632   14.1487 C   0  0  0  0  0  0  0  0  0  0  0  0
   52.4478   10.4807   12.7472 C   0  0  0  0  0  0  0  0  0  0  0  0
   53.9102   10.7551   12.3900 C   0  0  0  0  0  0  0  0  0  0  0  0
   54.7335    9.6211   12.8092 N   0  0  0  0  0  0  0  0  0  0  0  0
   54.7805    9.4745   14.2708 C   0  0  0  0  0  0  0  0  0  0  0  0
   53.5439   10.0240   14.9895 C   0  0  0  0  0  0  0  0  0  0  0  0
   50.8976   11.7175   14.8572 O   0  0  0  0  0  0  0  0  0  0  0  0
   56.0766    9.6846   12.2391 C   0  0  0  0  0  0  0  0  0  0  0  0
   54.6927   11.8776   10.6881 C   0  0  0  0  0  0  0  0  0  0  0  0
   55.3991   12.6717    9.8754 F   0  0  0  0  0  0  0  0  0  0  0  0
   53.6715   11.0978   10.1669 C   0  0  0  0  0  0  0  0  0  0  0  0
   52.9420   10.2736   11.0213 C   0  0  0  0  0  0  0  0  0  0  0  0
   51.9547    9.5407   10.4821 F   0  0  0  0  0  0  0  0  0  0  0  0
   53.2182   10.2080   12.3916 C   0  0  0  0  0  0  0  0  0  0  0  0
   52.9263    9.1026   14.4325 O   0  0  0  0  0  0  0  0  0  0  0  0
   52.4582    9.3219   13.3222 C   0  0  0  0  0  0  0  0  0  0  0  0
   51.2718    8.8007   12.8333 N   0  0  0  0  0  0  0  0  0  0  0  0
   54.2592   11.0062   12.8832 C   0  0  0  0  0  0  0  0  0  0  0  0
   54.5735   11.0278   14.1860 F   0  0  0  0  0  0  0  0  0  0  0  0
   54.9951   11.8389   12.0406 C   0  0  0  0  0  0  0  0  0  0  0  0
   50.5903    7.7516   14.8617 N   0  0  0  0  0  0  0  0  0  0  0  0
   49.7004    6.9772   15.5214 C   0  0  0  0  0  0  0  0  0  0  0  0
   50.3814    7.9958   13.5598 C   0  0  0  0  0  0  0  0  0  0  0  0
   49.2781    7.4845   12.8813 C   0  0  0  0  0  0  0  0  0  0  0  0
   48.3674    6.6867   13.5705 C   0  0  0  0  0  0  0  0  0  0  0  0
   48.5811    6.4220   14.9177 C   0  0  0  0  0  0  0  0  0  0  0  0
   49.9683    6.7255   16.9694 C   0  0  0  0  0  0  0  0  0  0  0  0
   51.2166    7.3571   17.5918 C   0  0  0  0  0  0  0  0  0  0  0  0
   52.4827    6.5917   17.1979 C   0  0  0  0  0  0  0  0  0  0  0  0
   52.6327    5.2803   17.9694 C   0  0  0  0  0  0  0  0  0  0  0  0
   52.6147    5.5190   19.4169 N   0  0  0  0  0  0  0  0  0  0  0  0
   51.3449    6.1296   19.8314 C   0  0  0  0  0  0  0  0  0  0  0  0
   51.1025    7.4617   19.1180 C   0  0  0  0  0  0  0  0  0  0  0  0
   49.1827    6.0252   17.6082 O   0  0  0  0  0  0  0  0  0  0  0  0
   52.8402    4.2688   20.1430 C   0  0  0  0  0  0  0  0  0  0  0  0
   53.0174    9.9181   14.5220 O   0  0  0  0  0  0  0  0  0  0  0  0
   52.6915    8.7350   13.9706 C   0  0  0  0  0  0  0  0  0  0  0  0
   52.4506    8.6462   12.7786 O   0  0  0  0  0  0  0  0  0  0  0  0
   52.6515    7.6230   14.9714 C   0  0  0  0  0  0  0  0  0  0  0  0
   51.4131    7.7450   15.8460 C   0  0  0  0  0  0  0  0  0  0  0  0
   51.3572    6.6313   16.8500 C   0  0  0  0  0  0  0  0  0  0  0  0
   52.1799    5.7484   17.0245 O   0  0  0  0  0  0  0  0  0  0  0  0
   50.2436    6.6925   17.6071 O   0  0  0  0  0  0  0  0  0  0  0  0
   50.2631    0.5625   17.3620 H   0  0  0  0  0  0  0  0  0  0  0  0
   51.2388    6.1739   16.4058 H   0  0  0  0  0  0  0  0  0  0  0  0
   53.7484    2.9697   18.0804 H   0  0  0  0  0  0  0  0  0  0  0  0
   47.8698    7.2935   17.5869 H   0  0  0  0  0  0  0  0  0  0  0  0
   47.1642    9.6092   17.1550 H   0  0  0  0  0  0  0  0  0  0  0  0
   48.6856   11.1501   15.9150 H   0  0  0  0  0  0  0  0  0  0  0  0
   52.0801    8.7939   14.0029 H   0  0  0  0  0  0  0  0  0  0  0  0
   52.0246    9.7798   12.0142 H   0  0  0  0  0  0  0  0  0  0  0  0
   51.8776   11.4091   12.6251 H   0  0  0  0  0  0  0  0  0  0  0  0
   53.9703   10.8968   11.3026 H   0  0  0  0  0  0  0  0  0  0  0  0
   54.2533   11.6877   12.8569 H   0  0  0  0  0  0  0  0  0  0  0  0
   54.8855    8.4070   14.4991 H   0  0  0  0  0  0  0  0  0  0  0  0
   55.6606    9.9735   14.6965 H   0  0  0  0  0  0  0  0  0  0  0  0
   53.7000   11.0880   15.2152 H   0  0  0  0  0  0  0  0  0  0  0  0
   53.4293    9.5201   15.9581 H   0  0  0  0  0  0  0  0  0  0  0  0
   56.0271    9.6839   11.1440 H   0  0  0  0  0  0  0  0  0  0  0  0
   56.6207   10.5825   12.5555 H   0  0  0  0  0  0  0  0  0  0  0  0
   56.6603    8.8025   12.5281 H   0  0  0  0  0  0  0  0  0  0  0  0
   53.4409   11.1395    9.1080 H   0  0  0  0  0  0  0  0  0  0  0  0
   51.0247    8.9768   11.8686 H   0  0  0  0  0  0  0  0  0  0  0  0
   55.7925   12.4531   12.4448 H   0  0  0  0  0  0  0  0  0  0  0  0
   49.1212    7.6862   11.8267 H   0  0  0  0  0  0  0  0  0  0  0  0
   47.4983    6.2771   13.0628 H   0  0  0  0  0  0  0  0  0  0  0  0
   47.8889    5.8044   15.4830 H   0  0  0  0  0  0  0  0  0  0  0  0
   51.2794    8.3848   17.2103 H   0  0  0  0  0  0  0  0  0  0  0  0
   53.3568    7.2263   17.3997 H   0  0  0  0  0  0  0  0  0  0  0  0
   52.4988    6.3732   16.1239 H   0  0  0  0  0  0  0  0  0  0  0  0
   53.5903    4.8291   17.6828 H   0  0  0  0  0  0  0  0  0  0  0  0
   51.8436    4.5769   17.6753 H   0  0  0  0  0  0  0  0  0  0  0  0
   50.5079    5.4430   19.6604 H   0  0  0  0  0  0  0  0  0  0  0  0
   51.3694    6.3270   20.9106 H   0  0  0  0  0  0  0  0  0  0  0  0
   51.8438    8.1895   19.4759 H   0  0  0  0  0  0  0  0  0  0  0  0
   50.1189    7.8536   19.4047 H   0  0  0  0  0  0  0  0  0  0  0  0
   52.8777    4.4532   21.2216 H   0  0  0  0  0  0  0  0  0  0  0  0
   53.8076    3.8350   19.8671 H   0  0  0  0  0  0  0  0  0  0  0  0
   52.0568    3.5283   19.9460 H   0  0  0  0  0  0  0  0  0  0  0  0
   53.0142   10.5462   13.7680 H   0  0  0  0  0  0  0  0  0  0  0  0
   53.5755    7.6413   15.5618 H   0  0  0  0  0  0  0  0  0  0  0  0
   52.6469    6.6720   14.4269 H   0  0  0  0  0  0  0  0  0  0  0  0
   51.4221    8.6974   16.3891 H   0  0  0  0  0  0  0  0  0  0  0  0
   50.5087    7.7043   15.2268 H   0  0  0  0  0  0  0  0  0  0  0  0
   50.3239    5.9284   18.2168 H   0  0  0  0  0  0  0  0  0  0  0  0
  1  2  1  0
  1 12  2  0
  3  1  1  0
  3  4  2  0
  4  6  1  0
  5  4  1  0
  7  8  2  0
  8  9  1  0
  8  6  1  0
  9 15  1  0
 10 11  1  0
 10  6  2  0
 12 10  1  0
 13 14  2  0
 14 18  1  0
 15 13  1  0
 15 16  2  0
 16 17  1  0
 18 17  2  0
 19 14  1  0
 19 20  1  0
 20 21  1  0
 21 22  1  0
 22 23  1  0
 23 24  1  0
 23 27  1  0
 24 25  1  0
 25 20  1  0
 26 19  2  0
 28 29  1  0
 28 39  2  0
 30 28  1  0
 30 31  2  0
 31 33  1  0
 32 31  1  0
 34 35  2  0
 35 36  1  0
 35 33  1  0
 36 42  1  0
 37 38  1  0
 37 33  2  0
 39 37  1  0
 40 41  2  0
 41 45  1  0
 42 40  1  0
 42 43  2  0
 43 44  1  0
 45 44  2  0
 46 41  1  0
 46 47  1  0
 47 48  1  0
 48 49  1  0
 49 50  1  0
 50 51  1  0
 50 54  1  0
 51 52  1  0
 52 47  1  0
 53 46  2  0
 55 56  1  0
 56 57  2  0
 56 58  1  0
 58 59  1  0
 59 60  1  0
 60 61  2  0
 60 62  1  0
  3 63  1  0
  9 64  1  0
 12 65  1  0
 16 66  1  0
 17 67  1  0
 18 68  1  0
 20 69  1  0
 21 70  1  0
 21 71  1  0
 22 72  1  0
 22 73  1  0
 24 74  1  0
 24 75  1  0
 25 76  1  0
 25 77  1  0
 27 78  1  0
 27 79  1  0
 27 80  1  0
 30 81  1  0
 36 82  1  0
 39 83  1  0
 43 84  1  0
 44 85  1  0
 45 86  1  0
 47 87  1  0
 48 88  1  0
 48 89  1  0
 49 90  1  0
 49 91  1  0
 51 92  1  0
 51 93  1  0
 52 94  1  0
 52 95  1  0
 54 96  1  0
 54 97  1  0
 54 98  1  0
 55 99  1  0
 58100  1  0
 58101  1  0
 59102  1  0
 59103  1  0
 62104  1  0
M  END
> <Uni-Dock RESULT> 
ENERGY=   -5.328  LOWER_BOUND=    0.000  UPPER_BOUND=    0.000
INTER + INTRA:          -5.328
INTER:                  -5.328
INTRA:                   0.000
UNBOUND:                 0.000

$$$$

     RDKit          3D

104107  0  0  0  0  0  0  0  0999 V2000
   45.0416    8.1309   11.9777 C   0  0  0  0  0  0  0  0  0  0  0  0
   44.1085    8.6665   11.1799 F   0  0  0  0  0  0  0  0  0  0  0  0
   44.9897    6.7764   12.2817 C   0  0  0  0  0  0  0  0  0  0  0  0
   45.9646    6.2282   13.1122 C   0  0  0  0  0  0  0  0  0  0  0  0
   45.8683    4.9246   13.4143 F   0  0  0  0  0  0  0  0  0  0  0  0
   46.9850    7.0214   13.6467 C   0  0  0  0  0  0  0  0  0  0  0  0
   48.4165    5.2771   14.2230 O   0  0  0  0  0  0  0  0  0  0  0  0
   48.0309    6.4080   14.4945 C   0  0  0  0  0  0  0  0  0  0  0  0
   48.4764    7.1916   15.5363 N   0  0  0  0  0  0  0  0  0  0  0  0
   47.0105    8.3808   13.3273 C   0  0  0  0  0  0  0  0  0  0  0  0
   47.9712    9.1834   13.8110 F   0  0  0  0  0  0  0  0  0  0  0  0
   46.0456    8.9405   12.4933 C   0  0  0  0  0  0  0  0  0  0  0  0
   49.6358    7.8730   17.3893 N   0  0  0  0  0  0  0  0  0  0  0  0
   50.5959    7.6895   18.3293 C   0  0  0  0  0  0  0  0  0  0  0  0
   49.4782    6.9033   16.4647 C   0  0  0  0  0  0  0  0  0  0  0  0
   50.2512    5.7509   16.4492 C   0  0  0  0  0  0  0  0  0  0  0  0
   51.2370    5.5881   17.4201 C   0  0  0  0  0  0  0  0  0  0  0  0
   51.4249    6.5770   18.3746 C   0  0  0  0  0  0  0  0  0  0  0  0
   50.7453    8.7544   19.3645 C   0  0  0  0  0  0  0  0  0  0  0  0
   49.6478    9.8064   19.4841 C   0  0  0  0  0  0  0  0  0  0  0  0
   49.3304   10.1006   20.9631 C   0  0  0  0  0  0  0  0  0  0  0  0
   49.1486   11.5926   21.2501 C   0  0  0  0  0  0  0  0  0  0  0  0
   48.3524   12.1988   20.1834 N   0  0  0  0  0  0  0  0  0  0  0  0
   49.0561   12.2018   18.8932 C   0  0  0  0  0  0  0  0  0  0  0  0
   50.0805   11.0725   18.7427 C   0  0  0  0  0  0  0  0  0  0  0  0
   51.7454    8.7665   20.0840 O   0  0  0  0  0  0  0  0  0  0  0  0
   47.8952   13.5389   20.5413 C   0  0  0  0  0  0  0  0  0  0  0  0
   48.9864   12.5804   23.1909 C   0  0  0  0  0  0  0  0  0  0  0  0
   49.0725   13.4250   24.2250 F   0  0  0  0  0  0  0  0  0  0  0  0
   48.1985   11.4443   23.2975 C   0  0  0  0  0  0  0  0  0  0  0  0
   48.1148   10.5713   22.2148 C   0  0  0  0  0  0  0  0  0  0  0  0
   47.3501    9.4771   22.3586 F   0  0  0  0  0  0  0  0  0  0  0  0
   48.8009   10.8153   21.0199 C   0  0  0  0  0  0  0  0  0  0  0  0
   49.1016   10.3093   18.7558 O   0  0  0  0  0  0  0  0  0  0  0  0
   48.7144    9.9003   19.8433 C   0  0  0  0  0  0  0  0  0  0  0  0
   48.1776    8.6468   20.0853 N   0  0  0  0  0  0  0  0  0  0  0  0
   49.5842   11.9743   20.9457 C   0  0  0  0  0  0  0  0  0  0  0  0
   50.2975   12.2719   19.8506 F   0  0  0  0  0  0  0  0  0  0  0  0
   49.6806   12.8551   22.0226 C   0  0  0  0  0  0  0  0  0  0  0  0
   48.5707    7.7674   17.9055 N   0  0  0  0  0  0  0  0  0  0  0  0
   48.4391    6.7474   17.0285 C   0  0  0  0  0  0  0  0  0  0  0  0
   48.0591    7.6202   19.1364 C   0  0  0  0  0  0  0  0  0  0  0  0
   47.4113    6.4525   19.5309 C   0  0  0  0  0  0  0  0  0  0  0  0
   47.2802    5.4076   18.6188 C   0  0  0  0  0  0  0  0  0  0  0  0
   47.8003    5.5554   17.3388 C   0  0  0  0  0  0  0  0  0  0  0  0
   49.0193    6.9496   15.6667 C   0  0  0  0  0  0  0  0  0  0  0  0
   49.7130    8.2819   15.3695 C   0  0  0  0  0  0  0  0  0  0  0  0
   48.6934    9.3986   15.1291 C   0  0  0  0  0  0  0  0  0  0  0  0
   48.0459    9.3066   13.7472 C   0  0  0  0  0  0  0  0  0  0  0  0
   49.0634    9.3135   12.6903 N   0  0  0  0  0  0  0  0  0  0  0  0
   49.9695    8.1658   12.8278 C   0  0  0  0  0  0  0  0  0  0  0  0
   50.6796    8.1697   14.1835 C   0  0  0  0  0  0  0  0  0  0  0  0
   48.9216    6.0457   14.8367 O   0  0  0  0  0  0  0  0  0  0  0  0
   48.4293    9.3071   11.3716 C   0  0  0  0  0  0  0  0  0  0  0  0
   49.8020   10.5412   19.1262 O   0  0  0  0  0  0  0  0  0  0  0  0
   48.5736   10.0191   18.9571 C   0  0  0  0  0  0  0  0  0  0  0  0
   47.8585    9.7807   19.9155 O   0  0  0  0  0  0  0  0  0  0  0  0
   48.2441    9.7725   17.5182 C   0  0  0  0  0  0  0  0  0  0  0  0
   49.0103    8.5644   17.0014 C   0  0  0  0  0  0  0  0  0  0  0  0
   48.6834    8.3017   15.5607 C   0  0  0  0  0  0  0  0  0  0  0  0
   47.9522    8.9544   14.8354 O   0  0  0  0  0  0  0  0  0  0  0  0
   49.3163    7.2072   15.0932 O   0  0  0  0  0  0  0  0  0  0  0  0
   44.1981    6.1526   11.8794 H   0  0  0  0  0  0  0  0  0  0  0  0
   48.0765    8.1102   15.6846 H   0  0  0  0  0  0  0  0  0  0  0  0
   46.0791    9.9977   12.2471 H   0  0  0  0  0  0  0  0  0  0  0  0
   50.1203    4.9763   15.7041 H   0  0  0  0  0  0  0  0  0  0  0  0
   51.8526    4.6937   17.4264 H   0  0  0  0  0  0  0  0  0  0  0  0
   52.1901    6.4768   19.1390 H   0  0  0  0  0  0  0  0  0  0  0  0
   48.7241    9.4273   19.0301 H   0  0  0  0  0  0  0  0  0  0  0  0
   48.4038    9.5696   21.2227 H   0  0  0  0  0  0  0  0  0  0  0  0
   50.0934    9.7038   21.6430 H   0  0  0  0  0  0  0  0  0  0  0  0
   48.6384   11.6896   22.2177 H   0  0  0  0  0  0  0  0  0  0  0  0
   50.1234   12.0885   21.3474 H   0  0  0  0  0  0  0  0  0  0  0  0
   48.3045   12.1149   18.0992 H   0  0  0  0  0  0  0  0  0  0  0  0
   49.5813   13.1507   18.7243 H   0  0  0  0  0  0  0  0  0  0  0  0
   51.0508   11.4103   19.1322 H   0  0  0  0  0  0  0  0  0  0  0  0
   50.2368   10.8595   17.6771 H   0  0  0  0  0  0  0  0  0  0  0  0
   47.2801   13.5032   21.4480 H   0  0  0  0  0  0  0  0  0  0  0  0
   48.7285   14.2285   20.7213 H   0  0  0  0  0  0  0  0  0  0  0  0
   47.2625   13.9551   19.7483 H   0  0  0  0  0  0  0  0  0  0  0  0
   47.6635   11.2374   24.2178 H   0  0  0  0  0  0  0  0  0  0  0  0
   47.8072    8.4461   21.0048 H   0  0  0  0  0  0  0  0  0  0  0  0
   50.2986   13.7430   21.9446 H   0  0  0  0  0  0  0  0  0  0  0  0
   46.9983    6.3460   20.5288 H   0  0  0  0  0  0  0  0  0  0  0  0
   46.7796    4.4862   18.9038 H   0  0  0  0  0  0  0  0  0  0  0  0
   47.7151    4.7587   16.6051 H   0  0  0  0  0  0  0  0  0  0  0  0
   50.3222    8.5288   16.2490 H   0  0  0  0  0  0  0  0  0  0  0  0
   49.2026   10.3680   15.2207 H   0  0  0  0  0  0  0  0  0  0  0  0
   47.9045    9.3888   15.8899 H   0  0  0  0  0  0  0  0  0  0  0  0
   47.3848   10.1735   13.6272 H   0  0  0  0  0  0  0  0  0  0  0  0
   47.4168    8.4098   13.6840 H   0  0  0  0  0  0  0  0  0  0  0  0
   49.4304    7.2234   12.6779 H   0  0  0  0  0  0  0  0  0  0  0  0
   50.7386    8.2116   12.0465 H   0  0  0  0  0  0  0  0  0  0  0  0
   51.3712    9.0230   14.2131 H   0  0  0  0  0  0  0  0  0  0  0  0
   51.2961    7.2669   14.2733 H   0  0  0  0  0  0  0  0  0  0  0  0
   49.1858    9.3636   10.5820 H   0  0  0  0  0  0  0  0  0  0  0  0
   47.7871   10.1866   11.2514 H   0  0  0  0  0  0  0  0  0  0  0  0
   47.8245    8.4083   11.2071 H   0  0  0  0  0  0  0  0  0  0  0  0
   49.8846   10.6574   20.0971 H   0  0  0  0  0  0  0  0  0  0  0  0
   48.4665   10.6781   16.9411 H   0  0  0  0  0  0  0  0  0  0  0  0
   47.1638    9.6075   17.4374 H   0  0  0  0  0  0  0  0  0  0  0  0
   50.0904    8.7341   17.0836 H   0  0  0  0  0  0  0  0  0  0  0  0
   48.7507    7.6743   17.5875 H   0  0  0  0  0  0  0  0  0  0  0  0
   49.0309    7.1447   14.1569 H   0  0  0  0  0  0  0  0  0  0  0  0
  1  2  1  0
  1 12  2  0
  3  1  1  0
  3  4  2  0
  4  6  1  0
  5  4  1  0
  7  8  2  0
  8  9  1  0
  8  6  1  0
  9 15  1  0
 10 11  1  0
 10  6  2  0
 12 10  1  0
 13 14  2  0
 14 18  1  0
 15 13  1  0
 15 16  2  0
 16 17  1  0
 18 17  2  0
 19 14  1  0
 19 20  1  0
 20 21  1  0
 21 22  1  0
 22 23  1  0
 23 24  1  0
 23 27  1  0
 24 25  1  0
 25 20  1  0
 26 19  2  0
 28 29  1  0
 28 39  2  0
 30 28  1  0
 30 31  2  0
 31 33  1  0
 32 31  1  0
 34 35  2  0
 35 36  1  0
 35 33  1  0
 36 42  1  0
 37 38  1  0
 37 33  2  0
 39 37  1  0
 40 41  2  0
 41 45  1  0
 42 40  1  0
 42 43  2  0
 43 44  1  0
 45 44  2  0
 46 41  1  0
 46 47  1  0
 47 48  1  0
 48 49  1  0
 49 50  1  0
 50 51  1  0
 50 54  1  0
 51 52  1  0
 52 47  1  0
 53 46  2  0
 55 56  1  0
 56 57  2  0
 56 58  1  0
 58 59  1  0
 59 60  1  0
 60 61  2  0
 60 62  1  0
  3 63  1  0
  9 64  1  0
 12 65  1  0
 16 66  1  0
 17 67  1  0
 18 68  1  0
 20 69  1  0
 21 70  1  0
 21 71  1  0
 22 72  1  0
 22 73  1  0
 24 74  1  0
 24 75  1  0
 25 76  1  0
 25 77  1  0
 27 78  1  0
 27 79  1  0
 27 80  1  0
 30 81  1  0
 36 82  1  0
 39 83  1  0
 43 84  1  0
 44 85  1  0
 45 86  1  0
 47 87  1  0
 48 88  1  0
 48 89  1  0
 49 90  1  0
 49 91  1  0
 51 92  1  0
 51 93  1  0
 52 94  1  0
 52 95  1  0
 54 96  1  0
 54 97  1  0
 54 98  1  0
 55 99  1  0
 58100  1  0
 58101  1  0
 59102  1  0
 59103  1  0
 62104  1  0
M  END
> <Uni-Dock RESULT> 
ENERGY=   -5.234  LOWER_BOUND=    3.956  UPPER_BOUND=    7.692
INTER + INTRA:          -5.234
INTER:                  -5.234
INTRA:                   0.000
UNBOUND:                 0.000

$$$$

     RDKit          3D

104107  0  0  0  0  0  0  0  0999 V2000
   46.2763   15.1380   14.2948 C   0  0  0  0  0  0  0  0  0  0  0  0
   45.2767   15.9666   14.6238 F   0  0  0  0  0  0  0  0  0  0  0  0
   46.5727   14.9175   12.9557 C   0  0  0  0  0  0  0  0  0  0  0  0
   47.6141   14.0541   12.6231 C   0  0  0  0  0  0  0  0  0  0  0  0
   47.8544   13.8357   11.3214 F   0  0  0  0  0  0  0  0  0  0  0  0
   48.3562   13.4045   13.6148 C   0  0  0  0  0  0  0  0  0  0  0  0
   50.1700   12.8319   12.2709 O   0  0  0  0  0  0  0  0  0  0  0  0
   49.4826   12.5228   13.2370 C   0  0  0  0  0  0  0  0  0  0  0  0
   49.6476   11.4087   14.0303 N   0  0  0  0  0  0  0  0  0  0  0  0
   48.0338   13.6419   14.9529 C   0  0  0  0  0  0  0  0  0  0  0  0
   48.7186   13.0466   15.9417 F   0  0  0  0  0  0  0  0  0  0  0  0
   46.9991   14.5074   15.2995 C   0  0  0  0  0  0  0  0  0  0  0  0
   50.4849    9.4428   14.8528 N   0  0  0  0  0  0  0  0  0  0  0  0
   51.4088    8.4503   14.8589 C   0  0  0  0  0  0  0  0  0  0  0  0
   50.6404   10.4309   13.9475 C   0  0  0  0  0  0  0  0  0  0  0  0
   51.6931   10.4592   13.0437 C   0  0  0  0  0  0  0  0  0  0  0  0
   52.6347    9.4328   13.0742 C   0  0  0  0  0  0  0  0  0  0  0  0
   52.5016    8.4118   14.0038 C   0  0  0  0  0  0  0  0  0  0  0  0
   51.2142    7.3471   15.8454 C   0  0  0  0  0  0  0  0  0  0  0  0
   49.8707    7.2436   16.5595 C   0  0  0  0  0  0  0  0  0  0  0  0
   49.4098    5.7758   16.6486 C   0  0  0  0  0  0  0  0  0  0  0  0
   48.8212    5.4161   18.0145 C   0  0  0  0  0  0  0  0  0  0  0  0
   47.9483    6.4988   18.4675 N   0  0  0  0  0  0  0  0  0  0  0  0
   48.6916    7.7343   18.7518 C   0  0  0  0  0  0  0  0  0  0  0  0
   49.9871    7.8782   17.9464 C   0  0  0  0  0  0  0  0  0  0  0  0
   52.1359    6.5599   16.0667 O   0  0  0  0  0  0  0  0  0  0  0  0
   47.1316    6.0966   19.6094 C   0  0  0  0  0  0  0  0  0  0  0  0
   48.3002    3.4373   18.7773 C   0  0  0  0  0  0  0  0  0  0  0  0
   48.1036    2.3525   19.5352 F   0  0  0  0  0  0  0  0  0  0  0  0
   47.8403    3.4522   17.4692 C   0  0  0  0  0  0  0  0  0  0  0  0
   48.0494    4.5869   16.6882 C   0  0  0  0  0  0  0  0  0  0  0  0
   47.5986    4.5606   15.4237 F   0  0  0  0  0  0  0  0  0  0  0  0
   48.7064    5.7148   17.1925 C   0  0  0  0  0  0  0  0  0  0  0  0
   49.2486    7.9779   16.9537 O   0  0  0  0  0  0  0  0  0  0  0  0
   48.9288    6.9456   16.3773 C   0  0  0  0  0  0  0  0  0  0  0  0
   48.7348    6.8149   15.0123 N   0  0  0  0  0  0  0  0  0  0  0  0
   49.1540    5.6667   18.5189 C   0  0  0  0  0  0  0  0  0  0  0  0
   49.8177    6.6901   19.0746 F   0  0  0  0  0  0  0  0  0  0  0  0
   48.9554    4.5363   19.3113 C   0  0  0  0  0  0  0  0  0  0  0  0
   49.4614    9.0092   14.4324 N   0  0  0  0  0  0  0  0  0  0  0  0
   49.6530    9.9511   13.4820 C   0  0  0  0  0  0  0  0  0  0  0  0
   48.9446    7.8277   14.0644 C   0  0  0  0  0  0  0  0  0  0  0  0
   48.6130    7.5479   12.7413 C   0  0  0  0  0  0  0  0  0  0  0  0
   48.8136    8.5260   11.7698 C   0  0  0  0  0  0  0  0  0  0  0  0
   49.3409    9.7558   12.1442 C   0  0  0  0  0  0  0  0  0  0  0  0
   50.2279   11.2549   13.9307 C   0  0  0  0  0  0  0  0  0  0  0  0
   50.5546   11.4252   15.4170 C   0  0  0  0  0  0  0  0  0  0  0  0
   49.2875   11.6709   16.2405 C   0  0  0  0  0  0  0  0  0  0  0  0
   48.7608   13.0977   16.0846 C   0  0  0  0  0  0  0  0  0  0  0  0
   49.7929   14.0787   16.4379 N   0  0  0  0  0  0  0  0  0  0  0  0
   50.9644   13.9451   15.5622 C   0  0  0  0  0  0  0  0  0  0  0  0
   51.5763   12.5452   15.6519 C   0  0  0  0  0  0  0  0  0  0  0  0
   50.4187   12.1408   13.0974 O   0  0  0  0  0  0  0  0  0  0  0  0
   49.2529   15.4367   16.3631 C   0  0  0  0  0  0  0  0  0  0  0  0
   49.8412    7.5466   17.3335 O   0  0  0  0  0  0  0  0  0  0  0  0
   48.8076    7.8311   16.5206 C   0  0  0  0  0  0  0  0  0  0  0  0
   48.1335    6.9405   16.0315 O   0  0  0  0  0  0  0  0  0  0  0  0
   48.6313    9.3014   16.3039 C   0  0  0  0  0  0  0  0  0  0  0  0
   49.7183    9.8326   15.3821 C   0  0  0  0  0  0  0  0  0  0  0  0
   49.5488   11.3055   15.1508 C   0  0  0  0  0  0  0  0  0  0  0  0
   48.7084   12.0410   15.6401 O   0  0  0  0  0  0  0  0  0  0  0  0
   50.4746   11.7903   14.2994 O   0  0  0  0  0  0  0  0  0  0  0  0
   45.9987   15.4096   12.1773 H   0  0  0  0  0  0  0  0  0  0  0  0
   49.0095   11.2356   14.7975 H   0  0  0  0  0  0  0  0  0  0  0  0
   46.7615   14.6889   16.3435 H   0  0  0  0  0  0  0  0  0  0  0  0
   51.8129   11.2553   12.3197 H   0  0  0  0  0  0  0  0  0  0  0  0
   53.4658    9.4355   12.3755 H   0  0  0  0  0  0  0  0  0  0  0  0
   53.2250    7.6029   14.0518 H   0  0  0  0  0  0  0  0  0  0  0  0
   49.1068    7.7822   15.9855 H   0  0  0  0  0  0  0  0  0  0  0  0
   48.6468    5.6129   15.8746 H   0  0  0  0  0  0  0  0  0  0  0  0
   50.2148    5.0685   16.4172 H   0  0  0  0  0  0  0  0  0  0  0  0
   48.2541    4.4824   17.9014 H   0  0  0  0  0  0  0  0  0  0  0  0
   49.6215    5.2222   18.7408 H   0  0  0  0  0  0  0  0  0  0  0  0
   48.0329    8.5826   18.5295 H   0  0  0  0  0  0  0  0  0  0  0  0
   48.9521    7.8108   19.8153 H   0  0  0  0  0  0  0  0  0  0  0  0
   50.8101    7.4029   18.4977 H   0  0  0  0  0  0  0  0  0  0  0  0
   50.2497    8.9408   17.8621 H   0  0  0  0  0  0  0  0  0  0  0  0
   46.5022    5.2387   19.3456 H   0  0  0  0  0  0  0  0  0  0  0  0
   47.7397    5.8191   20.4786 H   0  0  0  0  0  0  0  0  0  0  0  0
   46.4527    6.9063   19.9023 H   0  0  0  0  0  0  0  0  0  0  0  0
   47.3330    2.5850   17.0607 H   0  0  0  0  0  0  0  0  0  0  0  0
   48.3844    5.9367   14.6532 H   0  0  0  0  0  0  0  0  0  0  0  0
   49.3167    4.5193   20.3339 H   0  0  0  0  0  0  0  0  0  0  0  0
   48.1922    6.5892   12.4558 H   0  0  0  0  0  0  0  0  0  0  0  0
   48.5634    8.3307   10.7305 H   0  0  0  0  0  0  0  0  0  0  0  0
   49.5100   10.5387   11.4101 H   0  0  0  0  0  0  0  0  0  0  0  0
   51.0291   10.4924   15.7493 H   0  0  0  0  0  0  0  0  0  0  0  0
   49.5135   11.4879   17.3002 H   0  0  0  0  0  0  0  0  0  0  0  0
   48.4915   10.9689   15.9668 H   0  0  0  0  0  0  0  0  0  0  0  0
   47.8992   13.2131   16.7534 H   0  0  0  0  0  0  0  0  0  0  0  0
   48.3985   13.2566   15.0612 H   0  0  0  0  0  0  0  0  0  0  0  0
   50.7055   14.1868   14.5250 H   0  0  0  0  0  0  0  0  0  0  0  0
   51.7328   14.6668   15.8670 H   0  0  0  0  0  0  0  0  0  0  0  0
   52.0121   12.4179   16.6525 H   0  0  0  0  0  0  0  0  0  0  0  0
   52.4061   12.4651   14.9391 H   0  0  0  0  0  0  0  0  0  0  0  0
   50.0067   16.1669   16.6754 H   0  0  0  0  0  0  0  0  0  0  0  0
   48.4061   15.5502   17.0490 H   0  0  0  0  0  0  0  0  0  0  0  0
   48.9198   15.6949   15.3517 H   0  0  0  0  0  0  0  0  0  0  0  0
   49.8392    6.5671   17.3946 H   0  0  0  0  0  0  0  0  0  0  0  0
   48.6331    9.8080   17.2765 H   0  0  0  0  0  0  0  0  0  0  0  0
   47.6401    9.4669   15.8668 H   0  0  0  0  0  0  0  0  0  0  0  0
   50.7078    9.6655   15.8234 H   0  0  0  0  0  0  0  0  0  0  0  0
   49.6760    9.3187   14.4140 H   0  0  0  0  0  0  0  0  0  0  0  0
   50.2653   12.7464   14.2340 H   0  0  0  0  0  0  0  0  0  0  0  0
  1  2  1  0
  1 12  2  0
  3  1  1  0
  3  4  2  0
  4  6  1  0
  5  4  1  0
  7  8  2  0
  8  9  1  0
  8  6  1  0
  9 15  1  0
 10 11  1  0
 10  6  2  0
 12 10  1  0
 13 14  2  0
 14 18  1  0
 15 13  1  0
 15 16  2  0
 16 17  1  0
 18 17  2  0
 19 14  1  0
 19 20  1  0
 20 21  1  0
 21 22  1  0
 22 23  1  0
 23 24  1  0
 23 27  1  0
 24 25  1  0
 25 20  1  0
 26 19  2  0
 28 29  1  0
 28 39  2  0
 30 28  1  0
 30 31  2  0
 31 33  1  0
 32 31  1  0
 34 35  2  0
 35 36  1  0
 35 33  1  0
 36 42  1  0
 37 38  1  0
 37 33  2  0
 39 37  1  0
 40 41  2  0
 41 45  1  0
 42 40  1  0
 42 43  2  0
 43 44  1  0
 45 44  2  0
 46 41  1  0
 46 47  1  0
 47 48  1  0
 48 49  1  0
 49 50  1  0
 50 51  1  0
 50 54  1  0
 51 52  1  0
 52 47  1  0
 53 46  2  0
 55 56  1  0
 56 57  2  0
 56 58  1  0
 58 59  1  0
 59 60  1  0
 60 61  2  0
 60 62  1  0
  3 63  1  0
  9 64  1  0
 12 65  1  0
 16 66  1  0
 17 67  1  0
 18 68  1  0
 20 69  1  0
 21 70  1  0
 21 71  1  0
 22 72  1  0
 22 73  1  0
 24 74  1  0
 24 75  1  0
 25 76  1  0
 25 77  1  0
 27 78  1  0
 27 79  1  0
 27 80  1  0
 30 81  1  0
 36 82  1  0
 39 83  1  0
 43 84  1  0
 44 85  1  0
 45 86  1  0
 47 87  1  0
 48 88  1  0
 48 89  1  0
 49 90  1  0
 49 91  1  0
 51 92  1  0
 51 93  1  0
 52 94  1  0
 52 95  1  0
 54 96  1  0
 54 97  1  0
 54 98  1  0
 55 99  1  0
 58100  1  0
 58101  1  0
 59102  1  0
 59103  1  0
 62104  1  0
M  END
> <Uni-Dock RESULT> 
ENERGY=   -5.219  LOWER_BOUND=    3.087  UPPER_BOUND=    8.400
INTER + INTRA:          -5.219
INTER:                  -5.219
INTRA:                   0.000
UNBOUND:                 0.000

$$$$

     RDKit          3D

104107  0  0  0  0  0  0  0  0999 V2000
   46.2768   15.1350   14.2782 C   0  0  0  0  0  0  0  0  0  0  0  0
   45.2765   15.9636   14.6051 F   0  0  0  0  0  0  0  0  0  0  0  0
   46.5749   14.9131   12.9397 C   0  0  0  0  0  0  0  0  0  0  0  0
   47.6171   14.0498   12.6094 C   0  0  0  0  0  0  0  0  0  0  0  0
   47.8590   13.8300   11.3082 F   0  0  0  0  0  0  0  0  0  0  0  0
   48.3583   13.4017   13.6027 C   0  0  0  0  0  0  0  0  0  0  0  0
   50.1740   12.8283   12.2616 O   0  0  0  0  0  0  0  0  0  0  0  0
   49.4855   12.5200   13.2272 C   0  0  0  0  0  0  0  0  0  0  0  0
   49.6501   11.4069   14.0220 N   0  0  0  0  0  0  0  0  0  0  0  0
   48.0342   13.6405   14.9401 C   0  0  0  0  0  0  0  0  0  0  0  0
   48.7181   13.0465   15.9304 F   0  0  0  0  0  0  0  0  0  0  0  0
   46.9987   14.5059   15.2844 C   0  0  0  0  0  0  0  0  0  0  0  0
   50.4872    9.4423   14.8477 N   0  0  0  0  0  0  0  0  0  0  0  0
   51.4116    8.4502   14.8561 C   0  0  0  0  0  0  0  0  0  0  0  0
   50.6434   10.4295   13.9415 C   0  0  0  0  0  0  0  0  0  0  0  0
   51.6972   10.4571   13.0389 C   0  0  0  0  0  0  0  0  0  0  0  0
   52.6392    9.4313   13.0717 C   0  0  0  0  0  0  0  0  0  0  0  0
   52.5054    8.4112   14.0023 C   0  0  0  0  0  0  0  0  0  0  0  0
   51.2163    7.3480   15.8436 C   0  0  0  0  0  0  0  0  0  0  0  0
   49.8720    7.2448   16.5562 C   0  0  0  0  0  0  0  0  0  0  0  0
   49.4116    5.7769   16.6465 C   0  0  0  0  0  0  0  0  0  0  0  0
   48.8215    5.4185   18.0120 C   0  0  0  0  0  0  0  0  0  0  0  0
   47.9476    6.5013   18.4628 N   0  0  0  0  0  0  0  0  0  0  0  0
   48.6901    7.7375   18.7465 C   0  0  0  0  0  0  0  0  0  0  0  0
   49.9864    7.8811   17.9425 C   0  0  0  0  0  0  0  0  0  0  0  0
   52.1380    6.5616   16.0669 O   0  0  0  0  0  0  0  0  0  0  0  0
   47.1297    6.1001   19.6042 C   0  0  0  0  0  0  0  0  0  0  0  0
   48.3005    3.4404   18.7765 C   0  0  0  0  0  0  0  0  0  0  0  0
   48.1035    2.3563   19.5354 F   0  0  0  0  0  0  0  0  0  0  0  0
   47.8422    3.4535   17.4679 C   0  0  0  0  0  0  0  0  0  0  0  0
   48.0517    4.5874   16.6857 C   0  0  0  0  0  0  0  0  0  0  0  0
   47.6024    4.5595   15.4208 F   0  0  0  0  0  0  0  0  0  0  0  0
   48.7075    5.7162   17.1895 C   0  0  0  0  0  0  0  0  0  0  0  0
   49.2490    7.9792   16.9489 O   0  0  0  0  0  0  0  0  0  0  0  0
   48.9304    6.9462   16.3733 C   0  0  0  0  0  0  0  0  0  0  0  0
   48.7381    6.8138   15.0081 N   0  0  0  0  0  0  0  0  0  0  0  0
   49.1537    5.6698   18.5166 C   0  0  0  0  0  0  0  0  0  0  0  0
   49.8162    6.6941   19.0719 F   0  0  0  0  0  0  0  0  0  0  0  0
   48.9546    4.5402   19.3100 C   0  0  0  0  0  0  0  0  0  0  0  0
   49.4645    9.0078   14.4266 N   0  0  0  0  0  0  0  0  0  0  0  0
   49.6567    9.9487   13.4754 C   0  0  0  0  0  0  0  0  0  0  0  0
   48.9486    7.8257   14.0594 C   0  0  0  0  0  0  0  0  0  0  0  0
   48.6187    7.5442   12.7362 C   0  0  0  0  0  0  0  0  0  0  0  0
   48.8200    8.5213   11.7638 C   0  0  0  0  0  0  0  0  0  0  0  0
   49.3464    9.7518   12.1374 C   0  0  0  0  0  0  0  0  0  0  0  0
   50.2306   11.2532   13.9233 C   0  0  0  0  0  0  0  0  0  0  0  0
   50.5554   11.4253   15.4097 C   0  0  0  0  0  0  0  0  0  0  0  0
   49.2872   11.6715   16.2315 C   0  0  0  0  0  0  0  0  0  0  0  0
   48.7601   13.0979   16.0733 C   0  0  0  0  0  0  0  0  0  0  0  0
   49.7913   14.0798   16.4267 N   0  0  0  0  0  0  0  0  0  0  0  0
   50.9639   13.9456   15.5526 C   0  0  0  0  0  0  0  0  0  0  0  0
   51.5763   12.5461   15.6445 C   0  0  0  0  0  0  0  0  0  0  0  0
   50.4219   12.1383   13.0892 O   0  0  0  0  0  0  0  0  0  0  0  0
   49.2509   15.4374   16.3497 C   0  0  0  0  0  0  0  0  0  0  0  0
   49.8414    7.5486   17.3298 O   0  0  0  0  0  0  0  0  0  0  0  0
   48.8087    7.8318   16.5154 C   0  0  0  0  0  0  0  0  0  0  0  0
   48.1355    6.9403   16.0265 O   0  0  0  0  0  0  0  0  0  0  0  0
   48.6319    9.3018   16.2967 C   0  0  0  0  0  0  0  0  0  0  0  0
   49.7198    9.8324   15.3757 C   0  0  0  0  0  0  0  0  0  0  0  0
   49.5499   11.3049   15.1424 C   0  0  0  0  0  0  0  0  0  0  0  0
   48.7086   12.0406   15.6300 O   0  0  0  0  0  0  0  0  0  0  0  0
   50.4766   11.7892   14.2917 O   0  0  0  0  0  0  0  0  0  0  0  0
   46.0016   15.4041   12.1601 H   0  0  0  0  0  0  0  0  0  0  0  0
   49.0111   11.2344   14.7886 H   0  0  0  0  0  0  0  0  0  0  0  0
   46.7598   14.6885   16.3280 H   0  0  0  0  0  0  0  0  0  0  0  0
   51.8175   11.2525   12.3141 H   0  0  0  0  0  0  0  0  0  0  0  0
   53.4711    9.4335   12.3740 H   0  0  0  0  0  0  0  0  0  0  0  0
   53.2291    7.6027   14.0521 H   0  0  0  0  0  0  0  0  0  0  0  0
   49.1085    7.7824   15.9807 H   0  0  0  0  0  0  0  0  0  0  0  0
   48.6496    5.6127   15.8718 H   0  0  0  0  0  0  0  0  0  0  0  0
   50.2172    5.0696   16.4168 H   0  0  0  0  0  0  0  0  0  0  0  0
   48.2550    4.4845   17.8994 H   0  0  0  0  0  0  0  0  0  0  0  0
   49.6210    5.2258   18.7395 H   0  0  0  0  0  0  0  0  0  0  0  0
   48.0312    8.5852   18.5225 H   0  0  0  0  0  0  0  0  0  0  0  0
   48.9492    7.8153   19.8103 H   0  0  0  0  0  0  0  0  0  0  0  0
   50.8090    7.4067   18.4954 H   0  0  0  0  0  0  0  0  0  0  0  0
   50.2487    8.9437   17.8574 H   0  0  0  0  0  0  0  0  0  0  0  0
   46.5010    5.2416   19.3406 H   0  0  0  0  0  0  0  0  0  0  0  0
   47.7369    5.8238   20.4744 H   0  0  0  0  0  0  0  0  0  0  0  0
   46.4501    6.9099   19.8953 H   0  0  0  0  0  0  0  0  0  0  0  0
   47.3357    2.5857   17.0597 H   0  0  0  0  0  0  0  0  0  0  0  0
   48.3885    5.9351   14.6496 H   0  0  0  0  0  0  0  0  0  0  0  0
   49.3146    4.5246   20.3330 H   0  0  0  0  0  0  0  0  0  0  0  0
   48.1987    6.5849   12.4513 H   0  0  0  0  0  0  0  0  0  0  0  0
   48.5711    8.3247   10.7245 H   0  0  0  0  0  0  0  0  0  0  0  0
   49.5160   10.5338   11.4026 H   0  0  0  0  0  0  0  0  0  0  0  0
   51.0299   10.4931   15.7436 H   0  0  0  0  0  0  0  0  0  0  0  0
   49.5120   11.4898   17.2917 H   0  0  0  0  0  0  0  0  0  0  0  0
   48.4919   10.9688   15.9576 H   0  0  0  0  0  0  0  0  0  0  0  0
   47.8977   13.2136   16.7409 H   0  0  0  0  0  0  0  0  0  0  0  0
   48.3990   13.2555   15.0493 H   0  0  0  0  0  0  0  0  0  0  0  0
   50.7062   14.1860   14.5148 H   0  0  0  0  0  0  0  0  0  0  0  0
   51.7316   14.6681   15.8574 H   0  0  0  0  0  0  0  0  0  0  0  0
   52.0110   12.4201   16.6458 H   0  0  0  0  0  0  0  0  0  0  0  0
   52.4071   12.4656   14.9328 H   0  0  0  0  0  0  0  0  0  0  0  0
   50.0040   16.1683   16.6620 H   0  0  0  0  0  0  0  0  0  0  0  0
   48.4032   15.5513   17.0344 H   0  0  0  0  0  0  0  0  0  0  0  0
   48.9188   15.6943   15.3376 H   0  0  0  0  0  0  0  0  0  0  0  0
   49.8398    6.5693   17.3921 H   0  0  0  0  0  0  0  0  0  0  0  0
   48.6324    9.8094   17.2688 H   0  0  0  0  0  0  0  0  0  0  0  0
   47.6412    9.4663   15.8583 H   0  0  0  0  0  0  0  0  0  0  0  0
   50.7089    9.6662   15.8184 H   0  0  0  0  0  0  0  0  0  0  0  0
   49.6789    9.3174   14.4081 H   0  0  0  0  0  0  0  0  0  0  0  0
   50.2670   12.7451   14.2249 H   0  0  0  0  0  0  0  0  0  0  0  0
  1  2  1  0
  1 12  2  0
  3  1  1  0
  3  4  2  0
  4  6  1  0
  5  4  1  0
  7  8  2  0
  8  9  1  0
  8  6  1  0
  9 15  1  0
 10 11  1  0
 10  6  2  0
 12 10  1  0
 13 14  2  0
 14 18  1  0
 15 13  1  0
 15 16  2  0
 16 17  1  0
 18 17  2  0
 19 14  1  0
 19 20  1  0
 20 21  1  0
 21 22  1  0
 22 23  1  0
 23 24  1  0
 23 27  1  0
 24 25  1  0
 25 20  1  0
 26 19  2  0
 28 29  1  0
 28 39  2  0
 30 28  1  0
 30 31  2  0
 31 33  1  0
 32 31  1  0
 34 35  2  0
 35 36  1  0
 35 33  1  0
 36 42  1  0
 37 38  1  0
 37 33  2  0
 39 37  1  0
 40 41  2  0
 41 45  1  0
 42 40  1  0
 42 43  2  0
 43 44  1  0
 45 44  2  0
 46 41  1  0
 46 47  1  0
 47 48  1  0
 48 49  1  0
 49 50  1  0
 50 51  1  0
 50 54  1  0
 51 52  1  0
 52 47  1  0
 53 46  2  0
 55 56  1  0
 56 57  2  0
 56 58  1  0
 58 59  1  0
 59 60  1  0
 60 61  2  0
 60 62  1  0
  3 63  1  0
  9 64  1  0
 12 65  1  0
 16 66  1  0
 17 67  1  0
 18 68  1  0
 20 69  1  0
 21 70  1  0
 21 71  1  0
 22 72  1  0
 22 73  1  0
 24 74  1  0
 24 75  1  0
 25 76  1  0
 25 77  1  0
 27 78  1  0
 27 79  1  0
 27 80  1  0
 30 81  1  0
 36 82  1  0
 39 83  1  0
 43 84  1  0
 44 85  1  0
 45 86  1  0
 47 87  1  0
 48 88  1  0
 48 89  1  0
 49 90  1  0
 49 91  1  0
 51 92  1  0
 51 93  1  0
 52 94  1  0
 52 95  1  0
 54 96  1  0
 54 97  1  0
 54 98  1  0
 55 99  1  0
 58100  1  0
 58101  1  0
 59102  1  0
 59103  1  0
 62104  1  0
M  END
> <Uni-Dock RESULT> 
ENERGY=   -5.217  LOWER_BOUND=    3.086  UPPER_BOUND=    8.400
INTER + INTRA:          -5.217
INTER:                  -5.217
INTRA:                   0.000
UNBOUND:                 0.000

$$$$

     RDKit          3D

104107  0  0  0  0  0  0  0  0999 V2000
   44.9988    7.1767   11.6058 C   0  0  0  0  0  0  0  0  0  0  0  0
   43.9797    6.4143   11.1881 F   0  0  0  0  0  0  0  0  0  0  0  0
   44.8163    8.5459   11.7535 C   0  0  0  0  0  0  0  0  0  0  0  0
   45.8820    9.3306   12.1885 C   0  0  0  0  0  0  0  0  0  0  0  0
   45.6844   10.6538   12.2893 F   0  0  0  0  0  0  0  0  0  0  0  0
   47.1282    8.7616   12.4698 C   0  0  0  0  0  0  0  0  0  0  0  0
   47.9650   10.5371   13.7234 O   0  0  0  0  0  0  0  0  0  0  0  0
   48.2330    9.6104   12.9678 C   0  0  0  0  0  0  0  0  0  0  0  0
   49.4878    9.2656   12.5158 N   0  0  0  0  0  0  0  0  0  0  0  0
   47.2842    7.3830   12.3089 C   0  0  0  0  0  0  0  0  0  0  0  0
   48.4586    6.7883   12.5700 F   0  0  0  0  0  0  0  0  0  0  0  0
   46.2255    6.5859   11.8806 C   0  0  0  0  0  0  0  0  0  0  0  0
   51.7535    9.2963   12.1877 N   0  0  0  0  0  0  0  0  0  0  0  0
   52.9901    9.7863   12.4520 C   0  0  0  0  0  0  0  0  0  0  0  0
   50.7131    9.8465   12.8472 C   0  0  0  0  0  0  0  0  0  0  0  0
   50.8686   10.8753   13.7653 C   0  0  0  0  0  0  0  0  0  0  0  0
   52.1494   11.3571   14.0267 C   0  0  0  0  0  0  0  0  0  0  0  0
   53.2358   10.7993   13.3687 C   0  0  0  0  0  0  0  0  0  0  0  0
   54.1323    9.1905   11.6981 C   0  0  0  0  0  0  0  0  0  0  0  0
   53.8226    8.3065   10.4947 C   0  0  0  0  0  0  0  0  0  0  0  0
   54.7854    8.6099    9.3304 C   0  0  0  0  0  0  0  0  0  0  0  0
   55.2913    7.3476    8.6288 C   0  0  0  0  0  0  0  0  0  0  0  0
   54.1808    6.4124    8.4515 N   0  0  0  0  0  0  0  0  0  0  0  0
   53.6790    5.8914    9.7307 C   0  0  0  0  0  0  0  0  0  0  0  0
   53.8991    6.8379   10.9153 C   0  0  0  0  0  0  0  0  0  0  0  0
   55.2865    9.4144   12.0666 O   0  0  0  0  0  0  0  0  0  0  0  0
   54.5245    5.3281    7.5354 C   0  0  0  0  0  0  0  0  0  0  0  0
   56.8791    7.1797    7.1390 C   0  0  0  0  0  0  0  0  0  0  0  0
   57.9205    6.7896    6.3951 F   0  0  0  0  0  0  0  0  0  0  0  0
   56.1524    8.3005    6.7669 C   0  0  0  0  0  0  0  0  0  0  0  0
   55.0693    8.6984    7.5478 C   0  0  0  0  0  0  0  0  0  0  0  0
   54.3958    9.7937    7.1614 F   0  0  0  0  0  0  0  0  0  0  0  0
   54.6922    7.9916    8.6952 C   0  0  0  0  0  0  0  0  0  0  0  0
   53.0872    7.5859   10.3480 O   0  0  0  0  0  0  0  0  0  0  0  0
   53.5272    8.3926    9.5384 C   0  0  0  0  0  0  0  0  0  0  0  0
   53.0242    9.6637    9.3164 N   0  0  0  0  0  0  0  0  0  0  0  0
   55.4460    6.8622    9.0394 C   0  0  0  0  0  0  0  0  0  0  0  0
   55.1737    6.1428   10.1371 F   0  0  0  0  0  0  0  0  0  0  0  0
   56.5351    6.4545    8.2695 C   0  0  0  0  0  0  0  0  0  0  0  0
   51.4359    9.6315   11.0928 N   0  0  0  0  0  0  0  0  0  0  0  0
   50.4326   10.2453   11.7590 C   0  0  0  0  0  0  0  0  0  0  0  0
   51.9749   10.2557   10.0353 C   0  0  0  0  0  0  0  0  0  0  0  0
   51.5374   11.5099    9.6175 C   0  0  0  0  0  0  0  0  0  0  0  0
   50.5020   12.1333   10.3106 C   0  0  0  0  0  0  0  0  0  0  0  0
   49.9326   11.4895   11.4024 C   0  0  0  0  0  0  0  0  0  0  0  0
   49.8561    9.5178   12.9295 C   0  0  0  0  0  0  0  0  0  0  0  0
   50.4385    8.1468   13.2842 C   0  0  0  0  0  0  0  0  0  0  0  0
   49.9322    7.0631   12.3283 C   0  0  0  0  0  0  0  0  0  0  0  0
   48.4926    6.6473   12.6316 C   0  0  0  0  0  0  0  0  0  0  0  0
   48.3584    6.1993   14.0221 N   0  0  0  0  0  0  0  0  0  0  0  0
   48.7101    7.2769   14.9560 C   0  0  0  0  0  0  0  0  0  0  0  0
   50.1455    7.7617   14.7399 C   0  0  0  0  0  0  0  0  0  0  0  0
   48.9403   10.0409   13.5646 O   0  0  0  0  0  0  0  0  0  0  0  0
   46.9968    5.7279   14.2771 C   0  0  0  0  0  0  0  0  0  0  0  0
   53.8593    7.4855   10.6222 O   0  0  0  0  0  0  0  0  0  0  0  0
   52.8244    7.9511    9.8995 C   0  0  0  0  0  0  0  0  0  0  0  0
   53.0121    8.5639    8.8621 O   0  0  0  0  0  0  0  0  0  0  0  0
   51.4995    7.6442   10.5241 C   0  0  0  0  0  0  0  0  0  0  0  0
   51.2691    8.5340   11.7359 C   0  0  0  0  0  0  0  0  0  0  0  0
   49.9400    8.2411   12.3679 C   0  0  0  0  0  0  0  0  0  0  0  0
   49.1323    7.3904   12.0353 O   0  0  0  0  0  0  0  0  0  0  0  0
   49.6935    9.0500   13.4176 O   0  0  0  0  0  0  0  0  0  0  0  0
   43.8563    8.9997   11.5306 H   0  0  0  0  0  0  0  0  0  0  0  0
   49.5985    8.4888   11.8754 H   0  0  0  0  0  0  0  0  0  0  0  0
   46.3570    5.5141   11.7649 H   0  0  0  0  0  0  0  0  0  0  0  0
   50.0296   11.3126   14.2919 H   0  0  0  0  0  0  0  0  0  0  0  0
   52.2932   12.1620   14.7410 H   0  0  0  0  0  0  0  0  0  0  0  0
   54.2452   11.1531   13.5585 H   0  0  0  0  0  0  0  0  0  0  0  0
   52.8093    8.5199   10.1329 H   0  0  0  0  0  0  0  0  0  0  0  0
   54.2500    9.2352    8.6023 H   0  0  0  0  0  0  0  0  0  0  0  0
   55.6501    9.2057    9.6454 H   0  0  0  0  0  0  0  0  0  0  0  0
   55.7060    7.6459    7.6567 H   0  0  0  0  0  0  0  0  0  0  0  0
   56.1080    6.8887    9.2015 H   0  0  0  0  0  0  0  0  0  0  0  0
   52.6051    5.6987    9.6181 H   0  0  0  0  0  0  0  0  0  0  0  0
   54.1445    4.9300    9.9834 H   0  0  0  0  0  0  0  0  0  0  0  0
   54.8831    6.6364   11.3609 H   0  0  0  0  0  0  0  0  0  0  0  0
   53.1599    6.6230   11.6980 H   0  0  0  0  0  0  0  0  0  0  0  0
   54.7926    5.7300    6.5514 H   0  0  0  0  0  0  0  0  0  0  0  0
   55.3664    4.7272    7.8994 H   0  0  0  0  0  0  0  0  0  0  0  0
   53.6639    4.6664    7.3810 H   0  0  0  0  0  0  0  0  0  0  0  0
   56.4335    8.8627    5.8831 H   0  0  0  0  0  0  0  0  0  0  0  0
   53.4092   10.2135    8.5598 H   0  0  0  0  0  0  0  0  0  0  0  0
   57.1083    5.5804    8.5591 H   0  0  0  0  0  0  0  0  0  0  0  0
   51.9790   12.0040    8.7581 H   0  0  0  0  0  0  0  0  0  0  0  0
   50.1442   13.1124   10.0040 H   0  0  0  0  0  0  0  0  0  0  0  0
   49.1245   11.9498   11.9640 H   0  0  0  0  0  0  0  0  0  0  0  0
   51.5297    8.2297   13.1946 H   0  0  0  0  0  0  0  0  0  0  0  0
   50.5837    6.1825   12.4152 H   0  0  0  0  0  0  0  0  0  0  0  0
   49.9922    7.3922   11.2846 H   0  0  0  0  0  0  0  0  0  0  0  0
   48.2297    5.8263   11.9535 H   0  0  0  0  0  0  0  0  0  0  0  0
   47.8068    7.4762   12.4157 H   0  0  0  0  0  0  0  0  0  0  0  0
   48.0046    8.1115   14.8717 H   0  0  0  0  0  0  0  0  0  0  0  0
   48.6326    6.9074   15.9864 H   0  0  0  0  0  0  0  0  0  0  0  0
   50.8338    6.9577   15.0352 H   0  0  0  0  0  0  0  0  0  0  0  0
   50.3484    8.6061   15.4099 H   0  0  0  0  0  0  0  0  0  0  0  0
   46.9084    5.3460   15.2995 H   0  0  0  0  0  0  0  0  0  0  0  0
   46.7491    4.8945   13.6106 H   0  0  0  0  0  0  0  0  0  0  0  0
   46.2517    6.5192   14.1382 H   0  0  0  0  0  0  0  0  0  0  0  0
   54.6522    7.7444   10.1052 H   0  0  0  0  0  0  0  0  0  0  0  0
   51.4657    6.5792   10.7835 H   0  0  0  0  0  0  0  0  0  0  0  0
   50.7198    7.8078    9.7716 H   0  0  0  0  0  0  0  0  0  0  0  0
   52.0509    8.3667   12.4861 H   0  0  0  0  0  0  0  0  0  0  0  0
   51.2905    9.5895   11.4382 H   0  0  0  0  0  0  0  0  0  0  0  0
   48.8138    8.7625   13.7426 H   0  0  0  0  0  0  0  0  0  0  0  0
  1  2  1  0
  1 12  2  0
  3  1  1  0
  3  4  2  0
  4  6  1  0
  5  4  1  0
  7  8  2  0
  8  9  1  0
  8  6  1  0
  9 15  1  0
 10 11  1  0
 10  6  2  0
 12 10  1  0
 13 14  2  0
 14 18  1  0
 15 13  1  0
 15 16  2  0
 16 17  1  0
 18 17  2  0
 19 14  1  0
 19 20  1  0
 20 21  1  0
 21 22  1  0
 22 23  1  0
 23 24  1  0
 23 27  1  0
 24 25  1  0
 25 20  1  0
 26 19  2  0
 28 29  1  0
 28 39  2  0
 30 28  1  0
 30 31  2  0
 31 33  1  0
 32 31  1  0
 34 35  2  0
 35 36  1  0
 35 33  1  0
 36 42  1  0
 37 38  1  0
 37 33  2  0
 39 37  1  0
 40 41  2  0
 41 45  1  0
 42 40  1  0
 42 43  2  0
 43 44  1  0
 45 44  2  0
 46 41  1  0
 46 47  1  0
 47 48  1  0
 48 49  1  0
 49 50  1  0
 50 51  1  0
 50 54  1  0
 51 52  1  0
 52 47  1  0
 53 46  2  0
 55 56  1  0
 56 57  2  0
 56 58  1  0
 58 59  1  0
 59 60  1  0
 60 61  2  0
 60 62  1  0
  3 63  1  0
  9 64  1  0
 12 65  1  0
 16 66  1  0
 17 67  1  0
 18 68  1  0
 20 69  1  0
 21 70  1  0
 21 71  1  0
 22 72  1  0
 22 73  1  0
 24 74  1  0
 24 75  1  0
 25 76  1  0
 25 77  1  0
 27 78  1  0
 27 79  1  0
 27 80  1  0
 30 81  1  0
 36 82  1  0
 39 83  1  0
 43 84  1  0
 44 85  1  0
 45 86  1  0
 47 87  1  0
 48 88  1  0
 48 89  1  0
 49 90  1  0
 49 91  1  0
 51 92  1  0
 51 93  1  0
 52 94  1  0
 52 95  1  0
 54 96  1  0
 54 97  1  0
 54 98  1  0
 55 99  1  0
 58100  1  0
 58101  1  0
 59102  1  0
 59103  1  0
 62104  1  0
M  END
> <Uni-Dock RESULT> 
ENERGY=   -4.885  LOWER_BOUND=    3.919  UPPER_BOUND=    6.183
INTER + INTRA:          -4.885
INTER:                  -4.885
INTRA:                   0.000
UNBOUND:                 0.000

$$$$

     RDKit          3D

104107  0  0  0  0  0  0  0  0999 V2000
   50.2897   15.0401   19.8072 C   0  0  0  0  0  0  0  0  0  0  0  0
   50.8158   16.0729   19.1358 F   0  0  0  0  0  0  0  0  0  0  0  0
   50.1666   15.1109   21.1891 C   0  0  0  0  0  0  0  0  0  0  0  0
   49.6182   14.0319   21.8788 C   0  0  0  0  0  0  0  0  0  0  0  0
   49.5433   14.1166   23.2156 F   0  0  0  0  0  0  0  0  0  0  0  0
   49.1991   12.8819   21.2020 C   0  0  0  0  0  0  0  0  0  0  0  0
   47.8650   12.0283   22.9096 O   0  0  0  0  0  0  0  0  0  0  0  0
   48.5839   11.7653   21.9528 C   0  0  0  0  0  0  0  0  0  0  0  0
   48.8932   10.5054   21.4892 N   0  0  0  0  0  0  0  0  0  0  0  0
   49.3382   12.8368   19.8131 C   0  0  0  0  0  0  0  0  0  0  0  0
   48.9471   11.7580   19.1170 F   0  0  0  0  0  0  0  0  0  0  0  0
   49.8792   13.9108   19.1105 C   0  0  0  0  0  0  0  0  0  0  0  0
   48.9683    8.2242   21.3088 N   0  0  0  0  0  0  0  0  0  0  0  0
   48.5699    6.9845   21.6873 C   0  0  0  0  0  0  0  0  0  0  0  0
   48.4296    9.2758   21.9600 C   0  0  0  0  0  0  0  0  0  0  0  0
   47.5025    9.1283   22.9820 C   0  0  0  0  0  0  0  0  0  0  0  0
   47.1021    7.8451   23.3482 C   0  0  0  0  0  0  0  0  0  0  0  0
   47.6342    6.7489   22.6852 C   0  0  0  0  0  0  0  0  0  0  0  0
   49.1911    5.8259   20.9803 C   0  0  0  0  0  0  0  0  0  0  0  0
   50.4192    6.0813   20.1130 C   0  0  0  0  0  0  0  0  0  0  0  0
   51.4704    4.9723   20.3124 C   0  0  0  0  0  0  0  0  0  0  0  0
   52.1084    4.5107   19.0004 C   0  0  0  0  0  0  0  0  0  0  0  0
   52.4053    5.6763   18.1683 N   0  0  0  0  0  0  0  0  0  0  0  0
   51.1882    6.3618   17.7115 C   0  0  0  0  0  0  0  0  0  0  0  0
   49.9889    6.1871   18.6489 C   0  0  0  0  0  0  0  0  0  0  0  0
   48.6976    4.7036   21.1026 O   0  0  0  0  0  0  0  0  0  0  0  0
   53.2748    5.3352   17.0456 C   0  0  0  0  0  0  0  0  0  0  0  0
   53.4126    2.7908   18.6694 C   0  0  0  0  0  0  0  0  0  0  0  0
   54.0356    1.7142   18.1764 F   0  0  0  0  0  0  0  0  0  0  0  0
   53.8659    3.3658   19.8470 C   0  0  0  0  0  0  0  0  0  0  0  0
   53.2107    4.4870   20.3519 C   0  0  0  0  0  0  0  0  0  0  0  0
   53.6722    5.0101   21.4991 F   0  0  0  0  0  0  0  0  0  0  0  0
   52.1104    5.0516   19.6972 C   0  0  0  0  0  0  0  0  0  0  0  0
   50.6446    6.8593   19.4607 O   0  0  0  0  0  0  0  0  0  0  0  0
   51.4025    6.2604   20.2135 C   0  0  0  0  0  0  0  0  0  0  0  0
   51.6821    6.6168   21.5223 N   0  0  0  0  0  0  0  0  0  0  0  0
   51.6820    4.4475   18.5082 C   0  0  0  0  0  0  0  0  0  0  0  0
   50.6194    4.9041   17.8307 F   0  0  0  0  0  0  0  0  0  0  0  0
   52.3255    3.3225   17.9930 C   0  0  0  0  0  0  0  0  0  0  0  0
   50.0925    8.3872   21.6577 N   0  0  0  0  0  0  0  0  0  0  0  0
   49.5432    9.3968   22.3689 C   0  0  0  0  0  0  0  0  0  0  0  0
   51.0854    7.6799   22.2167 C   0  0  0  0  0  0  0  0  0  0  0  0
   51.5523    7.9513   23.5001 C   0  0  0  0  0  0  0  0  0  0  0  0
   50.9798    8.9948   24.2241 C   0  0  0  0  0  0  0  0  0  0  0  0
   49.9561    9.7378   23.6489 C   0  0  0  0  0  0  0  0  0  0  0  0
   48.4419   10.1633   21.7120 C   0  0  0  0  0  0  0  0  0  0  0  0
   48.0214    9.7522   20.2982 C   0  0  0  0  0  0  0  0  0  0  0  0
   49.0247   10.2478   19.2532 C   0  0  0  0  0  0  0  0  0  0  0  0
   48.8818   11.7442   18.9743 C   0  0  0  0  0  0  0  0  0  0  0  0
   47.5135   12.0713   18.5581 N   0  0  0  0  0  0  0  0  0  0  0  0
   46.5492   11.7269   19.6110 C   0  0  0  0  0  0  0  0  0  0  0  0
   46.6061   10.2379   19.9600 C   0  0  0  0  0  0  0  0  0  0  0  0
   47.9135   11.0913   22.3245 O   0  0  0  0  0  0  0  0  0  0  0  0
   47.4097   13.4903   18.2162 C   0  0  0  0  0  0  0  0  0  0  0  0
   50.2863    6.1346   19.2937 O   0  0  0  0  0  0  0  0  0  0  0  0
   51.1204    7.0363   19.8426 C   0  0  0  0  0  0  0  0  0  0  0  0
   52.1322    6.6800   20.4224 O   0  0  0  0  0  0  0  0  0  0  0  0
   50.6457    8.4446   19.6658 C   0  0  0  0  0  0  0  0  0  0  0  0
   49.4691    8.7241   20.5883 C   0  0  0  0  0  0  0  0  0  0  0  0
   48.9876   10.1359   20.4260 C   0  0  0  0  0  0  0  0  0  0  0  0
   49.4054   10.9770   19.6483 O   0  0  0  0  0  0  0  0  0  0  0  0
   47.9736   10.4210   21.2673 O   0  0  0  0  0  0  0  0  0  0  0  0
   50.4957   15.9947   21.7258 H   0  0  0  0  0  0  0  0  0  0  0  0
   49.5154   10.3969   20.6975 H   0  0  0  0  0  0  0  0  0  0  0  0
   49.9769   13.8666   18.0297 H   0  0  0  0  0  0  0  0  0  0  0  0
   47.0732    9.9763   23.5007 H   0  0  0  0  0  0  0  0  0  0  0  0
   46.3782    7.7074   24.1457 H   0  0  0  0  0  0  0  0  0  0  0  0
   47.3346    5.7383   22.9479 H   0  0  0  0  0  0  0  0  0  0  0  0
   50.8915    7.0247   20.4133 H   0  0  0  0  0  0  0  0  0  0  0  0
   52.2549    5.3645   20.9746 H   0  0  0  0  0  0  0  0  0  0  0  0
   51.0631    4.0964   20.8307 H   0  0  0  0  0  0  0  0  0  0  0  0
   53.0294    3.9658   19.2473 H   0  0  0  0  0  0  0  0  0  0  0  0
   51.4476    3.8077   18.4762 H   0  0  0  0  0  0  0  0  0  0  0  0
   51.4186    7.4298   17.6162 H   0  0  0  0  0  0  0  0  0  0  0  0
   50.8831    6.0174   16.7150 H   0  0  0  0  0  0  0  0  0  0  0  0
   49.4365    5.2809   18.3642 H   0  0  0  0  0  0  0  0  0  0  0  0
   49.2924    7.0247   18.5124 H   0  0  0  0  0  0  0  0  0  0  0  0
   54.2241    4.9245   17.4088 H   0  0  0  0  0  0  0  0  0  0  0  0
   52.8183    4.5974   16.3750 H   0  0  0  0  0  0  0  0  0  0  0  0
   53.5220    6.2308   16.4632 H   0  0  0  0  0  0  0  0  0  0  0  0
   54.7145    2.9385   20.3699 H   0  0  0  0  0  0  0  0  0  0  0  0
   52.3928    6.1018   22.0249 H   0  0  0  0  0  0  0  0  0  0  0  0
   51.9719    2.8676   17.0740 H   0  0  0  0  0  0  0  0  0  0  0  0
   52.3587    7.3742   23.9409 H   0  0  0  0  0  0  0  0  0  0  0  0
   51.3266    9.2250   25.2278 H   0  0  0  0  0  0  0  0  0  0  0  0
   49.4887   10.5570   24.1881 H   0  0  0  0  0  0  0  0  0  0  0  0
   47.9897    8.6548   20.2801 H   0  0  0  0  0  0  0  0  0  0  0  0
   48.8639    9.6937   18.3179 H   0  0  0  0  0  0  0  0  0  0  0  0
   50.0562   10.0432   19.5621 H   0  0  0  0  0  0  0  0  0  0  0  0
   49.5827   12.0053   18.1722 H   0  0  0  0  0  0  0  0  0  0  0  0
   49.1744   12.3228   19.8595 H   0  0  0  0  0  0  0  0  0  0  0  0
   46.7133   12.3389   20.5053 H   0  0  0  0  0  0  0  0  0  0  0  0
   45.5328   11.9510   19.2633 H   0  0  0  0  0  0  0  0  0  0  0  0
   46.2344    9.6632   19.1004 H   0  0  0  0  0  0  0  0  0  0  0  0
   45.9199   10.0330   20.7908 H   0  0  0  0  0  0  0  0  0  0  0  0
   46.4025   13.7256   17.8570 H   0  0  0  0  0  0  0  0  0  0  0  0
   48.0975   13.7388   17.4005 H   0  0  0  0  0  0  0  0  0  0  0  0
   47.6324   14.1396   19.0704 H   0  0  0  0  0  0  0  0  0  0  0  0
   50.7130    5.2692   19.4726 H   0  0  0  0  0  0  0  0  0  0  0  0
   50.3889    8.6047   18.6117 H   0  0  0  0  0  0  0  0  0  0  0  0
   51.4803    9.1183   19.8903 H   0  0  0  0  0  0  0  0  0  0  0  0
   48.6365    8.0484   20.3599 H   0  0  0  0  0  0  0  0  0  0  0  0
   49.7653    8.5729   21.6336 H   0  0  0  0  0  0  0  0  0  0  0  0
   47.7473   11.3538   21.0653 H   0  0  0  0  0  0  0  0  0  0  0  0
  1  2  1  0
  1 12  2  0
  3  1  1  0
  3  4  2  0
  4  6  1  0
  5  4  1  0
  7  8  2  0
  8  9  1  0
  8  6  1  0
  9 15  1  0
 10 11  1  0
 10  6  2  0
 12 10  1  0
 13 14  2  0
 14 18  1  0
 15 13  1  0
 15 16  2  0
 16 17  1  0
 18 17  2  0
 19 14  1  0
 19 20  1  0
 20 21  1  0
 21 22  1  0
 22 23  1  0
 23 24  1  0
 23 27  1  0
 24 25  1  0
 25 20  1  0
 26 19  2  0
 28 29  1  0
 28 39  2  0
 30 28  1  0
 30 31  2  0
 31 33  1  0
 32 31  1  0
 34 35  2  0
 35 36  1  0
 35 33  1  0
 36 42  1  0
 37 38  1  0
 37 33  2  0
 39 37  1  0
 40 41  2  0
 41 45  1  0
 42 40  1  0
 42 43  2  0
 43 44  1  0
 45 44  2  0
 46 41  1  0
 46 47  1  0
 47 48  1  0
 48 49  1  0
 49 50  1  0
 50 51  1  0
 50 54  1  0
 51 52  1  0
 52 47  1  0
 53 46  2  0
 55 56  1  0
 56 57  2  0
 56 58  1  0
 58 59  1  0
 59 60  1  0
 60 61  2  0
 60 62  1  0
  3 63  1  0
  9 64  1  0
 12 65  1  0
 16 66  1  0
 17 67  1  0
 18 68  1  0
 20 69  1  0
 21 70  1  0
 21 71  1  0
 22 72  1  0
 22 73  1  0
 24 74  1  0
 24 75  1  0
 25 76  1  0
 25 77  1  0
 27 78  1  0
 27 79  1  0
 27 80  1  0
 30 81  1  0
 36 82  1  0
 39 83  1  0
 43 84  1  0
 44 85  1  0
 45 86  1  0
 47 87  1  0
 48 88  1  0
 48 89  1  0
 49 90  1  0
 49 91  1  0
 51 92  1  0
 51 93  1  0
 52 94  1  0
 52 95  1  0
 54 96  1  0
 54 97  1  0
 54 98  1  0
 55 99  1  0
 58100  1  0
 58101  1  0
 59102  1  0
 59103  1  0
 62104  1  0
M  END
> <Uni-Dock RESULT> 
ENERGY=   -4.740  LOWER_BOUND=    4.839  UPPER_BOUND=    8.865
INTER + INTRA:          -4.740
INTER:                  -4.740
INTRA:                   0.000
UNBOUND:                 0.000

$$$$

     RDKit          3D

104107  0  0  0  0  0  0  0  0999 V2000
   39.4750   13.8554   15.6224 C   0  0  0  0  0  0  0  0  0  0  0  0
   39.1000   14.2235   16.8545 F   0  0  0  0  0  0  0  0  0  0  0  0
   38.8402   12.7868   15.0021 C   0  0  0  0  0  0  0  0  0  0  0  0
   39.2369   12.4113   13.7206 C   0  0  0  0  0  0  0  0  0  0  0  0
   38.6280   11.3547   13.1614 F   0  0  0  0  0  0  0  0  0  0  0  0
   40.2655   13.0883   13.0573 C   0  0  0  0  0  0  0  0  0  0  0  0
   39.7598   12.3268   10.9153 O   0  0  0  0  0  0  0  0  0  0  0  0
   40.6421   12.6954   11.6816 C   0  0  0  0  0  0  0  0  0  0  0  0
   41.9864   12.7826   11.3933 N   0  0  0  0  0  0  0  0  0  0  0  0
   40.8886   14.1565   13.7064 C   0  0  0  0  0  0  0  0  0  0  0  0
   41.8776   14.8410   13.1110 F   0  0  0  0  0  0  0  0  0  0  0  0
   40.4977   14.5462   14.9851 C   0  0  0  0  0  0  0  0  0  0  0  0
   43.9664   12.6630   10.2499 N   0  0  0  0  0  0  0  0  0  0  0  0
   44.6769   12.4462    9.1154 C   0  0  0  0  0  0  0  0  0  0  0  0
   42.6261   12.5265   10.1793 C   0  0  0  0  0  0  0  0  0  0  0  0
   41.9699   12.1780    9.0073 C   0  0  0  0  0  0  0  0  0  0  0  0
   42.7200   11.9682    7.8522 C   0  0  0  0  0  0  0  0  0  0  0  0
   44.0988   12.1137    7.8980 C   0  0  0  0  0  0  0  0  0  0  0  0
   46.1612   12.5728    9.2088 C   0  0  0  0  0  0  0  0  0  0  0  0
   46.7962   12.6378   10.5938 C   0  0  0  0  0  0  0  0  0  0  0  0
   48.0762   11.7815   10.6498 C   0  0  0  0  0  0  0  0  0  0  0  0
   49.2231   12.4690   11.3938 C   0  0  0  0  0  0  0  0  0  0  0  0
   48.7033   13.1099   12.6015 N   0  0  0  0  0  0  0  0  0  0  0  0
   47.8003   14.2285   12.2963 C   0  0  0  0  0  0  0  0  0  0  0  0
   47.0842   14.0977   10.9481 C   0  0  0  0  0  0  0  0  0  0  0  0
   46.8323   12.6323    8.1772 O   0  0  0  0  0  0  0  0  0  0  0  0
   49.7762   13.5248   13.5012 C   0  0  0  0  0  0  0  0  0  0  0  0
   51.3143   11.8511   11.5106 C   0  0  0  0  0  0  0  0  0  0  0  0
   52.6505   11.8076   11.5625 F   0  0  0  0  0  0  0  0  0  0  0  0
   50.5838   10.6834   11.6708 C   0  0  0  0  0  0  0  0  0  0  0  0
   49.1926   10.7392   11.6157 C   0  0  0  0  0  0  0  0  0  0  0  0
   48.5198    9.5870   11.7655 F   0  0  0  0  0  0  0  0  0  0  0  0
   48.5136   11.9451   11.4089 C   0  0  0  0  0  0  0  0  0  0  0  0
   46.4975   13.1307   11.4595 O   0  0  0  0  0  0  0  0  0  0  0  0
   47.0238   12.0292   11.3600 C   0  0  0  0  0  0  0  0  0  0  0  0
   46.3506   10.8272   11.2191 N   0  0  0  0  0  0  0  0  0  0  0  0
   49.2829   13.1056   11.2551 C   0  0  0  0  0  0  0  0  0  0  0  0
   48.7173   14.2987   11.0247 F   0  0  0  0  0  0  0  0  0  0  0  0
   50.6760   13.0644   11.3039 C   0  0  0  0  0  0  0  0  0  0  0  0
   44.1721   11.7696   11.0059 N   0  0  0  0  0  0  0  0  0  0  0  0
   42.8391   11.5851   10.8795 C   0  0  0  0  0  0  0  0  0  0  0  0
   44.9600   10.6881   11.0953 C   0  0  0  0  0  0  0  0  0  0  0  0
   44.4451    9.3950   11.0524 C   0  0  0  0  0  0  0  0  0  0  0  0
   43.0696    9.2161   10.9228 C   0  0  0  0  0  0  0  0  0  0  0  0
   42.2455   10.3316   10.8379 C   0  0  0  0  0  0  0  0  0  0  0  0
   41.9940   12.8134   10.7856 C   0  0  0  0  0  0  0  0  0  0  0  0
   42.6930   14.1748   10.8380 C   0  0  0  0  0  0  0  0  0  0  0  0
   43.1031   14.5350   12.2685 C   0  0  0  0  0  0  0  0  0  0  0  0
   41.9157   14.9938   13.1153 C   0  0  0  0  0  0  0  0  0  0  0  0
   41.2291   16.1267   12.4846 N   0  0  0  0  0  0  0  0  0  0  0  0
   40.7078   15.7536   11.1632 C   0  0  0  0  0  0  0  0  0  0  0  0
   41.8263   15.2849   10.2297 C   0  0  0  0  0  0  0  0  0  0  0  0
   40.7745   12.6908   10.6695 O   0  0  0  0  0  0  0  0  0  0  0  0
   40.1459   16.6084   13.3424 C   0  0  0  0  0  0  0  0  0  0  0  0
   47.0076   13.3945   10.8664 O   0  0  0  0  0  0  0  0  0  0  0  0
   46.4066   12.5694   11.7429 C   0  0  0  0  0  0  0  0  0  0  0  0
   46.9053   11.4952   12.0329 O   0  0  0  0  0  0  0  0  0  0  0  0
   45.1136   13.1183   12.2594 C   0  0  0  0  0  0  0  0  0  0  0  0
   44.0385   13.0326   11.1870 C   0  0  0  0  0  0  0  0  0  0  0  0
   42.7343   13.5737   11.6946 C   0  0  0  0  0  0  0  0  0  0  0  0
   42.5120   14.0703   12.7858 O   0  0  0  0  0  0  0  0  0  0  0  0
   41.7537   13.4658   10.7760 O   0  0  0  0  0  0  0  0  0  0  0  0
   38.0463   12.2489   15.5100 H   0  0  0  0  0  0  0  0  0  0  0  0
   42.6380   13.0834   12.1080 H   0  0  0  0  0  0  0  0  0  0  0  0
   40.9856   15.3823   15.4775 H   0  0  0  0  0  0  0  0  0  0  0  0
   40.8936   12.0704    8.9568 H   0  0  0  0  0  0  0  0  0  0  0  0
   42.2264   11.6943    6.9247 H   0  0  0  0  0  0  0  0  0  0  0  0
   44.7059   11.9610    7.0103 H   0  0  0  0  0  0  0  0  0  0  0  0
   46.1033   12.2224   11.3357 H   0  0  0  0  0  0  0  0  0  0  0  0
   47.8313   10.8392   11.1595 H   0  0  0  0  0  0  0  0  0  0  0  0
   48.4301   11.4902    9.6539 H   0  0  0  0  0  0  0  0  0  0  0  0
   49.9654   11.7017   11.6510 H   0  0  0  0  0  0  0  0  0  0  0  0
   49.7237   13.1977   10.7428 H   0  0  0  0  0  0  0  0  0  0  0  0
   47.0532   14.2866   13.0971 H   0  0  0  0  0  0  0  0  0  0  0  0
   48.3343   15.1875   12.2965 H   0  0  0  0  0  0  0  0  0  0  0  0
   47.7070   14.5481   10.1628 H   0  0  0  0  0  0  0  0  0  0  0  0
   46.1530   14.6788   10.9701 H   0  0  0  0  0  0  0  0  0  0  0  0
   50.3757   12.6589   13.8056 H   0  0  0  0  0  0  0  0  0  0  0  0
   50.4469   14.2583   13.0383 H   0  0  0  0  0  0  0  0  0  0  0  0
   49.3632   13.9596   14.4192 H   0  0  0  0  0  0  0  0  0  0  0  0
   51.0939    9.7393   11.8274 H   0  0  0  0  0  0  0  0  0  0  0  0
   46.8828    9.9673   11.2358 H   0  0  0  0  0  0  0  0  0  0  0  0
   51.2513   13.9749   11.1756 H   0  0  0  0  0  0  0  0  0  0  0  0
   45.0923    8.5273   11.1289 H   0  0  0  0  0  0  0  0  0  0  0  0
   42.6445    8.2167   10.8860 H   0  0  0  0  0  0  0  0  0  0  0  0
   41.1692   10.2252   10.7354 H   0  0  0  0  0  0  0  0  0  0  0  0
   43.5909   14.0979   10.2107 H   0  0  0  0  0  0  0  0  0  0  0  0
   43.8473   15.3426   12.2303 H   0  0  0  0  0  0  0  0  0  0  0  0
   43.5879   13.6891   12.7693 H   0  0  0  0  0  0  0  0  0  0  0  0
   42.2998   15.2966   14.0969 H   0  0  0  0  0  0  0  0  0  0  0  0
   41.2258   14.1572   13.2827 H   0  0  0  0  0  0  0  0  0  0  0  0
   39.9328   14.9838   11.2529 H   0  0  0  0  0  0  0  0  0  0  0  0
   40.2280   16.6251   10.7002 H   0  0  0  0  0  0  0  0  0  0  0  0
   42.4701   16.1443    9.9969 H   0  0  0  0  0  0  0  0  0  0  0  0
   41.3912   14.9558    9.2780 H   0  0  0  0  0  0  0  0  0  0  0  0
   39.6651   17.4855   12.8970 H   0  0  0  0  0  0  0  0  0  0  0  0
   40.5400   16.9284   14.3133 H   0  0  0  0  0  0  0  0  0  0  0  0
   39.3801   15.8432   13.5118 H   0  0  0  0  0  0  0  0  0  0  0  0
   47.8322   12.9245   10.6171 H   0  0  0  0  0  0  0  0  0  0  0  0
   45.2741   14.1486   12.5994 H   0  0  0  0  0  0  0  0  0  0  0  0
   44.8240   12.5387   13.1431 H   0  0  0  0  0  0  0  0  0  0  0  0
   44.3321   13.6142   10.3052 H   0  0  0  0  0  0  0  0  0  0  0  0
   43.8906   11.9888   10.8839 H   0  0  0  0  0  0  0  0  0  0  0  0
   40.9666   13.8509   11.2166 H   0  0  0  0  0  0  0  0  0  0  0  0
  1  2  1  0
  1 12  2  0
  3  1  1  0
  3  4  2  0
  4  6  1  0
  5  4  1  0
  7  8  2  0
  8  9  1  0
  8  6  1  0
  9 15  1  0
 10 11  1  0
 10  6  2  0
 12 10  1  0
 13 14  2  0
 14 18  1  0
 15 13  1  0
 15 16  2  0
 16 17  1  0
 18 17  2  0
 19 14  1  0
 19 20  1  0
 20 21  1  0
 21 22  1  0
 22 23  1  0
 23 24  1  0
 23 27  1  0
 24 25  1  0
 25 20  1  0
 26 19  2  0
 28 29  1  0
 28 39  2  0
 30 28  1  0
 30 31  2  0
 31 33  1  0
 32 31  1  0
 34 35  2  0
 35 36  1  0
 35 33  1  0
 36 42  1  0
 37 38  1  0
 37 33  2  0
 39 37  1  0
 40 41  2  0
 41 45  1  0
 42 40  1  0
 42 43  2  0
 43 44  1  0
 45 44  2  0
 46 41  1  0
 46 47  1  0
 47 48  1  0
 48 49  1  0
 49 50  1  0
 50 51  1  0
 50 54  1  0
 51 52  1  0
 52 47  1  0
 53 46  2  0
 55 56  1  0
 56 57  2  0
 56 58  1  0
 58 59  1  0
 59 60  1  0
 60 61  2  0
 60 62  1  0
  3 63  1  0
  9 64  1  0
 12 65  1  0
 16 66  1  0
 17 67  1  0
 18 68  1  0
 20 69  1  0
 21 70  1  0
 21 71  1  0
 22 72  1  0
 22 73  1  0
 24 74  1  0
 24 75  1  0
 25 76  1  0
 25 77  1  0
 27 78  1  0
 27 79  1  0
 27 80  1  0
 30 81  1  0
 36 82  1  0
 39 83  1  0
 43 84  1  0
 44 85  1  0
 45 86  1  0
 47 87  1  0
 48 88  1  0
 48 89  1  0
 49 90  1  0
 49 91  1  0
 51 92  1  0
 51 93  1  0
 52 94  1  0
 52 95  1  0
 54 96  1  0
 54 97  1  0
 54 98  1  0
 55 99  1  0
 58100  1  0
 58101  1  0
 59102  1  0
 59103  1  0
 62104  1  0
M  END
> <Uni-Dock RESULT> 
ENERGY=   -4.697  LOWER_BOUND=    8.155  UPPER_BOUND=   11.009
INTER + INTRA:          -4.697
INTER:                  -4.697
INTRA:                   0.000
UNBOUND:                 0.000

$$$$

     RDKit          3D

104107  0  0  0  0  0  0  0  0999 V2000
   54.3458    1.7669   17.3354 C   0  0  0  0  0  0  0  0  0  0  0  0
   55.4755    1.1231   17.0136 F   0  0  0  0  0  0  0  0  0  0  0  0
   53.1782    1.0431   17.5418 C   0  0  0  0  0  0  0  0  0  0  0  0
   52.0082    1.7212   17.8762 C   0  0  0  0  0  0  0  0  0  0  0  0
   50.8897    0.9979   18.0364 F   0  0  0  0  0  0  0  0  0  0  0  0
   51.9927    3.1144   17.9987 C   0  0  0  0  0  0  0  0  0  0  0  0
   50.0031    3.2630   19.2002 O   0  0  0  0  0  0  0  0  0  0  0  0
   50.7467    3.8079   18.3931 C   0  0  0  0  0  0  0  0  0  0  0  0
   50.5403    5.0306   17.7927 N   0  0  0  0  0  0  0  0  0  0  0  0
   53.1802    3.8168   17.7819 C   0  0  0  0  0  0  0  0  0  0  0  0
   53.2187    5.1538   17.8917 F   0  0  0  0  0  0  0  0  0  0  0  0
   54.3584    3.1508   17.4531 C   0  0  0  0  0  0  0  0  0  0  0  0
   49.5647    7.0189   17.2122 N   0  0  0  0  0  0  0  0  0  0  0  0
   48.5935    7.9553   17.3493 C   0  0  0  0  0  0  0  0  0  0  0  0
   49.4900    5.9264   18.0003 C   0  0  0  0  0  0  0  0  0  0  0  0
   48.4718    5.7380   18.9241 C   0  0  0  0  0  0  0  0  0  0  0  0
   47.4895    6.7175   19.0530 C   0  0  0  0  0  0  0  0  0  0  0  0
   47.5516    7.8548   18.2610 C   0  0  0  0  0  0  0  0  0  0  0  0
   48.6686    9.1478   16.4547 C   0  0  0  0  0  0  0  0  0  0  0  0
   49.6267    9.1038   15.2691 C   0  0  0  0  0  0  0  0  0  0  0  0
   48.9712    9.7094   14.0127 C   0  0  0  0  0  0  0  0  0  0  0  0
   49.9176   10.6159   13.2228 C   0  0  0  0  0  0  0  0  0  0  0  0
   51.2374    9.9901   13.1451 N   0  0  0  0  0  0  0  0  0  0  0  0
   51.8934    9.9042   14.4574 C   0  0  0  0  0  0  0  0  0  0  0  0
   50.9168    9.8392   15.6362 C   0  0  0  0  0  0  0  0  0  0  0  0
   47.9712   10.1342   16.6968 O   0  0  0  0  0  0  0  0  0  0  0  0
   52.0954   10.6513   12.1655 C   0  0  0  0  0  0  0  0  0  0  0  0
   49.4330   11.9450   11.5592 C   0  0  0  0  0  0  0  0  0  0  0  0
   49.3640   12.9613   10.6917 F   0  0  0  0  0  0  0  0  0  0  0  0
   48.7313   10.7767   11.3036 C   0  0  0  0  0  0  0  0  0  0  0  0
   48.8101    9.7238   12.2128 C   0  0  0  0  0  0  0  0  0  0  0  0
   48.1094    8.6124   11.9363 F   0  0  0  0  0  0  0  0  0  0  0  0
   49.5848    9.8132   13.3747 C   0  0  0  0  0  0  0  0  0  0  0  0
   50.5932    8.7287   15.1857 O   0  0  0  0  0  0  0  0  0  0  0  0
   49.6939    8.6925   14.3550 C   0  0  0  0  0  0  0  0  0  0  0  0
   48.7584    7.6792   14.2276 N   0  0  0  0  0  0  0  0  0  0  0  0
   50.2835   11.0064   13.5992 C   0  0  0  0  0  0  0  0  0  0  0  0
   51.0266   11.1897   14.6996 F   0  0  0  0  0  0  0  0  0  0  0  0
   50.2109   12.0700   12.7000 C   0  0  0  0  0  0  0  0  0  0  0  0
   49.4184    6.4667   16.1702 N   0  0  0  0  0  0  0  0  0  0  0  0
   49.2704    5.3817   16.9625 C   0  0  0  0  0  0  0  0  0  0  0  0
   48.6484    6.5680   15.0769 C   0  0  0  0  0  0  0  0  0  0  0  0
   47.7048    5.5985   14.7472 C   0  0  0  0  0  0  0  0  0  0  0  0
   47.5610    4.4837   15.5701 C   0  0  0  0  0  0  0  0  0  0  0  0
   48.3608    4.3671   16.7003 C   0  0  0  0  0  0  0  0  0  0  0  0
   50.1474    5.3030   18.1693 C   0  0  0  0  0  0  0  0  0  0  0  0
   51.1372    6.4449   18.4166 C   0  0  0  0  0  0  0  0  0  0  0  0
   52.3538    6.3364   17.4934 C   0  0  0  0  0  0  0  0  0  0  0  0
   53.3309    5.2507   17.9450 C   0  0  0  0  0  0  0  0  0  0  0  0
   53.7634    5.4776   19.3285 N   0  0  0  0  0  0  0  0  0  0  0  0
   52.6179    5.4470   20.2472 C   0  0  0  0  0  0  0  0  0  0  0  0
   51.5781    6.5098   19.8845 C   0  0  0  0  0  0  0  0  0  0  0  0
   50.0453    4.3313   18.9183 O   0  0  0  0  0  0  0  0  0  0  0  0
   54.7590    4.4800   19.7218 C   0  0  0  0  0  0  0  0  0  0  0  0
   50.3528    9.4972   15.3681 O   0  0  0  0  0  0  0  0  0  0  0  0
   50.3826    8.2873   14.7803 C   0  0  0  0  0  0  0  0  0  0  0  0
   49.7706    8.0796   13.7463 O   0  0  0  0  0  0  0  0  0  0  0  0
   51.2057    7.2957   15.5413 C   0  0  0  0  0  0  0  0  0  0  0  0
   50.4697    6.8522   16.7963 C   0  0  0  0  0  0  0  0  0  0  0  0
   51.2816    5.8519   17.5655 C   0  0  0  0  0  0  0  0  0  0  0  0
   52.4005    5.4453   17.3020 O   0  0  0  0  0  0  0  0  0  0  0  0
   50.6294    5.4094   18.6591 O   0  0  0  0  0  0  0  0  0  0  0  0
   53.1762   -0.0374   17.4417 H   0  0  0  0  0  0  0  0  0  0  0  0
   51.2118    5.3840   17.1220 H   0  0  0  0  0  0  0  0  0  0  0  0
   55.2772    3.7072   17.2926 H   0  0  0  0  0  0  0  0  0  0  0  0
   48.4175    4.8591   19.5542 H   0  0  0  0  0  0  0  0  0  0  0  0
   46.6836    6.5896   19.7693 H   0  0  0  0  0  0  0  0  0  0  0  0
   46.8013    8.6356   18.3458 H   0  0  0  0  0  0  0  0  0  0  0  0
   49.8682    8.0609   15.0301 H   0  0  0  0  0  0  0  0  0  0  0  0
   48.6458    8.8811   13.3679 H   0  0  0  0  0  0  0  0  0  0  0  0
   48.0598   10.2726   14.2451 H   0  0  0  0  0  0  0  0  0  0  0  0
   49.4935   10.7523   12.2190 H   0  0  0  0  0  0  0  0  0  0  0  0
   49.9770   11.6095   13.6863 H   0  0  0  0  0  0  0  0  0  0  0  0
   52.5231    9.0062   14.4611 H   0  0  0  0  0  0  0  0  0  0  0  0
   52.5632   10.7567   14.6283 H   0  0  0  0  0  0  0  0  0  0  0  0
   50.6750   10.8603   15.9620 H   0  0  0  0  0  0  0  0  0  0  0  0
   51.4061    9.3539   16.4908 H   0  0  0  0  0  0  0  0  0  0  0  0
   51.6395   10.6108   11.1695 H   0  0  0  0  0  0  0  0  0  0  0  0
   52.2774   11.7034   12.4149 H   0  0  0  0  0  0  0  0  0  0  0  0
   53.0614   10.1379   12.0903 H   0  0  0  0  0  0  0  0  0  0  0  0
   48.1224   10.6918   10.4102 H   0  0  0  0  0  0  0  0  0  0  0  0
   48.1142    7.7078   13.4485 H   0  0  0  0  0  0  0  0  0  0  0  0
   50.7555   12.9869   12.8980 H   0  0  0  0  0  0  0  0  0  0  0  0
   47.0895    5.6896   13.8579 H   0  0  0  0  0  0  0  0  0  0  0  0
   46.8308    3.7143   15.3340 H   0  0  0  0  0  0  0  0  0  0  0  0
   48.2720    3.5104   17.3624 H   0  0  0  0  0  0  0  0  0  0  0  0
   50.6040    7.3816   18.2070 H   0  0  0  0  0  0  0  0  0  0  0  0
   52.8756    7.3033   17.4811 H   0  0  0  0  0  0  0  0  0  0  0  0
   52.0528    6.1325   16.4594 H   0  0  0  0  0  0  0  0  0  0  0  0
   54.2007    5.2824   17.2777 H   0  0  0  0  0  0  0  0  0  0  0  0
   52.8731    4.2600   17.8317 H   0  0  0  0  0  0  0  0  0  0  0  0
   52.1604    4.4512   20.2668 H   0  0  0  0  0  0  0  0  0  0  0  0
   52.9631    5.6506   21.2687 H   0  0  0  0  0  0  0  0  0  0  0  0
   52.0104    7.5014   20.0772 H   0  0  0  0  0  0  0  0  0  0  0  0
   50.7124    6.4134   20.5513 H   0  0  0  0  0  0  0  0  0  0  0  0
   55.1203    4.6781   20.7363 H   0  0  0  0  0  0  0  0  0  0  0  0
   55.6335    4.5319   19.0639 H   0  0  0  0  0  0  0  0  0  0  0  0
   54.3587    3.4605   19.6905 H   0  0  0  0  0  0  0  0  0  0  0  0
   49.7951   10.0425   14.7725 H   0  0  0  0  0  0  0  0  0  0  0  0
   52.1798    7.7434   15.7723 H   0  0  0  0  0  0  0  0  0  0  0  0
   51.4023    6.4393   14.8866 H   0  0  0  0  0  0  0  0  0  0  0  0
   50.2756    7.7119   17.4485 H   0  0  0  0  0  0  0  0  0  0  0  0
   49.5102    6.3931   16.5284 H   0  0  0  0  0  0  0  0  0  0  0  0
   51.2537    4.7762   19.0728 H   0  0  0  0  0  0  0  0  0  0  0  0
  1  2  1  0
  1 12  2  0
  3  1  1  0
  3  4  2  0
  4  6  1  0
  5  4  1  0
  7  8  2  0
  8  9  1  0
  8  6  1  0
  9 15  1  0
 10 11  1  0
 10  6  2  0
 12 10  1  0
 13 14  2  0
 14 18  1  0
 15 13  1  0
 15 16  2  0
 16 17  1  0
 18 17  2  0
 19 14  1  0
 19 20  1  0
 20 21  1  0
 21 22  1  0
 22 23  1  0
 23 24  1  0
 23 27  1  0
 24 25  1  0
 25 20  1  0
 26 19  2  0
 28 29  1  0
 28 39  2  0
 30 28  1  0
 30 31  2  0
 31 33  1  0
 32 31  1  0
 34 35  2  0
 35 36  1  0
 35 33  1  0
 36 42  1  0
 37 38  1  0
 37 33  2  0
 39 37  1  0
 40 41  2  0
 41 45  1  0
 42 40  1  0
 42 43  2  0
 43 44  1  0
 45 44  2  0
 46 41  1  0
 46 47  1  0
 47 48  1  0
 48 49  1  0
 49 50  1  0
 50 51  1  0
 50 54  1  0
 51 52  1  0
 52 47  1  0
 53 46  2  0
 55 56  1  0
 56 57  2  0
 56 58  1  0
 58 59  1  0
 59 60  1  0
 60 61  2  0
 60 62  1  0
  3 63  1  0
  9 64  1  0
 12 65  1  0
 16 66  1  0
 17 67  1  0
 18 68  1  0
 20 69  1  0
 21 70  1  0
 21 71  1  0
 22 72  1  0
 22 73  1  0
 24 74  1  0
 24 75  1  0
 25 76  1  0
 25 77  1  0
 27 78  1  0
 27 79  1  0
 27 80  1  0
 30 81  1  0
 36 82  1  0
 39 83  1  0
 43 84  1  0
 44 85  1  0
 45 86  1  0
 47 87  1  0
 48 88  1  0
 48 89  1  0
 49 90  1  0
 49 91  1  0
 51 92  1  0
 51 93  1  0
 52 94  1  0
 52 95  1  0
 54 96  1  0
 54 97  1  0
 54 98  1  0
 55 99  1  0
 58100  1  0
 58101  1  0
 59102  1  0
 59103  1  0
 62104  1  0
M  END
> <Uni-Dock RESULT> 
ENERGY=   -4.687  LOWER_BOUND=    1.996  UPPER_BOUND=    2.924
INTER + INTRA:          -4.687
INTER:                  -4.687
INTRA:                   0.000
UNBOUND:                 0.000

$$$$

     RDKit          3D

104107  0  0  0  0  0  0  0  0999 V2000
   52.6093    6.9553    9.5413 C   0  0  0  0  0  0  0  0  0  0  0  0
   52.0400    6.5735    8.3906 F   0  0  0  0  0  0  0  0  0  0  0  0
   53.9408    6.6434    9.7852 C   0  0  0  0  0  0  0  0  0  0  0  0
   54.5244    7.0448   10.9848 C   0  0  0  0  0  0  0  0  0  0  0  0
   55.8019    6.6997   11.2055 F   0  0  0  0  0  0  0  0  0  0  0  0
   53.7886    7.7476   11.9444 C   0  0  0  0  0  0  0  0  0  0  0  0
   55.6100    8.5634   13.1448 O   0  0  0  0  0  0  0  0  0  0  0  0
   54.4418    8.1969   13.1936 C   0  0  0  0  0  0  0  0  0  0  0  0
   53.6488    8.1531   14.3192 N   0  0  0  0  0  0  0  0  0  0  0  0
   52.4508    8.0443   11.6742 C   0  0  0  0  0  0  0  0  0  0  0  0
   51.7034    8.7204   12.5605 F   0  0  0  0  0  0  0  0  0  0  0  0
   51.8567    7.6543   10.4764 C   0  0  0  0  0  0  0  0  0  0  0  0
   52.9760    8.3323   16.5003 N   0  0  0  0  0  0  0  0  0  0  0  0
   53.1902    8.7004   17.7878 C   0  0  0  0  0  0  0  0  0  0  0  0
   53.9712    8.5540   15.6169 C   0  0  0  0  0  0  0  0  0  0  0  0
   55.1789    9.1331   15.9797 C   0  0  0  0  0  0  0  0  0  0  0  0
   55.3732    9.5106   17.3066 C   0  0  0  0  0  0  0  0  0  0  0  0
   54.3598    9.3027   18.2308 C   0  0  0  0  0  0  0  0  0  0  0  0
   52.0946    8.4268   18.7639 C   0  0  0  0  0  0  0  0  0  0  0  0
   50.9572    7.5057   18.3355 C   0  0  0  0  0  0  0  0  0  0  0  0
   50.5736    6.5428   19.4759 C   0  0  0  0  0  0  0  0  0  0  0  0
   49.0607    6.3786   19.6360 C   0  0  0  0  0  0  0  0  0  0  0  0
   48.4436    6.2518   18.3160 N   0  0  0  0  0  0  0  0  0  0  0  0
   48.5524    7.4869   17.5270 C   0  0  0  0  0  0  0  0  0  0  0  0
   49.7626    8.3524   17.8931 C   0  0  0  0  0  0  0  0  0  0  0  0
   52.1269    8.9533   19.8773 O   0  0  0  0  0  0  0  0  0  0  0  0
   47.0577    5.7998   18.4052 C   0  0  0  0  0  0  0  0  0  0  0  0
   47.9774    5.3902   21.2541 C   0  0  0  0  0  0  0  0  0  0  0  0
   47.0964    5.0424   22.1991 F   0  0  0  0  0  0  0  0  0  0  0  0
   49.0437    4.5511   20.9688 C   0  0  0  0  0  0  0  0  0  0  0  0
   49.9554    4.9220   19.9826 C   0  0  0  0  0  0  0  0  0  0  0  0
   50.9802    4.0888   19.7410 F   0  0  0  0  0  0  0  0  0  0  0  0
   49.8186    6.1173   19.2680 C   0  0  0  0  0  0  0  0  0  0  0  0
   50.4470    7.4248   17.4328 O   0  0  0  0  0  0  0  0  0  0  0  0
   50.7760    6.5271   18.1983 C   0  0  0  0  0  0  0  0  0  0  0  0
   51.9726    5.8312   18.1532 N   0  0  0  0  0  0  0  0  0  0  0  0
   48.7276    6.9388   19.5794 C   0  0  0  0  0  0  0  0  0  0  0  0
   48.5348    8.1146   18.9652 F   0  0  0  0  0  0  0  0  0  0  0  0
   47.8093    6.5825   20.5668 C   0  0  0  0  0  0  0  0  0  0  0  0
   52.9763    7.1456   16.4373 N   0  0  0  0  0  0  0  0  0  0  0  0
   54.0215    7.3626   15.6082 C   0  0  0  0  0  0  0  0  0  0  0  0
   53.0285    6.0938   17.2675 C   0  0  0  0  0  0  0  0  0  0  0  0
   54.1243    5.2353   17.3021 C   0  0  0  0  0  0  0  0  0  0  0  0
   55.1958    5.4675   16.4426 C   0  0  0  0  0  0  0  0  0  0  0  0
   55.1459    6.5504   15.5734 C   0  0  0  0  0  0  0  0  0  0  0  0
   53.9256    8.5422   14.6965 C   0  0  0  0  0  0  0  0  0  0  0  0
   52.6650    9.4085   14.7689 C   0  0  0  0  0  0  0  0  0  0  0  0
   51.4854    8.7344   14.0630 C   0  0  0  0  0  0  0  0  0  0  0  0
   51.5893    8.8271   12.5405 C   0  0  0  0  0  0  0  0  0  0  0  0
   51.7078   10.2238   12.1075 N   0  0  0  0  0  0  0  0  0  0  0  0
   52.9143   10.8457   12.6685 C   0  0  0  0  0  0  0  0  0  0  0  0
   52.9041   10.8124   14.1985 C   0  0  0  0  0  0  0  0  0  0  0  0
   54.8557    8.7765   13.9247 O   0  0  0  0  0  0  0  0  0  0  0  0
   51.7246   10.3054   10.6466 C   0  0  0  0  0  0  0  0  0  0  0  0
   50.2532    7.8777   18.0953 O   0  0  0  0  0  0  0  0  0  0  0  0
   50.6866    6.8417   17.3543 C   0  0  0  0  0  0  0  0  0  0  0  0
   50.8263    5.7355   17.8478 O   0  0  0  0  0  0  0  0  0  0  0  0
   50.9715    7.2254   15.9360 C   0  0  0  0  0  0  0  0  0  0  0  0
   52.2567    8.0351   15.8568 C   0  0  0  0  0  0  0  0  0  0  0  0
   52.5578    8.4205   14.4383 C   0  0  0  0  0  0  0  0  0  0  0  0
   51.8841    8.1902   13.4484 O   0  0  0  0  0  0  0  0  0  0  0  0
   53.7175    9.1002   14.3375 O   0  0  0  0  0  0  0  0  0  0  0  0
   54.5194    6.0916    9.0516 H   0  0  0  0  0  0  0  0  0  0  0  0
   52.6965    7.8146   14.2536 H   0  0  0  0  0  0  0  0  0  0  0  0
   50.8173    7.8960   10.2749 H   0  0  0  0  0  0  0  0  0  0  0  0
   55.9739    9.3090   15.2659 H   0  0  0  0  0  0  0  0  0  0  0  0
   56.3110    9.9649   17.6117 H   0  0  0  0  0  0  0  0  0  0  0  0
   54.4841    9.5928   19.2701 H   0  0  0  0  0  0  0  0  0  0  0  0
   51.2843    6.8852   17.4922 H   0  0  0  0  0  0  0  0  0  0  0  0
   51.0198    5.5628   19.2561 H   0  0  0  0  0  0  0  0  0  0  0  0
   50.9968    6.8454   20.4408 H   0  0  0  0  0  0  0  0  0  0  0  0
   48.8815    5.4764   20.2360 H   0  0  0  0  0  0  0  0  0  0  0  0
   48.6371    7.2257   20.1916 H   0  0  0  0  0  0  0  0  0  0  0  0
   48.6169    7.2062   16.4688 H   0  0  0  0  0  0  0  0  0  0  0  0
   47.6551    8.1105   17.6311 H   0  0  0  0  0  0  0  0  0  0  0  0
   49.4830    9.0408   18.7026 H   0  0  0  0  0  0  0  0  0  0  0  0
   50.0344    8.9829   17.0365 H   0  0  0  0  0  0  0  0  0  0  0  0
   47.0055    4.8237   18.9014 H   0  0  0  0  0  0  0  0  0  0  0  0
   46.4267    6.5009   18.9643 H   0  0  0  0  0  0  0  0  0  0  0  0
   46.6302    5.6670   17.4042 H   0  0  0  0  0  0  0  0  0  0  0  0
   49.1676    3.6230   21.5161 H   0  0  0  0  0  0  0  0  0  0  0  0
   52.1029    5.0477   18.7793 H   0  0  0  0  0  0  0  0  0  0  0  0
   46.9758    7.2378   20.7954 H   0  0  0  0  0  0  0  0  0  0  0  0
   54.1539    4.3852   17.9760 H   0  0  0  0  0  0  0  0  0  0  0  0
   56.0624    4.8119   16.4519 H   0  0  0  0  0  0  0  0  0  0  0  0
   55.9658    6.7586   14.8918 H   0  0  0  0  0  0  0  0  0  0  0  0
   52.4264    9.5380   15.8328 H   0  0  0  0  0  0  0  0  0  0  0  0
   50.5547    9.2203   14.3873 H   0  0  0  0  0  0  0  0  0  0  0  0
   51.4005    7.6793   14.3474 H   0  0  0  0  0  0  0  0  0  0  0  0
   50.6805    8.3855   12.1139 H   0  0  0  0  0  0  0  0  0  0  0  0
   52.4371    8.2294   12.1829 H   0  0  0  0  0  0  0  0  0  0  0  0
   53.8184   10.3643   12.2786 H   0  0  0  0  0  0  0  0  0  0  0  0
   52.9626   11.8967   12.3565 H   0  0  0  0  0  0  0  0  0  0  0  0
   52.1059   11.4770   14.5571 H   0  0  0  0  0  0  0  0  0  0  0  0
   53.8466   11.2266   14.5772 H   0  0  0  0  0  0  0  0  0  0  0  0
   51.7618   11.3502   10.3212 H   0  0  0  0  0  0  0  0  0  0  0  0
   50.8048    9.8815   10.2289 H   0  0  0  0  0  0  0  0  0  0  0  0
   52.5808    9.7775   10.2121 H   0  0  0  0  0  0  0  0  0  0  0  0
   50.1003    7.4924   18.9848 H   0  0  0  0  0  0  0  0  0  0  0  0
   50.1123    7.7776   15.5366 H   0  0  0  0  0  0  0  0  0  0  0  0
   51.0566    6.3077   15.3432 H   0  0  0  0  0  0  0  0  0  0  0  0
   52.1668    8.9522   16.4507 H   0  0  0  0  0  0  0  0  0  0  0  0
   53.0970    7.4475   16.2462 H   0  0  0  0  0  0  0  0  0  0  0  0
   53.7998    9.2967   13.3801 H   0  0  0  0  0  0  0  0  0  0  0  0
  1  2  1  0
  1 12  2  0
  3  1  1  0
  3  4  2  0
  4  6  1  0
  5  4  1  0
  7  8  2  0
  8  9  1  0
  8  6  1  0
  9 15  1  0
 10 11  1  0
 10  6  2  0
 12 10  1  0
 13 14  2  0
 14 18  1  0
 15 13  1  0
 15 16  2  0
 16 17  1  0
 18 17  2  0
 19 14  1  0
 19 20  1  0
 20 21  1  0
 21 22  1  0
 22 23  1  0
 23 24  1  0
 23 27  1  0
 24 25  1  0
 25 20  1  0
 26 19  2  0
 28 29  1  0
 28 39  2  0
 30 28  1  0
 30 31  2  0
 31 33  1  0
 32 31  1  0
 34 35  2  0
 35 36  1  0
 35 33  1  0
 36 42  1  0
 37 38  1  0
 37 33  2  0
 39 37  1  0
 40 41  2  0
 41 45  1  0
 42 40  1  0
 42 43  2  0
 43 44  1  0
 45 44  2  0
 46 41  1  0
 46 47  1  0
 47 48  1  0
 48 49  1  0
 49 50  1  0
 50 51  1  0
 50 54  1  0
 51 52  1  0
 52 47  1  0
 53 46  2  0
 55 56  1  0
 56 57  2  0
 56 58  1  0
 58 59  1  0
 59 60  1  0
 60 61  2  0
 60 62  1  0
  3 63  1  0
  9 64  1  0
 12 65  1  0
 16 66  1  0
 17 67  1  0
 18 68  1  0
 20 69  1  0
 21 70  1  0
 21 71  1  0
 22 72  1  0
 22 73  1  0
 24 74  1  0
 24 75  1  0
 25 76  1  0
 25 77  1  0
 27 78  1  0
 27 79  1  0
 27 80  1  0
 30 81  1  0
 36 82  1  0
 39 83  1  0
 43 84  1  0
 44 85  1  0
 45 86  1  0
 47 87  1  0
 48 88  1  0
 48 89  1  0
 49 90  1  0
 49 91  1  0
 51 92  1  0
 51 93  1  0
 52 94  1  0
 52 95  1  0
 54 96  1  0
 54 97  1  0
 54 98  1  0
 55 99  1  0
 58100  1  0
 58101  1  0
 59102  1  0
 59103  1  0
 62104  1  0
M  END
> <Uni-Dock RESULT> 
ENERGY=   -4.379  LOWER_BOUND=    2.436  UPPER_BOUND=    7.799
INTER + INTRA:          -4.379
INTER:                  -4.379
INTRA:                   0.000
UNBOUND:                 0.000

$$$$
