
     RDKit          3D

104107  0  0  0  0  0  0  0  0999 V2000
   44.6947    6.0020   12.6574 C   0  0  0  0  0  0  0  0  0  0  0  0
   43.5424    5.3222   12.6766 F   0  0  0  0  0  0  0  0  0  0  0  0
   44.7054    7.3230   12.2365 C   0  0  0  0  0  0  0  0  0  0  0  0
   45.9092    8.0252   12.2211 C   0  0  0  0  0  0  0  0  0  0  0  0
   45.8827    9.3093   11.8395 F   0  0  0  0  0  0  0  0  0  0  0  0
   47.0978    7.4173   12.6292 C   0  0  0  0  0  0  0  0  0  0  0  0
   48.5509    8.9557   11.6432 O   0  0  0  0  0  0  0  0  0  0  0  0
   48.3750    8.1690   12.5654 C   0  0  0  0  0  0  0  0  0  0  0  0
   49.2583    7.9038   13.5825 N   0  0  0  0  0  0  0  0  0  0  0  0
   47.0562    6.0868   13.0553 C   0  0  0  0  0  0  0  0  0  0  0  0
   48.1714    5.4588   13.4595 F   0  0  0  0  0  0  0  0  0  0  0  0
   45.8628    5.3734   13.0729 C   0  0  0  0  0  0  0  0  0  0  0  0
   51.1189    7.9752   14.9144 N   0  0  0  0  0  0  0  0  0  0  0  0
   52.3710    8.4021   15.1906 C   0  0  0  0  0  0  0  0  0  0  0  0
   50.5448    8.4096   13.7720 C   0  0  0  0  0  0  0  0  0  0  0  0
   51.1897    9.2591   12.8852 C   0  0  0  0  0  0  0  0  0  0  0  0
   52.4855    9.6772   13.1809 C   0  0  0  0  0  0  0  0  0  0  0  0
   53.0929    9.2426   14.3519 C   0  0  0  0  0  0  0  0  0  0  0  0
   52.9831    7.9429   16.4735 C   0  0  0  0  0  0  0  0  0  0  0  0
   52.1383    7.2546   17.5459 C   0  0  0  0  0  0  0  0  0  0  0  0
   51.0746    8.1841   18.1365 C   0  0  0  0  0  0  0  0  0  0  0  0
   50.1770    7.3970   19.0895 C   0  0  0  0  0  0  0  0  0  0  0  0
   49.4490    6.3022   18.4342 N   0  0  0  0  0  0  0  0  0  0  0  0
   50.0403    5.8541   17.1689 C   0  0  0  0  0  0  0  0  0  0  0  0
   51.5698    5.8911   17.1281 C   0  0  0  0  0  0  0  0  0  0  0  0
   54.1851    8.1439   16.6683 O   0  0  0  0  0  0  0  0  0  0  0  0
   49.2213    5.2003   19.3671 C   0  0  0  0  0  0  0  0  0  0  0  0
   54.4578    9.2818   18.2116 C   0  0  0  0  0  0  0  0  0  0  0  0
   55.5418   10.0671   18.1917 F   0  0  0  0  0  0  0  0  0  0  0  0
   54.1412    8.5304   17.0880 C   0  0  0  0  0  0  0  0  0  0  0  0
   53.0141    7.7123   17.1147 C   0  0  0  0  0  0  0  0  0  0  0  0
   52.7316    6.9949   16.0168 F   0  0  0  0  0  0  0  0  0  0  0  0
   52.1992    7.6368   18.2477 C   0  0  0  0  0  0  0  0  0  0  0  0
   50.7067    6.2310   19.3612 O   0  0  0  0  0  0  0  0  0  0  0  0
   51.0094    6.7547   18.2947 C   0  0  0  0  0  0  0  0  0  0  0  0
   50.3246    6.6139   17.1067 N   0  0  0  0  0  0  0  0  0  0  0  0
   52.5417    8.4053   19.3639 C   0  0  0  0  0  0  0  0  0  0  0  0
   51.7834    8.4036   20.4699 F   0  0  0  0  0  0  0  0  0  0  0  0
   53.6656    9.2298   19.3521 C   0  0  0  0  0  0  0  0  0  0  0  0
   48.7491    5.9622   15.5826 N   0  0  0  0  0  0  0  0  0  0  0  0
   47.6871    5.2146   15.2068 C   0  0  0  0  0  0  0  0  0  0  0  0
   49.2066    5.8195   16.8438 C   0  0  0  0  0  0  0  0  0  0  0  0
   48.6182    4.9574   17.7575 C   0  0  0  0  0  0  0  0  0  0  0  0
   47.5251    4.1941   17.3527 C   0  0  0  0  0  0  0  0  0  0  0  0
   47.0541    4.3133   16.0504 C   0  0  0  0  0  0  0  0  0  0  0  0
   47.1923    5.3930   13.8097 C   0  0  0  0  0  0  0  0  0  0  0  0
   47.5524    6.6453   13.0096 C   0  0  0  0  0  0  0  0  0  0  0  0
   47.2041    7.9658   13.7137 C   0  0  0  0  0  0  0  0  0  0  0  0
   48.4349    8.8234   14.0175 C   0  0  0  0  0  0  0  0  0  0  0  0
   49.3177    9.0628   12.8708 N   0  0  0  0  0  0  0  0  0  0  0  0
   49.3296    7.9837   11.8752 C   0  0  0  0  0  0  0  0  0  0  0  0
   48.9843    6.6201   12.4726 C   0  0  0  0  0  0  0  0  0  0  0  0
   46.4827    4.5146   13.3131 O   0  0  0  0  0  0  0  0  0  0  0  0
   49.0606   10.3538   12.2331 C   0  0  0  0  0  0  0  0  0  0  0  0
   51.9322    6.2824   16.4265 O   0  0  0  0  0  0  0  0  0  0  0  0
   50.6214    6.5101   16.2224 C   0  0  0  0  0  0  0  0  0  0  0  0
   49.8118    5.6074   16.3294 O   0  0  0  0  0  0  0  0  0  0  0  0
   50.3486    7.9461   15.8756 C   0  0  0  0  0  0  0  0  0  0  0  0
   48.8637    8.1959   15.6411 C   0  0  0  0  0  0  0  0  0  0  0  0
   48.2971    7.4839   14.4411 C   0  0  0  0  0  0  0  0  0  0  0  0
   47.1107    7.2685   14.2439 O   0  0  0  0  0  0  0  0  0  0  0  0
   49.2097    7.1589   13.5049 O   0  0  0  0  0  0  0  0  0  0  0  0
   43.7859    7.8098   11.9221 H   0  0  0  0  0  0  0  0  0  0  0  0
   48.9982    7.2567   14.3169 H   0  0  0  0  0  0  0  0  0  0  0  0
   45.8407    4.3419   13.4121 H   0  0  0  0  0  0  0  0  0  0  0  0
   50.7240    9.6064   11.9693 H   0  0  0  0  0  0  0  0  0  0  0  0
   53.0178   10.3418   12.5040 H   0  0  0  0  0  0  0  0  0  0  0  0
   54.1003    9.5576   14.6091 H   0  0  0  0  0  0  0  0  0  0  0  0
   52.8534    7.0412   18.3574 H   0  0  0  0  0  0  0  0  0  0  0  0
   51.5621    9.0039   18.6759 H   0  0  0  0  0  0  0  0  0  0  0  0
   50.4656    8.6616   17.3610 H   0  0  0  0  0  0  0  0  0  0  0  0
   50.8078    7.0158   19.9046 H   0  0  0  0  0  0  0  0  0  0  0  0
   49.4514    8.0792   19.5470 H   0  0  0  0  0  0  0  0  0  0  0  0
   49.6880    4.8502   16.8993 H   0  0  0  0  0  0  0  0  0  0  0  0
   49.6433    6.5067   16.3838 H   0  0  0  0  0  0  0  0  0  0  0  0
   51.9213    5.5990   16.1315 H   0  0  0  0  0  0  0  0  0  0  0  0
   51.9537    5.1236   17.8121 H   0  0  0  0  0  0  0  0  0  0  0  0
   48.6133    4.4138   18.9048 H   0  0  0  0  0  0  0  0  0  0  0  0
   48.6683    5.5540   20.2431 H   0  0  0  0  0  0  0  0  0  0  0  0
   50.1583    4.7479   19.7088 H   0  0  0  0  0  0  0  0  0  0  0  0
   54.7665    8.5769   16.2017 H   0  0  0  0  0  0  0  0  0  0  0  0
   50.6458    7.1016   16.2787 H   0  0  0  0  0  0  0  0  0  0  0  0
   53.9206    9.8233   20.2218 H   0  0  0  0  0  0  0  0  0  0  0  0
   48.9871    4.8468   18.7699 H   0  0  0  0  0  0  0  0  0  0  0  0
   47.0534    3.5074   18.0492 H   0  0  0  0  0  0  0  0  0  0  0  0
   46.2072    3.7253   15.7108 H   0  0  0  0  0  0  0  0  0  0  0  0
   46.8862    6.5998   12.1347 H   0  0  0  0  0  0  0  0  0  0  0  0
   46.6376    7.7919   14.6377 H   0  0  0  0  0  0  0  0  0  0  0  0
   46.5354    8.5426   13.0588 H   0  0  0  0  0  0  0  0  0  0  0  0
   49.0363    8.3376   14.7919 H   0  0  0  0  0  0  0  0  0  0  0  0
   48.1121    9.7676   14.4741 H   0  0  0  0  0  0  0  0  0  0  0  0
   50.3246    7.9385   11.4190 H   0  0  0  0  0  0  0  0  0  0  0  0
   48.6172    8.1872   11.0632 H   0  0  0  0  0  0  0  0  0  0  0  0
   49.7124    6.3587   13.2482 H   0  0  0  0  0  0  0  0  0  0  0  0
   49.0746    5.8447   11.7020 H   0  0  0  0  0  0  0  0  0  0  0  0
   48.0426   10.4132   11.8287 H   0  0  0  0  0  0  0  0  0  0  0  0
   49.7653   10.5321   11.4098 H   0  0  0  0  0  0  0  0  0  0  0  0
   49.1968   11.1733   12.9479 H   0  0  0  0  0  0  0  0  0  0  0  0
   51.9874    5.3257   16.6317 H   0  0  0  0  0  0  0  0  0  0  0  0
   50.6827    8.5610   16.7169 H   0  0  0  0  0  0  0  0  0  0  0  0
   50.9364    8.2176   14.9918 H   0  0  0  0  0  0  0  0  0  0  0  0
   48.2931    7.8729   16.5185 H   0  0  0  0  0  0  0  0  0  0  0  0
   48.6939    9.2677   15.4948 H   0  0  0  0  0  0  0  0  0  0  0  0
   48.6748    6.7320   12.8029 H   0  0  0  0  0  0  0  0  0  0  0  0
  1  2  1  0
  1 12  2  0
  3  1  1  0
  3  4  2  0
  4  6  1  0
  5  4  1  0
  7  8  2  0
  8  9  1  0
  8  6  1  0
  9 15  1  0
 10 11  1  0
 10  6  2  0
 12 10  1  0
 13 14  2  0
 14 18  1  0
 15 13  1  0
 15 16  2  0
 16 17  1  0
 18 17  2  0
 19 14  1  0
 19 20  1  0
 20 21  1  0
 21 22  1  0
 22 23  1  0
 23 24  1  0
 23 27  1  0
 24 25  1  0
 25 20  1  0
 26 19  2  0
 28 29  1  0
 28 39  2  0
 30 28  1  0
 30 31  2  0
 31 33  1  0
 32 31  1  0
 34 35  2  0
 35 36  1  0
 35 33  1  0
 36 42  1  0
 37 38  1  0
 37 33  2  0
 39 37  1  0
 40 41  2  0
 41 45  1  0
 42 40  1  0
 42 43  2  0
 43 44  1  0
 45 44  2  0
 46 41  1  0
 46 47  1  0
 47 48  1  0
 48 49  1  0
 49 50  1  0
 50 51  1  0
 50 54  1  0
 51 52  1  0
 52 47  1  0
 53 46  2  0
 55 56  1  0
 56 57  2  0
 56 58  1  0
 58 59  1  0
 59 60  1  0
 60 61  2  0
 60 62  1  0
  3 63  1  0
  9 64  1  0
 12 65  1  0
 16 66  1  0
 17 67  1  0
 18 68  1  0
 20 69  1  0
 21 70  1  0
 21 71  1  0
 22 72  1  0
 22 73  1  0
 24 74  1  0
 24 75  1  0
 25 76  1  0
 25 77  1  0
 27 78  1  0
 27 79  1  0
 27 80  1  0
 30 81  1  0
 36 82  1  0
 39 83  1  0
 43 84  1  0
 44 85  1  0
 45 86  1  0
 47 87  1  0
 48 88  1  0
 48 89  1  0
 49 90  1  0
 49 91  1  0
 51 92  1  0
 51 93  1  0
 52 94  1  0
 52 95  1  0
 54 96  1  0
 54 97  1  0
 54 98  1  0
 55 99  1  0
 58100  1  0
 58101  1  0
 59102  1  0
 59103  1  0
 62104  1  0
M  END
> <Uni-Dock RESULT> 
ENERGY=   -6.200  LOWER_BOUND=    0.000  UPPER_BOUND=    0.000
INTER + INTRA:          -6.200
INTER:                  -6.200
INTRA:                   0.000
UNBOUND:                 0.000

$$$$

     RDKit          3D

104107  0  0  0  0  0  0  0  0999 V2000
   47.9710   11.0920   22.4419 C   0  0  0  0  0  0  0  0  0  0  0  0
   47.8171   10.4551   23.6084 F   0  0  0  0  0  0  0  0  0  0  0  0
   48.7755   12.2194   22.3762 C   0  0  0  0  0  0  0  0  0  0  0  0
   48.9325   12.8762   21.1571 C   0  0  0  0  0  0  0  0  0  0  0  0
   49.7410   13.9440   21.1183 F   0  0  0  0  0  0  0  0  0  0  0  0
   48.2964   12.4097   20.0053 C   0  0  0  0  0  0  0  0  0  0  0  0
   48.5084   14.3703   18.7557 O   0  0  0  0  0  0  0  0  0  0  0  0
   48.4428   13.1474   18.7269 C   0  0  0  0  0  0  0  0  0  0  0  0
   48.4982   12.3604   17.6032 N   0  0  0  0  0  0  0  0  0  0  0  0
   47.4972   11.2669   20.0994 C   0  0  0  0  0  0  0  0  0  0  0  0
   46.8667   10.7777   19.0202 F   0  0  0  0  0  0  0  0  0  0  0  0
   47.3293   10.6033   21.3098 C   0  0  0  0  0  0  0  0  0  0  0  0
   48.6736   11.7117   15.4147 N   0  0  0  0  0  0  0  0  0  0  0  0
   48.7561   11.9850   14.0938 C   0  0  0  0  0  0  0  0  0  0  0  0
   48.5850   12.7548   16.2677 C   0  0  0  0  0  0  0  0  0  0  0  0
   48.5690   14.0740   15.8392 C   0  0  0  0  0  0  0  0  0  0  0  0
   48.6410   14.3347   14.4723 C   0  0  0  0  0  0  0  0  0  0  0  0
   48.7342   13.2754   13.5788 C   0  0  0  0  0  0  0  0  0  0  0  0
   48.8885   10.8250   13.1621 C   0  0  0  0  0  0  0  0  0  0  0  0
   49.1937    9.4230   13.6901 C   0  0  0  0  0  0  0  0  0  0  0  0
   50.5760    9.3331   14.3422 C   0  0  0  0  0  0  0  0  0  0  0  0
   50.7569    7.9543   14.9741 C   0  0  0  0  0  0  0  0  0  0  0  0
   49.7820    7.6665   16.0348 N   0  0  0  0  0  0  0  0  0  0  0  0
   48.5656    8.4841   15.9768 C   0  0  0  0  0  0  0  0  0  0  0  0
   48.0849    8.8179   14.5627 C   0  0  0  0  0  0  0  0  0  0  0  0
   48.7666   11.0154   11.9488 O   0  0  0  0  0  0  0  0  0  0  0  0
   49.4922    6.2352   16.0974 C   0  0  0  0  0  0  0  0  0  0  0  0
   50.3958   10.5578   11.0069 C   0  0  0  0  0  0  0  0  0  0  0  0
   50.6537   11.2466    9.8883 F   0  0  0  0  0  0  0  0  0  0  0  0
   49.3076   10.9161   11.7909 C   0  0  0  0  0  0  0  0  0  0  0  0
   49.0415   10.1942   12.9523 C   0  0  0  0  0  0  0  0  0  0  0  0
   47.9828   10.5594   13.6909 F   0  0  0  0  0  0  0  0  0  0  0  0
   49.8488    9.1216   13.3406 C   0  0  0  0  0  0  0  0  0  0  0  0
   49.8214    7.1351   14.5643 O   0  0  0  0  0  0  0  0  0  0  0  0
   49.5636    8.3338   14.5630 C   0  0  0  0  0  0  0  0  0  0  0  0
   49.0359    9.0440   15.6200 N   0  0  0  0  0  0  0  0  0  0  0  0
   50.9382    8.7841   12.5324 C   0  0  0  0  0  0  0  0  0  0  0  0
   51.7708    7.7872   12.8662 F   0  0  0  0  0  0  0  0  0  0  0  0
   51.2184    9.4976   11.3681 C   0  0  0  0  0  0  0  0  0  0  0  0
   48.2127    9.5427   17.6945 N   0  0  0  0  0  0  0  0  0  0  0  0
   47.7655    9.1873   18.9200 C   0  0  0  0  0  0  0  0  0  0  0  0
   48.6304    8.5627   16.8666 C   0  0  0  0  0  0  0  0  0  0  0  0
   48.6329    7.2254   17.2354 C   0  0  0  0  0  0  0  0  0  0  0  0
   48.1678    6.8774   18.5019 C   0  0  0  0  0  0  0  0  0  0  0  0
   47.7141    7.8726   19.3597 C   0  0  0  0  0  0  0  0  0  0  0  0
   47.3150   10.2874   19.8229 C   0  0  0  0  0  0  0  0  0  0  0  0
   47.7513   11.7310   19.5699 C   0  0  0  0  0  0  0  0  0  0  0  0
   49.2721   11.9205   19.4602 C   0  0  0  0  0  0  0  0  0  0  0  0
   49.7129   12.4291   18.0855 C   0  0  0  0  0  0  0  0  0  0  0  0
   49.0047   13.6240   17.6141 N   0  0  0  0  0  0  0  0  0  0  0  0
   47.6240   13.7448   18.0987 C   0  0  0  0  0  0  0  0  0  0  0  0
   46.9875   12.3937   18.4226 C   0  0  0  0  0  0  0  0  0  0  0  0
   46.5884   10.0111   20.7807 O   0  0  0  0  0  0  0  0  0  0  0  0
   49.7551   14.8522   17.8748 C   0  0  0  0  0  0  0  0  0  0  0  0
   47.8998    9.6646   14.4030 O   0  0  0  0  0  0  0  0  0  0  0  0
   48.3866    9.7207   15.6565 C   0  0  0  0  0  0  0  0  0  0  0  0
   47.9961    8.9436   16.5083 O   0  0  0  0  0  0  0  0  0  0  0  0
   49.4112   10.8084   15.8125 C   0  0  0  0  0  0  0  0  0  0  0  0
   49.9546   10.8696   17.2349 C   0  0  0  0  0  0  0  0  0  0  0  0
   48.9360   11.2652   18.2712 C   0  0  0  0  0  0  0  0  0  0  0  0
   49.0403   11.0707   19.4730 O   0  0  0  0  0  0  0  0  0  0  0  0
   47.8896   11.9610   17.7856 O   0  0  0  0  0  0  0  0  0  0  0  0
   49.2811   12.5893   23.2643 H   0  0  0  0  0  0  0  0  0  0  0  0
   48.4682   11.3523   17.6949 H   0  0  0  0  0  0  0  0  0  0  0  0
   46.7111    9.7124   21.3703 H   0  0  0  0  0  0  0  0  0  0  0  0
   48.4989   14.9087   16.5281 H   0  0  0  0  0  0  0  0  0  0  0  0
   48.6287   15.3587   14.1056 H   0  0  0  0  0  0  0  0  0  0  0  0
   48.7971   13.4509   12.5086 H   0  0  0  0  0  0  0  0  0  0  0  0
   49.2332    8.7958   12.7843 H   0  0  0  0  0  0  0  0  0  0  0  0
   51.3505    9.5002   13.5852 H   0  0  0  0  0  0  0  0  0  0  0  0
   50.7286   10.1116   15.0978 H   0  0  0  0  0  0  0  0  0  0  0  0
   50.6939    7.2074   14.1705 H   0  0  0  0  0  0  0  0  0  0  0  0
   51.7668    7.8796   15.3934 H   0  0  0  0  0  0  0  0  0  0  0  0
   47.7484    8.0212   16.5449 H   0  0  0  0  0  0  0  0  0  0  0  0
   48.7823    9.4147   16.5124 H   0  0  0  0  0  0  0  0  0  0  0  0
   47.2108    9.4778   14.6142 H   0  0  0  0  0  0  0  0  0  0  0  0
   47.7284    7.8937   14.0904 H   0  0  0  0  0  0  0  0  0  0  0  0
   48.8235    6.0065   16.9356 H   0  0  0  0  0  0  0  0  0  0  0  0
   50.4141    5.6693   16.2646 H   0  0  0  0  0  0  0  0  0  0  0  0
   49.0224    5.8682   15.1788 H   0  0  0  0  0  0  0  0  0  0  0  0
   48.6701   11.7454   11.5003 H   0  0  0  0  0  0  0  0  0  0  0  0
   48.8717   10.0394   15.5267 H   0  0  0  0  0  0  0  0  0  0  0  0
   52.0668    9.2294   10.7502 H   0  0  0  0  0  0  0  0  0  0  0  0
   48.9707    6.4413   16.5687 H   0  0  0  0  0  0  0  0  0  0  0  0
   48.1540    5.8359   18.8090 H   0  0  0  0  0  0  0  0  0  0  0  0
   47.3425    7.6251   20.3492 H   0  0  0  0  0  0  0  0  0  0  0  0
   47.4599   12.2596   20.4902 H   0  0  0  0  0  0  0  0  0  0  0  0
   49.8114   10.9956   19.7026 H   0  0  0  0  0  0  0  0  0  0  0  0
   49.5859   12.6547   20.2161 H   0  0  0  0  0  0  0  0  0  0  0  0
   49.5557   11.6450   17.3386 H   0  0  0  0  0  0  0  0  0  0  0  0
   50.7988   12.5874   18.0914 H   0  0  0  0  0  0  0  0  0  0  0  0
   47.0271   14.2530   17.3334 H   0  0  0  0  0  0  0  0  0  0  0  0
   47.5757   14.3669   19.0036 H   0  0  0  0  0  0  0  0  0  0  0  0
   46.9659   11.7677   17.5238 H   0  0  0  0  0  0  0  0  0  0  0  0
   45.9397   12.5383   18.7132 H   0  0  0  0  0  0  0  0  0  0  0  0
   49.9098   15.0153   18.9486 H   0  0  0  0  0  0  0  0  0  0  0  0
   49.2291   15.7269   17.4695 H   0  0  0  0  0  0  0  0  0  0  0  0
   50.7353   14.8189   17.3857 H   0  0  0  0  0  0  0  0  0  0  0  0
   47.2438    8.9369   14.4255 H   0  0  0  0  0  0  0  0  0  0  0  0
   50.2359   10.5895   15.1273 H   0  0  0  0  0  0  0  0  0  0  0  0
   48.9629   11.7650   15.5223 H   0  0  0  0  0  0  0  0  0  0  0  0
   50.3536    9.8899   17.5189 H   0  0  0  0  0  0  0  0  0  0  0  0
   50.7687   11.6003   17.2820 H   0  0  0  0  0  0  0  0  0  0  0  0
   47.3505   12.1488   18.5826 H   0  0  0  0  0  0  0  0  0  0  0  0
  1  2  1  0
  1 12  2  0
  3  1  1  0
  3  4  2  0
  4  6  1  0
  5  4  1  0
  7  8  2  0
  8  9  1  0
  8  6  1  0
  9 15  1  0
 10 11  1  0
 10  6  2  0
 12 10  1  0
 13 14  2  0
 14 18  1  0
 15 13  1  0
 15 16  2  0
 16 17  1  0
 18 17  2  0
 19 14  1  0
 19 20  1  0
 20 21  1  0
 21 22  1  0
 22 23  1  0
 23 24  1  0
 23 27  1  0
 24 25  1  0
 25 20  1  0
 26 19  2  0
 28 29  1  0
 28 39  2  0
 30 28  1  0
 30 31  2  0
 31 33  1  0
 32 31  1  0
 34 35  2  0
 35 36  1  0
 35 33  1  0
 36 42  1  0
 37 38  1  0
 37 33  2  0
 39 37  1  0
 40 41  2  0
 41 45  1  0
 42 40  1  0
 42 43  2  0
 43 44  1  0
 45 44  2  0
 46 41  1  0
 46 47  1  0
 47 48  1  0
 48 49  1  0
 49 50  1  0
 50 51  1  0
 50 54  1  0
 51 52  1  0
 52 47  1  0
 53 46  2  0
 55 56  1  0
 56 57  2  0
 56 58  1  0
 58 59  1  0
 59 60  1  0
 60 61  2  0
 60 62  1  0
  3 63  1  0
  9 64  1  0
 12 65  1  0
 16 66  1  0
 17 67  1  0
 18 68  1  0
 20 69  1  0
 21 70  1  0
 21 71  1  0
 22 72  1  0
 22 73  1  0
 24 74  1  0
 24 75  1  0
 25 76  1  0
 25 77  1  0
 27 78  1  0
 27 79  1  0
 27 80  1  0
 30 81  1  0
 36 82  1  0
 39 83  1  0
 43 84  1  0
 44 85  1  0
 45 86  1  0
 47 87  1  0
 48 88  1  0
 48 89  1  0
 49 90  1  0
 49 91  1  0
 51 92  1  0
 51 93  1  0
 52 94  1  0
 52 95  1  0
 54 96  1  0
 54 97  1  0
 54 98  1  0
 55 99  1  0
 58100  1  0
 58101  1  0
 59102  1  0
 59103  1  0
 62104  1  0
M  END
> <Uni-Dock RESULT> 
ENERGY=   -6.034  LOWER_BOUND=    4.032  UPPER_BOUND=    6.925
INTER + INTRA:          -6.034
INTER:                  -6.034
INTRA:                   0.000
UNBOUND:                 0.000

$$$$

     RDKit          3D

104107  0  0  0  0  0  0  0  0999 V2000
   46.7813   12.8424   20.4387 C   0  0  0  0  0  0  0  0  0  0  0  0
   46.0027   13.5530   21.2628 F   0  0  0  0  0  0  0  0  0  0  0  0
   47.7989   13.4745   19.7406 C   0  0  0  0  0  0  0  0  0  0  0  0
   48.6069   12.7273   18.8855 C   0  0  0  0  0  0  0  0  0  0  0  0
   49.6018   13.3599   18.2488 F   0  0  0  0  0  0  0  0  0  0  0  0
   48.4075   11.3544   18.7300 C   0  0  0  0  0  0  0  0  0  0  0  0
   49.6082   11.1215   16.7414 O   0  0  0  0  0  0  0  0  0  0  0  0
   49.2514   10.5852   17.7832 C   0  0  0  0  0  0  0  0  0  0  0  0
   49.5635    9.3099   18.1849 N   0  0  0  0  0  0  0  0  0  0  0  0
   47.3789   10.7423   19.4515 C   0  0  0  0  0  0  0  0  0  0  0  0
   47.1487    9.4248   19.3382 F   0  0  0  0  0  0  0  0  0  0  0  0
   46.5632   11.4760   20.3058 C   0  0  0  0  0  0  0  0  0  0  0  0
   50.4556    7.2017   18.2160 N   0  0  0  0  0  0  0  0  0  0  0  0
   51.1428    6.1901   17.6411 C   0  0  0  0  0  0  0  0  0  0  0  0
   50.2914    8.3355   17.5011 C   0  0  0  0  0  0  0  0  0  0  0  0
   50.7902    8.4901   16.2161 C   0  0  0  0  0  0  0  0  0  0  0  0
   51.4841    7.4304   15.6355 C   0  0  0  0  0  0  0  0  0  0  0  0
   51.6649    6.2563   16.3551 C   0  0  0  0  0  0  0  0  0  0  0  0
   51.3480    4.9537   18.4538 C   0  0  0  0  0  0  0  0  0  0  0  0
   51.0397    4.9367   19.9513 C   0  0  0  0  0  0  0  0  0  0  0  0
   51.9563    5.8704   20.7464 C   0  0  0  0  0  0  0  0  0  0  0  0
   51.5024    5.9166   22.2041 C   0  0  0  0  0  0  0  0  0  0  0  0
   50.1386    6.4356   22.3740 N   0  0  0  0  0  0  0  0  0  0  0  0
   49.3071    6.3587   21.1681 C   0  0  0  0  0  0  0  0  0  0  0  0
   49.5558    5.1257   20.2962 C   0  0  0  0  0  0  0  0  0  0  0  0
   51.7909    3.9422   17.9026 O   0  0  0  0  0  0  0  0  0  0  0  0
   49.4949    5.8292   23.5377 C   0  0  0  0  0  0  0  0  0  0  0  0
   53.4880    3.4175   18.6743 C   0  0  0  0  0  0  0  0  0  0  0  0
   54.3509    2.7998   17.8581 F   0  0  0  0  0  0  0  0  0  0  0  0
   52.3039    3.9235   18.1556 C   0  0  0  0  0  0  0  0  0  0  0  0
   51.4078    4.5625   19.0095 C   0  0  0  0  0  0  0  0  0  0  0  0
   50.2700    5.0405   18.4835 F   0  0  0  0  0  0  0  0  0  0  0  0
   51.6802    4.7038   20.3730 C   0  0  0  0  0  0  0  0  0  0  0  0
   50.6451    4.9578   22.4485 O   0  0  0  0  0  0  0  0  0  0  0  0
   50.7254    5.3637   21.2943 C   0  0  0  0  0  0  0  0  0  0  0  0
   50.0083    6.4120   20.7589 N   0  0  0  0  0  0  0  0  0  0  0  0
   52.8807    4.1855   20.8671 C   0  0  0  0  0  0  0  0  0  0  0  0
   53.2170    4.3174   22.1586 F   0  0  0  0  0  0  0  0  0  0  0  0
   53.7881    3.5447   20.0251 C   0  0  0  0  0  0  0  0  0  0  0  0
   48.5587    8.1715   20.5774 N   0  0  0  0  0  0  0  0  0  0  0  0
   47.5711    8.9607   21.0567 C   0  0  0  0  0  0  0  0  0  0  0  0
   49.0163    7.1810   21.3710 C   0  0  0  0  0  0  0  0  0  0  0  0
   48.5257    6.9635   22.6502 C   0  0  0  0  0  0  0  0  0  0  0  0
   47.5074    7.7860   23.1276 C   0  0  0  0  0  0  0  0  0  0  0  0
   47.0098    8.7979   22.3149 C   0  0  0  0  0  0  0  0  0  0  0  0
   47.0843   10.0549   20.1655 C   0  0  0  0  0  0  0  0  0  0  0  0
   47.9379   10.5441   18.9949 C   0  0  0  0  0  0  0  0  0  0  0  0
   49.3613   10.9700   19.3865 C   0  0  0  0  0  0  0  0  0  0  0  0
   50.4440   10.1112   18.7286 C   0  0  0  0  0  0  0  0  0  0  0  0
   50.3237    9.9761   17.2729 N   0  0  0  0  0  0  0  0  0  0  0  0
   48.9470   10.0412   16.7667 C   0  0  0  0  0  0  0  0  0  0  0  0
   47.9126    9.5922   17.7981 C   0  0  0  0  0  0  0  0  0  0  0  0
   45.9831   10.5620   20.3930 O   0  0  0  0  0  0  0  0  0  0  0  0
   51.1849   10.9160   16.5558 C   0  0  0  0  0  0  0  0  0  0  0  0
   49.6754    5.2739   19.4358 O   0  0  0  0  0  0  0  0  0  0  0  0
   49.5978    6.5262   19.9227 C   0  0  0  0  0  0  0  0  0  0  0  0
   48.7066    6.8381   20.6911 O   0  0  0  0  0  0  0  0  0  0  0  0
   50.7062    7.3989   19.4061 C   0  0  0  0  0  0  0  0  0  0  0  0
   50.6095    8.8163   19.9573 C   0  0  0  0  0  0  0  0  0  0  0  0
   49.3915    9.5766   19.5028 C   0  0  0  0  0  0  0  0  0  0  0  0
   48.9369   10.5713   20.0476 O   0  0  0  0  0  0  0  0  0  0  0  0
   48.8543    9.1294   18.3512 O   0  0  0  0  0  0  0  0  0  0  0  0
   47.9684   14.5417   19.8575 H   0  0  0  0  0  0  0  0  0  0  0  0
   49.2427    8.9749   19.0852 H   0  0  0  0  0  0  0  0  0  0  0  0
   45.7708   10.9892   20.8667 H   0  0  0  0  0  0  0  0  0  0  0  0
   50.6569    9.4032   15.6462 H   0  0  0  0  0  0  0  0  0  0  0  0
   51.8855    7.5208   14.6285 H   0  0  0  0  0  0  0  0  0  0  0  0
   52.2065    5.4169   15.9281 H   0  0  0  0  0  0  0  0  0  0  0  0
   51.2887    3.9100   20.2667 H   0  0  0  0  0  0  0  0  0  0  0  0
   52.9887    5.5076   20.6891 H   0  0  0  0  0  0  0  0  0  0  0  0
   51.9759    6.8838   20.3305 H   0  0  0  0  0  0  0  0  0  0  0  0
   51.5890    4.9004   22.6135 H   0  0  0  0  0  0  0  0  0  0  0  0
   52.1933    6.5456   22.7770 H   0  0  0  0  0  0  0  0  0  0  0  0
   48.2401    6.4261   21.4165 H   0  0  0  0  0  0  0  0  0  0  0  0
   49.5124    7.2612   20.5824 H   0  0  0  0  0  0  0  0  0  0  0  0
   48.9382    5.1804   19.3920 H   0  0  0  0  0  0  0  0  0  0  0  0
   49.2038    4.2398   20.8398 H   0  0  0  0  0  0  0  0  0  0  0  0
   48.5057    6.2686   23.7126 H   0  0  0  0  0  0  0  0  0  0  0  0
   50.0879    6.0161   24.4386 H   0  0  0  0  0  0  0  0  0  0  0  0
   49.3700    4.7471   23.4238 H   0  0  0  0  0  0  0  0  0  0  0  0
   52.0777    3.8187   17.0989 H   0  0  0  0  0  0  0  0  0  0  0  0
   50.1567    6.6837   19.7942 H   0  0  0  0  0  0  0  0  0  0  0  0
   54.7169    3.1488   20.4180 H   0  0  0  0  0  0  0  0  0  0  0  0
   48.8967    6.1684   23.2854 H   0  0  0  0  0  0  0  0  0  0  0  0
   47.1032    7.6292   24.1232 H   0  0  0  0  0  0  0  0  0  0  0  0
   46.2132    9.4479   22.6632 H   0  0  0  0  0  0  0  0  0  0  0  0
   47.4376   11.4699   18.6727 H   0  0  0  0  0  0  0  0  0  0  0  0
   49.4973   10.9657   20.4758 H   0  0  0  0  0  0  0  0  0  0  0  0
   49.5104   12.0130   19.0722 H   0  0  0  0  0  0  0  0  0  0  0  0
   50.4153    9.1017   19.1499 H   0  0  0  0  0  0  0  0  0  0  0  0
   51.4314   10.4976   19.0113 H   0  0  0  0  0  0  0  0  0  0  0  0
   48.8705    9.4073   15.8764 H   0  0  0  0  0  0  0  0  0  0  0  0
   48.6895   11.0624   16.4521 H   0  0  0  0  0  0  0  0  0  0  0  0
   48.1055    8.5543   18.0909 H   0  0  0  0  0  0  0  0  0  0  0  0
   46.9132    9.5960   17.3461 H   0  0  0  0  0  0  0  0  0  0  0  0
   50.9182   11.9583   16.7702 H   0  0  0  0  0  0  0  0  0  0  0  0
   51.1150   10.7626   15.4705 H   0  0  0  0  0  0  0  0  0  0  0  0
   52.2355   10.7651   16.8288 H   0  0  0  0  0  0  0  0  0  0  0  0
   48.9073    4.8086   19.8279 H   0  0  0  0  0  0  0  0  0  0  0  0
   51.6545    6.9577   19.7277 H   0  0  0  0  0  0  0  0  0  0  0  0
   50.6776    7.4011   18.3110 H   0  0  0  0  0  0  0  0  0  0  0  0
   50.5916    8.7851   21.0520 H   0  0  0  0  0  0  0  0  0  0  0  0
   51.4879    9.3894   19.6430 H   0  0  0  0  0  0  0  0  0  0  0  0
   48.1015    9.7386   18.1984 H   0  0  0  0  0  0  0  0  0  0  0  0
  1  2  1  0
  1 12  2  0
  3  1  1  0
  3  4  2  0
  4  6  1  0
  5  4  1  0
  7  8  2  0
  8  9  1  0
  8  6  1  0
  9 15  1  0
 10 11  1  0
 10  6  2  0
 12 10  1  0
 13 14  2  0
 14 18  1  0
 15 13  1  0
 15 16  2  0
 16 17  1  0
 18 17  2  0
 19 14  1  0
 19 20  1  0
 20 21  1  0
 21 22  1  0
 22 23  1  0
 23 24  1  0
 23 27  1  0
 24 25  1  0
 25 20  1  0
 26 19  2  0
 28 29  1  0
 28 39  2  0
 30 28  1  0
 30 31  2  0
 31 33  1  0
 32 31  1  0
 34 35  2  0
 35 36  1  0
 35 33  1  0
 36 42  1  0
 37 38  1  0
 37 33  2  0
 39 37  1  0
 40 41  2  0
 41 45  1  0
 42 40  1  0
 42 43  2  0
 43 44  1  0
 45 44  2  0
 46 41  1  0
 46 47  1  0
 47 48  1  0
 48 49  1  0
 49 50  1  0
 50 51  1  0
 50 54  1  0
 51 52  1  0
 52 47  1  0
 53 46  2  0
 55 56  1  0
 56 57  2  0
 56 58  1  0
 58 59  1  0
 59 60  1  0
 60 61  2  0
 60 62  1  0
  3 63  1  0
  9 64  1  0
 12 65  1  0
 16 66  1  0
 17 67  1  0
 18 68  1  0
 20 69  1  0
 21 70  1  0
 21 71  1  0
 22 72  1  0
 22 73  1  0
 24 74  1  0
 24 75  1  0
 25 76  1  0
 25 77  1  0
 27 78  1  0
 27 79  1  0
 27 80  1  0
 30 81  1  0
 36 82  1  0
 39 83  1  0
 43 84  1  0
 44 85  1  0
 45 86  1  0
 47 87  1  0
 48 88  1  0
 48 89  1  0
 49 90  1  0
 49 91  1  0
 51 92  1  0
 51 93  1  0
 52 94  1  0
 52 95  1  0
 54 96  1  0
 54 97  1  0
 54 98  1  0
 55 99  1  0
 58100  1  0
 58101  1  0
 59102  1  0
 59103  1  0
 62104  1  0
M  END
> <Uni-Dock RESULT> 
ENERGY=   -5.909  LOWER_BOUND=    4.093  UPPER_BOUND=    5.904
INTER + INTRA:          -5.909
INTER:                  -5.909
INTRA:                   0.000
UNBOUND:                 0.000

$$$$

     RDKit          3D

104107  0  0  0  0  0  0  0  0999 V2000
   53.3646    3.4126   18.7309 C   0  0  0  0  0  0  0  0  0  0  0  0
   54.2368    2.7532   17.9598 F   0  0  0  0  0  0  0  0  0  0  0  0
   53.6283    3.5737   20.0826 C   0  0  0  0  0  0  0  0  0  0  0  0
   52.7159    4.2633   20.8790 C   0  0  0  0  0  0  0  0  0  0  0  0
   53.0134    4.4303   22.1747 F   0  0  0  0  0  0  0  0  0  0  0  0
   51.5476    4.7966   20.3316 C   0  0  0  0  0  0  0  0  0  0  0  0
   50.3988    5.0767   22.3446 O   0  0  0  0  0  0  0  0  0  0  0  0
   50.5695    5.4906   21.2044 C   0  0  0  0  0  0  0  0  0  0  0  0
   49.9371    6.5658   20.6307 N   0  0  0  0  0  0  0  0  0  0  0  0
   51.3110    4.6252   18.9648 C   0  0  0  0  0  0  0  0  0  0  0  0
   50.2037    5.1212   18.3909 F   0  0  0  0  0  0  0  0  0  0  0  0
   52.2112    3.9368   18.1590 C   0  0  0  0  0  0  0  0  0  0  0  0
   48.5801    8.3878   20.3480 N   0  0  0  0  0  0  0  0  0  0  0  0
   47.6181    9.2349   20.7759 C   0  0  0  0  0  0  0  0  0  0  0  0
   48.9440    7.3823   21.1727 C   0  0  0  0  0  0  0  0  0  0  0  0
   48.3677    7.1901   22.4196 C   0  0  0  0  0  0  0  0  0  0  0  0
   47.3677    8.0660   22.8371 C   0  0  0  0  0  0  0  0  0  0  0  0
   46.9804    9.1075   22.0039 C   0  0  0  0  0  0  0  0  0  0  0  0
   47.2479   10.3635   19.8701 C   0  0  0  0  0  0  0  0  0  0  0  0
   48.1026   10.7049   18.6492 C   0  0  0  0  0  0  0  0  0  0  0  0
   49.5030   11.1895   19.0342 C   0  0  0  0  0  0  0  0  0  0  0  0
   50.3474   11.3721   17.7745 C   0  0  0  0  0  0  0  0  0  0  0  0
   50.5365   10.1296   17.0140 N   0  0  0  0  0  0  0  0  0  0  0  0
   49.5388    9.0912   17.2933 C   0  0  0  0  0  0  0  0  0  0  0  0
   48.1275    9.6161   17.5671 C   0  0  0  0  0  0  0  0  0  0  0  0
   46.2462   11.0357   20.1307 O   0  0  0  0  0  0  0  0  0  0  0  0
   50.6667   10.4113   15.5857 C   0  0  0  0  0  0  0  0  0  0  0  0
   46.7163   12.8869   20.4519 C   0  0  0  0  0  0  0  0  0  0  0  0
   45.9373   13.5624   21.3058 F   0  0  0  0  0  0  0  0  0  0  0  0
   46.5052   11.5271   20.2683 C   0  0  0  0  0  0  0  0  0  0  0  0
   47.3163   10.8292   19.3764 C   0  0  0  0  0  0  0  0  0  0  0  0
   47.0902    9.5167   19.2156 F   0  0  0  0  0  0  0  0  0  0  0  0
   48.3355   11.4715   18.6678 C   0  0  0  0  0  0  0  0  0  0  0  0
   49.5916   11.3373   16.7061 O   0  0  0  0  0  0  0  0  0  0  0  0
   49.1913   10.7436   17.7014 C   0  0  0  0  0  0  0  0  0  0  0  0
   49.4797    9.4359   18.0279 N   0  0  0  0  0  0  0  0  0  0  0  0
   48.5257   12.8409   18.8736 C   0  0  0  0  0  0  0  0  0  0  0  0
   49.5071   13.5092   18.2502 F   0  0  0  0  0  0  0  0  0  0  0  0
   47.7233   13.5528   19.7638 C   0  0  0  0  0  0  0  0  0  0  0  0
   50.3572    7.3261   17.9335 N   0  0  0  0  0  0  0  0  0  0  0  0
   51.0258    6.3371   17.2988 C   0  0  0  0  0  0  0  0  0  0  0  0
   50.2154    8.5046   17.2921 C   0  0  0  0  0  0  0  0  0  0  0  0
   50.7428    8.7348   16.0299 C   0  0  0  0  0  0  0  0  0  0  0  0
   51.4282    7.7040   15.3904 C   0  0  0  0  0  0  0  0  0  0  0  0
   51.5653    6.4767   16.0284 C   0  0  0  0  0  0  0  0  0  0  0  0
   51.1777    5.0439   18.0290 C   0  0  0  0  0  0  0  0  0  0  0  0
   51.0024    4.9808   19.5467 C   0  0  0  0  0  0  0  0  0  0  0  0
   51.8843    5.9692   20.3253 C   0  0  0  0  0  0  0  0  0  0  0  0
   51.0732    7.0000   21.1140 C   0  0  0  0  0  0  0  0  0  0  0  0
   50.0350    6.4342   21.9822 N   0  0  0  0  0  0  0  0  0  0  0  0
   49.4590    5.1725   21.5005 C   0  0  0  0  0  0  0  0  0  0  0  0
   49.5368    5.0254   19.9813 C   0  0  0  0  0  0  0  0  0  0  0  0
   51.4526    4.0270   17.3871 O   0  0  0  0  0  0  0  0  0  0  0  0
   50.4821    6.3042   23.3688 C   0  0  0  0  0  0  0  0  0  0  0  0
   47.7269    9.3020   18.2865 O   0  0  0  0  0  0  0  0  0  0  0  0
   48.9503    8.7503   18.3893 C   0  0  0  0  0  0  0  0  0  0  0  0
   49.4645    8.2007   17.4325 O   0  0  0  0  0  0  0  0  0  0  0  0
   49.5278    8.9181   19.7660 C   0  0  0  0  0  0  0  0  0  0  0  0
   50.9105    8.2871   19.8768 C   0  0  0  0  0  0  0  0  0  0  0  0
   50.9220    6.7887   19.7265 C   0  0  0  0  0  0  0  0  0  0  0  0
   51.9046    6.1144   19.4566 O   0  0  0  0  0  0  0  0  0  0  0  0
   49.7473    6.1923   20.0080 O   0  0  0  0  0  0  0  0  0  0  0  0
   54.5372    3.1687   20.5198 H   0  0  0  0  0  0  0  0  0  0  0  0
   50.1778    6.8445   19.6873 H   0  0  0  0  0  0  0  0  0  0  0  0
   52.0206    3.8149   17.0968 H   0  0  0  0  0  0  0  0  0  0  0  0
   48.6641    6.3817   23.0792 H   0  0  0  0  0  0  0  0  0  0  0  0
   46.8955    7.9399   23.8089 H   0  0  0  0  0  0  0  0  0  0  0  0
   46.2071    9.8078   22.3071 H   0  0  0  0  0  0  0  0  0  0  0  0
   47.5880   11.5657   18.1914 H   0  0  0  0  0  0  0  0  0  0  0  0
   49.4270   12.1408   19.5728 H   0  0  0  0  0  0  0  0  0  0  0  0
   50.0050   10.5000   19.7219 H   0  0  0  0  0  0  0  0  0  0  0  0
   49.8631   12.1406   17.1560 H   0  0  0  0  0  0  0  0  0  0  0  0
   51.3305   11.7679   18.0539 H   0  0  0  0  0  0  0  0  0  0  0  0
   49.5057    8.3455   16.4886 H   0  0  0  0  0  0  0  0  0  0  0  0
   49.8932    8.5374   18.1693 H   0  0  0  0  0  0  0  0  0  0  0  0
   47.4647    8.7813   17.8237 H   0  0  0  0  0  0  0  0  0  0  0  0
   47.7263   10.0347   16.6354 H   0  0  0  0  0  0  0  0  0  0  0  0
   50.8831    9.4954   15.0231 H   0  0  0  0  0  0  0  0  0  0  0  0
   51.5024   11.0958   15.4095 H   0  0  0  0  0  0  0  0  0  0  0  0
   49.7585   10.8591   15.1684 H   0  0  0  0  0  0  0  0  0  0  0  0
   45.7155   11.0155   20.8099 H   0  0  0  0  0  0  0  0  0  0  0  0
   49.1128    9.0373   18.8842 H   0  0  0  0  0  0  0  0  0  0  0  0
   47.8808   14.6135   19.9178 H   0  0  0  0  0  0  0  0  0  0  0  0
   50.6286    9.6829   15.5186 H   0  0  0  0  0  0  0  0  0  0  0  0
   51.8432    7.8597   14.3990 H   0  0  0  0  0  0  0  0  0  0  0  0
   52.0907    5.6573   15.5478 H   0  0  0  0  0  0  0  0  0  0  0  0
   51.3811    3.9828   19.8145 H   0  0  0  0  0  0  0  0  0  0  0  0
   52.5927    6.4842   19.6634 H   0  0  0  0  0  0  0  0  0  0  0  0
   52.5008    5.3995   21.0353 H   0  0  0  0  0  0  0  0  0  0  0  0
   50.5755    7.6827   20.4185 H   0  0  0  0  0  0  0  0  0  0  0  0
   51.7599    7.6407   21.6817 H   0  0  0  0  0  0  0  0  0  0  0  0
   48.4113    5.1221   21.8168 H   0  0  0  0  0  0  0  0  0  0  0  0
   49.9681    4.3084   21.9503 H   0  0  0  0  0  0  0  0  0  0  0  0
   48.9871    5.8416   19.5000 H   0  0  0  0  0  0  0  0  0  0  0  0
   49.0332    4.1010   19.6726 H   0  0  0  0  0  0  0  0  0  0  0  0
   51.3357    5.6210   23.4596 H   0  0  0  0  0  0  0  0  0  0  0  0
   49.6731    5.9257   24.0080 H   0  0  0  0  0  0  0  0  0  0  0  0
   50.7751    7.2791   23.7748 H   0  0  0  0  0  0  0  0  0  0  0  0
   47.4524    9.1231   17.3630 H   0  0  0  0  0  0  0  0  0  0  0  0
   49.6113    9.9913   19.9633 H   0  0  0  0  0  0  0  0  0  0  0  0
   48.8383    8.4829   20.4976 H   0  0  0  0  0  0  0  0  0  0  0  0
   51.5677    8.7029   19.1054 H   0  0  0  0  0  0  0  0  0  0  0  0
   51.3390    8.5200   20.8571 H   0  0  0  0  0  0  0  0  0  0  0  0
   49.9388    5.2391   19.8814 H   0  0  0  0  0  0  0  0  0  0  0  0
  1  2  1  0
  1 12  2  0
  3  1  1  0
  3  4  2  0
  4  6  1  0
  5  4  1  0
  7  8  2  0
  8  9  1  0
  8  6  1  0
  9 15  1  0
 10 11  1  0
 10  6  2  0
 12 10  1  0
 13 14  2  0
 14 18  1  0
 15 13  1  0
 15 16  2  0
 16 17  1  0
 18 17  2  0
 19 14  1  0
 19 20  1  0
 20 21  1  0
 21 22  1  0
 22 23  1  0
 23 24  1  0
 23 27  1  0
 24 25  1  0
 25 20  1  0
 26 19  2  0
 28 29  1  0
 28 39  2  0
 30 28  1  0
 30 31  2  0
 31 33  1  0
 32 31  1  0
 34 35  2  0
 35 36  1  0
 35 33  1  0
 36 42  1  0
 37 38  1  0
 37 33  2  0
 39 37  1  0
 40 41  2  0
 41 45  1  0
 42 40  1  0
 42 43  2  0
 43 44  1  0
 45 44  2  0
 46 41  1  0
 46 47  1  0
 47 48  1  0
 48 49  1  0
 49 50  1  0
 50 51  1  0
 50 54  1  0
 51 52  1  0
 52 47  1  0
 53 46  2  0
 55 56  1  0
 56 57  2  0
 56 58  1  0
 58 59  1  0
 59 60  1  0
 60 61  2  0
 60 62  1  0
  3 63  1  0
  9 64  1  0
 12 65  1  0
 16 66  1  0
 17 67  1  0
 18 68  1  0
 20 69  1  0
 21 70  1  0
 21 71  1  0
 22 72  1  0
 22 73  1  0
 24 74  1  0
 24 75  1  0
 25 76  1  0
 25 77  1  0
 27 78  1  0
 27 79  1  0
 27 80  1  0
 30 81  1  0
 36 82  1  0
 39 83  1  0
 43 84  1  0
 44 85  1  0
 45 86  1  0
 47 87  1  0
 48 88  1  0
 48 89  1  0
 49 90  1  0
 49 91  1  0
 51 92  1  0
 51 93  1  0
 52 94  1  0
 52 95  1  0
 54 96  1  0
 54 97  1  0
 54 98  1  0
 55 99  1  0
 58100  1  0
 58101  1  0
 59102  1  0
 59103  1  0
 62104  1  0
M  END
> <Uni-Dock RESULT> 
ENERGY=   -5.784  LOWER_BOUND=    3.945  UPPER_BOUND=    7.603
INTER + INTRA:          -5.784
INTER:                  -5.784
INTRA:                   0.000
UNBOUND:                 0.000

$$$$

     RDKit          3D

104107  0  0  0  0  0  0  0  0999 V2000
   50.5918   10.5075   10.6957 C   0  0  0  0  0  0  0  0  0  0  0  0
   50.9544   11.0036    9.5072 F   0  0  0  0  0  0  0  0  0  0  0  0
   51.2781    9.4259   11.2265 C   0  0  0  0  0  0  0  0  0  0  0  0
   50.8956    8.9159   12.4658 C   0  0  0  0  0  0  0  0  0  0  0  0
   51.5978    7.8907   12.9671 F   0  0  0  0  0  0  0  0  0  0  0  0
   49.8379    9.4838   13.1782 C   0  0  0  0  0  0  0  0  0  0  0  0
   49.4755    7.6847   14.6212 O   0  0  0  0  0  0  0  0  0  0  0  0
   49.4198    8.8997   14.4760 C   0  0  0  0  0  0  0  0  0  0  0  0
   49.0045    9.8090   15.4172 N   0  0  0  0  0  0  0  0  0  0  0  0
   49.1686   10.5777   12.6224 C   0  0  0  0  0  0  0  0  0  0  0  0
   48.1470   11.1602   13.2692 F   0  0  0  0  0  0  0  0  0  0  0  0
   49.5375   11.0949   11.3854 C   0  0  0  0  0  0  0  0  0  0  0  0
   48.2454   10.7045   17.3826 N   0  0  0  0  0  0  0  0  0  0  0  0
   47.7573   10.5840   18.6370 C   0  0  0  0  0  0  0  0  0  0  0  0
   48.5126    9.5700   16.7008 C   0  0  0  0  0  0  0  0  0  0  0  0
   48.2995    8.3074   17.2341 C   0  0  0  0  0  0  0  0  0  0  0  0
   47.7827    8.2040   18.5240 C   0  0  0  0  0  0  0  0  0  0  0  0
   47.5027    9.3593   19.2422 C   0  0  0  0  0  0  0  0  0  0  0  0
   47.4979   11.8451   19.3943 C   0  0  0  0  0  0  0  0  0  0  0  0
   48.0161   13.1898   18.8837 C   0  0  0  0  0  0  0  0  0  0  0  0
   49.5456   13.2588   18.8701 C   0  0  0  0  0  0  0  0  0  0  0  0
   49.9948   14.5641   18.2164 C   0  0  0  0  0  0  0  0  0  0  0  0
   49.5645   14.6942   16.8178 N   0  0  0  0  0  0  0  0  0  0  0  0
   48.4273   13.8426   16.4527 C   0  0  0  0  0  0  0  0  0  0  0  0
   47.3889   13.6510   17.5605 C   0  0  0  0  0  0  0  0  0  0  0  0
   46.8714   11.7870   20.4560 O   0  0  0  0  0  0  0  0  0  0  0  0
   49.3470   16.0974   16.4712 C   0  0  0  0  0  0  0  0  0  0  0  0
   47.9544   12.4087   21.9364 C   0  0  0  0  0  0  0  0  0  0  0  0
   47.7055   11.8596   23.1317 F   0  0  0  0  0  0  0  0  0  0  0  0
   47.2959   11.9239   20.8145 C   0  0  0  0  0  0  0  0  0  0  0  0
   47.5558   12.5007   19.5735 C   0  0  0  0  0  0  0  0  0  0  0  0
   46.9048   12.0153   18.5057 F   0  0  0  0  0  0  0  0  0  0  0  0
   48.4655   13.5532   19.4390 C   0  0  0  0  0  0  0  0  0  0  0  0
   48.9846   15.3878   18.0941 O   0  0  0  0  0  0  0  0  0  0  0  0
   48.7349   14.1878   18.1272 C   0  0  0  0  0  0  0  0  0  0  0  0
   48.6951   13.3444   17.0377 N   0  0  0  0  0  0  0  0  0  0  0  0
   49.1146   14.0200   20.5855 C   0  0  0  0  0  0  0  0  0  0  0  0
   50.0231   15.0042   20.5196 F   0  0  0  0  0  0  0  0  0  0  0  0
   48.8663   13.4523   21.8342 C   0  0  0  0  0  0  0  0  0  0  0  0
   48.8212   12.5860   14.8839 N   0  0  0  0  0  0  0  0  0  0  0  0
   48.9394   12.7848   13.5518 C   0  0  0  0  0  0  0  0  0  0  0  0
   48.8617   13.6675   15.6894 C   0  0  0  0  0  0  0  0  0  0  0  0
   49.0375   14.9543   15.2019 C   0  0  0  0  0  0  0  0  0  0  0  0
   49.1569   15.1406   13.8262 C   0  0  0  0  0  0  0  0  0  0  0  0
   49.0961   14.0392   12.9805 C   0  0  0  0  0  0  0  0  0  0  0  0
   48.8992   11.5743   12.6791 C   0  0  0  0  0  0  0  0  0  0  0  0
   49.1686   10.1857   13.2600 C   0  0  0  0  0  0  0  0  0  0  0  0
   50.4974   10.0676   14.0225 C   0  0  0  0  0  0  0  0  0  0  0  0
   50.3081    9.7330   15.5040 C   0  0  0  0  0  0  0  0  0  0  0  0
   49.4515    8.5723   15.7693 N   0  0  0  0  0  0  0  0  0  0  0  0
   48.4043    8.3457   14.7655 C   0  0  0  0  0  0  0  0  0  0  0  0
   47.9824    9.6269   14.0472 C   0  0  0  0  0  0  0  0  0  0  0  0
   48.6501   11.7140   11.4791 O   0  0  0  0  0  0  0  0  0  0  0  0
   50.2257    7.3521   15.9956 C   0  0  0  0  0  0  0  0  0  0  0  0
   47.1426   12.8210   17.7254 O   0  0  0  0  0  0  0  0  0  0  0  0
   48.1136   12.6436   16.8104 C   0  0  0  0  0  0  0  0  0  0  0  0
   48.1305   13.3052   15.7886 O   0  0  0  0  0  0  0  0  0  0  0  0
   49.0936   11.5851   17.2300 C   0  0  0  0  0  0  0  0  0  0  0  0
   50.1872   11.3859   16.1876 C   0  0  0  0  0  0  0  0  0  0  0  0
   49.6981   10.8385   14.8727 C   0  0  0  0  0  0  0  0  0  0  0  0
   50.3038   10.9012   13.8134 O   0  0  0  0  0  0  0  0  0  0  0  0
   48.5356   10.1621   14.9495 O   0  0  0  0  0  0  0  0  0  0  0  0
   52.1073    8.9785   10.6847 H   0  0  0  0  0  0  0  0  0  0  0  0
   49.0292   10.7987   15.2037 H   0  0  0  0  0  0  0  0  0  0  0  0
   49.0148   11.9493   10.9657 H   0  0  0  0  0  0  0  0  0  0  0  0
   48.5168    7.3988   16.6831 H   0  0  0  0  0  0  0  0  0  0  0  0
   47.6030    7.2277   18.9687 H   0  0  0  0  0  0  0  0  0  0  0  0
   47.1043    9.3071   20.2515 H   0  0  0  0  0  0  0  0  0  0  0  0
   47.6765   13.9154   19.6412 H   0  0  0  0  0  0  0  0  0  0  0  0
   49.9245   13.2069   19.8970 H   0  0  0  0  0  0  0  0  0  0  0  0
   49.9935   12.4070   18.3465 H   0  0  0  0  0  0  0  0  0  0  0  0
   49.6073   15.3933   18.8246 H   0  0  0  0  0  0  0  0  0  0  0  0
   51.0881   14.6298   18.2566 H   0  0  0  0  0  0  0  0  0  0  0  0
   47.9336   14.2076   15.5430 H   0  0  0  0  0  0  0  0  0  0  0  0
   48.8384   12.8669   16.1719 H   0  0  0  0  0  0  0  0  0  0  0  0
   46.6104   12.9567   17.2229 H   0  0  0  0  0  0  0  0  0  0  0  0
   46.8780   14.6080   17.7263 H   0  0  0  0  0  0  0  0  0  0  0  0
   49.0991   16.2054   15.4087 H   0  0  0  0  0  0  0  0  0  0  0  0
   50.2603   16.6758   16.6434 H   0  0  0  0  0  0  0  0  0  0  0  0
   48.5373   16.5468   17.0559 H   0  0  0  0  0  0  0  0  0  0  0  0
   46.5846   11.1087   20.9043 H   0  0  0  0  0  0  0  0  0  0  0  0
   48.4939   12.3601   17.1691 H   0  0  0  0  0  0  0  0  0  0  0  0
   49.3767   13.8201   22.7162 H   0  0  0  0  0  0  0  0  0  0  0  0
   49.0715   15.8203   15.8517 H   0  0  0  0  0  0  0  0  0  0  0  0
   49.2879   16.1399   13.4220 H   0  0  0  0  0  0  0  0  0  0  0  0
   49.1816   14.1602   11.9051 H   0  0  0  0  0  0  0  0  0  0  0  0
   49.2874    9.5468   12.3718 H   0  0  0  0  0  0  0  0  0  0  0  0
   51.1006   10.9794   13.9235 H   0  0  0  0  0  0  0  0  0  0  0  0
   51.0921    9.2660   13.5614 H   0  0  0  0  0  0  0  0  0  0  0  0
   49.8597   10.5892   16.0172 H   0  0  0  0  0  0  0  0  0  0  0  0
   51.2923    9.6164   15.9754 H   0  0  0  0  0  0  0  0  0  0  0  0
   47.5330    7.9039   15.2614 H   0  0  0  0  0  0  0  0  0  0  0  0
   48.7356    7.6249   14.0046 H   0  0  0  0  0  0  0  0  0  0  0  0
   47.5905   10.3482   14.7726 H   0  0  0  0  0  0  0  0  0  0  0  0
   47.1543    9.4110   13.3609 H   0  0  0  0  0  0  0  0  0  0  0  0
   50.8182    7.0759   15.1147 H   0  0  0  0  0  0  0  0  0  0  0  0
   49.5662    6.5088   16.2409 H   0  0  0  0  0  0  0  0  0  0  0  0
   50.9070    7.4771   16.8450 H   0  0  0  0  0  0  0  0  0  0  0  0
   46.5674   13.5162   17.3431 H   0  0  0  0  0  0  0  0  0  0  0  0
   49.5534   11.9104   18.1682 H   0  0  0  0  0  0  0  0  0  0  0  0
   48.5522   10.6506   17.4141 H   0  0  0  0  0  0  0  0  0  0  0  0
   50.6816   12.3422   15.9856 H   0  0  0  0  0  0  0  0  0  0  0  0
   50.9351   10.6860   16.5744 H   0  0  0  0  0  0  0  0  0  0  0  0
   48.3821    9.8659   14.0276 H   0  0  0  0  0  0  0  0  0  0  0  0
  1  2  1  0
  1 12  2  0
  3  1  1  0
  3  4  2  0
  4  6  1  0
  5  4  1  0
  7  8  2  0
  8  9  1  0
  8  6  1  0
  9 15  1  0
 10 11  1  0
 10  6  2  0
 12 10  1  0
 13 14  2  0
 14 18  1  0
 15 13  1  0
 15 16  2  0
 16 17  1  0
 18 17  2  0
 19 14  1  0
 19 20  1  0
 20 21  1  0
 21 22  1  0
 22 23  1  0
 23 24  1  0
 23 27  1  0
 24 25  1  0
 25 20  1  0
 26 19  2  0
 28 29  1  0
 28 39  2  0
 30 28  1  0
 30 31  2  0
 31 33  1  0
 32 31  1  0
 34 35  2  0
 35 36  1  0
 35 33  1  0
 36 42  1  0
 37 38  1  0
 37 33  2  0
 39 37  1  0
 40 41  2  0
 41 45  1  0
 42 40  1  0
 42 43  2  0
 43 44  1  0
 45 44  2  0
 46 41  1  0
 46 47  1  0
 47 48  1  0
 48 49  1  0
 49 50  1  0
 50 51  1  0
 50 54  1  0
 51 52  1  0
 52 47  1  0
 53 46  2  0
 55 56  1  0
 56 57  2  0
 56 58  1  0
 58 59  1  0
 59 60  1  0
 60 61  2  0
 60 62  1  0
  3 63  1  0
  9 64  1  0
 12 65  1  0
 16 66  1  0
 17 67  1  0
 18 68  1  0
 20 69  1  0
 21 70  1  0
 21 71  1  0
 22 72  1  0
 22 73  1  0
 24 74  1  0
 24 75  1  0
 25 76  1  0
 25 77  1  0
 27 78  1  0
 27 79  1  0
 27 80  1  0
 30 81  1  0
 36 82  1  0
 39 83  1  0
 43 84  1  0
 44 85  1  0
 45 86  1  0
 47 87  1  0
 48 88  1  0
 48 89  1  0
 49 90  1  0
 49 91  1  0
 51 92  1  0
 51 93  1  0
 52 94  1  0
 52 95  1  0
 54 96  1  0
 54 97  1  0
 54 98  1  0
 55 99  1  0
 58100  1  0
 58101  1  0
 59102  1  0
 59103  1  0
 62104  1  0
M  END
> <Uni-Dock RESULT> 
ENERGY=   -5.711  LOWER_BOUND=    4.558  UPPER_BOUND=    6.880
INTER + INTRA:          -5.711
INTER:                  -5.711
INTRA:                   0.000
UNBOUND:                 0.000

$$$$

     RDKit          3D

104107  0  0  0  0  0  0  0  0999 V2000
   45.2782   10.6257   11.4814 C   0  0  0  0  0  0  0  0  0  0  0  0
   44.3873   11.2752   10.7233 F   0  0  0  0  0  0  0  0  0  0  0  0
   44.9821    9.3559   11.9530 C   0  0  0  0  0  0  0  0  0  0  0  0
   45.9160    8.6850   12.7405 C   0  0  0  0  0  0  0  0  0  0  0  0
   45.6145    7.4470   13.1551 F   0  0  0  0  0  0  0  0  0  0  0  0
   47.1432    9.2724   13.0528 C   0  0  0  0  0  0  0  0  0  0  0  0
   47.6728    7.8757   14.8470 O   0  0  0  0  0  0  0  0  0  0  0  0
   48.1058    8.5587   13.9270 C   0  0  0  0  0  0  0  0  0  0  0  0
   49.4284    8.7358   13.6037 N   0  0  0  0  0  0  0  0  0  0  0  0
   47.4178   10.5504   12.5579 C   0  0  0  0  0  0  0  0  0  0  0  0
   48.5843   11.1567   12.8282 F   0  0  0  0  0  0  0  0  0  0  0  0
   46.4942   11.2326   11.7736 C   0  0  0  0  0  0  0  0  0  0  0  0
   51.7112    8.5664   13.6341 N   0  0  0  0  0  0  0  0  0  0  0  0
   52.8671    8.1398   14.1892 C   0  0  0  0  0  0  0  0  0  0  0  0
   50.5578    8.2405   14.2562 C   0  0  0  0  0  0  0  0  0  0  0  0
   50.5220    7.5015   15.4294 C   0  0  0  0  0  0  0  0  0  0  0  0
   51.7253    7.0827   15.9937 C   0  0  0  0  0  0  0  0  0  0  0  0
   52.9223    7.4064   15.3682 C   0  0  0  0  0  0  0  0  0  0  0  0
   54.1347    8.4765   13.4742 C   0  0  0  0  0  0  0  0  0  0  0  0
   54.1105    9.0319   12.0500 C   0  0  0  0  0  0  0  0  0  0  0  0
   53.5559    8.0238   11.0398 C   0  0  0  0  0  0  0  0  0  0  0  0
   53.4233    8.6886    9.6710 C   0  0  0  0  0  0  0  0  0  0  0  0
   52.4982    9.8297    9.6640 N   0  0  0  0  0  0  0  0  0  0  0  0
   52.2540   10.4190   10.9849 C   0  0  0  0  0  0  0  0  0  0  0  0
   53.4655   10.4190   11.9201 C   0  0  0  0  0  0  0  0  0  0  0  0
   55.2123    8.2821   14.0435 O   0  0  0  0  0  0  0  0  0  0  0  0
   52.9095   10.8239    8.6747 C   0  0  0  0  0  0  0  0  0  0  0  0
   56.2881    6.9964   13.0736 C   0  0  0  0  0  0  0  0  0  0  0  0
   57.1187    6.2406   13.8023 F   0  0  0  0  0  0  0  0  0  0  0  0
   55.4060    7.8533   13.7178 C   0  0  0  0  0  0  0  0  0  0  0  0
   54.5459    8.6401   12.9551 C   0  0  0  0  0  0  0  0  0  0  0  0
   53.7050    9.4612   13.6020 F   0  0  0  0  0  0  0  0  0  0  0  0
   54.5546    8.5804   11.5588 C   0  0  0  0  0  0  0  0  0  0  0  0
   54.0622    9.8312    9.6517 O   0  0  0  0  0  0  0  0  0  0  0  0
   53.6585    9.4273   10.7368 C   0  0  0  0  0  0  0  0  0  0  0  0
   52.4142    9.6759   11.2751 N   0  0  0  0  0  0  0  0  0  0  0  0
   55.4526    7.7078   10.9374 C   0  0  0  0  0  0  0  0  0  0  0  0
   55.4881    7.5788    9.6031 F   0  0  0  0  0  0  0  0  0  0  0  0
   56.3185    6.9130   11.6869 C   0  0  0  0  0  0  0  0  0  0  0  0
   50.2746   10.4484   11.5107 N   0  0  0  0  0  0  0  0  0  0  0  0
   49.2281   11.2082   11.1164 C   0  0  0  0  0  0  0  0  0  0  0  0
   51.3906   10.4693   10.7527 C   0  0  0  0  0  0  0  0  0  0  0  0
   51.4883   11.2193    9.5899 C   0  0  0  0  0  0  0  0  0  0  0  0
   50.4003   11.9971    9.1991 C   0  0  0  0  0  0  0  0  0  0  0  0
   49.2503   12.0035    9.9799 C   0  0  0  0  0  0  0  0  0  0  0  0
   48.0007   11.1650   11.9651 C   0  0  0  0  0  0  0  0  0  0  0  0
   47.7678   10.0103   12.9401 C   0  0  0  0  0  0  0  0  0  0  0  0
   47.8412    8.6168   12.2968 C   0  0  0  0  0  0  0  0  0  0  0  0
   48.9773    7.7588   12.8588 C   0  0  0  0  0  0  0  0  0  0  0  0
   49.0082    7.6583   14.3219 N   0  0  0  0  0  0  0  0  0  0  0  0
   48.4812    8.8348   15.0247 C   0  0  0  0  0  0  0  0  0  0  0  0
   48.6120   10.1215   14.2105 C   0  0  0  0  0  0  0  0  0  0  0  0
   47.1741   12.0748   11.8624 O   0  0  0  0  0  0  0  0  0  0  0  0
   48.3697    6.4352   14.8073 C   0  0  0  0  0  0  0  0  0  0  0  0
   53.3299   10.1103   12.7344 O   0  0  0  0  0  0  0  0  0  0  0  0
   52.1402    9.8771   12.1499 C   0  0  0  0  0  0  0  0  0  0  0  0
   51.5876   10.7465   11.5012 O   0  0  0  0  0  0  0  0  0  0  0  0
   51.6532    8.4793   12.4064 C   0  0  0  0  0  0  0  0  0  0  0  0
   50.3038    8.2236   11.7461 C   0  0  0  0  0  0  0  0  0  0  0  0
   49.1730    9.0439   12.3085 C   0  0  0  0  0  0  0  0  0  0  0  0
   48.1072    9.2533   11.7489 O   0  0  0  0  0  0  0  0  0  0  0  0
   49.3762    9.4835   13.5656 O   0  0  0  0  0  0  0  0  0  0  0  0
   44.0327    8.8849   11.7120 H   0  0  0  0  0  0  0  0  0  0  0  0
   49.6771    9.2976   12.7985 H   0  0  0  0  0  0  0  0  0  0  0  0
   46.7204   12.2227   11.3889 H   0  0  0  0  0  0  0  0  0  0  0  0
   49.5930    7.2411   15.9249 H   0  0  0  0  0  0  0  0  0  0  0  0
   51.7296    6.5033   16.9143 H   0  0  0  0  0  0  0  0  0  0  0  0
   53.8741    7.0879   15.7839 H   0  0  0  0  0  0  0  0  0  0  0  0
   55.1742    9.1752   11.7978 H   0  0  0  0  0  0  0  0  0  0  0  0
   54.2306    7.1630   10.9720 H   0  0  0  0  0  0  0  0  0  0  0  0
   52.5876    7.6164   11.3509 H   0  0  0  0  0  0  0  0  0  0  0  0
   54.4283    8.9966    9.3503 H   0  0  0  0  0  0  0  0  0  0  0  0
   53.0749    7.9474    8.9426 H   0  0  0  0  0  0  0  0  0  0  0  0
   51.8549   11.4377   10.8977 H   0  0  0  0  0  0  0  0  0  0  0  0
   51.4439    9.8430   11.4450 H   0  0  0  0  0  0  0  0  0  0  0  0
   53.1780   10.8202   12.8992 H   0  0  0  0  0  0  0  0  0  0  0  0
   54.2107   11.1194   11.5224 H   0  0  0  0  0  0  0  0  0  0  0  0
   52.1810   11.6410    8.6130 H   0  0  0  0  0  0  0  0  0  0  0  0
   52.9605   10.3696    7.6801 H   0  0  0  0  0  0  0  0  0  0  0  0
   53.8875   11.2583    8.9074 H   0  0  0  0  0  0  0  0  0  0  0  0
   55.3899    7.9122   14.8018 H   0  0  0  0  0  0  0  0  0  0  0  0
   52.1670    9.2836   12.1759 H   0  0  0  0  0  0  0  0  0  0  0  0
   57.0089    6.2382   11.1952 H   0  0  0  0  0  0  0  0  0  0  0  0
   52.3853   11.2323    8.9827 H   0  0  0  0  0  0  0  0  0  0  0  0
   50.4573   12.5977    8.2963 H   0  0  0  0  0  0  0  0  0  0  0  0
   48.3920   12.6054    9.6983 H   0  0  0  0  0  0  0  0  0  0  0  0
   46.7179   10.1320   13.2469 H   0  0  0  0  0  0  0  0  0  0  0  0
   47.9326    8.6820   11.2049 H   0  0  0  0  0  0  0  0  0  0  0  0
   46.8910    8.0969   12.4855 H   0  0  0  0  0  0  0  0  0  0  0  0
   49.9391    8.1744   12.5434 H   0  0  0  0  0  0  0  0  0  0  0  0
   48.9426    6.7656   12.3932 H   0  0  0  0  0  0  0  0  0  0  0  0
   49.0203    8.9482   15.9716 H   0  0  0  0  0  0  0  0  0  0  0  0
   47.4199    8.7014   15.2778 H   0  0  0  0  0  0  0  0  0  0  0  0
   49.6673   10.3166   13.9903 H   0  0  0  0  0  0  0  0  0  0  0  0
   48.2672   10.9743   14.8079 H   0  0  0  0  0  0  0  0  0  0  0  0
   47.3066    6.3964   14.5395 H   0  0  0  0  0  0  0  0  0  0  0  0
   48.4490    6.3582   15.9000 H   0  0  0  0  0  0  0  0  0  0  0  0
   48.8632    5.5491   14.3920 H   0  0  0  0  0  0  0  0  0  0  0  0
   53.5368   11.0415   12.5099 H   0  0  0  0  0  0  0  0  0  0  0  0
   52.3899    7.7878   11.9862 H   0  0  0  0  0  0  0  0  0  0  0  0
   51.5983    8.3134   13.4880 H   0  0  0  0  0  0  0  0  0  0  0  0
   50.3711    8.4417   10.6748 H   0  0  0  0  0  0  0  0  0  0  0  0
   50.0337    7.1694   11.8670 H   0  0  0  0  0  0  0  0  0  0  0  0
   48.5506    9.9694   13.7741 H   0  0  0  0  0  0  0  0  0  0  0  0
  1  2  1  0
  1 12  2  0
  3  1  1  0
  3  4  2  0
  4  6  1  0
  5  4  1  0
  7  8  2  0
  8  9  1  0
  8  6  1  0
  9 15  1  0
 10 11  1  0
 10  6  2  0
 12 10  1  0
 13 14  2  0
 14 18  1  0
 15 13  1  0
 15 16  2  0
 16 17  1  0
 18 17  2  0
 19 14  1  0
 19 20  1  0
 20 21  1  0
 21 22  1  0
 22 23  1  0
 23 24  1  0
 23 27  1  0
 24 25  1  0
 25 20  1  0
 26 19  2  0
 28 29  1  0
 28 39  2  0
 30 28  1  0
 30 31  2  0
 31 33  1  0
 32 31  1  0
 34 35  2  0
 35 36  1  0
 35 33  1  0
 36 42  1  0
 37 38  1  0
 37 33  2  0
 39 37  1  0
 40 41  2  0
 41 45  1  0
 42 40  1  0
 42 43  2  0
 43 44  1  0
 45 44  2  0
 46 41  1  0
 46 47  1  0
 47 48  1  0
 48 49  1  0
 49 50  1  0
 50 51  1  0
 50 54  1  0
 51 52  1  0
 52 47  1  0
 53 46  2  0
 55 56  1  0
 56 57  2  0
 56 58  1  0
 58 59  1  0
 59 60  1  0
 60 61  2  0
 60 62  1  0
  3 63  1  0
  9 64  1  0
 12 65  1  0
 16 66  1  0
 17 67  1  0
 18 68  1  0
 20 69  1  0
 21 70  1  0
 21 71  1  0
 22 72  1  0
 22 73  1  0
 24 74  1  0
 24 75  1  0
 25 76  1  0
 25 77  1  0
 27 78  1  0
 27 79  1  0
 27 80  1  0
 30 81  1  0
 36 82  1  0
 39 83  1  0
 43 84  1  0
 44 85  1  0
 45 86  1  0
 47 87  1  0
 48 88  1  0
 48 89  1  0
 49 90  1  0
 49 91  1  0
 51 92  1  0
 51 93  1  0
 52 94  1  0
 52 95  1  0
 54 96  1  0
 54 97  1  0
 54 98  1  0
 55 99  1  0
 58100  1  0
 58101  1  0
 59102  1  0
 59103  1  0
 62104  1  0
M  END
> <Uni-Dock RESULT> 
ENERGY=   -5.415  LOWER_BOUND=    2.773  UPPER_BOUND=    6.140
INTER + INTRA:          -5.415
INTER:                  -5.415
INTRA:                   0.000
UNBOUND:                 0.000

$$$$

     RDKit          3D

104107  0  0  0  0  0  0  0  0999 V2000
   47.4239    3.3638   17.6740 C   0  0  0  0  0  0  0  0  0  0  0  0
   46.6675    2.2651   17.7784 F   0  0  0  0  0  0  0  0  0  0  0  0
   47.3622    4.1328   16.5219 C   0  0  0  0  0  0  0  0  0  0  0  0
   48.1518    5.2769   16.4214 C   0  0  0  0  0  0  0  0  0  0  0  0
   48.0471    6.0168   15.3092 F   0  0  0  0  0  0  0  0  0  0  0  0
   48.9955    5.6585   17.4661 C   0  0  0  0  0  0  0  0  0  0  0  0
   50.3393    7.1084   16.2240 O   0  0  0  0  0  0  0  0  0  0  0  0
   49.8587    6.8562   17.3222 C   0  0  0  0  0  0  0  0  0  0  0  0
   50.0336    7.5895   18.4697 N   0  0  0  0  0  0  0  0  0  0  0  0
   49.0322    4.8684   18.6184 C   0  0  0  0  0  0  0  0  0  0  0  0
   49.8251    5.1946   19.6511 F   0  0  0  0  0  0  0  0  0  0  0  0
   48.2521    3.7228   18.7311 C   0  0  0  0  0  0  0  0  0  0  0  0
   50.7171    9.2284   19.9146 N   0  0  0  0  0  0  0  0  0  0  0  0
   51.4425   10.3295   20.2104 C   0  0  0  0  0  0  0  0  0  0  0  0
   50.8170    8.7274   18.6646 C   0  0  0  0  0  0  0  0  0  0  0  0
   51.6311    9.2921   17.6938 C   0  0  0  0  0  0  0  0  0  0  0  0
   52.3819   10.4189   18.0225 C   0  0  0  0  0  0  0  0  0  0  0  0
   52.2918   10.9503   19.3025 C   0  0  0  0  0  0  0  0  0  0  0  0
   51.2979   10.8951   21.5853 C   0  0  0  0  0  0  0  0  0  0  0  0
   50.1826   10.4209   22.5175 C   0  0  0  0  0  0  0  0  0  0  0  0
   48.7902   10.7788   21.9908 C   0  0  0  0  0  0  0  0  0  0  0  0
   47.7251   10.1526   22.8888 C   0  0  0  0  0  0  0  0  0  0  0  0
   47.7853    8.6853   22.9290 N   0  0  0  0  0  0  0  0  0  0  0  0
   49.0792    8.1215   22.5294 C   0  0  0  0  0  0  0  0  0  0  0  0
   50.2957    8.9512   22.9465 C   0  0  0  0  0  0  0  0  0  0  0  0
   52.0837   11.7710   21.9575 O   0  0  0  0  0  0  0  0  0  0  0  0
   47.3322    8.1836   24.2249 C   0  0  0  0  0  0  0  0  0  0  0  0
   51.1475   13.4173   22.3630 C   0  0  0  0  0  0  0  0  0  0  0  0
   51.8260   14.5548   22.1681 F   0  0  0  0  0  0  0  0  0  0  0  0
   51.7183   12.2107   21.9811 C   0  0  0  0  0  0  0  0  0  0  0  0
   51.0098   11.0294   22.1889 C   0  0  0  0  0  0  0  0  0  0  0  0
   51.5845    9.8770   21.8129 F   0  0  0  0  0  0  0  0  0  0  0  0
   49.7392   11.0385   22.7710 C   0  0  0  0  0  0  0  0  0  0  0  0
   48.2602    9.7191   24.0023 O   0  0  0  0  0  0  0  0  0  0  0  0
   48.9849    9.7866   23.0155 C   0  0  0  0  0  0  0  0  0  0  0  0
   49.1593    8.7927   22.0765 N   0  0  0  0  0  0  0  0  0  0  0  0
   49.1891   12.2680   23.1446 C   0  0  0  0  0  0  0  0  0  0  0  0
   47.9610   12.3485   23.6773 F   0  0  0  0  0  0  0  0  0  0  0  0
   49.8850   13.4587   22.9419 C   0  0  0  0  0  0  0  0  0  0  0  0
   48.9463    6.8048   20.9661 N   0  0  0  0  0  0  0  0  0  0  0  0
   48.5026    5.5313   20.8696 C   0  0  0  0  0  0  0  0  0  0  0  0
   48.6181    7.5054   22.0714 C   0  0  0  0  0  0  0  0  0  0  0  0
   47.8360    6.9738   23.0863 C   0  0  0  0  0  0  0  0  0  0  0  0
   47.3882    5.6595   22.9706 C   0  0  0  0  0  0  0  0  0  0  0  0
   47.7348    4.9167   21.8480 C   0  0  0  0  0  0  0  0  0  0  0  0
   48.8709    4.7764   19.6355 C   0  0  0  0  0  0  0  0  0  0  0  0
   49.3168    5.5160   18.3737 C   0  0  0  0  0  0  0  0  0  0  0  0
   48.3296    6.5891   17.8892 C   0  0  0  0  0  0  0  0  0  0  0  0
   48.9213    8.0005   17.9157 C   0  0  0  0  0  0  0  0  0  0  0  0
   50.2146    8.1396   17.2377 N   0  0  0  0  0  0  0  0  0  0  0  0
   51.0472    6.9305   17.2595 C   0  0  0  0  0  0  0  0  0  0  0  0
   50.7550    6.0293   18.4587 C   0  0  0  0  0  0  0  0  0  0  0  0
   48.8040    3.5447   19.6493 O   0  0  0  0  0  0  0  0  0  0  0  0
   50.0734    8.6475   15.8733 C   0  0  0  0  0  0  0  0  0  0  0  0
   50.8897    9.1169   22.3169 O   0  0  0  0  0  0  0  0  0  0  0  0
   49.9228    8.4866   21.6245 C   0  0  0  0  0  0  0  0  0  0  0  0
   49.4378    7.4505   22.0406 O   0  0  0  0  0  0  0  0  0  0  0  0
   49.5688    9.2188   20.3613 C   0  0  0  0  0  0  0  0  0  0  0  0
   48.4773    8.4974   19.5800 C   0  0  0  0  0  0  0  0  0  0  0  0
   48.8860    7.1512   19.0428 C   0  0  0  0  0  0  0  0  0  0  0  0
   48.1171    6.2722   18.6832 O   0  0  0  0  0  0  0  0  0  0  0  0
   50.2150    6.9938   18.8886 O   0  0  0  0  0  0  0  0  0  0  0  0
   46.7049    3.8499   15.7039 H   0  0  0  0  0  0  0  0  0  0  0  0
   49.5614    7.3094   19.3208 H   0  0  0  0  0  0  0  0  0  0  0  0
   48.2835    3.1196   19.6336 H   0  0  0  0  0  0  0  0  0  0  0  0
   51.7073    8.8868   16.6907 H   0  0  0  0  0  0  0  0  0  0  0  0
   53.0309   10.8831   17.2832 H   0  0  0  0  0  0  0  0  0  0  0  0
   52.8621   11.8312   19.5833 H   0  0  0  0  0  0  0  0  0  0  0  0
   50.3306   11.0102   23.4374 H   0  0  0  0  0  0  0  0  0  0  0  0
   48.6719   11.8681   21.9767 H   0  0  0  0  0  0  0  0  0  0  0  0
   48.6429   10.4523   20.9555 H   0  0  0  0  0  0  0  0  0  0  0  0
   47.8443   10.5776   23.8952 H   0  0  0  0  0  0  0  0  0  0  0  0
   46.7326   10.4554   22.5359 H   0  0  0  0  0  0  0  0  0  0  0  0
   49.1927    7.0918   22.8919 H   0  0  0  0  0  0  0  0  0  0  0  0
   49.0626    8.0303   21.4380 H   0  0  0  0  0  0  0  0  0  0  0  0
   51.2106    8.4895   22.5569 H   0  0  0  0  0  0  0  0  0  0  0  0
   50.3867    8.9082   24.0393 H   0  0  0  0  0  0  0  0  0  0  0  0
   47.3039    7.0876   24.2334 H   0  0  0  0  0  0  0  0  0  0  0  0
   46.3134    8.5281   24.4290 H   0  0  0  0  0  0  0  0  0  0  0  0
   47.9795    8.5126   25.0447 H   0  0  0  0  0  0  0  0  0  0  0  0
   52.7056   12.1881   21.5301 H   0  0  0  0  0  0  0  0  0  0  0  0
   49.7705    8.9496   21.2838 H   0  0  0  0  0  0  0  0  0  0  0  0
   49.4483   14.4065   23.2328 H   0  0  0  0  0  0  0  0  0  0  0  0
   47.5728    7.5399   23.9716 H   0  0  0  0  0  0  0  0  0  0  0  0
   46.7807    5.2207   23.7564 H   0  0  0  0  0  0  0  0  0  0  0  0
   47.4019    3.8893   21.7381 H   0  0  0  0  0  0  0  0  0  0  0  0
   49.3043    4.7390   17.5944 H   0  0  0  0  0  0  0  0  0  0  0  0
   47.3969    6.5684   18.4676 H   0  0  0  0  0  0  0  0  0  0  0  0
   48.0430    6.3551   16.8539 H   0  0  0  0  0  0  0  0  0  0  0  0
   49.0653    8.3165   18.9534 H   0  0  0  0  0  0  0  0  0  0  0  0
   48.1843    8.7075   17.5143 H   0  0  0  0  0  0  0  0  0  0  0  0
   52.1007    7.2306   17.2793 H   0  0  0  0  0  0  0  0  0  0  0  0
   50.9039    6.3354   16.3465 H   0  0  0  0  0  0  0  0  0  0  0  0
   50.9452    6.5751   19.3892 H   0  0  0  0  0  0  0  0  0  0  0  0
   51.4492    5.1799   18.4613 H   0  0  0  0  0  0  0  0  0  0  0  0
   49.4907    7.9648   15.2424 H   0  0  0  0  0  0  0  0  0  0  0  0
   51.0561    8.7900   15.4040 H   0  0  0  0  0  0  0  0  0  0  0  0
   49.5787    9.6254   15.8728 H   0  0  0  0  0  0  0  0  0  0  0  0
   51.0408    8.5498   23.1017 H   0  0  0  0  0  0  0  0  0  0  0  0
   49.2055   10.2119   20.6429 H   0  0  0  0  0  0  0  0  0  0  0  0
   50.4723    9.3387   19.7534 H   0  0  0  0  0  0  0  0  0  0  0  0
   47.6031    8.3468   20.2225 H   0  0  0  0  0  0  0  0  0  0  0  0
   48.1753    9.1118   18.7254 H   0  0  0  0  0  0  0  0  0  0  0  0
   50.2966    6.0895   18.5187 H   0  0  0  0  0  0  0  0  0  0  0  0
  1  2  1  0
  1 12  2  0
  3  1  1  0
  3  4  2  0
  4  6  1  0
  5  4  1  0
  7  8  2  0
  8  9  1  0
  8  6  1  0
  9 15  1  0
 10 11  1  0
 10  6  2  0
 12 10  1  0
 13 14  2  0
 14 18  1  0
 15 13  1  0
 15 16  2  0
 16 17  1  0
 18 17  2  0
 19 14  1  0
 19 20  1  0
 20 21  1  0
 21 22  1  0
 22 23  1  0
 23 24  1  0
 23 27  1  0
 24 25  1  0
 25 20  1  0
 26 19  2  0
 28 29  1  0
 28 39  2  0
 30 28  1  0
 30 31  2  0
 31 33  1  0
 32 31  1  0
 34 35  2  0
 35 36  1  0
 35 33  1  0
 36 42  1  0
 37 38  1  0
 37 33  2  0
 39 37  1  0
 40 41  2  0
 41 45  1  0
 42 40  1  0
 42 43  2  0
 43 44  1  0
 45 44  2  0
 46 41  1  0
 46 47  1  0
 47 48  1  0
 48 49  1  0
 49 50  1  0
 50 51  1  0
 50 54  1  0
 51 52  1  0
 52 47  1  0
 53 46  2  0
 55 56  1  0
 56 57  2  0
 56 58  1  0
 58 59  1  0
 59 60  1  0
 60 61  2  0
 60 62  1  0
  3 63  1  0
  9 64  1  0
 12 65  1  0
 16 66  1  0
 17 67  1  0
 18 68  1  0
 20 69  1  0
 21 70  1  0
 21 71  1  0
 22 72  1  0
 22 73  1  0
 24 74  1  0
 24 75  1  0
 25 76  1  0
 25 77  1  0
 27 78  1  0
 27 79  1  0
 27 80  1  0
 30 81  1  0
 36 82  1  0
 39 83  1  0
 43 84  1  0
 44 85  1  0
 45 86  1  0
 47 87  1  0
 48 88  1  0
 48 89  1  0
 49 90  1  0
 49 91  1  0
 51 92  1  0
 51 93  1  0
 52 94  1  0
 52 95  1  0
 54 96  1  0
 54 97  1  0
 54 98  1  0
 55 99  1  0
 58100  1  0
 58101  1  0
 59102  1  0
 59103  1  0
 62104  1  0
M  END
> <Uni-Dock RESULT> 
ENERGY=   -5.345  LOWER_BOUND=    3.590  UPPER_BOUND=    5.761
INTER + INTRA:          -5.345
INTER:                  -5.345
INTRA:                   0.000
UNBOUND:                 0.000

$$$$

     RDKit          3D

104107  0  0  0  0  0  0  0  0999 V2000
   51.2918   13.0621   13.5618 C   0  0  0  0  0  0  0  0  0  0  0  0
   51.3735   14.2977   13.0551 F   0  0  0  0  0  0  0  0  0  0  0  0
   52.4256   12.2659   13.6162 C   0  0  0  0  0  0  0  0  0  0  0  0
   52.3329   10.9807   14.1471 C   0  0  0  0  0  0  0  0  0  0  0  0
   53.4519   10.2469   14.2154 F   0  0  0  0  0  0  0  0  0  0  0  0
   51.1174   10.4909   14.6284 C   0  0  0  0  0  0  0  0  0  0  0  0
   51.7034    8.2310   14.6179 O   0  0  0  0  0  0  0  0  0  0  0  0
   51.0311    9.1053   15.1508 C   0  0  0  0  0  0  0  0  0  0  0  0
   50.1835    8.9368   16.2177 N   0  0  0  0  0  0  0  0  0  0  0  0
   49.9923   11.3178   14.5675 C   0  0  0  0  0  0  0  0  0  0  0  0
   48.8018   10.8938   15.0195 F   0  0  0  0  0  0  0  0  0  0  0  0
   50.0697   12.6011   14.0376 C   0  0  0  0  0  0  0  0  0  0  0  0
   49.0247    7.9646   17.9361 N   0  0  0  0  0  0  0  0  0  0  0  0
   48.6399    6.8862   18.6540 C   0  0  0  0  0  0  0  0  0  0  0  0
   49.8559    7.7599   16.8918 C   0  0  0  0  0  0  0  0  0  0  0  0
   50.3138    6.5005   16.5341 C   0  0  0  0  0  0  0  0  0  0  0  0
   49.8947    5.3995   17.2782 C   0  0  0  0  0  0  0  0  0  0  0  0
   49.0409    5.5893   18.3571 C   0  0  0  0  0  0  0  0  0  0  0  0
   47.7481    7.1283   19.8276 C   0  0  0  0  0  0  0  0  0  0  0  0
   47.5083    8.5434   20.3545 C   0  0  0  0  0  0  0  0  0  0  0  0
   48.7818    9.1799   20.9180 C   0  0  0  0  0  0  0  0  0  0  0  0
   48.5067   10.6355   21.2902 C   0  0  0  0  0  0  0  0  0  0  0  0
   48.1042   11.4640   20.1459 N   0  0  0  0  0  0  0  0  0  0  0  0
   47.5800   10.7062   19.0046 C   0  0  0  0  0  0  0  0  0  0  0  0
   46.7644    9.4665   19.3791 C   0  0  0  0  0  0  0  0  0  0  0  0
   47.2170    6.1634   20.3844 O   0  0  0  0  0  0  0  0  0  0  0  0
   47.2008   12.5314   20.5715 C   0  0  0  0  0  0  0  0  0  0  0  0
   47.7875    6.0261   22.2301 C   0  0  0  0  0  0  0  0  0  0  0  0
   47.8303    4.7944   22.7530 F   0  0  0  0  0  0  0  0  0  0  0  0
   47.5011    6.1829   20.8808 C   0  0  0  0  0  0  0  0  0  0  0  0
   47.4545    7.4667   20.3421 C   0  0  0  0  0  0  0  0  0  0  0  0
   47.1735    7.5908   19.0362 F   0  0  0  0  0  0  0  0  0  0  0  0
   47.6920    8.5942   21.1329 C   0  0  0  0  0  0  0  0  0  0  0  0
   47.2193   10.8735   21.2924 O   0  0  0  0  0  0  0  0  0  0  0  0
   47.6252    9.9656   20.5753 C   0  0  0  0  0  0  0  0  0  0  0  0
   48.0528   10.1004   19.2719 N   0  0  0  0  0  0  0  0  0  0  0  0
   47.9791    8.4060   22.4880 C   0  0  0  0  0  0  0  0  0  0  0  0
   48.2492    9.4437   23.2933 F   0  0  0  0  0  0  0  0  0  0  0  0
   48.0307    7.1277   23.0414 C   0  0  0  0  0  0  0  0  0  0  0  0
   48.6035   11.0442   17.2629 N   0  0  0  0  0  0  0  0  0  0  0  0
   48.6333   12.0838   16.3990 C   0  0  0  0  0  0  0  0  0  0  0  0
   48.0602   11.2509   18.4804 C   0  0  0  0  0  0  0  0  0  0  0  0
   47.5569   12.4824   18.8731 C   0  0  0  0  0  0  0  0  0  0  0  0
   47.5950   13.5424   17.9696 C   0  0  0  0  0  0  0  0  0  0  0  0
   48.1324   13.3411   16.7035 C   0  0  0  0  0  0  0  0  0  0  0  0
   49.2453   11.8358   15.0601 C   0  0  0  0  0  0  0  0  0  0  0  0
   50.1800   10.6460   14.8390 C   0  0  0  0  0  0  0  0  0  0  0  0
   51.3601   10.5797   15.8207 C   0  0  0  0  0  0  0  0  0  0  0  0
   51.3362    9.3267   16.6994 C   0  0  0  0  0  0  0  0  0  0  0  0
   51.1971    8.0631   15.9677 N   0  0  0  0  0  0  0  0  0  0  0  0
   50.4418    8.1657   14.7128 C   0  0  0  0  0  0  0  0  0  0  0  0
   49.4353    9.3157   14.7172 C   0  0  0  0  0  0  0  0  0  0  0  0
   48.9881   12.6110   14.1356 O   0  0  0  0  0  0  0  0  0  0  0  0
   52.4850    7.4063   15.7455 C   0  0  0  0  0  0  0  0  0  0  0  0
   46.9789    8.7185   18.9653 O   0  0  0  0  0  0  0  0  0  0  0  0
   47.9229    9.5642   18.5126 C   0  0  0  0  0  0  0  0  0  0  0  0
   47.6194   10.6692   18.1018 O   0  0  0  0  0  0  0  0  0  0  0  0
   49.2989    8.9671   18.5979 C   0  0  0  0  0  0  0  0  0  0  0  0
   50.3622    9.9276   18.0793 C   0  0  0  0  0  0  0  0  0  0  0  0
   50.2576   10.2328   16.6083 C   0  0  0  0  0  0  0  0  0  0  0  0
   50.7684   11.1913   16.0487 O   0  0  0  0  0  0  0  0  0  0  0  0
   49.6107    9.2944   15.8900 O   0  0  0  0  0  0  0  0  0  0  0  0
   53.3792   12.6377   13.2505 H   0  0  0  0  0  0  0  0  0  0  0  0
   49.6980    9.7374   16.6040 H   0  0  0  0  0  0  0  0  0  0  0  0
   49.1906   13.2377   14.0011 H   0  0  0  0  0  0  0  0  0  0  0  0
   50.9824    6.3411   15.6951 H   0  0  0  0  0  0  0  0  0  0  0  0
   50.2351    4.3990   17.0209 H   0  0  0  0  0  0  0  0  0  0  0  0
   48.7032    4.7490   18.9571 H   0  0  0  0  0  0  0  0  0  0  0  0
   46.8249    8.4017   21.2079 H   0  0  0  0  0  0  0  0  0  0  0  0
   49.1087    8.6243   21.8041 H   0  0  0  0  0  0  0  0  0  0  0  0
   49.6177    9.1280   20.2118 H   0  0  0  0  0  0  0  0  0  0  0  0
   47.7322   10.6406   22.0698 H   0  0  0  0  0  0  0  0  0  0  0  0
   49.4074   11.0689   21.7401 H   0  0  0  0  0  0  0  0  0  0  0  0
   46.9903   11.3487   18.3383 H   0  0  0  0  0  0  0  0  0  0  0  0
   48.4427   10.4012   18.4025 H   0  0  0  0  0  0  0  0  0  0  0  0
   46.4651    8.9311   18.4704 H   0  0  0  0  0  0  0  0  0  0  0  0
   45.8286    9.7958   19.8484 H   0  0  0  0  0  0  0  0  0  0  0  0
   46.9578   13.1970   19.7348 H   0  0  0  0  0  0  0  0  0  0  0  0
   47.6793   13.1489   21.3384 H   0  0  0  0  0  0  0  0  0  0  0  0
   46.2619   12.1406   20.9779 H   0  0  0  0  0  0  0  0  0  0  0  0
   47.3118    5.3162   20.2548 H   0  0  0  0  0  0  0  0  0  0  0  0
   48.3865    9.2894   18.7642 H   0  0  0  0  0  0  0  0  0  0  0  0
   48.2566    6.9929   24.0924 H   0  0  0  0  0  0  0  0  0  0  0  0
   47.1229   12.6453   19.8522 H   0  0  0  0  0  0  0  0  0  0  0  0
   47.2001   14.5134   18.2532 H   0  0  0  0  0  0  0  0  0  0  0  0
   48.1682   14.1505   15.9810 H   0  0  0  0  0  0  0  0  0  0  0  0
   50.6327   10.8456   13.8559 H   0  0  0  0  0  0  0  0  0  0  0  0
   51.4071   11.4748   16.4545 H   0  0  0  0  0  0  0  0  0  0  0  0
   52.2942   10.5762   15.2409 H   0  0  0  0  0  0  0  0  0  0  0  0
   50.4978    9.3880   17.4000 H   0  0  0  0  0  0  0  0  0  0  0  0
   52.2275    9.3188   17.3397 H   0  0  0  0  0  0  0  0  0  0  0  0
   49.9130    7.2213   14.5436 H   0  0  0  0  0  0  0  0  0  0  0  0
   51.1158    8.3097   13.8565 H   0  0  0  0  0  0  0  0  0  0  0  0
   48.7100    9.1721   15.5256 H   0  0  0  0  0  0  0  0  0  0  0  0
   48.8545    9.3030   13.7867 H   0  0  0  0  0  0  0  0  0  0  0  0
   53.1555    8.0208   15.1320 H   0  0  0  0  0  0  0  0  0  0  0  0
   52.3509    6.4402   15.2407 H   0  0  0  0  0  0  0  0  0  0  0  0
   52.9834    7.1976   16.6990 H   0  0  0  0  0  0  0  0  0  0  0  0
   46.1363    9.2059   18.8520 H   0  0  0  0  0  0  0  0  0  0  0  0
   49.5021    8.7485   19.6508 H   0  0  0  0  0  0  0  0  0  0  0  0
   49.3144    8.0254   18.0383 H   0  0  0  0  0  0  0  0  0  0  0  0
   50.2956   10.8775   18.6207 H   0  0  0  0  0  0  0  0  0  0  0  0
   51.3549    9.5000   18.2540 H   0  0  0  0  0  0  0  0  0  0  0  0
   49.6542    9.6382   14.9730 H   0  0  0  0  0  0  0  0  0  0  0  0
  1  2  1  0
  1 12  2  0
  3  1  1  0
  3  4  2  0
  4  6  1  0
  5  4  1  0
  7  8  2  0
  8  9  1  0
  8  6  1  0
  9 15  1  0
 10 11  1  0
 10  6  2  0
 12 10  1  0
 13 14  2  0
 14 18  1  0
 15 13  1  0
 15 16  2  0
 16 17  1  0
 18 17  2  0
 19 14  1  0
 19 20  1  0
 20 21  1  0
 21 22  1  0
 22 23  1  0
 23 24  1  0
 23 27  1  0
 24 25  1  0
 25 20  1  0
 26 19  2  0
 28 29  1  0
 28 39  2  0
 30 28  1  0
 30 31  2  0
 31 33  1  0
 32 31  1  0
 34 35  2  0
 35 36  1  0
 35 33  1  0
 36 42  1  0
 37 38  1  0
 37 33  2  0
 39 37  1  0
 40 41  2  0
 41 45  1  0
 42 40  1  0
 42 43  2  0
 43 44  1  0
 45 44  2  0
 46 41  1  0
 46 47  1  0
 47 48  1  0
 48 49  1  0
 49 50  1  0
 50 51  1  0
 50 54  1  0
 51 52  1  0
 52 47  1  0
 53 46  2  0
 55 56  1  0
 56 57  2  0
 56 58  1  0
 58 59  1  0
 59 60  1  0
 60 61  2  0
 60 62  1  0
  3 63  1  0
  9 64  1  0
 12 65  1  0
 16 66  1  0
 17 67  1  0
 18 68  1  0
 20 69  1  0
 21 70  1  0
 21 71  1  0
 22 72  1  0
 22 73  1  0
 24 74  1  0
 24 75  1  0
 25 76  1  0
 25 77  1  0
 27 78  1  0
 27 79  1  0
 27 80  1  0
 30 81  1  0
 36 82  1  0
 39 83  1  0
 43 84  1  0
 44 85  1  0
 45 86  1  0
 47 87  1  0
 48 88  1  0
 48 89  1  0
 49 90  1  0
 49 91  1  0
 51 92  1  0
 51 93  1  0
 52 94  1  0
 52 95  1  0
 54 96  1  0
 54 97  1  0
 54 98  1  0
 55 99  1  0
 58100  1  0
 58101  1  0
 59102  1  0
 59103  1  0
 62104  1  0
M  END
> <Uni-Dock RESULT> 
ENERGY=   -5.246  LOWER_BOUND=    3.681  UPPER_BOUND=    6.304
INTER + INTRA:          -5.246
INTER:                  -5.246
INTRA:                   0.000
UNBOUND:                 0.000

$$$$

     RDKit          3D

104107  0  0  0  0  0  0  0  0999 V2000
   48.3404    4.7536   20.6347 C   0  0  0  0  0  0  0  0  0  0  0  0
   48.4846    3.4351   20.4581 F   0  0  0  0  0  0  0  0  0  0  0  0
   48.6908    5.3261   21.8479 C   0  0  0  0  0  0  0  0  0  0  0  0
   48.5394    6.7004   22.0235 C   0  0  0  0  0  0  0  0  0  0  0  0
   48.9160    7.2292   23.1956 F   0  0  0  0  0  0  0  0  0  0  0  0
   48.0471    7.5039   20.9935 C   0  0  0  0  0  0  0  0  0  0  0  0
   47.4858    9.3427   22.3180 O   0  0  0  0  0  0  0  0  0  0  0  0
   47.8542    8.9578   21.2150 C   0  0  0  0  0  0  0  0  0  0  0  0
   48.1224    9.7532   20.1284 N   0  0  0  0  0  0  0  0  0  0  0  0
   47.7087    6.9009   19.7789 C   0  0  0  0  0  0  0  0  0  0  0  0
   47.2336    7.6306   18.7575 F   0  0  0  0  0  0  0  0  0  0  0  0
   47.8517    5.5305   19.5908 C   0  0  0  0  0  0  0  0  0  0  0  0
   48.3961   11.6034   18.8083 N   0  0  0  0  0  0  0  0  0  0  0  0
   48.3049   12.9334   18.5871 C   0  0  0  0  0  0  0  0  0  0  0  0
   47.9918   11.1372   20.0094 C   0  0  0  0  0  0  0  0  0  0  0  0
   47.4883   11.9635   21.0032 C   0  0  0  0  0  0  0  0  0  0  0  0
   47.3893   13.3303   20.7508 C   0  0  0  0  0  0  0  0  0  0  0  0
   47.8013   13.8296   19.5221 C   0  0  0  0  0  0  0  0  0  0  0  0
   48.7870   13.4423   17.2681 C   0  0  0  0  0  0  0  0  0  0  0  0
   49.5952   12.5477   16.3278 C   0  0  0  0  0  0  0  0  0  0  0  0
   50.9538   12.1585   16.9169 C   0  0  0  0  0  0  0  0  0  0  0  0
   51.6434   11.1531   15.9968 C   0  0  0  0  0  0  0  0  0  0  0  0
   50.8918    9.9014   15.8332 N   0  0  0  0  0  0  0  0  0  0  0  0
   49.4640   10.0067   16.1521 C   0  0  0  0  0  0  0  0  0  0  0  0
   48.8203   11.3431   15.7753 C   0  0  0  0  0  0  0  0  0  0  0  0
   48.5400   14.6090   16.9506 O   0  0  0  0  0  0  0  0  0  0  0  0
   51.1293    9.3236   14.5117 C   0  0  0  0  0  0  0  0  0  0  0  0
   50.1721   15.6229   16.7069 C   0  0  0  0  0  0  0  0  0  0  0  0
   50.1093   16.9322   16.9788 F   0  0  0  0  0  0  0  0  0  0  0  0
   49.0718   14.8191   16.9728 C   0  0  0  0  0  0  0  0  0  0  0  0
   49.1410   13.4579   16.6851 C   0  0  0  0  0  0  0  0  0  0  0  0
   48.0634   12.7038   16.9495 F   0  0  0  0  0  0  0  0  0  0  0  0
   50.2946   12.8899   16.1376 C   0  0  0  0  0  0  0  0  0  0  0  0
   51.0361   11.0995   14.8381 O   0  0  0  0  0  0  0  0  0  0  0  0
   50.3724   11.4470   15.8088 C   0  0  0  0  0  0  0  0  0  0  0  0
   49.6865   10.6045   16.6571 N   0  0  0  0  0  0  0  0  0  0  0  0
   51.3873   13.7231   15.8814 C   0  0  0  0  0  0  0  0  0  0  0  0
   52.5348   13.2349   15.3881 F   0  0  0  0  0  0  0  0  0  0  0  0
   51.3341   15.0868   16.1651 C   0  0  0  0  0  0  0  0  0  0  0  0
   48.8545    8.6960   17.6033 N   0  0  0  0  0  0  0  0  0  0  0  0
   48.6287    7.3630   17.6045 C   0  0  0  0  0  0  0  0  0  0  0  0
   49.5452    9.2181   16.5686 C   0  0  0  0  0  0  0  0  0  0  0  0
   50.0393    8.4388   15.5328 C   0  0  0  0  0  0  0  0  0  0  0  0
   49.7964    7.0669   15.5500 C   0  0  0  0  0  0  0  0  0  0  0  0
   49.0682    6.5157   16.5979 C   0  0  0  0  0  0  0  0  0  0  0  0
   47.8689    6.8048   18.7620 C   0  0  0  0  0  0  0  0  0  0  0  0
   47.7536    7.5892   20.0695 C   0  0  0  0  0  0  0  0  0  0  0  0
   49.1015    8.0230   20.6660 C   0  0  0  0  0  0  0  0  0  0  0  0
   49.2592    9.5435   20.7422 C   0  0  0  0  0  0  0  0  0  0  0  0
   48.1505   10.2462   21.3971 N   0  0  0  0  0  0  0  0  0  0  0  0
   46.8445    9.5909   21.2539 C   0  0  0  0  0  0  0  0  0  0  0  0
   46.7439    8.7353   19.9917 C   0  0  0  0  0  0  0  0  0  0  0  0
   47.3397    5.6964   18.6474 O   0  0  0  0  0  0  0  0  0  0  0  0
   48.4326   10.5392   22.8021 C   0  0  0  0  0  0  0  0  0  0  0  0
   48.3401   11.7354   16.4015 O   0  0  0  0  0  0  0  0  0  0  0  0
   48.8433   10.6767   17.0629 C   0  0  0  0  0  0  0  0  0  0  0  0
   48.7988    9.5626   16.5744 O   0  0  0  0  0  0  0  0  0  0  0  0
   49.4253   11.0696   18.3911 C   0  0  0  0  0  0  0  0  0  0  0  0
   49.9886    9.8659   19.1367 C   0  0  0  0  0  0  0  0  0  0  0  0
   48.9540    8.8526   19.5497 C   0  0  0  0  0  0  0  0  0  0  0  0
   49.1854    7.6920   19.8539 O   0  0  0  0  0  0  0  0  0  0  0  0
   47.7047    9.3451   19.6570 O   0  0  0  0  0  0  0  0  0  0  0  0
   49.0810    4.7125   22.6557 H   0  0  0  0  0  0  0  0  0  0  0  0
   48.4549    9.3329   19.2691 H   0  0  0  0  0  0  0  0  0  0  0  0
   47.5917    5.0732   18.6407 H   0  0  0  0  0  0  0  0  0  0  0  0
   47.1658   11.5846   21.9669 H   0  0  0  0  0  0  0  0  0  0  0  0
   46.9966   14.0034   21.5097 H   0  0  0  0  0  0  0  0  0  0  0  0
   47.7399   14.8915   19.3013 H   0  0  0  0  0  0  0  0  0  0  0  0
   49.8041   13.1904   15.4566 H   0  0  0  0  0  0  0  0  0  0  0  0
   51.5772   13.0533   17.0245 H   0  0  0  0  0  0  0  0  0  0  0  0
   50.8628   11.7389   17.9249 H   0  0  0  0  0  0  0  0  0  0  0  0
   51.8042   11.6435   15.0266 H   0  0  0  0  0  0  0  0  0  0  0  0
   52.6359   10.9188   16.3983 H   0  0  0  0  0  0  0  0  0  0  0  0
   48.8948    9.1830   15.7025 H   0  0  0  0  0  0  0  0  0  0  0  0
   49.3674    9.8524   17.2322 H   0  0  0  0  0  0  0  0  0  0  0  0
   47.7739   11.3559   16.1022 H   0  0  0  0  0  0  0  0  0  0  0  0
   48.7876   11.4159   14.6808 H   0  0  0  0  0  0  0  0  0  0  0  0
   50.6308    8.3521   14.4128 H   0  0  0  0  0  0  0  0  0  0  0  0
   52.1992    9.1470   14.3625 H   0  0  0  0  0  0  0  0  0  0  0  0
   50.7699    9.9729   13.7063 H   0  0  0  0  0  0  0  0  0  0  0  0
   48.1680   15.2470   17.3955 H   0  0  0  0  0  0  0  0  0  0  0  0
   49.1769   10.9876   17.4447 H   0  0  0  0  0  0  0  0  0  0  0  0
   52.1876   15.7232   15.9650 H   0  0  0  0  0  0  0  0  0  0  0  0
   50.5951    8.8611   14.7045 H   0  0  0  0  0  0  0  0  0  0  0  0
   50.1675    6.4387   14.7457 H   0  0  0  0  0  0  0  0  0  0  0  0
   48.8622    5.4504   16.6302 H   0  0  0  0  0  0  0  0  0  0  0  0
   47.3450    6.8562   20.7815 H   0  0  0  0  0  0  0  0  0  0  0  0
   49.9447    7.5913   20.1113 H   0  0  0  0  0  0  0  0  0  0  0  0
   49.1768    7.6173   21.6851 H   0  0  0  0  0  0  0  0  0  0  0  0
   49.3482    9.9525   19.7312 H   0  0  0  0  0  0  0  0  0  0  0  0
   50.2181    9.7827   21.2193 H   0  0  0  0  0  0  0  0  0  0  0  0
   46.0660   10.3615   21.2330 H   0  0  0  0  0  0  0  0  0  0  0  0
   46.6292    8.9459   22.1176 H   0  0  0  0  0  0  0  0  0  0  0  0
   46.8957    9.3609   19.1053 H   0  0  0  0  0  0  0  0  0  0  0  0
   45.7299    8.3269   19.9010 H   0  0  0  0  0  0  0  0  0  0  0  0
   48.5779    9.6234   23.3883 H   0  0  0  0  0  0  0  0  0  0  0  0
   47.6106   11.1082   23.2569 H   0  0  0  0  0  0  0  0  0  0  0  0
   49.3334   11.1563   22.8963 H   0  0  0  0  0  0  0  0  0  0  0  0
   47.9852   11.3601   15.5688 H   0  0  0  0  0  0  0  0  0  0  0  0
   50.2356   11.7804   18.2022 H   0  0  0  0  0  0  0  0  0  0  0  0
   48.6533   11.5722   18.9842 H   0  0  0  0  0  0  0  0  0  0  0  0
   50.7224    9.3527   18.5058 H   0  0  0  0  0  0  0  0  0  0  0  0
   50.4940   10.2057   20.0466 H   0  0  0  0  0  0  0  0  0  0  0  0
   47.1781    8.5711   19.9483 H   0  0  0  0  0  0  0  0  0  0  0  0
  1  2  1  0
  1 12  2  0
  3  1  1  0
  3  4  2  0
  4  6  1  0
  5  4  1  0
  7  8  2  0
  8  9  1  0
  8  6  1  0
  9 15  1  0
 10 11  1  0
 10  6  2  0
 12 10  1  0
 13 14  2  0
 14 18  1  0
 15 13  1  0
 15 16  2  0
 16 17  1  0
 18 17  2  0
 19 14  1  0
 19 20  1  0
 20 21  1  0
 21 22  1  0
 22 23  1  0
 23 24  1  0
 23 27  1  0
 24 25  1  0
 25 20  1  0
 26 19  2  0
 28 29  1  0
 28 39  2  0
 30 28  1  0
 30 31  2  0
 31 33  1  0
 32 31  1  0
 34 35  2  0
 35 36  1  0
 35 33  1  0
 36 42  1  0
 37 38  1  0
 37 33  2  0
 39 37  1  0
 40 41  2  0
 41 45  1  0
 42 40  1  0
 42 43  2  0
 43 44  1  0
 45 44  2  0
 46 41  1  0
 46 47  1  0
 47 48  1  0
 48 49  1  0
 49 50  1  0
 50 51  1  0
 50 54  1  0
 51 52  1  0
 52 47  1  0
 53 46  2  0
 55 56  1  0
 56 57  2  0
 56 58  1  0
 58 59  1  0
 59 60  1  0
 60 61  2  0
 60 62  1  0
  3 63  1  0
  9 64  1  0
 12 65  1  0
 16 66  1  0
 17 67  1  0
 18 68  1  0
 20 69  1  0
 21 70  1  0
 21 71  1  0
 22 72  1  0
 22 73  1  0
 24 74  1  0
 24 75  1  0
 25 76  1  0
 25 77  1  0
 27 78  1  0
 27 79  1  0
 27 80  1  0
 30 81  1  0
 36 82  1  0
 39 83  1  0
 43 84  1  0
 44 85  1  0
 45 86  1  0
 47 87  1  0
 48 88  1  0
 48 89  1  0
 49 90  1  0
 49 91  1  0
 51 92  1  0
 51 93  1  0
 52 94  1  0
 52 95  1  0
 54 96  1  0
 54 97  1  0
 54 98  1  0
 55 99  1  0
 58100  1  0
 58101  1  0
 59102  1  0
 59103  1  0
 62104  1  0
M  END
> <Uni-Dock RESULT> 
ENERGY=   -5.243  LOWER_BOUND=    4.317  UPPER_BOUND=    7.091
INTER + INTRA:          -5.243
INTER:                  -5.243
INTRA:                   0.000
UNBOUND:                 0.000

$$$$
