
     RDKit          3D

104107  0  0  0  0  0  0  0  0999 V2000
   42.2059   13.8853   11.7310 C   0  0  0  0  0  0  0  0  0  0  0  0
   41.8681   15.1738   11.8405 F   0  0  0  0  0  0  0  0  0  0  0  0
   43.5425   13.5400   11.5616 C   0  0  0  0  0  0  0  0  0  0  0  0
   43.8850   12.1953   11.4467 C   0  0  0  0  0  0  0  0  0  0  0  0
   45.1807   11.8846   11.2856 F   0  0  0  0  0  0  0  0  0  0  0  0
   42.9102   11.1945   11.4940 C   0  0  0  0  0  0  0  0  0  0  0  0
   42.4448    9.0410   10.7465 O   0  0  0  0  0  0  0  0  0  0  0  0
   43.2513    9.7625   11.3194 C   0  0  0  0  0  0  0  0  0  0  0  0
   44.4706    9.3690   11.8220 N   0  0  0  0  0  0  0  0  0  0  0  0
   41.5756   11.5734   11.6707 C   0  0  0  0  0  0  0  0  0  0  0  0
   40.6012   10.6579   11.7690 F   0  0  0  0  0  0  0  0  0  0  0  0
   41.2177   12.9144   11.7936 C   0  0  0  0  0  0  0  0  0  0  0  0
   46.2759    8.0490   12.3470 N   0  0  0  0  0  0  0  0  0  0  0  0
   46.9237    6.8565   12.3318 C   0  0  0  0  0  0  0  0  0  0  0  0
   45.0498    8.0974   11.7822 C   0  0  0  0  0  0  0  0  0  0  0  0
   44.4447    6.9847   11.2150 C   0  0  0  0  0  0  0  0  0  0  0  0
   45.1269    5.7705   11.2092 C   0  0  0  0  0  0  0  0  0  0  0  0
   46.3919    5.7008   11.7717 C   0  0  0  0  0  0  0  0  0  0  0  0
   48.2833    6.8056   12.9466 C   0  0  0  0  0  0  0  0  0  0  0  0
   48.7077    7.9331   13.8868 C   0  0  0  0  0  0  0  0  0  0  0  0
   49.8452    8.7446   13.2503 C   0  0  0  0  0  0  0  0  0  0  0  0
   51.2158    8.2532   13.7144 C   0  0  0  0  0  0  0  0  0  0  0  0
   51.4000    8.3105   15.1726 N   0  0  0  0  0  0  0  0  0  0  0  0
   50.1523    8.2279   15.9390 C   0  0  0  0  0  0  0  0  0  0  0  0
   49.1091    7.3504   15.2521 C   0  0  0  0  0  0  0  0  0  0  0  0
   49.0268    5.8585   12.6868 O   0  0  0  0  0  0  0  0  0  0  0  0
   52.2021    9.4558   15.5927 C   0  0  0  0  0  0  0  0  0  0  0  0
   44.9539   13.9764   10.2860 C   0  0  0  0  0  0  0  0  0  0  0  0
   45.1943   15.2557    9.9753 F   0  0  0  0  0  0  0  0  0  0  0  0
   43.8771   13.3204    9.7086 C   0  0  0  0  0  0  0  0  0  0  0  0
   43.6372   11.9858   10.0357 C   0  0  0  0  0  0  0  0  0  0  0  0
   42.5977   11.3902    9.4327 F   0  0  0  0  0  0  0  0  0  0  0  0
   44.4570   11.2938   10.9387 C   0  0  0  0  0  0  0  0  0  0  0  0
   43.0775    9.3954   10.9479 O   0  0  0  0  0  0  0  0  0  0  0  0
   44.1609    9.8682   11.2729 C   0  0  0  0  0  0  0  0  0  0  0  0
   45.1478    9.1793   11.9459 N   0  0  0  0  0  0  0  0  0  0  0  0
   45.5347   11.9895   11.4974 C   0  0  0  0  0  0  0  0  0  0  0  0
   46.3625   11.3892   12.3653 F   0  0  0  0  0  0  0  0  0  0  0  0
   45.7905   13.3221   11.1774 C   0  0  0  0  0  0  0  0  0  0  0  0
   46.2516    7.4859   13.0389 N   0  0  0  0  0  0  0  0  0  0  0  0
   46.3557    6.1998   13.4527 C   0  0  0  0  0  0  0  0  0  0  0  0
   45.1497    7.8370   12.3404 C   0  0  0  0  0  0  0  0  0  0  0  0
   44.1402    6.9326   12.0442 C   0  0  0  0  0  0  0  0  0  0  0  0
   44.2677    5.6126   12.4719 C   0  0  0  0  0  0  0  0  0  0  0  0
   45.3912    5.2349   13.1928 C   0  0  0  0  0  0  0  0  0  0  0  0
   47.5791    5.8165   14.2226 C   0  0  0  0  0  0  0  0  0  0  0  0
   48.6112    6.8636   14.6329 C   0  0  0  0  0  0  0  0  0  0  0  0
   49.4436    7.3595   13.4505 C   0  0  0  0  0  0  0  0  0  0  0  0
   50.3497    8.4984   13.9131 C   0  0  0  0  0  0  0  0  0  0  0  0
   49.6071    9.6683   14.4009 N   0  0  0  0  0  0  0  0  0  0  0  0
   48.2386    9.3814   14.8428 C   0  0  0  0  0  0  0  0  0  0  0  0
   48.0557    8.0081   15.4932 C   0  0  0  0  0  0  0  0  0  0  0  0
   47.7453    4.6308   14.5238 O   0  0  0  0  0  0  0  0  0  0  0  0
   50.3737   10.3938   15.4093 C   0  0  0  0  0  0  0  0  0  0  0  0
   49.0132    8.6788   13.7483 O   0  0  0  0  0  0  0  0  0  0  0  0
   47.7347    8.7973   14.1486 C   0  0  0  0  0  0  0  0  0  0  0  0
   47.4479    9.3969   15.1703 O   0  0  0  0  0  0  0  0  0  0  0  0
   46.7681    8.1219   13.2197 C   0  0  0  0  0  0  0  0  0  0  0  0
   46.7231    8.8218   11.8734 C   0  0  0  0  0  0  0  0  0  0  0  0
   46.2174   10.2287   12.0091 C   0  0  0  0  0  0  0  0  0  0  0  0
   46.8598   11.2453   11.8108 O   0  0  0  0  0  0  0  0  0  0  0  0
   44.9260   10.2864   12.3784 O   0  0  0  0  0  0  0  0  0  0  0  0
   44.3026   14.3131   11.5158 H   0  0  0  0  0  0  0  0  0  0  0  0
   45.0895   10.0530   12.2400 H   0  0  0  0  0  0  0  0  0  0  0  0
   40.1777   13.1929   11.9384 H   0  0  0  0  0  0  0  0  0  0  0  0
   43.4581    7.0260   10.7706 H   0  0  0  0  0  0  0  0  0  0  0  0
   44.6687    4.8900   10.7637 H   0  0  0  0  0  0  0  0  0  0  0  0
   46.9466    4.7677   11.7785 H   0  0  0  0  0  0  0  0  0  0  0  0
   47.8662    8.6152   14.0522 H   0  0  0  0  0  0  0  0  0  0  0  0
   49.7348    9.7991   13.5312 H   0  0  0  0  0  0  0  0  0  0  0  0
   49.7888    8.7093   12.1564 H   0  0  0  0  0  0  0  0  0  0  0  0
   52.0050    8.8092   13.1903 H   0  0  0  0  0  0  0  0  0  0  0  0
   51.3441    7.2087   13.4001 H   0  0  0  0  0  0  0  0  0  0  0  0
   50.3720    7.8219   16.9335 H   0  0  0  0  0  0  0  0  0  0  0  0
   49.7183    9.2250   16.0913 H   0  0  0  0  0  0  0  0  0  0  0  0
   48.2160    7.2721   15.8834 H   0  0  0  0  0  0  0  0  0  0  0  0
   49.4990    6.3292   15.1596 H   0  0  0  0  0  0  0  0  0  0  0  0
   53.1837    9.4443   15.1049 H   0  0  0  0  0  0  0  0  0  0  0  0
   52.3890    9.4176   16.6729 H   0  0  0  0  0  0  0  0  0  0  0  0
   51.7112   10.4085   15.3598 H   0  0  0  0  0  0  0  0  0  0  0  0
   43.2299   13.8360    9.0052 H   0  0  0  0  0  0  0  0  0  0  0  0
   45.9955    9.6591   12.2311 H   0  0  0  0  0  0  0  0  0  0  0  0
   46.6333   13.8416   11.6217 H   0  0  0  0  0  0  0  0  0  0  0  0
   43.2612    7.2140   11.4771 H   0  0  0  0  0  0  0  0  0  0  0  0
   43.4889    4.8902   12.2415 H   0  0  0  0  0  0  0  0  0  0  0  0
   45.5110    4.2114   13.5355 H   0  0  0  0  0  0  0  0  0  0  0  0
   49.3029    6.3151   15.2912 H   0  0  0  0  0  0  0  0  0  0  0  0
   48.8181    7.6955   12.6178 H   0  0  0  0  0  0  0  0  0  0  0  0
   50.0540    6.5381   13.0576 H   0  0  0  0  0  0  0  0  0  0  0  0
   50.9894    8.8162   13.0821 H   0  0  0  0  0  0  0  0  0  0  0  0
   51.0167    8.1034   14.6939 H   0  0  0  0  0  0  0  0  0  0  0  0
   47.5938    9.4550   13.9616 H   0  0  0  0  0  0  0  0  0  0  0  0
   47.8698   10.1595   15.5237 H   0  0  0  0  0  0  0  0  0  0  0  0
   46.9989    7.8530   15.7390 H   0  0  0  0  0  0  0  0  0  0  0  0
   48.5850    8.0098   16.4552 H   0  0  0  0  0  0  0  0  0  0  0  0
   49.8866   11.3447   15.6505 H   0  0  0  0  0  0  0  0  0  0  0  0
   51.3725   10.6416   15.0327 H   0  0  0  0  0  0  0  0  0  0  0  0
   50.4865    9.8179   16.3347 H   0  0  0  0  0  0  0  0  0  0  0  0
   49.5234    9.1757   14.4232 H   0  0  0  0  0  0  0  0  0  0  0  0
   47.0708    7.0749   13.1077 H   0  0  0  0  0  0  0  0  0  0  0  0
   45.7804    8.1168   13.6953 H   0  0  0  0  0  0  0  0  0  0  0  0
   47.7173    8.8603   11.4133 H   0  0  0  0  0  0  0  0  0  0  0  0
   46.0701    8.2841   11.1781 H   0  0  0  0  0  0  0  0  0  0  0  0
   44.7392   11.2478   12.4391 H   0  0  0  0  0  0  0  0  0  0  0  0
  1  2  1  0
  1 12  2  0
  3  1  1  0
  3  4  2  0
  4  6  1  0
  5  4  1  0
  7  8  2  0
  8  9  1  0
  8  6  1  0
  9 15  1  0
 10 11  1  0
 10  6  2  0
 12 10  1  0
 13 14  2  0
 14 18  1  0
 15 13  1  0
 15 16  2  0
 16 17  1  0
 18 17  2  0
 19 14  1  0
 19 20  1  0
 20 21  1  0
 21 22  1  0
 22 23  1  0
 23 24  1  0
 23 27  1  0
 24 25  1  0
 25 20  1  0
 26 19  2  0
 28 29  1  0
 28 39  2  0
 30 28  1  0
 30 31  2  0
 31 33  1  0
 32 31  1  0
 34 35  2  0
 35 36  1  0
 35 33  1  0
 36 42  1  0
 37 38  1  0
 37 33  2  0
 39 37  1  0
 40 41  2  0
 41 45  1  0
 42 40  1  0
 42 43  2  0
 43 44  1  0
 45 44  2  0
 46 41  1  0
 46 47  1  0
 47 48  1  0
 48 49  1  0
 49 50  1  0
 50 51  1  0
 50 54  1  0
 51 52  1  0
 52 47  1  0
 53 46  2  0
 55 56  1  0
 56 57  2  0
 56 58  1  0
 58 59  1  0
 59 60  1  0
 60 61  2  0
 60 62  1  0
  3 63  1  0
  9 64  1  0
 12 65  1  0
 16 66  1  0
 17 67  1  0
 18 68  1  0
 20 69  1  0
 21 70  1  0
 21 71  1  0
 22 72  1  0
 22 73  1  0
 24 74  1  0
 24 75  1  0
 25 76  1  0
 25 77  1  0
 27 78  1  0
 27 79  1  0
 27 80  1  0
 30 81  1  0
 36 82  1  0
 39 83  1  0
 43 84  1  0
 44 85  1  0
 45 86  1  0
 47 87  1  0
 48 88  1  0
 48 89  1  0
 49 90  1  0
 49 91  1  0
 51 92  1  0
 51 93  1  0
 52 94  1  0
 52 95  1  0
 54 96  1  0
 54 97  1  0
 54 98  1  0
 55 99  1  0
 58100  1  0
 58101  1  0
 59102  1  0
 59103  1  0
 62104  1  0
M  END
> <Uni-Dock RESULT> 
ENERGY=   -6.851  LOWER_BOUND=    0.000  UPPER_BOUND=    0.000
INTER + INTRA:          -6.851
INTER:                  -6.851
INTRA:                   0.000
UNBOUND:                 0.000

$$$$

     RDKit          3D

104107  0  0  0  0  0  0  0  0999 V2000
   46.6080    9.9722   12.0515 C   0  0  0  0  0  0  0  0  0  0  0  0
   46.4052   11.1126   11.3846 F   0  0  0  0  0  0  0  0  0  0  0  0
   47.8104    9.7760   12.7224 C   0  0  0  0  0  0  0  0  0  0  0  0
   48.0138    8.5843   13.4131 C   0  0  0  0  0  0  0  0  0  0  0  0
   49.1806    8.4168   14.0548 F   0  0  0  0  0  0  0  0  0  0  0  0
   47.0347    7.5868   13.4373 C   0  0  0  0  0  0  0  0  0  0  0  0
   46.7556    5.2855   13.6348 O   0  0  0  0  0  0  0  0  0  0  0  0
   47.2561    6.2910   14.1223 C   0  0  0  0  0  0  0  0  0  0  0  0
   48.0247    6.3373   15.2631 N   0  0  0  0  0  0  0  0  0  0  0  0
   45.8341    7.8162   12.7576 C   0  0  0  0  0  0  0  0  0  0  0  0
   44.8401    6.9170   12.7814 F   0  0  0  0  0  0  0  0  0  0  0  0
   45.6132    9.0061   12.0671 C   0  0  0  0  0  0  0  0  0  0  0  0
   49.1874    5.6563   17.1236 N   0  0  0  0  0  0  0  0  0  0  0  0
   49.6237    4.6858   17.9661 C   0  0  0  0  0  0  0  0  0  0  0  0
   48.4048    5.2764   16.0902 C   0  0  0  0  0  0  0  0  0  0  0  0
   48.0325    3.9559   15.8817 C   0  0  0  0  0  0  0  0  0  0  0  0
   48.4917    2.9752   16.7577 C   0  0  0  0  0  0  0  0  0  0  0  0
   49.3069    3.3406   17.8176 C   0  0  0  0  0  0  0  0  0  0  0  0
   50.4975    5.1044   19.1021 C   0  0  0  0  0  0  0  0  0  0  0  0
   50.5334    6.5802   19.4970 C   0  0  0  0  0  0  0  0  0  0  0  0
   51.9190    7.1689   19.1949 C   0  0  0  0  0  0  0  0  0  0  0  0
   52.8266    7.1324   20.4238 C   0  0  0  0  0  0  0  0  0  0  0  0
   52.2835    7.8620   21.5799 N   0  0  0  0  0  0  0  0  0  0  0  0
   50.8203    7.9600   21.5943 C   0  0  0  0  0  0  0  0  0  0  0  0
   50.1526    6.7330   20.9790 C   0  0  0  0  0  0  0  0  0  0  0  0
   51.1631    4.2543   19.6950 O   0  0  0  0  0  0  0  0  0  0  0  0
   52.9017    9.1727   21.7576 C   0  0  0  0  0  0  0  0  0  0  0  0
   49.7025    9.7849   12.2431 C   0  0  0  0  0  0  0  0  0  0  0  0
   50.2041   10.8087   11.5424 F   0  0  0  0  0  0  0  0  0  0  0  0
   48.9771    8.7978   11.5929 C   0  0  0  0  0  0  0  0  0  0  0  0
   48.4619    7.7326   12.3314 C   0  0  0  0  0  0  0  0  0  0  0  0
   47.7880    6.7926   11.6522 F   0  0  0  0  0  0  0  0  0  0  0  0
   48.6564    7.6394   13.7169 C   0  0  0  0  0  0  0  0  0  0  0  0
   47.2453    5.7762   13.9277 O   0  0  0  0  0  0  0  0  0  0  0  0
   48.0788    6.4892   14.4753 C   0  0  0  0  0  0  0  0  0  0  0  0
   48.5303    6.3189   15.7670 N   0  0  0  0  0  0  0  0  0  0  0  0
   49.3960    8.6533   14.3356 C   0  0  0  0  0  0  0  0  0  0  0  0
   49.6247    8.6265   15.6569 F   0  0  0  0  0  0  0  0  0  0  0  0
   49.9214    9.7221   13.6109 C   0  0  0  0  0  0  0  0  0  0  0  0
   48.7673    5.4657   17.8875 N   0  0  0  0  0  0  0  0  0  0  0  0
   48.5134    4.5297   18.8338 C   0  0  0  0  0  0  0  0  0  0  0  0
   48.1910    5.3104   16.6755 C   0  0  0  0  0  0  0  0  0  0  0  0
   47.3596    4.2394   16.3815 C   0  0  0  0  0  0  0  0  0  0  0  0
   47.1155    3.2828   17.3650 C   0  0  0  0  0  0  0  0  0  0  0  0
   47.6967    3.4277   18.6163 C   0  0  0  0  0  0  0  0  0  0  0  0
   49.1568    4.7054   20.1723 C   0  0  0  0  0  0  0  0  0  0  0  0
   49.9681    5.9567   20.4977 C   0  0  0  0  0  0  0  0  0  0  0  0
   51.3197    5.9798   19.7837 C   0  0  0  0  0  0  0  0  0  0  0  0
   52.0065    7.3183   20.0460 C   0  0  0  0  0  0  0  0  0  0  0  0
   51.2557    8.4674   19.5230 N   0  0  0  0  0  0  0  0  0  0  0  0
   49.8229    8.2230   19.3292 C   0  0  0  0  0  0  0  0  0  0  0  0
   49.1955    7.2762   20.3553 C   0  0  0  0  0  0  0  0  0  0  0  0
   49.0226    3.8161   21.0182 O   0  0  0  0  0  0  0  0  0  0  0  0
   51.5103    9.6662   20.3162 C   0  0  0  0  0  0  0  0  0  0  0  0
   50.9484    7.2190   19.1997 O   0  0  0  0  0  0  0  0  0  0  0  0
   49.6588    7.3262   18.8332 C   0  0  0  0  0  0  0  0  0  0  0  0
   48.9800    8.2741   19.1889 O   0  0  0  0  0  0  0  0  0  0  0  0
   49.1977    6.1799   17.9809 C   0  0  0  0  0  0  0  0  0  0  0  0
   49.8912    6.1884   16.6305 C   0  0  0  0  0  0  0  0  0  0  0  0
   49.5433    7.4219   15.8489 C   0  0  0  0  0  0  0  0  0  0  0  0
   50.3094    8.3197   15.5448 O   0  0  0  0  0  0  0  0  0  0  0  0
   48.2508    7.4599   15.4807 O   0  0  0  0  0  0  0  0  0  0  0  0
   48.5774   10.5434   12.7000 H   0  0  0  0  0  0  0  0  0  0  0  0
   48.4339    7.2143   15.5615 H   0  0  0  0  0  0  0  0  0  0  0  0
   44.6724    9.1732   11.5504 H   0  0  0  0  0  0  0  0  0  0  0  0
   47.3982    3.6568   15.0567 H   0  0  0  0  0  0  0  0  0  0  0  0
   48.2134    1.9345   16.6051 H   0  0  0  0  0  0  0  0  0  0  0  0
   49.6806    2.5962   18.5138 H   0  0  0  0  0  0  0  0  0  0  0  0
   49.7994    7.1405   18.9069 H   0  0  0  0  0  0  0  0  0  0  0  0
   51.8038    8.2109   18.8723 H   0  0  0  0  0  0  0  0  0  0  0  0
   52.3982    6.6397   18.3634 H   0  0  0  0  0  0  0  0  0  0  0  0
   53.8272    7.4977   20.1557 H   0  0  0  0  0  0  0  0  0  0  0  0
   52.9745    6.0867   20.7256 H   0  0  0  0  0  0  0  0  0  0  0  0
   50.4818    8.0775   22.6307 H   0  0  0  0  0  0  0  0  0  0  0  0
   50.4808    8.8489   21.0462 H   0  0  0  0  0  0  0  0  0  0  0  0
   49.0628    6.8233   21.0601 H   0  0  0  0  0  0  0  0  0  0  0  0
   50.4221    5.8435   21.5618 H   0  0  0  0  0  0  0  0  0  0  0  0
   53.9883    9.0796   21.8674 H   0  0  0  0  0  0  0  0  0  0  0  0
   52.5341    9.6489   22.6748 H   0  0  0  0  0  0  0  0  0  0  0  0
   52.6952    9.8418   20.9134 H   0  0  0  0  0  0  0  0  0  0  0  0
   48.8155    8.8485   10.5201 H   0  0  0  0  0  0  0  0  0  0  0  0
   49.1796    6.9876   16.1686 H   0  0  0  0  0  0  0  0  0  0  0  0
   50.4935   10.4967   14.1114 H   0  0  0  0  0  0  0  0  0  0  0  0
   46.9048    4.1122   15.4066 H   0  0  0  0  0  0  0  0  0  0  0  0
   46.4723    2.4340   17.1480 H   0  0  0  0  0  0  0  0  0  0  0  0
   47.5201    2.6939   19.3971 H   0  0  0  0  0  0  0  0  0  0  0  0
   50.1866    5.8629   21.5729 H   0  0  0  0  0  0  0  0  0  0  0  0
   51.2198    5.8169   18.7062 H   0  0  0  0  0  0  0  0  0  0  0  0
   51.9485    5.1627   20.1559 H   0  0  0  0  0  0  0  0  0  0  0  0
   53.0004    7.3149   19.5846 H   0  0  0  0  0  0  0  0  0  0  0  0
   52.1611    7.4115   21.1314 H   0  0  0  0  0  0  0  0  0  0  0  0
   49.7007    7.8039   18.3257 H   0  0  0  0  0  0  0  0  0  0  0  0
   49.2585    9.1643   19.3087 H   0  0  0  0  0  0  0  0  0  0  0  0
   48.1428    7.1033   20.1038 H   0  0  0  0  0  0  0  0  0  0  0  0
   49.1866    7.7821   21.3298 H   0  0  0  0  0  0  0  0  0  0  0  0
   51.0765   10.5467   19.8305 H   0  0  0  0  0  0  0  0  0  0  0  0
   52.5867    9.8543   20.3996 H   0  0  0  0  0  0  0  0  0  0  0  0
   51.0941    9.5878   21.3268 H   0  0  0  0  0  0  0  0  0  0  0  0
   51.1175    8.0308   19.7240 H   0  0  0  0  0  0  0  0  0  0  0  0
   49.3982    5.2468   18.5191 H   0  0  0  0  0  0  0  0  0  0  0  0
   48.1099    6.2520   17.8666 H   0  0  0  0  0  0  0  0  0  0  0  0
   50.9809    6.1536   16.7444 H   0  0  0  0  0  0  0  0  0  0  0  0
   49.6036    5.3116   16.0410 H   0  0  0  0  0  0  0  0  0  0  0  0
   48.1662    8.3103   14.9986 H   0  0  0  0  0  0  0  0  0  0  0  0
  1  2  1  0
  1 12  2  0
  3  1  1  0
  3  4  2  0
  4  6  1  0
  5  4  1  0
  7  8  2  0
  8  9  1  0
  8  6  1  0
  9 15  1  0
 10 11  1  0
 10  6  2  0
 12 10  1  0
 13 14  2  0
 14 18  1  0
 15 13  1  0
 15 16  2  0
 16 17  1  0
 18 17  2  0
 19 14  1  0
 19 20  1  0
 20 21  1  0
 21 22  1  0
 22 23  1  0
 23 24  1  0
 23 27  1  0
 24 25  1  0
 25 20  1  0
 26 19  2  0
 28 29  1  0
 28 39  2  0
 30 28  1  0
 30 31  2  0
 31 33  1  0
 32 31  1  0
 34 35  2  0
 35 36  1  0
 35 33  1  0
 36 42  1  0
 37 38  1  0
 37 33  2  0
 39 37  1  0
 40 41  2  0
 41 45  1  0
 42 40  1  0
 42 43  2  0
 43 44  1  0
 45 44  2  0
 46 41  1  0
 46 47  1  0
 47 48  1  0
 48 49  1  0
 49 50  1  0
 50 51  1  0
 50 54  1  0
 51 52  1  0
 52 47  1  0
 53 46  2  0
 55 56  1  0
 56 57  2  0
 56 58  1  0
 58 59  1  0
 59 60  1  0
 60 61  2  0
 60 62  1  0
  3 63  1  0
  9 64  1  0
 12 65  1  0
 16 66  1  0
 17 67  1  0
 18 68  1  0
 20 69  1  0
 21 70  1  0
 21 71  1  0
 22 72  1  0
 22 73  1  0
 24 74  1  0
 24 75  1  0
 25 76  1  0
 25 77  1  0
 27 78  1  0
 27 79  1  0
 27 80  1  0
 30 81  1  0
 36 82  1  0
 39 83  1  0
 43 84  1  0
 44 85  1  0
 45 86  1  0
 47 87  1  0
 48 88  1  0
 48 89  1  0
 49 90  1  0
 49 91  1  0
 51 92  1  0
 51 93  1  0
 52 94  1  0
 52 95  1  0
 54 96  1  0
 54 97  1  0
 54 98  1  0
 55 99  1  0
 58100  1  0
 58101  1  0
 59102  1  0
 59103  1  0
 62104  1  0
M  END
> <Uni-Dock RESULT> 
ENERGY=   -6.422  LOWER_BOUND=    3.796  UPPER_BOUND=    6.134
INTER + INTRA:          -6.422
INTER:                  -6.422
INTRA:                   0.000
UNBOUND:                 0.000

$$$$

     RDKit          3D

104107  0  0  0  0  0  0  0  0999 V2000
   46.5884    9.9665   12.0491 C   0  0  0  0  0  0  0  0  0  0  0  0
   46.3812   11.1068   11.3834 F   0  0  0  0  0  0  0  0  0  0  0  0
   47.7881    9.7781   12.7273 C   0  0  0  0  0  0  0  0  0  0  0  0
   47.9961    8.5865   13.4167 C   0  0  0  0  0  0  0  0  0  0  0  0
   49.1601    8.4266   14.0655 F   0  0  0  0  0  0  0  0  0  0  0  0
   47.0246    7.5814   13.4325 C   0  0  0  0  0  0  0  0  0  0  0  0
   46.7619    5.2777   13.6233 O   0  0  0  0  0  0  0  0  0  0  0  0
   47.2516    6.2859   14.1162 C   0  0  0  0  0  0  0  0  0  0  0  0
   48.0125    6.3356   15.2619 N   0  0  0  0  0  0  0  0  0  0  0  0
   45.8267    7.8031   12.7456 C   0  0  0  0  0  0  0  0  0  0  0  0
   44.8395    6.8963   12.7611 F   0  0  0  0  0  0  0  0  0  0  0  0
   45.6011    8.9928   12.0563 C   0  0  0  0  0  0  0  0  0  0  0  0
   49.1685    5.6594   17.1284 N   0  0  0  0  0  0  0  0  0  0  0  0
   49.6069    4.6904   17.9715 C   0  0  0  0  0  0  0  0  0  0  0  0
   48.3954    5.2758   16.0892 C   0  0  0  0  0  0  0  0  0  0  0  0
   48.0347    3.9529   15.8755 C   0  0  0  0  0  0  0  0  0  0  0  0
   48.4957    2.9739   16.7522 C   0  0  0  0  0  0  0  0  0  0  0  0
   49.3013    3.3432   17.8182 C   0  0  0  0  0  0  0  0  0  0  0  0
   50.4701    5.1132   19.1141 C   0  0  0  0  0  0  0  0  0  0  0  0
   50.4921    6.5884   19.5123 C   0  0  0  0  0  0  0  0  0  0  0  0
   51.8750    7.1884   19.2205 C   0  0  0  0  0  0  0  0  0  0  0  0
   52.7750    7.1562   20.4551 C   0  0  0  0  0  0  0  0  0  0  0  0
   52.2189    7.8790   21.6092 N   0  0  0  0  0  0  0  0  0  0  0  0
   50.7549    7.9658   21.6145 C   0  0  0  0  0  0  0  0  0  0  0  0
   50.1007    6.7350   20.9922 C   0  0  0  0  0  0  0  0  0  0  0  0
   51.1383    4.2669   19.7094 O   0  0  0  0  0  0  0  0  0  0  0  0
   52.8259    9.1940   21.7936 C   0  0  0  0  0  0  0  0  0  0  0  0
   49.6830    9.8026   12.2602 C   0  0  0  0  0  0  0  0  0  0  0  0
   50.1812   10.8318   11.5650 F   0  0  0  0  0  0  0  0  0  0  0  0
   48.9694    8.8114   11.6032 C   0  0  0  0  0  0  0  0  0  0  0  0
   48.4577    7.7406   12.3361 C   0  0  0  0  0  0  0  0  0  0  0  0
   47.7954    6.7970   11.6506 F   0  0  0  0  0  0  0  0  0  0  0  0
   48.6440    7.6459   13.7226 C   0  0  0  0  0  0  0  0  0  0  0  0
   47.2460    5.7715   13.9203 O   0  0  0  0  0  0  0  0  0  0  0  0
   48.0704    6.4896   14.4748 C   0  0  0  0  0  0  0  0  0  0  0  0
   48.5150    6.3199   15.7690 N   0  0  0  0  0  0  0  0  0  0  0  0
   49.3719    8.6641   14.3482 C   0  0  0  0  0  0  0  0  0  0  0  0
   49.5923    8.6361   15.6709 F   0  0  0  0  0  0  0  0  0  0  0  0
   49.8936    9.7385   13.6292 C   0  0  0  0  0  0  0  0  0  0  0  0
   48.7450    5.4639   17.8892 N   0  0  0  0  0  0  0  0  0  0  0  0
   48.4922    4.5239   18.8318 C   0  0  0  0  0  0  0  0  0  0  0  0
   48.1776    5.3069   16.6732 C   0  0  0  0  0  0  0  0  0  0  0  0
   47.3564    4.2301   16.3715 C   0  0  0  0  0  0  0  0  0  0  0  0
   47.1134    3.2696   17.3513 C   0  0  0  0  0  0  0  0  0  0  0  0
   47.6854    3.4162   18.6067 C   0  0  0  0  0  0  0  0  0  0  0  0
   49.1257    4.7016   20.1748 C   0  0  0  0  0  0  0  0  0  0  0  0
   49.9252    5.9584   20.5081 C   0  0  0  0  0  0  0  0  0  0  0  0
   51.2811    5.9934   19.8029 C   0  0  0  0  0  0  0  0  0  0  0  0
   51.9560    7.3365   20.0724 C   0  0  0  0  0  0  0  0  0  0  0  0
   51.1997    8.4811   19.5470 N   0  0  0  0  0  0  0  0  0  0  0  0
   49.7701    8.2260   19.3436 C   0  0  0  0  0  0  0  0  0  0  0  0
   49.1434    7.2723   20.3635 C   0  0  0  0  0  0  0  0  0  0  0  0
   48.9929    3.8094   21.0179 O   0  0  0  0  0  0  0  0  0  0  0  0
   51.4400    9.6800   20.3445 C   0  0  0  0  0  0  0  0  0  0  0  0
   50.9041    7.2310   19.2191 O   0  0  0  0  0  0  0  0  0  0  0  0
   49.6160    7.3292   18.8445 C   0  0  0  0  0  0  0  0  0  0  0  0
   48.9277    8.2710   19.1980 O   0  0  0  0  0  0  0  0  0  0  0  0
   49.1693    6.1812   17.9869 C   0  0  0  0  0  0  0  0  0  0  0  0
   49.8713    6.1980   16.6410 C   0  0  0  0  0  0  0  0  0  0  0  0
   49.5189    7.4305   15.8598 C   0  0  0  0  0  0  0  0  0  0  0  0
   50.2800    8.3348   15.5625 O   0  0  0  0  0  0  0  0  0  0  0  0
   48.2286    7.4594   15.4834 O   0  0  0  0  0  0  0  0  0  0  0  0
   48.5492   10.5514   12.7115 H   0  0  0  0  0  0  0  0  0  0  0  0
   48.4130    7.2150   15.5649 H   0  0  0  0  0  0  0  0  0  0  0  0
   44.6623    9.1539   11.5339 H   0  0  0  0  0  0  0  0  0  0  0  0
   47.4079    3.6508   15.0458 H   0  0  0  0  0  0  0  0  0  0  0  0
   48.2264    1.9314   16.5957 H   0  0  0  0  0  0  0  0  0  0  0  0
   49.6763    2.6002   18.5152 H   0  0  0  0  0  0  0  0  0  0  0  0
   49.7577    7.1443   18.9188 H   0  0  0  0  0  0  0  0  0  0  0  0
   51.7539    8.2302   18.8993 H   0  0  0  0  0  0  0  0  0  0  0  0
   52.3636    6.6647   18.3909 H   0  0  0  0  0  0  0  0  0  0  0  0
   53.7745    7.5297   20.1941 H   0  0  0  0  0  0  0  0  0  0  0  0
   52.9290    6.1110   20.7555 H   0  0  0  0  0  0  0  0  0  0  0  0
   50.4090    8.0784   22.6489 H   0  0  0  0  0  0  0  0  0  0  0  0
   50.4121    8.8533   21.0661 H   0  0  0  0  0  0  0  0  0  0  0  0
   49.0097    6.8168   21.0666 H   0  0  0  0  0  0  0  0  0  0  0  0
   50.3732    5.8463   21.5748 H   0  0  0  0  0  0  0  0  0  0  0  0
   53.9125    9.1090   21.9102 H   0  0  0  0  0  0  0  0  0  0  0  0
   52.4488    9.6654   22.7095 H   0  0  0  0  0  0  0  0  0  0  0  0
   52.6197    9.8634   20.9497 H   0  0  0  0  0  0  0  0  0  0  0  0
   48.8143    8.8632   10.5295 H   0  0  0  0  0  0  0  0  0  0  0  0
   49.1566    6.9927   16.1762 H   0  0  0  0  0  0  0  0  0  0  0  0
   50.4566   10.5163   14.1350 H   0  0  0  0  0  0  0  0  0  0  0  0
   46.9089    4.1017   15.3935 H   0  0  0  0  0  0  0  0  0  0  0  0
   46.4781    2.4163   17.1285 H   0  0  0  0  0  0  0  0  0  0  0  0
   47.5095    2.6793   19.3847 H   0  0  0  0  0  0  0  0  0  0  0  0
   50.1375    5.8639   21.5845 H   0  0  0  0  0  0  0  0  0  0  0  0
   51.1894    5.8321   18.7244 H   0  0  0  0  0  0  0  0  0  0  0  0
   51.9138    5.1803   20.1773 H   0  0  0  0  0  0  0  0  0  0  0  0
   52.9528    7.3418   19.6173 H   0  0  0  0  0  0  0  0  0  0  0  0
   52.1028    7.4286   21.1590 H   0  0  0  0  0  0  0  0  0  0  0  0
   49.6575    7.8082   18.3384 H   0  0  0  0  0  0  0  0  0  0  0  0
   49.1986    9.1631   19.3215 H   0  0  0  0  0  0  0  0  0  0  0  0
   48.0937    7.0918   20.1050 H   0  0  0  0  0  0  0  0  0  0  0  0
   49.1244    7.7759   21.3390 H   0  0  0  0  0  0  0  0  0  0  0  0
   51.0026   10.5582   19.8579 H   0  0  0  0  0  0  0  0  0  0  0  0
   52.5144    9.8762   20.4351 H   0  0  0  0  0  0  0  0  0  0  0  0
   51.0180    9.5962   21.3522 H   0  0  0  0  0  0  0  0  0  0  0  0
   51.0636    8.0430   19.7463 H   0  0  0  0  0  0  0  0  0  0  0  0
   49.3735    5.2485   18.5243 H   0  0  0  0  0  0  0  0  0  0  0  0
   48.0817    6.2452   17.8657 H   0  0  0  0  0  0  0  0  0  0  0  0
   50.9605    6.1713   16.7618 H   0  0  0  0  0  0  0  0  0  0  0  0
   49.5942    5.3203   16.0478 H   0  0  0  0  0  0  0  0  0  0  0  0
   48.1405    8.3101   15.0026 H   0  0  0  0  0  0  0  0  0  0  0  0
  1  2  1  0
  1 12  2  0
  3  1  1  0
  3  4  2  0
  4  6  1  0
  5  4  1  0
  7  8  2  0
  8  9  1  0
  8  6  1  0
  9 15  1  0
 10 11  1  0
 10  6  2  0
 12 10  1  0
 13 14  2  0
 14 18  1  0
 15 13  1  0
 15 16  2  0
 16 17  1  0
 18 17  2  0
 19 14  1  0
 19 20  1  0
 20 21  1  0
 21 22  1  0
 22 23  1  0
 23 24  1  0
 23 27  1  0
 24 25  1  0
 25 20  1  0
 26 19  2  0
 28 29  1  0
 28 39  2  0
 30 28  1  0
 30 31  2  0
 31 33  1  0
 32 31  1  0
 34 35  2  0
 35 36  1  0
 35 33  1  0
 36 42  1  0
 37 38  1  0
 37 33  2  0
 39 37  1  0
 40 41  2  0
 41 45  1  0
 42 40  1  0
 42 43  2  0
 43 44  1  0
 45 44  2  0
 46 41  1  0
 46 47  1  0
 47 48  1  0
 48 49  1  0
 49 50  1  0
 50 51  1  0
 50 54  1  0
 51 52  1  0
 52 47  1  0
 53 46  2  0
 55 56  1  0
 56 57  2  0
 56 58  1  0
 58 59  1  0
 59 60  1  0
 60 61  2  0
 60 62  1  0
  3 63  1  0
  9 64  1  0
 12 65  1  0
 16 66  1  0
 17 67  1  0
 18 68  1  0
 20 69  1  0
 21 70  1  0
 21 71  1  0
 22 72  1  0
 22 73  1  0
 24 74  1  0
 24 75  1  0
 25 76  1  0
 25 77  1  0
 27 78  1  0
 27 79  1  0
 27 80  1  0
 30 81  1  0
 36 82  1  0
 39 83  1  0
 43 84  1  0
 44 85  1  0
 45 86  1  0
 47 87  1  0
 48 88  1  0
 48 89  1  0
 49 90  1  0
 49 91  1  0
 51 92  1  0
 51 93  1  0
 52 94  1  0
 52 95  1  0
 54 96  1  0
 54 97  1  0
 54 98  1  0
 55 99  1  0
 58100  1  0
 58101  1  0
 59102  1  0
 59103  1  0
 62104  1  0
M  END
> <Uni-Dock RESULT> 
ENERGY=   -6.421  LOWER_BOUND=    3.799  UPPER_BOUND=    6.130
INTER + INTRA:          -6.421
INTER:                  -6.421
INTRA:                   0.000
UNBOUND:                 0.000

$$$$

     RDKit          3D

104107  0  0  0  0  0  0  0  0999 V2000
   50.6499    8.0900   11.9909 C   0  0  0  0  0  0  0  0  0  0  0  0
   51.0998    7.1020   11.2112 F   0  0  0  0  0  0  0  0  0  0  0  0
   49.8004    7.7925   13.0512 C   0  0  0  0  0  0  0  0  0  0  0  0
   49.3352    8.8283   13.8571 C   0  0  0  0  0  0  0  0  0  0  0  0
   48.5179    8.5184   14.8756 F   0  0  0  0  0  0  0  0  0  0  0  0
   49.7037   10.1547   13.6139 C   0  0  0  0  0  0  0  0  0  0  0  0
   48.9692   12.3468   13.8746 O   0  0  0  0  0  0  0  0  0  0  0  0
   49.1749   11.2745   14.4287 C   0  0  0  0  0  0  0  0  0  0  0  0
   48.9535   10.9985   15.7587 N   0  0  0  0  0  0  0  0  0  0  0  0
   50.5635   10.4208   12.5435 C   0  0  0  0  0  0  0  0  0  0  0  0
   50.9883   11.6663   12.2874 F   0  0  0  0  0  0  0  0  0  0  0  0
   51.0425    9.3946   11.7319 C   0  0  0  0  0  0  0  0  0  0  0  0
   48.3279   11.2624   17.9534 N   0  0  0  0  0  0  0  0  0  0  0  0
   47.8219   12.0117   18.9655 C   0  0  0  0  0  0  0  0  0  0  0  0
   48.4481   11.8518   16.7438 C   0  0  0  0  0  0  0  0  0  0  0  0
   48.0910   13.1739   16.5188 C   0  0  0  0  0  0  0  0  0  0  0  0
   47.5731   13.9252   17.5710 C   0  0  0  0  0  0  0  0  0  0  0  0
   47.4287   13.3367   18.8177 C   0  0  0  0  0  0  0  0  0  0  0  0
   47.6791   11.3569   20.2997 C   0  0  0  0  0  0  0  0  0  0  0  0
   48.4475   10.0639   20.5701 C   0  0  0  0  0  0  0  0  0  0  0  0
   47.4647    8.8944   20.7259 C   0  0  0  0  0  0  0  0  0  0  0  0
   47.1218    8.6386   22.1930 C   0  0  0  0  0  0  0  0  0  0  0  0
   48.2944    8.3394   23.0292 N   0  0  0  0  0  0  0  0  0  0  0  0
   49.5505    8.9048   22.5258 C   0  0  0  0  0  0  0  0  0  0  0  0
   49.3393   10.2368   21.8107 C   0  0  0  0  0  0  0  0  0  0  0  0
   46.9524   11.8735   21.1495 O   0  0  0  0  0  0  0  0  0  0  0  0
   48.4336    6.9138   23.3117 C   0  0  0  0  0  0  0  0  0  0  0  0
   48.0788    6.8973   13.2614 C   0  0  0  0  0  0  0  0  0  0  0  0
   47.8836    5.6963   12.7043 F   0  0  0  0  0  0  0  0  0  0  0  0
   48.0109    8.0380   12.4756 C   0  0  0  0  0  0  0  0  0  0  0  0
   48.2117    9.2854   13.0665 C   0  0  0  0  0  0  0  0  0  0  0  0
   48.1126   10.3586   12.2680 F   0  0  0  0  0  0  0  0  0  0  0  0
   48.4855    9.4122   14.4358 C   0  0  0  0  0  0  0  0  0  0  0  0
   48.8859   11.7193   14.2818 O   0  0  0  0  0  0  0  0  0  0  0  0
   48.7064   10.7650   15.0300 C   0  0  0  0  0  0  0  0  0  0  0  0
   48.7012   10.8372   16.4070 N   0  0  0  0  0  0  0  0  0  0  0  0
   48.5427    8.2383   15.1951 C   0  0  0  0  0  0  0  0  0  0  0  0
   48.7960    8.2847   16.5114 F   0  0  0  0  0  0  0  0  0  0  0  0
   48.3399    6.9845   14.6204 C   0  0  0  0  0  0  0  0  0  0  0  0
   48.8514   11.6911   18.5352 N   0  0  0  0  0  0  0  0  0  0  0  0
   48.9660   12.7267   19.4015 C   0  0  0  0  0  0  0  0  0  0  0  0
   48.8408   11.9718   17.2137 C   0  0  0  0  0  0  0  0  0  0  0  0
   48.9451   13.2680   16.7302 C   0  0  0  0  0  0  0  0  0  0  0  0
   49.0551   14.3210   17.6361 C   0  0  0  0  0  0  0  0  0  0  0  0
   49.0706   14.0511   18.9968 C   0  0  0  0  0  0  0  0  0  0  0  0
   48.9739   12.4098   20.8630 C   0  0  0  0  0  0  0  0  0  0  0  0
   48.9779   10.9649   21.3552 C   0  0  0  0  0  0  0  0  0  0  0  0
   47.6279   10.2756   21.1570 C   0  0  0  0  0  0  0  0  0  0  0  0
   47.7519    8.8026   21.5404 C   0  0  0  0  0  0  0  0  0  0  0  0
   48.7073    8.0642   20.7037 N   0  0  0  0  0  0  0  0  0  0  0  0
   49.7131    8.9015   20.0422 C   0  0  0  0  0  0  0  0  0  0  0  0
   50.1584   10.1204   20.8538 C   0  0  0  0  0  0  0  0  0  0  0  0
   48.9762   13.3410   21.6736 O   0  0  0  0  0  0  0  0  0  0  0  0
   49.3077    6.9581   21.4433 C   0  0  0  0  0  0  0  0  0  0  0  0
   48.2895    9.2823   20.3887 O   0  0  0  0  0  0  0  0  0  0  0  0
   49.2757    9.7264   19.5891 C   0  0  0  0  0  0  0  0  0  0  0  0
   50.3832    9.2180   19.6138 O   0  0  0  0  0  0  0  0  0  0  0  0
   48.8489   10.8722   18.7186 C   0  0  0  0  0  0  0  0  0  0  0  0
   47.8167   10.4289   17.6975 C   0  0  0  0  0  0  0  0  0  0  0  0
   48.3886    9.4118   16.7532 C   0  0  0  0  0  0  0  0  0  0  0  0
   48.0550    8.2426   16.6682 O   0  0  0  0  0  0  0  0  0  0  0  0
   49.3454    9.9186   15.9563 O   0  0  0  0  0  0  0  0  0  0  0  0
   49.5043    6.7657   13.2395 H   0  0  0  0  0  0  0  0  0  0  0  0
   49.1120   10.0635   16.1140 H   0  0  0  0  0  0  0  0  0  0  0  0
   51.7162    9.6159   10.9089 H   0  0  0  0  0  0  0  0  0  0  0  0
   48.1967   13.6449   15.5496 H   0  0  0  0  0  0  0  0  0  0  0  0
   47.2833   14.9615   17.4099 H   0  0  0  0  0  0  0  0  0  0  0  0
   47.0256   13.8987   19.6544 H   0  0  0  0  0  0  0  0  0  0  0  0
   49.1016    9.8361   19.7210 H   0  0  0  0  0  0  0  0  0  0  0  0
   47.9164    7.9874   20.3059 H   0  0  0  0  0  0  0  0  0  0  0  0
   46.5463    9.0741   20.1557 H   0  0  0  0  0  0  0  0  0  0  0  0
   46.3680    7.8426   22.2633 H   0  0  0  0  0  0  0  0  0  0  0  0
   46.6342    9.5323   22.6052 H   0  0  0  0  0  0  0  0  0  0  0  0
   50.2385    9.0484   23.3675 H   0  0  0  0  0  0  0  0  0  0  0  0
   50.0411    8.2128   21.8285 H   0  0  0  0  0  0  0  0  0  0  0  0
   50.3068   10.6491   21.5004 H   0  0  0  0  0  0  0  0  0  0  0  0
   48.9181   10.9638   22.5161 H   0  0  0  0  0  0  0  0  0  0  0  0
   47.5330    6.5234   23.7997 H   0  0  0  0  0  0  0  0  0  0  0  0
   49.2656    6.7397   24.0049 H   0  0  0  0  0  0  0  0  0  0  0  0
   48.6141    6.3304   22.4007 H   0  0  0  0  0  0  0  0  0  0  0  0
   47.7984    7.9638   11.4131 H   0  0  0  0  0  0  0  0  0  0  0  0
   48.6036    9.9904   16.9580 H   0  0  0  0  0  0  0  0  0  0  0  0
   48.3874    6.0872   15.2290 H   0  0  0  0  0  0  0  0  0  0  0  0
   48.9283   13.4919   15.6705 H   0  0  0  0  0  0  0  0  0  0  0  0
   49.1304   15.3428   17.2734 H   0  0  0  0  0  0  0  0  0  0  0  0
   49.1552   14.8566   19.7202 H   0  0  0  0  0  0  0  0  0  0  0  0
   49.1250   11.0524   22.4431 H   0  0  0  0  0  0  0  0  0  0  0  0
   47.2670   10.3636   20.1276 H   0  0  0  0  0  0  0  0  0  0  0  0
   46.8703   10.7583   21.7852 H   0  0  0  0  0  0  0  0  0  0  0  0
   46.7719    8.3197   21.4555 H   0  0  0  0  0  0  0  0  0  0  0  0
   48.0392    8.7529   22.6014 H   0  0  0  0  0  0  0  0  0  0  0  0
   49.2811    9.2347   19.0935 H   0  0  0  0  0  0  0  0  0  0  0  0
   50.5941    8.3125   19.7557 H   0  0  0  0  0  0  0  0  0  0  0  0
   50.8629   10.7193   20.2654 H   0  0  0  0  0  0  0  0  0  0  0  0
   50.7276    9.7656   21.7232 H   0  0  0  0  0  0  0  0  0  0  0  0
   49.8938    6.3213   20.7721 H   0  0  0  0  0  0  0  0  0  0  0  0
   48.5327    6.3192   21.8818 H   0  0  0  0  0  0  0  0  0  0  0  0
   49.9631    7.3082   22.2486 H   0  0  0  0  0  0  0  0  0  0  0  0
   48.6944    8.5335   20.8764 H   0  0  0  0  0  0  0  0  0  0  0  0
   48.4497   11.6646   19.3614 H   0  0  0  0  0  0  0  0  0  0  0  0
   49.7394   11.2815   18.2275 H   0  0  0  0  0  0  0  0  0  0  0  0
   46.9412    9.9855   18.1860 H   0  0  0  0  0  0  0  0  0  0  0  0
   47.4580   11.2822   17.1126 H   0  0  0  0  0  0  0  0  0  0  0  0
   49.6312    9.1536   15.4123 H   0  0  0  0  0  0  0  0  0  0  0  0
  1  2  1  0
  1 12  2  0
  3  1  1  0
  3  4  2  0
  4  6  1  0
  5  4  1  0
  7  8  2  0
  8  9  1  0
  8  6  1  0
  9 15  1  0
 10 11  1  0
 10  6  2  0
 12 10  1  0
 13 14  2  0
 14 18  1  0
 15 13  1  0
 15 16  2  0
 16 17  1  0
 18 17  2  0
 19 14  1  0
 19 20  1  0
 20 21  1  0
 21 22  1  0
 22 23  1  0
 23 24  1  0
 23 27  1  0
 24 25  1  0
 25 20  1  0
 26 19  2  0
 28 29  1  0
 28 39  2  0
 30 28  1  0
 30 31  2  0
 31 33  1  0
 32 31  1  0
 34 35  2  0
 35 36  1  0
 35 33  1  0
 36 42  1  0
 37 38  1  0
 37 33  2  0
 39 37  1  0
 40 41  2  0
 41 45  1  0
 42 40  1  0
 42 43  2  0
 43 44  1  0
 45 44  2  0
 46 41  1  0
 46 47  1  0
 47 48  1  0
 48 49  1  0
 49 50  1  0
 50 51  1  0
 50 54  1  0
 51 52  1  0
 52 47  1  0
 53 46  2  0
 55 56  1  0
 56 57  2  0
 56 58  1  0
 58 59  1  0
 59 60  1  0
 60 61  2  0
 60 62  1  0
  3 63  1  0
  9 64  1  0
 12 65  1  0
 16 66  1  0
 17 67  1  0
 18 68  1  0
 20 69  1  0
 21 70  1  0
 21 71  1  0
 22 72  1  0
 22 73  1  0
 24 74  1  0
 24 75  1  0
 25 76  1  0
 25 77  1  0
 27 78  1  0
 27 79  1  0
 27 80  1  0
 30 81  1  0
 36 82  1  0
 39 83  1  0
 43 84  1  0
 44 85  1  0
 45 86  1  0
 47 87  1  0
 48 88  1  0
 48 89  1  0
 49 90  1  0
 49 91  1  0
 51 92  1  0
 51 93  1  0
 52 94  1  0
 52 95  1  0
 54 96  1  0
 54 97  1  0
 54 98  1  0
 55 99  1  0
 58100  1  0
 58101  1  0
 59102  1  0
 59103  1  0
 62104  1  0
M  END
> <Uni-Dock RESULT> 
ENERGY=   -5.810  LOWER_BOUND=    4.505  UPPER_BOUND=    8.021
INTER + INTRA:          -5.810
INTER:                  -5.810
INTRA:                   0.000
UNBOUND:                 0.000

$$$$

     RDKit          3D

104107  0  0  0  0  0  0  0  0999 V2000
   51.3381   10.5173   11.6923 C   0  0  0  0  0  0  0  0  0  0  0  0
   52.0066   10.0062   10.6539 F   0  0  0  0  0  0  0  0  0  0  0  0
   50.5149    9.6912   12.4501 C   0  0  0  0  0  0  0  0  0  0  0  0
   49.8209   10.2326   13.5290 C   0  0  0  0  0  0  0  0  0  0  0  0
   49.0336    9.4171   14.2476 F   0  0  0  0  0  0  0  0  0  0  0  0
   49.9356   11.5870   13.8560 C   0  0  0  0  0  0  0  0  0  0  0  0
   48.7783   13.3465   14.8444 O   0  0  0  0  0  0  0  0  0  0  0  0
   49.1627   12.1906   14.9675 C   0  0  0  0  0  0  0  0  0  0  0  0
   48.9384   11.3776   16.0552 N   0  0  0  0  0  0  0  0  0  0  0  0
   50.7755   12.3904   13.0782 C   0  0  0  0  0  0  0  0  0  0  0  0
   50.9616   13.6858   13.3690 F   0  0  0  0  0  0  0  0  0  0  0  0
   51.4813   11.8621   11.9992 C   0  0  0  0  0  0  0  0  0  0  0  0
   48.1736   10.6446   18.0936 N   0  0  0  0  0  0  0  0  0  0  0  0
   47.4859   10.8387   19.2474 C   0  0  0  0  0  0  0  0  0  0  0  0
   48.2323   11.6767   17.2240 C   0  0  0  0  0  0  0  0  0  0  0  0
   47.6360   12.9034   17.4800 C   0  0  0  0  0  0  0  0  0  0  0  0
   46.9344   13.0815   18.6698 C   0  0  0  0  0  0  0  0  0  0  0  0
   46.8501   12.0316   19.5710 C   0  0  0  0  0  0  0  0  0  0  0  0
   47.4120    9.6945   20.2037 C   0  0  0  0  0  0  0  0  0  0  0  0
   48.4036    8.5420   20.0491 C   0  0  0  0  0  0  0  0  0  0  0  0
   47.6606    7.2655   19.6293 C   0  0  0  0  0  0  0  0  0  0  0  0
   47.3070    6.3969   20.8358 C   0  0  0  0  0  0  0  0  0  0  0  0
   48.4758    5.9829   21.6272 N   0  0  0  0  0  0  0  0  0  0  0  0
   49.6199    6.8953   21.5303 C   0  0  0  0  0  0  0  0  0  0  0  0
   49.1871    8.3489   21.3581 C   0  0  0  0  0  0  0  0  0  0  0  0
   46.5606    9.7073   21.0937 O   0  0  0  0  0  0  0  0  0  0  0  0
   48.8761    4.6047   21.3586 C   0  0  0  0  0  0  0  0  0  0  0  0
   48.9921    8.5223   12.0972 C   0  0  0  0  0  0  0  0  0  0  0  0
   49.0596    7.6269   11.1051 F   0  0  0  0  0  0  0  0  0  0  0  0
   48.7401    9.8542   11.8041 C   0  0  0  0  0  0  0  0  0  0  0  0
   48.6675   10.7792   12.8456 C   0  0  0  0  0  0  0  0  0  0  0  0
   48.3985   12.0500   12.5115 F   0  0  0  0  0  0  0  0  0  0  0  0
   48.8484   10.3942   14.1817 C   0  0  0  0  0  0  0  0  0  0  0  0
   48.7999   12.6045   14.9684 O   0  0  0  0  0  0  0  0  0  0  0  0
   48.7750   11.4162   15.2688 C   0  0  0  0  0  0  0  0  0  0  0  0
   48.6928   10.9341   16.5580 N   0  0  0  0  0  0  0  0  0  0  0  0
   49.0977    9.0411   14.4366 C   0  0  0  0  0  0  0  0  0  0  0  0
   49.2766    8.6012   15.6909 F   0  0  0  0  0  0  0  0  0  0  0  0
   49.1688    8.1036   13.4072 C   0  0  0  0  0  0  0  0  0  0  0  0
   48.5766   10.8850   18.8526 N   0  0  0  0  0  0  0  0  0  0  0  0
   48.4481   11.4954   20.0555 C   0  0  0  0  0  0  0  0  0  0  0  0
   48.5723   11.6616   17.7471 C   0  0  0  0  0  0  0  0  0  0  0  0
   48.4449   13.0416   17.8108 C   0  0  0  0  0  0  0  0  0  0  0  0
   48.3068   13.6513   19.0562 C   0  0  0  0  0  0  0  0  0  0  0  0
   48.3120   12.8697   20.2023 C   0  0  0  0  0  0  0  0  0  0  0  0
   48.4505   10.6302   21.2752 C   0  0  0  0  0  0  0  0  0  0  0  0
   48.7124    9.1297   21.1756 C   0  0  0  0  0  0  0  0  0  0  0  0
   47.5325    8.3687   20.5708 C   0  0  0  0  0  0  0  0  0  0  0  0
   47.9225    6.9053   20.3749 C   0  0  0  0  0  0  0  0  0  0  0  0
   49.0404    6.7235   19.4393 N   0  0  0  0  0  0  0  0  0  0  0  0
   49.8937    7.9043   19.2716 C   0  0  0  0  0  0  0  0  0  0  0  0
   50.0562    8.7551   20.5335 C   0  0  0  0  0  0  0  0  0  0  0  0
   48.2348   11.1503   22.3740 O   0  0  0  0  0  0  0  0  0  0  0  0
   49.8096    5.5267   19.7663 C   0  0  0  0  0  0  0  0  0  0  0  0
   48.4089    7.8823   19.5659 O   0  0  0  0  0  0  0  0  0  0  0  0
   49.3257    8.7593   19.1192 C   0  0  0  0  0  0  0  0  0  0  0  0
   50.5085    8.4679   19.0791 O   0  0  0  0  0  0  0  0  0  0  0  0
   48.7248   10.0719   18.7079 C   0  0  0  0  0  0  0  0  0  0  0  0
   47.8462    9.9108   17.4804 C   0  0  0  0  0  0  0  0  0  0  0  0
   48.6474    9.4584   16.2944 C   0  0  0  0  0  0  0  0  0  0  0  0
   48.5514    8.3820   15.7307 O   0  0  0  0  0  0  0  0  0  0  0  0
   49.5231   10.3863   15.8706 O   0  0  0  0  0  0  0  0  0  0  0  0
   50.4155    8.6410   12.1959 H   0  0  0  0  0  0  0  0  0  0  0  0
   49.2590   10.4171   16.0428 H   0  0  0  0  0  0  0  0  0  0  0  0
   52.1362   12.4969   11.4091 H   0  0  0  0  0  0  0  0  0  0  0  0
   47.6925   13.7308   16.7837 H   0  0  0  0  0  0  0  0  0  0  0  0
   46.4566   14.0354   18.8833 H   0  0  0  0  0  0  0  0  0  0  0  0
   46.3075   12.1426   20.5047 H   0  0  0  0  0  0  0  0  0  0  0  0
   49.1278    8.7782   19.2613 H   0  0  0  0  0  0  0  0  0  0  0  0
   48.2986    6.6851   18.9516 H   0  0  0  0  0  0  0  0  0  0  0  0
   46.7518    7.5068   19.0663 H   0  0  0  0  0  0  0  0  0  0  0  0
   46.7198    5.5287   20.5072 H   0  0  0  0  0  0  0  0  0  0  0  0
   46.6368    6.9626   21.4970 H   0  0  0  0  0  0  0  0  0  0  0  0
   50.2276    6.8014   22.4382 H   0  0  0  0  0  0  0  0  0  0  0  0
   50.2670    6.6254   20.6852 H   0  0  0  0  0  0  0  0  0  0  0  0
   50.0693    9.0000   21.3456 H   0  0  0  0  0  0  0  0  0  0  0  0
   48.6009    8.6583   22.2322 H   0  0  0  0  0  0  0  0  0  0  0  0
   48.0471    3.9136   21.5502 H   0  0  0  0  0  0  0  0  0  0  0  0
   49.6935    4.3058   22.0262 H   0  0  0  0  0  0  0  0  0  0  0  0
   49.2080    4.4681   20.3223 H   0  0  0  0  0  0  0  0  0  0  0  0
   48.5949   10.1748   10.7767 H   0  0  0  0  0  0  0  0  0  0  0  0
   48.7363    9.9345   16.7284 H   0  0  0  0  0  0  0  0  0  0  0  0
   49.3617    7.0588   13.6283 H   0  0  0  0  0  0  0  0  0  0  0  0
   48.4335   13.6619   16.9228 H   0  0  0  0  0  0  0  0  0  0  0  0
   48.1987   14.7307   19.1225 H   0  0  0  0  0  0  0  0  0  0  0  0
   48.2054   13.3241   21.1829 H   0  0  0  0  0  0  0  0  0  0  0  0
   48.7897    8.8006   22.2236 H   0  0  0  0  0  0  0  0  0  0  0  0
   47.2089    8.7990   19.6181 H   0  0  0  0  0  0  0  0  0  0  0  0
   46.6677    8.4340   21.2411 H   0  0  0  0  0  0  0  0  0  0  0  0
   47.0599    6.3453   19.9967 H   0  0  0  0  0  0  0  0  0  0  0  0
   48.1651    6.4853   21.3626 H   0  0  0  0  0  0  0  0  0  0  0  0
   49.4492    8.5126   18.4779 H   0  0  0  0  0  0  0  0  0  0  0  0
   50.8845    7.6271   18.8886 H   0  0  0  0  0  0  0  0  0  0  0  0
   50.6572    9.6430   20.3061 H   0  0  0  0  0  0  0  0  0  0  0  0
   50.6430    8.1807   21.2625 H   0  0  0  0  0  0  0  0  0  0  0  0
   50.5384    5.3118   18.9775 H   0  0  0  0  0  0  0  0  0  0  0  0
   49.1542    4.6509   19.8327 H   0  0  0  0  0  0  0  0  0  0  0  0
   50.3470    5.6287   20.7158 H   0  0  0  0  0  0  0  0  0  0  0  0
   48.9288    7.0770   19.7752 H   0  0  0  0  0  0  0  0  0  0  0  0
   48.1503   10.4686   19.5523 H   0  0  0  0  0  0  0  0  0  0  0  0
   49.5404   10.7796   18.5195 H   0  0  0  0  0  0  0  0  0  0  0  0
   47.0521    9.1757   17.6552 H   0  0  0  0  0  0  0  0  0  0  0  0
   47.3558   10.8565   17.2274 H   0  0  0  0  0  0  0  0  0  0  0  0
   49.9766    9.9568   15.1139 H   0  0  0  0  0  0  0  0  0  0  0  0
  1  2  1  0
  1 12  2  0
  3  1  1  0
  3  4  2  0
  4  6  1  0
  5  4  1  0
  7  8  2  0
  8  9  1  0
  8  6  1  0
  9 15  1  0
 10 11  1  0
 10  6  2  0
 12 10  1  0
 13 14  2  0
 14 18  1  0
 15 13  1  0
 15 16  2  0
 16 17  1  0
 18 17  2  0
 19 14  1  0
 19 20  1  0
 20 21  1  0
 21 22  1  0
 22 23  1  0
 23 24  1  0
 23 27  1  0
 24 25  1  0
 25 20  1  0
 26 19  2  0
 28 29  1  0
 28 39  2  0
 30 28  1  0
 30 31  2  0
 31 33  1  0
 32 31  1  0
 34 35  2  0
 35 36  1  0
 35 33  1  0
 36 42  1  0
 37 38  1  0
 37 33  2  0
 39 37  1  0
 40 41  2  0
 41 45  1  0
 42 40  1  0
 42 43  2  0
 43 44  1  0
 45 44  2  0
 46 41  1  0
 46 47  1  0
 47 48  1  0
 48 49  1  0
 49 50  1  0
 50 51  1  0
 50 54  1  0
 51 52  1  0
 52 47  1  0
 53 46  2  0
 55 56  1  0
 56 57  2  0
 56 58  1  0
 58 59  1  0
 59 60  1  0
 60 61  2  0
 60 62  1  0
  3 63  1  0
  9 64  1  0
 12 65  1  0
 16 66  1  0
 17 67  1  0
 18 68  1  0
 20 69  1  0
 21 70  1  0
 21 71  1  0
 22 72  1  0
 22 73  1  0
 24 74  1  0
 24 75  1  0
 25 76  1  0
 25 77  1  0
 27 78  1  0
 27 79  1  0
 27 80  1  0
 30 81  1  0
 36 82  1  0
 39 83  1  0
 43 84  1  0
 44 85  1  0
 45 86  1  0
 47 87  1  0
 48 88  1  0
 48 89  1  0
 49 90  1  0
 49 91  1  0
 51 92  1  0
 51 93  1  0
 52 94  1  0
 52 95  1  0
 54 96  1  0
 54 97  1  0
 54 98  1  0
 55 99  1  0
 58100  1  0
 58101  1  0
 59102  1  0
 59103  1  0
 62104  1  0
M  END
> <Uni-Dock RESULT> 
ENERGY=   -5.462  LOWER_BOUND=    4.567  UPPER_BOUND=    7.612
INTER + INTRA:          -5.462
INTER:                  -5.462
INTRA:                   0.000
UNBOUND:                 0.000

$$$$

     RDKit          3D

104107  0  0  0  0  0  0  0  0999 V2000
   49.7355    4.9789   20.3729 C   0  0  0  0  0  0  0  0  0  0  0  0
   50.0654    4.6746   21.6319 F   0  0  0  0  0  0  0  0  0  0  0  0
   49.1785    6.2221   20.0926 C   0  0  0  0  0  0  0  0  0  0  0  0
   48.8362    6.5300   18.7786 C   0  0  0  0  0  0  0  0  0  0  0  0
   48.3017    7.7358   18.5305 F   0  0  0  0  0  0  0  0  0  0  0  0
   49.0387    5.6111   17.7447 C   0  0  0  0  0  0  0  0  0  0  0  0
   48.2231    4.9756   15.6605 O   0  0  0  0  0  0  0  0  0  0  0  0
   48.6306    5.9020   16.3496 C   0  0  0  0  0  0  0  0  0  0  0  0
   48.7436    7.2145   15.9511 N   0  0  0  0  0  0  0  0  0  0  0  0
   49.6057    4.3716   18.0578 C   0  0  0  0  0  0  0  0  0  0  0  0
   49.8658    3.4664   17.1037 F   0  0  0  0  0  0  0  0  0  0  0  0
   49.9593    4.0511   19.3668 C   0  0  0  0  0  0  0  0  0  0  0  0
   48.6241    9.1035   14.6493 N   0  0  0  0  0  0  0  0  0  0  0  0
   48.3113    9.7311   13.4873 C   0  0  0  0  0  0  0  0  0  0  0  0
   48.4173    7.7700   14.7105 C   0  0  0  0  0  0  0  0  0  0  0  0
   47.9205    7.0416   13.6388 C   0  0  0  0  0  0  0  0  0  0  0  0
   47.6053    7.7050   12.4555 C   0  0  0  0  0  0  0  0  0  0  0  0
   47.7970    9.0755   12.3748 C   0  0  0  0  0  0  0  0  0  0  0  0
   48.5298   11.2067   13.4234 C   0  0  0  0  0  0  0  0  0  0  0  0
   49.4339   11.8619   14.4667 C   0  0  0  0  0  0  0  0  0  0  0  0
   48.6037   12.7792   15.3761 C   0  0  0  0  0  0  0  0  0  0  0  0
   48.6290   14.2276   14.8893 C   0  0  0  0  0  0  0  0  0  0  0  0
   49.9820   14.7991   14.8089 N   0  0  0  0  0  0  0  0  0  0  0  0
   51.0422   13.8058   14.6079 C   0  0  0  0  0  0  0  0  0  0  0  0
   50.5729   12.6217   13.7666 C   0  0  0  0  0  0  0  0  0  0  0  0
   47.9826   11.8586   12.5330 O   0  0  0  0  0  0  0  0  0  0  0  0
   50.2885   15.6771   15.9344 C   0  0  0  0  0  0  0  0  0  0  0  0
   47.6236    7.2327   20.7015 C   0  0  0  0  0  0  0  0  0  0  0  0
   47.3950    7.3714   22.0127 F   0  0  0  0  0  0  0  0  0  0  0  0
   47.2912    6.0444   20.0685 C   0  0  0  0  0  0  0  0  0  0  0  0
   47.5296    5.9111   18.7007 C   0  0  0  0  0  0  0  0  0  0  0  0
   47.1691    4.7512   18.1317 F   0  0  0  0  0  0  0  0  0  0  0  0
   48.1021    6.9492   17.9520 C   0  0  0  0  0  0  0  0  0  0  0  0
   48.2832    5.6367   16.0151 O   0  0  0  0  0  0  0  0  0  0  0  0
   48.3530    6.7644   16.4909 C   0  0  0  0  0  0  0  0  0  0  0  0
   48.6607    7.9012   15.7738 N   0  0  0  0  0  0  0  0  0  0  0  0
   48.4205    8.1332   18.6263 C   0  0  0  0  0  0  0  0  0  0  0  0
   48.9669    9.1690   17.9724 F   0  0  0  0  0  0  0  0  0  0  0  0
   48.1844    8.2837   19.9919 C   0  0  0  0  0  0  0  0  0  0  0  0
   49.2345    9.2711   14.0202 N   0  0  0  0  0  0  0  0  0  0  0  0
   49.4686    9.4920   12.7040 C   0  0  0  0  0  0  0  0  0  0  0  0
   48.8980    8.0190   14.4000 C   0  0  0  0  0  0  0  0  0  0  0  0
   48.7909    6.9731   13.4947 C   0  0  0  0  0  0  0  0  0  0  0  0
   49.0285    7.2206   12.1441 C   0  0  0  0  0  0  0  0  0  0  0  0
   49.3780    8.4998   11.7365 C   0  0  0  0  0  0  0  0  0  0  0  0
   49.8376   10.8807   12.2895 C   0  0  0  0  0  0  0  0  0  0  0  0
   50.0628   11.9782   13.3263 C   0  0  0  0  0  0  0  0  0  0  0  0
   48.7587   12.4562   13.9649 C   0  0  0  0  0  0  0  0  0  0  0  0
   49.0773   13.4458   15.0835 C   0  0  0  0  0  0  0  0  0  0  0  0
   49.8658   12.8550   16.1730 N   0  0  0  0  0  0  0  0  0  0  0  0
   50.6264   11.6590   15.7966 C   0  0  0  0  0  0  0  0  0  0  0  0
   51.1551   11.6684   14.3603 C   0  0  0  0  0  0  0  0  0  0  0  0
   49.9577   11.1303   11.0863 O   0  0  0  0  0  0  0  0  0  0  0  0
   50.7015   13.8608   16.8218 C   0  0  0  0  0  0  0  0  0  0  0  0
   49.2970   12.1135   15.2326 O   0  0  0  0  0  0  0  0  0  0  0  0
   50.0359   10.9901   15.2666 C   0  0  0  0  0  0  0  0  0  0  0  0
   51.1539   10.9864   15.7522 O   0  0  0  0  0  0  0  0  0  0  0  0
   49.3354    9.8129   14.6529 C   0  0  0  0  0  0  0  0  0  0  0  0
   48.1312    9.4005   15.4801 C   0  0  0  0  0  0  0  0  0  0  0  0
   48.5436    8.9409   16.8484 C   0  0  0  0  0  0  0  0  0  0  0  0
   48.2873    9.4987   17.9013 O   0  0  0  0  0  0  0  0  0  0  0  0
   49.2499    7.7972   16.8245 O   0  0  0  0  0  0  0  0  0  0  0  0
   49.0112    6.9362   20.8924 H   0  0  0  0  0  0  0  0  0  0  0  0
   49.0491    7.9187   16.6117 H   0  0  0  0  0  0  0  0  0  0  0  0
   50.4062    3.0872   19.5934 H   0  0  0  0  0  0  0  0  0  0  0  0
   47.7640    5.9713   13.6894 H   0  0  0  0  0  0  0  0  0  0  0  0
   47.2097    7.1494   11.6078 H   0  0  0  0  0  0  0  0  0  0  0  0
   47.5574    9.6178   11.4654 H   0  0  0  0  0  0  0  0  0  0  0  0
   49.8894   11.0919   15.0996 H   0  0  0  0  0  0  0  0  0  0  0  0
   49.0124   12.7417   16.3933 H   0  0  0  0  0  0  0  0  0  0  0  0
   47.5676   12.4292   15.4469 H   0  0  0  0  0  0  0  0  0  0  0  0
   47.9734   14.8418   15.5214 H   0  0  0  0  0  0  0  0  0  0  0  0
   48.1847   14.2732   13.8859 H   0  0  0  0  0  0  0  0  0  0  0  0
   51.8933   14.2891   14.1136 H   0  0  0  0  0  0  0  0  0  0  0  0
   51.4086   13.4224   15.5694 H   0  0  0  0  0  0  0  0  0  0  0  0
   51.4090   11.9332   13.5955 H   0  0  0  0  0  0  0  0  0  0  0  0
   50.2731   12.9790   12.7737 H   0  0  0  0  0  0  0  0  0  0  0  0
   49.5567   16.4901   16.0051 H   0  0  0  0  0  0  0  0  0  0  0  0
   51.2688   16.1495   15.7964 H   0  0  0  0  0  0  0  0  0  0  0  0
   50.2966   15.1349   16.8877 H   0  0  0  0  0  0  0  0  0  0  0  0
   46.8451    5.2275   20.6282 H   0  0  0  0  0  0  0  0  0  0  0  0
   48.7563    8.7912   16.2523 H   0  0  0  0  0  0  0  0  0  0  0  0
   48.4379    9.2118   20.4942 H   0  0  0  0  0  0  0  0  0  0  0  0
   48.5131    5.9716   13.7999 H   0  0  0  0  0  0  0  0  0  0  0  0
   48.9416    6.4135   11.4214 H   0  0  0  0  0  0  0  0  0  0  0  0
   49.5672    8.7148   10.6890 H   0  0  0  0  0  0  0  0  0  0  0  0
   50.4503   12.8259   12.7398 H   0  0  0  0  0  0  0  0  0  0  0  0
   48.1642   11.6265   14.3594 H   0  0  0  0  0  0  0  0  0  0  0  0
   48.1330   12.9431   13.2080 H   0  0  0  0  0  0  0  0  0  0  0  0
   48.1430   13.8347   15.5037 H   0  0  0  0  0  0  0  0  0  0  0  0
   49.6048   14.3019   14.6368 H   0  0  0  0  0  0  0  0  0  0  0  0
   49.9633   10.7994   15.9342 H   0  0  0  0  0  0  0  0  0  0  0  0
   51.4586   11.4829   16.4904 H   0  0  0  0  0  0  0  0  0  0  0  0
   51.6579   10.7186   14.1451 H   0  0  0  0  0  0  0  0  0  0  0  0
   51.9345   12.4382   14.2856 H   0  0  0  0  0  0  0  0  0  0  0  0
   51.1624   13.4507   17.7267 H   0  0  0  0  0  0  0  0  0  0  0  0
   50.0986   14.7188   17.1401 H   0  0  0  0  0  0  0  0  0  0  0  0
   51.4973   14.2237   16.1617 H   0  0  0  0  0  0  0  0  0  0  0  0
   49.8583   12.7838   15.6780 H   0  0  0  0  0  0  0  0  0  0  0  0
   49.0377   10.0811   13.6332 H   0  0  0  0  0  0  0  0  0  0  0  0
   50.0553    8.9908   14.5666 H   0  0  0  0  0  0  0  0  0  0  0  0
   47.4277   10.2329   15.5983 H   0  0  0  0  0  0  0  0  0  0  0  0
   47.5845    8.5875   14.9912 H   0  0  0  0  0  0  0  0  0  0  0  0
   49.4584    7.6272   17.7681 H   0  0  0  0  0  0  0  0  0  0  0  0
  1  2  1  0
  1 12  2  0
  3  1  1  0
  3  4  2  0
  4  6  1  0
  5  4  1  0
  7  8  2  0
  8  9  1  0
  8  6  1  0
  9 15  1  0
 10 11  1  0
 10  6  2  0
 12 10  1  0
 13 14  2  0
 14 18  1  0
 15 13  1  0
 15 16  2  0
 16 17  1  0
 18 17  2  0
 19 14  1  0
 19 20  1  0
 20 21  1  0
 21 22  1  0
 22 23  1  0
 23 24  1  0
 23 27  1  0
 24 25  1  0
 25 20  1  0
 26 19  2  0
 28 29  1  0
 28 39  2  0
 30 28  1  0
 30 31  2  0
 31 33  1  0
 32 31  1  0
 34 35  2  0
 35 36  1  0
 35 33  1  0
 36 42  1  0
 37 38  1  0
 37 33  2  0
 39 37  1  0
 40 41  2  0
 41 45  1  0
 42 40  1  0
 42 43  2  0
 43 44  1  0
 45 44  2  0
 46 41  1  0
 46 47  1  0
 47 48  1  0
 48 49  1  0
 49 50  1  0
 50 51  1  0
 50 54  1  0
 51 52  1  0
 52 47  1  0
 53 46  2  0
 55 56  1  0
 56 57  2  0
 56 58  1  0
 58 59  1  0
 59 60  1  0
 60 61  2  0
 60 62  1  0
  3 63  1  0
  9 64  1  0
 12 65  1  0
 16 66  1  0
 17 67  1  0
 18 68  1  0
 20 69  1  0
 21 70  1  0
 21 71  1  0
 22 72  1  0
 22 73  1  0
 24 74  1  0
 24 75  1  0
 25 76  1  0
 25 77  1  0
 27 78  1  0
 27 79  1  0
 27 80  1  0
 30 81  1  0
 36 82  1  0
 39 83  1  0
 43 84  1  0
 44 85  1  0
 45 86  1  0
 47 87  1  0
 48 88  1  0
 48 89  1  0
 49 90  1  0
 49 91  1  0
 51 92  1  0
 51 93  1  0
 52 94  1  0
 52 95  1  0
 54 96  1  0
 54 97  1  0
 54 98  1  0
 55 99  1  0
 58100  1  0
 58101  1  0
 59102  1  0
 59103  1  0
 62104  1  0
M  END
> <Uni-Dock RESULT> 
ENERGY=   -5.379  LOWER_BOUND=    4.618  UPPER_BOUND=    7.895
INTER + INTRA:          -5.379
INTER:                  -5.379
INTRA:                   0.000
UNBOUND:                 0.000

$$$$

     RDKit          3D

104107  0  0  0  0  0  0  0  0999 V2000
   46.5776    9.3449   12.2711 C   0  0  0  0  0  0  0  0  0  0  0  0
   46.1077   10.2605   11.4183 F   0  0  0  0  0  0  0  0  0  0  0  0
   47.4573    9.7331   13.2761 C   0  0  0  0  0  0  0  0  0  0  0  0
   47.9432    8.7723   14.1589 C   0  0  0  0  0  0  0  0  0  0  0  0
   48.7895    9.1693   15.1220 F   0  0  0  0  0  0  0  0  0  0  0  0
   47.5656    7.4310   14.0469 C   0  0  0  0  0  0  0  0  0  0  0  0
   48.3033    5.2682   14.4838 O   0  0  0  0  0  0  0  0  0  0  0  0
   48.1152    6.3870   14.9443 C   0  0  0  0  0  0  0  0  0  0  0  0
   48.3745    6.7809   16.2373 N   0  0  0  0  0  0  0  0  0  0  0  0
   46.6755    7.0731   13.0293 C   0  0  0  0  0  0  0  0  0  0  0  0
   46.2414    5.8114   12.8987 F   0  0  0  0  0  0  0  0  0  0  0  0
   46.1756    8.0240   12.1420 C   0  0  0  0  0  0  0  0  0  0  0  0
   49.0613    6.7133   18.4284 N   0  0  0  0  0  0  0  0  0  0  0  0
   49.5943    6.0562   19.4896 C   0  0  0  0  0  0  0  0  0  0  0  0
   48.9060    6.0177   17.2809 C   0  0  0  0  0  0  0  0  0  0  0  0
   49.2542    4.6792   17.1663 C   0  0  0  0  0  0  0  0  0  0  0  0
   49.8003    4.0236   18.2671 C   0  0  0  0  0  0  0  0  0  0  0  0
   49.9808    4.7215   19.4511 C   0  0  0  0  0  0  0  0  0  0  0  0
   49.7758    6.8280   20.7547 C   0  0  0  0  0  0  0  0  0  0  0  0
   49.0178    8.1434   20.9286 C   0  0  0  0  0  0  0  0  0  0  0  0
   50.0066    9.3179   20.9507 C   0  0  0  0  0  0  0  0  0  0  0  0
   50.3912    9.7036   22.3785 C   0  0  0  0  0  0  0  0  0  0  0  0
   49.2432   10.0820   23.2167 N   0  0  0  0  0  0  0  0  0  0  0  0
   47.9724    9.4790   22.8017 C   0  0  0  0  0  0  0  0  0  0  0  0
   48.1610    8.0870   22.2042 C   0  0  0  0  0  0  0  0  0  0  0  0
   50.5254    6.3871   21.6270 O   0  0  0  0  0  0  0  0  0  0  0  0
   49.1146   11.5279   23.3731 C   0  0  0  0  0  0  0  0  0  0  0  0
   49.1857   10.6363   13.3564 C   0  0  0  0  0  0  0  0  0  0  0  0
   49.3673   11.7812   12.6879 F   0  0  0  0  0  0  0  0  0  0  0  0
   49.2294    9.4290   12.6752 C   0  0  0  0  0  0  0  0  0  0  0  0
   49.0431    8.2408   13.3817 C   0  0  0  0  0  0  0  0  0  0  0  0
   49.1178    7.0996   12.6809 F   0  0  0  0  0  0  0  0  0  0  0  0
   48.8079    8.2393   14.7640 C   0  0  0  0  0  0  0  0  0  0  0  0
   48.3991    5.9294   14.8302 O   0  0  0  0  0  0  0  0  0  0  0  0
   48.6014    6.9466   15.4838 C   0  0  0  0  0  0  0  0  0  0  0  0
   48.6453    6.9989   16.8610 N   0  0  0  0  0  0  0  0  0  0  0  0
   48.7741    9.4771   15.4155 C   0  0  0  0  0  0  0  0  0  0  0  0
   48.5580    9.5507   16.7372 F   0  0  0  0  0  0  0  0  0  0  0  0
   48.9629   10.6731   14.7245 C   0  0  0  0  0  0  0  0  0  0  0  0
   48.5537    6.3411   19.0610 N   0  0  0  0  0  0  0  0  0  0  0  0
   48.4617    5.3884   20.0201 C   0  0  0  0  0  0  0  0  0  0  0  0
   48.5265    5.9423   17.7705 C   0  0  0  0  0  0  0  0  0  0  0  0
   48.4063    4.6082   17.4091 C   0  0  0  0  0  0  0  0  0  0  0  0
   48.3200    3.6417   18.4091 C   0  0  0  0  0  0  0  0  0  0  0  0
   48.3434    4.0333   19.7398 C   0  0  0  0  0  0  0  0  0  0  0  0
   48.4956    5.8358   21.4467 C   0  0  0  0  0  0  0  0  0  0  0  0
   48.5081    7.3192   21.8064 C   0  0  0  0  0  0  0  0  0  0  0  0
   49.8532    7.9820   21.5091 C   0  0  0  0  0  0  0  0  0  0  0  0
   49.7426    9.4842   21.7613 C   0  0  0  0  0  0  0  0  0  0  0  0
   48.7654   10.1481   20.8884 N   0  0  0  0  0  0  0  0  0  0  0  0
   47.7398    9.2589   20.3335 C   0  0  0  0  0  0  0  0  0  0  0  0
   47.3154    8.1201   21.2640 C   0  0  0  0  0  0  0  0  0  0  0  0
   48.5145    4.9815   22.3378 O   0  0  0  0  0  0  0  0  0  0  0  0
   48.1881   11.3191   21.5415 C   0  0  0  0  0  0  0  0  0  0  0  0
   49.1719    8.9048   20.6730 O   0  0  0  0  0  0  0  0  0  0  0  0
   48.1628    8.3946   19.9447 C   0  0  0  0  0  0  0  0  0  0  0  0
   47.0573    8.9080   19.9543 O   0  0  0  0  0  0  0  0  0  0  0  0
   48.5628    7.1731   19.1696 C   0  0  0  0  0  0  0  0  0  0  0  0
   49.5666    7.5181   18.0842 C   0  0  0  0  0  0  0  0  0  0  0  0
   48.9701    8.4483   17.0682 C   0  0  0  0  0  0  0  0  0  0  0  0
   49.3033    9.6036   16.8687 O   0  0  0  0  0  0  0  0  0  0  0  0
   47.9902    7.8758   16.3474 O   0  0  0  0  0  0  0  0  0  0  0  0
   47.7604   10.7715   13.3626 H   0  0  0  0  0  0  0  0  0  0  0  0
   48.2278    7.7448   16.5110 H   0  0  0  0  0  0  0  0  0  0  0  0
   45.4786    7.7322   11.3615 H   0  0  0  0  0  0  0  0  0  0  0  0
   49.1204    4.1231   16.2469 H   0  0  0  0  0  0  0  0  0  0  0  0
   50.0835    2.9758   18.1923 H   0  0  0  0  0  0  0  0  0  0  0  0
   50.4064    4.2356   20.3236 H   0  0  0  0  0  0  0  0  0  0  0  0
   48.3403    8.2965   20.0810 H   0  0  0  0  0  0  0  0  0  0  0  0
   49.5448   10.1853   20.4632 H   0  0  0  0  0  0  0  0  0  0  0  0
   50.9083    9.0836   20.3735 H   0  0  0  0  0  0  0  0  0  0  0  0
   51.1481   10.4994   22.3556 H   0  0  0  0  0  0  0  0  0  0  0  0
   50.8886    8.8486   22.8559 H   0  0  0  0  0  0  0  0  0  0  0  0
   47.3082    9.4149   23.6718 H   0  0  0  0  0  0  0  0  0  0  0  0
   47.4635   10.1074   22.0588 H   0  0  0  0  0  0  0  0  0  0  0  0
   47.1844    7.6526   21.9595 H   0  0  0  0  0  0  0  0  0  0  0  0
   48.6006    7.4248   22.9603 H   0  0  0  0  0  0  0  0  0  0  0  0
   50.0293   11.9569   23.7985 H   0  0  0  0  0  0  0  0  0  0  0  0
   48.3028   11.7674   24.0708 H   0  0  0  0  0  0  0  0  0  0  0  0
   48.9095   12.0275   22.4186 H   0  0  0  0  0  0  0  0  0  0  0  0
   49.4120    9.4061   11.6049 H   0  0  0  0  0  0  0  0  0  0  0  0
   48.7599    7.8914   17.3304 H   0  0  0  0  0  0  0  0  0  0  0  0
   48.9342   11.6219   15.2506 H   0  0  0  0  0  0  0  0  0  0  0  0
   48.3928    4.2896   16.3739 H   0  0  0  0  0  0  0  0  0  0  0  0
   48.2327    2.5917   18.1424 H   0  0  0  0  0  0  0  0  0  0  0  0
   48.2777    3.2967   20.5350 H   0  0  0  0  0  0  0  0  0  0  0  0
   48.3916    7.3308   22.9014 H   0  0  0  0  0  0  0  0  0  0  0  0
   50.1848    7.7999   20.4822 H   0  0  0  0  0  0  0  0  0  0  0  0
   50.6273    7.5547   22.1569 H   0  0  0  0  0  0  0  0  0  0  0  0
   50.7207    9.9532   21.6058 H   0  0  0  0  0  0  0  0  0  0  0  0
   49.4855    9.6306   22.8211 H   0  0  0  0  0  0  0  0  0  0  0  0
   48.1443    8.8397   19.4071 H   0  0  0  0  0  0  0  0  0  0  0  0
   46.8522    9.8235   20.0197 H   0  0  0  0  0  0  0  0  0  0  0  0
   46.5935    7.4737   20.7519 H   0  0  0  0  0  0  0  0  0  0  0  0
   46.7716    8.5544   22.1133 H   0  0  0  0  0  0  0  0  0  0  0  0
   47.5844   11.8952   20.8322 H   0  0  0  0  0  0  0  0  0  0  0  0
   48.9762   11.9915   21.8987 H   0  0  0  0  0  0  0  0  0  0  0  0
   47.5550   11.0458   22.3932 H   0  0  0  0  0  0  0  0  0  0  0  0
   48.7822    9.6963   21.1022 H   0  0  0  0  0  0  0  0  0  0  0  0
   48.9786    6.4403   19.8699 H   0  0  0  0  0  0  0  0  0  0  0  0
   47.6581    6.7251   18.7425 H   0  0  0  0  0  0  0  0  0  0  0  0
   50.4563    8.0000   18.5060 H   0  0  0  0  0  0  0  0  0  0  0  0
   49.9072    6.6140   17.5690 H   0  0  0  0  0  0  0  0  0  0  0  0
   47.6906    8.5898   15.7448 H   0  0  0  0  0  0  0  0  0  0  0  0
  1  2  1  0
  1 12  2  0
  3  1  1  0
  3  4  2  0
  4  6  1  0
  5  4  1  0
  7  8  2  0
  8  9  1  0
  8  6  1  0
  9 15  1  0
 10 11  1  0
 10  6  2  0
 12 10  1  0
 13 14  2  0
 14 18  1  0
 15 13  1  0
 15 16  2  0
 16 17  1  0
 18 17  2  0
 19 14  1  0
 19 20  1  0
 20 21  1  0
 21 22  1  0
 22 23  1  0
 23 24  1  0
 23 27  1  0
 24 25  1  0
 25 20  1  0
 26 19  2  0
 28 29  1  0
 28 39  2  0
 30 28  1  0
 30 31  2  0
 31 33  1  0
 32 31  1  0
 34 35  2  0
 35 36  1  0
 35 33  1  0
 36 42  1  0
 37 38  1  0
 37 33  2  0
 39 37  1  0
 40 41  2  0
 41 45  1  0
 42 40  1  0
 42 43  2  0
 43 44  1  0
 45 44  2  0
 46 41  1  0
 46 47  1  0
 47 48  1  0
 48 49  1  0
 49 50  1  0
 50 51  1  0
 50 54  1  0
 51 52  1  0
 52 47  1  0
 53 46  2  0
 55 56  1  0
 56 57  2  0
 56 58  1  0
 58 59  1  0
 59 60  1  0
 60 61  2  0
 60 62  1  0
  3 63  1  0
  9 64  1  0
 12 65  1  0
 16 66  1  0
 17 67  1  0
 18 68  1  0
 20 69  1  0
 21 70  1  0
 21 71  1  0
 22 72  1  0
 22 73  1  0
 24 74  1  0
 24 75  1  0
 25 76  1  0
 25 77  1  0
 27 78  1  0
 27 79  1  0
 27 80  1  0
 30 81  1  0
 36 82  1  0
 39 83  1  0
 43 84  1  0
 44 85  1  0
 45 86  1  0
 47 87  1  0
 48 88  1  0
 48 89  1  0
 49 90  1  0
 49 91  1  0
 51 92  1  0
 51 93  1  0
 52 94  1  0
 52 95  1  0
 54 96  1  0
 54 97  1  0
 54 98  1  0
 55 99  1  0
 58100  1  0
 58101  1  0
 59102  1  0
 59103  1  0
 62104  1  0
M  END
> <Uni-Dock RESULT> 
ENERGY=   -5.351  LOWER_BOUND=    4.514  UPPER_BOUND=    7.011
INTER + INTRA:          -5.351
INTER:                  -5.351
INTRA:                   0.000
UNBOUND:                 0.000

$$$$

     RDKit          3D

104107  0  0  0  0  0  0  0  0999 V2000
   49.9071    7.8723   12.5143 C   0  0  0  0  0  0  0  0  0  0  0  0
   51.1451    7.3749   12.5943 F   0  0  0  0  0  0  0  0  0  0  0  0
   49.7266    9.2066   12.1655 C   0  0  0  0  0  0  0  0  0  0  0  0
   48.4335    9.7167   12.0863 C   0  0  0  0  0  0  0  0  0  0  0  0
   48.2825   11.0063   11.7464 F   0  0  0  0  0  0  0  0  0  0  0  0
   47.3217    8.9131   12.3555 C   0  0  0  0  0  0  0  0  0  0  0  0
   45.1278    9.0035   13.1244 O   0  0  0  0  0  0  0  0  0  0  0  0
   45.9418    9.4539   12.3284 C   0  0  0  0  0  0  0  0  0  0  0  0
   45.6992   10.4369   11.3961 N   0  0  0  0  0  0  0  0  0  0  0  0
   47.5358    7.5742   12.6982 C   0  0  0  0  0  0  0  0  0  0  0  0
   46.5088    6.7426   12.9237 F   0  0  0  0  0  0  0  0  0  0  0  0
   48.8234    7.0474   12.7756 C   0  0  0  0  0  0  0  0  0  0  0  0
   44.6080   12.0565   10.1864 N   0  0  0  0  0  0  0  0  0  0  0  0
   43.5030   12.7941    9.9094 C   0  0  0  0  0  0  0  0  0  0  0  0
   44.5073   11.1292   11.1636 C   0  0  0  0  0  0  0  0  0  0  0  0
   43.3295   10.9065   11.8629 C   0  0  0  0  0  0  0  0  0  0  0  0
   42.2070   11.6748   11.5634 C   0  0  0  0  0  0  0  0  0  0  0  0
   42.2914   12.6413   10.5733 C   0  0  0  0  0  0  0  0  0  0  0  0
   43.6174   13.8264    8.8367 C   0  0  0  0  0  0  0  0  0  0  0  0
   44.7880   13.7427    7.8579 C   0  0  0  0  0  0  0  0  0  0  0  0
   45.7317   14.9356    8.0679 C   0  0  0  0  0  0  0  0  0  0  0  0
   45.4103   16.0834    7.1116 C   0  0  0  0  0  0  0  0  0  0  0  0
   45.4893   15.7074    5.6916 N   0  0  0  0  0  0  0  0  0  0  0  0
   45.2557   14.2827    5.4340 C   0  0  0  0  0  0  0  0  0  0  0  0
   44.2582   13.6737    6.4159 C   0  0  0  0  0  0  0  0  0  0  0  0
   42.7677   14.7150    8.7628 O   0  0  0  0  0  0  0  0  0  0  0  0
   46.7235   16.1625    5.0582 C   0  0  0  0  0  0  0  0  0  0  0  0
   50.3314   10.9307   12.8520 C   0  0  0  0  0  0  0  0  0  0  0  0
   51.6304   11.1230   13.1097 F   0  0  0  0  0  0  0  0  0  0  0  0
   49.5495   10.2252   13.7545 C   0  0  0  0  0  0  0  0  0  0  0  0
   48.1956   10.0337   13.4789 C   0  0  0  0  0  0  0  0  0  0  0  0
   47.4783    9.3652   14.3941 F   0  0  0  0  0  0  0  0  0  0  0  0
   47.6082   10.5338   12.3080 C   0  0  0  0  0  0  0  0  0  0  0  0
   45.5563    9.4724   12.7209 O   0  0  0  0  0  0  0  0  0  0  0  0
   46.1571   10.2980   12.0423 C   0  0  0  0  0  0  0  0  0  0  0  0
   45.5931   11.0369   11.0239 N   0  0  0  0  0  0  0  0  0  0  0  0
   48.4295   11.2425   11.4243 C   0  0  0  0  0  0  0  0  0  0  0  0
   47.9340   11.7526   10.2872 F   0  0  0  0  0  0  0  0  0  0  0  0
   49.7833   11.4464   11.6874 C   0  0  0  0  0  0  0  0  0  0  0  0
   44.0460   11.8418    9.5274 N   0  0  0  0  0  0  0  0  0  0  0  0
   42.7820   11.9298    9.0471 C   0  0  0  0  0  0  0  0  0  0  0  0
   44.2608   11.0443   10.5965 C   0  0  0  0  0  0  0  0  0  0  0  0
   43.2406   10.3249   11.2019 C   0  0  0  0  0  0  0  0  0  0  0  0
   41.9458   10.4334   10.6987 C   0  0  0  0  0  0  0  0  0  0  0  0
   41.7072   11.2454    9.5995 C   0  0  0  0  0  0  0  0  0  0  0  0
   42.5500   12.8166    7.8655 C   0  0  0  0  0  0  0  0  0  0  0  0
   43.7146   13.4984    7.1522 C   0  0  0  0  0  0  0  0  0  0  0  0
   44.3080   14.6475    7.9674 C   0  0  0  0  0  0  0  0  0  0  0  0
   45.5485   15.1834    7.2559 C   0  0  0  0  0  0  0  0  0  0  0  0
   46.6195   14.1862    7.1277 N   0  0  0  0  0  0  0  0  0  0  0  0
   46.1685   12.7931    7.2068 C   0  0  0  0  0  0  0  0  0  0  0  0
   44.7830   12.5389    6.6081 C   0  0  0  0  0  0  0  0  0  0  0  0
   41.3932   12.9923    7.4716 O   0  0  0  0  0  0  0  0  0  0  0  0
   47.4326   14.4383    5.9419 C   0  0  0  0  0  0  0  0  0  0  0  0
   45.5653   13.9916    7.9078 O   0  0  0  0  0  0  0  0  0  0  0  0
   45.5276   12.6510    8.0106 C   0  0  0  0  0  0  0  0  0  0  0  0
   46.0878   11.9410    7.1935 O   0  0  0  0  0  0  0  0  0  0  0  0
   44.7400   12.1794    9.1982 C   0  0  0  0  0  0  0  0  0  0  0  0
   45.4295   12.5568   10.4969 C   0  0  0  0  0  0  0  0  0  0  0  0
   46.7646   11.8816   10.6195 C   0  0  0  0  0  0  0  0  0  0  0  0
   47.8517   12.4326   10.6134 O   0  0  0  0  0  0  0  0  0  0  0  0
   46.6650   10.5475   10.7530 O   0  0  0  0  0  0  0  0  0  0  0  0
   50.5863    9.8372   11.9637 H   0  0  0  0  0  0  0  0  0  0  0  0
   46.4532   10.7758   10.8112 H   0  0  0  0  0  0  0  0  0  0  0  0
   48.9736    6.0033   13.0353 H   0  0  0  0  0  0  0  0  0  0  0  0
   43.2507   10.1564   12.6398 H   0  0  0  0  0  0  0  0  0  0  0  0
   41.2774   11.5164   12.1061 H   0  0  0  0  0  0  0  0  0  0  0  0
   41.4325   13.2556   10.3215 H   0  0  0  0  0  0  0  0  0  0  0  0
   45.3629   12.8285    8.0436 H   0  0  0  0  0  0  0  0  0  0  0  0
   46.7650   14.6108    7.8947 H   0  0  0  0  0  0  0  0  0  0  0  0
   45.6900   15.2922    9.1034 H   0  0  0  0  0  0  0  0  0  0  0  0
   46.0581   16.9423    7.3336 H   0  0  0  0  0  0  0  0  0  0  0  0
   44.3891   16.4358    7.3097 H   0  0  0  0  0  0  0  0  0  0  0  0
   44.8792   14.1632    4.4112 H   0  0  0  0  0  0  0  0  0  0  0  0
   46.1928   13.7135    5.4965 H   0  0  0  0  0  0  0  0  0  0  0  0
   44.0719   12.6254    6.1538 H   0  0  0  0  0  0  0  0  0  0  0  0
   43.2919   14.1827    6.3130 H   0  0  0  0  0  0  0  0  0  0  0  0
   46.8313   17.2495    5.1505 H   0  0  0  0  0  0  0  0  0  0  0  0
   46.7081   15.9397    3.9843 H   0  0  0  0  0  0  0  0  0  0  0  0
   47.6095   15.6884    5.4975 H   0  0  0  0  0  0  0  0  0  0  0  0
   49.9829    9.8303   14.6687 H   0  0  0  0  0  0  0  0  0  0  0  0
   46.1722   11.6591   10.4692 H   0  0  0  0  0  0  0  0  0  0  0  0
   50.4013   12.0006   10.9885 H   0  0  0  0  0  0  0  0  0  0  0  0
   43.4133    9.6923   12.0641 H   0  0  0  0  0  0  0  0  0  0  0  0
   41.1343    9.8819   11.1663 H   0  0  0  0  0  0  0  0  0  0  0  0
   40.7058   11.3446    9.1913 H   0  0  0  0  0  0  0  0  0  0  0  0
   43.2540   13.9548    6.2621 H   0  0  0  0  0  0  0  0  0  0  0  0
   44.5658   14.3407    8.9857 H   0  0  0  0  0  0  0  0  0  0  0  0
   43.5669   15.4484    8.0715 H   0  0  0  0  0  0  0  0  0  0  0  0
   45.9417   16.0449    7.8073 H   0  0  0  0  0  0  0  0  0  0  0  0
   45.2373   15.5544    6.2679 H   0  0  0  0  0  0  0  0  0  0  0  0
   46.1634   12.5160    8.2655 H   0  0  0  0  0  0  0  0  0  0  0  0
   46.8960   12.1133    6.7443 H   0  0  0  0  0  0  0  0  0  0  0  0
   44.5007   11.4909    6.7608 H   0  0  0  0  0  0  0  0  0  0  0  0
   44.8489   12.6709    5.5200 H   0  0  0  0  0  0  0  0  0  0  0  0
   48.3172   13.7926    5.9391 H   0  0  0  0  0  0  0  0  0  0  0  0
   47.7999   15.4708    5.9361 H   0  0  0  0  0  0  0  0  0  0  0  0
   46.8745   14.2651    5.0149 H   0  0  0  0  0  0  0  0  0  0  0  0
   46.1203   14.1563    7.1157 H   0  0  0  0  0  0  0  0  0  0  0  0
   43.7375   12.6181    9.1443 H   0  0  0  0  0  0  0  0  0  0  0  0
   44.6150   11.0933    9.1188 H   0  0  0  0  0  0  0  0  0  0  0  0
   45.5885   13.6396   10.5611 H   0  0  0  0  0  0  0  0  0  0  0  0
   44.8166   12.2725   11.3586 H   0  0  0  0  0  0  0  0  0  0  0  0
   47.5965   10.2443   10.8083 H   0  0  0  0  0  0  0  0  0  0  0  0
  1  2  1  0
  1 12  2  0
  3  1  1  0
  3  4  2  0
  4  6  1  0
  5  4  1  0
  7  8  2  0
  8  9  1  0
  8  6  1  0
  9 15  1  0
 10 11  1  0
 10  6  2  0
 12 10  1  0
 13 14  2  0
 14 18  1  0
 15 13  1  0
 15 16  2  0
 16 17  1  0
 18 17  2  0
 19 14  1  0
 19 20  1  0
 20 21  1  0
 21 22  1  0
 22 23  1  0
 23 24  1  0
 23 27  1  0
 24 25  1  0
 25 20  1  0
 26 19  2  0
 28 29  1  0
 28 39  2  0
 30 28  1  0
 30 31  2  0
 31 33  1  0
 32 31  1  0
 34 35  2  0
 35 36  1  0
 35 33  1  0
 36 42  1  0
 37 38  1  0
 37 33  2  0
 39 37  1  0
 40 41  2  0
 41 45  1  0
 42 40  1  0
 42 43  2  0
 43 44  1  0
 45 44  2  0
 46 41  1  0
 46 47  1  0
 47 48  1  0
 48 49  1  0
 49 50  1  0
 50 51  1  0
 50 54  1  0
 51 52  1  0
 52 47  1  0
 53 46  2  0
 55 56  1  0
 56 57  2  0
 56 58  1  0
 58 59  1  0
 59 60  1  0
 60 61  2  0
 60 62  1  0
  3 63  1  0
  9 64  1  0
 12 65  1  0
 16 66  1  0
 17 67  1  0
 18 68  1  0
 20 69  1  0
 21 70  1  0
 21 71  1  0
 22 72  1  0
 22 73  1  0
 24 74  1  0
 24 75  1  0
 25 76  1  0
 25 77  1  0
 27 78  1  0
 27 79  1  0
 27 80  1  0
 30 81  1  0
 36 82  1  0
 39 83  1  0
 43 84  1  0
 44 85  1  0
 45 86  1  0
 47 87  1  0
 48 88  1  0
 48 89  1  0
 49 90  1  0
 49 91  1  0
 51 92  1  0
 51 93  1  0
 52 94  1  0
 52 95  1  0
 54 96  1  0
 54 97  1  0
 54 98  1  0
 55 99  1  0
 58100  1  0
 58101  1  0
 59102  1  0
 59103  1  0
 62104  1  0
M  END
> <Uni-Dock RESULT> 
ENERGY=   -5.307  LOWER_BOUND=    3.149  UPPER_BOUND=    7.857
INTER + INTRA:          -5.307
INTER:                  -5.307
INTRA:                   0.000
UNBOUND:                 0.000

$$$$

     RDKit          3D

104107  0  0  0  0  0  0  0  0999 V2000
   49.0040    3.3994   17.1038 C   0  0  0  0  0  0  0  0  0  0  0  0
   49.3313    2.2813   16.4487 F   0  0  0  0  0  0  0  0  0  0  0  0
   49.9243    4.4390   17.1859 C   0  0  0  0  0  0  0  0  0  0  0  0
   49.5754    5.5994   17.8718 C   0  0  0  0  0  0  0  0  0  0  0  0
   50.4780    6.5905   17.9371 F   0  0  0  0  0  0  0  0  0  0  0  0
   48.3233    5.7312   18.4792 C   0  0  0  0  0  0  0  0  0  0  0  0
   47.2326    6.7968   20.2364 O   0  0  0  0  0  0  0  0  0  0  0  0
   47.9560    6.9375   19.2586 C   0  0  0  0  0  0  0  0  0  0  0  0
   48.4775    8.1280   18.8059 N   0  0  0  0  0  0  0  0  0  0  0  0
   47.4179    4.6705   18.3743 C   0  0  0  0  0  0  0  0  0  0  0  0
   46.1862    4.7549   18.8968 F   0  0  0  0  0  0  0  0  0  0  0  0
   47.7498    3.5054   17.6861 C   0  0  0  0  0  0  0  0  0  0  0  0
   48.9819   10.3656   18.6784 N   0  0  0  0  0  0  0  0  0  0  0  0
   48.8975   11.6342   19.1530 C   0  0  0  0  0  0  0  0  0  0  0  0
   48.3127    9.4044   19.3515 C   0  0  0  0  0  0  0  0  0  0  0  0
   47.5485    9.6759   20.4777 C   0  0  0  0  0  0  0  0  0  0  0  0
   47.4757   10.9846   20.9487 C   0  0  0  0  0  0  0  0  0  0  0  0
   48.1652   11.9849   20.2812 C   0  0  0  0  0  0  0  0  0  0  0  0
   49.6459   12.6947   18.4152 C   0  0  0  0  0  0  0  0  0  0  0  0
   50.1210   12.4043   16.9921 C   0  0  0  0  0  0  0  0  0  0  0  0
   51.6549   12.3461   16.9545 C   0  0  0  0  0  0  0  0  0  0  0  0
   52.2602   13.6916   16.5560 C   0  0  0  0  0  0  0  0  0  0  0  0
   51.8081   14.1756   15.2426 N   0  0  0  0  0  0  0  0  0  0  0  0
   50.4921   13.6710   14.8373 C   0  0  0  0  0  0  0  0  0  0  0  0
   49.5605   13.4637   16.0287 C   0  0  0  0  0  0  0  0  0  0  0  0
   49.8586   13.7758   18.9659 O   0  0  0  0  0  0  0  0  0  0  0  0
   52.8007   13.9621   14.1934 C   0  0  0  0  0  0  0  0  0  0  0  0
   51.7548    4.6451   17.8311 C   0  0  0  0  0  0  0  0  0  0  0  0
   52.6963    3.7771   17.4426 F   0  0  0  0  0  0  0  0  0  0  0  0
   50.8596    4.2865   18.8278 C   0  0  0  0  0  0  0  0  0  0  0  0
   49.8844    5.1997   19.2286 C   0  0  0  0  0  0  0  0  0  0  0  0
   49.0580    4.8132   20.2118 F   0  0  0  0  0  0  0  0  0  0  0  0
   49.7854    6.4702   18.6436 C   0  0  0  0  0  0  0  0  0  0  0  0
   47.8020    6.9914   19.7843 O   0  0  0  0  0  0  0  0  0  0  0  0
   48.7198    7.4164   19.0916 C   0  0  0  0  0  0  0  0  0  0  0  0
   48.8474    8.7244   18.6742 N   0  0  0  0  0  0  0  0  0  0  0  0
   50.7087    6.7953   17.6437 C   0  0  0  0  0  0  0  0  0  0  0  0
   50.6756    7.9942   17.0434 F   0  0  0  0  0  0  0  0  0  0  0  0
   51.6920    5.8955   17.2351 C   0  0  0  0  0  0  0  0  0  0  0  0
   48.3934   10.9548   18.3580 N   0  0  0  0  0  0  0  0  0  0  0  0
   47.6668   12.0723   18.6019 C   0  0  0  0  0  0  0  0  0  0  0  0
   48.0237    9.8135   18.9793 C   0  0  0  0  0  0  0  0  0  0  0  0
   46.9386    9.7568   19.8418 C   0  0  0  0  0  0  0  0  0  0  0  0
   46.2073   10.9176   20.0861 C   0  0  0  0  0  0  0  0  0  0  0  0
   46.5709   12.0980   19.4545 C   0  0  0  0  0  0  0  0  0  0  0  0
   48.0829   13.3331   17.9137 C   0  0  0  0  0  0  0  0  0  0  0  0
   49.2066   13.3322   16.8806 C   0  0  0  0  0  0  0  0  0  0  0  0
   50.5859   13.1592   17.5166 C   0  0  0  0  0  0  0  0  0  0  0  0
   51.6364   13.0273   16.4160 C   0  0  0  0  0  0  0  0  0  0  0  0
   51.4366   11.8489   15.5621 N   0  0  0  0  0  0  0  0  0  0  0  0
   50.0666   11.3261   15.5548 C   0  0  0  0  0  0  0  0  0  0  0  0
   48.9782   12.3942   15.6863 C   0  0  0  0  0  0  0  0  0  0  0  0
   47.5006   14.3847   18.1956 O   0  0  0  0  0  0  0  0  0  0  0  0
   51.9463   12.0843   14.2146 C   0  0  0  0  0  0  0  0  0  0  0  0
   50.7777   12.0138   16.7006 O   0  0  0  0  0  0  0  0  0  0  0  0
   49.6923   11.2405   16.5190 C   0  0  0  0  0  0  0  0  0  0  0  0
   49.3330   10.9125   15.4014 O   0  0  0  0  0  0  0  0  0  0  0  0
   49.0210   10.8660   17.8082 C   0  0  0  0  0  0  0  0  0  0  0  0
   49.9021    9.9495   18.6378 C   0  0  0  0  0  0  0  0  0  0  0  0
   50.1485    8.6476   17.9322 C   0  0  0  0  0  0  0  0  0  0  0  0
   51.2195    8.2538   17.5041 O   0  0  0  0  0  0  0  0  0  0  0  0
   49.0367    7.9019   17.8085 O   0  0  0  0  0  0  0  0  0  0  0  0
   50.9008    4.3389   16.7235 H   0  0  0  0  0  0  0  0  0  0  0  0
   49.1057    8.1350   18.0116 H   0  0  0  0  0  0  0  0  0  0  0  0
   47.0330    2.6930   17.6063 H   0  0  0  0  0  0  0  0  0  0  0  0
   47.0069    8.9037   21.0095 H   0  0  0  0  0  0  0  0  0  0  0  0
   46.8853   11.2134   21.8335 H   0  0  0  0  0  0  0  0  0  0  0  0
   48.1275   13.0128   20.6282 H   0  0  0  0  0  0  0  0  0  0  0  0
   49.7443   11.4282   16.6667 H   0  0  0  0  0  0  0  0  0  0  0  0
   51.9678   11.5888   16.2253 H   0  0  0  0  0  0  0  0  0  0  0  0
   52.0601   12.0286   17.9220 H   0  0  0  0  0  0  0  0  0  0  0  0
   53.3560   13.6331   16.6042 H   0  0  0  0  0  0  0  0  0  0  0  0
   51.9800   14.4435   17.3060 H   0  0  0  0  0  0  0  0  0  0  0  0
   50.0373   14.3839   14.1392 H   0  0  0  0  0  0  0  0  0  0  0  0
   50.5851   12.7168   14.3019 H   0  0  0  0  0  0  0  0  0  0  0  0
   48.5739   13.1398   15.6766 H   0  0  0  0  0  0  0  0  0  0  0  0
   49.3966   14.4247   16.5318 H   0  0  0  0  0  0  0  0  0  0  0  0
   53.7496   14.4472   14.4500 H   0  0  0  0  0  0  0  0  0  0  0  0
   52.4648   14.4109   13.2506 H   0  0  0  0  0  0  0  0  0  0  0  0
   52.9926   12.8962   14.0205 H   0  0  0  0  0  0  0  0  0  0  0  0
   50.9186    3.3084   19.2962 H   0  0  0  0  0  0  0  0  0  0  0  0
   49.6062    8.9858   18.0529 H   0  0  0  0  0  0  0  0  0  0  0  0
   52.3989    6.1696   16.4586 H   0  0  0  0  0  0  0  0  0  0  0  0
   46.6486    8.8426   20.3453 H   0  0  0  0  0  0  0  0  0  0  0  0
   45.3589   10.8912   20.7649 H   0  0  0  0  0  0  0  0  0  0  0  0
   46.0151   13.0142   19.6307 H   0  0  0  0  0  0  0  0  0  0  0  0
   49.1844   14.3494   16.4591 H   0  0  0  0  0  0  0  0  0  0  0  0
   50.6286   12.2890   18.1788 H   0  0  0  0  0  0  0  0  0  0  0  0
   50.8154   14.0281   18.1442 H   0  0  0  0  0  0  0  0  0  0  0  0
   52.6324   12.9623   16.8683 H   0  0  0  0  0  0  0  0  0  0  0  0
   51.6186   13.9518   15.8196 H   0  0  0  0  0  0  0  0  0  0  0  0
   49.9866   10.6212   16.3881 H   0  0  0  0  0  0  0  0  0  0  0  0
   49.8772   10.7209   14.6587 H   0  0  0  0  0  0  0  0  0  0  0  0
   47.9934   11.9152   15.7309 H   0  0  0  0  0  0  0  0  0  0  0  0
   48.9727   12.9947   14.7671 H   0  0  0  0  0  0  0  0  0  0  0  0
   51.9386   11.1556   13.6340 H   0  0  0  0  0  0  0  0  0  0  0  0
   52.9881   12.4227   14.2480 H   0  0  0  0  0  0  0  0  0  0  0  0
   51.3566   12.8344   13.6759 H   0  0  0  0  0  0  0  0  0  0  0  0
   51.1222   12.1613   15.7939 H   0  0  0  0  0  0  0  0  0  0  0  0
   48.7864   11.7857   18.3555 H   0  0  0  0  0  0  0  0  0  0  0  0
   48.0645   10.3858   17.5712 H   0  0  0  0  0  0  0  0  0  0  0  0
   50.8734   10.4139   18.8443 H   0  0  0  0  0  0  0  0  0  0  0  0
   49.4376    9.7367   19.6062 H   0  0  0  0  0  0  0  0  0  0  0  0
   49.3394    7.1025   17.3267 H   0  0  0  0  0  0  0  0  0  0  0  0
  1  2  1  0
  1 12  2  0
  3  1  1  0
  3  4  2  0
  4  6  1  0
  5  4  1  0
  7  8  2  0
  8  9  1  0
  8  6  1  0
  9 15  1  0
 10 11  1  0
 10  6  2  0
 12 10  1  0
 13 14  2  0
 14 18  1  0
 15 13  1  0
 15 16  2  0
 16 17  1  0
 18 17  2  0
 19 14  1  0
 19 20  1  0
 20 21  1  0
 21 22  1  0
 22 23  1  0
 23 24  1  0
 23 27  1  0
 24 25  1  0
 25 20  1  0
 26 19  2  0
 28 29  1  0
 28 39  2  0
 30 28  1  0
 30 31  2  0
 31 33  1  0
 32 31  1  0
 34 35  2  0
 35 36  1  0
 35 33  1  0
 36 42  1  0
 37 38  1  0
 37 33  2  0
 39 37  1  0
 40 41  2  0
 41 45  1  0
 42 40  1  0
 42 43  2  0
 43 44  1  0
 45 44  2  0
 46 41  1  0
 46 47  1  0
 47 48  1  0
 48 49  1  0
 49 50  1  0
 50 51  1  0
 50 54  1  0
 51 52  1  0
 52 47  1  0
 53 46  2  0
 55 56  1  0
 56 57  2  0
 56 58  1  0
 58 59  1  0
 59 60  1  0
 60 61  2  0
 60 62  1  0
  3 63  1  0
  9 64  1  0
 12 65  1  0
 16 66  1  0
 17 67  1  0
 18 68  1  0
 20 69  1  0
 21 70  1  0
 21 71  1  0
 22 72  1  0
 22 73  1  0
 24 74  1  0
 24 75  1  0
 25 76  1  0
 25 77  1  0
 27 78  1  0
 27 79  1  0
 27 80  1  0
 30 81  1  0
 36 82  1  0
 39 83  1  0
 43 84  1  0
 44 85  1  0
 45 86  1  0
 47 87  1  0
 48 88  1  0
 48 89  1  0
 49 90  1  0
 49 91  1  0
 51 92  1  0
 51 93  1  0
 52 94  1  0
 52 95  1  0
 54 96  1  0
 54 97  1  0
 54 98  1  0
 55 99  1  0
 58100  1  0
 58101  1  0
 59102  1  0
 59103  1  0
 62104  1  0
M  END
> <Uni-Dock RESULT> 
ENERGY=   -5.261  LOWER_BOUND=    6.476  UPPER_BOUND=    9.206
INTER + INTRA:          -5.261
INTER:                  -5.261
INTRA:                   0.000
UNBOUND:                 0.000

$$$$
