
     RDKit          3D

104107  0  0  0  0  0  0  0  0999 V2000
   48.3655    3.2270   16.9457 C   0  0  0  0  0  0  0  0  0  0  0  0
   47.8818    2.3166   16.0927 F   0  0  0  0  0  0  0  0  0  0  0  0
   49.7035    3.1733   17.3131 C   0  0  0  0  0  0  0  0  0  0  0  0
   50.2003    4.1259   18.1965 C   0  0  0  0  0  0  0  0  0  0  0  0
   51.5039    4.0707   18.5128 F   0  0  0  0  0  0  0  0  0  0  0  0
   49.3785    5.1333   18.7042 C   0  0  0  0  0  0  0  0  0  0  0  0
   50.6260    5.6795   20.5776 O   0  0  0  0  0  0  0  0  0  0  0  0
   49.9199    6.1046   19.6738 C   0  0  0  0  0  0  0  0  0  0  0  0
   49.5731    7.4154   19.4551 N   0  0  0  0  0  0  0  0  0  0  0  0
   48.0401    5.1687   18.3168 C   0  0  0  0  0  0  0  0  0  0  0  0
   47.2136    6.1154   18.7861 F   0  0  0  0  0  0  0  0  0  0  0  0
   47.5252    4.2170   17.4382 C   0  0  0  0  0  0  0  0  0  0  0  0
   49.4261    9.6913   19.7246 N   0  0  0  0  0  0  0  0  0  0  0  0
   49.6787   10.8249   20.4285 C   0  0  0  0  0  0  0  0  0  0  0  0
   49.8973    8.5311   20.2310 C   0  0  0  0  0  0  0  0  0  0  0  0
   50.6190    8.4714   21.4166 C   0  0  0  0  0  0  0  0  0  0  0  0
   50.8516    9.6460   22.1283 C   0  0  0  0  0  0  0  0  0  0  0  0
   50.3689   10.8484   21.6331 C   0  0  0  0  0  0  0  0  0  0  0  0
   49.1777   12.1086   19.8496 C   0  0  0  0  0  0  0  0  0  0  0  0
   48.8265   12.1376   18.3596 C   0  0  0  0  0  0  0  0  0  0  0  0
   48.0912   13.4337   17.9898 C   0  0  0  0  0  0  0  0  0  0  0  0
   47.8555   13.5360   16.4838 C   0  0  0  0  0  0  0  0  0  0  0  0
   49.1128   13.4240   15.7349 N   0  0  0  0  0  0  0  0  0  0  0  0
   49.7877   12.1545   16.0155 C   0  0  0  0  0  0  0  0  0  0  0  0
   50.0953   12.0185   17.5065 C   0  0  0  0  0  0  0  0  0  0  0  0
   49.0674   13.0950   20.5766 O   0  0  0  0  0  0  0  0  0  0  0  0
   48.8737   13.5815   14.3013 C   0  0  0  0  0  0  0  0  0  0  0  0
   52.9775    4.0820   19.1088 C   0  0  0  0  0  0  0  0  0  0  0  0
   53.9975    3.3391   18.6624 F   0  0  0  0  0  0  0  0  0  0  0  0
   52.7459    4.1762   20.4737 C   0  0  0  0  0  0  0  0  0  0  0  0
   51.6818    4.9524   20.9293 C   0  0  0  0  0  0  0  0  0  0  0  0
   51.5001    5.0543   22.2532 F   0  0  0  0  0  0  0  0  0  0  0  0
   50.8521    5.6336   20.0380 C   0  0  0  0  0  0  0  0  0  0  0  0
   49.0678    5.9786   21.4884 O   0  0  0  0  0  0  0  0  0  0  0  0
   49.7155    6.4301   20.5523 C   0  0  0  0  0  0  0  0  0  0  0  0
   49.4919    7.6254   19.9100 N   0  0  0  0  0  0  0  0  0  0  0  0
   51.1101    5.5232   18.6707 C   0  0  0  0  0  0  0  0  0  0  0  0
   50.3390    6.1527   17.7725 F   0  0  0  0  0  0  0  0  0  0  0  0
   52.1697    4.7516   18.1988 C   0  0  0  0  0  0  0  0  0  0  0  0
   48.5508    9.6321   19.3386 N   0  0  0  0  0  0  0  0  0  0  0  0
   47.6185   10.6033   19.5126 C   0  0  0  0  0  0  0  0  0  0  0  0
   48.5069    8.5771   20.1772 C   0  0  0  0  0  0  0  0  0  0  0  0
   47.5691    8.4653   21.1972 C   0  0  0  0  0  0  0  0  0  0  0  0
   46.6196    9.4718   21.3533 C   0  0  0  0  0  0  0  0  0  0  0  0
   46.6378   10.5623   20.4945 C   0  0  0  0  0  0  0  0  0  0  0  0
   47.6835   11.7714   18.5843 C   0  0  0  0  0  0  0  0  0  0  0  0
   48.8650   11.8672   17.6188 C   0  0  0  0  0  0  0  0  0  0  0  0
   49.1705   13.3365   17.2825 C   0  0  0  0  0  0  0  0  0  0  0  0
   48.4833   13.7534   15.9864 C   0  0  0  0  0  0  0  0  0  0  0  0
   48.9871   12.9882   14.8374 N   0  0  0  0  0  0  0  0  0  0  0  0
   49.3072   11.5890   15.1391 C   0  0  0  0  0  0  0  0  0  0  0  0
   48.5743   11.0382   16.3600 C   0  0  0  0  0  0  0  0  0  0  0  0
   46.7867   12.6126   18.6035 O   0  0  0  0  0  0  0  0  0  0  0  0
   48.0812   13.1164   13.7003 C   0  0  0  0  0  0  0  0  0  0  0  0
   47.9474   10.3349   16.8941 O   0  0  0  0  0  0  0  0  0  0  0  0
   48.8925   11.0339   17.5448 C   0  0  0  0  0  0  0  0  0  0  0  0
   49.3353   12.0655   17.0678 O   0  0  0  0  0  0  0  0  0  0  0  0
   49.2614   10.4773   18.8940 C   0  0  0  0  0  0  0  0  0  0  0  0
   48.9756    8.9894   19.0571 C   0  0  0  0  0  0  0  0  0  0  0  0
   49.8344    8.1587   18.1459 C   0  0  0  0  0  0  0  0  0  0  0  0
   50.6901    8.5512   17.3721 O   0  0  0  0  0  0  0  0  0  0  0  0
   49.5785    6.8418   18.2742 O   0  0  0  0  0  0  0  0  0  0  0  0
   50.3545    2.4003   16.9180 H   0  0  0  0  0  0  0  0  0  0  0  0
   48.9815    7.6573   18.6690 H   0  0  0  0  0  0  0  0  0  0  0  0
   46.4800    4.2379   17.1546 H   0  0  0  0  0  0  0  0  0  0  0  0
   50.9953    7.5394   21.8212 H   0  0  0  0  0  0  0  0  0  0  0  0
   51.4107    9.6165   23.0604 H   0  0  0  0  0  0  0  0  0  0  0  0
   50.5404   11.7800   22.1628 H   0  0  0  0  0  0  0  0  0  0  0  0
   48.1499   11.2991   18.1534 H   0  0  0  0  0  0  0  0  0  0  0  0
   47.1292   13.4816   18.5141 H   0  0  0  0  0  0  0  0  0  0  0  0
   48.6646   14.3092   18.3241 H   0  0  0  0  0  0  0  0  0  0  0  0
   47.1462   12.7586   16.1689 H   0  0  0  0  0  0  0  0  0  0  0  0
   47.3858   14.5070   16.2787 H   0  0  0  0  0  0  0  0  0  0  0  0
   49.1821   11.3022   15.6831 H   0  0  0  0  0  0  0  0  0  0  0  0
   50.7376   12.1119   15.4700 H   0  0  0  0  0  0  0  0  0  0  0  0
   50.8118   12.7966   17.8022 H   0  0  0  0  0  0  0  0  0  0  0  0
   50.5946   11.0591   17.6795 H   0  0  0  0  0  0  0  0  0  0  0  0
   49.8180   13.5370   13.7446 H   0  0  0  0  0  0  0  0  0  0  0  0
   48.1989   12.8126   13.9088 H   0  0  0  0  0  0  0  0  0  0  0  0
   48.4386   14.5635   14.0910 H   0  0  0  0  0  0  0  0  0  0  0  0
   53.3855    3.6563   21.1790 H   0  0  0  0  0  0  0  0  0  0  0  0
   50.0537    7.8729   19.1045 H   0  0  0  0  0  0  0  0  0  0  0  0
   52.3554    4.6688   17.1319 H   0  0  0  0  0  0  0  0  0  0  0  0
   47.5474    7.6169   21.8738 H   0  0  0  0  0  0  0  0  0  0  0  0
   45.8748    9.3991   22.1398 H   0  0  0  0  0  0  0  0  0  0  0  0
   45.9089   11.3600   20.5917 H   0  0  0  0  0  0  0  0  0  0  0  0
   49.7575   11.4725   18.1186 H   0  0  0  0  0  0  0  0  0  0  0  0
   50.2552   13.4605   17.1699 H   0  0  0  0  0  0  0  0  0  0  0  0
   48.8767   14.0082   18.0975 H   0  0  0  0  0  0  0  0  0  0  0  0
   47.3982   13.6314   16.1002 H   0  0  0  0  0  0  0  0  0  0  0  0
   48.6714   14.8187   15.8071 H   0  0  0  0  0  0  0  0  0  0  0  0
   50.3865   11.5330   15.3313 H   0  0  0  0  0  0  0  0  0  0  0  0
   49.1323   10.9322   14.2763 H   0  0  0  0  0  0  0  0  0  0  0  0
   48.8803    9.9984   16.5289 H   0  0  0  0  0  0  0  0  0  0  0  0
   47.4971   11.0092   16.1500 H   0  0  0  0  0  0  0  0  0  0  0  0
   47.1199   12.6245   13.8809 H   0  0  0  0  0  0  0  0  0  0  0  0
   47.8901   14.1723   13.4750 H   0  0  0  0  0  0  0  0  0  0  0  0
   48.5324   12.6802   12.8034 H   0  0  0  0  0  0  0  0  0  0  0  0
   47.8173   10.8350   16.0616 H   0  0  0  0  0  0  0  0  0  0  0  0
   50.3307   10.6655   19.0556 H   0  0  0  0  0  0  0  0  0  0  0  0
   48.7000   11.0406   19.6465 H   0  0  0  0  0  0  0  0  0  0  0  0
   47.9227    8.7640   18.8532 H   0  0  0  0  0  0  0  0  0  0  0  0
   49.2039    8.6955   20.0887 H   0  0  0  0  0  0  0  0  0  0  0  0
   50.1937    6.4218   17.6377 H   0  0  0  0  0  0  0  0  0  0  0  0
  1  2  1  0
  1 12  2  0
  3  1  1  0
  3  4  2  0
  4  6  1  0
  5  4  1  0
  7  8  2  0
  8  9  1  0
  8  6  1  0
  9 15  1  0
 10 11  1  0
 10  6  2  0
 12 10  1  0
 13 14  2  0
 14 18  1  0
 15 13  1  0
 15 16  2  0
 16 17  1  0
 18 17  2  0
 19 14  1  0
 19 20  1  0
 20 21  1  0
 21 22  1  0
 22 23  1  0
 23 24  1  0
 23 27  1  0
 24 25  1  0
 25 20  1  0
 26 19  2  0
 28 29  1  0
 28 39  2  0
 30 28  1  0
 30 31  2  0
 31 33  1  0
 32 31  1  0
 34 35  2  0
 35 36  1  0
 35 33  1  0
 36 42  1  0
 37 38  1  0
 37 33  2  0
 39 37  1  0
 40 41  2  0
 41 45  1  0
 42 40  1  0
 42 43  2  0
 43 44  1  0
 45 44  2  0
 46 41  1  0
 46 47  1  0
 47 48  1  0
 48 49  1  0
 49 50  1  0
 50 51  1  0
 50 54  1  0
 51 52  1  0
 52 47  1  0
 53 46  2  0
 55 56  1  0
 56 57  2  0
 56 58  1  0
 58 59  1  0
 59 60  1  0
 60 61  2  0
 60 62  1  0
  3 63  1  0
  9 64  1  0
 12 65  1  0
 16 66  1  0
 17 67  1  0
 18 68  1  0
 20 69  1  0
 21 70  1  0
 21 71  1  0
 22 72  1  0
 22 73  1  0
 24 74  1  0
 24 75  1  0
 25 76  1  0
 25 77  1  0
 27 78  1  0
 27 79  1  0
 27 80  1  0
 30 81  1  0
 36 82  1  0
 39 83  1  0
 43 84  1  0
 44 85  1  0
 45 86  1  0
 47 87  1  0
 48 88  1  0
 48 89  1  0
 49 90  1  0
 49 91  1  0
 51 92  1  0
 51 93  1  0
 52 94  1  0
 52 95  1  0
 54 96  1  0
 54 97  1  0
 54 98  1  0
 55 99  1  0
 58100  1  0
 58101  1  0
 59102  1  0
 59103  1  0
 62104  1  0
M  END
> <Uni-Dock RESULT> 
ENERGY=   -5.576  LOWER_BOUND=    0.000  UPPER_BOUND=    0.000
INTER + INTRA:          -5.576
INTER:                  -5.576
INTRA:                   0.000
UNBOUND:                 0.000

$$$$

     RDKit          3D

104107  0  0  0  0  0  0  0  0999 V2000
   44.8992    8.4817   11.9475 C   0  0  0  0  0  0  0  0  0  0  0  0
   43.8025    8.7933   11.2470 F   0  0  0  0  0  0  0  0  0  0  0  0
   45.1427    7.1551   12.2777 C   0  0  0  0  0  0  0  0  0  0  0  0
   46.2871    6.8381   13.0018 C   0  0  0  0  0  0  0  0  0  0  0  0
   46.5155    5.5454   13.2827 F   0  0  0  0  0  0  0  0  0  0  0  0
   47.1915    7.8291   13.3868 C   0  0  0  0  0  0  0  0  0  0  0  0
   48.2201    6.6956   15.1251 O   0  0  0  0  0  0  0  0  0  0  0  0
   48.3748    7.4714   14.1922 C   0  0  0  0  0  0  0  0  0  0  0  0
   49.5553    8.0541   13.8011 N   0  0  0  0  0  0  0  0  0  0  0  0
   46.9273    9.1528   13.0394 C   0  0  0  0  0  0  0  0  0  0  0  0
   47.7662   10.1373   13.3951 F   0  0  0  0  0  0  0  0  0  0  0  0
   45.7811    9.4875   12.3204 C   0  0  0  0  0  0  0  0  0  0  0  0
   51.7814    8.6159   13.7503 N   0  0  0  0  0  0  0  0  0  0  0  0
   53.0318    8.5730   14.2787 C   0  0  0  0  0  0  0  0  0  0  0  0
   50.8116    7.9374   14.4010 C   0  0  0  0  0  0  0  0  0  0  0  0
   51.0559    7.2121   15.5606 C   0  0  0  0  0  0  0  0  0  0  0  0
   52.3436    7.1965   16.0915 C   0  0  0  0  0  0  0  0  0  0  0  0
   53.3540    7.8940   15.4462 C   0  0  0  0  0  0  0  0  0  0  0  0
   54.1059    9.3038   13.5396 C   0  0  0  0  0  0  0  0  0  0  0  0
   53.8549    9.6605   12.0719 C   0  0  0  0  0  0  0  0  0  0  0  0
   54.9288   10.6230   11.5452 C   0  0  0  0  0  0  0  0  0  0  0  0
   54.7677   10.8797   10.0478 C   0  0  0  0  0  0  0  0  0  0  0  0
   54.7785    9.6263    9.2841 N   0  0  0  0  0  0  0  0  0  0  0  0
   53.7065    8.7285    9.7207 C   0  0  0  0  0  0  0  0  0  0  0  0
   53.8457    8.3950   11.2059 C   0  0  0  0  0  0  0  0  0  0  0  0
   55.1506    9.5906   14.1228 O   0  0  0  0  0  0  0  0  0  0  0  0
   54.6809    9.8962    7.8507 C   0  0  0  0  0  0  0  0  0  0  0  0
   46.8799    4.0965   13.8258 C   0  0  0  0  0  0  0  0  0  0  0  0
   46.2776    2.9592   13.4580 F   0  0  0  0  0  0  0  0  0  0  0  0
   47.1270    4.3358   15.1701 C   0  0  0  0  0  0  0  0  0  0  0  0
   47.7551    5.5226   15.5436 C   0  0  0  0  0  0  0  0  0  0  0  0
   48.0127    5.7145   16.8448 F   0  0  0  0  0  0  0  0  0  0  0  0
   48.1383    6.4670   14.5907 C   0  0  0  0  0  0  0  0  0  0  0  0
   48.3603    8.2784   16.0316 O   0  0  0  0  0  0  0  0  0  0  0  0
   48.7814    7.7285   15.0217 C   0  0  0  0  0  0  0  0  0  0  0  0
   49.8107    8.1707   14.2240 N   0  0  0  0  0  0  0  0  0  0  0  0
   47.8799    6.1988   13.2456 C   0  0  0  0  0  0  0  0  0  0  0  0
   48.2224    7.0761   12.2913 F   0  0  0  0  0  0  0  0  0  0  0  0
   47.2532    5.0174   12.8554 C   0  0  0  0  0  0  0  0  0  0  0  0
   51.5094    9.4670   13.4034 N   0  0  0  0  0  0  0  0  0  0  0  0
   52.3103   10.5612   13.4668 C   0  0  0  0  0  0  0  0  0  0  0  0
   50.5965    9.3128   14.3838 C   0  0  0  0  0  0  0  0  0  0  0  0
   50.4653   10.2098   15.4376 C   0  0  0  0  0  0  0  0  0  0  0  0
   51.2948   11.3275   15.4787 C   0  0  0  0  0  0  0  0  0  0  0  0
   52.2346   11.5136   14.4741 C   0  0  0  0  0  0  0  0  0  0  0  0
   53.3240   10.7158   12.3810 C   0  0  0  0  0  0  0  0  0  0  0  0
   53.4917    9.5760   11.3760 C   0  0  0  0  0  0  0  0  0  0  0  0
   54.9276    9.5472   10.8261 C   0  0  0  0  0  0  0  0  0  0  0  0
   55.0211   10.3046    9.5056 C   0  0  0  0  0  0  0  0  0  0  0  0
   54.2019    9.6734    8.4615 N   0  0  0  0  0  0  0  0  0  0  0  0
   52.9425    9.1004    8.9482 C   0  0  0  0  0  0  0  0  0  0  0  0
   52.4505    9.7145   10.2566 C   0  0  0  0  0  0  0  0  0  0  0  0
   53.9824   11.7519   12.3084 O   0  0  0  0  0  0  0  0  0  0  0  0
   53.9978   10.5921    7.3460 C   0  0  0  0  0  0  0  0  0  0  0  0
   51.7300   10.1993   10.9038 O   0  0  0  0  0  0  0  0  0  0  0  0
   52.6754    9.3961   11.4198 C   0  0  0  0  0  0  0  0  0  0  0  0
   53.6901    9.1525   10.7884 O   0  0  0  0  0  0  0  0  0  0  0  0
   52.3961    8.9256   12.8223 C   0  0  0  0  0  0  0  0  0  0  0  0
   50.9205    8.9324   13.2029 C   0  0  0  0  0  0  0  0  0  0  0  0
   50.1363    7.9393   12.3925 C   0  0  0  0  0  0  0  0  0  0  0  0
   50.5613    7.1736   11.5452 O   0  0  0  0  0  0  0  0  0  0  0  0
   48.8275    7.9483   12.7136 O   0  0  0  0  0  0  0  0  0  0  0  0
   44.4517    6.3746   11.9761 H   0  0  0  0  0  0  0  0  0  0  0  0
   49.5696    8.6833   13.0071 H   0  0  0  0  0  0  0  0  0  0  0  0
   45.5709   10.5199   12.0689 H   0  0  0  0  0  0  0  0  0  0  0  0
   50.2761    6.6693   16.0812 H   0  0  0  0  0  0  0  0  0  0  0  0
   52.5511    6.6377   17.0008 H   0  0  0  0  0  0  0  0  0  0  0  0
   54.3680    7.8945   15.8332 H   0  0  0  0  0  0  0  0  0  0  0  0
   52.8868   10.1723   12.0072 H   0  0  0  0  0  0  0  0  0  0  0  0
   54.8769   11.5753   12.0866 H   0  0  0  0  0  0  0  0  0  0  0  0
   55.9328   10.2190   11.7346 H   0  0  0  0  0  0  0  0  0  0  0  0
   53.8374   11.4353    9.8679 H   0  0  0  0  0  0  0  0  0  0  0  0
   55.5975   11.5208    9.7219 H   0  0  0  0  0  0  0  0  0  0  0  0
   52.7196    9.1685    9.5309 H   0  0  0  0  0  0  0  0  0  0  0  0
   53.7583    7.7892    9.1579 H   0  0  0  0  0  0  0  0  0  0  0  0
   54.7753    7.8325   11.3664 H   0  0  0  0  0  0  0  0  0  0  0  0
   53.0280    7.7271   11.4975 H   0  0  0  0  0  0  0  0  0  0  0  0
   54.7282    8.9621    7.2772 H   0  0  0  0  0  0  0  0  0  0  0  0
   53.7538   10.4198    7.5917 H   0  0  0  0  0  0  0  0  0  0  0  0
   55.5268   10.5052    7.5170 H   0  0  0  0  0  0  0  0  0  0  0  0
   46.8393    3.6088   15.9220 H   0  0  0  0  0  0  0  0  0  0  0  0
   50.0368    7.6673   13.3748 H   0  0  0  0  0  0  0  0  0  0  0  0
   47.0519    4.8240   11.8057 H   0  0  0  0  0  0  0  0  0  0  0  0
   49.7340   10.0724   16.2278 H   0  0  0  0  0  0  0  0  0  0  0  0
   51.2028   12.0431   16.2900 H   0  0  0  0  0  0  0  0  0  0  0  0
   52.8925   12.3763   14.4798 H   0  0  0  0  0  0  0  0  0  0  0  0
   53.3419    8.6241   11.8991 H   0  0  0  0  0  0  0  0  0  0  0  0
   55.2286    8.5043   10.6640 H   0  0  0  0  0  0  0  0  0  0  0  0
   55.6456    9.9561   11.5464 H   0  0  0  0  0  0  0  0  0  0  0  0
   54.7222   11.3483    9.6687 H   0  0  0  0  0  0  0  0  0  0  0  0
   56.0656   10.3163    9.1718 H   0  0  0  0  0  0  0  0  0  0  0  0
   53.1116    8.0284    9.1134 H   0  0  0  0  0  0  0  0  0  0  0  0
   52.1471    9.1551    8.1928 H   0  0  0  0  0  0  0  0  0  0  0  0
   51.5190    9.2220   10.5615 H   0  0  0  0  0  0  0  0  0  0  0  0
   52.1966   10.7689   10.0858 H   0  0  0  0  0  0  0  0  0  0  0  0
   53.3713   11.4459    7.6237 H   0  0  0  0  0  0  0  0  0  0  0  0
   54.9578   10.9750    6.9795 H   0  0  0  0  0  0  0  0  0  0  0  0
   53.5256   10.0722    6.5064 H   0  0  0  0  0  0  0  0  0  0  0  0
   52.0725   10.4225   10.0133 H   0  0  0  0  0  0  0  0  0  0  0  0
   52.7963    7.9085   12.9229 H   0  0  0  0  0  0  0  0  0  0  0  0
   52.9511    9.5779   13.5043 H   0  0  0  0  0  0  0  0  0  0  0  0
   50.4808    9.9268   13.0652 H   0  0  0  0  0  0  0  0  0  0  0  0
   50.8252    8.6498   14.2582 H   0  0  0  0  0  0  0  0  0  0  0  0
   48.4384    7.2690   12.1243 H   0  0  0  0  0  0  0  0  0  0  0  0
  1  2  1  0
  1 12  2  0
  3  1  1  0
  3  4  2  0
  4  6  1  0
  5  4  1  0
  7  8  2  0
  8  9  1  0
  8  6  1  0
  9 15  1  0
 10 11  1  0
 10  6  2  0
 12 10  1  0
 13 14  2  0
 14 18  1  0
 15 13  1  0
 15 16  2  0
 16 17  1  0
 18 17  2  0
 19 14  1  0
 19 20  1  0
 20 21  1  0
 21 22  1  0
 22 23  1  0
 23 24  1  0
 23 27  1  0
 24 25  1  0
 25 20  1  0
 26 19  2  0
 28 29  1  0
 28 39  2  0
 30 28  1  0
 30 31  2  0
 31 33  1  0
 32 31  1  0
 34 35  2  0
 35 36  1  0
 35 33  1  0
 36 42  1  0
 37 38  1  0
 37 33  2  0
 39 37  1  0
 40 41  2  0
 41 45  1  0
 42 40  1  0
 42 43  2  0
 43 44  1  0
 45 44  2  0
 46 41  1  0
 46 47  1  0
 47 48  1  0
 48 49  1  0
 49 50  1  0
 50 51  1  0
 50 54  1  0
 51 52  1  0
 52 47  1  0
 53 46  2  0
 55 56  1  0
 56 57  2  0
 56 58  1  0
 58 59  1  0
 59 60  1  0
 60 61  2  0
 60 62  1  0
  3 63  1  0
  9 64  1  0
 12 65  1  0
 16 66  1  0
 17 67  1  0
 18 68  1  0
 20 69  1  0
 21 70  1  0
 21 71  1  0
 22 72  1  0
 22 73  1  0
 24 74  1  0
 24 75  1  0
 25 76  1  0
 25 77  1  0
 27 78  1  0
 27 79  1  0
 27 80  1  0
 30 81  1  0
 36 82  1  0
 39 83  1  0
 43 84  1  0
 44 85  1  0
 45 86  1  0
 47 87  1  0
 48 88  1  0
 48 89  1  0
 49 90  1  0
 49 91  1  0
 51 92  1  0
 51 93  1  0
 52 94  1  0
 52 95  1  0
 54 96  1  0
 54 97  1  0
 54 98  1  0
 55 99  1  0
 58100  1  0
 58101  1  0
 59102  1  0
 59103  1  0
 62104  1  0
M  END
> <Uni-Dock RESULT> 
ENERGY=   -5.186  LOWER_BOUND=    5.496  UPPER_BOUND=    7.553
INTER + INTRA:          -5.186
INTER:                  -5.186
INTRA:                   0.000
UNBOUND:                 0.000

$$$$

     RDKit          3D

104107  0  0  0  0  0  0  0  0999 V2000
   49.3027    8.2764   14.2742 C   0  0  0  0  0  0  0  0  0  0  0  0
   49.5879    8.3391   12.9683 F   0  0  0  0  0  0  0  0  0  0  0  0
   49.6170    7.1261   14.9857 C   0  0  0  0  0  0  0  0  0  0  0  0
   49.3219    7.0699   16.3438 C   0  0  0  0  0  0  0  0  0  0  0  0
   49.6627    5.9588   17.0159 F   0  0  0  0  0  0  0  0  0  0  0  0
   48.7292    8.1523   16.9960 C   0  0  0  0  0  0  0  0  0  0  0  0
   47.8591    7.0179   18.8182 O   0  0  0  0  0  0  0  0  0  0  0  0
   48.3865    8.0500   18.4274 C   0  0  0  0  0  0  0  0  0  0  0  0
   48.7061    9.1449   19.1923 N   0  0  0  0  0  0  0  0  0  0  0  0
   48.4276    9.2975   16.2610 C   0  0  0  0  0  0  0  0  0  0  0  0
   47.8514   10.3580   16.8465 F   0  0  0  0  0  0  0  0  0  0  0  0
   48.7102    9.3666   14.8978 C   0  0  0  0  0  0  0  0  0  0  0  0
   48.9273   10.5241   21.0152 N   0  0  0  0  0  0  0  0  0  0  0  0
   48.7094   10.8090   22.3250 C   0  0  0  0  0  0  0  0  0  0  0  0
   48.4573    9.3454   20.5524 C   0  0  0  0  0  0  0  0  0  0  0  0
   47.7817    8.4404   21.3616 C   0  0  0  0  0  0  0  0  0  0  0  0
   47.5570    8.7626   22.6979 C   0  0  0  0  0  0  0  0  0  0  0  0
   48.0218    9.9719   23.1935 C   0  0  0  0  0  0  0  0  0  0  0  0
   49.2551   12.1027   22.8376 C   0  0  0  0  0  0  0  0  0  0  0  0
   50.3587   12.7894   22.0284 C   0  0  0  0  0  0  0  0  0  0  0  0
   50.6179   14.2125   22.5431 C   0  0  0  0  0  0  0  0  0  0  0  0
   51.8069   14.8586   21.8340 C   0  0  0  0  0  0  0  0  0  0  0  0
   53.0167   14.0368   21.9572 N   0  0  0  0  0  0  0  0  0  0  0  0
   52.8104   12.6995   21.3960 C   0  0  0  0  0  0  0  0  0  0  0  0
   51.6607   11.9827   22.1036 C   0  0  0  0  0  0  0  0  0  0  0  0
   48.8109   12.5713   23.8848 O   0  0  0  0  0  0  0  0  0  0  0  0
   54.1552   14.6985   21.3223 C   0  0  0  0  0  0  0  0  0  0  0  0
   49.8624    4.6818   17.9411 C   0  0  0  0  0  0  0  0  0  0  0  0
   50.5581    3.5877   17.6089 F   0  0  0  0  0  0  0  0  0  0  0  0
   48.6151    4.5455   18.5338 C   0  0  0  0  0  0  0  0  0  0  0  0
   47.8983    5.6904   18.8768 C   0  0  0  0  0  0  0  0  0  0  0  0
   46.7112    5.5316   19.4785 F   0  0  0  0  0  0  0  0  0  0  0  0
   48.4145    6.9641   18.6361 C   0  0  0  0  0  0  0  0  0  0  0  0
   46.4113    8.1355   18.7820 O   0  0  0  0  0  0  0  0  0  0  0  0
   47.6178    8.1603   18.9899 C   0  0  0  0  0  0  0  0  0  0  0  0
   48.3293    9.2076   19.5265 N   0  0  0  0  0  0  0  0  0  0  0  0
   49.6727    7.0715   18.0415 C   0  0  0  0  0  0  0  0  0  0  0  0
   50.2110    8.2719   17.7832 F   0  0  0  0  0  0  0  0  0  0  0  0
   50.4023    5.9371   17.6926 C   0  0  0  0  0  0  0  0  0  0  0  0
   48.8239   11.2604   20.4103 N   0  0  0  0  0  0  0  0  0  0  0  0
   48.4533   12.4956   20.8342 C   0  0  0  0  0  0  0  0  0  0  0  0
   47.8502   10.4464   19.9545 C   0  0  0  0  0  0  0  0  0  0  0  0
   46.5117   10.8199   19.9212 C   0  0  0  0  0  0  0  0  0  0  0  0
   46.1561   12.0939   20.3568 C   0  0  0  0  0  0  0  0  0  0  0  0
   47.1429   12.9538   20.8196 C   0  0  0  0  0  0  0  0  0  0  0  0
   49.5391   13.3842   21.3461 C   0  0  0  0  0  0  0  0  0  0  0  0
   50.9440   12.8008   21.4986 C   0  0  0  0  0  0  0  0  0  0  0  0
   51.7107   13.5238   22.6186 C   0  0  0  0  0  0  0  0  0  0  0  0
   52.5782   14.6425   22.0513 C   0  0  0  0  0  0  0  0  0  0  0  0
   53.6189   14.1181   21.1559 N   0  0  0  0  0  0  0  0  0  0  0  0
   53.1958   12.9691   20.3484 C   0  0  0  0  0  0  0  0  0  0  0  0
   51.6842   12.8738   20.1558 C   0  0  0  0  0  0  0  0  0  0  0  0
   49.2872   14.5576   21.6142 O   0  0  0  0  0  0  0  0  0  0  0  0
   54.1810   15.1907   20.3412 C   0  0  0  0  0  0  0  0  0  0  0  0
   50.7712   12.7934   19.5789 O   0  0  0  0  0  0  0  0  0  0  0  0
   50.8295   12.3092   20.8308 C   0  0  0  0  0  0  0  0  0  0  0  0
   51.6812   12.7078   21.6076 O   0  0  0  0  0  0  0  0  0  0  0  0
   49.7333   11.3364   21.1747 C   0  0  0  0  0  0  0  0  0  0  0  0
   49.1185   10.6342   19.9700 C   0  0  0  0  0  0  0  0  0  0  0  0
   50.1117    9.7367   19.2875 C   0  0  0  0  0  0  0  0  0  0  0  0
   51.2663    9.5245   19.6146 O   0  0  0  0  0  0  0  0  0  0  0  0
   49.5799    9.1217   18.2126 O   0  0  0  0  0  0  0  0  0  0  0  0
   50.0863    6.2815   14.4918 H   0  0  0  0  0  0  0  0  0  0  0  0
   49.1464    9.9502   18.7631 H   0  0  0  0  0  0  0  0  0  0  0  0
   48.4570   10.2518   14.3273 H   0  0  0  0  0  0  0  0  0  0  0  0
   47.4049    7.4959   20.9877 H   0  0  0  0  0  0  0  0  0  0  0  0
   47.0260    8.0678   23.3440 H   0  0  0  0  0  0  0  0  0  0  0  0
   47.8669   10.2469   24.2320 H   0  0  0  0  0  0  0  0  0  0  0  0
   50.0193   12.8670   20.9881 H   0  0  0  0  0  0  0  0  0  0  0  0
   49.7250   14.8323   22.3975 H   0  0  0  0  0  0  0  0  0  0  0  0
   50.8077   14.2009   23.6251 H   0  0  0  0  0  0  0  0  0  0  0  0
   51.5582   15.0264   20.7773 H   0  0  0  0  0  0  0  0  0  0  0  0
   51.9787   15.8436   22.2879 H   0  0  0  0  0  0  0  0  0  0  0  0
   52.6089   12.7488   20.3188 H   0  0  0  0  0  0  0  0  0  0  0  0
   53.7168   12.0977   21.5309 H   0  0  0  0  0  0  0  0  0  0  0  0
   51.9294   11.8151   23.1553 H   0  0  0  0  0  0  0  0  0  0  0  0
   51.5329   10.9908   21.6572 H   0  0  0  0  0  0  0  0  0  0  0  0
   55.0680   14.1030   21.4481 H   0  0  0  0  0  0  0  0  0  0  0  0
   53.9908   14.8659   20.2520 H   0  0  0  0  0  0  0  0  0  0  0  0
   54.3505   15.6649   21.7975 H   0  0  0  0  0  0  0  0  0  0  0  0
   48.2029    3.5618   18.7316 H   0  0  0  0  0  0  0  0  0  0  0  0
   49.3375    9.1426   19.5981 H   0  0  0  0  0  0  0  0  0  0  0  0
   51.3775    6.0348   17.2243 H   0  0  0  0  0  0  0  0  0  0  0  0
   45.7332   10.1545   19.5617 H   0  0  0  0  0  0  0  0  0  0  0  0
   45.1167   12.4064   20.3320 H   0  0  0  0  0  0  0  0  0  0  0  0
   46.8949   13.9526   21.1631 H   0  0  0  0  0  0  0  0  0  0  0  0
   50.8553   11.7535   21.8108 H   0  0  0  0  0  0  0  0  0  0  0  0
   52.3521   12.8006   23.1386 H   0  0  0  0  0  0  0  0  0  0  0  0
   51.0325   13.9232   23.3815 H   0  0  0  0  0  0  0  0  0  0  0  0
   51.9361   15.3668   21.5332 H   0  0  0  0  0  0  0  0  0  0  0  0
   53.0635   15.1748   22.8781 H   0  0  0  0  0  0  0  0  0  0  0  0
   53.5347   12.0619   20.8652 H   0  0  0  0  0  0  0  0  0  0  0  0
   53.6945   12.9485   19.3700 H   0  0  0  0  0  0  0  0  0  0  0  0
   51.4492   11.9830   19.5605 H   0  0  0  0  0  0  0  0  0  0  0  0
   51.3420   13.7343   19.5660 H   0  0  0  0  0  0  0  0  0  0  0  0
   53.4567   15.5849   19.6210 H   0  0  0  0  0  0  0  0  0  0  0  0
   54.5223   16.0187   20.9738 H   0  0  0  0  0  0  0  0  0  0  0  0
   55.0577   14.8321   19.7925 H   0  0  0  0  0  0  0  0  0  0  0  0
   51.5299   13.4116   19.5310 H   0  0  0  0  0  0  0  0  0  0  0  0
   50.1492   10.5888   21.8624 H   0  0  0  0  0  0  0  0  0  0  0  0
   48.9555   11.8928   21.7079 H   0  0  0  0  0  0  0  0  0  0  0  0
   48.7378   11.3588   19.2413 H   0  0  0  0  0  0  0  0  0  0  0  0
   48.2847   10.0089   20.3114 H   0  0  0  0  0  0  0  0  0  0  0  0
   50.3176    8.5774   17.8669 H   0  0  0  0  0  0  0  0  0  0  0  0
  1  2  1  0
  1 12  2  0
  3  1  1  0
  3  4  2  0
  4  6  1  0
  5  4  1  0
  7  8  2  0
  8  9  1  0
  8  6  1  0
  9 15  1  0
 10 11  1  0
 10  6  2  0
 12 10  1  0
 13 14  2  0
 14 18  1  0
 15 13  1  0
 15 16  2  0
 16 17  1  0
 18 17  2  0
 19 14  1  0
 19 20  1  0
 20 21  1  0
 21 22  1  0
 22 23  1  0
 23 24  1  0
 23 27  1  0
 24 25  1  0
 25 20  1  0
 26 19  2  0
 28 29  1  0
 28 39  2  0
 30 28  1  0
 30 31  2  0
 31 33  1  0
 32 31  1  0
 34 35  2  0
 35 36  1  0
 35 33  1  0
 36 42  1  0
 37 38  1  0
 37 33  2  0
 39 37  1  0
 40 41  2  0
 41 45  1  0
 42 40  1  0
 42 43  2  0
 43 44  1  0
 45 44  2  0
 46 41  1  0
 46 47  1  0
 47 48  1  0
 48 49  1  0
 49 50  1  0
 50 51  1  0
 50 54  1  0
 51 52  1  0
 52 47  1  0
 53 46  2  0
 55 56  1  0
 56 57  2  0
 56 58  1  0
 58 59  1  0
 59 60  1  0
 60 61  2  0
 60 62  1  0
  3 63  1  0
  9 64  1  0
 12 65  1  0
 16 66  1  0
 17 67  1  0
 18 68  1  0
 20 69  1  0
 21 70  1  0
 21 71  1  0
 22 72  1  0
 22 73  1  0
 24 74  1  0
 24 75  1  0
 25 76  1  0
 25 77  1  0
 27 78  1  0
 27 79  1  0
 27 80  1  0
 30 81  1  0
 36 82  1  0
 39 83  1  0
 43 84  1  0
 44 85  1  0
 45 86  1  0
 47 87  1  0
 48 88  1  0
 48 89  1  0
 49 90  1  0
 49 91  1  0
 51 92  1  0
 51 93  1  0
 52 94  1  0
 52 95  1  0
 54 96  1  0
 54 97  1  0
 54 98  1  0
 55 99  1  0
 58100  1  0
 58101  1  0
 59102  1  0
 59103  1  0
 62104  1  0
M  END
> <Uni-Dock RESULT> 
ENERGY=   -5.125  LOWER_BOUND=    2.674  UPPER_BOUND=    4.442
INTER + INTRA:          -5.125
INTER:                  -5.125
INTRA:                   0.000
UNBOUND:                 0.000

$$$$

     RDKit          3D

104107  0  0  0  0  0  0  0  0999 V2000
   45.7447    9.4438   12.1919 C   0  0  0  0  0  0  0  0  0  0  0  0
   44.5753    9.8189   11.6604 F   0  0  0  0  0  0  0  0  0  0  0  0
   45.8586    8.1859   12.7689 C   0  0  0  0  0  0  0  0  0  0  0  0
   47.0784    7.8010   13.3150 C   0  0  0  0  0  0  0  0  0  0  0  0
   47.1716    6.5689   13.8401 F   0  0  0  0  0  0  0  0  0  0  0  0
   48.1830    8.6536   13.2793 C   0  0  0  0  0  0  0  0  0  0  0  0
   49.4024    7.7047   15.0047 O   0  0  0  0  0  0  0  0  0  0  0  0
   49.4528    8.2380   13.9050 C   0  0  0  0  0  0  0  0  0  0  0  0
   50.5855    8.4926   13.1714 N   0  0  0  0  0  0  0  0  0  0  0  0
   48.0448    9.9093   12.6905 C   0  0  0  0  0  0  0  0  0  0  0  0
   49.0786   10.7627   12.6408 F   0  0  0  0  0  0  0  0  0  0  0  0
   46.8270   10.3127   12.1454 C   0  0  0  0  0  0  0  0  0  0  0  0
   52.7991    8.5911   12.5678 N   0  0  0  0  0  0  0  0  0  0  0  0
   54.1167    8.4108   12.8434 C   0  0  0  0  0  0  0  0  0  0  0  0
   51.9143    8.2542   13.5312 C   0  0  0  0  0  0  0  0  0  0  0  0
   52.3071    7.7365   14.7591 C   0  0  0  0  0  0  0  0  0  0  0  0
   53.6652    7.5757   15.0237 C   0  0  0  0  0  0  0  0  0  0  0  0
   54.5931    7.9240   14.0533 C   0  0  0  0  0  0  0  0  0  0  0  0
   55.0894    8.7604   11.7637 C   0  0  0  0  0  0  0  0  0  0  0  0
   54.5653    8.8648   10.3289 C   0  0  0  0  0  0  0  0  0  0  0  0
   55.6206    9.4788    9.3979 C   0  0  0  0  0  0  0  0  0  0  0  0
   55.1615    9.4637    7.9409 C   0  0  0  0  0  0  0  0  0  0  0  0
   54.8124    8.1073    7.5020 N   0  0  0  0  0  0  0  0  0  0  0  0
   53.7479    7.5375    8.3316 C   0  0  0  0  0  0  0  0  0  0  0  0
   54.1718    7.4805    9.7990 C   0  0  0  0  0  0  0  0  0  0  0  0
   56.2702    8.9477   12.0540 O   0  0  0  0  0  0  0  0  0  0  0  0
   54.4309    8.1052    6.0908 C   0  0  0  0  0  0  0  0  0  0  0  0
   47.4323    5.2118   14.6255 C   0  0  0  0  0  0  0  0  0  0  0  0
   46.6009    4.1633   14.6541 F   0  0  0  0  0  0  0  0  0  0  0  0
   48.0125    5.6570   15.8048 C   0  0  0  0  0  0  0  0  0  0  0  0
   48.8774    6.7492   15.7652 C   0  0  0  0  0  0  0  0  0  0  0  0
   49.4508    7.1383   16.9124 F   0  0  0  0  0  0  0  0  0  0  0  0
   49.1680    7.3963   14.5638 C   0  0  0  0  0  0  0  0  0  0  0  0
   49.9780    9.3764   15.4743 O   0  0  0  0  0  0  0  0  0  0  0  0
   50.0715    8.5686   14.5588 C   0  0  0  0  0  0  0  0  0  0  0  0
   50.9450    8.6379   13.4989 N   0  0  0  0  0  0  0  0  0  0  0  0
   48.5725    6.9253   13.3925 C   0  0  0  0  0  0  0  0  0  0  0  0
   48.8137    7.5155   12.2131 F   0  0  0  0  0  0  0  0  0  0  0  0
   47.7059    5.8347   13.4147 C   0  0  0  0  0  0  0  0  0  0  0  0
   52.5837    9.3941   12.0910 N   0  0  0  0  0  0  0  0  0  0  0  0
   53.5304   10.3031   11.7442 C   0  0  0  0  0  0  0  0  0  0  0  0
   51.9063    9.6147   13.2359 C   0  0  0  0  0  0  0  0  0  0  0  0
   52.1532   10.7087   14.0572 C   0  0  0  0  0  0  0  0  0  0  0  0
   53.1258   11.6304   13.6783 C   0  0  0  0  0  0  0  0  0  0  0  0
   53.8283   11.4304   12.4978 C   0  0  0  0  0  0  0  0  0  0  0  0
   54.2808   10.0427   10.4794 C   0  0  0  0  0  0  0  0  0  0  0  0
   54.0444    8.7178    9.7540 C   0  0  0  0  0  0  0  0  0  0  0  0
   55.2964    8.3041    8.9626 C   0  0  0  0  0  0  0  0  0  0  0  0
   55.1966    8.7557    7.5092 C   0  0  0  0  0  0  0  0  0  0  0  0
   54.0766    8.1035    6.8165 N   0  0  0  0  0  0  0  0  0  0  0  0
   52.8912    7.8920    7.6540 C   0  0  0  0  0  0  0  0  0  0  0  0
   52.8072    8.8338    8.8528 C   0  0  0  0  0  0  0  0  0  0  0  0
   55.0508   10.8968   10.0437 O   0  0  0  0  0  0  0  0  0  0  0  0
   53.7611    8.8079    5.5778 C   0  0  0  0  0  0  0  0  0  0  0  0
   52.3332    9.5662    9.4946 O   0  0  0  0  0  0  0  0  0  0  0  0
   53.2423    8.7117    9.9934 C   0  0  0  0  0  0  0  0  0  0  0  0
   54.0386    8.1572    9.2544 O   0  0  0  0  0  0  0  0  0  0  0  0
   53.2243    8.5881   11.4936 C   0  0  0  0  0  0  0  0  0  0  0  0
   51.8923    8.9552   12.1363 C   0  0  0  0  0  0  0  0  0  0  0  0
   50.8060    7.9940   11.7439 C   0  0  0  0  0  0  0  0  0  0  0  0
   50.9084    7.0096   11.0329 O   0  0  0  0  0  0  0  0  0  0  0  0
   49.6211    8.3192   12.2976 O   0  0  0  0  0  0  0  0  0  0  0  0
   45.0095    7.5107   12.7946 H   0  0  0  0  0  0  0  0  0  0  0  0
   50.5109    8.9394   12.2650 H   0  0  0  0  0  0  0  0  0  0  0  0
   46.7197   11.2966   11.7055 H   0  0  0  0  0  0  0  0  0  0  0  0
   51.5954    7.4678   15.5306 H   0  0  0  0  0  0  0  0  0  0  0  0
   53.9900    7.1762   15.9813 H   0  0  0  0  0  0  0  0  0  0  0  0
   55.6574    7.8037   14.2290 H   0  0  0  0  0  0  0  0  0  0  0  0
   53.6945    9.5318   10.3327 H   0  0  0  0  0  0  0  0  0  0  0  0
   55.8349   10.5102    9.7027 H   0  0  0  0  0  0  0  0  0  0  0  0
   56.5703    8.9327    9.4811 H   0  0  0  0  0  0  0  0  0  0  0  0
   54.3071   10.1430    7.8174 H   0  0  0  0  0  0  0  0  0  0  0  0
   55.9801    9.8553    7.3227 H   0  0  0  0  0  0  0  0  0  0  0  0
   52.8198    8.1147    8.2364 H   0  0  0  0  0  0  0  0  0  0  0  0
   53.5306    6.5144    8.0035 H   0  0  0  0  0  0  0  0  0  0  0  0
   55.0200    6.7910    9.9058 H   0  0  0  0  0  0  0  0  0  0  0  0
   53.3530    7.0542   10.3884 H   0  0  0  0  0  0  0  0  0  0  0  0
   54.2076    7.0858    5.7521 H   0  0  0  0  0  0  0  0  0  0  0  0
   53.5569    8.7376    5.8987 H   0  0  0  0  0  0  0  0  0  0  0  0
   55.2586    8.4613    5.4696 H   0  0  0  0  0  0  0  0  0  0  0  0
   47.8000    5.1610   16.7458 H   0  0  0  0  0  0  0  0  0  0  0  0
   50.8944    7.9440   12.7630 H   0  0  0  0  0  0  0  0  0  0  0  0
   47.2440    5.4825   12.4969 H   0  0  0  0  0  0  0  0  0  0  0  0
   51.6096   10.8730   14.9822 H   0  0  0  0  0  0  0  0  0  0  0  0
   53.3282   12.4948   14.3032 H   0  0  0  0  0  0  0  0  0  0  0  0
   54.5900   12.1333   12.1771 H   0  0  0  0  0  0  0  0  0  0  0  0
   53.8791    7.9342   10.5029 H   0  0  0  0  0  0  0  0  0  0  0  0
   55.3951    7.2114    8.9931 H   0  0  0  0  0  0  0  0  0  0  0  0
   56.2122    8.6989    9.4175 H   0  0  0  0  0  0  0  0  0  0  0  0
   55.1002    9.8488    7.4790 H   0  0  0  0  0  0  0  0  0  0  0  0
   56.1271    8.4990    6.9890 H   0  0  0  0  0  0  0  0  0  0  0  0
   52.9334    6.8610    8.0286 H   0  0  0  0  0  0  0  0  0  0  0  0
   51.9613    7.9511    7.0725 H   0  0  0  0  0  0  0  0  0  0  0  0
   51.9077    8.6006    9.4358 H   0  0  0  0  0  0  0  0  0  0  0  0
   52.6796    9.8632    8.4931 H   0  0  0  0  0  0  0  0  0  0  0  0
   53.3476    9.8044    5.7636 H   0  0  0  0  0  0  0  0  0  0  0  0
   54.6577    8.9181    4.9563 H   0  0  0  0  0  0  0  0  0  0  0  0
   53.0381    8.2353    4.9881 H   0  0  0  0  0  0  0  0  0  0  0  0
   52.4924    9.5401    8.5282 H   0  0  0  0  0  0  0  0  0  0  0  0
   53.4823    7.5524   11.7497 H   0  0  0  0  0  0  0  0  0  0  0  0
   54.0105    9.2410   11.8865 H   0  0  0  0  0  0  0  0  0  0  0  0
   51.5845    9.9694   11.8575 H   0  0  0  0  0  0  0  0  0  0  0  0
   51.9999    8.9085   13.2267 H   0  0  0  0  0  0  0  0  0  0  0  0
   49.0119    7.6263   11.9678 H   0  0  0  0  0  0  0  0  0  0  0  0
  1  2  1  0
  1 12  2  0
  3  1  1  0
  3  4  2  0
  4  6  1  0
  5  4  1  0
  7  8  2  0
  8  9  1  0
  8  6  1  0
  9 15  1  0
 10 11  1  0
 10  6  2  0
 12 10  1  0
 13 14  2  0
 14 18  1  0
 15 13  1  0
 15 16  2  0
 16 17  1  0
 18 17  2  0
 19 14  1  0
 19 20  1  0
 20 21  1  0
 21 22  1  0
 22 23  1  0
 23 24  1  0
 23 27  1  0
 24 25  1  0
 25 20  1  0
 26 19  2  0
 28 29  1  0
 28 39  2  0
 30 28  1  0
 30 31  2  0
 31 33  1  0
 32 31  1  0
 34 35  2  0
 35 36  1  0
 35 33  1  0
 36 42  1  0
 37 38  1  0
 37 33  2  0
 39 37  1  0
 40 41  2  0
 41 45  1  0
 42 40  1  0
 42 43  2  0
 43 44  1  0
 45 44  2  0
 46 41  1  0
 46 47  1  0
 47 48  1  0
 48 49  1  0
 49 50  1  0
 50 51  1  0
 50 54  1  0
 51 52  1  0
 52 47  1  0
 53 46  2  0
 55 56  1  0
 56 57  2  0
 56 58  1  0
 58 59  1  0
 59 60  1  0
 60 61  2  0
 60 62  1  0
  3 63  1  0
  9 64  1  0
 12 65  1  0
 16 66  1  0
 17 67  1  0
 18 68  1  0
 20 69  1  0
 21 70  1  0
 21 71  1  0
 22 72  1  0
 22 73  1  0
 24 74  1  0
 24 75  1  0
 25 76  1  0
 25 77  1  0
 27 78  1  0
 27 79  1  0
 27 80  1  0
 30 81  1  0
 36 82  1  0
 39 83  1  0
 43 84  1  0
 44 85  1  0
 45 86  1  0
 47 87  1  0
 48 88  1  0
 48 89  1  0
 49 90  1  0
 49 91  1  0
 51 92  1  0
 51 93  1  0
 52 94  1  0
 52 95  1  0
 54 96  1  0
 54 97  1  0
 54 98  1  0
 55 99  1  0
 58100  1  0
 58101  1  0
 59102  1  0
 59103  1  0
 62104  1  0
M  END
> <Uni-Dock RESULT> 
ENERGY=   -4.863  LOWER_BOUND=    6.452  UPPER_BOUND=    8.730
INTER + INTRA:          -4.863
INTER:                  -4.863
INTRA:                   0.000
UNBOUND:                 0.000

$$$$

     RDKit          3D

104107  0  0  0  0  0  0  0  0999 V2000
   50.1322   14.6911   23.2940 C   0  0  0  0  0  0  0  0  0  0  0  0
   50.6137   15.6888   24.0445 F   0  0  0  0  0  0  0  0  0  0  0  0
   49.9758   14.8808   21.9273 C   0  0  0  0  0  0  0  0  0  0  0  0
   49.4792   13.8377   21.1528 C   0  0  0  0  0  0  0  0  0  0  0  0
   49.3656   14.0357   19.8298 F   0  0  0  0  0  0  0  0  0  0  0  0
   49.1502   12.6091   21.7276 C   0  0  0  0  0  0  0  0  0  0  0  0
   47.7181   11.8344   20.0803 O   0  0  0  0  0  0  0  0  0  0  0  0
   48.5839   11.5342   20.8906 C   0  0  0  0  0  0  0  0  0  0  0  0
   49.1012   10.2806   21.1071 N   0  0  0  0  0  0  0  0  0  0  0  0
   49.3203   12.4418   23.1008 C   0  0  0  0  0  0  0  0  0  0  0  0
   49.0101   11.2799   23.6952 F   0  0  0  0  0  0  0  0  0  0  0  0
   49.8098   13.4798   23.8918 C   0  0  0  0  0  0  0  0  0  0  0  0
   49.4542    8.0196   20.9138 N   0  0  0  0  0  0  0  0  0  0  0  0
   49.1402    6.8069   20.3893 C   0  0  0  0  0  0  0  0  0  0  0  0
   48.7251    9.0791   20.5013 C   0  0  0  0  0  0  0  0  0  0  0  0
   47.6959    8.9634   19.5752 C   0  0  0  0  0  0  0  0  0  0  0  0
   47.3828    7.7062   19.0636 C   0  0  0  0  0  0  0  0  0  0  0  0
   48.1112    6.6017   19.4799 C   0  0  0  0  0  0  0  0  0  0  0  0
   49.9677    5.6426   20.8296 C   0  0  0  0  0  0  0  0  0  0  0  0
   51.3343    5.9278   21.4584 C   0  0  0  0  0  0  0  0  0  0  0  0
   51.9307    4.6590   22.0843 C   0  0  0  0  0  0  0  0  0  0  0  0
   53.3507    4.8983   22.5947 C   0  0  0  0  0  0  0  0  0  0  0  0
   54.2243    5.4092   21.5317 N   0  0  0  0  0  0  0  0  0  0  0  0
   53.7104    6.6647   20.9788 C   0  0  0  0  0  0  0  0  0  0  0  0
   52.3064    6.4737   20.4055 C   0  0  0  0  0  0  0  0  0  0  0  0
   49.5349    4.5018   20.6721 O   0  0  0  0  0  0  0  0  0  0  0  0
   55.5903    5.5772   22.0245 C   0  0  0  0  0  0  0  0  0  0  0  0
   49.0315   14.1297   18.2786 C   0  0  0  0  0  0  0  0  0  0  0  0
   49.4065   15.1250   17.4660 F   0  0  0  0  0  0  0  0  0  0  0  0
   47.7275   13.6580   18.2257 C   0  0  0  0  0  0  0  0  0  0  0  0
   47.3463   12.6210   19.0752 C   0  0  0  0  0  0  0  0  0  0  0  0
   46.0910   12.1609   18.9809 F   0  0  0  0  0  0  0  0  0  0  0  0
   48.2521   12.0523   19.9713 C   0  0  0  0  0  0  0  0  0  0  0  0
   46.6965   11.0527   21.3811 O   0  0  0  0  0  0  0  0  0  0  0  0
   47.8095   10.9688   20.8774 C   0  0  0  0  0  0  0  0  0  0  0  0
   48.7155    9.9525   21.0712 N   0  0  0  0  0  0  0  0  0  0  0  0
   49.5579   12.5445   20.0010 C   0  0  0  0  0  0  0  0  0  0  0  0
   50.4649   12.0371   20.8479 F   0  0  0  0  0  0  0  0  0  0  0  0
   49.9552   13.5805   19.1585 C   0  0  0  0  0  0  0  0  0  0  0  0
   49.6684    8.0218   21.8481 N   0  0  0  0  0  0  0  0  0  0  0  0
   49.6286    6.8923   22.5999 C   0  0  0  0  0  0  0  0  0  0  0  0
   48.5738    8.8092   21.8587 C   0  0  0  0  0  0  0  0  0  0  0  0
   47.4306    8.4985   22.5858 C   0  0  0  0  0  0  0  0  0  0  0  0
   47.4148    7.3368   23.3535 C   0  0  0  0  0  0  0  0  0  0  0  0
   48.5345    6.5163   23.3674 C   0  0  0  0  0  0  0  0  0  0  0  0
   50.8429    6.0233   22.5722 C   0  0  0  0  0  0  0  0  0  0  0  0
   51.9678    6.3776   21.5993 C   0  0  0  0  0  0  0  0  0  0  0  0
   52.7413    5.1148   21.1845 C   0  0  0  0  0  0  0  0  0  0  0  0
   53.9798    4.9239   22.0540 C   0  0  0  0  0  0  0  0  0  0  0  0
   54.9350    6.0277   21.8835 N   0  0  0  0  0  0  0  0  0  0  0  0
   54.3103    7.3402   21.6877 C   0  0  0  0  0  0  0  0  0  0  0  0
   52.8865    7.4327   22.2311 C   0  0  0  0  0  0  0  0  0  0  0  0
   50.9193    5.0626   23.3360 O   0  0  0  0  0  0  0  0  0  0  0  0
   55.9086    6.0343   22.9707 C   0  0  0  0  0  0  0  0  0  0  0  0
   52.0880    7.8607   22.8244 O   0  0  0  0  0  0  0  0  0  0  0  0
   51.8110    7.1948   21.6908 C   0  0  0  0  0  0  0  0  0  0  0  0
   52.6179    6.4078   21.2246 O   0  0  0  0  0  0  0  0  0  0  0  0
   50.4343    7.4505   21.1381 C   0  0  0  0  0  0  0  0  0  0  0  0
   49.8227    8.7778   21.5698 C   0  0  0  0  0  0  0  0  0  0  0  0
   50.5892    9.9455   21.0158 C   0  0  0  0  0  0  0  0  0  0  0  0
   51.5641    9.9129   20.2854 O   0  0  0  0  0  0  0  0  0  0  0  0
   50.0627   11.1238   21.4039 O   0  0  0  0  0  0  0  0  0  0  0  0
   50.2368   15.8284   21.4674 H   0  0  0  0  0  0  0  0  0  0  0  0
   49.8222   10.1451   21.8059 H   0  0  0  0  0  0  0  0  0  0  0  0
   49.9228   13.3508   24.9613 H   0  0  0  0  0  0  0  0  0  0  0  0
   47.1120    9.8148   19.2465 H   0  0  0  0  0  0  0  0  0  0  0  0
   46.5773    7.5972   18.3415 H   0  0  0  0  0  0  0  0  0  0  0  0
   47.8939    5.6110   19.0936 H   0  0  0  0  0  0  0  0  0  0  0  0
   51.1926    6.6616   22.2614 H   0  0  0  0  0  0  0  0  0  0  0  0
   51.2981    4.3161   22.9118 H   0  0  0  0  0  0  0  0  0  0  0  0
   51.9453    3.8400   21.3521 H   0  0  0  0  0  0  0  0  0  0  0  0
   53.3239    5.5955   23.4431 H   0  0  0  0  0  0  0  0  0  0  0  0
   53.7419    3.9436   22.9706 H   0  0  0  0  0  0  0  0  0  0  0  0
   53.6955    7.4555   21.7390 H   0  0  0  0  0  0  0  0  0  0  0  0
   54.3628    7.0057   20.1664 H   0  0  0  0  0  0  0  0  0  0  0  0
   52.3527    5.7818   19.5537 H   0  0  0  0  0  0  0  0  0  0  0  0
   51.9535    7.4303   20.0056 H   0  0  0  0  0  0  0  0  0  0  0  0
   56.2519    5.9219   21.2200 H   0  0  0  0  0  0  0  0  0  0  0  0
   55.6449    6.2917   22.8534 H   0  0  0  0  0  0  0  0  0  0  0  0
   55.9948    4.6194   22.3663 H   0  0  0  0  0  0  0  0  0  0  0  0
   47.0135   14.0868   17.5308 H   0  0  0  0  0  0  0  0  0  0  0  0
   49.6348   10.0154   20.6510 H   0  0  0  0  0  0  0  0  0  0  0  0
   50.9727   13.9587   19.1964 H   0  0  0  0  0  0  0  0  0  0  0  0
   46.5503    9.1334   22.5807 H   0  0  0  0  0  0  0  0  0  0  0  0
   46.5336    7.0807   23.9337 H   0  0  0  0  0  0  0  0  0  0  0  0
   48.5508    5.6064   23.9581 H   0  0  0  0  0  0  0  0  0  0  0  0
   51.5223    6.7822   20.6827 H   0  0  0  0  0  0  0  0  0  0  0  0
   53.0503    5.2119   20.1358 H   0  0  0  0  0  0  0  0  0  0  0  0
   52.1095    4.2201   21.2275 H   0  0  0  0  0  0  0  0  0  0  0  0
   53.6702    4.8246   23.1025 H   0  0  0  0  0  0  0  0  0  0  0  0
   54.4744    3.9864   21.7731 H   0  0  0  0  0  0  0  0  0  0  0  0
   54.2794    7.5313   20.6072 H   0  0  0  0  0  0  0  0  0  0  0  0
   54.9192    8.1519   22.1081 H   0  0  0  0  0  0  0  0  0  0  0  0
   52.4852    8.4336   22.0301 H   0  0  0  0  0  0  0  0  0  0  0  0
   52.9110    7.3272   23.3236 H   0  0  0  0  0  0  0  0  0  0  0  0
   55.4523    6.2919   23.9319 H   0  0  0  0  0  0  0  0  0  0  0  0
   56.3856    5.0519   23.0688 H   0  0  0  0  0  0  0  0  0  0  0  0
   56.7079    6.7523   22.7612 H   0  0  0  0  0  0  0  0  0  0  0  0
   52.9959    7.5704   23.0510 H   0  0  0  0  0  0  0  0  0  0  0  0
   50.4987    7.4151   20.0429 H   0  0  0  0  0  0  0  0  0  0  0  0
   49.7902    6.6286   21.4671 H   0  0  0  0  0  0  0  0  0  0  0  0
   49.7907    8.8622   22.6621 H   0  0  0  0  0  0  0  0  0  0  0  0
   48.7983    8.8387   21.1831 H   0  0  0  0  0  0  0  0  0  0  0  0
   50.6449   11.7894   20.9820 H   0  0  0  0  0  0  0  0  0  0  0  0
  1  2  1  0
  1 12  2  0
  3  1  1  0
  3  4  2  0
  4  6  1  0
  5  4  1  0
  7  8  2  0
  8  9  1  0
  8  6  1  0
  9 15  1  0
 10 11  1  0
 10  6  2  0
 12 10  1  0
 13 14  2  0
 14 18  1  0
 15 13  1  0
 15 16  2  0
 16 17  1  0
 18 17  2  0
 19 14  1  0
 19 20  1  0
 20 21  1  0
 21 22  1  0
 22 23  1  0
 23 24  1  0
 23 27  1  0
 24 25  1  0
 25 20  1  0
 26 19  2  0
 28 29  1  0
 28 39  2  0
 30 28  1  0
 30 31  2  0
 31 33  1  0
 32 31  1  0
 34 35  2  0
 35 36  1  0
 35 33  1  0
 36 42  1  0
 37 38  1  0
 37 33  2  0
 39 37  1  0
 40 41  2  0
 41 45  1  0
 42 40  1  0
 42 43  2  0
 43 44  1  0
 45 44  2  0
 46 41  1  0
 46 47  1  0
 47 48  1  0
 48 49  1  0
 49 50  1  0
 50 51  1  0
 50 54  1  0
 51 52  1  0
 52 47  1  0
 53 46  2  0
 55 56  1  0
 56 57  2  0
 56 58  1  0
 58 59  1  0
 59 60  1  0
 60 61  2  0
 60 62  1  0
  3 63  1  0
  9 64  1  0
 12 65  1  0
 16 66  1  0
 17 67  1  0
 18 68  1  0
 20 69  1  0
 21 70  1  0
 21 71  1  0
 22 72  1  0
 22 73  1  0
 24 74  1  0
 24 75  1  0
 25 76  1  0
 25 77  1  0
 27 78  1  0
 27 79  1  0
 27 80  1  0
 30 81  1  0
 36 82  1  0
 39 83  1  0
 43 84  1  0
 44 85  1  0
 45 86  1  0
 47 87  1  0
 48 88  1  0
 48 89  1  0
 49 90  1  0
 49 91  1  0
 51 92  1  0
 51 93  1  0
 52 94  1  0
 52 95  1  0
 54 96  1  0
 54 97  1  0
 54 98  1  0
 55 99  1  0
 58100  1  0
 58101  1  0
 59102  1  0
 59103  1  0
 62104  1  0
M  END
> <Uni-Dock RESULT> 
ENERGY=   -4.778  LOWER_BOUND=    3.543  UPPER_BOUND=    8.268
INTER + INTRA:          -4.778
INTER:                  -4.778
INTRA:                   0.000
UNBOUND:                 0.000

$$$$

     RDKit          3D

104107  0  0  0  0  0  0  0  0999 V2000
   52.8135    6.2536   17.1171 C   0  0  0  0  0  0  0  0  0  0  0  0
   53.8599    5.8625   17.8538 F   0  0  0  0  0  0  0  0  0  0  0  0
   51.5456    5.7818   17.4299 C   0  0  0  0  0  0  0  0  0  0  0  0
   50.4621    6.1964   16.6627 C   0  0  0  0  0  0  0  0  0  0  0  0
   49.2427    5.7500   17.0036 F   0  0  0  0  0  0  0  0  0  0  0  0
   50.6324    7.0830   15.5982 C   0  0  0  0  0  0  0  0  0  0  0  0
   48.6905    6.5952   14.4339 O   0  0  0  0  0  0  0  0  0  0  0  0
   49.4728    7.4721   14.7731 C   0  0  0  0  0  0  0  0  0  0  0  0
   49.3851    8.8083   14.4681 N   0  0  0  0  0  0  0  0  0  0  0  0
   51.9142    7.5461   15.3069 C   0  0  0  0  0  0  0  0  0  0  0  0
   52.1239    8.3937   14.2885 F   0  0  0  0  0  0  0  0  0  0  0  0
   53.0113    7.1342   16.0616 C   0  0  0  0  0  0  0  0  0  0  0  0
   48.6074   10.7842   13.5934 N   0  0  0  0  0  0  0  0  0  0  0  0
   47.7347   11.4819   12.8214 C   0  0  0  0  0  0  0  0  0  0  0  0
   48.4312    9.4474   13.6720 C   0  0  0  0  0  0  0  0  0  0  0  0
   47.4047    8.7882   13.0071 C   0  0  0  0  0  0  0  0  0  0  0  0
   46.5321    9.5241   12.2088 C   0  0  0  0  0  0  0  0  0  0  0  0
   46.6992   10.8971   12.1047 C   0  0  0  0  0  0  0  0  0  0  0  0
   47.9188   12.9640   12.7596 C   0  0  0  0  0  0  0  0  0  0  0  0
   48.7451   13.6331   13.8612 C   0  0  0  0  0  0  0  0  0  0  0  0
   49.0522   15.0961   13.5108 C   0  0  0  0  0  0  0  0  0  0  0  0
   49.7585   15.8129   14.6604 C   0  0  0  0  0  0  0  0  0  0  0  0
   48.9806   15.7318   15.9023 N   0  0  0  0  0  0  0  0  0  0  0  0
   48.7482   14.3397   16.2943 C   0  0  0  0  0  0  0  0  0  0  0  0
   47.9971   13.5830   15.1990 C   0  0  0  0  0  0  0  0  0  0  0  0
   47.4036   13.5972   11.8392 O   0  0  0  0  0  0  0  0  0  0  0  0
   49.6443   16.4713   16.9745 C   0  0  0  0  0  0  0  0  0  0  0  0
   47.7528    5.2206   17.1672 C   0  0  0  0  0  0  0  0  0  0  0  0
   47.2955    4.5067   18.2029 F   0  0  0  0  0  0  0  0  0  0  0  0
   47.4307    4.8334   15.8742 C   0  0  0  0  0  0  0  0  0  0  0  0
   47.9110    5.5832   14.8020 C   0  0  0  0  0  0  0  0  0  0  0  0
   47.5578    5.2079   13.5648 F   0  0  0  0  0  0  0  0  0  0  0  0
   48.7046    6.7120   15.0089 C   0  0  0  0  0  0  0  0  0  0  0  0
   49.6038    6.8465   12.8689 O   0  0  0  0  0  0  0  0  0  0  0  0
   49.2192    7.4729   13.8484 C   0  0  0  0  0  0  0  0  0  0  0  0
   49.2178    8.8408   13.9899 N   0  0  0  0  0  0  0  0  0  0  0  0
   49.0105    7.0799   16.3201 C   0  0  0  0  0  0  0  0  0  0  0  0
   49.7744    8.1524   16.5730 F   0  0  0  0  0  0  0  0  0  0  0  0
   48.5383    6.3415   17.4030 C   0  0  0  0  0  0  0  0  0  0  0  0
   49.5225   11.0637   13.5368 N   0  0  0  0  0  0  0  0  0  0  0  0
   49.9205   12.0684   12.7154 C   0  0  0  0  0  0  0  0  0  0  0  0
   49.6349    9.8036   13.0700 C   0  0  0  0  0  0  0  0  0  0  0  0
   50.1193    9.5122   11.8000 C   0  0  0  0  0  0  0  0  0  0  0  0
   50.5260   10.5593   10.9769 C   0  0  0  0  0  0  0  0  0  0  0  0
   50.4304   11.8644   11.4403 C   0  0  0  0  0  0  0  0  0  0  0  0
   49.7818   13.4600   13.2397 C   0  0  0  0  0  0  0  0  0  0  0  0
   49.0731   13.6645   14.5788 C   0  0  0  0  0  0  0  0  0  0  0  0
   48.4079   15.0501   14.6321 C   0  0  0  0  0  0  0  0  0  0  0  0
   49.3172   16.0655   15.3163 C   0  0  0  0  0  0  0  0  0  0  0  0
   49.5652   15.7089   16.7203 N   0  0  0  0  0  0  0  0  0  0  0  0
   49.6776   14.2671   16.9649 C   0  0  0  0  0  0  0  0  0  0  0  0
   50.0691   13.4607   15.7289 C   0  0  0  0  0  0  0  0  0  0  0  0
   50.2507   14.3994   12.5994 O   0  0  0  0  0  0  0  0  0  0  0  0
   50.7090   16.4501   17.2422 C   0  0  0  0  0  0  0  0  0  0  0  0
   50.6690   12.7568   15.1654 O   0  0  0  0  0  0  0  0  0  0  0  0
   49.3717   12.9372   14.8659 C   0  0  0  0  0  0  0  0  0  0  0  0
   48.7938   13.9536   15.2131 O   0  0  0  0  0  0  0  0  0  0  0  0
   48.7678   11.8433   14.0263 C   0  0  0  0  0  0  0  0  0  0  0  0
   49.4846   10.5029   14.1342 C   0  0  0  0  0  0  0  0  0  0  0  0
   49.3641    9.9215   15.5146 C   0  0  0  0  0  0  0  0  0  0  0  0
   48.7628   10.3888   16.4659 O   0  0  0  0  0  0  0  0  0  0  0  0
   50.0069    8.7419   15.6224 O   0  0  0  0  0  0  0  0  0  0  0  0
   51.3993    5.0993   18.2607 H   0  0  0  0  0  0  0  0  0  0  0  0
   50.0915    9.4513   14.8059 H   0  0  0  0  0  0  0  0  0  0  0  0
   54.0080    7.4826   15.8196 H   0  0  0  0  0  0  0  0  0  0  0  0
   47.2660    7.7156   13.0711 H   0  0  0  0  0  0  0  0  0  0  0  0
   45.7261    9.0234   11.6780 H   0  0  0  0  0  0  0  0  0  0  0  0
   46.0307   11.4968   11.4954 H   0  0  0  0  0  0  0  0  0  0  0  0
   49.7009   13.1007   13.9401 H   0  0  0  0  0  0  0  0  0  0  0  0
   49.6783   15.1428   12.6117 H   0  0  0  0  0  0  0  0  0  0  0  0
   48.1265   15.6348   13.2661 H   0  0  0  0  0  0  0  0  0  0  0  0
   50.7599   15.3838   14.8015 H   0  0  0  0  0  0  0  0  0  0  0  0
   49.8928   16.8643   14.3737 H   0  0  0  0  0  0  0  0  0  0  0  0
   49.6928   13.8279   16.5168 H   0  0  0  0  0  0  0  0  0  0  0  0
   48.1382   14.3084   17.2046 H   0  0  0  0  0  0  0  0  0  0  0  0
   46.9962   14.0185   15.0774 H   0  0  0  0  0  0  0  0  0  0  0  0
   47.8447   12.5481   15.5236 H   0  0  0  0  0  0  0  0  0  0  0  0
   49.0440   16.4439   17.8924 H   0  0  0  0  0  0  0  0  0  0  0  0
   50.6407   16.0723   17.1955 H   0  0  0  0  0  0  0  0  0  0  0  0
   49.7466   17.5272   16.7054 H   0  0  0  0  0  0  0  0  0  0  0  0
   46.8106    3.9611   15.6978 H   0  0  0  0  0  0  0  0  0  0  0  0
   48.9331    9.2520   14.8706 H   0  0  0  0  0  0  0  0  0  0  0  0
   48.7893    6.6350   18.4182 H   0  0  0  0  0  0  0  0  0  0  0  0
   50.1971    8.4953   11.4288 H   0  0  0  0  0  0  0  0  0  0  0  0
   50.9135   10.3513    9.9843 H   0  0  0  0  0  0  0  0  0  0  0  0
   50.7419   12.6993   10.8214 H   0  0  0  0  0  0  0  0  0  0  0  0
   48.2636   12.9296   14.6614 H   0  0  0  0  0  0  0  0  0  0  0  0
   47.4675   14.9750   15.1929 H   0  0  0  0  0  0  0  0  0  0  0  0
   48.1314   15.4056   13.6327 H   0  0  0  0  0  0  0  0  0  0  0  0
   50.2569   16.1420   14.7538 H   0  0  0  0  0  0  0  0  0  0  0  0
   48.8407   17.0526   15.2848 H   0  0  0  0  0  0  0  0  0  0  0  0
   48.6966   13.9149   17.3091 H   0  0  0  0  0  0  0  0  0  0  0  0
   50.3707   14.0425   17.7867 H   0  0  0  0  0  0  0  0  0  0  0  0
   50.1136   12.3959   15.9888 H   0  0  0  0  0  0  0  0  0  0  0  0
   51.0848   13.7429   15.4223 H   0  0  0  0  0  0  0  0  0  0  0  0
   51.6491   16.1422   16.7732 H   0  0  0  0  0  0  0  0  0  0  0  0
   50.5797   17.5266   17.0787 H   0  0  0  0  0  0  0  0  0  0  0  0
   50.7953   16.3045   18.3236 H   0  0  0  0  0  0  0  0  0  0  0  0
   50.9017   13.5521   15.6883 H   0  0  0  0  0  0  0  0  0  0  0  0
   47.7197   11.7245   14.3301 H   0  0  0  0  0  0  0  0  0  0  0  0
   48.7833   12.1817   12.9852 H   0  0  0  0  0  0  0  0  0  0  0  0
   50.5470   10.6009   13.8834 H   0  0  0  0  0  0  0  0  0  0  0  0
   49.0226    9.7964   13.4342 H   0  0  0  0  0  0  0  0  0  0  0  0
   49.8525    8.4767   16.5530 H   0  0  0  0  0  0  0  0  0  0  0  0
  1  2  1  0
  1 12  2  0
  3  1  1  0
  3  4  2  0
  4  6  1  0
  5  4  1  0
  7  8  2  0
  8  9  1  0
  8  6  1  0
  9 15  1  0
 10 11  1  0
 10  6  2  0
 12 10  1  0
 13 14  2  0
 14 18  1  0
 15 13  1  0
 15 16  2  0
 16 17  1  0
 18 17  2  0
 19 14  1  0
 19 20  1  0
 20 21  1  0
 21 22  1  0
 22 23  1  0
 23 24  1  0
 23 27  1  0
 24 25  1  0
 25 20  1  0
 26 19  2  0
 28 29  1  0
 28 39  2  0
 30 28  1  0
 30 31  2  0
 31 33  1  0
 32 31  1  0
 34 35  2  0
 35 36  1  0
 35 33  1  0
 36 42  1  0
 37 38  1  0
 37 33  2  0
 39 37  1  0
 40 41  2  0
 41 45  1  0
 42 40  1  0
 42 43  2  0
 43 44  1  0
 45 44  2  0
 46 41  1  0
 46 47  1  0
 47 48  1  0
 48 49  1  0
 49 50  1  0
 50 51  1  0
 50 54  1  0
 51 52  1  0
 52 47  1  0
 53 46  2  0
 55 56  1  0
 56 57  2  0
 56 58  1  0
 58 59  1  0
 59 60  1  0
 60 61  2  0
 60 62  1  0
  3 63  1  0
  9 64  1  0
 12 65  1  0
 16 66  1  0
 17 67  1  0
 18 68  1  0
 20 69  1  0
 21 70  1  0
 21 71  1  0
 22 72  1  0
 22 73  1  0
 24 74  1  0
 24 75  1  0
 25 76  1  0
 25 77  1  0
 27 78  1  0
 27 79  1  0
 27 80  1  0
 30 81  1  0
 36 82  1  0
 39 83  1  0
 43 84  1  0
 44 85  1  0
 45 86  1  0
 47 87  1  0
 48 88  1  0
 48 89  1  0
 49 90  1  0
 49 91  1  0
 51 92  1  0
 51 93  1  0
 52 94  1  0
 52 95  1  0
 54 96  1  0
 54 97  1  0
 54 98  1  0
 55 99  1  0
 58100  1  0
 58101  1  0
 59102  1  0
 59103  1  0
 62104  1  0
M  END
> <Uni-Dock RESULT> 
ENERGY=   -4.663  LOWER_BOUND=    3.450  UPPER_BOUND=    6.049
INTER + INTRA:          -4.663
INTER:                  -4.663
INTRA:                   0.000
UNBOUND:                 0.000

$$$$

     RDKit          3D

104107  0  0  0  0  0  0  0  0999 V2000
   44.0494   11.1236    7.1952 C   0  0  0  0  0  0  0  0  0  0  0  0
   43.8359   10.5173    6.0217 F   0  0  0  0  0  0  0  0  0  0  0  0
   43.1474   10.9346    8.2339 C   0  0  0  0  0  0  0  0  0  0  0  0
   43.3784   11.5642    9.4524 C   0  0  0  0  0  0  0  0  0  0  0  0
   42.5080   11.3417   10.4501 F   0  0  0  0  0  0  0  0  0  0  0  0
   44.5034   12.3677    9.6444 C   0  0  0  0  0  0  0  0  0  0  0  0
   43.7344   13.6070   11.4437 O   0  0  0  0  0  0  0  0  0  0  0  0
   44.7013   13.0594   10.9325 C   0  0  0  0  0  0  0  0  0  0  0  0
   45.9767   13.0124   11.4398 N   0  0  0  0  0  0  0  0  0  0  0  0
   45.3965   12.5383    8.5881 C   0  0  0  0  0  0  0  0  0  0  0  0
   46.4867   13.3075    8.7272 F   0  0  0  0  0  0  0  0  0  0  0  0
   45.1753   11.9201    7.3586 C   0  0  0  0  0  0  0  0  0  0  0  0
   47.7643   13.3487   12.8417 N   0  0  0  0  0  0  0  0  0  0  0  0
   48.3221   13.9119   13.9445 C   0  0  0  0  0  0  0  0  0  0  0  0
   46.4612   13.6133   12.6043 C   0  0  0  0  0  0  0  0  0  0  0  0
   45.6977   14.4188   13.4400 C   0  0  0  0  0  0  0  0  0  0  0  0
   46.2968   14.9975   14.5563 C   0  0  0  0  0  0  0  0  0  0  0  0
   47.6365   14.7483   14.8153 C   0  0  0  0  0  0  0  0  0  0  0  0
   49.7571   13.5939   14.2163 C   0  0  0  0  0  0  0  0  0  0  0  0
   50.3626   12.3626   13.5371 C   0  0  0  0  0  0  0  0  0  0  0  0
   51.8877   12.3292   13.7105 C   0  0  0  0  0  0  0  0  0  0  0  0
   52.4883   11.0387   13.1555 C   0  0  0  0  0  0  0  0  0  0  0  0
   51.8733    9.8543   13.7664 N   0  0  0  0  0  0  0  0  0  0  0  0
   50.4263    9.8298   13.5395 C   0  0  0  0  0  0  0  0  0  0  0  0
   49.7621   11.0778   14.1206 C   0  0  0  0  0  0  0  0  0  0  0  0
   50.4021   14.3190   14.9725 O   0  0  0  0  0  0  0  0  0  0  0  0
   52.5002    8.6325   13.2652 C   0  0  0  0  0  0  0  0  0  0  0  0
   41.5203   11.3104   11.6952 C   0  0  0  0  0  0  0  0  0  0  0  0
   40.4723   10.4890   11.8300 F   0  0  0  0  0  0  0  0  0  0  0  0
   41.3765   12.6576   11.9951 C   0  0  0  0  0  0  0  0  0  0  0  0
   42.4735   13.5053   11.8523 C   0  0  0  0  0  0  0  0  0  0  0  0
   42.3175   14.7954   12.1806 F   0  0  0  0  0  0  0  0  0  0  0  0
   43.7075   13.0213   11.4165 C   0  0  0  0  0  0  0  0  0  0  0  0
   44.6260   15.0610   10.7821 O   0  0  0  0  0  0  0  0  0  0  0  0
   44.8467   13.9518   11.2518 C   0  0  0  0  0  0  0  0  0  0  0  0
   46.0702   13.4654   11.6488 N   0  0  0  0  0  0  0  0  0  0  0  0
   43.8242   11.6614   11.1248 C   0  0  0  0  0  0  0  0  0  0  0  0
   44.9861   11.1472   10.6967 F   0  0  0  0  0  0  0  0  0  0  0  0
   42.7376   10.8005   11.2624 C   0  0  0  0  0  0  0  0  0  0  0  0
   48.3183   13.3372   12.0596 N   0  0  0  0  0  0  0  0  0  0  0  0
   49.5639   13.8769   12.0499 C   0  0  0  0  0  0  0  0  0  0  0  0
   47.3069   14.1111   11.6167 C   0  0  0  0  0  0  0  0  0  0  0  0
   47.4952   15.4161   11.1764 C   0  0  0  0  0  0  0  0  0  0  0  0
   48.7828   15.9466   11.1710 C   0  0  0  0  0  0  0  0  0  0  0  0
   49.8417   15.1646   11.6117 C   0  0  0  0  0  0  0  0  0  0  0  0
   50.6743   13.0136   12.5521 C   0  0  0  0  0  0  0  0  0  0  0  0
   50.3199   11.6627   13.1741 C   0  0  0  0  0  0  0  0  0  0  0  0
   51.3755   11.2533   14.2149 C   0  0  0  0  0  0  0  0  0  0  0  0
   52.4258   10.3375   13.5951 C   0  0  0  0  0  0  0  0  0  0  0  0
   51.8359    9.0727   13.1347 N   0  0  0  0  0  0  0  0  0  0  0  0
   50.4855    9.2053   12.5776 C   0  0  0  0  0  0  0  0  0  0  0  0
   50.1633   10.6085   12.0693 C   0  0  0  0  0  0  0  0  0  0  0  0
   51.8379   13.3953   12.4402 O   0  0  0  0  0  0  0  0  0  0  0  0
   52.7458    8.3853   12.2240 C   0  0  0  0  0  0  0  0  0  0  0  0
   49.8376   11.3366   11.3367 O   0  0  0  0  0  0  0  0  0  0  0  0
   49.6741   11.5726   12.6492 C   0  0  0  0  0  0  0  0  0  0  0  0
   50.3463   10.9740   13.4723 O   0  0  0  0  0  0  0  0  0  0  0  0
   48.6836   12.6605   12.9683 C   0  0  0  0  0  0  0  0  0  0  0  0
   47.6467   12.9027   11.8782 C   0  0  0  0  0  0  0  0  0  0  0  0
   46.7416   11.7161   11.7031 C   0  0  0  0  0  0  0  0  0  0  0  0
   46.7557   10.6736   12.3340 O   0  0  0  0  0  0  0  0  0  0  0  0
   45.8296   11.9169   10.7314 O   0  0  0  0  0  0  0  0  0  0  0  0
   42.2739   10.3049    8.0996 H   0  0  0  0  0  0  0  0  0  0  0  0
   46.7053   12.5255   10.9312 H   0  0  0  0  0  0  0  0  0  0  0  0
   45.8626   12.0707    6.5351 H   0  0  0  0  0  0  0  0  0  0  0  0
   44.6527   14.6302   13.2469 H   0  0  0  0  0  0  0  0  0  0  0  0
   45.7149   15.6341   15.2183 H   0  0  0  0  0  0  0  0  0  0  0  0
   48.1282   15.1803   15.6810 H   0  0  0  0  0  0  0  0  0  0  0  0
   50.1498   12.4277   12.4629 H   0  0  0  0  0  0  0  0  0  0  0  0
   52.3415   13.1902   13.2050 H   0  0  0  0  0  0  0  0  0  0  0  0
   52.1557   12.4230   14.7718 H   0  0  0  0  0  0  0  0  0  0  0  0
   52.3697   11.0176   12.0637 H   0  0  0  0  0  0  0  0  0  0  0  0
   53.5661   11.0480   13.3653 H   0  0  0  0  0  0  0  0  0  0  0  0
   50.1945    9.7508   12.4701 H   0  0  0  0  0  0  0  0  0  0  0  0
   49.9891    8.9542   14.0334 H   0  0  0  0  0  0  0  0  0  0  0  0
   49.8821   11.0784   15.2123 H   0  0  0  0  0  0  0  0  0  0  0  0
   48.6848   11.0275   13.9298 H   0  0  0  0  0  0  0  0  0  0  0  0
   52.0676    7.7488   13.7505 H   0  0  0  0  0  0  0  0  0  0  0  0
   52.3884    8.5266   12.1803 H   0  0  0  0  0  0  0  0  0  0  0  0
   53.5680    8.6235   13.5052 H   0  0  0  0  0  0  0  0  0  0  0  0
   40.4247   13.0476   12.3397 H   0  0  0  0  0  0  0  0  0  0  0  0
   46.1478   12.5073   11.9678 H   0  0  0  0  0  0  0  0  0  0  0  0
   42.8403    9.7455   11.0256 H   0  0  0  0  0  0  0  0  0  0  0  0
   46.6735   16.0353   10.8307 H   0  0  0  0  0  0  0  0  0  0  0  0
   48.9510   16.9616   10.8243 H   0  0  0  0  0  0  0  0  0  0  0  0
   50.8554   15.5514   11.6165 H   0  0  0  0  0  0  0  0  0  0  0  0
   49.3734   11.7660   13.7178 H   0  0  0  0  0  0  0  0  0  0  0  0
   50.8799   10.7250   15.0394 H   0  0  0  0  0  0  0  0  0  0  0  0
   51.8579   12.1271   14.6680 H   0  0  0  0  0  0  0  0  0  0  0  0
   52.9228   10.8671   12.7719 H   0  0  0  0  0  0  0  0  0  0  0  0
   53.1937   10.1131   14.3450 H   0  0  0  0  0  0  0  0  0  0  0  0
   49.7748    8.9570   13.3764 H   0  0  0  0  0  0  0  0  0  0  0  0
   50.2953    8.4721   11.7823 H   0  0  0  0  0  0  0  0  0  0  0  0
   49.1350   10.6295   11.6878 H   0  0  0  0  0  0  0  0  0  0  0  0
   50.8113   10.8386   11.2134 H   0  0  0  0  0  0  0  0  0  0  0  0
   52.8668    8.9227   11.2778 H   0  0  0  0  0  0  0  0  0  0  0  0
   53.7353    8.2675   12.6814 H   0  0  0  0  0  0  0  0  0  0  0  0
   52.3777    7.3774   12.0073 H   0  0  0  0  0  0  0  0  0  0  0  0
   50.5149   10.6291   11.3082 H   0  0  0  0  0  0  0  0  0  0  0  0
   48.1766   12.3911   13.9038 H   0  0  0  0  0  0  0  0  0  0  0  0
   49.2509   13.5806   13.1422 H   0  0  0  0  0  0  0  0  0  0  0  0
   48.1262   13.1262   10.9184 H   0  0  0  0  0  0  0  0  0  0  0  0
   47.0227   13.7574   12.1660 H   0  0  0  0  0  0  0  0  0  0  0  0
   45.3134   11.0841   10.7207 H   0  0  0  0  0  0  0  0  0  0  0  0
  1  2  1  0
  1 12  2  0
  3  1  1  0
  3  4  2  0
  4  6  1  0
  5  4  1  0
  7  8  2  0
  8  9  1  0
  8  6  1  0
  9 15  1  0
 10 11  1  0
 10  6  2  0
 12 10  1  0
 13 14  2  0
 14 18  1  0
 15 13  1  0
 15 16  2  0
 16 17  1  0
 18 17  2  0
 19 14  1  0
 19 20  1  0
 20 21  1  0
 21 22  1  0
 22 23  1  0
 23 24  1  0
 23 27  1  0
 24 25  1  0
 25 20  1  0
 26 19  2  0
 28 29  1  0
 28 39  2  0
 30 28  1  0
 30 31  2  0
 31 33  1  0
 32 31  1  0
 34 35  2  0
 35 36  1  0
 35 33  1  0
 36 42  1  0
 37 38  1  0
 37 33  2  0
 39 37  1  0
 40 41  2  0
 41 45  1  0
 42 40  1  0
 42 43  2  0
 43 44  1  0
 45 44  2  0
 46 41  1  0
 46 47  1  0
 47 48  1  0
 48 49  1  0
 49 50  1  0
 50 51  1  0
 50 54  1  0
 51 52  1  0
 52 47  1  0
 53 46  2  0
 55 56  1  0
 56 57  2  0
 56 58  1  0
 58 59  1  0
 59 60  1  0
 60 61  2  0
 60 62  1  0
  3 63  1  0
  9 64  1  0
 12 65  1  0
 16 66  1  0
 17 67  1  0
 18 68  1  0
 20 69  1  0
 21 70  1  0
 21 71  1  0
 22 72  1  0
 22 73  1  0
 24 74  1  0
 24 75  1  0
 25 76  1  0
 25 77  1  0
 27 78  1  0
 27 79  1  0
 27 80  1  0
 30 81  1  0
 36 82  1  0
 39 83  1  0
 43 84  1  0
 44 85  1  0
 45 86  1  0
 47 87  1  0
 48 88  1  0
 48 89  1  0
 49 90  1  0
 49 91  1  0
 51 92  1  0
 51 93  1  0
 52 94  1  0
 52 95  1  0
 54 96  1  0
 54 97  1  0
 54 98  1  0
 55 99  1  0
 58100  1  0
 58101  1  0
 59102  1  0
 59103  1  0
 62104  1  0
M  END
> <Uni-Dock RESULT> 
ENERGY=   -4.601  LOWER_BOUND=    6.873  UPPER_BOUND=   10.261
INTER + INTRA:          -4.601
INTER:                  -4.601
INTRA:                   0.000
UNBOUND:                 0.000

$$$$

     RDKit          3D

104107  0  0  0  0  0  0  0  0999 V2000
   47.1554    4.1925   14.3074 C   0  0  0  0  0  0  0  0  0  0  0  0
   46.6106    3.2303   13.5538 F   0  0  0  0  0  0  0  0  0  0  0  0
   47.3822    3.9549   15.6566 C   0  0  0  0  0  0  0  0  0  0  0  0
   47.9532    4.9581   16.4327 C   0  0  0  0  0  0  0  0  0  0  0  0
   48.1901    4.6935   17.7274 F   0  0  0  0  0  0  0  0  0  0  0  0
   48.3083    6.1861   15.8723 C   0  0  0  0  0  0  0  0  0  0  0  0
   48.3469    7.4486   17.8137 O   0  0  0  0  0  0  0  0  0  0  0  0
   48.8716    7.2486   16.7271 C   0  0  0  0  0  0  0  0  0  0  0  0
   49.9537    7.9154   16.2069 N   0  0  0  0  0  0  0  0  0  0  0  0
   48.0747    6.3988   14.5148 C   0  0  0  0  0  0  0  0  0  0  0  0
   48.3943    7.5666   13.9372 F   0  0  0  0  0  0  0  0  0  0  0  0
   47.4965    5.4063   13.7252 C   0  0  0  0  0  0  0  0  0  0  0  0
   51.6948    9.4002   16.0126 N   0  0  0  0  0  0  0  0  0  0  0  0
   52.4172   10.4537   16.4738 C   0  0  0  0  0  0  0  0  0  0  0  0
   50.6527    8.9878   16.7666 C   0  0  0  0  0  0  0  0  0  0  0  0
   50.3155    9.5929   17.9709 C   0  0  0  0  0  0  0  0  0  0  0  0
   51.0624   10.6817   18.4147 C   0  0  0  0  0  0  0  0  0  0  0  0
   52.1312   11.1295   17.6525 C   0  0  0  0  0  0  0  0  0  0  0  0
   53.5851   10.8885   15.6484 C   0  0  0  0  0  0  0  0  0  0  0  0
   54.1502    9.9006   14.6243 C   0  0  0  0  0  0  0  0  0  0  0  0
   55.1606   10.5863   13.6936 C   0  0  0  0  0  0  0  0  0  0  0  0
   55.8316    9.5836   12.7563 C   0  0  0  0  0  0  0  0  0  0  0  0
   56.4740    8.4963   13.5043 N   0  0  0  0  0  0  0  0  0  0  0  0
   55.5054    7.7792   14.3370 C   0  0  0  0  0  0  0  0  0  0  0  0
   54.8360    8.7261   15.3329 C   0  0  0  0  0  0  0  0  0  0  0  0
   54.0565   12.0124   15.8164 O   0  0  0  0  0  0  0  0  0  0  0  0
   57.1582    7.5797   12.5940 C   0  0  0  0  0  0  0  0  0  0  0  0
   48.4148    4.6150   19.2990 C   0  0  0  0  0  0  0  0  0  0  0  0
   48.3187    3.5040   20.0391 F   0  0  0  0  0  0  0  0  0  0  0  0
   47.8192    5.7868   19.7438 C   0  0  0  0  0  0  0  0  0  0  0  0
   47.9250    6.9389   18.9667 C   0  0  0  0  0  0  0  0  0  0  0  0
   47.3699    8.0655   19.4347 F   0  0  0  0  0  0  0  0  0  0  0  0
   48.6187    6.9316   17.7562 C   0  0  0  0  0  0  0  0  0  0  0  0
   47.6929    8.8693   16.8647 O   0  0  0  0  0  0  0  0  0  0  0  0
   48.6922    8.1656   16.9423 C   0  0  0  0  0  0  0  0  0  0  0  0
   49.9035    8.4036   16.3363 N   0  0  0  0  0  0  0  0  0  0  0  0
   49.2104    5.7397   17.3347 C   0  0  0  0  0  0  0  0  0  0  0  0
   49.8828    5.6779   16.1764 F   0  0  0  0  0  0  0  0  0  0  0  0
   49.1142    4.5794   18.0996 C   0  0  0  0  0  0  0  0  0  0  0  0
   51.5314    9.3942   15.0682 N   0  0  0  0  0  0  0  0  0  0  0  0
   51.9669   10.3896   14.2544 C   0  0  0  0  0  0  0  0  0  0  0  0
   50.2647    9.4784   15.5228 C   0  0  0  0  0  0  0  0  0  0  0  0
   49.4193   10.5345   15.2032 C   0  0  0  0  0  0  0  0  0  0  0  0
   49.8867   11.5417   14.3627 C   0  0  0  0  0  0  0  0  0  0  0  0
   51.1837   11.4705   13.8729 C   0  0  0  0  0  0  0  0  0  0  0  0
   53.3746   10.2904   13.7655 C   0  0  0  0  0  0  0  0  0  0  0  0
   54.2616    9.1782   14.3255 C   0  0  0  0  0  0  0  0  0  0  0  0
   55.7394    9.6035   14.3048 C   0  0  0  0  0  0  0  0  0  0  0  0
   56.4357    9.0943   13.0471 C   0  0  0  0  0  0  0  0  0  0  0  0
   56.4623    7.6257   13.0012 N   0  0  0  0  0  0  0  0  0  0  0  0
   55.2609    6.9840   13.5455 C   0  0  0  0  0  0  0  0  0  0  0  0
   54.0257    7.8814   13.5387 C   0  0  0  0  0  0  0  0  0  0  0  0
   53.7807   11.0853   12.9195 O   0  0  0  0  0  0  0  0  0  0  0  0
   56.7760    7.1614   11.6535 C   0  0  0  0  0  0  0  0  0  0  0  0
   52.9988    8.1365   13.3080 O   0  0  0  0  0  0  0  0  0  0  0  0
   53.6047    8.6629   14.3855 C   0  0  0  0  0  0  0  0  0  0  0  0
   54.8220    8.6953   14.4547 O   0  0  0  0  0  0  0  0  0  0  0  0
   52.6650    9.2531   15.4029 C   0  0  0  0  0  0  0  0  0  0  0  0
   51.2540    8.6792   15.3592 C   0  0  0  0  0  0  0  0  0  0  0  0
   51.2363    7.2265   15.7430 C   0  0  0  0  0  0  0  0  0  0  0  0
   52.1822    6.5386   16.0851 O   0  0  0  0  0  0  0  0  0  0  0  0
   49.9935    6.7075   15.6940 O   0  0  0  0  0  0  0  0  0  0  0  0
   47.1189    3.0010   16.1018 H   0  0  0  0  0  0  0  0  0  0  0  0
   50.3102    7.6644   15.2923 H   0  0  0  0  0  0  0  0  0  0  0  0
   47.3002    5.5832   12.6748 H   0  0  0  0  0  0  0  0  0  0  0  0
   49.4786    9.2607   18.5735 H   0  0  0  0  0  0  0  0  0  0  0  0
   50.8093   11.1698   19.3527 H   0  0  0  0  0  0  0  0  0  0  0  0
   52.7347   11.9714   17.9765 H   0  0  0  0  0  0  0  0  0  0  0  0
   53.3191    9.5387   14.0065 H   0  0  0  0  0  0  0  0  0  0  0  0
   54.6590   11.3609   13.1012 H   0  0  0  0  0  0  0  0  0  0  0  0
   55.9331   11.1031   14.2796 H   0  0  0  0  0  0  0  0  0  0  0  0
   55.0889    9.1840   12.0526 H   0  0  0  0  0  0  0  0  0  0  0  0
   56.5834   10.1225   12.1645 H   0  0  0  0  0  0  0  0  0  0  0  0
   54.7411    7.2882   13.7219 H   0  0  0  0  0  0  0  0  0  0  0  0
   56.0169    6.9958   14.9083 H   0  0  0  0  0  0  0  0  0  0  0  0
   55.5902    9.1089   16.0336 H   0  0  0  0  0  0  0  0  0  0  0  0
   54.1178    8.1585   15.9341 H   0  0  0  0  0  0  0  0  0  0  0  0
   57.6713    6.7887   13.1551 H   0  0  0  0  0  0  0  0  0  0  0  0
   56.4679    7.1131   11.8823 H   0  0  0  0  0  0  0  0  0  0  0  0
   57.9326    8.1078   12.0290 H   0  0  0  0  0  0  0  0  0  0  0  0
   47.2808    5.8091   20.6853 H   0  0  0  0  0  0  0  0  0  0  0  0
   50.6467    7.7206   16.4190 H   0  0  0  0  0  0  0  0  0  0  0  0
   49.5736    3.6568   17.7568 H   0  0  0  0  0  0  0  0  0  0  0  0
   48.4041   10.5991   15.5817 H   0  0  0  0  0  0  0  0  0  0  0  0
   49.2390   12.3712   14.0961 H   0  0  0  0  0  0  0  0  0  0  0  0
   51.5734   12.2400   13.2147 H   0  0  0  0  0  0  0  0  0  0  0  0
   54.0002    9.0198   15.3785 H   0  0  0  0  0  0  0  0  0  0  0  0
   56.2440    9.1894   15.1872 H   0  0  0  0  0  0  0  0  0  0  0  0
   55.8491   10.6914   14.3818 H   0  0  0  0  0  0  0  0  0  0  0  0
   55.9321    9.5104   12.1648 H   0  0  0  0  0  0  0  0  0  0  0  0
   57.4680    9.4637   13.0339 H   0  0  0  0  0  0  0  0  0  0  0  0
   55.4791    6.7065   14.5849 H   0  0  0  0  0  0  0  0  0  0  0  0
   55.0330    6.0386   13.0350 H   0  0  0  0  0  0  0  0  0  0  0  0
   53.1793    7.3379   13.9761 H   0  0  0  0  0  0  0  0  0  0  0  0
   53.7450    8.0989   12.4999 H   0  0  0  0  0  0  0  0  0  0  0  0
   55.9732    7.3839   10.9431 H   0  0  0  0  0  0  0  0  0  0  0  0
   57.6979    7.6291   11.2880 H   0  0  0  0  0  0  0  0  0  0  0  0
   56.9506    6.0808   11.6544 H   0  0  0  0  0  0  0  0  0  0  0  0
   53.7415    7.8213   12.7520 H   0  0  0  0  0  0  0  0  0  0  0  0
   53.0979    9.0875   16.3979 H   0  0  0  0  0  0  0  0  0  0  0  0
   52.6247   10.3328   15.2255 H   0  0  0  0  0  0  0  0  0  0  0  0
   50.8138    8.7866   14.3613 H   0  0  0  0  0  0  0  0  0  0  0  0
   50.6284    9.2211   16.0788 H   0  0  0  0  0  0  0  0  0  0  0  0
   50.1204    5.7735   15.9618 H   0  0  0  0  0  0  0  0  0  0  0  0
  1  2  1  0
  1 12  2  0
  3  1  1  0
  3  4  2  0
  4  6  1  0
  5  4  1  0
  7  8  2  0
  8  9  1  0
  8  6  1  0
  9 15  1  0
 10 11  1  0
 10  6  2  0
 12 10  1  0
 13 14  2  0
 14 18  1  0
 15 13  1  0
 15 16  2  0
 16 17  1  0
 18 17  2  0
 19 14  1  0
 19 20  1  0
 20 21  1  0
 21 22  1  0
 22 23  1  0
 23 24  1  0
 23 27  1  0
 24 25  1  0
 25 20  1  0
 26 19  2  0
 28 29  1  0
 28 39  2  0
 30 28  1  0
 30 31  2  0
 31 33  1  0
 32 31  1  0
 34 35  2  0
 35 36  1  0
 35 33  1  0
 36 42  1  0
 37 38  1  0
 37 33  2  0
 39 37  1  0
 40 41  2  0
 41 45  1  0
 42 40  1  0
 42 43  2  0
 43 44  1  0
 45 44  2  0
 46 41  1  0
 46 47  1  0
 47 48  1  0
 48 49  1  0
 49 50  1  0
 50 51  1  0
 50 54  1  0
 51 52  1  0
 52 47  1  0
 53 46  2  0
 55 56  1  0
 56 57  2  0
 56 58  1  0
 58 59  1  0
 59 60  1  0
 60 61  2  0
 60 62  1  0
  3 63  1  0
  9 64  1  0
 12 65  1  0
 16 66  1  0
 17 67  1  0
 18 68  1  0
 20 69  1  0
 21 70  1  0
 21 71  1  0
 22 72  1  0
 22 73  1  0
 24 74  1  0
 24 75  1  0
 25 76  1  0
 25 77  1  0
 27 78  1  0
 27 79  1  0
 27 80  1  0
 30 81  1  0
 36 82  1  0
 39 83  1  0
 43 84  1  0
 44 85  1  0
 45 86  1  0
 47 87  1  0
 48 88  1  0
 48 89  1  0
 49 90  1  0
 49 91  1  0
 51 92  1  0
 51 93  1  0
 52 94  1  0
 52 95  1  0
 54 96  1  0
 54 97  1  0
 54 98  1  0
 55 99  1  0
 58100  1  0
 58101  1  0
 59102  1  0
 59103  1  0
 62104  1  0
M  END
> <Uni-Dock RESULT> 
ENERGY=   -4.545  LOWER_BOUND=    4.290  UPPER_BOUND=    5.960
INTER + INTRA:          -4.545
INTER:                  -4.545
INTRA:                   0.000
UNBOUND:                 0.000

$$$$

     RDKit          3D

104107  0  0  0  0  0  0  0  0999 V2000
   45.0908   12.8569   11.4235 C   0  0  0  0  0  0  0  0  0  0  0  0
   44.3997   12.0243   10.6363 F   0  0  0  0  0  0  0  0  0  0  0  0
   44.5449   14.0891   11.7577 C   0  0  0  0  0  0  0  0  0  0  0  0
   45.2669   14.9474   12.5803 C   0  0  0  0  0  0  0  0  0  0  0  0
   44.7048   16.1201   12.9134 F   0  0  0  0  0  0  0  0  0  0  0  0
   46.5185   14.5818   13.0785 C   0  0  0  0  0  0  0  0  0  0  0  0
   47.3261   16.6988   13.5588 O   0  0  0  0  0  0  0  0  0  0  0  0
   47.2826   15.5288   13.9128 C   0  0  0  0  0  0  0  0  0  0  0  0
   47.8753   14.9899   15.0284 N   0  0  0  0  0  0  0  0  0  0  0  0
   47.0431   13.3378   12.7324 C   0  0  0  0  0  0  0  0  0  0  0  0
   48.2453   12.9493   13.1833 F   0  0  0  0  0  0  0  0  0  0  0  0
   46.3352   12.4695   11.9031 C   0  0  0  0  0  0  0  0  0  0  0  0
   49.0925   14.8243   16.9687 N   0  0  0  0  0  0  0  0  0  0  0  0
   49.9067   15.3640   17.9123 C   0  0  0  0  0  0  0  0  0  0  0  0
   48.6906   15.6321   15.9636 C   0  0  0  0  0  0  0  0  0  0  0  0
   49.0733   16.9650   15.8772 C   0  0  0  0  0  0  0  0  0  0  0  0
   49.9216   17.4908   16.8488 C   0  0  0  0  0  0  0  0  0  0  0  0
   50.3554   16.6777   17.8854 C   0  0  0  0  0  0  0  0  0  0  0  0
   50.3264   14.4725   19.0362 C   0  0  0  0  0  0  0  0  0  0  0  0
   49.5022   13.2092   19.2991 C   0  0  0  0  0  0  0  0  0  0  0  0
   50.2099   12.2858   20.3010 C   0  0  0  0  0  0  0  0  0  0  0  0
   49.3376   11.0885   20.6747 C   0  0  0  0  0  0  0  0  0  0  0  0
   48.0347   11.5161   21.1979 N   0  0  0  0  0  0  0  0  0  0  0  0
   47.3110   12.3324   20.2203 C   0  0  0  0  0  0  0  0  0  0  0  0
   48.1169   13.5758   19.8451 C   0  0  0  0  0  0  0  0  0  0  0  0
   51.3074   14.7775   19.7131 O   0  0  0  0  0  0  0  0  0  0  0  0
   47.2378   10.3592   21.6028 C   0  0  0  0  0  0  0  0  0  0  0  0
   44.2664   17.5987   13.2988 C   0  0  0  0  0  0  0  0  0  0  0  0
   43.0518   18.1227   13.0949 F   0  0  0  0  0  0  0  0  0  0  0  0
   45.3941   18.3384   12.9722 C   0  0  0  0  0  0  0  0  0  0  0  0
   46.6547   17.7847   13.1886 C   0  0  0  0  0  0  0  0  0  0  0  0
   47.7278   18.5325   12.8963 F   0  0  0  0  0  0  0  0  0  0  0  0
   46.7982   16.5057   13.7275 C   0  0  0  0  0  0  0  0  0  0  0  0
   48.9951   16.1403   13.0596 O   0  0  0  0  0  0  0  0  0  0  0  0
   48.1504   15.9365   13.9225 C   0  0  0  0  0  0  0  0  0  0  0  0
   48.3275   15.2147   15.0795 N   0  0  0  0  0  0  0  0  0  0  0  0
   45.6467   15.7855   14.0494 C   0  0  0  0  0  0  0  0  0  0  0  0
   45.7297   14.5502   14.5639 F   0  0  0  0  0  0  0  0  0  0  0  0
   44.3793   16.3244   13.8396 C   0  0  0  0  0  0  0  0  0  0  0  0
   49.3088   13.9301   16.7001 N   0  0  0  0  0  0  0  0  0  0  0  0
   50.3766   13.2628   17.2073 C   0  0  0  0  0  0  0  0  0  0  0  0
   49.4830   14.5736   15.5280 C   0  0  0  0  0  0  0  0  0  0  0  0
   50.6963   14.5859   14.8496 C   0  0  0  0  0  0  0  0  0  0  0  0
   51.7763   13.8902   15.3870 C   0  0  0  0  0  0  0  0  0  0  0  0
   51.6175   13.2106   16.5870 C   0  0  0  0  0  0  0  0  0  0  0  0
   50.1741   12.5625   18.5108 C   0  0  0  0  0  0  0  0  0  0  0  0
   48.8502   12.7669   19.2475 C   0  0  0  0  0  0  0  0  0  0  0  0
   49.0460   12.6096   20.7647 C   0  0  0  0  0  0  0  0  0  0  0  0
   48.7140   11.1901   21.2129 C   0  0  0  0  0  0  0  0  0  0  0  0
   47.3003   10.8656   20.9767 N   0  0  0  0  0  0  0  0  0  0  0  0
   46.7445   11.4502   19.7517 C   0  0  0  0  0  0  0  0  0  0  0  0
   47.7967   11.7938   18.7001 C   0  0  0  0  0  0  0  0  0  0  0  0
   51.0592   11.8306   18.9504 O   0  0  0  0  0  0  0  0  0  0  0  0
   47.0874    9.4235   21.0484 C   0  0  0  0  0  0  0  0  0  0  0  0
   48.2441   11.7687   17.7141 O   0  0  0  0  0  0  0  0  0  0  0  0
   48.4371   12.8249   18.5217 C   0  0  0  0  0  0  0  0  0  0  0  0
   48.2732   12.7193   19.7258 O   0  0  0  0  0  0  0  0  0  0  0  0
   48.9339   14.0619   17.8222 C   0  0  0  0  0  0  0  0  0  0  0  0
   48.5980   14.1191   16.3370 C   0  0  0  0  0  0  0  0  0  0  0  0
   47.1163   14.2213   16.1092 C   0  0  0  0  0  0  0  0  0  0  0  0
   46.2393   14.2853   16.9528 O   0  0  0  0  0  0  0  0  0  0  0  0
   46.8094   14.2589   14.7974 O   0  0  0  0  0  0  0  0  0  0  0  0
   43.5687   14.3809   11.3841 H   0  0  0  0  0  0  0  0  0  0  0  0
   47.7713   14.0021   15.2287 H   0  0  0  0  0  0  0  0  0  0  0  0
   46.7553   11.5115   11.6221 H   0  0  0  0  0  0  0  0  0  0  0  0
   48.7502   17.6107   15.0694 H   0  0  0  0  0  0  0  0  0  0  0  0
   50.2344   18.5307   16.7937 H   0  0  0  0  0  0  0  0  0  0  0  0
   51.0115   17.0618   18.6599 H   0  0  0  0  0  0  0  0  0  0  0  0
   49.4054   12.6634   18.3525 H   0  0  0  0  0  0  0  0  0  0  0  0
   51.1571   11.9298   19.8784 H   0  0  0  0  0  0  0  0  0  0  0  0
   50.4718   12.8384   21.2137 H   0  0  0  0  0  0  0  0  0  0  0  0
   49.2091   10.4391   19.7981 H   0  0  0  0  0  0  0  0  0  0  0  0
   49.8707   10.5045   21.4366 H   0  0  0  0  0  0  0  0  0  0  0  0
   47.0788   11.7551   19.3168 H   0  0  0  0  0  0  0  0  0  0  0  0
   46.3582   12.6648   20.6486 H   0  0  0  0  0  0  0  0  0  0  0  0
   48.2280   14.2174   20.7296 H   0  0  0  0  0  0  0  0  0  0  0  0
   47.5490   14.1586   19.1120 H   0  0  0  0  0  0  0  0  0  0  0  0
   46.2796   10.6801   22.0301 H   0  0  0  0  0  0  0  0  0  0  0  0
   47.0385    9.6819   20.7648 H   0  0  0  0  0  0  0  0  0  0  0  0
   47.7516    9.7960   22.3880 H   0  0  0  0  0  0  0  0  0  0  0  0
   45.2984   19.3359   12.5571 H   0  0  0  0  0  0  0  0  0  0  0  0
   47.5397   15.0574   15.6962 H   0  0  0  0  0  0  0  0  0  0  0  0
   43.4913   15.7505   14.0883 H   0  0  0  0  0  0  0  0  0  0  0  0
   50.8301   15.1148   13.9113 H   0  0  0  0  0  0  0  0  0  0  0  0
   52.7300   13.8824   14.8684 H   0  0  0  0  0  0  0  0  0  0  0  0
   52.4412   12.6587   17.0276 H   0  0  0  0  0  0  0  0  0  0  0  0
   48.5153   13.7982   19.0843 H   0  0  0  0  0  0  0  0  0  0  0  0
   48.3861   13.3145   21.2864 H   0  0  0  0  0  0  0  0  0  0  0  0
   50.0650   12.8726   21.0712 H   0  0  0  0  0  0  0  0  0  0  0  0
   49.3758   10.4855   20.6926 H   0  0  0  0  0  0  0  0  0  0  0  0
   48.9205   11.0949   22.2857 H   0  0  0  0  0  0  0  0  0  0  0  0
   46.2262   12.3754   20.0351 H   0  0  0  0  0  0  0  0  0  0  0  0
   45.9716   10.8103   19.3050 H   0  0  0  0  0  0  0  0  0  0  0  0
   47.3055   12.2409   17.8271 H   0  0  0  0  0  0  0  0  0  0  0  0
   48.2663   10.8671   18.3450 H   0  0  0  0  0  0  0  0  0  0  0  0
   47.5704    8.8934   20.2212 H   0  0  0  0  0  0  0  0  0  0  0  0
   47.4790    9.0209   21.9901 H   0  0  0  0  0  0  0  0  0  0  0  0
   46.0169    9.1956   21.0301 H   0  0  0  0  0  0  0  0  0  0  0  0
   47.9456   11.0603   18.3218 H   0  0  0  0  0  0  0  0  0  0  0  0
   48.5012   14.9334   18.3302 H   0  0  0  0  0  0  0  0  0  0  0  0
   50.0205   14.0985   17.9515 H   0  0  0  0  0  0  0  0  0  0  0  0
   48.9762   13.2349   15.8113 H   0  0  0  0  0  0  0  0  0  0  0  0
   49.0638   15.0116   15.9021 H   0  0  0  0  0  0  0  0  0  0  0  0
   45.8318   14.3248   14.7886 H   0  0  0  0  0  0  0  0  0  0  0  0
  1  2  1  0
  1 12  2  0
  3  1  1  0
  3  4  2  0
  4  6  1  0
  5  4  1  0
  7  8  2  0
  8  9  1  0
  8  6  1  0
  9 15  1  0
 10 11  1  0
 10  6  2  0
 12 10  1  0
 13 14  2  0
 14 18  1  0
 15 13  1  0
 15 16  2  0
 16 17  1  0
 18 17  2  0
 19 14  1  0
 19 20  1  0
 20 21  1  0
 21 22  1  0
 22 23  1  0
 23 24  1  0
 23 27  1  0
 24 25  1  0
 25 20  1  0
 26 19  2  0
 28 29  1  0
 28 39  2  0
 30 28  1  0
 30 31  2  0
 31 33  1  0
 32 31  1  0
 34 35  2  0
 35 36  1  0
 35 33  1  0
 36 42  1  0
 37 38  1  0
 37 33  2  0
 39 37  1  0
 40 41  2  0
 41 45  1  0
 42 40  1  0
 42 43  2  0
 43 44  1  0
 45 44  2  0
 46 41  1  0
 46 47  1  0
 47 48  1  0
 48 49  1  0
 49 50  1  0
 50 51  1  0
 50 54  1  0
 51 52  1  0
 52 47  1  0
 53 46  2  0
 55 56  1  0
 56 57  2  0
 56 58  1  0
 58 59  1  0
 59 60  1  0
 60 61  2  0
 60 62  1  0
  3 63  1  0
  9 64  1  0
 12 65  1  0
 16 66  1  0
 17 67  1  0
 18 68  1  0
 20 69  1  0
 21 70  1  0
 21 71  1  0
 22 72  1  0
 22 73  1  0
 24 74  1  0
 24 75  1  0
 25 76  1  0
 25 77  1  0
 27 78  1  0
 27 79  1  0
 27 80  1  0
 30 81  1  0
 36 82  1  0
 39 83  1  0
 43 84  1  0
 44 85  1  0
 45 86  1  0
 47 87  1  0
 48 88  1  0
 48 89  1  0
 49 90  1  0
 49 91  1  0
 51 92  1  0
 51 93  1  0
 52 94  1  0
 52 95  1  0
 54 96  1  0
 54 97  1  0
 54 98  1  0
 55 99  1  0
 58100  1  0
 58101  1  0
 59102  1  0
 59103  1  0
 62104  1  0
M  END
> <Uni-Dock RESULT> 
ENERGY=   -4.420  LOWER_BOUND=    5.023  UPPER_BOUND=    9.451
INTER + INTRA:          -4.420
INTER:                  -4.420
INTRA:                   0.000
UNBOUND:                 0.000

$$$$
