
     RDKit          3D

 68 69  0  0  0  0  0  0  0  0999 V2000
   -2.1666    0.2715    1.0018 O   0  0  0  0  0  0  0  0  0  0  0  0
   -1.6927   -0.1982   -0.1654 C   0  0  0  0  0  0  0  0  0  0  0  0
   -0.3602   -0.9268   -0.0462 C   0  0  2  0  0  0  0  0  0  0  0  0
    0.6796   -0.1148    0.7246 C   0  0  2  0  0  0  0  0  0  0  0  0
    0.9425    1.2095    0.0093 C   0  0  0  0  0  0  0  0  0  0  0  0
    2.1489    1.2629   -0.5959 O   0  0  0  0  0  0  0  0  0  0  0  0
   -2.3402   -0.0910   -1.1966 O   0  0  0  0  0  0  0  0  0  0  0  0
    1.8699   -0.8984    0.8848 O   0  0  0  0  0  0  0  0  0  0  0  0
    0.1677   -1.2852   -1.3336 O   0  0  0  0  0  0  0  0  0  0  0  0
    0.1712    2.1533   -0.0668 O   0  0  0  0  0  0  0  0  0  0  0  0
    1.6698   -0.4950   -0.2451 N   0  0  0  0  0  0  0  0  0  0  0  0
    2.5979    0.0921    0.7163 C   0  0  0  0  0  0  0  0  0  0  0  0
    3.8887    0.3381    0.0599 C   0  0  0  0  0  0  0  0  0  0  0  0
    4.9441    0.5391   -0.4775 C   0  0  0  0  0  0  0  0  0  0  0  0
    0.3647   -0.7595    0.3514 C   0  0  2  0  0  0  0  0  0  0  0  0
   -0.3169   -1.9722   -0.3254 C   0  0  0  0  0  0  0  0  0  0  0  0
   -1.8217   -1.7965   -0.0867 C   0  0  0  0  0  0  0  0  0  0  0  0
   -1.9334   -0.3040   -0.1164 C   0  0  0  0  0  0  0  0  0  0  0  0
   -0.6837    0.2962    0.1069 C   0  0  0  0  0  0  0  0  0  0  0  0
   -0.5687    1.6779    0.1297 C   0  0  0  0  0  0  0  0  0  0  0  0
   -3.0781    0.4536   -0.3045 C   0  0  0  0  0  0  0  0  0  0  0  0
   -2.9613    1.8437   -0.2853 C   0  0  0  0  0  0  0  0  0  0  0  0
   -1.7151    2.4515   -0.0731 C   0  0  0  0  0  0  0  0  0  0  0  0
    1.3892   -0.3170    0.6539 N   0  0  0  0  0  0  0  0  0  0  0  0
    2.6325   -1.0554    0.4628 C   0  0  0  0  0  0  0  0  0  0  0  0
    3.6326   -0.5877    1.4316 C   0  0  0  0  0  0  0  0  0  0  0  0
    4.4495   -0.2048    2.2248 C   0  0  0  0  0  0  0  0  0  0  0  0
    0.3381   -0.7818   -0.2493 C   0  0  2  0  0  0  0  0  0  0  0  0
    0.4356   -0.1392   -1.6517 C   0  0  0  0  0  0  0  0  0  0  0  0
   -0.3210    1.1956   -1.5824 C   0  0  0  0  0  0  0  0  0  0  0  0
   -1.3783    0.8664   -0.5760 C   0  0  0  0  0  0  0  0  0  0  0  0
   -1.0060   -0.2501    0.1842 C   0  0  0  0  0  0  0  0  0  0  0  0
   -1.8218   -0.7205    1.2027 C   0  0  0  0  0  0  0  0  0  0  0  0
   -2.5624    1.5395   -0.3285 C   0  0  0  0  0  0  0  0  0  0  0  0
   -3.3915    1.0669    0.6911 C   0  0  0  0  0  0  0  0  0  0  0  0
   -3.0247   -0.0554    1.4506 C   0  0  0  0  0  0  0  0  0  0  0  0
   -3.0003    0.7322    0.7634 H   0  0  0  0  0  0  0  0  0  0  0  0
   -0.5497   -1.8740    0.4716 H   0  0  0  0  0  0  0  0  0  0  0  0
    0.3341    0.1289    1.7348 H   0  0  0  0  0  0  0  0  0  0  0  0
    2.1753    2.1488   -1.0138 H   0  0  0  0  0  0  0  0  0  0  0  0
    2.2218   -1.0037   -0.0227 H   0  0  0  0  0  0  0  0  0  0  0  0
   -0.6013   -1.5150   -1.8925 H   0  0  0  0  0  0  0  0  0  0  0  0
    2.0771   -1.3644   -0.5831 H   0  0  0  0  0  0  0  0  0  0  0  0
    2.7512   -0.5884    1.5624 H   0  0  0  0  0  0  0  0  0  0  0  0
    2.2126    1.0356    1.1149 H   0  0  0  0  0  0  0  0  0  0  0  0
    5.8755    0.7206   -0.9621 H   0  0  0  0  0  0  0  0  0  0  0  0
    0.4333   -0.9600    1.4293 H   0  0  0  0  0  0  0  0  0  0  0  0
    0.0549   -2.9276    0.0602 H   0  0  0  0  0  0  0  0  0  0  0  0
   -0.1280   -1.9655   -1.4095 H   0  0  0  0  0  0  0  0  0  0  0  0
   -2.1188   -2.1797    0.8948 H   0  0  0  0  0  0  0  0  0  0  0  0
   -2.4093   -2.2775   -0.8736 H   0  0  0  0  0  0  0  0  0  0  0  0
    0.3889    2.1604    0.2899 H   0  0  0  0  0  0  0  0  0  0  0  0
   -4.0418   -0.0170   -0.4689 H   0  0  0  0  0  0  0  0  0  0  0  0
   -3.8419    2.4625   -0.4384 H   0  0  0  0  0  0  0  0  0  0  0  0
   -1.6401    3.5362   -0.0660 H   0  0  0  0  0  0  0  0  0  0  0  0
    1.0813   -0.4513    1.6159 H   0  0  0  0  0  0  0  0  0  0  0  0
    3.0210   -0.9087   -0.5505 H   0  0  0  0  0  0  0  0  0  0  0  0
    2.4685   -2.1297    0.6073 H   0  0  0  0  0  0  0  0  0  0  0  0
    5.1702    0.1440    2.9277 H   0  0  0  0  0  0  0  0  0  0  0  0
    0.3018   -1.8756   -0.3186 H   0  0  0  0  0  0  0  0  0  0  0  0
   -0.0687   -0.7967   -2.3750 H   0  0  0  0  0  0  0  0  0  0  0  0
    1.4603   -0.0104   -2.0144 H   0  0  0  0  0  0  0  0  0  0  0  0
    0.3203    2.0010   -1.2103 H   0  0  0  0  0  0  0  0  0  0  0  0
   -0.7397    1.4665   -2.5556 H   0  0  0  0  0  0  0  0  0  0  0  0
   -1.5358   -1.5817    1.7973 H   0  0  0  0  0  0  0  0  0  0  0  0
   -2.8415    2.4137   -0.9075 H   0  0  0  0  0  0  0  0  0  0  0  0
   -4.3280    1.5767    0.9038 H   0  0  0  0  0  0  0  0  0  0  0  0
   -3.6816   -0.4045    2.2436 H   0  0  0  0  0  0  0  0  0  0  0  0
  1  2  1  0
  2  3  1  0
  3  4  1  0
  4  5  1  0
  5  6  1  0
  2  7  2  0
  4  8  1  0
  3  9  1  0
  5 10  2  0
 12 11  1  0
 15 11  1  0
 12 13  1  0
 13 14  3  0
 16 15  1  0
 19 15  1  0
 16 17  1  0
 17 18  1  0
 18 19  2  0
 18 21  1  0
 20 19  1  0
 23 20  2  0
 21 22  2  0
 22 23  1  0
 25 24  1  0
 28 24  1  0
 25 26  1  0
 26 27  3  0
 29 28  1  0
 32 28  1  0
 29 30  1  0
 30 31  1  0
 31 32  2  0
 31 34  1  0
 33 32  1  0
 36 33  2  0
 34 35  2  0
 35 36  1  0
  1 37  1  0
  3 38  1  1
  4 39  1  1
  6 40  1  0
  8 41  1  0
  9 42  1  0
 11 43  1  0
 12 44  1  0
 12 45  1  0
 14 46  1  0
 15 47  1  1
 16 48  1  0
 16 49  1  0
 17 50  1  0
 17 51  1  0
 20 52  1  0
 21 53  1  0
 22 54  1  0
 23 55  1  0
 24 56  1  0
 25 57  1  0
 25 58  1  0
 27 59  1  0
 28 60  1  6
 29 61  1  0
 29 62  1  0
 30 63  1  0
 30 64  1  0
 33 65  1  0
 34 66  1  0
 35 67  1  0
 36 68  1  0
M  END
$$$$
