
     RDKit          2D

 36 37  0  0  0  0  0  0  0  0999 V2000
    2.3024    0.2736    0.0000 O   0  0  0  0  0  0  0  0  0  0  0  0
    3.0169    0.6861    0.0000 C   0  0  0  0  0  0  0  0  0  0  0  0
    3.7314    0.2736    0.0000 C   0  0  0  0  0  0  0  0  0  0  0  0
    4.4458    0.6861    0.0000 C   0  0  0  0  0  0  0  0  0  0  0  0
    5.1603    0.2736    0.0000 C   0  0  0  0  0  0  0  0  0  0  0  0
    5.8748    0.6861    0.0000 O   0  0  0  0  0  0  0  0  0  0  0  0
    3.0169    1.5111    0.0000 O   0  0  0  0  0  0  0  0  0  0  0  0
    4.4458    1.5111    0.0000 O   0  0  0  0  0  0  0  0  0  0  0  0
    3.7314   -0.5514    0.0000 O   0  0  0  0  0  0  0  0  0  0  0  0
    5.1603   -0.5514    0.0000 O   0  0  0  0  0  0  0  0  0  0  0  0
   -1.8511    2.4973    0.0000 N   0  0  0  0  0  0  0  0  0  0  0  0
   -1.0917    2.8197    0.0000 C   0  0  0  0  0  0  0  0  0  0  0  0
   -0.4328    2.3232    0.0000 C   0  0  0  0  0  0  0  0  0  0  0  0
    0.2261    1.8267    0.0000 C   0  0  0  0  0  0  0  0  0  0  0  0
   -2.5099    2.9938    0.0000 C   0  0  0  0  0  0  0  0  0  0  0  0
   -2.4956    3.8187    0.0000 C   0  0  0  0  0  0  0  0  0  0  0  0
   -3.2756    4.0873    0.0000 C   0  0  0  0  0  0  0  0  0  0  0  0
   -3.7721    3.4285    0.0000 C   0  0  0  0  0  0  0  0  0  0  0  0
   -3.2989    2.7527    0.0000 C   0  0  0  0  0  0  0  0  0  0  0  0
   -3.6476    2.0050    0.0000 C   0  0  0  0  0  0  0  0  0  0  0  0
   -4.5940    3.3566    0.0000 C   0  0  0  0  0  0  0  0  0  0  0  0
   -4.9426    2.6088    0.0000 C   0  0  0  0  0  0  0  0  0  0  0  0
   -4.4694    1.9330    0.0000 C   0  0  0  0  0  0  0  0  0  0  0  0
   -1.9878   -1.7884    0.0000 N   0  0  0  0  0  0  0  0  0  0  0  0
   -1.2285   -1.4660    0.0000 C   0  0  0  0  0  0  0  0  0  0  0  0
   -0.5696   -1.9625    0.0000 C   0  0  0  0  0  0  0  0  0  0  0  0
    0.0894   -2.4590    0.0000 C   0  0  0  0  0  0  0  0  0  0  0  0
   -2.6467   -1.2919    0.0000 C   0  0  0  0  0  0  0  0  0  0  0  0
   -2.6323   -0.4670    0.0000 C   0  0  0  0  0  0  0  0  0  0  0  0
   -3.4123   -0.1984    0.0000 C   0  0  0  0  0  0  0  0  0  0  0  0
   -3.9088   -0.8572    0.0000 C   0  0  0  0  0  0  0  0  0  0  0  0
   -3.4356   -1.5331    0.0000 C   0  0  0  0  0  0  0  0  0  0  0  0
   -3.7843   -2.2807    0.0000 C   0  0  0  0  0  0  0  0  0  0  0  0
   -4.7307   -0.9291    0.0000 C   0  0  0  0  0  0  0  0  0  0  0  0
   -5.0794   -1.6769    0.0000 C   0  0  0  0  0  0  0  0  0  0  0  0
   -4.6062   -2.3527    0.0000 C   0  0  0  0  0  0  0  0  0  0  0  0
  1  2  1  0
  2  3  1  0
  3  4  1  0
  4  5  1  0
  5  6  1  0
  2  7  2  0
  4  8  1  0
  3  9  1  0
  5 10  2  0
 12 11  1  0
 15 11  1  1
 12 13  1  0
 13 14  3  0
 16 15  1  0
 19 15  1  0
 16 17  1  0
 17 18  1  0
 18 19  2  0
 18 21  1  0
 20 19  1  0
 23 20  2  0
 21 22  2  0
 22 23  1  0
 25 24  1  0
 28 24  1  1
 25 26  1  0
 26 27  3  0
 29 28  1  0
 32 28  1  0
 29 30  1  0
 30 31  1  0
 31 32  2  0
 31 34  1  0
 33 32  1  0
 36 33  2  0
 34 35  2  0
 35 36  1  0
M  END
> <chembl_id>
CHEMBL5315052

> <chembl_pref_name>
RASAGILINE TARTRATE
