
     RDKit          3D

 68 69  0  0  0  0  0  0  0  0999 V2000
    2.4420    0.1314    1.3715 O   0  0  0  0  0  0  0  0  0  0  0  0
    1.7089    0.8048    0.4666 C   0  0  0  0  0  0  0  0  0  0  0  0
    0.2101    0.5962    0.6020 C   0  0  2  0  0  0  0  0  0  0  0  0
   -0.2101   -0.5955   -0.2590 C   0  0  2  0  0  0  0  0  0  0  0  0
   -1.7087   -0.8051   -0.1223 C   0  0  0  0  0  0  0  0  0  0  0  0
   -2.4433   -0.1306   -1.0252 O   0  0  0  0  0  0  0  0  0  0  0  0
    2.2412    1.5289   -0.3635 O   0  0  0  0  0  0  0  0  0  0  0  0
    0.4450   -1.8013    0.1620 O   0  0  0  0  0  0  0  0  0  0  0  0
   -0.4439    1.8022    0.1799 O   0  0  0  0  0  0  0  0  0  0  0  0
   -2.2396   -1.5310    0.7072 O   0  0  0  0  0  0  0  0  0  0  0  0
    1.5986    0.3488    0.1642 N   0  0  0  0  0  0  0  0  0  0  0  0
    2.8709   -0.3587    0.1238 C   0  0  0  0  0  0  0  0  0  0  0  0
    3.9699    0.6155    0.0982 C   0  0  0  0  0  0  0  0  0  0  0  0
    4.8682    1.4127    0.0763 C   0  0  0  0  0  0  0  0  0  0  0  0
    0.4592   -0.5594    0.2109 C   0  0  2  0  0  0  0  0  0  0  0  0
    0.2306   -1.3563   -1.0943 C   0  0  0  0  0  0  0  0  0  0  0  0
   -1.2702   -1.6761   -1.1463 C   0  0  0  0  0  0  0  0  0  0  0  0
   -1.8399   -0.4804   -0.4503 C   0  0  0  0  0  0  0  0  0  0  0  0
   -0.8596    0.1629    0.3173 C   0  0  0  0  0  0  0  0  0  0  0  0
   -1.1779    1.2730    1.0854 C   0  0  0  0  0  0  0  0  0  0  0  0
   -3.1487   -0.0282   -0.4681 C   0  0  0  0  0  0  0  0  0  0  0  0
   -3.4704    1.0984    0.2918 C   0  0  0  0  0  0  0  0  0  0  0  0
   -2.4921    1.7447    1.0632 C   0  0  0  0  0  0  0  0  0  0  0  0
    1.7311   -0.2475   -0.2840 N   0  0  0  0  0  0  0  0  0  0  0  0
    2.6378    0.5093    0.5670 C   0  0  0  0  0  0  0  0  0  0  0  0
    3.7271    1.0623   -0.2487 C   0  0  0  0  0  0  0  0  0  0  0  0
    4.6168    1.5154   -0.9166 C   0  0  0  0  0  0  0  0  0  0  0  0
    0.5763   -0.7582    0.4428 C   0  0  2  0  0  0  0  0  0  0  0  0
    0.0621   -2.0419   -0.2470 C   0  0  0  0  0  0  0  0  0  0  0  0
   -1.4179   -2.1629    0.1322 C   0  0  0  0  0  0  0  0  0  0  0  0
   -1.8014   -0.7181    0.2203 C   0  0  0  0  0  0  0  0  0  0  0  0
   -0.6678    0.0939    0.3847 C   0  0  0  0  0  0  0  0  0  0  0  0
   -0.8087    1.4673    0.5200 C   0  0  0  0  0  0  0  0  0  0  0  0
   -3.0788   -0.1825    0.1903 C   0  0  0  0  0  0  0  0  0  0  0  0
   -3.2194    1.1997    0.3145 C   0  0  0  0  0  0  0  0  0  0  0  0
   -2.0926    2.0187    0.4772 C   0  0  0  0  0  0  0  0  0  0  0  0
    3.3722    0.3478    1.1511 H   0  0  0  0  0  0  0  0  0  0  0  0
   -0.0321    0.4447    1.6595 H   0  0  0  0  0  0  0  0  0  0  0  0
    0.0309   -0.4435   -1.3168 H   0  0  0  0  0  0  0  0  0  0  0  0
   -3.3731   -0.3479   -0.8040 H   0  0  0  0  0  0  0  0  0  0  0  0
   -0.0404   -2.1335    0.9442 H   0  0  0  0  0  0  0  0  0  0  0  0
    0.0412    2.1326   -0.6033 H   0  0  0  0  0  0  0  0  0  0  0  0
    1.5202    0.9489   -0.6552 H   0  0  0  0  0  0  0  0  0  0  0  0
    2.9403   -0.9966   -0.7642 H   0  0  0  0  0  0  0  0  0  0  0  0
    2.9777   -0.9984    1.0072 H   0  0  0  0  0  0  0  0  0  0  0  0
    5.6601    2.1253    0.0620 H   0  0  0  0  0  0  0  0  0  0  0  0
    0.5360   -1.2411    1.0680 H   0  0  0  0  0  0  0  0  0  0  0  0
    0.8443   -2.2618   -1.1455 H   0  0  0  0  0  0  0  0  0  0  0  0
    0.4895   -0.7412   -1.9687 H   0  0  0  0  0  0  0  0  0  0  0  0
   -1.6226   -1.7690   -2.1773 H   0  0  0  0  0  0  0  0  0  0  0  0
   -1.5026   -2.5869   -0.5850 H   0  0  0  0  0  0  0  0  0  0  0  0
   -0.4214    1.7637    1.6907 H   0  0  0  0  0  0  0  0  0  0  0  0
   -3.9093   -0.5331   -1.0547 H   0  0  0  0  0  0  0  0  0  0  0  0
   -4.4898    1.4764    0.2920 H   0  0  0  0  0  0  0  0  0  0  0  0
   -2.7609    2.6169    1.6540 H   0  0  0  0  0  0  0  0  0  0  0  0
    1.4149    0.3327   -1.0595 H   0  0  0  0  0  0  0  0  0  0  0  0
    2.1242    1.3278    1.0804 H   0  0  0  0  0  0  0  0  0  0  0  0
    3.0638   -0.1469    1.3348 H   0  0  0  0  0  0  0  0  0  0  0  0
    5.4060    1.9104   -1.5136 H   0  0  0  0  0  0  0  0  0  0  0  0
    0.8113   -0.9895    1.4901 H   0  0  0  0  0  0  0  0  0  0  0  0
    0.1381   -1.9509   -1.3411 H   0  0  0  0  0  0  0  0  0  0  0  0
    0.6373   -2.9285    0.0410 H   0  0  0  0  0  0  0  0  0  0  0  0
   -1.9836   -2.7015   -0.6331 H   0  0  0  0  0  0  0  0  0  0  0  0
   -1.5432   -2.6480    1.1056 H   0  0  0  0  0  0  0  0  0  0  0  0
    0.0486    2.1161    0.6575 H   0  0  0  0  0  0  0  0  0  0  0  0
   -3.9507   -0.8177    0.0718 H   0  0  0  0  0  0  0  0  0  0  0  0
   -4.2103    1.6466    0.2890 H   0  0  0  0  0  0  0  0  0  0  0  0
   -2.2210    3.0939    0.5769 H   0  0  0  0  0  0  0  0  0  0  0  0
  1  2  1  0
  2  3  1  0
  3  4  1  0
  4  5  1  0
  5  6  1  0
  2  7  2  0
  4  8  1  0
  3  9  1  0
  5 10  2  0
 12 11  1  0
 15 11  1  0
 12 13  1  0
 13 14  3  0
 16 15  1  0
 19 15  1  0
 16 17  1  0
 17 18  1  0
 18 19  2  0
 18 21  1  0
 20 19  1  0
 23 20  2  0
 21 22  2  0
 22 23  1  0
 25 24  1  0
 28 24  1  0
 25 26  1  0
 26 27  3  0
 29 28  1  0
 32 28  1  0
 29 30  1  0
 30 31  1  0
 31 32  2  0
 31 34  1  0
 33 32  1  0
 36 33  2  0
 34 35  2  0
 35 36  1  0
  1 37  1  0
  3 38  1  1
  4 39  1  6
  6 40  1  0
  8 41  1  0
  9 42  1  0
 11 43  1  0
 12 44  1  0
 12 45  1  0
 14 46  1  0
 15 47  1  1
 16 48  1  0
 16 49  1  0
 17 50  1  0
 17 51  1  0
 20 52  1  0
 21 53  1  0
 22 54  1  0
 23 55  1  0
 24 56  1  0
 25 57  1  0
 25 58  1  0
 27 59  1  0
 28 60  1  1
 29 61  1  0
 29 62  1  0
 30 63  1  0
 30 64  1  0
 33 65  1  0
 34 66  1  0
 35 67  1  0
 36 68  1  0
M  END
$$$$
