
     RDKit          3D

 68 69  0  0  0  0  0  0  0  0999 V2000
    2.1669    0.8470   -0.2399 O   0  0  0  0  0  0  0  0  0  0  0  0
    1.4915    0.0489    0.6065 C   0  0  0  0  0  0  0  0  0  0  0  0
    0.4732   -0.8564   -0.0737 C   0  0  2  0  0  0  0  0  0  0  0  0
   -0.4945   -0.0801   -0.9654 C   0  0  2  0  0  0  0  0  0  0  0  0
   -1.4032    0.8244   -0.1372 C   0  0  0  0  0  0  0  0  0  0  0  0
   -0.7555    1.8591    0.4359 O   0  0  0  0  0  0  0  0  0  0  0  0
    1.7591    0.0311    1.7991 O   0  0  0  0  0  0  0  0  0  0  0  0
   -1.2812   -1.0188   -1.7177 O   0  0  0  0  0  0  0  0  0  0  0  0
   -0.2674   -1.6477    0.8669 O   0  0  0  0  0  0  0  0  0  0  0  0
   -2.6087    0.7010    0.0165 O   0  0  0  0  0  0  0  0  0  0  0  0
    1.5194    0.6394    0.0675 N   0  0  0  0  0  0  0  0  0  0  0  0
    2.8648    0.1545    0.3426 C   0  0  0  0  0  0  0  0  0  0  0  0
    3.8399    1.1937   -0.0132 C   0  0  0  0  0  0  0  0  0  0  0  0
    4.6369    2.0437   -0.3052 C   0  0  0  0  0  0  0  0  0  0  0  0
    0.4946   -0.3360    0.4191 C   0  0  2  0  0  0  0  0  0  0  0  0
    0.4727   -1.5873   -0.4889 C   0  0  0  0  0  0  0  0  0  0  0  0
   -0.9703   -2.1113   -0.4651 C   0  0  0  0  0  0  0  0  0  0  0  0
   -1.7334   -0.8350   -0.2994 C   0  0  0  0  0  0  0  0  0  0  0  0
   -0.9041    0.1802    0.1963 C   0  0  0  0  0  0  0  0  0  0  0  0
   -1.4144    1.4404    0.4698 C   0  0  0  0  0  0  0  0  0  0  0  0
   -3.0800   -0.6116   -0.5331 C   0  0  0  0  0  0  0  0  0  0  0  0
   -3.5950    0.6603   -0.2736 C   0  0  0  0  0  0  0  0  0  0  0  0
   -2.7682    1.6794    0.2243 C   0  0  0  0  0  0  0  0  0  0  0  0
    1.4790   -0.3568   -1.1120 N   0  0  0  0  0  0  0  0  0  0  0  0
    2.4201    0.7595   -1.1638 C   0  0  0  0  0  0  0  0  0  0  0  0
    3.5680    0.5361   -0.2721 C   0  0  0  0  0  0  0  0  0  0  0  0
    4.5051    0.3521    0.4565 C   0  0  0  0  0  0  0  0  0  0  0  0
    0.6466   -0.3414    0.0878 C   0  0  2  0  0  0  0  0  0  0  0  0
    0.2460   -1.7785    0.4981 C   0  0  0  0  0  0  0  0  0  0  0  0
   -1.0498   -1.6410    1.3069 C   0  0  0  0  0  0  0  0  0  0  0  0
   -1.6798   -0.4681    0.6226 C   0  0  0  0  0  0  0  0  0  0  0  0
   -0.7220    0.2666   -0.0944 C   0  0  0  0  0  0  0  0  0  0  0  0
   -1.0941    1.4084   -0.7878 C   0  0  0  0  0  0  0  0  0  0  0  0
   -3.0079   -0.0762    0.6676 C   0  0  0  0  0  0  0  0  0  0  0  0
   -3.3837    1.0687   -0.0357 C   0  0  0  0  0  0  0  0  0  0  0  0
   -2.4343    1.8044   -0.7603 C   0  0  0  0  0  0  0  0  0  0  0  0
    2.7778    1.3567    0.3349 H   0  0  0  0  0  0  0  0  0  0  0  0
    1.0383   -1.5740   -0.6802 H   0  0  0  0  0  0  0  0  0  0  0  0
    0.0283    0.5439   -1.6975 H   0  0  0  0  0  0  0  0  0  0  0  0
   -1.4670    2.3403    0.9120 H   0  0  0  0  0  0  0  0  0  0  0  0
   -1.8079   -1.5060   -1.0517 H   0  0  0  0  0  0  0  0  0  0  0  0
    0.3505   -1.8694    1.5914 H   0  0  0  0  0  0  0  0  0  0  0  0
    1.4405    0.8724   -0.9210 H   0  0  0  0  0  0  0  0  0  0  0  0
    3.0839   -0.7513   -0.2335 H   0  0  0  0  0  0  0  0  0  0  0  0
    2.9705   -0.0890    1.4060 H   0  0  0  0  0  0  0  0  0  0  0  0
    5.3379    2.8040   -0.5614 H   0  0  0  0  0  0  0  0  0  0  0  0
    0.5777   -0.6290    1.4739 H   0  0  0  0  0  0  0  0  0  0  0  0
    0.7308   -1.3146   -1.5228 H   0  0  0  0  0  0  0  0  0  0  0  0
    1.1907   -2.3499   -0.1692 H   0  0  0  0  0  0  0  0  0  0  0  0
   -1.2207   -2.6323   -1.3934 H   0  0  0  0  0  0  0  0  0  0  0  0
   -1.1410   -2.7683    0.3938 H   0  0  0  0  0  0  0  0  0  0  0  0
   -0.7749    2.2235    0.8663 H   0  0  0  0  0  0  0  0  0  0  0  0
   -3.7236   -1.4011   -0.9072 H   0  0  0  0  0  0  0  0  0  0  0  0
   -4.6480    0.8632   -0.4526 H   0  0  0  0  0  0  0  0  0  0  0  0
   -3.1867    2.6621    0.4269 H   0  0  0  0  0  0  0  0  0  0  0  0
    2.0130   -1.2226   -1.1523 H   0  0  0  0  0  0  0  0  0  0  0  0
    2.7857    0.8438   -2.1934 H   0  0  0  0  0  0  0  0  0  0  0  0
    1.9324    1.7123   -0.9327 H   0  0  0  0  0  0  0  0  0  0  0  0
    5.3370    0.1905    1.1028 H   0  0  0  0  0  0  0  0  0  0  0  0
    1.1405    0.1371    0.9438 H   0  0  0  0  0  0  0  0  0  0  0  0
    1.0357   -2.2852    1.0632 H   0  0  0  0  0  0  0  0  0  0  0  0
    0.0420   -2.3917   -0.3926 H   0  0  0  0  0  0  0  0  0  0  0  0
   -0.8437   -1.4026    2.3553 H   0  0  0  0  0  0  0  0  0  0  0  0
   -1.6609   -2.5452    1.2384 H   0  0  0  0  0  0  0  0  0  0  0  0
   -0.3684    1.9858   -1.3493 H   0  0  0  0  0  0  0  0  0  0  0  0
   -3.7415   -0.6440    1.2305 H   0  0  0  0  0  0  0  0  0  0  0  0
   -4.4207    1.3947   -0.0232 H   0  0  0  0  0  0  0  0  0  0  0  0
   -2.7441    2.6934   -1.3041 H   0  0  0  0  0  0  0  0  0  0  0  0
  1  2  1  0
  2  3  1  0
  3  4  1  0
  4  5  1  0
  5  6  1  0
  2  7  2  0
  4  8  1  0
  3  9  1  0
  5 10  2  0
 12 11  1  0
 15 11  1  0
 12 13  1  0
 13 14  3  0
 16 15  1  0
 19 15  1  0
 16 17  1  0
 17 18  1  0
 18 19  2  0
 18 21  1  0
 20 19  1  0
 23 20  2  0
 21 22  2  0
 22 23  1  0
 25 24  1  0
 28 24  1  0
 25 26  1  0
 26 27  3  0
 29 28  1  0
 32 28  1  0
 29 30  1  0
 30 31  1  0
 31 32  2  0
 31 34  1  0
 33 32  1  0
 36 33  2  0
 34 35  2  0
 35 36  1  0
  1 37  1  0
  3 38  1  6
  4 39  1  6
  6 40  1  0
  8 41  1  0
  9 42  1  0
 11 43  1  0
 12 44  1  0
 12 45  1  0
 14 46  1  0
 15 47  1  1
 16 48  1  0
 16 49  1  0
 17 50  1  0
 17 51  1  0
 20 52  1  0
 21 53  1  0
 22 54  1  0
 23 55  1  0
 24 56  1  0
 25 57  1  0
 25 58  1  0
 27 59  1  0
 28 60  1  1
 29 61  1  0
 29 62  1  0
 30 63  1  0
 30 64  1  0
 33 65  1  0
 34 66  1  0
 35 67  1  0
 36 68  1  0
M  END
$$$$
