
     RDKit          3D

 68 69  0  0  0  0  0  0  0  0999 V2000
    2.7274    0.2561    0.7721 O   0  0  0  0  0  0  0  0  0  0  0  0
    1.7790    0.1811   -0.1924 C   0  0  0  0  0  0  0  0  0  0  0  0
    0.4437   -0.3083    0.3569 C   0  0  2  0  0  0  0  0  0  0  0  0
   -0.6791    0.1267   -0.5891 C   0  0  2  0  0  0  0  0  0  0  0  0
   -2.0024   -0.3448   -0.0045 C   0  0  0  0  0  0  0  0  0  0  0  0
   -2.7576    0.6666    0.4821 O   0  0  0  0  0  0  0  0  0  0  0  0
    2.0415    0.4645   -1.3517 O   0  0  0  0  0  0  0  0  0  0  0  0
   -0.5173   -0.4473   -1.8935 O   0  0  0  0  0  0  0  0  0  0  0  0
    0.2553    0.2389    1.6671 O   0  0  0  0  0  0  0  0  0  0  0  0
   -2.4161   -1.4955    0.0479 O   0  0  0  0  0  0  0  0  0  0  0  0
    1.6384    0.2219   -0.0708 N   0  0  0  0  0  0  0  0  0  0  0  0
    2.8387   -0.4736    0.3723 C   0  0  0  0  0  0  0  0  0  0  0  0
    4.0068    0.0821   -0.3238 C   0  0  0  0  0  0  0  0  0  0  0  0
    4.9607    0.5401   -0.8930 C   0  0  0  0  0  0  0  0  0  0  0  0
    0.4372   -0.2511    0.6060 C   0  0  2  0  0  0  0  0  0  0  0  0
    0.0206   -1.6930    0.2343 C   0  0  0  0  0  0  0  0  0  0  0  0
   -1.5002   -1.7668    0.4343 C   0  0  0  0  0  0  0  0  0  0  0  0
   -1.8996   -0.3645    0.0980 C   0  0  0  0  0  0  0  0  0  0  0  0
   -0.8008    0.5009    0.1885 C   0  0  0  0  0  0  0  0  0  0  0  0
   -0.9506    1.8610   -0.0373 C   0  0  0  0  0  0  0  0  0  0  0  0
   -3.1615    0.1086   -0.2208 C   0  0  0  0  0  0  0  0  0  0  0  0
   -3.3138    1.4752   -0.4646 C   0  0  0  0  0  0  0  0  0  0  0  0
   -2.2162    2.3454   -0.3743 C   0  0  0  0  0  0  0  0  0  0  0  0
    1.5760    0.4849   -0.0162 N   0  0  0  0  0  0  0  0  0  0  0  0
    2.8967   -0.0745    0.2382 C   0  0  0  0  0  0  0  0  0  0  0  0
    3.9076    0.7201   -0.4718 C   0  0  0  0  0  0  0  0  0  0  0  0
    4.7345    1.3684   -1.0542 C   0  0  0  0  0  0  0  0  0  0  0  0
    0.5197   -0.2424    0.6776 C   0  0  2  0  0  0  0  0  0  0  0  0
    0.2885   -1.6770    0.1491 C   0  0  0  0  0  0  0  0  0  0  0  0
   -1.1825   -2.0103    0.4359 C   0  0  0  0  0  0  0  0  0  0  0  0
   -1.8099   -0.6575    0.3139 C   0  0  0  0  0  0  0  0  0  0  0  0
   -0.8465    0.3515    0.4456 C   0  0  0  0  0  0  0  0  0  0  0  0
   -1.2131    1.6886    0.4127 C   0  0  0  0  0  0  0  0  0  0  0  0
   -3.1500   -0.3522    0.1435 C   0  0  0  0  0  0  0  0  0  0  0  0
   -3.5215    0.9932    0.0925 C   0  0  0  0  0  0  0  0  0  0  0  0
   -2.5600    2.0069    0.2264 C   0  0  0  0  0  0  0  0  0  0  0  0
    3.5322    0.5703    0.3036 H   0  0  0  0  0  0  0  0  0  0  0  0
    0.4976   -1.3995    0.4339 H   0  0  0  0  0  0  0  0  0  0  0  0
   -0.7143    1.2166   -0.7031 H   0  0  0  0  0  0  0  0  0  0  0  0
   -3.5570    0.2114    0.8208 H   0  0  0  0  0  0  0  0  0  0  0  0
    0.2701   -0.0259   -2.2945 H   0  0  0  0  0  0  0  0  0  0  0  0
    1.0970    0.0889    2.1444 H   0  0  0  0  0  0  0  0  0  0  0  0
    1.5312    0.0974   -1.0763 H   0  0  0  0  0  0  0  0  0  0  0  0
    2.9740   -0.3549    1.4542 H   0  0  0  0  0  0  0  0  0  0  0  0
    2.7710   -1.5456    0.1559 H   0  0  0  0  0  0  0  0  0  0  0  0
    5.8040    0.9559   -1.3948 H   0  0  0  0  0  0  0  0  0  0  0  0
    0.5378   -0.1522    1.6946 H   0  0  0  0  0  0  0  0  0  0  0  0
    0.5496   -2.4466    0.8274 H   0  0  0  0  0  0  0  0  0  0  0  0
    0.2462   -1.8969   -0.8229 H   0  0  0  0  0  0  0  0  0  0  0  0
   -1.9543   -2.5048   -0.2326 H   0  0  0  0  0  0  0  0  0  0  0  0
   -1.7556   -1.9917    1.4748 H   0  0  0  0  0  0  0  0  0  0  0  0
   -0.1017    2.5330    0.0467 H   0  0  0  0  0  0  0  0  0  0  0  0
   -4.0148   -0.5591   -0.2796 H   0  0  0  0  0  0  0  0  0  0  0  0
   -4.2933    1.8721   -0.7193 H   0  0  0  0  0  0  0  0  0  0  0  0
   -2.3539    3.4072   -0.5625 H   0  0  0  0  0  0  0  0  0  0  0  0
    1.3923    0.4726   -1.0184 H   0  0  0  0  0  0  0  0  0  0  0  0
    2.9593   -1.1136   -0.1042 H   0  0  0  0  0  0  0  0  0  0  0  0
    3.1145   -0.0593    1.3123 H   0  0  0  0  0  0  0  0  0  0  0  0
    5.4640    1.9502   -1.5687 H   0  0  0  0  0  0  0  0  0  0  0  0
    0.6968   -0.2540    1.7612 H   0  0  0  0  0  0  0  0  0  0  0  0
    0.4530   -1.7144   -0.9379 H   0  0  0  0  0  0  0  0  0  0  0  0
    0.9701   -2.4050    0.6016 H   0  0  0  0  0  0  0  0  0  0  0  0
   -1.5796   -2.7248   -0.2906 H   0  0  0  0  0  0  0  0  0  0  0  0
   -1.3119   -2.3951    1.4524 H   0  0  0  0  0  0  0  0  0  0  0  0
   -0.4681    2.4700    0.5287 H   0  0  0  0  0  0  0  0  0  0  0  0
   -3.8965   -1.1344    0.0509 H   0  0  0  0  0  0  0  0  0  0  0  0
   -4.5662    1.2591   -0.0481 H   0  0  0  0  0  0  0  0  0  0  0  0
   -2.8671    3.0491    0.1898 H   0  0  0  0  0  0  0  0  0  0  0  0
  1  2  1  0
  2  3  1  0
  3  4  1  0
  4  5  1  0
  5  6  1  0
  2  7  2  0
  4  8  1  0
  3  9  1  0
  5 10  2  0
 12 11  1  0
 15 11  1  0
 12 13  1  0
 13 14  3  0
 16 15  1  0
 19 15  1  0
 16 17  1  0
 17 18  1  0
 18 19  2  0
 18 21  1  0
 20 19  1  0
 23 20  2  0
 21 22  2  0
 22 23  1  0
 25 24  1  0
 28 24  1  0
 25 26  1  0
 26 27  3  0
 29 28  1  0
 32 28  1  0
 29 30  1  0
 30 31  1  0
 31 32  2  0
 31 34  1  0
 33 32  1  0
 36 33  2  0
 34 35  2  0
 35 36  1  0
  1 37  1  0
  3 38  1  1
  4 39  1  6
  6 40  1  0
  8 41  1  0
  9 42  1  0
 11 43  1  0
 12 44  1  0
 12 45  1  0
 14 46  1  0
 15 47  1  1
 16 48  1  0
 16 49  1  0
 17 50  1  0
 17 51  1  0
 20 52  1  0
 21 53  1  0
 22 54  1  0
 23 55  1  0
 24 56  1  0
 25 57  1  0
 25 58  1  0
 27 59  1  0
 28 60  1  1
 29 61  1  0
 29 62  1  0
 30 63  1  0
 30 64  1  0
 33 65  1  0
 34 66  1  0
 35 67  1  0
 36 68  1  0
M  END
$$$$
