
     RDKit          3D

 68 69  0  0  0  0  0  0  0  0999 V2000
    2.2104    0.3824   -0.6658 O   0  0  0  0  0  0  0  0  0  0  0  0
    1.4785    0.8485    0.3612 C   0  0  0  0  0  0  0  0  0  0  0  0
    0.5933   -0.2020    1.0196 C   0  0  2  0  0  0  0  0  0  0  0  0
   -0.2469   -0.9742    0.0035 C   0  0  2  0  0  0  0  0  0  0  0  0
   -1.1610   -0.0134   -0.7554 C   0  0  0  0  0  0  0  0  0  0  0  0
   -2.4624   -0.1259   -0.4119 O   0  0  0  0  0  0  0  0  0  0  0  0
    1.5964    2.0028    0.7456 O   0  0  0  0  0  0  0  0  0  0  0  0
   -0.9760   -2.0081    0.6787 O   0  0  0  0  0  0  0  0  0  0  0  0
   -0.2670    0.3750    2.0153 O   0  0  0  0  0  0  0  0  0  0  0  0
   -0.8099    0.8143   -1.5819 O   0  0  0  0  0  0  0  0  0  0  0  0
    1.8159   -0.1179    0.7331 N   0  0  0  0  0  0  0  0  0  0  0  0
    2.1810    0.1399   -0.6549 C   0  0  0  0  0  0  0  0  0  0  0  0
    3.5370    0.7098   -0.6925 C   0  0  0  0  0  0  0  0  0  0  0  0
    4.6441    1.1749   -0.7236 C   0  0  0  0  0  0  0  0  0  0  0  0
    0.4605   -0.6137    0.9481 C   0  0  2  0  0  0  0  0  0  0  0  0
    0.0960   -1.9488    0.2606 C   0  0  0  0  0  0  0  0  0  0  0  0
   -1.4388   -1.9705    0.1765 C   0  0  0  0  0  0  0  0  0  0  0  0
   -1.7457   -0.5098    0.0460 C   0  0  0  0  0  0  0  0  0  0  0  0
   -0.6667    0.2703    0.4860 C   0  0  0  0  0  0  0  0  0  0  0  0
   -0.7609    1.6532    0.5229 C   0  0  0  0  0  0  0  0  0  0  0  0
   -2.9262    0.0755   -0.3802 C   0  0  0  0  0  0  0  0  0  0  0  0
   -3.0164    1.4691   -0.3687 C   0  0  0  0  0  0  0  0  0  0  0  0
   -1.9422    2.2526    0.0813 C   0  0  0  0  0  0  0  0  0  0  0  0
    1.4972   -0.4535   -0.9073 N   0  0  0  0  0  0  0  0  0  0  0  0
    2.1175    0.8197   -1.2595 C   0  0  0  0  0  0  0  0  0  0  0  0
    3.2794    1.1203   -0.4129 C   0  0  0  0  0  0  0  0  0  0  0  0
    4.2306    1.3683    0.2777 C   0  0  0  0  0  0  0  0  0  0  0  0
    0.8271   -0.4516    0.3967 C   0  0  2  0  0  0  0  0  0  0  0  0
    0.4353   -1.9026    0.7685 C   0  0  0  0  0  0  0  0  0  0  0  0
   -0.9418   -2.1672    0.1435 C   0  0  0  0  0  0  0  0  0  0  0  0
   -1.5408   -0.7968    0.2037 C   0  0  0  0  0  0  0  0  0  0  0  0
   -0.5437    0.1773    0.3592 C   0  0  0  0  0  0  0  0  0  0  0  0
   -0.8772    1.5200    0.4532 C   0  0  0  0  0  0  0  0  0  0  0  0
   -2.8773   -0.4481    0.1058 C   0  0  0  0  0  0  0  0  0  0  0  0
   -3.2162    0.9036    0.1908 C   0  0  0  0  0  0  0  0  0  0  0  0
   -2.2240    1.8803    0.3677 C   0  0  0  0  0  0  0  0  0  0  0  0
    2.6977    1.1670   -0.9991 H   0  0  0  0  0  0  0  0  0  0  0  0
    1.2508   -0.8932    1.5592 H   0  0  0  0  0  0  0  0  0  0  0  0
    0.3800   -1.4764   -0.7409 H   0  0  0  0  0  0  0  0  0  0  0  0
   -2.9205    0.5444   -0.9605 H   0  0  0  0  0  0  0  0  0  0  0  0
   -1.6096   -1.5310    1.2525 H   0  0  0  0  0  0  0  0  0  0  0  0
    0.2462    1.0897    2.4423 H   0  0  0  0  0  0  0  0  0  0  0  0
    2.4801   -0.7857    1.1191 H   0  0  0  0  0  0  0  0  0  0  0  0
    1.4924    0.8458   -1.1298 H   0  0  0  0  0  0  0  0  0  0  0  0
    2.1796   -0.7819   -1.2448 H   0  0  0  0  0  0  0  0  0  0  0  0
    5.6238    1.5929   -0.7453 H   0  0  0  0  0  0  0  0  0  0  0  0
    0.3311   -0.7416    2.0314 H   0  0  0  0  0  0  0  0  0  0  0  0
    0.4888   -1.9986   -0.7622 H   0  0  0  0  0  0  0  0  0  0  0  0
    0.4935   -2.8155    0.7989 H   0  0  0  0  0  0  0  0  0  0  0  0
   -1.8806   -2.3678    1.0961 H   0  0  0  0  0  0  0  0  0  0  0  0
   -1.7829   -2.5487   -0.6856 H   0  0  0  0  0  0  0  0  0  0  0  0
    0.0664    2.2556    0.8863 H   0  0  0  0  0  0  0  0  0  0  0  0
   -3.7652   -0.5284   -0.7105 H   0  0  0  0  0  0  0  0  0  0  0  0
   -3.9311    1.9536   -0.7013 H   0  0  0  0  0  0  0  0  0  0  0  0
   -2.0337    3.3359    0.0942 H   0  0  0  0  0  0  0  0  0  0  0  0
    0.8104   -0.6868   -1.6225 H   0  0  0  0  0  0  0  0  0  0  0  0
    2.4632    0.7455   -2.2975 H   0  0  0  0  0  0  0  0  0  0  0  0
    1.3973    1.6431   -1.2418 H   0  0  0  0  0  0  0  0  0  0  0  0
    5.0758    1.5798    0.8908 H   0  0  0  0  0  0  0  0  0  0  0  0
    1.4492   -0.0367    1.1969 H   0  0  0  0  0  0  0  0  0  0  0  0
    0.3500   -1.9762    1.8628 H   0  0  0  0  0  0  0  0  0  0  0  0
    1.1791   -2.6477    0.4644 H   0  0  0  0  0  0  0  0  0  0  0  0
   -0.8553   -2.4997   -0.8958 H   0  0  0  0  0  0  0  0  0  0  0  0
   -1.5092   -2.8979    0.7266 H   0  0  0  0  0  0  0  0  0  0  0  0
   -0.1135    2.2785    0.5929 H   0  0  0  0  0  0  0  0  0  0  0  0
   -3.6459   -1.2029   -0.0261 H   0  0  0  0  0  0  0  0  0  0  0  0
   -4.2592    1.2034    0.1236 H   0  0  0  0  0  0  0  0  0  0  0  0
   -2.5080    2.9276    0.4382 H   0  0  0  0  0  0  0  0  0  0  0  0
  1  2  1  0
  2  3  1  0
  3  4  1  0
  4  5  1  0
  5  6  1  0
  2  7  2  0
  4  8  1  0
  3  9  1  0
  5 10  2  0
 12 11  1  0
 15 11  1  0
 12 13  1  0
 13 14  3  0
 16 15  1  0
 19 15  1  0
 16 17  1  0
 17 18  1  0
 18 19  2  0
 18 21  1  0
 20 19  1  0
 23 20  2  0
 21 22  2  0
 22 23  1  0
 25 24  1  0
 28 24  1  0
 25 26  1  0
 26 27  3  0
 29 28  1  0
 32 28  1  0
 29 30  1  0
 30 31  1  0
 31 32  2  0
 31 34  1  0
 33 32  1  0
 36 33  2  0
 34 35  2  0
 35 36  1  0
  1 37  1  0
  3 38  1  1
  4 39  1  6
  6 40  1  0
  8 41  1  0
  9 42  1  0
 11 43  1  0
 12 44  1  0
 12 45  1  0
 14 46  1  0
 15 47  1  1
 16 48  1  0
 16 49  1  0
 17 50  1  0
 17 51  1  0
 20 52  1  0
 21 53  1  0
 22 54  1  0
 23 55  1  0
 24 56  1  0
 25 57  1  0
 25 58  1  0
 27 59  1  0
 28 60  1  1
 29 61  1  0
 29 62  1  0
 30 63  1  0
 30 64  1  0
 33 65  1  0
 34 66  1  0
 35 67  1  0
 36 68  1  0
M  END
$$$$
