
     RDKit          3D

 36 37  0  0  0  0  0  0  0  0999 V2000
   -2.1175    1.3848    0.0173 O   0  0  0  0  0  0  0  0  0  0  0  0
   -1.8730    0.0049   -0.0632 C   0  0  0  0  0  0  0  0  0  0  0  0
   -0.5061   -0.4364    0.3196 C   0  0  0  0  0  0  0  0  0  0  0  0
    0.4596    0.2826   -0.6057 C   0  0  0  0  0  0  0  0  0  0  0  0
    1.8787   -0.0323   -0.2949 C   0  0  0  0  0  0  0  0  0  0  0  0
    2.7565    0.9925    0.1055 O   0  0  0  0  0  0  0  0  0  0  0  0
   -2.7721   -0.8049   -0.4408 O   0  0  0  0  0  0  0  0  0  0  0  0
    0.2443    1.6368   -0.4298 O   0  0  0  0  0  0  0  0  0  0  0  0
   -0.3598   -1.8069    0.2090 O   0  0  0  0  0  0  0  0  0  0  0  0
    2.2894   -1.2210   -0.3923 O   0  0  0  0  0  0  0  0  0  0  0  0
    1.4422   -1.0086   -1.1681 N   0  0  0  0  0  0  0  0  0  0  0  0
    1.7992    0.3225   -1.6792 C   0  0  0  0  0  0  0  0  0  0  0  0
    2.8817    0.7802   -0.7826 C   0  0  0  0  0  0  0  0  0  0  0  0
    3.7687    1.1681   -0.0326 C   0  0  0  0  0  0  0  0  0  0  0  0
    0.8316   -0.7770    0.1142 C   0  0  2  0  0  0  0  0  0  0  0  0
    0.4030   -2.0414    0.8084 C   0  0  0  0  0  0  0  0  0  0  0  0
   -0.6090   -1.4578    1.8022 C   0  0  0  0  0  0  0  0  0  0  0  0
   -1.3380   -0.4258    0.9803 C   0  0  0  0  0  0  0  0  0  0  0  0
   -0.4575   -0.0423   -0.0030 C   0  0  0  0  0  0  0  0  0  0  0  0
   -0.8971    0.9175   -0.9021 C   0  0  0  0  0  0  0  0  0  0  0  0
   -2.6091    0.0808    1.1182 C   0  0  0  0  0  0  0  0  0  0  0  0
   -3.0424    1.0441    0.2103 C   0  0  0  0  0  0  0  0  0  0  0  0
   -2.1733    1.4398   -0.7799 C   0  0  0  0  0  0  0  0  0  0  0  0
    1.6821   -0.6536    0.7422 N   0  0  0  0  0  0  0  0  0  0  0  0
    2.2228   -0.0634   -0.4400 C   0  0  0  0  0  0  0  0  0  0  0  0
    3.6549    0.2087   -0.1611 C   0  0  0  0  0  0  0  0  0  0  0  0
    4.8327    0.4212    0.0708 C   0  0  0  0  0  0  0  0  0  0  0  0
    0.3269   -1.0125    0.7457 C   0  0  2  0  0  0  0  0  0  0  0  0
   -0.1391   -2.0068   -0.2597 C   0  0  0  0  0  0  0  0  0  0  0  0
   -1.6577   -1.9384   -0.0477 C   0  0  0  0  0  0  0  0  0  0  0  0
   -1.8663   -0.4715    0.2150 C   0  0  0  0  0  0  0  0  0  0  0  0
   -0.6742    0.0470    0.6833 C   0  0  0  0  0  0  0  0  0  0  0  0
   -0.6461    1.3904    0.9889 C   0  0  0  0  0  0  0  0  0  0  0  0
   -3.0057    0.2823    0.0440 C   0  0  0  0  0  0  0  0  0  0  0  0
   -2.9500    1.6223    0.3570 C   0  0  0  0  0  0  0  0  0  0  0  0
   -1.7804    2.1742    0.8260 C   0  0  0  0  0  0  0  0  0  0  0  0
  1  2  1  0
  2  3  1  0
  3  4  1  0
  4  5  1  0
  5  6  1  0
  2  7  2  0
  4  8  1  0
  3  9  1  0
  5 10  2  0
 12 11  1  0
 15 11  1  6
 12 13  1  0
 13 14  3  0
 16 15  1  0
 19 15  1  0
 16 17  1  0
 17 18  1  0
 18 19  2  0
 18 21  1  0
 20 19  1  0
 23 20  2  0
 21 22  2  0
 22 23  1  0
 25 24  1  0
 28 24  1  6
 25 26  1  0
 26 27  3  0
 29 28  1  0
 32 28  1  0
 29 30  1  0
 30 31  1  0
 31 32  2  0
 31 34  1  0
 33 32  1  0
 36 33  2  0
 34 35  2  0
 35 36  1  0
M  END
