
     RDKit          3D

 61 65  0  0  0  0  0  0  0  0999 V2000
    5.9877   -0.5636    0.7799 C   0  0  0  0  0  0  0  0  0  0  0  0
    7.0432   -0.1117    0.0000 C   0  0  0  0  0  0  0  0  0  0  0  0
    7.0269    1.1475   -0.6117 C   0  0  0  0  0  0  0  0  0  0  0  0
    5.9073    1.9808   -0.4529 C   0  0  0  0  0  0  0  0  0  0  0  0
    4.8422    1.5450    0.3380 C   0  0  0  0  0  0  0  0  0  0  0  0
    4.8704    0.2747    0.9578 C   0  0  0  0  0  0  0  0  0  0  0  0
    3.8201   -0.2232    1.7551 C   0  0  0  0  0  0  0  0  0  0  0  0
    3.9111   -1.4781    2.3516 C   0  0  0  0  0  0  0  0  0  0  0  0
    5.0499   -2.2164    2.1066 C   0  0  0  0  0  0  0  0  0  0  0  0
    6.0753   -1.7848    1.3382 N   0  0  0  0  0  0  0  0  0  0  0  0
    8.0386    1.6359   -1.3998 O   0  0  0  0  0  0  0  0  0  0  0  0
    5.9582    3.1976   -1.0855 O   0  0  0  0  0  0  0  0  0  0  0  0
    2.7300    0.5892    2.0008 O   0  0  0  0  0  0  0  0  0  0  0  0
    1.4931    0.0511    1.7322 C   0  0  0  0  0  0  0  0  0  0  0  0
    0.5360    0.1093    2.7401 C   0  0  0  0  0  0  0  0  0  0  0  0
    1.1629   -0.4691    0.4818 C   0  0  0  0  0  0  0  0  0  0  0  0
   -0.1266   -0.9588    0.2487 C   0  0  0  0  0  0  0  0  0  0  0  0
   -1.0900   -0.9241    1.2592 C   0  0  0  0  0  0  0  0  0  0  0  0
   -0.7466   -0.3914    2.5087 C   0  0  0  0  0  0  0  0  0  0  0  0
   -2.4060   -1.3977    1.1032 N   0  0  0  0  0  0  0  0  0  0  0  0
   -3.0114   -1.8296   -0.0559 C   0  0  0  0  0  0  0  0  0  0  0  0
   -2.5506   -1.8552   -1.1865 O   0  0  0  0  0  0  0  0  0  0  0  0
   -4.4337   -2.2529    0.1491 C   0  0  0  0  0  0  0  0  0  0  0  0
   -4.6906   -3.4787    1.0259 C   0  0  0  0  0  0  0  0  0  0  0  0
   -4.8831   -3.5843   -0.4528 C   0  0  0  0  0  0  0  0  0  0  0  0
   -5.4308   -1.1334    0.1871 C   0  0  0  0  0  0  0  0  0  0  0  0
   -5.7230   -0.6263   -1.0620 N   0  0  0  0  0  0  0  0  0  0  0  0
   -5.8590   -0.7666    1.2711 O   0  0  0  0  0  0  0  0  0  0  0  0
   -6.5767    0.4477   -1.3762 C   0  0  0  0  0  0  0  0  0  0  0  0
   -8.1203    2.2349   -0.8148 C   0  0  0  0  0  0  0  0  0  0  0  0
   -7.3009    1.1710   -0.4233 C   0  0  0  0  0  0  0  0  0  0  0  0
   -6.6857    0.8013   -2.7288 C   0  0  0  0  0  0  0  0  0  0  0  0
   -7.5064    1.8626   -3.1201 C   0  0  0  0  0  0  0  0  0  0  0  0
   -8.2155    2.5700   -2.1579 C   0  0  0  0  0  0  0  0  0  0  0  0
   -9.0058    3.5855   -2.5306 F   0  0  0  0  0  0  0  0  0  0  0  0
    9.2774    0.9399   -1.3745 C   0  0  0  0  0  0  0  0  0  0  0  0
    4.7578    3.9536   -1.1457 C   0  0  0  0  0  0  0  0  0  0  0  0
    7.8848   -0.7864   -0.1216 H   0  0  0  0  0  0  0  0  0  0  0  0
    3.9728    2.1778    0.4946 H   0  0  0  0  0  0  0  0  0  0  0  0
    3.1254   -1.8658    2.9923 H   0  0  0  0  0  0  0  0  0  0  0  0
    5.1813   -3.2042    2.5384 H   0  0  0  0  0  0  0  0  0  0  0  0
    0.7881    0.5393    3.7052 H   0  0  0  0  0  0  0  0  0  0  0  0
    1.8943   -0.4904   -0.3205 H   0  0  0  0  0  0  0  0  0  0  0  0
   -0.3454   -1.3633   -0.7344 H   0  0  0  0  0  0  0  0  0  0  0  0
   -1.4742   -0.3415    3.3135 H   0  0  0  0  0  0  0  0  0  0  0  0
   -3.0039   -1.3473    1.9222 H   0  0  0  0  0  0  0  0  0  0  0  0
   -3.8427   -3.9979    1.4600 H   0  0  0  0  0  0  0  0  0  0  0  0
   -5.5743   -3.4822    1.6566 H   0  0  0  0  0  0  0  0  0  0  0  0
   -5.8998   -3.6709   -0.8242 H   0  0  0  0  0  0  0  0  0  0  0  0
   -4.1585   -4.1593   -1.0210 H   0  0  0  0  0  0  0  0  0  0  0  0
   -5.2264   -1.0499   -1.8418 H   0  0  0  0  0  0  0  0  0  0  0  0
   -8.6812    2.8011   -0.0760 H   0  0  0  0  0  0  0  0  0  0  0  0
   -7.2506    0.9367    0.6348 H   0  0  0  0  0  0  0  0  0  0  0  0
   -6.1354    0.2575   -3.4931 H   0  0  0  0  0  0  0  0  0  0  0  0
   -7.5934    2.1407   -4.1653 H   0  0  0  0  0  0  0  0  0  0  0  0
   10.0066    1.5335   -1.9342 H   0  0  0  0  0  0  0  0  0  0  0  0
    9.1899   -0.0326   -1.8712 H   0  0  0  0  0  0  0  0  0  0  0  0
    9.6525    0.8309   -0.3517 H   0  0  0  0  0  0  0  0  0  0  0  0
    4.4785    4.3236   -0.1531 H   0  0  0  0  0  0  0  0  0  0  0  0
    3.9432    3.3763   -1.5965 H   0  0  0  0  0  0  0  0  0  0  0  0
    4.9430    4.8225   -1.7856 H   0  0  0  0  0  0  0  0  0  0  0  0
  1  2  2  0
  1  6  1  0
  1 10  1  0
  2  3  1  0
  3  4  2  0
  4  5  1  0
  5  6  2  0
  6  7  1  0
  7  8  2  0
  8  9  1  0
  9 10  2  0
  3 11  1  0
  4 12  1  0
  7 13  1  0
 13 14  1  0
 15 14  2  0
 14 16  1  0
 15 19  1  0
 16 17  2  0
 17 18  1  0
 18 19  2  0
 18 20  1  0
 20 21  1  0
 21 22  2  0
 21 23  1  0
 23 24  1  0
 24 25  1  0
 25 23  1  0
 23 26  1  0
 26 27  1  0
 26 28  2  0
 27 29  1  0
 31 29  1  0
 29 32  2  0
 30 31  2  0
 30 34  1  0
 32 33  1  0
 33 34  2  0
 34 35  1  0
 11 36  1  0
 12 37  1  0
  2 38  1  0
  5 39  1  0
  8 40  1  0
  9 41  1  0
 15 42  1  0
 16 43  1  0
 17 44  1  0
 19 45  1  0
 20 46  1  0
 24 47  1  0
 24 48  1  0
 25 49  1  0
 25 50  1  0
 27 51  1  0
 30 52  1  0
 31 53  1  0
 32 54  1  0
 33 55  1  0
 36 56  1  0
 36 57  1  0
 36 58  1  0
 37 59  1  0
 37 60  1  0
 37 61  1  0
M  END
$$$$
