
     RDKit          3D

 61 65  0  0  0  0  0  0  0  0999 V2000
   -5.1888   -1.3082    1.5814 C   0  0  0  0  0  0  0  0  0  0  0  0
   -6.4638   -1.5179    1.0748 C   0  0  0  0  0  0  0  0  0  0  0  0
   -7.1765   -0.5061    0.4194 C   0  0  0  0  0  0  0  0  0  0  0  0
   -6.6033    0.7677    0.2934 C   0  0  0  0  0  0  0  0  0  0  0  0
   -5.3126    0.9889    0.7775 C   0  0  0  0  0  0  0  0  0  0  0  0
   -4.5950   -0.0426    1.4203 C   0  0  0  0  0  0  0  0  0  0  0  0
   -3.2850    0.1128    1.9129 C   0  0  0  0  0  0  0  0  0  0  0  0
   -2.6467   -0.9281    2.5808 C   0  0  0  0  0  0  0  0  0  0  0  0
   -3.3251   -2.1210    2.6911 C   0  0  0  0  0  0  0  0  0  0  0  0
   -4.5654   -2.3274    2.2004 N   0  0  0  0  0  0  0  0  0  0  0  0
   -8.4373   -0.6589   -0.1003 O   0  0  0  0  0  0  0  0  0  0  0  0
   -7.3490    1.7225   -0.3497 O   0  0  0  0  0  0  0  0  0  0  0  0
   -2.6570    1.3345    1.7745 O   0  0  0  0  0  0  0  0  0  0  0  0
   -1.4393    1.3409    1.1301 C   0  0  0  0  0  0  0  0  0  0  0  0
   -0.4758    2.2188    1.6208 C   0  0  0  0  0  0  0  0  0  0  0  0
   -1.1607    0.5650    0.0040 C   0  0  0  0  0  0  0  0  0  0  0  0
    0.1014    0.6281   -0.5965 C   0  0  0  0  0  0  0  0  0  0  0  0
    1.0871    1.4762   -0.0874 C   0  0  0  0  0  0  0  0  0  0  0  0
    0.7837    2.2821    1.0176 C   0  0  0  0  0  0  0  0  0  0  0  0
    2.3838    1.5819   -0.6250 N   0  0  0  0  0  0  0  0  0  0  0  0
    2.9349    0.8279   -1.6395 C   0  0  0  0  0  0  0  0  0  0  0  0
    2.4239   -0.0885   -2.2659 O   0  0  0  0  0  0  0  0  0  0  0  0
    4.3548    1.1973   -1.9420 C   0  0  0  0  0  0  0  0  0  0  0  0
    4.6213    2.5914   -2.5109 C   0  0  0  0  0  0  0  0  0  0  0  0
    4.7503    1.4009   -3.4056 C   0  0  0  0  0  0  0  0  0  0  0  0
    5.3762    0.6073   -1.0178 C   0  0  0  0  0  0  0  0  0  0  0  0
    5.7212   -0.6855   -1.3444 N   0  0  0  0  0  0  0  0  0  0  0  0
    5.7748    1.2821   -0.0808 O   0  0  0  0  0  0  0  0  0  0  0  0
    6.6353   -1.5236   -0.6767 C   0  0  0  0  0  0  0  0  0  0  0  0
    7.6216   -3.7422   -0.5123 C   0  0  0  0  0  0  0  0  0  0  0  0
    6.7376   -2.8490   -1.1253 C   0  0  0  0  0  0  0  0  0  0  0  0
    7.4387   -1.1039    0.3892 C   0  0  0  0  0  0  0  0  0  0  0  0
    8.3199   -2.0002    1.0056 C   0  0  0  0  0  0  0  0  0  0  0  0
    8.4038   -3.3086    0.5500 C   0  0  0  0  0  0  0  0  0  0  0  0
    9.2488   -4.1638    1.1407 F   0  0  0  0  0  0  0  0  0  0  0  0
   -8.9510   -1.9814   -0.1896 C   0  0  0  0  0  0  0  0  0  0  0  0
   -7.0694    3.0742   -0.0108 C   0  0  0  0  0  0  0  0  0  0  0  0
   -6.8906   -2.5062    1.2136 H   0  0  0  0  0  0  0  0  0  0  0  0
   -4.8348    1.9548    0.6480 H   0  0  0  0  0  0  0  0  0  0  0  0
   -1.6526   -0.8156    2.9957 H   0  0  0  0  0  0  0  0  0  0  0  0
   -2.8786   -2.9763    3.1908 H   0  0  0  0  0  0  0  0  0  0  0  0
   -0.6969    2.8458    2.4805 H   0  0  0  0  0  0  0  0  0  0  0  0
   -1.9101   -0.0963   -0.4204 H   0  0  0  0  0  0  0  0  0  0  0  0
    0.2774    0.0039   -1.4669 H   0  0  0  0  0  0  0  0  0  0  0  0
    1.5234    2.9637    1.4296 H   0  0  0  0  0  0  0  0  0  0  0  0
    3.0094    2.2386   -0.1697 H   0  0  0  0  0  0  0  0  0  0  0  0
    5.5289    3.1014   -2.2055 H   0  0  0  0  0  0  0  0  0  0  0  0
    3.7818    3.2563   -2.6777 H   0  0  0  0  0  0  0  0  0  0  0  0
    5.7483    1.1172   -3.7224 H   0  0  0  0  0  0  0  0  0  0  0  0
    3.9908    1.2493   -4.1660 H   0  0  0  0  0  0  0  0  0  0  0  0
    5.1960   -1.1064   -2.1059 H   0  0  0  0  0  0  0  0  0  0  0  0
    7.6982   -4.7689   -0.8521 H   0  0  0  0  0  0  0  0  0  0  0  0
    6.1330   -3.2042   -1.9550 H   0  0  0  0  0  0  0  0  0  0  0  0
    7.4051   -0.0861    0.7654 H   0  0  0  0  0  0  0  0  0  0  0  0
    8.9418   -1.6757    1.8347 H   0  0  0  0  0  0  0  0  0  0  0  0
   -8.2744   -2.6342   -0.7490 H   0  0  0  0  0  0  0  0  0  0  0  0
   -9.1636   -2.3881    0.8047 H   0  0  0  0  0  0  0  0  0  0  0  0
   -9.8960   -1.9371   -0.7396 H   0  0  0  0  0  0  0  0  0  0  0  0
   -7.0179    3.2161    1.0745 H   0  0  0  0  0  0  0  0  0  0  0  0
   -6.1473    3.4131   -0.4930 H   0  0  0  0  0  0  0  0  0  0  0  0
   -7.8893    3.6915   -0.3890 H   0  0  0  0  0  0  0  0  0  0  0  0
  1  2  2  0
  1  6  1  0
  1 10  1  0
  2  3  1  0
  3  4  2  0
  4  5  1  0
  5  6  2  0
  6  7  1  0
  7  8  2  0
  8  9  1  0
  9 10  2  0
  3 11  1  0
  4 12  1  0
  7 13  1  0
 13 14  1  0
 15 14  2  0
 14 16  1  0
 15 19  1  0
 16 17  2  0
 17 18  1  0
 18 19  2  0
 18 20  1  0
 20 21  1  0
 21 22  2  0
 21 23  1  0
 23 24  1  0
 24 25  1  0
 25 23  1  0
 23 26  1  0
 26 27  1  0
 26 28  2  0
 27 29  1  0
 31 29  1  0
 29 32  2  0
 30 31  2  0
 30 34  1  0
 32 33  1  0
 33 34  2  0
 34 35  1  0
 11 36  1  0
 12 37  1  0
  2 38  1  0
  5 39  1  0
  8 40  1  0
  9 41  1  0
 15 42  1  0
 16 43  1  0
 17 44  1  0
 19 45  1  0
 20 46  1  0
 24 47  1  0
 24 48  1  0
 25 49  1  0
 25 50  1  0
 27 51  1  0
 30 52  1  0
 31 53  1  0
 32 54  1  0
 33 55  1  0
 36 56  1  0
 36 57  1  0
 36 58  1  0
 37 59  1  0
 37 60  1  0
 37 61  1  0
M  END
$$$$
