
     RDKit          3D

 61 65  0  0  0  0  0  0  0  0999 V2000
   -5.3881   -0.8255    1.4728 C   0  0  0  0  0  0  0  0  0  0  0  0
   -6.6952   -0.8948    1.0104 C   0  0  0  0  0  0  0  0  0  0  0  0
   -7.3063    0.1790    0.3509 C   0  0  0  0  0  0  0  0  0  0  0  0
   -6.5923    1.3737    0.1720 C   0  0  0  0  0  0  0  0  0  0  0  0
   -5.2695    1.4525    0.6108 C   0  0  0  0  0  0  0  0  0  0  0  0
   -4.6580    0.3599    1.2655 C   0  0  0  0  0  0  0  0  0  0  0  0
   -3.3284    0.3794    1.7311 C   0  0  0  0  0  0  0  0  0  0  0  0
   -2.7948   -0.7116    2.4034 C   0  0  0  0  0  0  0  0  0  0  0  0
   -3.5999   -1.8190    2.5568 C   0  0  0  0  0  0  0  0  0  0  0  0
   -4.8683   -1.8951    2.1010 N   0  0  0  0  0  0  0  0  0  0  0  0
   -8.5987    0.1639   -0.1189 O   0  0  0  0  0  0  0  0  0  0  0  0
   -7.2373    2.3925   -0.4762 O   0  0  0  0  0  0  0  0  0  0  0  0
   -2.5841    1.5330    1.5730 O   0  0  0  0  0  0  0  0  0  0  0  0
   -1.3561    1.4090    0.9612 C   0  0  0  0  0  0  0  0  0  0  0  0
   -1.1267    0.5958   -0.1502 C   0  0  0  0  0  0  0  0  0  0  0  0
   -0.3255    2.1968    1.4666 C   0  0  0  0  0  0  0  0  0  0  0  0
    0.9476    2.1356    0.8924 C   0  0  0  0  0  0  0  0  0  0  0  0
    1.1997    1.2878   -0.1943 C   0  0  0  0  0  0  0  0  0  0  0  0
    0.1505    0.5302   -0.7188 C   0  0  0  0  0  0  0  0  0  0  0  0
    2.5123    1.2620   -0.7038 N   0  0  0  0  0  0  0  0  0  0  0  0
    3.0298    0.3941   -1.6385 C   0  0  0  0  0  0  0  0  0  0  0  0
    2.4724   -0.5409   -2.1922 O   0  0  0  0  0  0  0  0  0  0  0  0
    4.4773    0.6441   -1.9318 C   0  0  0  0  0  0  0  0  0  0  0  0
    4.8457    1.9532   -2.6325 C   0  0  0  0  0  0  0  0  0  0  0  0
    4.9212    0.6675   -3.3944 C   0  0  0  0  0  0  0  0  0  0  0  0
    5.4305    0.1172   -0.9045 C   0  0  0  0  0  0  0  0  0  0  0  0
    5.7663   -1.2029   -1.0981 N   0  0  0  0  0  0  0  0  0  0  0  0
    5.7856    0.8634   -0.0048 O   0  0  0  0  0  0  0  0  0  0  0  0
    6.6163   -1.9993   -0.3065 C   0  0  0  0  0  0  0  0  0  0  0  0
    8.1099   -2.3938    1.5654 C   0  0  0  0  0  0  0  0  0  0  0  0
    7.2912   -1.5329    0.8257 C   0  0  0  0  0  0  0  0  0  0  0  0
    6.7799   -3.3392   -0.6928 C   0  0  0  0  0  0  0  0  0  0  0  0
    7.5980   -4.1979    0.0455 C   0  0  0  0  0  0  0  0  0  0  0  0
    8.2548   -3.7180    1.1698 C   0  0  0  0  0  0  0  0  0  0  0  0
    9.0350   -4.5429    1.8817 F   0  0  0  0  0  0  0  0  0  0  0  0
   -9.2298   -1.1045   -0.2308 C   0  0  0  0  0  0  0  0  0  0  0  0
   -6.7946    3.7098   -0.1757 C   0  0  0  0  0  0  0  0  0  0  0  0
   -7.2321   -1.8204    1.1954 H   0  0  0  0  0  0  0  0  0  0  0  0
   -4.6866    2.3527    0.4405 H   0  0  0  0  0  0  0  0  0  0  0  0
   -1.7877   -0.7004    2.8016 H   0  0  0  0  0  0  0  0  0  0  0  0
   -3.2382   -2.7057    3.0689 H   0  0  0  0  0  0  0  0  0  0  0  0
   -1.9285    0.0080   -0.5870 H   0  0  0  0  0  0  0  0  0  0  0  0
   -0.5071    2.8495    2.3181 H   0  0  0  0  0  0  0  0  0  0  0  0
    1.7386    2.7484    1.3197 H   0  0  0  0  0  0  0  0  0  0  0  0
    0.2903   -0.1148   -1.5796 H   0  0  0  0  0  0  0  0  0  0  0  0
    3.1811    1.8841   -0.2607 H   0  0  0  0  0  0  0  0  0  0  0  0
    4.0507    2.6474   -2.8863 H   0  0  0  0  0  0  0  0  0  0  0  0
    5.7783    2.4363   -2.3570 H   0  0  0  0  0  0  0  0  0  0  0  0
    4.1737    0.4894   -4.1623 H   0  0  0  0  0  0  0  0  0  0  0  0
    5.9056    0.2877   -3.6448 H   0  0  0  0  0  0  0  0  0  0  0  0
    5.3159   -1.6662   -1.8796 H   0  0  0  0  0  0  0  0  0  0  0  0
    8.6330   -2.0355    2.4465 H   0  0  0  0  0  0  0  0  0  0  0  0
    7.2012   -0.5039    1.1602 H   0  0  0  0  0  0  0  0  0  0  0  0
    6.2725   -3.7337   -1.5697 H   0  0  0  0  0  0  0  0  0  0  0  0
    7.7268   -5.2328   -0.2496 H   0  0  0  0  0  0  0  0  0  0  0  0
   -8.6216   -1.8053   -0.8119 H   0  0  0  0  0  0  0  0  0  0  0  0
   -9.4641   -1.5122    0.7569 H   0  0  0  0  0  0  0  0  0  0  0  0
  -10.1737   -0.9620   -0.7677 H   0  0  0  0  0  0  0  0  0  0  0  0
   -6.6826    3.8618    0.9012 H   0  0  0  0  0  0  0  0  0  0  0  0
   -7.5543    4.4092   -0.5338 H   0  0  0  0  0  0  0  0  0  0  0  0
   -5.8616    3.9362   -0.7022 H   0  0  0  0  0  0  0  0  0  0  0  0
  1  2  2  0
  1  6  1  0
  1 10  1  0
  2  3  1  0
  3  4  2  0
  4  5  1  0
  5  6  2  0
  6  7  1  0
  7  8  2  0
  8  9  1  0
  9 10  2  0
  3 11  1  0
  4 12  1  0
  7 13  1  0
 13 14  1  0
 15 14  2  0
 14 16  1  0
 15 19  1  0
 16 17  2  0
 17 18  1  0
 18 19  2  0
 18 20  1  0
 20 21  1  0
 21 22  2  0
 21 23  1  0
 23 24  1  0
 24 25  1  0
 25 23  1  0
 23 26  1  0
 26 27  1  0
 26 28  2  0
 27 29  1  0
 31 29  1  0
 29 32  2  0
 30 31  2  0
 30 34  1  0
 32 33  1  0
 33 34  2  0
 34 35  1  0
 11 36  1  0
 12 37  1  0
  2 38  1  0
  5 39  1  0
  8 40  1  0
  9 41  1  0
 15 42  1  0
 16 43  1  0
 17 44  1  0
 19 45  1  0
 20 46  1  0
 24 47  1  0
 24 48  1  0
 25 49  1  0
 25 50  1  0
 27 51  1  0
 30 52  1  0
 31 53  1  0
 32 54  1  0
 33 55  1  0
 36 56  1  0
 36 57  1  0
 36 58  1  0
 37 59  1  0
 37 60  1  0
 37 61  1  0
M  END
$$$$
