
     RDKit          3D

 61 65  0  0  0  0  0  0  0  0999 V2000
   -5.8769    0.2348   -1.0915 C   0  0  0  0  0  0  0  0  0  0  0  0
   -6.6234    1.2580   -0.5233 C   0  0  0  0  0  0  0  0  0  0  0  0
   -6.4349    1.6656    0.8029 C   0  0  0  0  0  0  0  0  0  0  0  0
   -5.4664    1.0244    1.5928 C   0  0  0  0  0  0  0  0  0  0  0  0
   -4.7109   -0.0090    1.0358 C   0  0  0  0  0  0  0  0  0  0  0  0
   -4.9052   -0.4089   -0.3054 C   0  0  0  0  0  0  0  0  0  0  0  0
   -4.1639   -1.4328   -0.9261 C   0  0  0  0  0  0  0  0  0  0  0  0
   -4.4154   -1.8053   -2.2416 C   0  0  0  0  0  0  0  0  0  0  0  0
   -5.3907   -1.1076   -2.9185 C   0  0  0  0  0  0  0  0  0  0  0  0
   -6.1116   -0.1034   -2.3730 N   0  0  0  0  0  0  0  0  0  0  0  0
   -7.1423    2.6721    1.4131 O   0  0  0  0  0  0  0  0  0  0  0  0
   -5.3380    1.4750    2.8824 O   0  0  0  0  0  0  0  0  0  0  0  0
   -3.2252   -2.1313   -0.1993 O   0  0  0  0  0  0  0  0  0  0  0  0
   -1.8973   -1.9395   -0.5126 C   0  0  0  0  0  0  0  0  0  0  0  0
   -1.0337   -2.9623   -0.1199 C   0  0  0  0  0  0  0  0  0  0  0  0
   -1.3764   -0.7987   -1.1253 C   0  0  0  0  0  0  0  0  0  0  0  0
    0.0004   -0.6918   -1.3611 C   0  0  0  0  0  0  0  0  0  0  0  0
    0.8681   -1.7160   -0.9762 C   0  0  0  0  0  0  0  0  0  0  0  0
    0.3396   -2.8535   -0.3547 C   0  0  0  0  0  0  0  0  0  0  0  0
    2.2622   -1.6788   -1.1670 N   0  0  0  0  0  0  0  0  0  0  0  0
    3.0136   -0.6422   -1.6767 C   0  0  0  0  0  0  0  0  0  0  0  0
    2.6321    0.4557   -2.0553 O   0  0  0  0  0  0  0  0  0  0  0  0
    4.4808   -0.9458   -1.7143 C   0  0  0  0  0  0  0  0  0  0  0  0
    5.2589   -0.5999   -2.9840 C   0  0  0  0  0  0  0  0  0  0  0  0
    4.9516   -2.0319   -2.6829 C   0  0  0  0  0  0  0  0  0  0  0  0
    5.1894   -0.8279   -0.3991 C   0  0  0  0  0  0  0  0  0  0  0  0
    5.5875    0.4590   -0.1075 N   0  0  0  0  0  0  0  0  0  0  0  0
    5.3211   -1.8346    0.2825 O   0  0  0  0  0  0  0  0  0  0  0  0
    6.2622    0.9085    1.0442 C   0  0  0  0  0  0  0  0  0  0  0  0
    7.3633    0.5880    3.1837 C   0  0  0  0  0  0  0  0  0  0  0  0
    6.6977    0.0641    2.0712 C   0  0  0  0  0  0  0  0  0  0  0  0
    6.5059    2.2858    1.1466 C   0  0  0  0  0  0  0  0  0  0  0  0
    7.1701    2.8090    2.2584 C   0  0  0  0  0  0  0  0  0  0  0  0
    7.5938    1.9541    3.2675 C   0  0  0  0  0  0  0  0  0  0  0  0
    8.2323    2.4538    4.3334 F   0  0  0  0  0  0  0  0  0  0  0  0
   -8.0883    3.3837    0.6279 C   0  0  0  0  0  0  0  0  0  0  0  0
   -4.3107    0.9054    3.6815 C   0  0  0  0  0  0  0  0  0  0  0  0
   -7.3661    1.7304   -1.1581 H   0  0  0  0  0  0  0  0  0  0  0  0
   -3.9575   -0.5254    1.6224 H   0  0  0  0  0  0  0  0  0  0  0  0
   -3.8694   -2.6105   -2.7182 H   0  0  0  0  0  0  0  0  0  0  0  0
   -5.6335   -1.3420   -3.9514 H   0  0  0  0  0  0  0  0  0  0  0  0
   -1.4282   -3.8465    0.3744 H   0  0  0  0  0  0  0  0  0  0  0  0
   -2.0148    0.0304   -1.4175 H   0  0  0  0  0  0  0  0  0  0  0  0
    0.3616    0.2120   -1.8424 H   0  0  0  0  0  0  0  0  0  0  0  0
    0.9874   -3.6657   -0.0330 H   0  0  0  0  0  0  0  0  0  0  0  0
    2.7843   -2.4836   -0.8341 H   0  0  0  0  0  0  0  0  0  0  0  0
    4.7215   -0.1235   -3.7977 H   0  0  0  0  0  0  0  0  0  0  0  0
    6.2902   -0.2774   -2.8936 H   0  0  0  0  0  0  0  0  0  0  0  0
    5.7683   -2.6753   -2.3717 H   0  0  0  0  0  0  0  0  0  0  0  0
    4.2155   -2.5298   -3.3043 H   0  0  0  0  0  0  0  0  0  0  0  0
    5.3215    1.1708   -0.7803 H   0  0  0  0  0  0  0  0  0  0  0  0
    7.7017   -0.0654    3.9816 H   0  0  0  0  0  0  0  0  0  0  0  0
    6.5374   -1.0088    2.0368 H   0  0  0  0  0  0  0  0  0  0  0  0
    6.1787    2.9710    0.3676 H   0  0  0  0  0  0  0  0  0  0  0  0
    7.3581    3.8744    2.3434 H   0  0  0  0  0  0  0  0  0  0  0  0
   -8.5297    4.1609    1.2584 H   0  0  0  0  0  0  0  0  0  0  0  0
   -8.8986    2.7269    0.2950 H   0  0  0  0  0  0  0  0  0  0  0  0
   -7.6057    3.8796   -0.2198 H   0  0  0  0  0  0  0  0  0  0  0  0
   -4.3225    1.4127    4.6514 H   0  0  0  0  0  0  0  0  0  0  0  0
   -3.3241    1.0679    3.2348 H   0  0  0  0  0  0  0  0  0  0  0  0
   -4.4956   -0.1589    3.8601 H   0  0  0  0  0  0  0  0  0  0  0  0
  1  2  2  0
  1  6  1  0
  1 10  1  0
  2  3  1  0
  3  4  2  0
  4  5  1  0
  5  6  2  0
  6  7  1  0
  7  8  2  0
  8  9  1  0
  9 10  2  0
  3 11  1  0
  4 12  1  0
  7 13  1  0
 13 14  1  0
 15 14  2  0
 14 16  1  0
 15 19  1  0
 16 17  2  0
 17 18  1  0
 18 19  2  0
 18 20  1  0
 20 21  1  0
 21 22  2  0
 21 23  1  0
 23 24  1  0
 24 25  1  0
 25 23  1  0
 23 26  1  0
 26 27  1  0
 26 28  2  0
 27 29  1  0
 31 29  1  0
 29 32  2  0
 30 31  2  0
 30 34  1  0
 32 33  1  0
 33 34  2  0
 34 35  1  0
 11 36  1  0
 12 37  1  0
  2 38  1  0
  5 39  1  0
  8 40  1  0
  9 41  1  0
 15 42  1  0
 16 43  1  0
 17 44  1  0
 19 45  1  0
 20 46  1  0
 24 47  1  0
 24 48  1  0
 25 49  1  0
 25 50  1  0
 27 51  1  0
 30 52  1  0
 31 53  1  0
 32 54  1  0
 33 55  1  0
 36 56  1  0
 36 57  1  0
 36 58  1  0
 37 59  1  0
 37 60  1  0
 37 61  1  0
M  END
$$$$
