
     RDKit          3D

 61 65  0  0  0  0  0  0  0  0999 V2000
    5.2951   -0.7665    2.0427 C   0  0  0  0  0  0  0  0  0  0  0  0
    6.6397   -0.4633    2.2044 C   0  0  0  0  0  0  0  0  0  0  0  0
    7.4651   -0.1432    1.1173 C   0  0  0  0  0  0  0  0  0  0  0  0
    6.9231   -0.1160   -0.1783 C   0  0  0  0  0  0  0  0  0  0  0  0
    5.5698   -0.4167   -0.3547 C   0  0  0  0  0  0  0  0  0  0  0  0
    4.7465   -0.7462    0.7470 C   0  0  0  0  0  0  0  0  0  0  0  0
    3.3767   -1.0629    0.6277 C   0  0  0  0  0  0  0  0  0  0  0  0
    2.6303   -1.4125    1.7496 C   0  0  0  0  0  0  0  0  0  0  0  0
    3.2677   -1.3926    2.9706 C   0  0  0  0  0  0  0  0  0  0  0  0
    4.5686   -1.0731    3.1330 N   0  0  0  0  0  0  0  0  0  0  0  0
    8.8017    0.1580    1.2194 O   0  0  0  0  0  0  0  0  0  0  0  0
    7.7910    0.2012   -1.1945 O   0  0  0  0  0  0  0  0  0  0  0  0
    2.8204   -1.0973   -0.6375 O   0  0  0  0  0  0  0  0  0  0  0  0
    1.5876   -0.5101   -0.8048 C   0  0  0  0  0  0  0  0  0  0  0  0
    1.2914    0.7716   -0.3435 C   0  0  0  0  0  0  0  0  0  0  0  0
    0.6368   -1.2277   -1.5258 C   0  0  0  0  0  0  0  0  0  0  0  0
   -0.6343   -0.6863   -1.7451 C   0  0  0  0  0  0  0  0  0  0  0  0
   -0.9565    0.5832   -1.2567 C   0  0  0  0  0  0  0  0  0  0  0  0
    0.0201    1.3113   -0.5651 C   0  0  0  0  0  0  0  0  0  0  0  0
   -2.2193    1.1868   -1.4141 N   0  0  0  0  0  0  0  0  0  0  0  0
   -3.3471    0.6294   -1.9771 C   0  0  0  0  0  0  0  0  0  0  0  0
   -3.4813   -0.4867   -2.4575 O   0  0  0  0  0  0  0  0  0  0  0  0
   -4.5499    1.5226   -1.9254 C   0  0  0  0  0  0  0  0  0  0  0  0
   -5.2439    1.8435   -3.2517 C   0  0  0  0  0  0  0  0  0  0  0  0
   -4.4593    2.9112   -2.5587 C   0  0  0  0  0  0  0  0  0  0  0  0
   -5.4472    1.3196   -0.7395 C   0  0  0  0  0  0  0  0  0  0  0  0
   -6.0509    0.0792   -0.7348 N   0  0  0  0  0  0  0  0  0  0  0  0
   -5.5530    2.2121    0.0870 O   0  0  0  0  0  0  0  0  0  0  0  0
   -6.9599   -0.4323    0.2100 C   0  0  0  0  0  0  0  0  0  0  0  0
   -8.2566   -2.3547    0.9458 C   0  0  0  0  0  0  0  0  0  0  0  0
   -7.3520   -1.7710    0.0541 C   0  0  0  0  0  0  0  0  0  0  0  0
   -7.4891    0.3134    1.2680 C   0  0  0  0  0  0  0  0  0  0  0  0
   -8.3996   -0.2708    2.1569 C   0  0  0  0  0  0  0  0  0  0  0  0
   -8.7732   -1.5985    1.9893 C   0  0  0  0  0  0  0  0  0  0  0  0
   -9.6492   -2.1544    2.8380 F   0  0  0  0  0  0  0  0  0  0  0  0
    9.4042    0.0644    2.5034 C   0  0  0  0  0  0  0  0  0  0  0  0
    7.2625    0.2940   -2.5105 C   0  0  0  0  0  0  0  0  0  0  0  0
    7.0263   -0.4901    3.2189 H   0  0  0  0  0  0  0  0  0  0  0  0
    5.1251   -0.4107   -1.3448 H   0  0  0  0  0  0  0  0  0  0  0  0
    1.5871   -1.6995    1.6808 H   0  0  0  0  0  0  0  0  0  0  0  0
    2.7369   -1.6472    3.8836 H   0  0  0  0  0  0  0  0  0  0  0  0
    2.0374    1.3556    0.1893 H   0  0  0  0  0  0  0  0  0  0  0  0
    0.8768   -2.2147   -1.9121 H   0  0  0  0  0  0  0  0  0  0  0  0
   -1.3462   -1.2832   -2.3060 H   0  0  0  0  0  0  0  0  0  0  0  0
   -0.1928    2.3068   -0.1831 H   0  0  0  0  0  0  0  0  0  0  0  0
   -2.3286    2.1159   -1.0197 H   0  0  0  0  0  0  0  0  0  0  0  0
   -4.8363    1.4130   -4.1589 H   0  0  0  0  0  0  0  0  0  0  0  0
   -6.3255    1.9365   -3.2595 H   0  0  0  0  0  0  0  0  0  0  0  0
   -5.0080    3.7236   -2.0922 H   0  0  0  0  0  0  0  0  0  0  0  0
   -3.5295    3.2215   -3.0230 H   0  0  0  0  0  0  0  0  0  0  0  0
   -5.7641   -0.5572   -1.4763 H   0  0  0  0  0  0  0  0  0  0  0  0
   -8.5611   -3.3909    0.8271 H   0  0  0  0  0  0  0  0  0  0  0  0
   -6.9559   -2.3779   -0.7590 H   0  0  0  0  0  0  0  0  0  0  0  0
   -7.2232    1.3549    1.4237 H   0  0  0  0  0  0  0  0  0  0  0  0
   -8.8183    0.3058    2.9769 H   0  0  0  0  0  0  0  0  0  0  0  0
    8.9763    0.7999    3.1937 H   0  0  0  0  0  0  0  0  0  0  0  0
   10.4704    0.2949    2.3912 H   0  0  0  0  0  0  0  0  0  0  0  0
    9.3254   -0.9524    2.9047 H   0  0  0  0  0  0  0  0  0  0  0  0
    6.5026    1.0825   -2.5759 H   0  0  0  0  0  0  0  0  0  0  0  0
    6.8648   -0.6713   -2.8473 H   0  0  0  0  0  0  0  0  0  0  0  0
    8.0842    0.5656   -3.1817 H   0  0  0  0  0  0  0  0  0  0  0  0
  1  2  2  0
  1  6  1  0
  1 10  1  0
  2  3  1  0
  3  4  2  0
  4  5  1  0
  5  6  2  0
  6  7  1  0
  7  8  2  0
  8  9  1  0
  9 10  2  0
  3 11  1  0
  4 12  1  0
  7 13  1  0
 13 14  1  0
 15 14  2  0
 14 16  1  0
 15 19  1  0
 16 17  2  0
 17 18  1  0
 18 19  2  0
 18 20  1  0
 20 21  1  0
 21 22  2  0
 21 23  1  0
 23 24  1  0
 24 25  1  0
 25 23  1  0
 23 26  1  0
 26 27  1  0
 26 28  2  0
 27 29  1  0
 31 29  1  0
 29 32  2  0
 30 31  2  0
 30 34  1  0
 32 33  1  0
 33 34  2  0
 34 35  1  0
 11 36  1  0
 12 37  1  0
  2 38  1  0
  5 39  1  0
  8 40  1  0
  9 41  1  0
 15 42  1  0
 16 43  1  0
 17 44  1  0
 19 45  1  0
 20 46  1  0
 24 47  1  0
 24 48  1  0
 25 49  1  0
 25 50  1  0
 27 51  1  0
 30 52  1  0
 31 53  1  0
 32 54  1  0
 33 55  1  0
 36 56  1  0
 36 57  1  0
 36 58  1  0
 37 59  1  0
 37 60  1  0
 37 61  1  0
M  END
$$$$
