
     RDKit          3D

 61 65  0  0  0  0  0  0  0  0999 V2000
    5.8993   -0.0416   -0.9145 C   0  0  0  0  0  0  0  0  0  0  0  0
    6.6346    1.1076   -0.6563 C   0  0  0  0  0  0  0  0  0  0  0  0
    6.4283    1.8766    0.4960 C   0  0  0  0  0  0  0  0  0  0  0  0
    5.4549    1.4810    1.4285 C   0  0  0  0  0  0  0  0  0  0  0  0
    4.7068    0.3291    1.1803 C   0  0  0  0  0  0  0  0  0  0  0  0
    4.9188   -0.4372    0.0122 C   0  0  0  0  0  0  0  0  0  0  0  0
    4.1855   -1.5984   -0.2980 C   0  0  0  0  0  0  0  0  0  0  0  0
    4.4549   -2.3318   -1.4478 C   0  0  0  0  0  0  0  0  0  0  0  0
    5.4390   -1.8551   -2.2842 C   0  0  0  0  0  0  0  0  0  0  0  0
    6.1514   -0.7332   -2.0416 N   0  0  0  0  0  0  0  0  0  0  0  0
    7.1291    3.0171    0.8017 O   0  0  0  0  0  0  0  0  0  0  0  0
    5.3128    2.2771    2.5358 O   0  0  0  0  0  0  0  0  0  0  0  0
    3.2296   -2.0582    0.5808 O   0  0  0  0  0  0  0  0  0  0  0  0
    1.9121   -1.9738    0.1866 C   0  0  0  0  0  0  0  0  0  0  0  0
    1.4084   -1.0139   -0.6925 C   0  0  0  0  0  0  0  0  0  0  0  0
    1.0423   -2.8918    0.7739 C   0  0  0  0  0  0  0  0  0  0  0  0
   -0.3223   -2.8659    0.4650 C   0  0  0  0  0  0  0  0  0  0  0  0
   -0.8330   -1.9134   -0.4259 C   0  0  0  0  0  0  0  0  0  0  0  0
    0.0418   -0.9902   -1.0018 C   0  0  0  0  0  0  0  0  0  0  0  0
   -2.2178   -1.9478   -0.6797 N   0  0  0  0  0  0  0  0  0  0  0  0
   -2.9503   -1.0792   -1.4603 C   0  0  0  0  0  0  0  0  0  0  0  0
   -2.5579   -0.1034   -2.0840 O   0  0  0  0  0  0  0  0  0  0  0  0
   -4.4131   -1.4041   -1.4849 C   0  0  0  0  0  0  0  0  0  0  0  0
   -5.1269   -1.3992   -2.8366 C   0  0  0  0  0  0  0  0  0  0  0  0
   -4.8379   -2.7052   -2.1681 C   0  0  0  0  0  0  0  0  0  0  0  0
   -5.1785   -0.9676   -0.2721 C   0  0  0  0  0  0  0  0  0  0  0  0
   -5.6495    0.3216   -0.3589 N   0  0  0  0  0  0  0  0  0  0  0  0
   -5.2963   -1.7550    0.6555 O   0  0  0  0  0  0  0  0  0  0  0  0
   -6.3391    1.0563    0.6257 C   0  0  0  0  0  0  0  0  0  0  0  0
   -7.4307    3.1496    1.2117 C   0  0  0  0  0  0  0  0  0  0  0  0
   -6.7561    2.3526    0.2840 C   0  0  0  0  0  0  0  0  0  0  0  0
   -6.6118    0.5716    1.9087 C   0  0  0  0  0  0  0  0  0  0  0  0
   -7.2821    1.3719    2.8394 C   0  0  0  0  0  0  0  0  0  0  0  0
   -7.6824    2.6523    2.4848 C   0  0  0  0  0  0  0  0  0  0  0  0
   -8.3209    3.4168    3.3782 F   0  0  0  0  0  0  0  0  0  0  0  0
    8.0045    3.5342   -0.1914 C   0  0  0  0  0  0  0  0  0  0  0  0
    4.2871    1.9471    3.4594 C   0  0  0  0  0  0  0  0  0  0  0  0
    7.3848    1.3826   -1.3916 H   0  0  0  0  0  0  0  0  0  0  0  0
    3.9454   -0.0006    1.8796 H   0  0  0  0  0  0  0  0  0  0  0  0
    3.9136   -3.2399   -1.6825 H   0  0  0  0  0  0  0  0  0  0  0  0
    5.6949   -2.3765   -3.2027 H   0  0  0  0  0  0  0  0  0  0  0  0
    2.0523   -0.2639   -1.1436 H   0  0  0  0  0  0  0  0  0  0  0  0
    1.4237   -3.6295    1.4754 H   0  0  0  0  0  0  0  0  0  0  0  0
   -0.9767   -3.5942    0.9397 H   0  0  0  0  0  0  0  0  0  0  0  0
   -0.3042   -0.2289   -1.6943 H   0  0  0  0  0  0  0  0  0  0  0  0
   -2.7483   -2.6601   -0.1892 H   0  0  0  0  0  0  0  0  0  0  0  0
   -4.5486   -1.1396   -3.7177 H   0  0  0  0  0  0  0  0  0  0  0  0
   -6.1617   -1.0791   -2.8837 H   0  0  0  0  0  0  0  0  0  0  0  0
   -5.6721   -3.2567   -1.7461 H   0  0  0  0  0  0  0  0  0  0  0  0
   -4.0707   -3.3365   -2.6037 H   0  0  0  0  0  0  0  0  0  0  0  0
   -5.4518    0.8117   -1.2263 H   0  0  0  0  0  0  0  0  0  0  0  0
   -7.7515    4.1493    0.9528 H   0  0  0  0  0  0  0  0  0  0  0  0
   -6.5622    2.7581   -0.7066 H   0  0  0  0  0  0  0  0  0  0  0  0
   -6.3091   -0.4217    2.2215 H   0  0  0  0  0  0  0  0  0  0  0  0
   -7.4881    1.0005    3.8389 H   0  0  0  0  0  0  0  0  0  0  0  0
    8.8388    2.8508   -0.3743 H   0  0  0  0  0  0  0  0  0  0  0  0
    7.4646    3.7572   -1.1185 H   0  0  0  0  0  0  0  0  0  0  0  0
    8.4211    4.4722    0.1876 H   0  0  0  0  0  0  0  0  0  0  0  0
    4.3069    2.6910    4.2613 H   0  0  0  0  0  0  0  0  0  0  0  0
    4.4623    0.9644    3.9126 H   0  0  0  0  0  0  0  0  0  0  0  0
    3.3024    1.9929    2.9848 H   0  0  0  0  0  0  0  0  0  0  0  0
  1  2  2  0
  1  6  1  0
  1 10  1  0
  2  3  1  0
  3  4  2  0
  4  5  1  0
  5  6  2  0
  6  7  1  0
  7  8  2  0
  8  9  1  0
  9 10  2  0
  3 11  1  0
  4 12  1  0
  7 13  1  0
 13 14  1  0
 15 14  2  0
 14 16  1  0
 15 19  1  0
 16 17  2  0
 17 18  1  0
 18 19  2  0
 18 20  1  0
 20 21  1  0
 21 22  2  0
 21 23  1  0
 23 24  1  0
 24 25  1  0
 25 23  1  0
 23 26  1  0
 26 27  1  0
 26 28  2  0
 27 29  1  0
 31 29  1  0
 29 32  2  0
 30 31  2  0
 30 34  1  0
 32 33  1  0
 33 34  2  0
 34 35  1  0
 11 36  1  0
 12 37  1  0
  2 38  1  0
  5 39  1  0
  8 40  1  0
  9 41  1  0
 15 42  1  0
 16 43  1  0
 17 44  1  0
 19 45  1  0
 20 46  1  0
 24 47  1  0
 24 48  1  0
 25 49  1  0
 25 50  1  0
 27 51  1  0
 30 52  1  0
 31 53  1  0
 32 54  1  0
 33 55  1  0
 36 56  1  0
 36 57  1  0
 36 58  1  0
 37 59  1  0
 37 60  1  0
 37 61  1  0
M  END
$$$$
