
     RDKit          3D

 61 65  0  0  0  0  0  0  0  0999 V2000
   -6.1560    0.9155   -0.4061 C   0  0  0  0  0  0  0  0  0  0  0  0
   -7.4251    0.5003   -0.0247 C   0  0  0  0  0  0  0  0  0  0  0  0
   -7.6960   -0.8252    0.3286 C   0  0  0  0  0  0  0  0  0  0  0  0
   -6.6572   -1.7689    0.3152 C   0  0  0  0  0  0  0  0  0  0  0  0
   -5.3751   -1.3654   -0.0674 C   0  0  0  0  0  0  0  0  0  0  0  0
   -5.1097   -0.0263   -0.4356 C   0  0  0  0  0  0  0  0  0  0  0  0
   -3.8358    0.4323   -0.8392 C   0  0  0  0  0  0  0  0  0  0  0  0
   -3.6590    1.7650   -1.2002 C   0  0  0  0  0  0  0  0  0  0  0  0
   -4.7520    2.6030   -1.1285 C   0  0  0  0  0  0  0  0  0  0  0  0
   -5.9802    2.2050   -0.7405 N   0  0  0  0  0  0  0  0  0  0  0  0
   -8.9332   -1.2917    0.7021 O   0  0  0  0  0  0  0  0  0  0  0  0
   -6.9957   -3.0450    0.6832 O   0  0  0  0  0  0  0  0  0  0  0  0
   -2.8264   -0.5134   -0.9131 O   0  0  0  0  0  0  0  0  0  0  0  0
   -1.5278   -0.0782   -0.8672 C   0  0  0  0  0  0  0  0  0  0  0  0
   -0.9731    0.4007    0.3142 C   0  0  0  0  0  0  0  0  0  0  0  0
   -0.7481   -0.2028   -2.0133 C   0  0  0  0  0  0  0  0  0  0  0  0
    0.5882    0.1994   -1.9861 C   0  0  0  0  0  0  0  0  0  0  0  0
    1.1567    0.7068   -0.8108 C   0  0  0  0  0  0  0  0  0  0  0  0
    0.3674    0.7994    0.3392 C   0  0  0  0  0  0  0  0  0  0  0  0
    2.5089    1.0949   -0.8691 N   0  0  0  0  0  0  0  0  0  0  0  0
    3.2898    1.5808    0.1572 C   0  0  0  0  0  0  0  0  0  0  0  0
    2.9831    1.7414    1.3297 O   0  0  0  0  0  0  0  0  0  0  0  0
    4.6836    1.9243   -0.2743 C   0  0  0  0  0  0  0  0  0  0  0  0
    4.8571    3.0790   -1.2646 C   0  0  0  0  0  0  0  0  0  0  0  0
    5.2565    3.2749    0.1630 C   0  0  0  0  0  0  0  0  0  0  0  0
    5.6228    0.7633   -0.3919 C   0  0  0  0  0  0  0  0  0  0  0  0
    6.2241    0.4253    0.7995 N   0  0  0  0  0  0  0  0  0  0  0  0
    5.7513    0.2284   -1.4840 O   0  0  0  0  0  0  0  0  0  0  0  0
    7.1620   -0.5993    1.0277 C   0  0  0  0  0  0  0  0  0  0  0  0
    8.6126   -2.4133    0.3320 C   0  0  0  0  0  0  0  0  0  0  0  0
    7.6842   -1.4137    0.0219 C   0  0  0  0  0  0  0  0  0  0  0  0
    7.5886   -0.7948    2.3498 C   0  0  0  0  0  0  0  0  0  0  0  0
    8.5184   -1.7895    2.6594 C   0  0  0  0  0  0  0  0  0  0  0  0
    9.0204   -2.5910    1.6469 C   0  0  0  0  0  0  0  0  0  0  0  0
    9.9118   -3.5476    1.9421 F   0  0  0  0  0  0  0  0  0  0  0  0
  -10.0227   -0.3801    0.6473 C   0  0  0  0  0  0  0  0  0  0  0  0
   -5.9663   -4.0213    0.7042 C   0  0  0  0  0  0  0  0  0  0  0  0
   -8.2055    1.2537   -0.0181 H   0  0  0  0  0  0  0  0  0  0  0  0
   -4.5553   -2.0763   -0.0906 H   0  0  0  0  0  0  0  0  0  0  0  0
   -2.7094    2.1568   -1.5347 H   0  0  0  0  0  0  0  0  0  0  0  0
   -4.6688    3.6523   -1.3970 H   0  0  0  0  0  0  0  0  0  0  0  0
   -1.5714    0.4592    1.2207 H   0  0  0  0  0  0  0  0  0  0  0  0
   -1.1746   -0.6118   -2.9217 H   0  0  0  0  0  0  0  0  0  0  0  0
    1.1781    0.0995   -2.8930 H   0  0  0  0  0  0  0  0  0  0  0  0
    0.7675    1.1693    1.2769 H   0  0  0  0  0  0  0  0  0  0  0  0
    2.9747    0.9780   -1.7658 H   0  0  0  0  0  0  0  0  0  0  0  0
    3.9682    3.5901   -1.6197 H   0  0  0  0  0  0  0  0  0  0  0  0
    5.6432    3.0034   -2.0099 H   0  0  0  0  0  0  0  0  0  0  0  0
    6.3166    3.3452    0.3846 H   0  0  0  0  0  0  0  0  0  0  0  0
    4.6367    3.9209    0.7760 H   0  0  0  0  0  0  0  0  0  0  0  0
    5.9233    0.9490    1.6133 H   0  0  0  0  0  0  0  0  0  0  0  0
    9.0192   -3.0509   -0.4449 H   0  0  0  0  0  0  0  0  0  0  0  0
    7.3885   -1.3002   -1.0176 H   0  0  0  0  0  0  0  0  0  0  0  0
    7.2009   -0.1799    3.1568 H   0  0  0  0  0  0  0  0  0  0  0  0
    8.8501   -1.9442    3.6814 H   0  0  0  0  0  0  0  0  0  0  0  0
  -10.9268   -0.9245    0.9302 H   0  0  0  0  0  0  0  0  0  0  0  0
  -10.1689    0.0014   -0.3682 H   0  0  0  0  0  0  0  0  0  0  0  0
   -9.8911    0.4363    1.3631 H   0  0  0  0  0  0  0  0  0  0  0  0
   -5.1824   -3.7548    1.4198 H   0  0  0  0  0  0  0  0  0  0  0  0
   -6.4080   -4.9662    1.0330 H   0  0  0  0  0  0  0  0  0  0  0  0
   -5.5532   -4.1788   -0.2956 H   0  0  0  0  0  0  0  0  0  0  0  0
  1  2  2  0
  1  6  1  0
  1 10  1  0
  2  3  1  0
  3  4  2  0
  4  5  1  0
  5  6  2  0
  6  7  1  0
  7  8  2  0
  8  9  1  0
  9 10  2  0
  3 11  1  0
  4 12  1  0
  7 13  1  0
 13 14  1  0
 15 14  2  0
 14 16  1  0
 15 19  1  0
 16 17  2  0
 17 18  1  0
 18 19  2  0
 18 20  1  0
 20 21  1  0
 21 22  2  0
 21 23  1  0
 23 24  1  0
 24 25  1  0
 25 23  1  0
 23 26  1  0
 26 27  1  0
 26 28  2  0
 27 29  1  0
 31 29  1  0
 29 32  2  0
 30 31  2  0
 30 34  1  0
 32 33  1  0
 33 34  2  0
 34 35  1  0
 11 36  1  0
 12 37  1  0
  2 38  1  0
  5 39  1  0
  8 40  1  0
  9 41  1  0
 15 42  1  0
 16 43  1  0
 17 44  1  0
 19 45  1  0
 20 46  1  0
 24 47  1  0
 24 48  1  0
 25 49  1  0
 25 50  1  0
 27 51  1  0
 30 52  1  0
 31 53  1  0
 32 54  1  0
 33 55  1  0
 36 56  1  0
 36 57  1  0
 36 58  1  0
 37 59  1  0
 37 60  1  0
 37 61  1  0
M  END
$$$$
