
     RDKit          3D

 37 41  0  0  0  0  0  0  0  0999 V2000
   -5.7142   -1.7293   -0.6819 C   0  0  0  0  0  0  0  0  0  0  0  0
   -7.0904   -1.7154   -0.6306 C   0  0  0  0  0  0  0  0  0  0  0  0
   -7.6878   -0.6153   -0.0509 C   0  0  0  0  0  0  0  0  0  0  0  0
   -6.9550    0.4334    0.4599 C   0  0  0  0  0  0  0  0  0  0  0  0
   -5.5771    0.4054    0.4013 C   0  0  0  0  0  0  0  0  0  0  0  0
   -4.9524   -0.6776   -0.1706 C   0  0  0  0  0  0  0  0  0  0  0  0
   -3.5665   -0.7514   -0.2526 C   0  0  0  0  0  0  0  0  0  0  0  0
   -2.9882   -1.8586   -0.8351 C   0  0  0  0  0  0  0  0  0  0  0  0
   -3.7655   -2.8834   -1.3322 C   0  0  0  0  0  0  0  0  0  0  0  0
   -5.1109   -2.8017   -1.2475 N   0  0  0  0  0  0  0  0  0  0  0  0
   -9.0592   -0.5853    0.0085 O   0  0  0  0  0  0  0  0  0  0  0  0
   -7.6537    1.4940    1.0227 O   0  0  0  0  0  0  0  0  0  0  0  0
   -2.7620    0.2703    0.2422 O   0  0  0  0  0  0  0  0  0  0  0  0
   -1.3877    0.1110    0.1176 C   0  0  0  0  0  0  0  0  0  0  0  0
   -0.5173    1.0900    0.5870 C   0  0  0  0  0  0  0  0  0  0  0  0
   -0.8028   -0.9954   -0.4627 C   0  0  0  0  0  0  0  0  0  0  0  0
    0.5654   -1.1464   -0.5828 C   0  0  0  0  0  0  0  0  0  0  0  0
    1.3945   -0.1703   -0.1136 C   0  0  0  0  0  0  0  0  0  0  0  0
    0.8533    0.9504    0.4725 C   0  0  0  0  0  0  0  0  0  0  0  0
    2.8016   -0.3141   -0.2314 N   0  0  0  0  0  0  0  0  0  0  0  0
    3.3791   -1.4551   -0.8281 C   0  0  0  0  0  0  0  0  0  0  0  0
    2.6593   -2.4050   -1.2864 O   0  0  0  0  0  0  0  0  0  0  0  0
    4.8468   -1.6306   -0.9641 C   0  0  0  0  0  0  0  0  0  0  0  0
    5.4571   -3.0006   -0.9021 C   0  0  0  0  0  0  0  0  0  0  0  0
    5.3920   -2.2531   -2.2321 C   0  0  0  0  0  0  0  0  0  0  0  0
    5.7140   -0.5424   -0.4414 C   0  0  0  0  0  0  0  0  0  0  0  0
    5.1158    0.5958    0.1538 N   0  0  0  0  0  0  0  0  0  0  0  0
    6.9710   -0.5716   -0.4966 O   0  0  0  0  0  0  0  0  0  0  0  0
    5.8399    1.6991    0.6886 C   0  0  0  0  0  0  0  0  0  0  0  0
    6.9626    2.8344    2.5296 C   0  0  0  0  0  0  0  0  0  0  0  0
    6.2573    1.7640    2.0010 C   0  0  0  0  0  0  0  0  0  0  0  0
    6.1453    2.7661   -0.1438 C   0  0  0  0  0  0  0  0  0  0  0  0
    6.8524    3.8684    0.3346 C   0  0  0  0  0  0  0  0  0  0  0  0
    7.2488    3.8876    1.6558 C   0  0  0  0  0  0  0  0  0  0  0  0
    7.9381    4.9340    2.1718 F   0  0  0  0  0  0  0  0  0  0  0  0
   -9.8968   -1.5923   -0.4777 C   0  0  0  0  0  0  0  0  0  0  0  0
   -6.9067    2.5911    1.5575 C   0  0  0  0  0  0  0  0  0  0  0  0
  1  2  2  0
  1  6  1  0
  1 10  1  0
  2  3  1  0
  3  4  2  0
  4  5  1  0
  5  6  2  0
  6  7  1  0
  7  8  2  0
  8  9  1  0
  9 10  2  0
  3 11  1  0
  4 12  1  0
  7 13  1  0
 13 14  1  0
 15 14  2  0
 14 16  1  0
 15 19  1  0
 16 17  2  0
 17 18  1  0
 18 19  2  0
 18 20  1  0
 20 21  1  0
 21 22  2  0
 21 23  1  0
 23 24  1  0
 24 25  1  0
 25 23  1  0
 23 26  1  0
 26 27  1  0
 26 28  2  0
 27 29  1  0
 31 29  1  0
 29 32  2  0
 30 31  2  0
 30 34  1  0
 32 33  1  0
 33 34  2  0
 34 35  1  0
 11 36  1  0
 12 37  1  0
M  END
