
     RDKit          3D

 61 65  0  0  0  0  0  0  0  0999 V2000
   -4.8603    2.0134    0.9195 C   0  0  0  0  0  0  0  0  0  0  0  0
   -6.1827    2.1470    0.5186 C   0  0  0  0  0  0  0  0  0  0  0  0
   -7.0385    1.0449    0.4017 C   0  0  0  0  0  0  0  0  0  0  0  0
   -6.5528   -0.2419    0.6870 C   0  0  0  0  0  0  0  0  0  0  0  0
   -5.2268   -0.3912    1.0974 C   0  0  0  0  0  0  0  0  0  0  0  0
   -4.3719    0.7282    1.2188 C   0  0  0  0  0  0  0  0  0  0  0  0
   -3.0263    0.6364    1.6263 C   0  0  0  0  0  0  0  0  0  0  0  0
   -2.2424    1.7819    1.7497 C   0  0  0  0  0  0  0  0  0  0  0  0
   -2.8185    2.9877    1.4221 C   0  0  0  0  0  0  0  0  0  0  0  0
   -4.0983    3.1185    1.0115 N   0  0  0  0  0  0  0  0  0  0  0  0
   -8.3536    1.1203    0.0144 O   0  0  0  0  0  0  0  0  0  0  0  0
   -7.4473   -1.2731    0.5489 O   0  0  0  0  0  0  0  0  0  0  0  0
   -2.5314   -0.6043    1.9783 O   0  0  0  0  0  0  0  0  0  0  0  0
   -1.3083   -0.9625    1.4635 C   0  0  0  0  0  0  0  0  0  0  0  0
   -1.0022   -0.8567    0.1067 C   0  0  0  0  0  0  0  0  0  0  0  0
   -0.3820   -1.5031    2.3505 C   0  0  0  0  0  0  0  0  0  0  0  0
    0.8777   -1.8887    1.8872 C   0  0  0  0  0  0  0  0  0  0  0  0
    1.2151   -1.7474    0.5346 C   0  0  0  0  0  0  0  0  0  0  0  0
    0.2600   -1.2461   -0.3533 C   0  0  0  0  0  0  0  0  0  0  0  0
    2.5229   -2.1108    0.1591 N   0  0  0  0  0  0  0  0  0  0  0  0
    3.1155   -1.9419   -1.0736 C   0  0  0  0  0  0  0  0  0  0  0  0
    2.6193   -1.4970   -2.0998 O   0  0  0  0  0  0  0  0  0  0  0  0
    4.5751   -2.2811   -1.0817 C   0  0  0  0  0  0  0  0  0  0  0  0
    5.0874   -3.2074   -2.1852 C   0  0  0  0  0  0  0  0  0  0  0  0
    4.9910   -3.7205   -0.7837 C   0  0  0  0  0  0  0  0  0  0  0  0
    5.4796   -1.1635   -0.6496 C   0  0  0  0  0  0  0  0  0  0  0  0
    5.4934   -0.1113   -1.5412 N   0  0  0  0  0  0  0  0  0  0  0  0
    6.0754   -1.2614    0.4138 O   0  0  0  0  0  0  0  0  0  0  0  0
    6.1424    1.1284   -1.3980 C   0  0  0  0  0  0  0  0  0  0  0  0
    6.5342    3.3362   -2.3403 C   0  0  0  0  0  0  0  0  0  0  0  0
    5.9486    2.0700   -2.4205 C   0  0  0  0  0  0  0  0  0  0  0  0
    6.9408    1.4698   -0.3015 C   0  0  0  0  0  0  0  0  0  0  0  0
    7.5252    2.7383   -0.2211 C   0  0  0  0  0  0  0  0  0  0  0  0
    7.3146    3.6607   -1.2381 C   0  0  0  0  0  0  0  0  0  0  0  0
    7.8627    4.8799   -1.1539 F   0  0  0  0  0  0  0  0  0  0  0  0
   -8.8892    2.4057   -0.2671 C   0  0  0  0  0  0  0  0  0  0  0  0
   -6.9576   -2.5988    0.7201 C   0  0  0  0  0  0  0  0  0  0  0  0
   -6.5281    3.1527    0.3008 H   0  0  0  0  0  0  0  0  0  0  0  0
   -4.8303   -1.3727    1.3374 H   0  0  0  0  0  0  0  0  0  0  0  0
   -1.2156    1.7393    2.0915 H   0  0  0  0  0  0  0  0  0  0  0  0
   -2.2562    3.9149    1.4887 H   0  0  0  0  0  0  0  0  0  0  0  0
   -1.7322   -0.4720   -0.6033 H   0  0  0  0  0  0  0  0  0  0  0  0
   -0.6313   -1.6058    3.4024 H   0  0  0  0  0  0  0  0  0  0  0  0
    1.5929   -2.2860    2.6016 H   0  0  0  0  0  0  0  0  0  0  0  0
    0.4659   -1.1406   -1.4142 H   0  0  0  0  0  0  0  0  0  0  0  0
    3.1291   -2.4377    0.9036 H   0  0  0  0  0  0  0  0  0  0  0  0
    6.0781   -3.0290   -2.5911 H   0  0  0  0  0  0  0  0  0  0  0  0
    4.3741   -3.5778   -2.9148 H   0  0  0  0  0  0  0  0  0  0  0  0
    4.2217   -4.4556   -0.5713 H   0  0  0  0  0  0  0  0  0  0  0  0
    5.9156   -3.8838   -0.2387 H   0  0  0  0  0  0  0  0  0  0  0  0
    4.8928   -0.2098   -2.3562 H   0  0  0  0  0  0  0  0  0  0  0  0
    6.3806    4.0685   -3.1261 H   0  0  0  0  0  0  0  0  0  0  0  0
    5.3348    1.8334   -3.2876 H   0  0  0  0  0  0  0  0  0  0  0  0
    7.1215    0.7757    0.5141 H   0  0  0  0  0  0  0  0  0  0  0  0
    8.1395    3.0094    0.6327 H   0  0  0  0  0  0  0  0  0  0  0  0
   -8.8610    3.0521    0.6179 H   0  0  0  0  0  0  0  0  0  0  0  0
   -9.9385    2.2748   -0.5479 H   0  0  0  0  0  0  0  0  0  0  0  0
   -8.3760    2.8712   -1.1145 H   0  0  0  0  0  0  0  0  0  0  0  0
   -6.1579   -2.8238    0.0032 H   0  0  0  0  0  0  0  0  0  0  0  0
   -6.6258   -2.7669    1.7523 H   0  0  0  0  0  0  0  0  0  0  0  0
   -7.7845   -3.2887    0.5224 H   0  0  0  0  0  0  0  0  0  0  0  0
  1  2  2  0
  1  6  1  0
  1 10  1  0
  2  3  1  0
  3  4  2  0
  4  5  1  0
  5  6  2  0
  6  7  1  0
  7  8  2  0
  8  9  1  0
  9 10  2  0
  3 11  1  0
  4 12  1  0
  7 13  1  0
 13 14  1  0
 15 14  2  0
 14 16  1  0
 15 19  1  0
 16 17  2  0
 17 18  1  0
 18 19  2  0
 18 20  1  0
 20 21  1  0
 21 22  2  0
 21 23  1  0
 23 24  1  0
 24 25  1  0
 25 23  1  0
 23 26  1  0
 26 27  1  0
 26 28  2  0
 27 29  1  0
 31 29  1  0
 29 32  2  0
 30 31  2  0
 30 34  1  0
 32 33  1  0
 33 34  2  0
 34 35  1  0
 11 36  1  0
 12 37  1  0
  2 38  1  0
  5 39  1  0
  8 40  1  0
  9 41  1  0
 15 42  1  0
 16 43  1  0
 17 44  1  0
 19 45  1  0
 20 46  1  0
 24 47  1  0
 24 48  1  0
 25 49  1  0
 25 50  1  0
 27 51  1  0
 30 52  1  0
 31 53  1  0
 32 54  1  0
 33 55  1  0
 36 56  1  0
 36 57  1  0
 36 58  1  0
 37 59  1  0
 37 60  1  0
 37 61  1  0
M  END
$$$$
