
     RDKit          3D

 61 65  0  0  0  0  0  0  0  0999 V2000
   -5.4513   -0.9562   -2.0168 C   0  0  0  0  0  0  0  0  0  0  0  0
   -6.1383    0.2266   -2.2479 C   0  0  0  0  0  0  0  0  0  0  0  0
   -6.0201    1.3307   -1.3968 C   0  0  0  0  0  0  0  0  0  0  0  0
   -5.1817    1.2475   -0.2724 C   0  0  0  0  0  0  0  0  0  0  0  0
   -4.4799    0.0676   -0.0307 C   0  0  0  0  0  0  0  0  0  0  0  0
   -4.6052   -1.0403   -0.8972 C   0  0  0  0  0  0  0  0  0  0  0  0
   -3.9217   -2.2567   -0.7109 C   0  0  0  0  0  0  0  0  0  0  0  0
   -4.1196   -3.3297   -1.5693 C   0  0  0  0  0  0  0  0  0  0  0  0
   -4.9725   -3.1364   -2.6326 C   0  0  0  0  0  0  0  0  0  0  0  0
   -5.6246   -1.9791   -2.8703 N   0  0  0  0  0  0  0  0  0  0  0  0
   -6.6819    2.5242   -1.5749 O   0  0  0  0  0  0  0  0  0  0  0  0
   -5.1131    2.3625    0.5198 O   0  0  0  0  0  0  0  0  0  0  0  0
   -3.0891   -2.4317    0.3683 O   0  0  0  0  0  0  0  0  0  0  0  0
   -1.7368   -2.2390    0.1793 C   0  0  0  0  0  0  0  0  0  0  0  0
   -1.1271   -1.8220   -1.0036 C   0  0  0  0  0  0  0  0  0  0  0  0
   -0.9432   -2.4772    1.3041 C   0  0  0  0  0  0  0  0  0  0  0  0
    0.4439   -2.3023    1.2507 C   0  0  0  0  0  0  0  0  0  0  0  0
    1.0549   -1.8881    0.0672 C   0  0  0  0  0  0  0  0  0  0  0  0
    0.2597   -1.6572   -1.0593 C   0  0  0  0  0  0  0  0  0  0  0  0
    2.4437   -1.7064   -0.0797 N   0  0  0  0  0  0  0  0  0  0  0  0
    3.4029   -1.7600    0.9056 C   0  0  0  0  0  0  0  0  0  0  0  0
    3.2366   -1.8938    2.1096 O   0  0  0  0  0  0  0  0  0  0  0  0
    4.7968   -1.5725    0.3849 C   0  0  0  0  0  0  0  0  0  0  0  0
    5.3307   -2.6365   -0.5720 C   0  0  0  0  0  0  0  0  0  0  0  0
    5.8658   -2.5676    0.8157 C   0  0  0  0  0  0  0  0  0  0  0  0
    5.2296   -0.1502    0.1687 C   0  0  0  0  0  0  0  0  0  0  0  0
    5.1429    0.6355    1.2960 N   0  0  0  0  0  0  0  0  0  0  0  0
    5.5874    0.1930   -0.9497 O   0  0  0  0  0  0  0  0  0  0  0  0
    5.4481    2.0103    1.4149 C   0  0  0  0  0  0  0  0  0  0  0  0
    6.1648    4.1639    0.5507 C   0  0  0  0  0  0  0  0  0  0  0  0
    5.8959    2.8043    0.3549 C   0  0  0  0  0  0  0  0  0  0  0  0
    5.2770    2.6002    2.6759 C   0  0  0  0  0  0  0  0  0  0  0  0
    5.5450    3.9572    2.8670 C   0  0  0  0  0  0  0  0  0  0  0  0
    5.9863    4.7290    1.8007 C   0  0  0  0  0  0  0  0  0  0  0  0
    6.2481    6.0332    1.9864 F   0  0  0  0  0  0  0  0  0  0  0  0
   -7.4894    2.6669   -2.7446 C   0  0  0  0  0  0  0  0  0  0  0  0
   -4.2484    2.3245    1.6450 C   0  0  0  0  0  0  0  0  0  0  0  0
   -6.7815    0.2548   -3.1196 H   0  0  0  0  0  0  0  0  0  0  0  0
   -3.8327   -0.0232    0.8349 H   0  0  0  0  0  0  0  0  0  0  0  0
   -3.6206   -4.2794   -1.4133 H   0  0  0  0  0  0  0  0  0  0  0  0
   -5.1684   -3.9294   -3.3487 H   0  0  0  0  0  0  0  0  0  0  0  0
   -1.7022   -1.6161   -1.8991 H   0  0  0  0  0  0  0  0  0  0  0  0
   -1.4044   -2.8108    2.2304 H   0  0  0  0  0  0  0  0  0  0  0  0
    1.0201   -2.5089    2.1487 H   0  0  0  0  0  0  0  0  0  0  0  0
    0.7043   -1.3294   -1.9966 H   0  0  0  0  0  0  0  0  0  0  0  0
    2.7696   -1.4838   -1.0133 H   0  0  0  0  0  0  0  0  0  0  0  0
    4.6948   -3.4773   -0.8257 H   0  0  0  0  0  0  0  0  0  0  0  0
    5.9791   -2.3259   -1.3790 H   0  0  0  0  0  0  0  0  0  0  0  0
    6.8798   -2.2071    0.9504 H   0  0  0  0  0  0  0  0  0  0  0  0
    5.5792   -3.3450    1.5074 H   0  0  0  0  0  0  0  0  0  0  0  0
    4.7968    0.1776    2.1345 H   0  0  0  0  0  0  0  0  0  0  0  0
    6.5143    4.7862   -0.2684 H   0  0  0  0  0  0  0  0  0  0  0  0
    6.0315    2.4029   -0.6483 H   0  0  0  0  0  0  0  0  0  0  0  0
    4.9255    2.0125    3.5223 H   0  0  0  0  0  0  0  0  0  0  0  0
    5.4200    4.4133    3.8474 H   0  0  0  0  0  0  0  0  0  0  0  0
   -8.3306    1.9619   -2.7355 H   0  0  0  0  0  0  0  0  0  0  0  0
   -7.9106    3.6738   -2.7423 H   0  0  0  0  0  0  0  0  0  0  0  0
   -6.8888    2.5556   -3.6578 H   0  0  0  0  0  0  0  0  0  0  0  0
   -4.5945    1.5892    2.3719 H   0  0  0  0  0  0  0  0  0  0  0  0
   -3.2188    2.1319    1.3479 H   0  0  0  0  0  0  0  0  0  0  0  0
   -4.2782    3.3023    2.1230 H   0  0  0  0  0  0  0  0  0  0  0  0
  1  2  2  0
  1  6  1  0
  1 10  1  0
  2  3  1  0
  3  4  2  0
  4  5  1  0
  5  6  2  0
  6  7  1  0
  7  8  2  0
  8  9  1  0
  9 10  2  0
  3 11  1  0
  4 12  1  0
  7 13  1  0
 13 14  1  0
 15 14  2  0
 14 16  1  0
 15 19  1  0
 16 17  2  0
 17 18  1  0
 18 19  2  0
 18 20  1  0
 20 21  1  0
 21 22  2  0
 21 23  1  0
 23 24  1  0
 24 25  1  0
 25 23  1  0
 23 26  1  0
 26 27  1  0
 26 28  2  0
 27 29  1  0
 31 29  1  0
 29 32  2  0
 30 31  2  0
 30 34  1  0
 32 33  1  0
 33 34  2  0
 34 35  1  0
 11 36  1  0
 12 37  1  0
  2 38  1  0
  5 39  1  0
  8 40  1  0
  9 41  1  0
 15 42  1  0
 16 43  1  0
 17 44  1  0
 19 45  1  0
 20 46  1  0
 24 47  1  0
 24 48  1  0
 25 49  1  0
 25 50  1  0
 27 51  1  0
 30 52  1  0
 31 53  1  0
 32 54  1  0
 33 55  1  0
 36 56  1  0
 36 57  1  0
 36 58  1  0
 37 59  1  0
 37 60  1  0
 37 61  1  0
M  END
$$$$
