
     RDKit          3D

 52 54  0  0  0  0  0  0  0  0999 V2000
   46.4992    5.1998   13.9698 C   0  0  0  0  0  0  0  0  0  0  0  0
   47.4818    6.0254   13.4228 C   0  0  0  0  0  0  0  0  0  0  0  0
   47.7308    5.0703   16.0125 C   0  0  0  0  0  0  0  0  0  0  0  0
   46.6661    4.7371   15.2302 N   0  0  0  0  0  0  0  0  0  0  0  0
   48.6673    5.9695   15.5233 N   0  0  0  0  0  0  0  0  0  0  0  0
   48.5633    6.4026   14.2204 C   0  0  0  0  0  0  0  0  0  0  0  0
   51.3028    2.8264   17.5952 C   0  0  0  0  0  0  0  0  0  0  0  0
   52.1627    2.0134   16.9516 N   0  0  0  0  0  0  0  0  0  0  0  0
   51.8003    3.2378   18.7369 O   0  0  0  0  0  0  0  0  0  0  0  0
   49.9818    3.2041   17.0783 C   0  0  0  0  0  0  0  0  0  0  0  0
   47.7669    4.4613   17.4280 C   0  0  0  0  0  0  0  0  0  0  0  0
   53.2330    1.9179   17.7250 N   0  0  0  0  0  0  0  0  0  0  0  0
   45.3111    4.7659   13.2080 C   0  0  0  0  0  0  0  0  0  0  0  0
   49.1363    4.0929   17.8316 N   0  0  0  0  0  0  0  0  0  0  0  0
   52.9806    2.6723   18.8111 C   0  0  0  0  0  0  0  0  0  0  0  0
   47.4170    6.4469   12.0974 O   0  0  0  0  0  0  0  0  0  0  0  0
   44.7008    5.6213   12.2297 N   0  0  0  0  0  0  0  0  0  0  0  0
   49.4510    7.1462   13.7162 O   0  0  0  0  0  0  0  0  0  0  0  0
   49.6077    2.7572   15.9605 O   0  0  0  0  0  0  0  0  0  0  0  0
   44.8052    3.6379   13.4565 O   0  0  0  0  0  0  0  0  0  0  0  0
   49.8310    6.4293   16.3077 C   0  0  0  0  0  0  0  0  0  0  0  0
   43.7225    5.1266   11.2642 C   0  0  0  0  0  0  0  0  0  0  0  0
   45.7264    2.6373    8.3716 C   0  0  0  0  0  0  0  0  0  0  0  0
   44.4005    4.2554   10.2426 C   0  0  0  0  0  0  0  0  0  0  0  0
   46.3663    1.8557    7.4674 F   0  0  0  0  0  0  0  0  0  0  0  0
   45.9010    4.0241    8.3449 C   0  0  0  0  0  0  0  0  0  0  0  0
   44.8950    2.0562    9.3338 C   0  0  0  0  0  0  0  0  0  0  0  0
   45.2433    4.8315    9.2779 C   0  0  0  0  0  0  0  0  0  0  0  0
   44.2357    2.8604   10.2688 C   0  0  0  0  0  0  0  0  0  0  0  0
   47.1672    5.4779   18.4251 C   0  0  0  0  0  0  0  0  0  0  0  0
   46.8965    3.1818   17.5069 C   0  0  0  0  0  0  0  0  0  0  0  0
   53.9398    2.8707   19.9340 C   0  0  0  0  0  0  0  0  0  0  0  0
   49.5044    4.4561   18.7406 H   0  0  0  0  0  0  0  0  0  0  0  0
   44.9258    6.6414   12.2250 H   0  0  0  0  0  0  0  0  0  0  0  0
   49.6181    6.4990   17.3864 H   0  0  0  0  0  0  0  0  0  0  0  0
   50.1315    7.4585   16.0168 H   0  0  0  0  0  0  0  0  0  0  0  0
   50.6927    5.7512   16.1365 H   0  0  0  0  0  0  0  0  0  0  0  0
   43.2478    5.9882   10.7463 H   0  0  0  0  0  0  0  0  0  0  0  0
   42.9128    4.5788   11.7939 H   0  0  0  0  0  0  0  0  0  0  0  0
   46.5483    4.4742    7.6033 H   0  0  0  0  0  0  0  0  0  0  0  0
   44.7628    0.9821    9.3579 H   0  0  0  0  0  0  0  0  0  0  0  0
   45.3926    5.9039    9.2524 H   0  0  0  0  0  0  0  0  0  0  0  0
   43.6008    2.3955   11.0129 H   0  0  0  0  0  0  0  0  0  0  0  0
   47.7216    6.4354   18.4366 H   0  0  0  0  0  0  0  0  0  0  0  0
   47.1803    5.0641   19.4567 H   0  0  0  0  0  0  0  0  0  0  0  0
   46.1133    5.7096   18.1573 H   0  0  0  0  0  0  0  0  0  0  0  0
   47.0038    2.7037   18.5047 H   0  0  0  0  0  0  0  0  0  0  0  0
   45.8203    3.4153   17.3532 H   0  0  0  0  0  0  0  0  0  0  0  0
   47.1978    2.4419   16.7367 H   0  0  0  0  0  0  0  0  0  0  0  0
   54.6199    3.7142   19.6941 H   0  0  0  0  0  0  0  0  0  0  0  0
   54.5384    1.9485   20.0884 H   0  0  0  0  0  0  0  0  0  0  0  0
   53.3845    3.1019   20.8670 H   0  0  0  0  0  0  0  0  0  0  0  0
  2  1  2  0
  3  4  2  0
  4  1  1  0
  5  6  1  0
  6  2  1  0
  7 10  1  0
  8  7  2  0
  9  7  1  0
 10 14  1  0
 11  3  1  0
 12  8  1  0
 13  1  1  0
 14 11  1  0
 15  9  1  0
 16  2  1  0
 17 13  1  0
 18  6  2  0
 19 10  2  0
 20 13  2  0
 21  5  1  0
 22 17  1  0
 23 26  2  0
 24 22  1  0
 25 23  1  0
 26 28  1  0
 27 29  2  0
 28 24  2  0
 29 24  1  0
 30 11  1  0
 31 11  1  0
 32 15  1  0
  5  3  1  0
 27 23  1  0
 12 15  2  0
 14 33  1  0
 17 34  1  0
 21 35  1  0
 21 36  1  0
 21 37  1  0
 22 38  1  0
 22 39  1  0
 26 40  1  0
 27 41  1  0
 28 42  1  0
 29 43  1  0
 30 44  1  0
 30 45  1  0
 30 46  1  0
 31 47  1  0
 31 48  1  0
 31 49  1  0
 32 50  1  0
 32 51  1  0
 32 52  1  0
M  CHG  1  16  -1
M  END
> <Uni-Dock RESULT> 
ENERGY=   -5.594  LOWER_BOUND=    0.000  UPPER_BOUND=    0.000
INTER + INTRA:          -5.594
INTER:                  -5.594
INTRA:                   0.000
UNBOUND:                 0.000

$$$$

     RDKit          3D

 52 54  0  0  0  0  0  0  0  0999 V2000
   47.6042    8.0896   19.5721 C   0  0  0  0  0  0  0  0  0  0  0  0
   47.8100    7.6712   20.8870 C   0  0  0  0  0  0  0  0  0  0  0  0
   48.1867    5.9134   18.7777 C   0  0  0  0  0  0  0  0  0  0  0  0
   47.8179    7.2082   18.5681 N   0  0  0  0  0  0  0  0  0  0  0  0
   48.2988    5.4505   20.0808 N   0  0  0  0  0  0  0  0  0  0  0  0
   48.1571    6.3399   21.1223 C   0  0  0  0  0  0  0  0  0  0  0  0
   51.9506    3.5499   18.0387 C   0  0  0  0  0  0  0  0  0  0  0  0
   53.2292    3.8531   18.3351 N   0  0  0  0  0  0  0  0  0  0  0  0
   51.8067    2.2668   17.8082 O   0  0  0  0  0  0  0  0  0  0  0  0
   50.8612    4.5325   17.9869 C   0  0  0  0  0  0  0  0  0  0  0  0
   48.3836    5.0383   17.5243 C   0  0  0  0  0  0  0  0  0  0  0  0
   53.9021    2.7140   18.2854 N   0  0  0  0  0  0  0  0  0  0  0  0
   47.2160    9.4723   19.2294 C   0  0  0  0  0  0  0  0  0  0  0  0
   49.5203    4.1115   17.6757 N   0  0  0  0  0  0  0  0  0  0  0  0
   53.0078    1.7631   17.9561 C   0  0  0  0  0  0  0  0  0  0  0  0
   47.7075    8.5603   21.9535 O   0  0  0  0  0  0  0  0  0  0  0  0
   46.3704   10.2445   20.0954 N   0  0  0  0  0  0  0  0  0  0  0  0
   48.3463    5.9704   22.3151 O   0  0  0  0  0  0  0  0  0  0  0  0
   51.1115    5.7423   18.2375 O   0  0  0  0  0  0  0  0  0  0  0  0
   47.6055    9.9621   18.1346 O   0  0  0  0  0  0  0  0  0  0  0  0
   48.6480    4.0548   20.4142 C   0  0  0  0  0  0  0  0  0  0  0  0
   46.2067   11.6878   19.9402 C   0  0  0  0  0  0  0  0  0  0  0  0
   49.8487   13.6593   21.1355 C   0  0  0  0  0  0  0  0  0  0  0  0
   47.4668   12.3975   20.3536 C   0  0  0  0  0  0  0  0  0  0  0  0
   50.9989   14.2693   21.5132 F   0  0  0  0  0  0  0  0  0  0  0  0
   49.0092   13.0918   22.0987 C   0  0  0  0  0  0  0  0  0  0  0  0
   49.5038   13.5937   19.7822 C   0  0  0  0  0  0  0  0  0  0  0  0
   47.8235   12.4606   21.7106 C   0  0  0  0  0  0  0  0  0  0  0  0
   48.3188   12.9629   19.3902 C   0  0  0  0  0  0  0  0  0  0  0  0
   47.0812    4.2525   17.2534 C   0  0  0  0  0  0  0  0  0  0  0  0
   48.6554    5.9102   16.2726 C   0  0  0  0  0  0  0  0  0  0  0  0
   53.3365    0.3162   17.8185 C   0  0  0  0  0  0  0  0  0  0  0  0
   49.3614    3.0927   17.5013 H   0  0  0  0  0  0  0  0  0  0  0  0
   45.8174    9.7628   20.8393 H   0  0  0  0  0  0  0  0  0  0  0  0
   48.2592    3.3307   19.6805 H   0  0  0  0  0  0  0  0  0  0  0  0
   48.1921    3.7449   21.3787 H   0  0  0  0  0  0  0  0  0  0  0  0
   49.7498    3.9516   20.4983 H   0  0  0  0  0  0  0  0  0  0  0  0
   45.3690   12.0348   20.5834 H   0  0  0  0  0  0  0  0  0  0  0  0
   45.9308   11.9258   18.8898 H   0  0  0  0  0  0  0  0  0  0  0  0
   49.2780   13.1380   23.1462 H   0  0  0  0  0  0  0  0  0  0  0  0
   50.1556   14.0289   19.0355 H   0  0  0  0  0  0  0  0  0  0  0  0
   47.1851   12.0175   22.4651 H   0  0  0  0  0  0  0  0  0  0  0  0
   48.0686   12.9133   18.3376 H   0  0  0  0  0  0  0  0  0  0  0  0
   46.7978    3.5998   18.1007 H   0  0  0  0  0  0  0  0  0  0  0  0
   47.1946    3.6114   16.3524 H   0  0  0  0  0  0  0  0  0  0  0  0
   46.2348    4.9517   17.0776 H   0  0  0  0  0  0  0  0  0  0  0  0
   48.8851    5.2658   15.3964 H   0  0  0  0  0  0  0  0  0  0  0  0
   47.7720    6.5347   16.0158 H   0  0  0  0  0  0  0  0  0  0  0  0
   49.5173    6.5901   16.4350 H   0  0  0  0  0  0  0  0  0  0  0  0
   53.2647   -0.1748   18.8111 H   0  0  0  0  0  0  0  0  0  0  0  0
   54.3673    0.1977   17.4234 H   0  0  0  0  0  0  0  0  0  0  0  0
   52.6231   -0.1669   17.1184 H   0  0  0  0  0  0  0  0  0  0  0  0
  2  1  2  0
  3  4  2  0
  4  1  1  0
  5  6  1  0
  6  2  1  0
  7 10  1  0
  8  7  2  0
  9  7  1  0
 10 14  1  0
 11  3  1  0
 12  8  1  0
 13  1  1  0
 14 11  1  0
 15  9  1  0
 16  2  1  0
 17 13  1  0
 18  6  2  0
 19 10  2  0
 20 13  2  0
 21  5  1  0
 22 17  1  0
 23 26  2  0
 24 22  1  0
 25 23  1  0
 26 28  1  0
 27 29  2  0
 28 24  2  0
 29 24  1  0
 30 11  1  0
 31 11  1  0
 32 15  1  0
  5  3  1  0
 27 23  1  0
 12 15  2  0
 14 33  1  0
 17 34  1  0
 21 35  1  0
 21 36  1  0
 21 37  1  0
 22 38  1  0
 22 39  1  0
 26 40  1  0
 27 41  1  0
 28 42  1  0
 29 43  1  0
 30 44  1  0
 30 45  1  0
 30 46  1  0
 31 47  1  0
 31 48  1  0
 31 49  1  0
 32 50  1  0
 32 51  1  0
 32 52  1  0
M  CHG  1  16  -1
M  END
> <Uni-Dock RESULT> 
ENERGY=   -4.472  LOWER_BOUND=    5.922  UPPER_BOUND=    9.044
INTER + INTRA:          -4.472
INTER:                  -4.472
INTRA:                   0.000
UNBOUND:                 0.000

$$$$

     RDKit          3D

 52 54  0  0  0  0  0  0  0  0999 V2000
   51.3968    3.8565   17.8597 C   0  0  0  0  0  0  0  0  0  0  0  0
   50.5573    2.8398   17.4034 C   0  0  0  0  0  0  0  0  0  0  0  0
   49.6899    5.4718   17.4315 C   0  0  0  0  0  0  0  0  0  0  0  0
   50.9447    5.1315   17.8392 N   0  0  0  0  0  0  0  0  0  0  0  0
   48.8063    4.4654   17.0692 N   0  0  0  0  0  0  0  0  0  0  0  0
   49.2579    3.1660   17.0119 C   0  0  0  0  0  0  0  0  0  0  0  0
   48.0215    7.6694   13.8697 C   0  0  0  0  0  0  0  0  0  0  0  0
   48.2932    7.5159   12.5592 N   0  0  0  0  0  0  0  0  0  0  0  0
   46.8956    8.3174   14.0498 O   0  0  0  0  0  0  0  0  0  0  0  0
   48.8766    7.1690   14.9529 C   0  0  0  0  0  0  0  0  0  0  0  0
   49.3306    6.9700   17.4753 C   0  0  0  0  0  0  0  0  0  0  0  0
   47.2974    8.0916   11.9036 N   0  0  0  0  0  0  0  0  0  0  0  0
   52.7791    3.6027   18.3123 C   0  0  0  0  0  0  0  0  0  0  0  0
   48.4958    7.3675   16.3268 N   0  0  0  0  0  0  0  0  0  0  0  0
   46.4613    8.5771   12.8405 C   0  0  0  0  0  0  0  0  0  0  0  0
   51.0027    1.5245   17.3028 O   0  0  0  0  0  0  0  0  0  0  0  0
   53.1318    2.3811   18.9791 N   0  0  0  0  0  0  0  0  0  0  0  0
   48.5059    2.2405   16.5955 O   0  0  0  0  0  0  0  0  0  0  0  0
   49.9349    6.5479   14.6642 O   0  0  0  0  0  0  0  0  0  0  0  0
   53.6509    4.4979   18.1425 O   0  0  0  0  0  0  0  0  0  0  0  0
   47.4123    4.7254   16.6566 C   0  0  0  0  0  0  0  0  0  0  0  0
   54.5208    1.9739   19.1756 C   0  0  0  0  0  0  0  0  0  0  0  0
   56.2040    0.8158   15.3802 C   0  0  0  0  0  0  0  0  0  0  0  0
   55.1290    1.5634   17.8626 C   0  0  0  0  0  0  0  0  0  0  0  0
   56.7238    0.4544   14.1815 F   0  0  0  0  0  0  0  0  0  0  0  0
   55.2733   -0.0107   16.0166 C   0  0  0  0  0  0  0  0  0  0  0  0
   56.5954    2.0174   15.9784 C   0  0  0  0  0  0  0  0  0  0  0  0
   54.7348    0.3614   17.2522 C   0  0  0  0  0  0  0  0  0  0  0  0
   56.0588    2.3932   17.2139 C   0  0  0  0  0  0  0  0  0  0  0  0
   48.5980    7.2700   18.8022 C   0  0  0  0  0  0  0  0  0  0  0  0
   50.6056    7.8502   17.4528 C   0  0  0  0  0  0  0  0  0  0  0  0
   45.1843    9.2830   12.5383 C   0  0  0  0  0  0  0  0  0  0  0  0
   47.5954    7.8662   16.5120 H   0  0  0  0  0  0  0  0  0  0  0  0
   52.3794    1.7754   19.3769 H   0  0  0  0  0  0  0  0  0  0  0  0
   46.9674    5.5891   17.1760 H   0  0  0  0  0  0  0  0  0  0  0  0
   46.7494    3.8728   16.9174 H   0  0  0  0  0  0  0  0  0  0  0  0
   47.3669    4.8813   15.5587 H   0  0  0  0  0  0  0  0  0  0  0  0
   54.5562    1.1109   19.8756 H   0  0  0  0  0  0  0  0  0  0  0  0
   55.0935    2.8009   19.6492 H   0  0  0  0  0  0  0  0  0  0  0  0
   54.9662   -0.9388   15.5519 H   0  0  0  0  0  0  0  0  0  0  0  0
   57.3126    2.6600   15.4840 H   0  0  0  0  0  0  0  0  0  0  0  0
   54.0085   -0.2831   17.7319 H   0  0  0  0  0  0  0  0  0  0  0  0
   56.3658    3.3304   17.6615 H   0  0  0  0  0  0  0  0  0  0  0  0
   47.6694    6.6790   18.9147 H   0  0  0  0  0  0  0  0  0  0  0  0
   48.3264    8.3462   18.8613 H   0  0  0  0  0  0  0  0  0  0  0  0
   49.2503    7.0285   19.6695 H   0  0  0  0  0  0  0  0  0  0  0  0
   50.3306    8.9256   17.3929 H   0  0  0  0  0  0  0  0  0  0  0  0
   51.2142    7.7032   18.3717 H   0  0  0  0  0  0  0  0  0  0  0  0
   51.2454    7.6095   16.5785 H   0  0  0  0  0  0  0  0  0  0  0  0
   44.3707    8.5384   12.4160 H   0  0  0  0  0  0  0  0  0  0  0  0
   45.2886    9.8706   11.6021 H   0  0  0  0  0  0  0  0  0  0  0  0
   44.9287    9.9715   13.3708 H   0  0  0  0  0  0  0  0  0  0  0  0
  2  1  2  0
  3  4  2  0
  4  1  1  0
  5  6  1  0
  6  2  1  0
  7 10  1  0
  8  7  2  0
  9  7  1  0
 10 14  1  0
 11  3  1  0
 12  8  1  0
 13  1  1  0
 14 11  1  0
 15  9  1  0
 16  2  1  0
 17 13  1  0
 18  6  2  0
 19 10  2  0
 20 13  2  0
 21  5  1  0
 22 17  1  0
 23 26  2  0
 24 22  1  0
 25 23  1  0
 26 28  1  0
 27 29  2  0
 28 24  2  0
 29 24  1  0
 30 11  1  0
 31 11  1  0
 32 15  1  0
  5  3  1  0
 27 23  1  0
 12 15  2  0
 14 33  1  0
 17 34  1  0
 21 35  1  0
 21 36  1  0
 21 37  1  0
 22 38  1  0
 22 39  1  0
 26 40  1  0
 27 41  1  0
 28 42  1  0
 29 43  1  0
 30 44  1  0
 30 45  1  0
 30 46  1  0
 31 47  1  0
 31 48  1  0
 31 49  1  0
 32 50  1  0
 32 51  1  0
 32 52  1  0
M  CHG  1  16  -1
M  END
> <Uni-Dock RESULT> 
ENERGY=   -4.404  LOWER_BOUND=    4.139  UPPER_BOUND=    9.046
INTER + INTRA:          -4.404
INTER:                  -4.404
INTRA:                   0.000
UNBOUND:                 0.000

$$$$

     RDKit          3D

 52 54  0  0  0  0  0  0  0  0999 V2000
   48.1600    9.6367   17.8428 C   0  0  0  0  0  0  0  0  0  0  0  0
   47.6515    9.1457   19.0456 C   0  0  0  0  0  0  0  0  0  0  0  0
   48.6265    7.4087   17.1188 C   0  0  0  0  0  0  0  0  0  0  0  0
   48.6455    8.7586   16.9352 N   0  0  0  0  0  0  0  0  0  0  0  0
   48.0340    6.8957   18.2637 N   0  0  0  0  0  0  0  0  0  0  0  0
   47.5950    7.7643   19.2375 C   0  0  0  0  0  0  0  0  0  0  0  0
   51.7893    4.2814   17.8375 C   0  0  0  0  0  0  0  0  0  0  0  0
   52.8166    4.2809   18.7088 N   0  0  0  0  0  0  0  0  0  0  0  0
   51.5319    3.0706   17.4041 O   0  0  0  0  0  0  0  0  0  0  0  0
   51.0526    5.4848   17.4324 C   0  0  0  0  0  0  0  0  0  0  0  0
   49.2142    6.5475   15.9835 C   0  0  0  0  0  0  0  0  0  0  0  0
   53.2101    3.0215   18.8182 N   0  0  0  0  0  0  0  0  0  0  0  0
   48.2402   11.0805   17.5441 C   0  0  0  0  0  0  0  0  0  0  0  0
   49.9562    5.3851   16.5050 N   0  0  0  0  0  0  0  0  0  0  0  0
   52.4103    2.3057   18.0055 C   0  0  0  0  0  0  0  0  0  0  0  0
   47.2348   10.0046   20.0592 O   0  0  0  0  0  0  0  0  0  0  0  0
   47.2505   11.9982   18.0338 N   0  0  0  0  0  0  0  0  0  0  0  0
   47.1378    7.3281   20.3311 O   0  0  0  0  0  0  0  0  0  0  0  0
   51.3791    6.5998   17.9216 O   0  0  0  0  0  0  0  0  0  0  0  0
   49.1759   11.5009   16.8108 O   0  0  0  0  0  0  0  0  0  0  0  0
   47.9219    5.4483   18.5351 C   0  0  0  0  0  0  0  0  0  0  0  0
   47.4499   13.4451   18.0090 C   0  0  0  0  0  0  0  0  0  0  0  0
   50.4201   14.5127   20.9445 C   0  0  0  0  0  0  0  0  0  0  0  0
   48.4828   13.8414   19.0280 C   0  0  0  0  0  0  0  0  0  0  0  0
   51.3557   14.8376   21.8702 F   0  0  0  0  0  0  0  0  0  0  0  0
   49.1409   14.1214   21.3507 C   0  0  0  0  0  0  0  0  0  0  0  0
   50.7356   14.5647   19.5834 C   0  0  0  0  0  0  0  0  0  0  0  0
   48.1753   13.7842   20.3973 C   0  0  0  0  0  0  0  0  0  0  0  0
   49.7726   14.2278   18.6269 C   0  0  0  0  0  0  0  0  0  0  0  0
   48.0645    6.0826   15.0620 C   0  0  0  0  0  0  0  0  0  0  0  0
   50.1919    7.3711   15.1078 C   0  0  0  0  0  0  0  0  0  0  0  0
   52.4888    0.8264   17.8441 C   0  0  0  0  0  0  0  0  0  0  0  0
   49.7092    4.4333   16.1487 H   0  0  0  0  0  0  0  0  0  0  0  0
   46.3371   11.6322   18.3844 H   0  0  0  0  0  0  0  0  0  0  0  0
   47.7896    4.8512   17.6187 H   0  0  0  0  0  0  0  0  0  0  0  0
   47.0225    5.2217   19.1466 H   0  0  0  0  0  0  0  0  0  0  0  0
   48.8184    5.0977   19.0873 H   0  0  0  0  0  0  0  0  0  0  0  0
   46.4909   13.9532   18.2501 H   0  0  0  0  0  0  0  0  0  0  0  0
   47.7415   13.7687   16.9860 H   0  0  0  0  0  0  0  0  0  0  0  0
   48.8975   14.0763   22.4044 H   0  0  0  0  0  0  0  0  0  0  0  0
   51.7272   14.8632   19.2684 H   0  0  0  0  0  0  0  0  0  0  0  0
   47.1902   13.4748   20.7242 H   0  0  0  0  0  0  0  0  0  0  0  0
   50.0338   14.2655   17.5765 H   0  0  0  0  0  0  0  0  0  0  0  0
   47.3049    5.4867   15.6025 H   0  0  0  0  0  0  0  0  0  0  0  0
   48.4603    5.4583   14.2320 H   0  0  0  0  0  0  0  0  0  0  0  0
   47.5429    6.9589   14.6190 H   0  0  0  0  0  0  0  0  0  0  0  0
   50.6764    6.7166   14.3511 H   0  0  0  0  0  0  0  0  0  0  0  0
   49.6618    8.1853   14.5670 H   0  0  0  0  0  0  0  0  0  0  0  0
   50.9904    7.8349   15.7233 H   0  0  0  0  0  0  0  0  0  0  0  0
   51.8756    0.3363   18.6283 H   0  0  0  0  0  0  0  0  0  0  0  0
   53.5429    0.4905   17.9382 H   0  0  0  0  0  0  0  0  0  0  0  0
   52.1047    0.5361   16.8438 H   0  0  0  0  0  0  0  0  0  0  0  0
  2  1  2  0
  3  4  2  0
  4  1  1  0
  5  6  1  0
  6  2  1  0
  7 10  1  0
  8  7  2  0
  9  7  1  0
 10 14  1  0
 11  3  1  0
 12  8  1  0
 13  1  1  0
 14 11  1  0
 15  9  1  0
 16  2  1  0
 17 13  1  0
 18  6  2  0
 19 10  2  0
 20 13  2  0
 21  5  1  0
 22 17  1  0
 23 26  2  0
 24 22  1  0
 25 23  1  0
 26 28  1  0
 27 29  2  0
 28 24  2  0
 29 24  1  0
 30 11  1  0
 31 11  1  0
 32 15  1  0
  5  3  1  0
 27 23  1  0
 12 15  2  0
 14 33  1  0
 17 34  1  0
 21 35  1  0
 21 36  1  0
 21 37  1  0
 22 38  1  0
 22 39  1  0
 26 40  1  0
 27 41  1  0
 28 42  1  0
 29 43  1  0
 30 44  1  0
 30 45  1  0
 30 46  1  0
 31 47  1  0
 31 48  1  0
 31 49  1  0
 32 50  1  0
 32 51  1  0
 32 52  1  0
M  CHG  1  16  -1
M  END
> <Uni-Dock RESULT> 
ENERGY=   -4.236  LOWER_BOUND=    6.138  UPPER_BOUND=    9.171
INTER + INTRA:          -4.236
INTER:                  -4.236
INTRA:                   0.000
UNBOUND:                 0.000

$$$$

     RDKit          3D

 52 54  0  0  0  0  0  0  0  0999 V2000
   46.7971   10.7515   12.1647 C   0  0  0  0  0  0  0  0  0  0  0  0
   45.6090   10.0208   12.1336 C   0  0  0  0  0  0  0  0  0  0  0  0
   48.0071    8.7782   12.7544 C   0  0  0  0  0  0  0  0  0  0  0  0
   47.9446   10.1137   12.4917 N   0  0  0  0  0  0  0  0  0  0  0  0
   46.8548    8.0155   12.6307 N   0  0  0  0  0  0  0  0  0  0  0  0
   45.6590    8.6460   12.3690 C   0  0  0  0  0  0  0  0  0  0  0  0
   48.7513    6.3274   16.4611 C   0  0  0  0  0  0  0  0  0  0  0  0
   48.2086    6.4379   17.6890 N   0  0  0  0  0  0  0  0  0  0  0  0
   49.3070    5.1518   16.2901 O   0  0  0  0  0  0  0  0  0  0  0  0
   48.7177    7.3879   15.4466 C   0  0  0  0  0  0  0  0  0  0  0  0
   49.3947    8.2063   13.1056 C   0  0  0  0  0  0  0  0  0  0  0  0
   48.4379    5.2866   18.3013 N   0  0  0  0  0  0  0  0  0  0  0  0
   46.8433   12.2049   11.9088 C   0  0  0  0  0  0  0  0  0  0  0  0
   49.3124    7.1724   14.1535 N   0  0  0  0  0  0  0  0  0  0  0  0
   49.1153    4.5226   17.4239 C   0  0  0  0  0  0  0  0  0  0  0  0
   44.3836   10.6417   11.9065 O   0  0  0  0  0  0  0  0  0  0  0  0
   45.9459   12.8256   10.9755 N   0  0  0  0  0  0  0  0  0  0  0  0
   44.5784    7.9926   12.3438 O   0  0  0  0  0  0  0  0  0  0  0  0
   48.1453    8.4784   15.7153 O   0  0  0  0  0  0  0  0  0  0  0  0
   47.7170   12.9003   12.4947 O   0  0  0  0  0  0  0  0  0  0  0  0
   46.8263    6.5552   12.8489 C   0  0  0  0  0  0  0  0  0  0  0  0
   45.7653   14.2738   10.9139 C   0  0  0  0  0  0  0  0  0  0  0  0
   43.6118   15.5791   14.4122 C   0  0  0  0  0  0  0  0  0  0  0  0
   45.0136   14.7522   12.1257 C   0  0  0  0  0  0  0  0  0  0  0  0
   42.9345   15.9791   15.5164 F   0  0  0  0  0  0  0  0  0  0  0  0
   42.9481   14.8793   13.4001 C   0  0  0  0  0  0  0  0  0  0  0  0
   44.9751   15.8626   14.2873 C   0  0  0  0  0  0  0  0  0  0  0  0
   43.6456   14.4644   12.2615 C   0  0  0  0  0  0  0  0  0  0  0  0
   45.6762   15.4489   13.1501 C   0  0  0  0  0  0  0  0  0  0  0  0
   50.0345    7.6247   11.8251 C   0  0  0  0  0  0  0  0  0  0  0  0
   50.3424    9.3188   13.6204 C   0  0  0  0  0  0  0  0  0  0  0  0
   49.5538    3.1245   17.6953 C   0  0  0  0  0  0  0  0  0  0  0  0
   49.7518    6.2408   13.9724 H   0  0  0  0  0  0  0  0  0  0  0  0
   45.4303   12.2345   10.2856 H   0  0  0  0  0  0  0  0  0  0  0  0
   47.7630    6.0601   12.5467 H   0  0  0  0  0  0  0  0  0  0  0  0
   46.0430    6.0704   12.2280 H   0  0  0  0  0  0  0  0  0  0  0  0
   46.6120    6.3375   13.9159 H   0  0  0  0  0  0  0  0  0  0  0  0
   45.1844   14.5341   10.0024 H   0  0  0  0  0  0  0  0  0  0  0  0
   46.7540   14.7743   10.8238 H   0  0  0  0  0  0  0  0  0  0  0  0
   41.8937   14.6554   13.4983 H   0  0  0  0  0  0  0  0  0  0  0  0
   45.4906   16.4004   15.0726 H   0  0  0  0  0  0  0  0  0  0  0  0
   43.1226   13.9160   11.4877 H   0  0  0  0  0  0  0  0  0  0  0  0
   46.7336   15.6691   13.0708 H   0  0  0  0  0  0  0  0  0  0  0  0
   49.4225    6.8200   11.3754 H   0  0  0  0  0  0  0  0  0  0  0  0
   51.0388    7.2044   12.0491 H   0  0  0  0  0  0  0  0  0  0  0  0
   50.1540    8.4181   11.0555 H   0  0  0  0  0  0  0  0  0  0  0  0
   51.3070    8.8791   13.9550 H   0  0  0  0  0  0  0  0  0  0  0  0
   50.5632   10.0621   12.8236 H   0  0  0  0  0  0  0  0  0  0  0  0
   49.8961    9.8623   14.4789 H   0  0  0  0  0  0  0  0  0  0  0  0
   48.7326    2.4235   17.4390 H   0  0  0  0  0  0  0  0  0  0  0  0
   49.8129    3.0103   18.7688 H   0  0  0  0  0  0  0  0  0  0  0  0
   50.4461    2.8838   17.0803 H   0  0  0  0  0  0  0  0  0  0  0  0
  2  1  2  0
  3  4  2  0
  4  1  1  0
  5  6  1  0
  6  2  1  0
  7 10  1  0
  8  7  2  0
  9  7  1  0
 10 14  1  0
 11  3  1  0
 12  8  1  0
 13  1  1  0
 14 11  1  0
 15  9  1  0
 16  2  1  0
 17 13  1  0
 18  6  2  0
 19 10  2  0
 20 13  2  0
 21  5  1  0
 22 17  1  0
 23 26  2  0
 24 22  1  0
 25 23  1  0
 26 28  1  0
 27 29  2  0
 28 24  2  0
 29 24  1  0
 30 11  1  0
 31 11  1  0
 32 15  1  0
  5  3  1  0
 27 23  1  0
 12 15  2  0
 14 33  1  0
 17 34  1  0
 21 35  1  0
 21 36  1  0
 21 37  1  0
 22 38  1  0
 22 39  1  0
 26 40  1  0
 27 41  1  0
 28 42  1  0
 29 43  1  0
 30 44  1  0
 30 45  1  0
 30 46  1  0
 31 47  1  0
 31 48  1  0
 31 49  1  0
 32 50  1  0
 32 51  1  0
 32 52  1  0
M  CHG  1  16  -1
M  END
> <Uni-Dock RESULT> 
ENERGY=   -4.112  LOWER_BOUND=    6.264  UPPER_BOUND=    8.194
INTER + INTRA:          -4.112
INTER:                  -4.112
INTRA:                   0.000
UNBOUND:                 0.000

$$$$

     RDKit          3D

 52 54  0  0  0  0  0  0  0  0999 V2000
   46.3299    7.0489   13.2659 C   0  0  0  0  0  0  0  0  0  0  0  0
   46.1560    8.1134   12.3811 C   0  0  0  0  0  0  0  0  0  0  0  0
   48.0809    8.2400   14.3709 C   0  0  0  0  0  0  0  0  0  0  0  0
   47.2935    7.1395   14.2113 N   0  0  0  0  0  0  0  0  0  0  0  0
   47.8564    9.3479   13.5665 N   0  0  0  0  0  0  0  0  0  0  0  0
   46.9320    9.2613   12.5498 C   0  0  0  0  0  0  0  0  0  0  0  0
   52.4449    9.1196   13.6772 C   0  0  0  0  0  0  0  0  0  0  0  0
   53.2175    8.8504   12.6070 N   0  0  0  0  0  0  0  0  0  0  0  0
   52.9915   10.0352   14.4408 O   0  0  0  0  0  0  0  0  0  0  0  0
   51.1552    8.4722   13.9466 C   0  0  0  0  0  0  0  0  0  0  0  0
   49.1279    8.1837   15.5007 C   0  0  0  0  0  0  0  0  0  0  0  0
   54.2831    9.6289   12.7130 N   0  0  0  0  0  0  0  0  0  0  0  0
   45.5409    5.8040   13.1765 C   0  0  0  0  0  0  0  0  0  0  0  0
   50.3910    8.8368   15.1107 N   0  0  0  0  0  0  0  0  0  0  0  0
   54.1197   10.3377   13.8458 C   0  0  0  0  0  0  0  0  0  0  0  0
   45.2531    8.0355   11.3241 O   0  0  0  0  0  0  0  0  0  0  0  0
   44.1739    5.8188   12.7377 N   0  0  0  0  0  0  0  0  0  0  0  0
   46.7719   10.2186   11.7416 O   0  0  0  0  0  0  0  0  0  0  0  0
   50.7184    7.6104   13.1369 O   0  0  0  0  0  0  0  0  0  0  0  0
   46.0726    4.7175   13.5328 O   0  0  0  0  0  0  0  0  0  0  0  0
   48.6236   10.6037   13.6902 C   0  0  0  0  0  0  0  0  0  0  0  0
   43.4634    4.5993   12.3612 C   0  0  0  0  0  0  0  0  0  0  0  0
   45.0316    3.1491    8.6173 C   0  0  0  0  0  0  0  0  0  0  0  0
   43.9937    4.0753   11.0549 C   0  0  0  0  0  0  0  0  0  0  0  0
   45.5324    2.7013    7.4398 F   0  0  0  0  0  0  0  0  0  0  0  0
   44.2260    4.2913    8.6453 C   0  0  0  0  0  0  0  0  0  0  0  0
   45.3242    2.4712    9.8045 C   0  0  0  0  0  0  0  0  0  0  0  0
   43.7102    4.7556    9.8592 C   0  0  0  0  0  0  0  0  0  0  0  0
   44.8104    2.9327   11.0206 C   0  0  0  0  0  0  0  0  0  0  0  0
   48.5405    8.8576   16.7609 C   0  0  0  0  0  0  0  0  0  0  0  0
   49.4580    6.7188   15.8825 C   0  0  0  0  0  0  0  0  0  0  0  0
   55.0811   11.3650   14.3367 C   0  0  0  0  0  0  0  0  0  0  0  0
   50.7858    9.5758   15.7366 H   0  0  0  0  0  0  0  0  0  0  0  0
   43.6475    6.7210   12.7219 H   0  0  0  0  0  0  0  0  0  0  0  0
   48.9263   10.8186   14.7275 H   0  0  0  0  0  0  0  0  0  0  0  0
   48.0107   11.4811   13.3923 H   0  0  0  0  0  0  0  0  0  0  0  0
   49.5196   10.5642   13.0365 H   0  0  0  0  0  0  0  0  0  0  0  0
   42.3806    4.8240   12.2474 H   0  0  0  0  0  0  0  0  0  0  0  0
   43.5555    3.8431   13.1711 H   0  0  0  0  0  0  0  0  0  0  0  0
   44.0030    4.8195    7.7272 H   0  0  0  0  0  0  0  0  0  0  0  0
   45.9516    1.5893    9.7840 H   0  0  0  0  0  0  0  0  0  0  0  0
   43.0939    5.6462    9.8695 H   0  0  0  0  0  0  0  0  0  0  0  0
   45.0518    2.4015   11.9330 H   0  0  0  0  0  0  0  0  0  0  0  0
   48.2650    9.9147   16.5848 H   0  0  0  0  0  0  0  0  0  0  0  0
   49.2759    8.8312   17.5940 H   0  0  0  0  0  0  0  0  0  0  0  0
   47.6212    8.3275   17.0924 H   0  0  0  0  0  0  0  0  0  0  0  0
   50.2783    6.6913   16.6323 H   0  0  0  0  0  0  0  0  0  0  0  0
   48.5745    6.2072   16.3230 H   0  0  0  0  0  0  0  0  0  0  0  0
   49.7825    6.1351   14.9962 H   0  0  0  0  0  0  0  0  0  0  0  0
   54.8455   12.3440   13.8703 H   0  0  0  0  0  0  0  0  0  0  0  0
   56.1181   11.0711   14.0707 H   0  0  0  0  0  0  0  0  0  0  0  0
   55.0030   11.4568   15.4402 H   0  0  0  0  0  0  0  0  0  0  0  0
  2  1  2  0
  3  4  2  0
  4  1  1  0
  5  6  1  0
  6  2  1  0
  7 10  1  0
  8  7  2  0
  9  7  1  0
 10 14  1  0
 11  3  1  0
 12  8  1  0
 13  1  1  0
 14 11  1  0
 15  9  1  0
 16  2  1  0
 17 13  1  0
 18  6  2  0
 19 10  2  0
 20 13  2  0
 21  5  1  0
 22 17  1  0
 23 26  2  0
 24 22  1  0
 25 23  1  0
 26 28  1  0
 27 29  2  0
 28 24  2  0
 29 24  1  0
 30 11  1  0
 31 11  1  0
 32 15  1  0
  5  3  1  0
 27 23  1  0
 12 15  2  0
 14 33  1  0
 17 34  1  0
 21 35  1  0
 21 36  1  0
 21 37  1  0
 22 38  1  0
 22 39  1  0
 26 40  1  0
 27 41  1  0
 28 42  1  0
 29 43  1  0
 30 44  1  0
 30 45  1  0
 30 46  1  0
 31 47  1  0
 31 48  1  0
 31 49  1  0
 32 50  1  0
 32 51  1  0
 32 52  1  0
M  CHG  1  16  -1
M  END
> <Uni-Dock RESULT> 
ENERGY=   -3.902  LOWER_BOUND=    3.682  UPPER_BOUND=    4.860
INTER + INTRA:          -3.902
INTER:                  -3.902
INTRA:                   0.000
UNBOUND:                 0.000

$$$$

     RDKit          3D

 52 54  0  0  0  0  0  0  0  0999 V2000
   45.8189    9.5527   12.1081 C   0  0  0  0  0  0  0  0  0  0  0  0
   45.3229    8.2527   12.2103 C   0  0  0  0  0  0  0  0  0  0  0  0
   47.7546    8.9232   13.3582 C   0  0  0  0  0  0  0  0  0  0  0  0
   47.0000    9.8465   12.6990 N   0  0  0  0  0  0  0  0  0  0  0  0
   47.3277    7.6034   13.3847 N   0  0  0  0  0  0  0  0  0  0  0  0
   46.0972    7.2865   12.8545 C   0  0  0  0  0  0  0  0  0  0  0  0
   48.8356    8.2413   17.6786 C   0  0  0  0  0  0  0  0  0  0  0  0
   48.0469    8.2235   18.7705 N   0  0  0  0  0  0  0  0  0  0  0  0
   49.9888    7.6628   17.9147 O   0  0  0  0  0  0  0  0  0  0  0  0
   48.4473    8.8294   16.3908 C   0  0  0  0  0  0  0  0  0  0  0  0
   49.0787    9.4211   13.9702 C   0  0  0  0  0  0  0  0  0  0  0  0
   48.7390    7.6109   19.7185 N   0  0  0  0  0  0  0  0  0  0  0  0
   45.0792   10.6345   11.4279 C   0  0  0  0  0  0  0  0  0  0  0  0
   49.3532    8.7874   15.2729 N   0  0  0  0  0  0  0  0  0  0  0  0
   49.9234    7.2845   19.1680 C   0  0  0  0  0  0  0  0  0  0  0  0
   44.0663    7.9167   11.7135 O   0  0  0  0  0  0  0  0  0  0  0  0
   44.2521   10.3668   10.2853 N   0  0  0  0  0  0  0  0  0  0  0  0
   45.6388    6.1132   12.9469 O   0  0  0  0  0  0  0  0  0  0  0  0
   47.3062    9.3517   16.2721 O   0  0  0  0  0  0  0  0  0  0  0  0
   45.2142   11.8187   11.8397 O   0  0  0  0  0  0  0  0  0  0  0  0
   48.0944    6.5201   14.0326 C   0  0  0  0  0  0  0  0  0  0  0  0
   43.2910   11.3407    9.7740 C   0  0  0  0  0  0  0  0  0  0  0  0
   39.9995   11.6628   12.5383 C   0  0  0  0  0  0  0  0  0  0  0  0
   42.1312   11.4687   10.7232 C   0  0  0  0  0  0  0  0  0  0  0  0
   38.9694   11.7569   13.4147 F   0  0  0  0  0  0  0  0  0  0  0  0
   40.1356   10.5241   11.7389 C   0  0  0  0  0  0  0  0  0  0  0  0
   40.9284   12.7028   12.4370 C   0  0  0  0  0  0  0  0  0  0  0  0
   41.1985   10.4246   10.8359 C   0  0  0  0  0  0  0  0  0  0  0  0
   41.9930   12.6068   11.5352 C   0  0  0  0  0  0  0  0  0  0  0  0
   50.2278    9.1320   12.9786 C   0  0  0  0  0  0  0  0  0  0  0  0
   49.0481   10.9541   14.1937 C   0  0  0  0  0  0  0  0  0  0  0  0
   51.0047    6.5495   19.8828 C   0  0  0  0  0  0  0  0  0  0  0  0
   50.2774    8.3196   15.4165 H   0  0  0  0  0  0  0  0  0  0  0  0
   44.3614    9.4646    9.7701 H   0  0  0  0  0  0  0  0  0  0  0  0
   49.1839    6.6698   13.9665 H   0  0  0  0  0  0  0  0  0  0  0  0
   47.9170    5.5451   13.5305 H   0  0  0  0  0  0  0  0  0  0  0  0
   47.7904    6.4269   15.0959 H   0  0  0  0  0  0  0  0  0  0  0  0
   42.9128   11.0010    8.7853 H   0  0  0  0  0  0  0  0  0  0  0  0
   43.7943   12.3187    9.6115 H   0  0  0  0  0  0  0  0  0  0  0  0
   39.4195    9.7165   11.8203 H   0  0  0  0  0  0  0  0  0  0  0  0
   40.8262   13.5828   13.0589 H   0  0  0  0  0  0  0  0  0  0  0  0
   41.2981    9.5341   10.2275 H   0  0  0  0  0  0  0  0  0  0  0  0
   42.7090   13.4170   11.4731 H   0  0  0  0  0  0  0  0  0  0  0  0
   50.3262    8.0541   12.7490 H   0  0  0  0  0  0  0  0  0  0  0  0
   51.1973    9.4818   13.3948 H   0  0  0  0  0  0  0  0  0  0  0  0
   50.0526    9.6600   12.0160 H   0  0  0  0  0  0  0  0  0  0  0  0
   49.9706   11.2857   14.7178 H   0  0  0  0  0  0  0  0  0  0  0  0
   48.9873   11.5019   13.2280 H   0  0  0  0  0  0  0  0  0  0  0  0
   48.1755   11.2536   14.8106 H   0  0  0  0  0  0  0  0  0  0  0  0
   50.8327    5.4571   19.7898 H   0  0  0  0  0  0  0  0  0  0  0  0
   51.0081    6.8309   20.9569 H   0  0  0  0  0  0  0  0  0  0  0  0
   51.9899    6.8042   19.4392 H   0  0  0  0  0  0  0  0  0  0  0  0
  2  1  2  0
  3  4  2  0
  4  1  1  0
  5  6  1  0
  6  2  1  0
  7 10  1  0
  8  7  2  0
  9  7  1  0
 10 14  1  0
 11  3  1  0
 12  8  1  0
 13  1  1  0
 14 11  1  0
 15  9  1  0
 16  2  1  0
 17 13  1  0
 18  6  2  0
 19 10  2  0
 20 13  2  0
 21  5  1  0
 22 17  1  0
 23 26  2  0
 24 22  1  0
 25 23  1  0
 26 28  1  0
 27 29  2  0
 28 24  2  0
 29 24  1  0
 30 11  1  0
 31 11  1  0
 32 15  1  0
  5  3  1  0
 27 23  1  0
 12 15  2  0
 14 33  1  0
 17 34  1  0
 21 35  1  0
 21 36  1  0
 21 37  1  0
 22 38  1  0
 22 39  1  0
 26 40  1  0
 27 41  1  0
 28 42  1  0
 29 43  1  0
 30 44  1  0
 30 45  1  0
 30 46  1  0
 31 47  1  0
 31 48  1  0
 31 49  1  0
 32 50  1  0
 32 51  1  0
 32 52  1  0
M  CHG  1  16  -1
M  END
> <Uni-Dock RESULT> 
ENERGY=   -3.897  LOWER_BOUND=    5.207  UPPER_BOUND=    7.026
INTER + INTRA:          -3.897
INTER:                  -3.897
INTRA:                   0.000
UNBOUND:                 0.000

$$$$

     RDKit          3D

 52 54  0  0  0  0  0  0  0  0999 V2000
   51.4415    7.6963   15.0542 C   0  0  0  0  0  0  0  0  0  0  0  0
   50.1352    7.5161   14.5986 C   0  0  0  0  0  0  0  0  0  0  0  0
   51.9815    8.8979   13.0616 C   0  0  0  0  0  0  0  0  0  0  0  0
   52.3195    8.3590   14.2665 N   0  0  0  0  0  0  0  0  0  0  0  0
   50.6633    8.8166   12.6365 N   0  0  0  0  0  0  0  0  0  0  0  0
   49.7629    8.0885   13.3813 C   0  0  0  0  0  0  0  0  0  0  0  0
   53.0019    7.9332    8.7805 C   0  0  0  0  0  0  0  0  0  0  0  0
   52.9868    6.7493    8.1381 N   0  0  0  0  0  0  0  0  0  0  0  0
   53.0029    8.9345    7.9335 O   0  0  0  0  0  0  0  0  0  0  0  0
   53.0109    8.0783   10.2413 C   0  0  0  0  0  0  0  0  0  0  0  0
   53.1000    9.6268   12.2913 C   0  0  0  0  0  0  0  0  0  0  0  0
   52.9787    7.0290    6.8440 N   0  0  0  0  0  0  0  0  0  0  0  0
   51.9188    7.1446   16.3379 C   0  0  0  0  0  0  0  0  0  0  0  0
   53.0112    9.3877   10.8391 N   0  0  0  0  0  0  0  0  0  0  0  0
   52.9941    8.3719    6.7496 C   0  0  0  0  0  0  0  0  0  0  0  0
   49.2173    6.7541   15.3166 O   0  0  0  0  0  0  0  0  0  0  0  0
   51.0463    7.0385   17.4732 N   0  0  0  0  0  0  0  0  0  0  0  0
   48.5799    7.9165   12.9737 O   0  0  0  0  0  0  0  0  0  0  0  0
   52.9979    7.0443   10.9623 O   0  0  0  0  0  0  0  0  0  0  0  0
   53.1274    6.8004   16.4425 O   0  0  0  0  0  0  0  0  0  0  0  0
   50.1861    9.4070   11.3697 C   0  0  0  0  0  0  0  0  0  0  0  0
   51.3905    6.2423   18.6485 C   0  0  0  0  0  0  0  0  0  0  0  0
   51.1768    2.0587   17.6330 C   0  0  0  0  0  0  0  0  0  0  0  0
   51.3210    4.7767   18.3175 C   0  0  0  0  0  0  0  0  0  0  0  0
   51.1072    0.7457   17.3030 F   0  0  0  0  0  0  0  0  0  0  0  0
   50.0046    2.8069   17.7760 C   0  0  0  0  0  0  0  0  0  0  0  0
   52.4213    2.6660   17.8262 C   0  0  0  0  0  0  0  0  0  0  0  0
   50.0747    4.1617   18.1145 C   0  0  0  0  0  0  0  0  0  0  0  0
   52.4954    4.0209   18.1645 C   0  0  0  0  0  0  0  0  0  0  0  0
   53.0118   11.1393   12.5939 C   0  0  0  0  0  0  0  0  0  0  0  0
   54.4992    9.1522   12.7581 C   0  0  0  0  0  0  0  0  0  0  0  0
   52.9631    9.1211    5.4619 C   0  0  0  0  0  0  0  0  0  0  0  0
   52.9957   10.2128   10.1966 H   0  0  0  0  0  0  0  0  0  0  0  0
   50.1511    7.5767   17.4871 H   0  0  0  0  0  0  0  0  0  0  0  0
   50.7189   10.3338   11.1033 H   0  0  0  0  0  0  0  0  0  0  0  0
   49.1200    9.7109   11.4434 H   0  0  0  0  0  0  0  0  0  0  0  0
   50.2834    8.6668   10.5485 H   0  0  0  0  0  0  0  0  0  0  0  0
   50.6705    6.4625   19.4664 H   0  0  0  0  0  0  0  0  0  0  0  0
   52.3995    6.5294   19.0169 H   0  0  0  0  0  0  0  0  0  0  0  0
   49.0410    2.3385   17.6219 H   0  0  0  0  0  0  0  0  0  0  0  0
   53.3294    2.0884   17.7111 H   0  0  0  0  0  0  0  0  0  0  0  0
   49.1600    4.7331   18.2146 H   0  0  0  0  0  0  0  0  0  0  0  0
   53.4667    4.4795   18.3036 H   0  0  0  0  0  0  0  0  0  0  0  0
   52.0374   11.5728   12.2991 H   0  0  0  0  0  0  0  0  0  0  0  0
   53.8089   11.6913   12.0504 H   0  0  0  0  0  0  0  0  0  0  0  0
   53.1406   11.3261   13.6823 H   0  0  0  0  0  0  0  0  0  0  0  0
   55.2923    9.6173   12.1333 H   0  0  0  0  0  0  0  0  0  0  0  0
   54.6886    9.4335   13.8170 H   0  0  0  0  0  0  0  0  0  0  0  0
   54.5986    8.0499   12.6757 H   0  0  0  0  0  0  0  0  0  0  0  0
   51.9100    9.2627    5.1423 H   0  0  0  0  0  0  0  0  0  0  0  0
   53.5113    8.5541    4.6804 H   0  0  0  0  0  0  0  0  0  0  0  0
   53.4430   10.1136    5.5922 H   0  0  0  0  0  0  0  0  0  0  0  0
  2  1  2  0
  3  4  2  0
  4  1  1  0
  5  6  1  0
  6  2  1  0
  7 10  1  0
  8  7  2  0
  9  7  1  0
 10 14  1  0
 11  3  1  0
 12  8  1  0
 13  1  1  0
 14 11  1  0
 15  9  1  0
 16  2  1  0
 17 13  1  0
 18  6  2  0
 19 10  2  0
 20 13  2  0
 21  5  1  0
 22 17  1  0
 23 26  2  0
 24 22  1  0
 25 23  1  0
 26 28  1  0
 27 29  2  0
 28 24  2  0
 29 24  1  0
 30 11  1  0
 31 11  1  0
 32 15  1  0
  5  3  1  0
 27 23  1  0
 12 15  2  0
 14 33  1  0
 17 34  1  0
 21 35  1  0
 21 36  1  0
 21 37  1  0
 22 38  1  0
 22 39  1  0
 26 40  1  0
 27 41  1  0
 28 42  1  0
 29 43  1  0
 30 44  1  0
 30 45  1  0
 30 46  1  0
 31 47  1  0
 31 48  1  0
 31 49  1  0
 32 50  1  0
 32 51  1  0
 32 52  1  0
M  CHG  1  16  -1
M  END
> <Uni-Dock RESULT> 
ENERGY=   -3.886  LOWER_BOUND=    5.398  UPPER_BOUND=    9.371
INTER + INTRA:          -3.886
INTER:                  -3.886
INTRA:                   0.000
UNBOUND:                 0.000

$$$$

     RDKit          3D

 52 54  0  0  0  0  0  0  0  0999 V2000
   48.3714    8.0450   19.9808 C   0  0  0  0  0  0  0  0  0  0  0  0
   49.1204    8.1366   21.1543 C   0  0  0  0  0  0  0  0  0  0  0  0
   49.4239    5.9650   19.4594 C   0  0  0  0  0  0  0  0  0  0  0  0
   48.5622    6.9797   19.1689 N   0  0  0  0  0  0  0  0  0  0  0  0
   50.1034    5.9875   20.6689 N   0  0  0  0  0  0  0  0  0  0  0  0
   49.9845    7.0911   21.4836 C   0  0  0  0  0  0  0  0  0  0  0  0
   53.3480    4.5731   17.7381 C   0  0  0  0  0  0  0  0  0  0  0  0
   54.4508    5.2814   17.4271 N   0  0  0  0  0  0  0  0  0  0  0  0
   53.6171    3.2935   17.8401 O   0  0  0  0  0  0  0  0  0  0  0  0
   52.0193    5.1633   17.9406 C   0  0  0  0  0  0  0  0  0  0  0  0
   49.5188    4.8217   18.4301 C   0  0  0  0  0  0  0  0  0  0  0  0
   55.4399    4.4063   17.3326 N   0  0  0  0  0  0  0  0  0  0  0  0
   47.4187    9.0924   19.5622 C   0  0  0  0  0  0  0  0  0  0  0  0
   50.9002    4.3265   18.2865 N   0  0  0  0  0  0  0  0  0  0  0  0
   54.8994    3.1994   17.5850 C   0  0  0  0  0  0  0  0  0  0  0  0
   49.0439    9.2582   21.9757 O   0  0  0  0  0  0  0  0  0  0  0  0
   46.6706    9.8473   20.5275 N   0  0  0  0  0  0  0  0  0  0  0  0
   50.6625    7.1840   22.5452 O   0  0  0  0  0  0  0  0  0  0  0  0
   51.8764    6.4107   17.8278 O   0  0  0  0  0  0  0  0  0  0  0  0
   47.2345    9.2932   18.3310 O   0  0  0  0  0  0  0  0  0  0  0  0
   51.0238    4.9151   21.0975 C   0  0  0  0  0  0  0  0  0  0  0  0
   45.9517   11.0688   20.1738 C   0  0  0  0  0  0  0  0  0  0  0  0
   48.7999   14.2067   19.3860 C   0  0  0  0  0  0  0  0  0  0  0  0
   46.9270   12.1795   19.8957 C   0  0  0  0  0  0  0  0  0  0  0  0
   49.7041   15.1863   19.1399 F   0  0  0  0  0  0  0  0  0  0  0  0
   48.5767   13.7744   20.6966 C   0  0  0  0  0  0  0  0  0  0  0  0
   48.0935   13.6254   18.3287 C   0  0  0  0  0  0  0  0  0  0  0  0
   47.6458   12.7628   20.9521 C   0  0  0  0  0  0  0  0  0  0  0  0
   47.1619   12.6132   18.5802 C   0  0  0  0  0  0  0  0  0  0  0  0
   48.5793    3.6758   18.8674 C   0  0  0  0  0  0  0  0  0  0  0  0
   49.0425    5.2893   17.0317 C   0  0  0  0  0  0  0  0  0  0  0  0
   55.6714    1.9251   17.6110 C   0  0  0  0  0  0  0  0  0  0  0  0
   51.0775    3.3014   18.3934 H   0  0  0  0  0  0  0  0  0  0  0  0
   46.5975    9.4991   21.5097 H   0  0  0  0  0  0  0  0  0  0  0  0
   50.7152    3.9197   20.7400 H   0  0  0  0  0  0  0  0  0  0  0  0
   51.0429    4.8192   22.2041 H   0  0  0  0  0  0  0  0  0  0  0  0
   52.0528    5.1391   20.7475 H   0  0  0  0  0  0  0  0  0  0  0  0
   45.2951   11.3679   21.0196 H   0  0  0  0  0  0  0  0  0  0  0  0
   45.2908   10.8786   19.3002 H   0  0  0  0  0  0  0  0  0  0  0  0
   49.1267   14.2206   21.5152 H   0  0  0  0  0  0  0  0  0  0  0  0
   48.2691   13.9566   17.3132 H   0  0  0  0  0  0  0  0  0  0  0  0
   47.4872   12.4305   21.9707 H   0  0  0  0  0  0  0  0  0  0  0  0
   46.6277   12.1672   17.7503 H   0  0  0  0  0  0  0  0  0  0  0  0
   48.8374    3.2761   19.8664 H   0  0  0  0  0  0  0  0  0  0  0  0
   48.6273    2.8356   18.1413 H   0  0  0  0  0  0  0  0  0  0  0  0
   47.5275    4.0327   18.9162 H   0  0  0  0  0  0  0  0  0  0  0  0
   49.2015    4.4847   16.2814 H   0  0  0  0  0  0  0  0  0  0  0  0
   47.9599    5.5428   17.0377 H   0  0  0  0  0  0  0  0  0  0  0  0
   49.6007    6.1879   16.6961 H   0  0  0  0  0  0  0  0  0  0  0  0
   56.1019    1.7748   18.6227 H   0  0  0  0  0  0  0  0  0  0  0  0
   56.4923    1.9642   16.8644 H   0  0  0  0  0  0  0  0  0  0  0  0
   55.0015    1.0741   17.3678 H   0  0  0  0  0  0  0  0  0  0  0  0
  2  1  2  0
  3  4  2  0
  4  1  1  0
  5  6  1  0
  6  2  1  0
  7 10  1  0
  8  7  2  0
  9  7  1  0
 10 14  1  0
 11  3  1  0
 12  8  1  0
 13  1  1  0
 14 11  1  0
 15  9  1  0
 16  2  1  0
 17 13  1  0
 18  6  2  0
 19 10  2  0
 20 13  2  0
 21  5  1  0
 22 17  1  0
 23 26  2  0
 24 22  1  0
 25 23  1  0
 26 28  1  0
 27 29  2  0
 28 24  2  0
 29 24  1  0
 30 11  1  0
 31 11  1  0
 32 15  1  0
  5  3  1  0
 27 23  1  0
 12 15  2  0
 14 33  1  0
 17 34  1  0
 21 35  1  0
 21 36  1  0
 21 37  1  0
 22 38  1  0
 22 39  1  0
 26 40  1  0
 27 41  1  0
 28 42  1  0
 29 43  1  0
 30 44  1  0
 30 45  1  0
 30 46  1  0
 31 47  1  0
 31 48  1  0
 31 49  1  0
 32 50  1  0
 32 51  1  0
 32 52  1  0
M  CHG  1  16  -1
M  END
> <Uni-Dock RESULT> 
ENERGY=   -3.763  LOWER_BOUND=    6.287  UPPER_BOUND=    8.846
INTER + INTRA:          -3.763
INTER:                  -3.763
INTRA:                   0.000
UNBOUND:                 0.000

$$$$
