
     RDKit          3D

 52 54  0  0  0  0  0  0  0  0999 V2000
   49.8724    6.2088   16.8592 C   0  0  0  0  0  0  0  0  0  0  0  0
   51.2325    6.4034   17.0923 C   0  0  0  0  0  0  0  0  0  0  0  0
   50.0460    7.3801   14.7808 C   0  0  0  0  0  0  0  0  0  0  0  0
   49.3285    6.7133   15.7287 N   0  0  0  0  0  0  0  0  0  0  0  0
   51.3892    7.6408   15.0245 N   0  0  0  0  0  0  0  0  0  0  0  0
   51.9817    7.1101   16.1508 C   0  0  0  0  0  0  0  0  0  0  0  0
   45.6657    6.5188   12.6803 C   0  0  0  0  0  0  0  0  0  0  0  0
   45.5520    5.4066   13.4322 N   0  0  0  0  0  0  0  0  0  0  0  0
   44.5725    6.7404   11.9903 O   0  0  0  0  0  0  0  0  0  0  0  0
   46.8561    7.3788   12.6410 C   0  0  0  0  0  0  0  0  0  0  0  0
   49.2434    7.8747   13.5495 C   0  0  0  0  0  0  0  0  0  0  0  0
   44.3428    4.9211   13.1973 N   0  0  0  0  0  0  0  0  0  0  0  0
   48.9952    5.4936   17.8074 C   0  0  0  0  0  0  0  0  0  0  0  0
   48.0269    7.0360   13.4091 N   0  0  0  0  0  0  0  0  0  0  0  0
   43.7694    5.7542   12.3087 C   0  0  0  0  0  0  0  0  0  0  0  0
   51.8404    5.9423   18.2571 O   0  0  0  0  0  0  0  0  0  0  0  0
   49.4835    4.3942   18.5910 N   0  0  0  0  0  0  0  0  0  0  0  0
   53.2175    7.2600   16.3632 O   0  0  0  0  0  0  0  0  0  0  0  0
   46.8385    8.4058   11.9121 O   0  0  0  0  0  0  0  0  0  0  0  0
   47.7840    5.8343   17.8930 O   0  0  0  0  0  0  0  0  0  0  0  0
   52.2279    8.4486   14.1174 C   0  0  0  0  0  0  0  0  0  0  0  0
   48.7393    3.8556   19.7266 C   0  0  0  0  0  0  0  0  0  0  0  0
   48.8517    6.6937   22.9689 C   0  0  0  0  0  0  0  0  0  0  0  0
   48.7668    4.8308   20.8714 C   0  0  0  0  0  0  0  0  0  0  0  0
   48.8924    7.5927   23.9830 F   0  0  0  0  0  0  0  0  0  0  0  0
   49.9958    5.9623   22.6367 C   0  0  0  0  0  0  0  0  0  0  0  0
   47.6666    6.5004   22.2529 C   0  0  0  0  0  0  0  0  0  0  0  0
   49.9560    5.0357   21.5902 C   0  0  0  0  0  0  0  0  0  0  0  0
   47.6229    5.5749   21.2056 C   0  0  0  0  0  0  0  0  0  0  0  0
   48.8332    9.3431   13.8179 C   0  0  0  0  0  0  0  0  0  0  0  0
   50.0213    7.7391   12.2185 C   0  0  0  0  0  0  0  0  0  0  0  0
   42.3832    5.5942   11.7858 C   0  0  0  0  0  0  0  0  0  0  0  0
   48.0791    6.0413   13.7274 H   0  0  0  0  0  0  0  0  0  0  0  0
   50.3766    3.9250   18.3201 H   0  0  0  0  0  0  0  0  0  0  0  0
   52.5631    7.8328   13.2576 H   0  0  0  0  0  0  0  0  0  0  0  0
   51.7022    9.3589   13.7817 H   0  0  0  0  0  0  0  0  0  0  0  0
   53.1373    8.8389   14.6204 H   0  0  0  0  0  0  0  0  0  0  0  0
   49.2060    2.9011   20.0539 H   0  0  0  0  0  0  0  0  0  0  0  0
   47.6976    3.6196   19.4177 H   0  0  0  0  0  0  0  0  0  0  0  0
   50.9150    6.1146   23.1876 H   0  0  0  0  0  0  0  0  0  0  0  0
   46.7817    7.0697   22.5070 H   0  0  0  0  0  0  0  0  0  0  0  0
   50.8508    4.4804   21.3369 H   0  0  0  0  0  0  0  0  0  0  0  0
   46.6998    5.4412   20.6555 H   0  0  0  0  0  0  0  0  0  0  0  0
   49.6476    9.9284   14.2879 H   0  0  0  0  0  0  0  0  0  0  0  0
   48.5555    9.8688   12.8810 H   0  0  0  0  0  0  0  0  0  0  0  0
   47.9692    9.3772   14.5161 H   0  0  0  0  0  0  0  0  0  0  0  0
   49.3233    7.6714   11.3579 H   0  0  0  0  0  0  0  0  0  0  0  0
   50.6312    6.8106   12.2157 H   0  0  0  0  0  0  0  0  0  0  0  0
   50.6586    8.6173   11.9997 H   0  0  0  0  0  0  0  0  0  0  0  0
   41.6628    6.0262   12.5109 H   0  0  0  0  0  0  0  0  0  0  0  0
   42.1565    4.5174   11.6395 H   0  0  0  0  0  0  0  0  0  0  0  0
   42.2836    6.1201   10.8134 H   0  0  0  0  0  0  0  0  0  0  0  0
  2  1  2  0
  3  4  2  0
  4  1  1  0
  5  6  1  0
  6  2  1  0
  7 10  1  0
  8  7  2  0
  9  7  1  0
 10 14  1  0
 11  3  1  0
 12  8  1  0
 13  1  1  0
 14 11  1  0
 15  9  1  0
 16  2  1  0
 17 13  1  0
 18  6  2  0
 19 10  2  0
 20 13  2  0
 21  5  1  0
 22 17  1  0
 23 26  2  0
 24 22  1  0
 25 23  1  0
 26 28  1  0
 27 29  2  0
 28 24  2  0
 29 24  1  0
 30 11  1  0
 31 11  1  0
 32 15  1  0
  5  3  1  0
 27 23  1  0
 12 15  2  0
 14 33  1  0
 17 34  1  0
 21 35  1  0
 21 36  1  0
 21 37  1  0
 22 38  1  0
 22 39  1  0
 26 40  1  0
 27 41  1  0
 28 42  1  0
 29 43  1  0
 30 44  1  0
 30 45  1  0
 30 46  1  0
 31 47  1  0
 31 48  1  0
 31 49  1  0
 32 50  1  0
 32 51  1  0
 32 52  1  0
M  CHG  1  16  -1
M  END
> <Uni-Dock RESULT> 
ENERGY=   -4.937  LOWER_BOUND=    0.000  UPPER_BOUND=    0.000
INTER + INTRA:          -4.937
INTER:                  -4.937
INTRA:                   0.000
UNBOUND:                 0.000

$$$$

     RDKit          3D

 52 54  0  0  0  0  0  0  0  0999 V2000
   48.1136    8.4927   17.7075 C   0  0  0  0  0  0  0  0  0  0  0  0
   47.9097    7.3382   18.4609 C   0  0  0  0  0  0  0  0  0  0  0  0
   47.8473    9.8368   19.6682 C   0  0  0  0  0  0  0  0  0  0  0  0
   48.0602    9.6921   18.3297 N   0  0  0  0  0  0  0  0  0  0  0  0
   47.5777    8.7030   20.4252 N   0  0  0  0  0  0  0  0  0  0  0  0
   47.6591    7.4629   19.8279 C   0  0  0  0  0  0  0  0  0  0  0  0
   49.2424   14.3077   18.1169 C   0  0  0  0  0  0  0  0  0  0  0  0
   49.9702   13.7172   17.1491 N   0  0  0  0  0  0  0  0  0  0  0  0
   49.2526   15.6131   17.9904 O   0  0  0  0  0  0  0  0  0  0  0  0
   48.5229   13.5858   19.1749 C   0  0  0  0  0  0  0  0  0  0  0  0
   47.8296   11.2950   20.1958 C   0  0  0  0  0  0  0  0  0  0  0  0
   50.4501   14.6947   16.3960 N   0  0  0  0  0  0  0  0  0  0  0  0
   48.3632    8.4618   16.2526 C   0  0  0  0  0  0  0  0  0  0  0  0
   48.5978   12.1484   19.2552 N   0  0  0  0  0  0  0  0  0  0  0  0
   49.9990   15.8420   16.9371 C   0  0  0  0  0  0  0  0  0  0  0  0
   47.9130    6.0778   17.8690 O   0  0  0  0  0  0  0  0  0  0  0  0
   49.0960    7.3873   15.6445 N   0  0  0  0  0  0  0  0  0  0  0  0
   47.4984    6.4078   20.5032 O   0  0  0  0  0  0  0  0  0  0  0  0
   47.8582   14.2469   20.0161 O   0  0  0  0  0  0  0  0  0  0  0  0
   47.9581    9.4231   15.5441 O   0  0  0  0  0  0  0  0  0  0  0  0
   47.2250    8.7588   21.8575 C   0  0  0  0  0  0  0  0  0  0  0  0
   49.1169    7.1787   14.1990 C   0  0  0  0  0  0  0  0  0  0  0  0
   45.2544    5.7586   12.9164 C   0  0  0  0  0  0  0  0  0  0  0  0
   47.7773    6.6811   13.7296 C   0  0  0  0  0  0  0  0  0  0  0  0
   44.0362    5.3125   12.5224 F   0  0  0  0  0  0  0  0  0  0  0  0
   46.1115    4.9142   13.6282 C   0  0  0  0  0  0  0  0  0  0  0  0
   45.6524    7.0642   12.6140 C   0  0  0  0  0  0  0  0  0  0  0  0
   47.3678    5.3731   14.0364 C   0  0  0  0  0  0  0  0  0  0  0  0
   46.9078    7.5269   13.0207 C   0  0  0  0  0  0  0  0  0  0  0  0
   46.3538   11.7611   20.2323 C   0  0  0  0  0  0  0  0  0  0  0  0
   48.5068   11.4527   21.5784 C   0  0  0  0  0  0  0  0  0  0  0  0
   50.2819   17.1962   16.3832 C   0  0  0  0  0  0  0  0  0  0  0  0
   49.3931   11.7110   18.7360 H   0  0  0  0  0  0  0  0  0  0  0  0
   49.6759    6.7563   16.2417 H   0  0  0  0  0  0  0  0  0  0  0  0
   48.1408    8.8803   22.4717 H   0  0  0  0  0  0  0  0  0  0  0  0
   46.4913    9.5568   22.0639 H   0  0  0  0  0  0  0  0  0  0  0  0
   46.7148    7.8350   22.2019 H   0  0  0  0  0  0  0  0  0  0  0  0
   49.8917    6.4223   13.9468 H   0  0  0  0  0  0  0  0  0  0  0  0
   49.4036    8.1222   13.6853 H   0  0  0  0  0  0  0  0  0  0  0  0
   45.8024    3.9046   13.8666 H   0  0  0  0  0  0  0  0  0  0  0  0
   44.9873    7.7197   12.0666 H   0  0  0  0  0  0  0  0  0  0  0  0
   48.0202    4.7123   14.5941 H   0  0  0  0  0  0  0  0  0  0  0  0
   47.1993    8.5428   12.7853 H   0  0  0  0  0  0  0  0  0  0  0  0
   45.6722   10.9714   20.6046 H   0  0  0  0  0  0  0  0  0  0  0  0
   46.2187   12.6430   20.8919 H   0  0  0  0  0  0  0  0  0  0  0  0
   46.0107   12.0248   19.2086 H   0  0  0  0  0  0  0  0  0  0  0  0
   48.8685   12.4920   21.7251 H   0  0  0  0  0  0  0  0  0  0  0  0
   49.3922   10.7865   21.6577 H   0  0  0  0  0  0  0  0  0  0  0  0
   47.8133   11.2709   22.4219 H   0  0  0  0  0  0  0  0  0  0  0  0
   49.5690   17.4155   15.5616 H   0  0  0  0  0  0  0  0  0  0  0  0
   51.3192   17.2343   15.9896 H   0  0  0  0  0  0  0  0  0  0  0  0
   50.1690   17.9609   17.1798 H   0  0  0  0  0  0  0  0  0  0  0  0
  2  1  2  0
  3  4  2  0
  4  1  1  0
  5  6  1  0
  6  2  1  0
  7 10  1  0
  8  7  2  0
  9  7  1  0
 10 14  1  0
 11  3  1  0
 12  8  1  0
 13  1  1  0
 14 11  1  0
 15  9  1  0
 16  2  1  0
 17 13  1  0
 18  6  2  0
 19 10  2  0
 20 13  2  0
 21  5  1  0
 22 17  1  0
 23 26  2  0
 24 22  1  0
 25 23  1  0
 26 28  1  0
 27 29  2  0
 28 24  2  0
 29 24  1  0
 30 11  1  0
 31 11  1  0
 32 15  1  0
  5  3  1  0
 27 23  1  0
 12 15  2  0
 14 33  1  0
 17 34  1  0
 21 35  1  0
 21 36  1  0
 21 37  1  0
 22 38  1  0
 22 39  1  0
 26 40  1  0
 27 41  1  0
 28 42  1  0
 29 43  1  0
 30 44  1  0
 30 45  1  0
 30 46  1  0
 31 47  1  0
 31 48  1  0
 31 49  1  0
 32 50  1  0
 32 51  1  0
 32 52  1  0
M  CHG  1  16  -1
M  END
> <Uni-Dock RESULT> 
ENERGY=   -4.444  LOWER_BOUND=    5.276  UPPER_BOUND=    8.621
INTER + INTRA:          -4.444
INTER:                  -4.444
INTRA:                   0.000
UNBOUND:                 0.000

$$$$

     RDKit          3D

 52 54  0  0  0  0  0  0  0  0999 V2000
   44.7776    8.8391   11.6515 C   0  0  0  0  0  0  0  0  0  0  0  0
   44.1337    7.6036   11.6821 C   0  0  0  0  0  0  0  0  0  0  0  0
   46.7160    7.8704   12.6646 C   0  0  0  0  0  0  0  0  0  0  0  0
   46.0297    8.9316   12.1538 N   0  0  0  0  0  0  0  0  0  0  0  0
   46.0683    6.6448   12.7634 N   0  0  0  0  0  0  0  0  0  0  0  0
   44.8047    6.5090   12.2286 C   0  0  0  0  0  0  0  0  0  0  0  0
   50.0679   11.4672   12.2534 C   0  0  0  0  0  0  0  0  0  0  0  0
   49.3714   11.9629   11.2121 N   0  0  0  0  0  0  0  0  0  0  0  0
   51.0689   12.2521   12.5731 O   0  0  0  0  0  0  0  0  0  0  0  0
   49.7465   10.2135   12.9484 C   0  0  0  0  0  0  0  0  0  0  0  0
   48.1445    8.1767   13.1846 C   0  0  0  0  0  0  0  0  0  0  0  0
   49.9651   13.0970   10.8738 N   0  0  0  0  0  0  0  0  0  0  0  0
   44.1403   10.0574   11.1135 C   0  0  0  0  0  0  0  0  0  0  0  0
   48.6451    9.3967   12.5034 N   0  0  0  0  0  0  0  0  0  0  0  0
   51.0020   13.2452   11.7197 C   0  0  0  0  0  0  0  0  0  0  0  0
   42.8298    7.4553   11.2164 O   0  0  0  0  0  0  0  0  0  0  0  0
   43.2255    9.9946   10.0087 N   0  0  0  0  0  0  0  0  0  0  0  0
   44.2185    5.3903   12.2298 O   0  0  0  0  0  0  0  0  0  0  0  0
   50.4609    9.8604   13.9238 O   0  0  0  0  0  0  0  0  0  0  0  0
   44.4437   11.1752   11.6124 O   0  0  0  0  0  0  0  0  0  0  0  0
   46.6803    5.4622   13.4005 C   0  0  0  0  0  0  0  0  0  0  0  0
   42.3713   11.1205    9.6395 C   0  0  0  0  0  0  0  0  0  0  0  0
   39.3033   11.6112   12.6273 C   0  0  0  0  0  0  0  0  0  0  0  0
   41.2914   11.3090   10.6694 C   0  0  0  0  0  0  0  0  0  0  0  0
   38.3422   11.7578   13.5722 F   0  0  0  0  0  0  0  0  0  0  0  0
   39.2487   10.5359   11.7356 C   0  0  0  0  0  0  0  0  0  0  0  0
   40.3510   12.5332   12.5466 C   0  0  0  0  0  0  0  0  0  0  0  0
   40.2399   10.3824   10.7612 C   0  0  0  0  0  0  0  0  0  0  0  0
   41.3443   12.3830   11.5738 C   0  0  0  0  0  0  0  0  0  0  0  0
   48.0419    8.4376   14.7071 C   0  0  0  0  0  0  0  0  0  0  0  0
   49.1627    7.0543   12.8705 C   0  0  0  0  0  0  0  0  0  0  0  0
   51.9299   14.4112   11.7095 C   0  0  0  0  0  0  0  0  0  0  0  0
   48.3103    9.5863   11.5311 H   0  0  0  0  0  0  0  0  0  0  0  0
   43.1955    9.1373    9.4127 H   0  0  0  0  0  0  0  0  0  0  0  0
   47.3818    4.9693   12.6964 H   0  0  0  0  0  0  0  0  0  0  0  0
   47.1784    5.7248   14.3495 H   0  0  0  0  0  0  0  0  0  0  0  0
   45.9243    4.7061   13.6991 H   0  0  0  0  0  0  0  0  0  0  0  0
   41.8989   10.9172    8.6539 H   0  0  0  0  0  0  0  0  0  0  0  0
   42.9870   12.0390    9.5223 H   0  0  0  0  0  0  0  0  0  0  0  0
   38.4403    9.8190   11.8002 H   0  0  0  0  0  0  0  0  0  0  0  0
   40.3960   13.3635   13.2396 H   0  0  0  0  0  0  0  0  0  0  0  0
   40.1913    9.5410   10.0808 H   0  0  0  0  0  0  0  0  0  0  0  0
   42.1534   13.1011   11.5280 H   0  0  0  0  0  0  0  0  0  0  0  0
   47.3501    7.7331   15.2091 H   0  0  0  0  0  0  0  0  0  0  0  0
   49.0270    8.3361   15.2076 H   0  0  0  0  0  0  0  0  0  0  0  0
   47.6499    9.4605   14.8941 H   0  0  0  0  0  0  0  0  0  0  0  0
   50.1973    7.4558   12.8425 H   0  0  0  0  0  0  0  0  0  0  0  0
   48.9594    6.6109   11.8724 H   0  0  0  0  0  0  0  0  0  0  0  0
   49.1852    6.2631   13.6444 H   0  0  0  0  0  0  0  0  0  0  0  0
   51.4739   15.2511   12.2734 H   0  0  0  0  0  0  0  0  0  0  0  0
   52.1222   14.7318   10.6642 H   0  0  0  0  0  0  0  0  0  0  0  0
   52.8930   14.1312   12.1850 H   0  0  0  0  0  0  0  0  0  0  0  0
  2  1  2  0
  3  4  2  0
  4  1  1  0
  5  6  1  0
  6  2  1  0
  7 10  1  0
  8  7  2  0
  9  7  1  0
 10 14  1  0
 11  3  1  0
 12  8  1  0
 13  1  1  0
 14 11  1  0
 15  9  1  0
 16  2  1  0
 17 13  1  0
 18  6  2  0
 19 10  2  0
 20 13  2  0
 21  5  1  0
 22 17  1  0
 23 26  2  0
 24 22  1  0
 25 23  1  0
 26 28  1  0
 27 29  2  0
 28 24  2  0
 29 24  1  0
 30 11  1  0
 31 11  1  0
 32 15  1  0
  5  3  1  0
 27 23  1  0
 12 15  2  0
 14 33  1  0
 17 34  1  0
 21 35  1  0
 21 36  1  0
 21 37  1  0
 22 38  1  0
 22 39  1  0
 26 40  1  0
 27 41  1  0
 28 42  1  0
 29 43  1  0
 30 44  1  0
 30 45  1  0
 30 46  1  0
 31 47  1  0
 31 48  1  0
 31 49  1  0
 32 50  1  0
 32 51  1  0
 32 52  1  0
M  CHG  1  16  -1
M  END
> <Uni-Dock RESULT> 
ENERGY=   -4.327  LOWER_BOUND=    5.490  UPPER_BOUND=    9.997
INTER + INTRA:          -4.327
INTER:                  -4.327
INTRA:                   0.000
UNBOUND:                 0.000

$$$$

     RDKit          3D

 52 54  0  0  0  0  0  0  0  0999 V2000
   49.8022    6.5608   16.6028 C   0  0  0  0  0  0  0  0  0  0  0  0
   50.9413    7.3255   16.8475 C   0  0  0  0  0  0  0  0  0  0  0  0
   49.4828    7.6790   14.5124 C   0  0  0  0  0  0  0  0  0  0  0  0
   49.1101    6.7736   15.4607 N   0  0  0  0  0  0  0  0  0  0  0  0
   50.5779    8.4959   14.7668 N   0  0  0  0  0  0  0  0  0  0  0  0
   51.3252    8.2806   15.9054 C   0  0  0  0  0  0  0  0  0  0  0  0
   45.9352    4.9962   12.3773 C   0  0  0  0  0  0  0  0  0  0  0  0
   46.3022    3.9489   13.1412 N   0  0  0  0  0  0  0  0  0  0  0  0
   44.8637    4.7194   11.6735 O   0  0  0  0  0  0  0  0  0  0  0  0
   46.6378    6.2859   12.3400 C   0  0  0  0  0  0  0  0  0  0  0  0
   48.5632    7.7704   13.2670 C   0  0  0  0  0  0  0  0  0  0  0  0
   45.4250    2.9871   12.8997 N   0  0  0  0  0  0  0  0  0  0  0  0
   49.3063    5.5429   17.5503 C   0  0  0  0  0  0  0  0  0  0  0  0
   47.8305    6.4875   13.1241 N   0  0  0  0  0  0  0  0  0  0  0  0
   44.5609    3.4850   11.9953 C   0  0  0  0  0  0  0  0  0  0  0  0
   51.6718    7.1797   18.0239 O   0  0  0  0  0  0  0  0  0  0  0  0
   50.2103    4.7673   18.3520 N   0  0  0  0  0  0  0  0  0  0  0  0
   52.3718    8.9511   16.1288 O   0  0  0  0  0  0  0  0  0  0  0  0
   46.1888    7.1999   11.5987 O   0  0  0  0  0  0  0  0  0  0  0  0
   48.0657    5.3273   17.6194 O   0  0  0  0  0  0  0  0  0  0  0  0
   50.9985    9.5811   13.8588 C   0  0  0  0  0  0  0  0  0  0  0  0
   49.7554    3.9673   19.4862 C   0  0  0  0  0  0  0  0  0  0  0  0
   48.5839    6.5958   22.6954 C   0  0  0  0  0  0  0  0  0  0  0  0
   49.3424    4.8659   20.6196 C   0  0  0  0  0  0  0  0  0  0  0  0
   48.2176    7.4305   23.6990 F   0  0  0  0  0  0  0  0  0  0  0  0
   49.9364    6.4285   22.3837 C   0  0  0  0  0  0  0  0  0  0  0  0
   47.6091    5.9049   21.9696 C   0  0  0  0  0  0  0  0  0  0  0  0
   50.3158    5.5690   21.3481 C   0  0  0  0  0  0  0  0  0  0  0  0
   47.9846    5.0447   20.9330 C   0  0  0  0  0  0  0  0  0  0  0  0
   47.5551    8.9191   13.5136 C   0  0  0  0  0  0  0  0  0  0  0  0
   49.3426    7.9758   11.9459 C   0  0  0  0  0  0  0  0  0  0  0  0
   43.3875    2.7384   11.4601 C   0  0  0  0  0  0  0  0  0  0  0  0
   48.3027    5.6151   13.4548 H   0  0  0  0  0  0  0  0  0  0  0  0
   51.2223    4.7284   18.0960 H   0  0  0  0  0  0  0  0  0  0  0  0
   51.5792    9.1651   13.0099 H   0  0  0  0  0  0  0  0  0  0  0  0
   50.1360   10.1727   13.5068 H   0  0  0  0  0  0  0  0  0  0  0  0
   51.6427   10.3292   14.3664 H   0  0  0  0  0  0  0  0  0  0  0  0
   50.5838    3.3102   19.8298 H   0  0  0  0  0  0  0  0  0  0  0  0
   48.9224    3.3023   19.1694 H   0  0  0  0  0  0  0  0  0  0  0  0
   50.6915    6.9664   22.9422 H   0  0  0  0  0  0  0  0  0  0  0  0
   46.5615    6.0375   22.2077 H   0  0  0  0  0  0  0  0  0  0  0  0
   51.3663    5.4533   21.1106 H   0  0  0  0  0  0  0  0  0  0  0  0
   47.2179    4.5218   20.3751 H   0  0  0  0  0  0  0  0  0  0  0  0
   48.0299    9.8018   13.9850 H   0  0  0  0  0  0  0  0  0  0  0  0
   47.0912    9.2673   12.5677 H   0  0  0  0  0  0  0  0  0  0  0  0
   46.7512    8.5809   14.2024 H   0  0  0  0  0  0  0  0  0  0  0  0
   48.7548    7.6077   11.0790 H   0  0  0  0  0  0  0  0  0  0  0  0
   50.2937    7.4020   11.9604 H   0  0  0  0  0  0  0  0  0  0  0  0
   49.5411    9.0418   11.7232 H   0  0  0  0  0  0  0  0  0  0  0  0
   42.5408    2.8213   12.1725 H   0  0  0  0  0  0  0  0  0  0  0  0
   43.6503    1.6685   11.3244 H   0  0  0  0  0  0  0  0  0  0  0  0
   43.0846    3.1636   10.4805 H   0  0  0  0  0  0  0  0  0  0  0  0
  2  1  2  0
  3  4  2  0
  4  1  1  0
  5  6  1  0
  6  2  1  0
  7 10  1  0
  8  7  2  0
  9  7  1  0
 10 14  1  0
 11  3  1  0
 12  8  1  0
 13  1  1  0
 14 11  1  0
 15  9  1  0
 16  2  1  0
 17 13  1  0
 18  6  2  0
 19 10  2  0
 20 13  2  0
 21  5  1  0
 22 17  1  0
 23 26  2  0
 24 22  1  0
 25 23  1  0
 26 28  1  0
 27 29  2  0
 28 24  2  0
 29 24  1  0
 30 11  1  0
 31 11  1  0
 32 15  1  0
  5  3  1  0
 27 23  1  0
 12 15  2  0
 14 33  1  0
 17 34  1  0
 21 35  1  0
 21 36  1  0
 21 37  1  0
 22 38  1  0
 22 39  1  0
 26 40  1  0
 27 41  1  0
 28 42  1  0
 29 43  1  0
 30 44  1  0
 30 45  1  0
 30 46  1  0
 31 47  1  0
 31 48  1  0
 31 49  1  0
 32 50  1  0
 32 51  1  0
 32 52  1  0
M  CHG  1  16  -1
M  END
> <Uni-Dock RESULT> 
ENERGY=   -4.056  LOWER_BOUND=    1.307  UPPER_BOUND=    1.309
INTER + INTRA:          -4.056
INTER:                  -4.056
INTRA:                   0.000
UNBOUND:                 0.000

$$$$

     RDKit          3D

 52 54  0  0  0  0  0  0  0  0999 V2000
   48.2920    8.5153   15.5020 C   0  0  0  0  0  0  0  0  0  0  0  0
   48.8845    7.4593   16.1919 C   0  0  0  0  0  0  0  0  0  0  0  0
   48.7772    9.9936   17.3189 C   0  0  0  0  0  0  0  0  0  0  0  0
   48.2458    9.7315   16.0914 N   0  0  0  0  0  0  0  0  0  0  0  0
   49.3143    8.9407   18.0498 N   0  0  0  0  0  0  0  0  0  0  0  0
   49.4081    7.6963   17.4634 C   0  0  0  0  0  0  0  0  0  0  0  0
   47.7109   14.4240   15.4278 C   0  0  0  0  0  0  0  0  0  0  0  0
   47.9161   13.9196   14.1955 N   0  0  0  0  0  0  0  0  0  0  0  0
   47.2698   15.6578   15.3694 O   0  0  0  0  0  0  0  0  0  0  0  0
   47.9433   13.6880   16.6778 C   0  0  0  0  0  0  0  0  0  0  0  0
   48.6314   11.4539   17.8204 C   0  0  0  0  0  0  0  0  0  0  0  0
   47.5907   14.8784   13.3424 N   0  0  0  0  0  0  0  0  0  0  0  0
   47.6919    8.3559   14.1624 C   0  0  0  0  0  0  0  0  0  0  0  0
   48.4637   12.3440   16.6446 N   0  0  0  0  0  0  0  0  0  0  0  0
   47.2043   15.9301   14.0886 C   0  0  0  0  0  0  0  0  0  0  0  0
   48.9261    6.1758   15.6534 O   0  0  0  0  0  0  0  0  0  0  0  0
   48.2403    7.4383   13.2041 N   0  0  0  0  0  0  0  0  0  0  0  0
   49.9622    6.7362   18.0683 O   0  0  0  0  0  0  0  0  0  0  0  0
   47.6970   14.2594   17.7728 O   0  0  0  0  0  0  0  0  0  0  0  0
   46.7046    9.0745   13.8474 O   0  0  0  0  0  0  0  0  0  0  0  0
   49.8143    9.0940   19.4302 C   0  0  0  0  0  0  0  0  0  0  0  0
   47.5183    7.0505   11.9950 C   0  0  0  0  0  0  0  0  0  0  0  0
   44.2049    4.5139   13.0752 C   0  0  0  0  0  0  0  0  0  0  0  0
   46.3570    6.1626   12.3493 C   0  0  0  0  0  0  0  0  0  0  0  0
   43.1652    3.7170   13.4247 F   0  0  0  0  0  0  0  0  0  0  0  0
   45.5131    4.0255   13.1411 C   0  0  0  0  0  0  0  0  0  0  0  0
   43.9693    5.8254   12.6522 C   0  0  0  0  0  0  0  0  0  0  0  0
   46.5867    4.8464   12.7824 C   0  0  0  0  0  0  0  0  0  0  0  0
   45.0404    6.6496   12.2928 C   0  0  0  0  0  0  0  0  0  0  0  0
   47.3634   11.5195   18.7061 C   0  0  0  0  0  0  0  0  0  0  0  0
   49.8787   11.9664   18.5797 C   0  0  0  0  0  0  0  0  0  0  0  0
   46.7257   17.2244   13.5259 C   0  0  0  0  0  0  0  0  0  0  0  0
   48.9251   12.0637   15.7491 H   0  0  0  0  0  0  0  0  0  0  0  0
   49.2067    7.0661   13.3415 H   0  0  0  0  0  0  0  0  0  0  0  0
   50.8338    9.5313   19.4206 H   0  0  0  0  0  0  0  0  0  0  0  0
   49.1234    9.6933   20.0477 H   0  0  0  0  0  0  0  0  0  0  0  0
   49.8744    8.1239   19.9665 H   0  0  0  0  0  0  0  0  0  0  0  0
   48.2039    6.4956   11.3182 H   0  0  0  0  0  0  0  0  0  0  0  0
   47.1843    7.9586   11.4470 H   0  0  0  0  0  0  0  0  0  0  0  0
   45.6967    3.0116   13.4728 H   0  0  0  0  0  0  0  0  0  0  0  0
   42.9569    6.2054   12.6051 H   0  0  0  0  0  0  0  0  0  0  0  0
   47.5964    4.4595   12.8449 H   0  0  0  0  0  0  0  0  0  0  0  0
   44.8429    7.6654   11.9739 H   0  0  0  0  0  0  0  0  0  0  0  0
   47.2661   10.6367   19.3678 H   0  0  0  0  0  0  0  0  0  0  0  0
   47.3663   12.4159   19.3601 H   0  0  0  0  0  0  0  0  0  0  0  0
   46.4531   11.5450   18.0691 H   0  0  0  0  0  0  0  0  0  0  0  0
   49.9404   13.0740   18.5362 H   0  0  0  0  0  0  0  0  0  0  0  0
   50.8077   11.5710   18.1163 H   0  0  0  0  0  0  0  0  0  0  0  0
   49.8560   11.7248   19.6597 H   0  0  0  0  0  0  0  0  0  0  0  0
   45.6510   17.1381   13.2633 H   0  0  0  0  0  0  0  0  0  0  0  0
   47.3074   17.4785   12.6152 H   0  0  0  0  0  0  0  0  0  0  0  0
   46.8556   18.0328   14.2754 H   0  0  0  0  0  0  0  0  0  0  0  0
  2  1  2  0
  3  4  2  0
  4  1  1  0
  5  6  1  0
  6  2  1  0
  7 10  1  0
  8  7  2  0
  9  7  1  0
 10 14  1  0
 11  3  1  0
 12  8  1  0
 13  1  1  0
 14 11  1  0
 15  9  1  0
 16  2  1  0
 17 13  1  0
 18  6  2  0
 19 10  2  0
 20 13  2  0
 21  5  1  0
 22 17  1  0
 23 26  2  0
 24 22  1  0
 25 23  1  0
 26 28  1  0
 27 29  2  0
 28 24  2  0
 29 24  1  0
 30 11  1  0
 31 11  1  0
 32 15  1  0
  5  3  1  0
 27 23  1  0
 12 15  2  0
 14 33  1  0
 17 34  1  0
 21 35  1  0
 21 36  1  0
 21 37  1  0
 22 38  1  0
 22 39  1  0
 26 40  1  0
 27 41  1  0
 28 42  1  0
 29 43  1  0
 30 44  1  0
 30 45  1  0
 30 46  1  0
 31 47  1  0
 31 48  1  0
 31 49  1  0
 32 50  1  0
 32 51  1  0
 32 52  1  0
M  CHG  1  16  -1
M  END
> <Uni-Dock RESULT> 
ENERGY=   -4.047  LOWER_BOUND=    4.933  UPPER_BOUND=    7.856
INTER + INTRA:          -4.047
INTER:                  -4.047
INTRA:                   0.000
UNBOUND:                 0.000

$$$$

     RDKit          3D

 52 54  0  0  0  0  0  0  0  0999 V2000
   50.2777    6.7194   16.6280 C   0  0  0  0  0  0  0  0  0  0  0  0
   51.5556    6.2401   16.9099 C   0  0  0  0  0  0  0  0  0  0  0  0
   51.1493    8.0240   14.8225 C   0  0  0  0  0  0  0  0  0  0  0  0
   50.1233    7.5990   15.6127 N   0  0  0  0  0  0  0  0  0  0  0  0
   52.4399    7.6084   15.1275 N   0  0  0  0  0  0  0  0  0  0  0  0
   52.6268    6.6848   16.1340 C   0  0  0  0  0  0  0  0  0  0  0  0
   47.0633    9.5922   12.5451 C   0  0  0  0  0  0  0  0  0  0  0  0
   46.4010    8.5391   13.0624 N   0  0  0  0  0  0  0  0  0  0  0  0
   46.2510   10.3948   11.9000 O   0  0  0  0  0  0  0  0  0  0  0  0
   48.5076    9.8193   12.6888 C   0  0  0  0  0  0  0  0  0  0  0  0
   50.7692    9.0282   13.7035 C   0  0  0  0  0  0  0  0  0  0  0  0
   45.1308    8.6957   12.7232 N   0  0  0  0  0  0  0  0  0  0  0  0
   49.0877    6.3236   17.4073 C   0  0  0  0  0  0  0  0  0  0  0  0
   49.3285    8.8622   13.3874 N   0  0  0  0  0  0  0  0  0  0  0  0
   45.0702    9.8355   12.0093 C   0  0  0  0  0  0  0  0  0  0  0  0
   51.7828    5.3639   17.9680 O   0  0  0  0  0  0  0  0  0  0  0  0
   48.9659    5.0062   17.9649 N   0  0  0  0  0  0  0  0  0  0  0  0
   53.7760    6.2256   16.3855 O   0  0  0  0  0  0  0  0  0  0  0  0
   49.0130   10.8526   12.1758 O   0  0  0  0  0  0  0  0  0  0  0  0
   48.1461    7.1512   17.5447 O   0  0  0  0  0  0  0  0  0  0  0  0
   53.6321    8.0958   14.4063 C   0  0  0  0  0  0  0  0  0  0  0  0
   47.9537    4.6737   18.9642 C   0  0  0  0  0  0  0  0  0  0  0  0
   48.9796    6.5592   22.7021 C   0  0  0  0  0  0  0  0  0  0  0  0
   48.2933    5.3213   20.2786 C   0  0  0  0  0  0  0  0  0  0  0  0
   49.3104    7.1564   23.8735 F   0  0  0  0  0  0  0  0  0  0  0  0
   49.7143    5.4611   22.2453 C   0  0  0  0  0  0  0  0  0  0  0  0
   47.9060    7.0436   21.9490 C   0  0  0  0  0  0  0  0  0  0  0  0
   49.3753    4.8448   21.0368 C   0  0  0  0  0  0  0  0  0  0  0  0
   47.5641    6.4301   20.7397 C   0  0  0  0  0  0  0  0  0  0  0  0
   51.0194   10.4546   14.2507 C   0  0  0  0  0  0  0  0  0  0  0  0
   51.5354    8.7875   12.3806 C   0  0  0  0  0  0  0  0  0  0  0  0
   43.8125   10.4064   11.4498 C   0  0  0  0  0  0  0  0  0  0  0  0
   48.9084    7.9118   13.5046 H   0  0  0  0  0  0  0  0  0  0  0  0
   49.5851    4.2402   17.6170 H   0  0  0  0  0  0  0  0  0  0  0  0
   53.7461    7.5520   13.4460 H   0  0  0  0  0  0  0  0  0  0  0  0
   53.5938    9.1875   14.2502 H   0  0  0  0  0  0  0  0  0  0  0  0
   54.5664    7.9443   14.9862 H   0  0  0  0  0  0  0  0  0  0  0  0
   47.9207    3.5710   19.1026 H   0  0  0  0  0  0  0  0  0  0  0  0
   46.9497    4.9867   18.6033 H   0  0  0  0  0  0  0  0  0  0  0  0
   50.5484    5.0882   22.8256 H   0  0  0  0  0  0  0  0  0  0  0  0
   47.3396    7.8966   22.3002 H   0  0  0  0  0  0  0  0  0  0  0  0
   49.9566    3.9995   20.6892 H   0  0  0  0  0  0  0  0  0  0  0  0
   46.7345    6.8209   20.1639 H   0  0  0  0  0  0  0  0  0  0  0  0
   51.9575   10.5224   14.8356 H   0  0  0  0  0  0  0  0  0  0  0  0
   51.0933   11.2003   13.4324 H   0  0  0  0  0  0  0  0  0  0  0  0
   50.1939   10.7528   14.9324 H   0  0  0  0  0  0  0  0  0  0  0  0
   50.9662    9.1883   11.5158 H   0  0  0  0  0  0  0  0  0  0  0  0
   51.6741    7.6999   12.2021 H   0  0  0  0  0  0  0  0  0  0  0  0
   52.5109    9.3095   12.3458 H   0  0  0  0  0  0  0  0  0  0  0  0
   43.2869   10.9847   12.2376 H   0  0  0  0  0  0  0  0  0  0  0  0
   43.1527    9.5884   11.0923 H   0  0  0  0  0  0  0  0  0  0  0  0
   44.0491   11.0785   10.5987 H   0  0  0  0  0  0  0  0  0  0  0  0
  2  1  2  0
  3  4  2  0
  4  1  1  0
  5  6  1  0
  6  2  1  0
  7 10  1  0
  8  7  2  0
  9  7  1  0
 10 14  1  0
 11  3  1  0
 12  8  1  0
 13  1  1  0
 14 11  1  0
 15  9  1  0
 16  2  1  0
 17 13  1  0
 18  6  2  0
 19 10  2  0
 20 13  2  0
 21  5  1  0
 22 17  1  0
 23 26  2  0
 24 22  1  0
 25 23  1  0
 26 28  1  0
 27 29  2  0
 28 24  2  0
 29 24  1  0
 30 11  1  0
 31 11  1  0
 32 15  1  0
  5  3  1  0
 27 23  1  0
 12 15  2  0
 14 33  1  0
 17 34  1  0
 21 35  1  0
 21 36  1  0
 21 37  1  0
 22 38  1  0
 22 39  1  0
 26 40  1  0
 27 41  1  0
 28 42  1  0
 29 43  1  0
 30 44  1  0
 30 45  1  0
 30 46  1  0
 31 47  1  0
 31 48  1  0
 31 49  1  0
 32 50  1  0
 32 51  1  0
 32 52  1  0
M  CHG  1  16  -1
M  END
> <Uni-Dock RESULT> 
ENERGY=   -3.962  LOWER_BOUND=    2.079  UPPER_BOUND=    2.193
INTER + INTRA:          -3.962
INTER:                  -3.962
INTRA:                   0.000
UNBOUND:                 0.000

$$$$

     RDKit          3D

 52 54  0  0  0  0  0  0  0  0999 V2000
   50.9871    9.0968   11.2006 C   0  0  0  0  0  0  0  0  0  0  0  0
   50.6285   10.4364   11.0633 C   0  0  0  0  0  0  0  0  0  0  0  0
   52.7831    9.4035    9.6507 C   0  0  0  0  0  0  0  0  0  0  0  0
   52.0333    8.6277   10.4836 N   0  0  0  0  0  0  0  0  0  0  0  0
   52.4026   10.7250    9.4506 N   0  0  0  0  0  0  0  0  0  0  0  0
   51.3623   11.2430   10.1926 C   0  0  0  0  0  0  0  0  0  0  0  0
   55.3045    5.1827   10.0621 C   0  0  0  0  0  0  0  0  0  0  0  0
   54.7913    5.0258   11.2979 N   0  0  0  0  0  0  0  0  0  0  0  0
   56.0116    4.1376    9.7044 O   0  0  0  0  0  0  0  0  0  0  0  0
   55.0955    6.3669    9.2182 C   0  0  0  0  0  0  0  0  0  0  0  0
   53.9475    8.6832    8.9224 C   0  0  0  0  0  0  0  0  0  0  0  0
   55.1977    3.8390   11.7212 N   0  0  0  0  0  0  0  0  0  0  0  0
   50.2572    8.1619   12.0800 C   0  0  0  0  0  0  0  0  0  0  0  0
   54.3301    7.4850    9.7104 N   0  0  0  0  0  0  0  0  0  0  0  0
   55.9455    3.3217   10.7285 C   0  0  0  0  0  0  0  0  0  0  0  0
   49.5361   10.9667   11.7448 O   0  0  0  0  0  0  0  0  0  0  0  0
   49.6694    8.6034   13.3133 N   0  0  0  0  0  0  0  0  0  0  0  0
   51.0410   12.4605   10.0945 O   0  0  0  0  0  0  0  0  0  0  0  0
   55.6116    6.3919    8.0696 O   0  0  0  0  0  0  0  0  0  0  0  0
   50.1902    6.9454   11.7547 O   0  0  0  0  0  0  0  0  0  0  0  0
   53.0770   11.6180    8.4879 C   0  0  0  0  0  0  0  0  0  0  0  0
   48.7128    7.7873   14.0565 C   0  0  0  0  0  0  0  0  0  0  0  0
   44.9831    7.6584   11.8995 C   0  0  0  0  0  0  0  0  0  0  0  0
   47.4019    7.7299   13.3212 C   0  0  0  0  0  0  0  0  0  0  0  0
   43.8140    7.6236   11.2138 F   0  0  0  0  0  0  0  0  0  0  0  0
   45.3716    8.8276   12.5601 C   0  0  0  0  0  0  0  0  0  0  0  0
   45.8021    6.5263   11.9433 C   0  0  0  0  0  0  0  0  0  0  0  0
   46.5777    8.8658   13.2667 C   0  0  0  0  0  0  0  0  0  0  0  0
   47.0091    6.5606   12.6486 C   0  0  0  0  0  0  0  0  0  0  0  0
   53.4289    8.2453    7.5310 C   0  0  0  0  0  0  0  0  0  0  0  0
   55.2233    9.5510    8.8030 C   0  0  0  0  0  0  0  0  0  0  0  0
   56.5828    1.9754   10.7756 C   0  0  0  0  0  0  0  0  0  0  0  0
   54.2072    7.5224   10.7482 H   0  0  0  0  0  0  0  0  0  0  0  0
   49.9643    9.5162   13.7269 H   0  0  0  0  0  0  0  0  0  0  0  0
   54.0147   12.0153    8.9280 H   0  0  0  0  0  0  0  0  0  0  0  0
   53.2655   11.1099    7.5266 H   0  0  0  0  0  0  0  0  0  0  0  0
   52.4472   12.4882    8.2080 H   0  0  0  0  0  0  0  0  0  0  0  0
   48.5451    8.2373   15.0592 H   0  0  0  0  0  0  0  0  0  0  0  0
   49.1319    6.7707   14.2218 H   0  0  0  0  0  0  0  0  0  0  0  0
   44.7402    9.7061   12.5230 H   0  0  0  0  0  0  0  0  0  0  0  0
   45.5038    5.6222   11.4283 H   0  0  0  0  0  0  0  0  0  0  0  0
   46.8719    9.7797   13.7681 H   0  0  0  0  0  0  0  0  0  0  0  0
   47.6364    5.6781   12.6676 H   0  0  0  0  0  0  0  0  0  0  0  0
   52.8002    9.0217    7.0528 H   0  0  0  0  0  0  0  0  0  0  0  0
   54.2633    8.0285    6.8323 H   0  0  0  0  0  0  0  0  0  0  0  0
   52.7979    7.3356    7.6271 H   0  0  0  0  0  0  0  0  0  0  0  0
   56.1263    8.9138    8.6987 H   0  0  0  0  0  0  0  0  0  0  0  0
   55.3639   10.1662    9.7173 H   0  0  0  0  0  0  0  0  0  0  0  0
   55.2242   10.1956    7.9031 H   0  0  0  0  0  0  0  0  0  0  0  0
   55.8388    1.2042   10.4874 H   0  0  0  0  0  0  0  0  0  0  0  0
   56.9496    1.7668   11.8024 H   0  0  0  0  0  0  0  0  0  0  0  0
   57.4397    1.9387   10.0710 H   0  0  0  0  0  0  0  0  0  0  0  0
  2  1  2  0
  3  4  2  0
  4  1  1  0
  5  6  1  0
  6  2  1  0
  7 10  1  0
  8  7  2  0
  9  7  1  0
 10 14  1  0
 11  3  1  0
 12  8  1  0
 13  1  1  0
 14 11  1  0
 15  9  1  0
 16  2  1  0
 17 13  1  0
 18  6  2  0
 19 10  2  0
 20 13  2  0
 21  5  1  0
 22 17  1  0
 23 26  2  0
 24 22  1  0
 25 23  1  0
 26 28  1  0
 27 29  2  0
 28 24  2  0
 29 24  1  0
 30 11  1  0
 31 11  1  0
 32 15  1  0
  5  3  1  0
 27 23  1  0
 12 15  2  0
 14 33  1  0
 17 34  1  0
 21 35  1  0
 21 36  1  0
 21 37  1  0
 22 38  1  0
 22 39  1  0
 26 40  1  0
 27 41  1  0
 28 42  1  0
 29 43  1  0
 30 44  1  0
 30 45  1  0
 30 46  1  0
 31 47  1  0
 31 48  1  0
 31 49  1  0
 32 50  1  0
 32 51  1  0
 32 52  1  0
M  CHG  1  16  -1
M  END
> <Uni-Dock RESULT> 
ENERGY=   -3.929  LOWER_BOUND=    5.705  UPPER_BOUND=    9.088
INTER + INTRA:          -3.929
INTER:                  -3.929
INTRA:                   0.000
UNBOUND:                 0.000

$$$$

     RDKit          3D

 52 54  0  0  0  0  0  0  0  0999 V2000
   50.9011    6.7828   16.1541 C   0  0  0  0  0  0  0  0  0  0  0  0
   52.0260    7.6028   16.2198 C   0  0  0  0  0  0  0  0  0  0  0  0
   50.0802    8.0335   14.2877 C   0  0  0  0  0  0  0  0  0  0  0  0
   49.9682    7.0346   15.2082 N   0  0  0  0  0  0  0  0  0  0  0  0
   51.1617    8.9018   14.3767 N   0  0  0  0  0  0  0  0  0  0  0  0
   52.1478    8.6515   15.3073 C   0  0  0  0  0  0  0  0  0  0  0  0
   46.2946    5.2853   12.7199 C   0  0  0  0  0  0  0  0  0  0  0  0
   46.8709    4.2102   13.2917 N   0  0  0  0  0  0  0  0  0  0  0  0
   45.1114    4.9904   12.2370 O   0  0  0  0  0  0  0  0  0  0  0  0
   46.9062    6.6193   12.6506 C   0  0  0  0  0  0  0  0  0  0  0  0
   48.9091    8.1569   13.2785 C   0  0  0  0  0  0  0  0  0  0  0  0
   46.0120    3.2118   13.1560 N   0  0  0  0  0  0  0  0  0  0  0  0
   50.6745    5.6634   17.0899 C   0  0  0  0  0  0  0  0  0  0  0  0
   48.2287    6.8415   13.1794 N   0  0  0  0  0  0  0  0  0  0  0  0
   44.9484    3.7171   12.5035 C   0  0  0  0  0  0  0  0  0  0  0  0
   53.0005    7.4176   17.1970 O   0  0  0  0  0  0  0  0  0  0  0  0
   51.7688    4.8925   17.6091 N   0  0  0  0  0  0  0  0  0  0  0  0
   53.1827    9.3732   15.3633 O   0  0  0  0  0  0  0  0  0  0  0  0
   46.2616    7.5545   12.1062 O   0  0  0  0  0  0  0  0  0  0  0  0
   49.4909    5.3585   17.4003 O   0  0  0  0  0  0  0  0  0  0  0  0
   51.3200   10.0798   13.5014 C   0  0  0  0  0  0  0  0  0  0  0  0
   51.6116    3.9784   18.7375 C   0  0  0  0  0  0  0  0  0  0  0  0
   51.0319    6.2661   22.3445 C   0  0  0  0  0  0  0  0  0  0  0  0
   51.4091    4.7569   20.0085 C   0  0  0  0  0  0  0  0  0  0  0  0
   50.8501    6.9942   23.4737 F   0  0  0  0  0  0  0  0  0  0  0  0
   52.2914    6.2165   21.7399 C   0  0  0  0  0  0  0  0  0  0  0  0
   49.9592    5.5677   21.7825 C   0  0  0  0  0  0  0  0  0  0  0  0
   52.4804    5.4672   20.5745 C   0  0  0  0  0  0  0  0  0  0  0  0
   50.1442    4.8174   20.6170 C   0  0  0  0  0  0  0  0  0  0  0  0
   47.9216    9.2114   13.8349 C   0  0  0  0  0  0  0  0  0  0  0  0
   49.3723    8.5162   11.8462 C   0  0  0  0  0  0  0  0  0  0  0  0
   43.7262    2.9350   12.1640 C   0  0  0  0  0  0  0  0  0  0  0  0
   48.8049    5.9808   13.3230 H   0  0  0  0  0  0  0  0  0  0  0  0
   52.7019    4.9429   17.1423 H   0  0  0  0  0  0  0  0  0  0  0  0
   51.7232    9.7711   12.5150 H   0  0  0  0  0  0  0  0  0  0  0  0
   50.3729   10.6361   13.3945 H   0  0  0  0  0  0  0  0  0  0  0  0
   52.0202   10.8292   13.9262 H   0  0  0  0  0  0  0  0  0  0  0  0
   52.5269    3.3553   18.8375 H   0  0  0  0  0  0  0  0  0  0  0  0
   50.7644    3.2841   18.5458 H   0  0  0  0  0  0  0  0  0  0  0  0
   53.1215    6.7606   22.1719 H   0  0  0  0  0  0  0  0  0  0  0  0
   48.9828    5.6093   22.2479 H   0  0  0  0  0  0  0  0  0  0  0  0
   53.4589    5.4424   20.1107 H   0  0  0  0  0  0  0  0  0  0  0  0
   49.3022    4.2875   20.1894 H   0  0  0  0  0  0  0  0  0  0  0  0
   48.4421   10.0858   14.2724 H   0  0  0  0  0  0  0  0  0  0  0  0
   47.2468    9.5984   13.0438 H   0  0  0  0  0  0  0  0  0  0  0  0
   47.3043    8.7669   14.6451 H   0  0  0  0  0  0  0  0  0  0  0  0
   48.6300    8.1762   11.0939 H   0  0  0  0  0  0  0  0  0  0  0  0
   50.3317    8.0097   11.6076 H   0  0  0  0  0  0  0  0  0  0  0  0
   49.4636    9.6072   11.6831 H   0  0  0  0  0  0  0  0  0  0  0  0
   43.0509    2.9046   13.0440 H   0  0  0  0  0  0  0  0  0  0  0  0
   44.0071    1.8992   11.8803 H   0  0  0  0  0  0  0  0  0  0  0  0
   43.1970    3.4123   11.3129 H   0  0  0  0  0  0  0  0  0  0  0  0
  2  1  2  0
  3  4  2  0
  4  1  1  0
  5  6  1  0
  6  2  1  0
  7 10  1  0
  8  7  2  0
  9  7  1  0
 10 14  1  0
 11  3  1  0
 12  8  1  0
 13  1  1  0
 14 11  1  0
 15  9  1  0
 16  2  1  0
 17 13  1  0
 18  6  2  0
 19 10  2  0
 20 13  2  0
 21  5  1  0
 22 17  1  0
 23 26  2  0
 24 22  1  0
 25 23  1  0
 26 28  1  0
 27 29  2  0
 28 24  2  0
 29 24  1  0
 30 11  1  0
 31 11  1  0
 32 15  1  0
  5  3  1  0
 27 23  1  0
 12 15  2  0
 14 33  1  0
 17 34  1  0
 21 35  1  0
 21 36  1  0
 21 37  1  0
 22 38  1  0
 22 39  1  0
 26 40  1  0
 27 41  1  0
 28 42  1  0
 29 43  1  0
 30 44  1  0
 30 45  1  0
 30 46  1  0
 31 47  1  0
 31 48  1  0
 31 49  1  0
 32 50  1  0
 32 51  1  0
 32 52  1  0
M  CHG  1  16  -1
M  END
> <Uni-Dock RESULT> 
ENERGY=   -3.928  LOWER_BOUND=    1.701  UPPER_BOUND=    1.981
INTER + INTRA:          -3.928
INTER:                  -3.928
INTRA:                   0.000
UNBOUND:                 0.000

$$$$

     RDKit          3D

 52 54  0  0  0  0  0  0  0  0999 V2000
   48.3977    7.6859   17.8077 C   0  0  0  0  0  0  0  0  0  0  0  0
   48.2897    6.3065   17.9742 C   0  0  0  0  0  0  0  0  0  0  0  0
   48.2364    7.9989   20.1737 C   0  0  0  0  0  0  0  0  0  0  0  0
   48.3520    8.4779   18.9028 N   0  0  0  0  0  0  0  0  0  0  0  0
   48.0625    6.6322   20.3562 N   0  0  0  0  0  0  0  0  0  0  0  0
   48.1394    5.7946   19.2636 C   0  0  0  0  0  0  0  0  0  0  0  0
   49.3613   12.7719   20.7164 C   0  0  0  0  0  0  0  0  0  0  0  0
   50.0329   12.7205   19.5496 N   0  0  0  0  0  0  0  0  0  0  0  0
   49.3188   13.9953   21.1873 O   0  0  0  0  0  0  0  0  0  0  0  0
   48.7483   11.6110   21.3758 C   0  0  0  0  0  0  0  0  0  0  0  0
   48.2104    9.0664   21.2984 C   0  0  0  0  0  0  0  0  0  0  0  0
   50.4218   13.9590   19.2896 N   0  0  0  0  0  0  0  0  0  0  0  0
   48.5373    8.3207   16.4820 C   0  0  0  0  0  0  0  0  0  0  0  0
   48.8765   10.2957   20.8001 N   0  0  0  0  0  0  0  0  0  0  0  0
   49.9753   14.7152   20.3100 C   0  0  0  0  0  0  0  0  0  0  0  0
   48.2899    5.4435   16.8815 O   0  0  0  0  0  0  0  0  0  0  0  0
   49.2572    7.6772   15.4193 N   0  0  0  0  0  0  0  0  0  0  0  0
   48.0653    4.5416   19.4026 O   0  0  0  0  0  0  0  0  0  0  0  0
   48.1277   11.7858   22.4579 O   0  0  0  0  0  0  0  0  0  0  0  0
   48.0482    9.4689   16.3013 O   0  0  0  0  0  0  0  0  0  0  0  0
   47.8176    6.0232   21.6784 C   0  0  0  0  0  0  0  0  0  0  0  0
   49.1754    8.1344   14.0345 C   0  0  0  0  0  0  0  0  0  0  0  0
   45.2760    7.1904   12.4585 C   0  0  0  0  0  0  0  0  0  0  0  0
   47.8213    7.8133   13.4637 C   0  0  0  0  0  0  0  0  0  0  0  0
   44.0469    6.8895   11.9717 F   0  0  0  0  0  0  0  0  0  0  0  0
   46.2120    6.1739   12.6705 C   0  0  0  0  0  0  0  0  0  0  0  0
   45.6065    8.5167   12.7519 C   0  0  0  0  0  0  0  0  0  0  0  0
   47.4797    6.4822   13.1738 C   0  0  0  0  0  0  0  0  0  0  0  0
   46.8731    8.8290   13.2556 C   0  0  0  0  0  0  0  0  0  0  0  0
   46.7270    9.3731   21.6177 C   0  0  0  0  0  0  0  0  0  0  0  0
   48.9848    8.6359   22.5673 C   0  0  0  0  0  0  0  0  0  0  0  0
   50.1705   16.1894   20.4067 C   0  0  0  0  0  0  0  0  0  0  0  0
   49.6443   10.1859   20.0987 H   0  0  0  0  0  0  0  0  0  0  0  0
   49.9011    6.8847   15.6393 H   0  0  0  0  0  0  0  0  0  0  0  0
   48.7728    5.9170   22.2325 H   0  0  0  0  0  0  0  0  0  0  0  0
   47.0757    6.5981   22.2587 H   0  0  0  0  0  0  0  0  0  0  0  0
   47.3658    5.0123   21.5993 H   0  0  0  0  0  0  0  0  0  0  0  0
   49.9535    7.6197   13.4298 H   0  0  0  0  0  0  0  0  0  0  0  0
   49.3910    9.2240   13.9832 H   0  0  0  0  0  0  0  0  0  0  0  0
   45.9554    5.1462   12.4478 H   0  0  0  0  0  0  0  0  0  0  0  0
   44.8806    9.3035   12.5920 H   0  0  0  0  0  0  0  0  0  0  0  0
   48.1939    5.6853   13.3412 H   0  0  0  0  0  0  0  0  0  0  0  0
   47.1122    9.8599   13.4848 H   0  0  0  0  0  0  0  0  0  0  0  0
   46.1021    8.4587   21.6327 H   0  0  0  0  0  0  0  0  0  0  0  0
   46.6132    9.8595   22.6085 H   0  0  0  0  0  0  0  0  0  0  0  0
   46.2989   10.0418   20.8402 H   0  0  0  0  0  0  0  0  0  0  0  0
   49.3220    9.5223   23.1442 H   0  0  0  0  0  0  0  0  0  0  0  0
   49.8953    8.0615   22.2929 H   0  0  0  0  0  0  0  0  0  0  0  0
   48.3636    8.0547   23.2755 H   0  0  0  0  0  0  0  0  0  0  0  0
   49.3905   16.7052   19.8094 H   0  0  0  0  0  0  0  0  0  0  0  0
   51.1732   16.4641   20.0176 H   0  0  0  0  0  0  0  0  0  0  0  0
   50.0930   16.5116   21.4661 H   0  0  0  0  0  0  0  0  0  0  0  0
  2  1  2  0
  3  4  2  0
  4  1  1  0
  5  6  1  0
  6  2  1  0
  7 10  1  0
  8  7  2  0
  9  7  1  0
 10 14  1  0
 11  3  1  0
 12  8  1  0
 13  1  1  0
 14 11  1  0
 15  9  1  0
 16  2  1  0
 17 13  1  0
 18  6  2  0
 19 10  2  0
 20 13  2  0
 21  5  1  0
 22 17  1  0
 23 26  2  0
 24 22  1  0
 25 23  1  0
 26 28  1  0
 27 29  2  0
 28 24  2  0
 29 24  1  0
 30 11  1  0
 31 11  1  0
 32 15  1  0
  5  3  1  0
 27 23  1  0
 12 15  2  0
 14 33  1  0
 17 34  1  0
 21 35  1  0
 21 36  1  0
 21 37  1  0
 22 38  1  0
 22 39  1  0
 26 40  1  0
 27 41  1  0
 28 42  1  0
 29 43  1  0
 30 44  1  0
 30 45  1  0
 30 46  1  0
 31 47  1  0
 31 48  1  0
 31 49  1  0
 32 50  1  0
 32 51  1  0
 32 52  1  0
M  CHG  1  16  -1
M  END
> <Uni-Dock RESULT> 
ENERGY=   -3.882  LOWER_BOUND=    4.951  UPPER_BOUND=    8.991
INTER + INTRA:          -3.882
INTER:                  -3.882
INTRA:                   0.000
UNBOUND:                 0.000

$$$$
