
     RDKit          3D

 52 54  0  0  0  0  0  0  0  0999 V2000
   48.1967    5.1452   16.5681 C   0  0  0  0  0  0  0  0  0  0  0  0
   48.2801    4.9430   17.9485 C   0  0  0  0  0  0  0  0  0  0  0  0
   49.5704    7.0942   16.7641 C   0  0  0  0  0  0  0  0  0  0  0  0
   48.8363    6.2107   16.0345 N   0  0  0  0  0  0  0  0  0  0  0  0
   49.7518    6.8528   18.1187 N   0  0  0  0  0  0  0  0  0  0  0  0
   49.0620    5.8145   18.7112 C   0  0  0  0  0  0  0  0  0  0  0  0
   47.2545    8.9450   13.4740 C   0  0  0  0  0  0  0  0  0  0  0  0
   47.7045    8.5201   12.2775 N   0  0  0  0  0  0  0  0  0  0  0  0
   46.0512    9.4559   13.3769 O   0  0  0  0  0  0  0  0  0  0  0  0
   48.0059    8.8435   14.7300 C   0  0  0  0  0  0  0  0  0  0  0  0
   50.1953    8.2543   15.9567 C   0  0  0  0  0  0  0  0  0  0  0  0
   46.7441    8.7819   11.4058 N   0  0  0  0  0  0  0  0  0  0  0  0
   47.4318    4.2516   15.6640 C   0  0  0  0  0  0  0  0  0  0  0  0
   49.3942    8.4585   14.7266 N   0  0  0  0  0  0  0  0  0  0  0  0
   45.7482    9.3576   12.1056 C   0  0  0  0  0  0  0  0  0  0  0  0
   47.6079    3.8941   18.5701 O   0  0  0  0  0  0  0  0  0  0  0  0
   47.3992    4.5192   14.2494 N   0  0  0  0  0  0  0  0  0  0  0  0
   49.1260    5.6247   19.9582 O   0  0  0  0  0  0  0  0  0  0  0  0
   47.4137    9.0910   15.8142 O   0  0  0  0  0  0  0  0  0  0  0  0
   46.8125    3.2542   16.1298 O   0  0  0  0  0  0  0  0  0  0  0  0
   50.6349    7.6744   18.9656 C   0  0  0  0  0  0  0  0  0  0  0  0
   46.6568    3.6955   13.2975 C   0  0  0  0  0  0  0  0  0  0  0  0
   43.2670    5.9565   11.9024 C   0  0  0  0  0  0  0  0  0  0  0  0
   45.4657    4.4596   12.7937 C   0  0  0  0  0  0  0  0  0  0  0  0
   42.2032    6.6751   11.4685 F   0  0  0  0  0  0  0  0  0  0  0  0
   43.1627    5.1843   13.0629 C   0  0  0  0  0  0  0  0  0  0  0  0
   44.4720    5.9959   11.1948 C   0  0  0  0  0  0  0  0  0  0  0  0
   44.2592    4.4409   13.5112 C   0  0  0  0  0  0  0  0  0  0  0  0
   45.5711    5.2576   11.6421 C   0  0  0  0  0  0  0  0  0  0  0  0
   50.2481    9.6104   16.7009 C   0  0  0  0  0  0  0  0  0  0  0  0
   51.6213    7.8450   15.5299 C   0  0  0  0  0  0  0  0  0  0  0  0
   44.4648    9.8191   11.5074 C   0  0  0  0  0  0  0  0  0  0  0  0
   49.8412    8.2883   13.7963 H   0  0  0  0  0  0  0  0  0  0  0  0
   47.8364    5.3965   13.8803 H   0  0  0  0  0  0  0  0  0  0  0  0
   51.5951    7.8790   18.4636 H   0  0  0  0  0  0  0  0  0  0  0  0
   50.9259    7.1503   19.8987 H   0  0  0  0  0  0  0  0  0  0  0  0
   50.1225    8.6129   19.2569 H   0  0  0  0  0  0  0  0  0  0  0  0
   47.3268    3.4290   12.4516 H   0  0  0  0  0  0  0  0  0  0  0  0
   46.3301    2.7382   13.7579 H   0  0  0  0  0  0  0  0  0  0  0  0
   42.2336    5.1627   13.6180 H   0  0  0  0  0  0  0  0  0  0  0  0
   44.5578    6.6041   10.3037 H   0  0  0  0  0  0  0  0  0  0  0  0
   44.1702    3.8541   14.4173 H   0  0  0  0  0  0  0  0  0  0  0  0
   46.5033    5.3093   11.0930 H   0  0  0  0  0  0  0  0  0  0  0  0
   51.1615    9.7258   17.3172 H   0  0  0  0  0  0  0  0  0  0  0  0
   49.3524    9.7537   17.3399 H   0  0  0  0  0  0  0  0  0  0  0  0
   50.2764   10.4458   15.9686 H   0  0  0  0  0  0  0  0  0  0  0  0
   52.0759    8.6371   14.8947 H   0  0  0  0  0  0  0  0  0  0  0  0
   52.2913    7.6780   16.3963 H   0  0  0  0  0  0  0  0  0  0  0  0
   51.5890    6.9049   14.9395 H   0  0  0  0  0  0  0  0  0  0  0  0
   44.6742   10.4651   10.6301 H   0  0  0  0  0  0  0  0  0  0  0  0
   43.8674    8.9421   11.1838 H   0  0  0  0  0  0  0  0  0  0  0  0
   43.8853   10.4015   12.2532 H   0  0  0  0  0  0  0  0  0  0  0  0
  2  1  2  0
  3  4  2  0
  4  1  1  0
  5  6  1  0
  6  2  1  0
  7 10  1  0
  8  7  2  0
  9  7  1  0
 10 14  1  0
 11  3  1  0
 12  8  1  0
 13  1  1  0
 14 11  1  0
 15  9  1  0
 16  2  1  0
 17 13  1  0
 18  6  2  0
 19 10  2  0
 20 13  2  0
 21  5  1  0
 22 17  1  0
 23 26  2  0
 24 22  1  0
 25 23  1  0
 26 28  1  0
 27 29  2  0
 28 24  2  0
 29 24  1  0
 30 11  1  0
 31 11  1  0
 32 15  1  0
  5  3  1  0
 27 23  1  0
 12 15  2  0
 14 33  1  0
 17 34  1  0
 21 35  1  0
 21 36  1  0
 21 37  1  0
 22 38  1  0
 22 39  1  0
 26 40  1  0
 27 41  1  0
 28 42  1  0
 29 43  1  0
 30 44  1  0
 30 45  1  0
 30 46  1  0
 31 47  1  0
 31 48  1  0
 31 49  1  0
 32 50  1  0
 32 51  1  0
 32 52  1  0
M  CHG  1  16  -1
M  END
> <Uni-Dock RESULT> 
ENERGY=   -3.836  LOWER_BOUND=    0.000  UPPER_BOUND=    0.000
INTER + INTRA:          -3.836
INTER:                  -3.836
INTRA:                   0.000
UNBOUND:                 0.000

$$$$

     RDKit          3D

 52 54  0  0  0  0  0  0  0  0999 V2000
   50.5009    5.9272   21.8618 C   0  0  0  0  0  0  0  0  0  0  0  0
   51.6084    5.3981   22.5302 C   0  0  0  0  0  0  0  0  0  0  0  0
   51.3321    5.0669   19.7898 C   0  0  0  0  0  0  0  0  0  0  0  0
   50.4105    5.7472   20.5245 N   0  0  0  0  0  0  0  0  0  0  0  0
   52.3837    4.4451   20.4486 N   0  0  0  0  0  0  0  0  0  0  0  0
   52.5461    4.6609   21.8021 C   0  0  0  0  0  0  0  0  0  0  0  0
   49.6486    8.6169   17.7461 C   0  0  0  0  0  0  0  0  0  0  0  0
   48.3344    8.4478   17.5035 N   0  0  0  0  0  0  0  0  0  0  0  0
   49.9864    9.8818   17.6827 O   0  0  0  0  0  0  0  0  0  0  0  0
   50.5854    7.5299   18.0517 C   0  0  0  0  0  0  0  0  0  0  0  0
   51.0464    5.0032   18.2725 C   0  0  0  0  0  0  0  0  0  0  0  0
   47.8408    9.6545   17.2774 N   0  0  0  0  0  0  0  0  0  0  0  0
   49.4264    6.6846   22.5495 C   0  0  0  0  0  0  0  0  0  0  0  0
   50.1867    6.1533   17.9054 N   0  0  0  0  0  0  0  0  0  0  0  0
   48.8743   10.5101   17.3892 C   0  0  0  0  0  0  0  0  0  0  0  0
   51.7887    5.5866   23.8978 O   0  0  0  0  0  0  0  0  0  0  0  0
   48.3102    7.1924   21.7945 N   0  0  0  0  0  0  0  0  0  0  0  0
   53.5451    4.1917   22.4160 O   0  0  0  0  0  0  0  0  0  0  0  0
   51.7439    7.8208   18.4529 O   0  0  0  0  0  0  0  0  0  0  0  0
   49.4847    6.8820   23.7956 O   0  0  0  0  0  0  0  0  0  0  0  0
   53.3566    3.5777   19.7606 C   0  0  0  0  0  0  0  0  0  0  0  0
   47.2217    7.9598   22.3962 C   0  0  0  0  0  0  0  0  0  0  0  0
   47.5590   12.0487   21.0863 C   0  0  0  0  0  0  0  0  0  0  0  0
   47.3146    9.3932   21.9569 C   0  0  0  0  0  0  0  0  0  0  0  0
   47.6723   13.3329   20.6689 F   0  0  0  0  0  0  0  0  0  0  0  0
   48.2464   11.6206   22.2256 C   0  0  0  0  0  0  0  0  0  0  0  0
   46.7627   11.1495   20.3711 C   0  0  0  0  0  0  0  0  0  0  0  0
   48.1293   10.2959   22.6585 C   0  0  0  0  0  0  0  0  0  0  0  0
   46.6465    9.8239   20.7983 C   0  0  0  0  0  0  0  0  0  0  0  0
   52.3031    5.0629   17.3708 C   0  0  0  0  0  0  0  0  0  0  0  0
   50.2589    3.7096   17.9736 C   0  0  0  0  0  0  0  0  0  0  0  0
   48.7626   11.9839   17.2058 C   0  0  0  0  0  0  0  0  0  0  0  0
   49.2216    5.9705   17.5458 H   0  0  0  0  0  0  0  0  0  0  0  0
   48.3118    7.1065   20.7506 H   0  0  0  0  0  0  0  0  0  0  0  0
   52.8544    2.8847   19.0653 H   0  0  0  0  0  0  0  0  0  0  0  0
   53.8929    2.9097   20.4650 H   0  0  0  0  0  0  0  0  0  0  0  0
   54.1176    4.1926   19.2400 H   0  0  0  0  0  0  0  0  0  0  0  0
   46.2516    7.5227   22.0750 H   0  0  0  0  0  0  0  0  0  0  0  0
   47.2465    7.8976   23.5056 H   0  0  0  0  0  0  0  0  0  0  0  0
   48.8728   12.3132   22.7730 H   0  0  0  0  0  0  0  0  0  0  0  0
   46.2408   11.4767   19.4811 H   0  0  0  0  0  0  0  0  0  0  0  0
   48.6745    9.9724   23.5369 H   0  0  0  0  0  0  0  0  0  0  0  0
   46.0385    9.1339   20.2262 H   0  0  0  0  0  0  0  0  0  0  0  0
   52.7500    4.0651   17.1920 H   0  0  0  0  0  0  0  0  0  0  0  0
   53.0722    5.7398   17.7969 H   0  0  0  0  0  0  0  0  0  0  0  0
   52.0323    5.4515   16.3655 H   0  0  0  0  0  0  0  0  0  0  0  0
   49.9857    3.6648   16.8961 H   0  0  0  0  0  0  0  0  0  0  0  0
   50.8371    2.7961   18.2158 H   0  0  0  0  0  0  0  0  0  0  0  0
   49.3216    3.6860   18.5689 H   0  0  0  0  0  0  0  0  0  0  0  0
   48.2501   12.2017   16.2462 H   0  0  0  0  0  0  0  0  0  0  0  0
   48.1785   12.4206   18.0418 H   0  0  0  0  0  0  0  0  0  0  0  0
   49.7729   12.4424   17.1866 H   0  0  0  0  0  0  0  0  0  0  0  0
  2  1  2  0
  3  4  2  0
  4  1  1  0
  5  6  1  0
  6  2  1  0
  7 10  1  0
  8  7  2  0
  9  7  1  0
 10 14  1  0
 11  3  1  0
 12  8  1  0
 13  1  1  0
 14 11  1  0
 15  9  1  0
 16  2  1  0
 17 13  1  0
 18  6  2  0
 19 10  2  0
 20 13  2  0
 21  5  1  0
 22 17  1  0
 23 26  2  0
 24 22  1  0
 25 23  1  0
 26 28  1  0
 27 29  2  0
 28 24  2  0
 29 24  1  0
 30 11  1  0
 31 11  1  0
 32 15  1  0
  5  3  1  0
 27 23  1  0
 12 15  2  0
 14 33  1  0
 17 34  1  0
 21 35  1  0
 21 36  1  0
 21 37  1  0
 22 38  1  0
 22 39  1  0
 26 40  1  0
 27 41  1  0
 28 42  1  0
 29 43  1  0
 30 44  1  0
 30 45  1  0
 30 46  1  0
 31 47  1  0
 31 48  1  0
 31 49  1  0
 32 50  1  0
 32 51  1  0
 32 52  1  0
M  CHG  1  16  -1
M  END
> <Uni-Dock RESULT> 
ENERGY=   -3.767  LOWER_BOUND=    5.637  UPPER_BOUND=    7.528
INTER + INTRA:          -3.767
INTER:                  -3.767
INTRA:                   0.000
UNBOUND:                 0.000

$$$$

     RDKit          3D

 52 54  0  0  0  0  0  0  0  0999 V2000
   48.8975    7.4309   15.9049 C   0  0  0  0  0  0  0  0  0  0  0  0
   48.2433    7.3164   14.6752 C   0  0  0  0  0  0  0  0  0  0  0  0
   48.3438    5.1606   16.4181 C   0  0  0  0  0  0  0  0  0  0  0  0
   48.9160    6.3563   16.7258 N   0  0  0  0  0  0  0  0  0  0  0  0
   47.7808    4.9942   15.1604 N   0  0  0  0  0  0  0  0  0  0  0  0
   47.6841    6.0856   14.3213 C   0  0  0  0  0  0  0  0  0  0  0  0
   47.9489    6.3157   20.6752 C   0  0  0  0  0  0  0  0  0  0  0  0
   49.1557    6.3521   21.2724 N   0  0  0  0  0  0  0  0  0  0  0  0
   47.0564    6.9865   21.3621 O   0  0  0  0  0  0  0  0  0  0  0  0
   47.6651    5.6236   19.4131 C   0  0  0  0  0  0  0  0  0  0  0  0
   48.4603    4.0751   17.5118 C   0  0  0  0  0  0  0  0  0  0  0  0
   49.0032    7.0698   22.3735 N   0  0  0  0  0  0  0  0  0  0  0  0
   49.5631    8.6782   16.3545 C   0  0  0  0  0  0  0  0  0  0  0  0
   48.6404    4.7430   18.8225 N   0  0  0  0  0  0  0  0  0  0  0  0
   47.7090    7.4403   22.4041 C   0  0  0  0  0  0  0  0  0  0  0  0
   48.1451    8.3966   13.8022 O   0  0  0  0  0  0  0  0  0  0  0  0
   50.2255    8.7176   17.6326 N   0  0  0  0  0  0  0  0  0  0  0  0
   47.0913    5.9956   13.2096 O   0  0  0  0  0  0  0  0  0  0  0  0
   46.5554    5.8190   18.8490 O   0  0  0  0  0  0  0  0  0  0  0  0
   49.5548    9.7046   15.6185 O   0  0  0  0  0  0  0  0  0  0  0  0
   47.2556    3.7018   14.6846 C   0  0  0  0  0  0  0  0  0  0  0  0
   50.8895    9.9115   18.1517 C   0  0  0  0  0  0  0  0  0  0  0  0
   48.5480   11.4523   21.4216 C   0  0  0  0  0  0  0  0  0  0  0  0
   50.0931   10.4725   19.2951 C   0  0  0  0  0  0  0  0  0  0  0  0
   47.8055   11.9300   22.4496 F   0  0  0  0  0  0  0  0  0  0  0  0
   48.2667   11.8506   20.1116 C   0  0  0  0  0  0  0  0  0  0  0  0
   49.5888   10.5528   21.6706 C   0  0  0  0  0  0  0  0  0  0  0  0
   49.0331   11.3597   19.0498 C   0  0  0  0  0  0  0  0  0  0  0  0
   50.3541   10.0569   20.6116 C   0  0  0  0  0  0  0  0  0  0  0  0
   47.2311    3.1426   17.6364 C   0  0  0  0  0  0  0  0  0  0  0  0
   49.7219    3.2299   17.2343 C   0  0  0  0  0  0  0  0  0  0  0  0
   47.1012    8.2649   23.4851 C   0  0  0  0  0  0  0  0  0  0  0  0
   49.5343    4.5993   19.3462 H   0  0  0  0  0  0  0  0  0  0  0  0
   50.1512    7.8957   18.2775 H   0  0  0  0  0  0  0  0  0  0  0  0
   47.9441    2.8755   14.9272 H   0  0  0  0  0  0  0  0  0  0  0  0
   47.1717    3.6658   13.5793 H   0  0  0  0  0  0  0  0  0  0  0  0
   46.2446    3.5219   15.1013 H   0  0  0  0  0  0  0  0  0  0  0  0
   51.9104    9.6364   18.4944 H   0  0  0  0  0  0  0  0  0  0  0  0
   51.0167   10.6814   17.3603 H   0  0  0  0  0  0  0  0  0  0  0  0
   47.4533   12.5377   19.9168 H   0  0  0  0  0  0  0  0  0  0  0  0
   49.7986   10.2333   22.6832 H   0  0  0  0  0  0  0  0  0  0  0  0
   48.7998   11.6672   18.0377 H   0  0  0  0  0  0  0  0  0  0  0  0
   51.1475    9.3488   20.8171 H   0  0  0  0  0  0  0  0  0  0  0  0
   47.2837    2.2708   16.9549 H   0  0  0  0  0  0  0  0  0  0  0  0
   46.2865    3.6956   17.4545 H   0  0  0  0  0  0  0  0  0  0  0  0
   47.1793    2.7158   18.6612 H   0  0  0  0  0  0  0  0  0  0  0  0
   49.8663    2.4766   18.0400 H   0  0  0  0  0  0  0  0  0  0  0  0
   49.6655    2.6887   16.2692 H   0  0  0  0  0  0  0  0  0  0  0  0
   50.6206    3.8819   17.2059 H   0  0  0  0  0  0  0  0  0  0  0  0
   47.3463    7.8228   24.4728 H   0  0  0  0  0  0  0  0  0  0  0  0
   47.5015    9.2984   23.4356 H   0  0  0  0  0  0  0  0  0  0  0  0
   45.9983    8.2936   23.3672 H   0  0  0  0  0  0  0  0  0  0  0  0
  2  1  2  0
  3  4  2  0
  4  1  1  0
  5  6  1  0
  6  2  1  0
  7 10  1  0
  8  7  2  0
  9  7  1  0
 10 14  1  0
 11  3  1  0
 12  8  1  0
 13  1  1  0
 14 11  1  0
 15  9  1  0
 16  2  1  0
 17 13  1  0
 18  6  2  0
 19 10  2  0
 20 13  2  0
 21  5  1  0
 22 17  1  0
 23 26  2  0
 24 22  1  0
 25 23  1  0
 26 28  1  0
 27 29  2  0
 28 24  2  0
 29 24  1  0
 30 11  1  0
 31 11  1  0
 32 15  1  0
  5  3  1  0
 27 23  1  0
 12 15  2  0
 14 33  1  0
 17 34  1  0
 21 35  1  0
 21 36  1  0
 21 37  1  0
 22 38  1  0
 22 39  1  0
 26 40  1  0
 27 41  1  0
 28 42  1  0
 29 43  1  0
 30 44  1  0
 30 45  1  0
 30 46  1  0
 31 47  1  0
 31 48  1  0
 31 49  1  0
 32 50  1  0
 32 51  1  0
 32 52  1  0
M  CHG  1  16  -1
M  END
> <Uni-Dock RESULT> 
ENERGY=   -3.683  LOWER_BOUND=    3.771  UPPER_BOUND=    8.154
INTER + INTRA:          -3.683
INTER:                  -3.683
INTRA:                   0.000
UNBOUND:                 0.000

$$$$

     RDKit          3D

 52 54  0  0  0  0  0  0  0  0999 V2000
   48.9373    7.4427   15.9384 C   0  0  0  0  0  0  0  0  0  0  0  0
   48.2861    7.3489   14.7054 C   0  0  0  0  0  0  0  0  0  0  0  0
   48.3429    5.1782   16.4318 C   0  0  0  0  0  0  0  0  0  0  0  0
   48.9342    6.3616   16.7510 N   0  0  0  0  0  0  0  0  0  0  0  0
   47.7822    5.0312   15.1708 N   0  0  0  0  0  0  0  0  0  0  0  0
   47.7074    6.1306   14.3397 C   0  0  0  0  0  0  0  0  0  0  0  0
   47.9508    6.3070   20.6963 C   0  0  0  0  0  0  0  0  0  0  0  0
   49.1557    6.3182   21.2984 N   0  0  0  0  0  0  0  0  0  0  0  0
   47.0672    6.9876   21.3849 O   0  0  0  0  0  0  0  0  0  0  0  0
   47.6602    5.6297   19.4277 C   0  0  0  0  0  0  0  0  0  0  0  0
   48.4365    4.0825   17.5174 C   0  0  0  0  0  0  0  0  0  0  0  0
   49.0110    7.0299   22.4045 N   0  0  0  0  0  0  0  0  0  0  0  0
   49.6222    8.6749   16.4003 C   0  0  0  0  0  0  0  0  0  0  0  0
   48.6228    4.7371   18.8340 N   0  0  0  0  0  0  0  0  0  0  0  0
   47.7233    7.4221   22.4329 C   0  0  0  0  0  0  0  0  0  0  0  0
   48.2098    8.4373   13.8405 O   0  0  0  0  0  0  0  0  0  0  0  0
   50.2801    8.6931   17.6812 N   0  0  0  0  0  0  0  0  0  0  0  0
   47.1177    6.0593   13.2252 O   0  0  0  0  0  0  0  0  0  0  0  0
   46.5564    5.8483   18.8609 O   0  0  0  0  0  0  0  0  0  0  0  0
   49.6343    9.7070   15.6724 O   0  0  0  0  0  0  0  0  0  0  0  0
   47.2370    3.7517   14.6828 C   0  0  0  0  0  0  0  0  0  0  0  0
   50.9622    9.8715   18.2122 C   0  0  0  0  0  0  0  0  0  0  0  0
   48.6344   11.4268   21.4850 C   0  0  0  0  0  0  0  0  0  0  0  0
   50.1709   10.4371   19.3569 C   0  0  0  0  0  0  0  0  0  0  0  0
   47.8960   11.9091   22.5138 F   0  0  0  0  0  0  0  0  0  0  0  0
   48.3651   11.8399   20.1771 C   0  0  0  0  0  0  0  0  0  0  0  0
   49.6586   10.5077   21.7310 C   0  0  0  0  0  0  0  0  0  0  0  0
   49.1273   11.3442   19.1144 C   0  0  0  0  0  0  0  0  0  0  0  0
   50.4196   10.0070   20.6711 C   0  0  0  0  0  0  0  0  0  0  0  0
   47.1912    3.1702   17.6301 C   0  0  0  0  0  0  0  0  0  0  0  0
   49.6847    3.2181   17.2382 C   0  0  0  0  0  0  0  0  0  0  0  0
   47.1253    8.2487   23.5180 C   0  0  0  0  0  0  0  0  0  0  0  0
   49.5121    4.5741   19.3601 H   0  0  0  0  0  0  0  0  0  0  0  0
   50.1892    7.8677   18.3195 H   0  0  0  0  0  0  0  0  0  0  0  0
   47.9103    2.9119   14.9217 H   0  0  0  0  0  0  0  0  0  0  0  0
   47.1568    3.7257   13.5770 H   0  0  0  0  0  0  0  0  0  0  0  0
   46.2213    3.5859   15.0942 H   0  0  0  0  0  0  0  0  0  0  0  0
   51.9770    9.5763   18.5567 H   0  0  0  0  0  0  0  0  0  0  0  0
   51.1057   10.6452   17.4273 H   0  0  0  0  0  0  0  0  0  0  0  0
   47.5643   12.5423   19.9844 H   0  0  0  0  0  0  0  0  0  0  0  0
   49.8590   10.1769   22.7419 H   0  0  0  0  0  0  0  0  0  0  0  0
   48.9033   11.6635   18.1038 H   0  0  0  0  0  0  0  0  0  0  0  0
   51.2000    9.2839   20.8741 H   0  0  0  0  0  0  0  0  0  0  0  0
   47.2316    2.3029   16.9420 H   0  0  0  0  0  0  0  0  0  0  0  0
   46.2569    3.7407   17.4488 H   0  0  0  0  0  0  0  0  0  0  0  0
   47.1280    2.7364   18.6513 H   0  0  0  0  0  0  0  0  0  0  0  0
   49.8130    2.4562   18.0387 H   0  0  0  0  0  0  0  0  0  0  0  0
   49.6229    2.6854   16.2687 H   0  0  0  0  0  0  0  0  0  0  0  0
   50.5945    3.8548   17.2184 H   0  0  0  0  0  0  0  0  0  0  0  0
   47.3588    7.7948   24.5031 H   0  0  0  0  0  0  0  0  0  0  0  0
   47.5433    9.2756   23.4781 H   0  0  0  0  0  0  0  0  0  0  0  0
   46.0235    8.2970   23.3960 H   0  0  0  0  0  0  0  0  0  0  0  0
  2  1  2  0
  3  4  2  0
  4  1  1  0
  5  6  1  0
  6  2  1  0
  7 10  1  0
  8  7  2  0
  9  7  1  0
 10 14  1  0
 11  3  1  0
 12  8  1  0
 13  1  1  0
 14 11  1  0
 15  9  1  0
 16  2  1  0
 17 13  1  0
 18  6  2  0
 19 10  2  0
 20 13  2  0
 21  5  1  0
 22 17  1  0
 23 26  2  0
 24 22  1  0
 25 23  1  0
 26 28  1  0
 27 29  2  0
 28 24  2  0
 29 24  1  0
 30 11  1  0
 31 11  1  0
 32 15  1  0
  5  3  1  0
 27 23  1  0
 12 15  2  0
 14 33  1  0
 17 34  1  0
 21 35  1  0
 21 36  1  0
 21 37  1  0
 22 38  1  0
 22 39  1  0
 26 40  1  0
 27 41  1  0
 28 42  1  0
 29 43  1  0
 30 44  1  0
 30 45  1  0
 30 46  1  0
 31 47  1  0
 31 48  1  0
 31 49  1  0
 32 50  1  0
 32 51  1  0
 32 52  1  0
M  CHG  1  16  -1
M  END
> <Uni-Dock RESULT> 
ENERGY=   -3.674  LOWER_BOUND=    3.782  UPPER_BOUND=    8.185
INTER + INTRA:          -3.674
INTER:                  -3.674
INTRA:                   0.000
UNBOUND:                 0.000

$$$$

     RDKit          3D

 52 54  0  0  0  0  0  0  0  0999 V2000
   52.3043    4.5466   21.6608 C   0  0  0  0  0  0  0  0  0  0  0  0
   53.4303    4.5790   22.4881 C   0  0  0  0  0  0  0  0  0  0  0  0
   53.6436    3.7178   19.8597 C   0  0  0  0  0  0  0  0  0  0  0  0
   52.4561    4.1257   20.3844 N   0  0  0  0  0  0  0  0  0  0  0  0
   54.7510    3.6433   20.6930 N   0  0  0  0  0  0  0  0  0  0  0  0
   54.6516    4.1259   21.9822 C   0  0  0  0  0  0  0  0  0  0  0  0
   51.1103    6.0110   17.0423 C   0  0  0  0  0  0  0  0  0  0  0  0
   49.9801    5.3347   16.7599 N   0  0  0  0  0  0  0  0  0  0  0  0
   50.9924    7.2822   16.7451 O   0  0  0  0  0  0  0  0  0  0  0  0
   52.3187    5.4097   17.6176 C   0  0  0  0  0  0  0  0  0  0  0  0
   53.5968    3.3020   18.3721 C   0  0  0  0  0  0  0  0  0  0  0  0
   49.1314    6.2210   16.2650 N   0  0  0  0  0  0  0  0  0  0  0  0
   50.9542    4.9613   22.1148 C   0  0  0  0  0  0  0  0  0  0  0  0
   52.4460    3.9790   17.7287 N   0  0  0  0  0  0  0  0  0  0  0  0
   49.7792    7.4014   16.2639 C   0  0  0  0  0  0  0  0  0  0  0  0
   53.3551    5.0455   23.7977 O   0  0  0  0  0  0  0  0  0  0  0  0
   49.8388    4.8918   21.2065 N   0  0  0  0  0  0  0  0  0  0  0  0
   55.6630    4.1644   22.7376 O   0  0  0  0  0  0  0  0  0  0  0  0
   53.2413    6.1670   18.0211 O   0  0  0  0  0  0  0  0  0  0  0  0
   50.7784    5.3711   23.2965 O   0  0  0  0  0  0  0  0  0  0  0  0
   56.0451    3.0905   20.2547 C   0  0  0  0  0  0  0  0  0  0  0  0
   48.4833    5.2962   21.5737 C   0  0  0  0  0  0  0  0  0  0  0  0
   47.5442    8.9449   19.4870 C   0  0  0  0  0  0  0  0  0  0  0  0
   48.1280    6.5693   20.8601 C   0  0  0  0  0  0  0  0  0  0  0  0
   47.2569   10.0925   18.8262 F   0  0  0  0  0  0  0  0  0  0  0  0
   48.1840    8.9944   20.7288 C   0  0  0  0  0  0  0  0  0  0  0  0
   47.2100    7.7109   18.9215 C   0  0  0  0  0  0  0  0  0  0  0  0
   48.4798    7.8109   21.4127 C   0  0  0  0  0  0  0  0  0  0  0  0
   47.5078    6.5260   19.6001 C   0  0  0  0  0  0  0  0  0  0  0  0
   54.8597    3.6663   17.5547 C   0  0  0  0  0  0  0  0  0  0  0  0
   53.3540    1.7795   18.2938 C   0  0  0  0  0  0  0  0  0  0  0  0
   49.1867    8.6793   15.7799 C   0  0  0  0  0  0  0  0  0  0  0  0
   51.6599    3.3984   17.3558 H   0  0  0  0  0  0  0  0  0  0  0  0
   50.0053    4.6397   20.2036 H   0  0  0  0  0  0  0  0  0  0  0  0
   55.9097    2.1564   19.6848 H   0  0  0  0  0  0  0  0  0  0  0  0
   56.6843    2.7927   21.1108 H   0  0  0  0  0  0  0  0  0  0  0  0
   56.6054    3.8453   19.6676 H   0  0  0  0  0  0  0  0  0  0  0  0
   47.7759    4.4873   21.2893 H   0  0  0  0  0  0  0  0  0  0  0  0
   48.3843    5.4332   22.6722 H   0  0  0  0  0  0  0  0  0  0  0  0
   48.4539    9.9491   21.1618 H   0  0  0  0  0  0  0  0  0  0  0  0
   46.7268    7.6710   17.9538 H   0  0  0  0  0  0  0  0  0  0  0  0
   48.9849    7.8607   22.3697 H   0  0  0  0  0  0  0  0  0  0  0  0
   47.2571    5.5763   19.1436 H   0  0  0  0  0  0  0  0  0  0  0  0
   55.6448    2.8866   17.6088 H   0  0  0  0  0  0  0  0  0  0  0  0
   55.2834    4.6386   17.8809 H   0  0  0  0  0  0  0  0  0  0  0  0
   54.6032    3.7554   16.4771 H   0  0  0  0  0  0  0  0  0  0  0  0
   53.2553    1.4589   17.2331 H   0  0  0  0  0  0  0  0  0  0  0  0
   54.1772    1.1951   18.7502 H   0  0  0  0  0  0  0  0  0  0  0  0
   52.4148    1.5140   18.8238 H   0  0  0  0  0  0  0  0  0  0  0  0
   48.7592    8.5310   14.7669 H   0  0  0  0  0  0  0  0  0  0  0  0
   48.3842    9.0046   16.4734 H   0  0  0  0  0  0  0  0  0  0  0  0
   49.9679    9.4657   15.7295 H   0  0  0  0  0  0  0  0  0  0  0  0
  2  1  2  0
  3  4  2  0
  4  1  1  0
  5  6  1  0
  6  2  1  0
  7 10  1  0
  8  7  2  0
  9  7  1  0
 10 14  1  0
 11  3  1  0
 12  8  1  0
 13  1  1  0
 14 11  1  0
 15  9  1  0
 16  2  1  0
 17 13  1  0
 18  6  2  0
 19 10  2  0
 20 13  2  0
 21  5  1  0
 22 17  1  0
 23 26  2  0
 24 22  1  0
 25 23  1  0
 26 28  1  0
 27 29  2  0
 28 24  2  0
 29 24  1  0
 30 11  1  0
 31 11  1  0
 32 15  1  0
  5  3  1  0
 27 23  1  0
 12 15  2  0
 14 33  1  0
 17 34  1  0
 21 35  1  0
 21 36  1  0
 21 37  1  0
 22 38  1  0
 22 39  1  0
 26 40  1  0
 27 41  1  0
 28 42  1  0
 29 43  1  0
 30 44  1  0
 30 45  1  0
 30 46  1  0
 31 47  1  0
 31 48  1  0
 31 49  1  0
 32 50  1  0
 32 51  1  0
 32 52  1  0
M  CHG  1  16  -1
M  END
> <Uni-Dock RESULT> 
ENERGY=   -3.663  LOWER_BOUND=    4.859  UPPER_BOUND=    7.400
INTER + INTRA:          -3.663
INTER:                  -3.663
INTRA:                   0.000
UNBOUND:                 0.000

$$$$

     RDKit          3D

 52 54  0  0  0  0  0  0  0  0999 V2000
   48.2444    9.6528   17.7492 C   0  0  0  0  0  0  0  0  0  0  0  0
   47.7152    8.8968   18.7989 C   0  0  0  0  0  0  0  0  0  0  0  0
   48.4564   11.5389   19.2060 C   0  0  0  0  0  0  0  0  0  0  0  0
   48.5860   10.9388   17.9915 N   0  0  0  0  0  0  0  0  0  0  0  0
   48.0316   10.7765   20.2852 N   0  0  0  0  0  0  0  0  0  0  0  0
   47.6114    9.4805   20.0643 C   0  0  0  0  0  0  0  0  0  0  0  0
   47.5299   14.1786   15.7728 C   0  0  0  0  0  0  0  0  0  0  0  0
   48.6311   14.3947   15.0277 N   0  0  0  0  0  0  0  0  0  0  0  0
   46.4385   14.4598   15.1035 O   0  0  0  0  0  0  0  0  0  0  0  0
   47.5430   13.6835   17.1538 C   0  0  0  0  0  0  0  0  0  0  0  0
   48.8831   13.0233   19.2547 C   0  0  0  0  0  0  0  0  0  0  0  0
   48.2047   14.8302   13.8532 N   0  0  0  0  0  0  0  0  0  0  0  0
   48.4391    9.1131   16.3811 C   0  0  0  0  0  0  0  0  0  0  0  0
   48.7784   13.5896   17.8891 N   0  0  0  0  0  0  0  0  0  0  0  0
   46.8609   14.8639   13.9305 C   0  0  0  0  0  0  0  0  0  0  0  0
   47.2987    7.5821   18.6081 O   0  0  0  0  0  0  0  0  0  0  0  0
   48.9990    9.9508   15.3522 N   0  0  0  0  0  0  0  0  0  0  0  0
   47.1273    8.7892   21.0039 O   0  0  0  0  0  0  0  0  0  0  0  0
   46.4550   13.3332   17.6842 O   0  0  0  0  0  0  0  0  0  0  0  0
   48.1197    7.9202   16.1164 O   0  0  0  0  0  0  0  0  0  0  0  0
   47.9852   11.2979   21.6630 C   0  0  0  0  0  0  0  0  0  0  0  0
   49.2071    9.4975   13.9785 C   0  0  0  0  0  0  0  0  0  0  0  0
   46.3577   11.4984   11.4434 C   0  0  0  0  0  0  0  0  0  0  0  0
   48.2244   10.1795   13.0699 C   0  0  0  0  0  0  0  0  0  0  0  0
   45.4580   12.1326   10.6531 F   0  0  0  0  0  0  0  0  0  0  0  0
   46.0128   10.2984   12.0719 C   0  0  0  0  0  0  0  0  0  0  0  0
   47.6273   12.0499   11.6385 C   0  0  0  0  0  0  0  0  0  0  0  0
   46.9406    9.6418   12.8867 C   0  0  0  0  0  0  0  0  0  0  0  0
   48.5557   11.3988   12.4553 C   0  0  0  0  0  0  0  0  0  0  0  0
   48.0297   13.9152   20.1886 C   0  0  0  0  0  0  0  0  0  0  0  0
   50.3639   13.0962   19.6846 C   0  0  0  0  0  0  0  0  0  0  0  0
   45.9708   15.3019   12.8196 C   0  0  0  0  0  0  0  0  0  0  0  0
   49.6475   13.9167   17.4078 H   0  0  0  0  0  0  0  0  0  0  0  0
   49.1762   10.9637   15.5514 H   0  0  0  0  0  0  0  0  0  0  0  0
   48.8989   11.8643   21.9083 H   0  0  0  0  0  0  0  0  0  0  0  0
   47.9624   10.4851   22.4173 H   0  0  0  0  0  0  0  0  0  0  0  0
   47.0756   11.9137   21.8096 H   0  0  0  0  0  0  0  0  0  0  0  0
   50.2469    9.7426   13.6713 H   0  0  0  0  0  0  0  0  0  0  0  0
   49.1029    8.3942   13.8952 H   0  0  0  0  0  0  0  0  0  0  0  0
   45.0257    9.8769   11.9311 H   0  0  0  0  0  0  0  0  0  0  0  0
   47.8907   12.9860   11.1631 H   0  0  0  0  0  0  0  0  0  0  0  0
   46.6591    8.7177   13.3769 H   0  0  0  0  0  0  0  0  0  0  0  0
   49.5304   11.8449   12.6101 H   0  0  0  0  0  0  0  0  0  0  0  0
   48.3962   13.9151   21.2340 H   0  0  0  0  0  0  0  0  0  0  0  0
   46.9631   13.6097   20.1724 H   0  0  0  0  0  0  0  0  0  0  0  0
   48.0816   14.9742   19.8557 H   0  0  0  0  0  0  0  0  0  0  0  0
   50.7180   14.1507   19.6708 H   0  0  0  0  0  0  0  0  0  0  0  0
   50.5293   12.6955   20.7043 H   0  0  0  0  0  0  0  0  0  0  0  0
   50.9953   12.5106   18.9832 H   0  0  0  0  0  0  0  0  0  0  0  0
   46.3091   16.2874   12.4383 H   0  0  0  0  0  0  0  0  0  0  0  0
   46.0065   14.5578   11.9975 H   0  0  0  0  0  0  0  0  0  0  0  0
   44.9267   15.3957   13.1833 H   0  0  0  0  0  0  0  0  0  0  0  0
  2  1  2  0
  3  4  2  0
  4  1  1  0
  5  6  1  0
  6  2  1  0
  7 10  1  0
  8  7  2  0
  9  7  1  0
 10 14  1  0
 11  3  1  0
 12  8  1  0
 13  1  1  0
 14 11  1  0
 15  9  1  0
 16  2  1  0
 17 13  1  0
 18  6  2  0
 19 10  2  0
 20 13  2  0
 21  5  1  0
 22 17  1  0
 23 26  2  0
 24 22  1  0
 25 23  1  0
 26 28  1  0
 27 29  2  0
 28 24  2  0
 29 24  1  0
 30 11  1  0
 31 11  1  0
 32 15  1  0
  5  3  1  0
 27 23  1  0
 12 15  2  0
 14 33  1  0
 17 34  1  0
 21 35  1  0
 21 36  1  0
 21 37  1  0
 22 38  1  0
 22 39  1  0
 26 40  1  0
 27 41  1  0
 28 42  1  0
 29 43  1  0
 30 44  1  0
 30 45  1  0
 30 46  1  0
 31 47  1  0
 31 48  1  0
 31 49  1  0
 32 50  1  0
 32 51  1  0
 32 52  1  0
M  CHG  1  16  -1
M  END
> <Uni-Dock RESULT> 
ENERGY=   -3.624  LOWER_BOUND=    4.256  UPPER_BOUND=    5.646
INTER + INTRA:          -3.624
INTER:                  -3.624
INTRA:                   0.000
UNBOUND:                 0.000

$$$$

     RDKit          3D

 52 54  0  0  0  0  0  0  0  0999 V2000
   48.1230    6.7509   13.8170 C   0  0  0  0  0  0  0  0  0  0  0  0
   47.3400    5.5936   13.8409 C   0  0  0  0  0  0  0  0  0  0  0  0
   48.8520    6.3116   16.0530 C   0  0  0  0  0  0  0  0  0  0  0  0
   48.8389    7.0658   14.9204 N   0  0  0  0  0  0  0  0  0  0  0  0
   48.1647    5.1058   16.0599 N   0  0  0  0  0  0  0  0  0  0  0  0
   47.3703    4.7827   14.9786 C   0  0  0  0  0  0  0  0  0  0  0  0
   48.9437   10.6787   16.7833 C   0  0  0  0  0  0  0  0  0  0  0  0
   50.0878   11.2154   16.3170 N   0  0  0  0  0  0  0  0  0  0  0  0
   48.0243   11.5960   16.9609 O   0  0  0  0  0  0  0  0  0  0  0  0
   48.7427    9.2504   17.0514 C   0  0  0  0  0  0  0  0  0  0  0  0
   49.7188    6.8694   17.2043 C   0  0  0  0  0  0  0  0  0  0  0  0
   49.8692   12.5156   16.2055 N   0  0  0  0  0  0  0  0  0  0  0  0
   48.1971    7.6539   12.6422 C   0  0  0  0  0  0  0  0  0  0  0  0
   49.8544    8.3344   17.0260 N   0  0  0  0  0  0  0  0  0  0  0  0
   48.6013   12.7193   16.6102 C   0  0  0  0  0  0  0  0  0  0  0  0
   46.5419    5.2351   12.7578 O   0  0  0  0  0  0  0  0  0  0  0  0
   49.0339    8.8249   12.6888 N   0  0  0  0  0  0  0  0  0  0  0  0
   46.6549    3.7419   14.9904 O   0  0  0  0  0  0  0  0  0  0  0  0
   47.5783    8.8360   17.2965 O   0  0  0  0  0  0  0  0  0  0  0  0
   47.5324    7.3970   11.5994 O   0  0  0  0  0  0  0  0  0  0  0  0
   48.2252    4.1579   17.1869 C   0  0  0  0  0  0  0  0  0  0  0  0
   49.1481    9.7698   11.5797 C   0  0  0  0  0  0  0  0  0  0  0  0
   47.1772   13.4295   12.7072 C   0  0  0  0  0  0  0  0  0  0  0  0
   48.4673   11.0580   11.9449 C   0  0  0  0  0  0  0  0  0  0  0  0
   46.5553   14.5774   13.0704 F   0  0  0  0  0  0  0  0  0  0  0  0
   46.4481   12.3989   12.1070 C   0  0  0  0  0  0  0  0  0  0  0  0
   48.5461   13.2721   12.9427 C   0  0  0  0  0  0  0  0  0  0  0  0
   47.0887   11.2142   11.7303 C   0  0  0  0  0  0  0  0  0  0  0  0
   49.1889   12.0880   12.5715 C   0  0  0  0  0  0  0  0  0  0  0  0
   49.1482    6.6301   18.6231 C   0  0  0  0  0  0  0  0  0  0  0  0
   51.1286    6.2483   17.1047 C   0  0  0  0  0  0  0  0  0  0  0  0
   47.9407   14.0536   16.6491 C   0  0  0  0  0  0  0  0  0  0  0  0
   50.8019    8.7372   16.8411 H   0  0  0  0  0  0  0  0  0  0  0  0
   49.5103    9.0831   13.5851 H   0  0  0  0  0  0  0  0  0  0  0  0
   49.2589    4.0313   17.5492 H   0  0  0  0  0  0  0  0  0  0  0  0
   47.9175    3.1346   16.8898 H   0  0  0  0  0  0  0  0  0  0  0  0
   47.5483    4.4860   18.0008 H   0  0  0  0  0  0  0  0  0  0  0  0
   50.2244    9.9513   11.3697 H   0  0  0  0  0  0  0  0  0  0  0  0
   48.7078    9.3557   10.6470 H   0  0  0  0  0  0  0  0  0  0  0  0
   45.3857   12.5153   11.9353 H   0  0  0  0  0  0  0  0  0  0  0  0
   49.1088   14.0641   13.4197 H   0  0  0  0  0  0  0  0  0  0  0  0
   46.5120   10.4182   11.2752 H   0  0  0  0  0  0  0  0  0  0  0  0
   50.2468   11.9732   12.7736 H   0  0  0  0  0  0  0  0  0  0  0  0
   49.4516    5.6530   19.0479 H   0  0  0  0  0  0  0  0  0  0  0  0
   48.0413    6.7066   18.6297 H   0  0  0  0  0  0  0  0  0  0  0  0
   49.5427    7.3950   19.3262 H   0  0  0  0  0  0  0  0  0  0  0  0
   51.7948    6.6769   17.8857 H   0  0  0  0  0  0  0  0  0  0  0  0
   51.1170    5.1480   17.2343 H   0  0  0  0  0  0  0  0  0  0  0  0
   51.5744    6.4685   16.1116 H   0  0  0  0  0  0  0  0  0  0  0  0
   48.5859   14.7725   17.1949 H   0  0  0  0  0  0  0  0  0  0  0  0
   47.7768   14.4190   15.6145 H   0  0  0  0  0  0  0  0  0  0  0  0
   46.9638   13.9793   17.1700 H   0  0  0  0  0  0  0  0  0  0  0  0
  2  1  2  0
  3  4  2  0
  4  1  1  0
  5  6  1  0
  6  2  1  0
  7 10  1  0
  8  7  2  0
  9  7  1  0
 10 14  1  0
 11  3  1  0
 12  8  1  0
 13  1  1  0
 14 11  1  0
 15  9  1  0
 16  2  1  0
 17 13  1  0
 18  6  2  0
 19 10  2  0
 20 13  2  0
 21  5  1  0
 22 17  1  0
 23 26  2  0
 24 22  1  0
 25 23  1  0
 26 28  1  0
 27 29  2  0
 28 24  2  0
 29 24  1  0
 30 11  1  0
 31 11  1  0
 32 15  1  0
  5  3  1  0
 27 23  1  0
 12 15  2  0
 14 33  1  0
 17 34  1  0
 21 35  1  0
 21 36  1  0
 21 37  1  0
 22 38  1  0
 22 39  1  0
 26 40  1  0
 27 41  1  0
 28 42  1  0
 29 43  1  0
 30 44  1  0
 30 45  1  0
 30 46  1  0
 31 47  1  0
 31 48  1  0
 31 49  1  0
 32 50  1  0
 32 51  1  0
 32 52  1  0
M  CHG  1  16  -1
M  END
> <Uni-Dock RESULT> 
ENERGY=   -3.551  LOWER_BOUND=    3.103  UPPER_BOUND=    5.565
INTER + INTRA:          -3.551
INTER:                  -3.551
INTRA:                   0.000
UNBOUND:                 0.000

$$$$

     RDKit          3D

 52 54  0  0  0  0  0  0  0  0999 V2000
   48.1294    5.7680   15.0722 C   0  0  0  0  0  0  0  0  0  0  0  0
   47.3391    4.6921   15.4861 C   0  0  0  0  0  0  0  0  0  0  0  0
   49.0662    5.9327   17.2675 C   0  0  0  0  0  0  0  0  0  0  0  0
   48.9523    6.3466   15.9762 N   0  0  0  0  0  0  0  0  0  0  0  0
   48.3691    4.8021   17.6700 N   0  0  0  0  0  0  0  0  0  0  0  0
   47.4700    4.2246   16.7964 C   0  0  0  0  0  0  0  0  0  0  0  0
   49.2782   10.3257   16.7476 C   0  0  0  0  0  0  0  0  0  0  0  0
   50.3780   10.6699   16.0500 N   0  0  0  0  0  0  0  0  0  0  0  0
   48.3909   11.2906   16.7458 O   0  0  0  0  0  0  0  0  0  0  0  0
   49.0878    9.0347   17.4180 C   0  0  0  0  0  0  0  0  0  0  0  0
   50.0467    6.7522   18.1364 C   0  0  0  0  0  0  0  0  0  0  0  0
   50.1645   11.8968   15.6027 N   0  0  0  0  0  0  0  0  0  0  0  0
   48.0998    6.3098   13.6914 C   0  0  0  0  0  0  0  0  0  0  0  0
   50.1813    8.1057   17.5477 N   0  0  0  0  0  0  0  0  0  0  0  0
   48.9441   12.2517   16.0473 C   0  0  0  0  0  0  0  0  0  0  0  0
   46.4359    4.0803   14.6211 O   0  0  0  0  0  0  0  0  0  0  0  0
   48.9506    7.4162   13.3363 N   0  0  0  0  0  0  0  0  0  0  0  0
   46.7472    3.2549   17.1604 O   0  0  0  0  0  0  0  0  0  0  0  0
   47.9479    8.7479   17.8719 O   0  0  0  0  0  0  0  0  0  0  0  0
   47.3344    5.8017   12.8248 O   0  0  0  0  0  0  0  0  0  0  0  0
   48.5274    4.1988   19.0054 C   0  0  0  0  0  0  0  0  0  0  0  0
   48.9677    8.0149   12.0033 C   0  0  0  0  0  0  0  0  0  0  0  0
   47.1573   11.9153   12.2447 C   0  0  0  0  0  0  0  0  0  0  0  0
   48.3403    9.3786   12.0567 C   0  0  0  0  0  0  0  0  0  0  0  0
   46.5867   13.1414   12.3298 F   0  0  0  0  0  0  0  0  0  0  0  0
   46.3618   10.7878   12.0216 C   0  0  0  0  0  0  0  0  0  0  0  0
   48.5407   11.7770   12.3906 C   0  0  0  0  0  0  0  0  0  0  0  0
   46.9493    9.5218   11.9320 C   0  0  0  0  0  0  0  0  0  0  0  0
   49.1309   10.5131   12.3059 C   0  0  0  0  0  0  0  0  0  0  0  0
   49.6134    6.9338   19.6112 C   0  0  0  0  0  0  0  0  0  0  0  0
   51.4330    6.0749   18.0866 C   0  0  0  0  0  0  0  0  0  0  0  0
   48.3058   13.5692   15.7740 C   0  0  0  0  0  0  0  0  0  0  0  0
   51.1109    8.4060   17.1740 H   0  0  0  0  0  0  0  0  0  0  0  0
   49.5144    7.8925   14.0794 H   0  0  0  0  0  0  0  0  0  0  0  0
   49.5898    4.1377   19.2942 H   0  0  0  0  0  0  0  0  0  0  0  0
   48.1807    3.1457   19.0324 H   0  0  0  0  0  0  0  0  0  0  0  0
   47.9363    4.7633   19.7538 H   0  0  0  0  0  0  0  0  0  0  0  0
   50.0207    8.0909   11.6554 H   0  0  0  0  0  0  0  0  0  0  0  0
   48.4345    7.3774   11.2653 H   0  0  0  0  0  0  0  0  0  0  0  0
   45.2891   10.8925   11.9205 H   0  0  0  0  0  0  0  0  0  0  0  0
   49.1560   12.6478   12.5769 H   0  0  0  0  0  0  0  0  0  0  0  0
   46.3222    8.6538   11.7690 H   0  0  0  0  0  0  0  0  0  0  0  0
   50.2020   10.4183   12.4361 H   0  0  0  0  0  0  0  0  0  0  0  0
   49.9452    6.1003   20.2612 H   0  0  0  0  0  0  0  0  0  0  0  0
   48.5132    7.0509   19.6957 H   0  0  0  0  0  0  0  0  0  0  0  0
   50.0828    7.8470   20.0364 H   0  0  0  0  0  0  0  0  0  0  0  0
   52.1766    6.6761   18.6552 H   0  0  0  0  0  0  0  0  0  0  0  0
   51.4214    5.0538   18.5166 H   0  0  0  0  0  0  0  0  0  0  0  0
   51.7832    5.9967   17.0355 H   0  0  0  0  0  0  0  0  0  0  0  0
   49.0090   14.3855   16.0389 H   0  0  0  0  0  0  0  0  0  0  0  0
   48.0468   13.6422   14.6977 H   0  0  0  0  0  0  0  0  0  0  0  0
   47.3830   13.6779   16.3806 H   0  0  0  0  0  0  0  0  0  0  0  0
  2  1  2  0
  3  4  2  0
  4  1  1  0
  5  6  1  0
  6  2  1  0
  7 10  1  0
  8  7  2  0
  9  7  1  0
 10 14  1  0
 11  3  1  0
 12  8  1  0
 13  1  1  0
 14 11  1  0
 15  9  1  0
 16  2  1  0
 17 13  1  0
 18  6  2  0
 19 10  2  0
 20 13  2  0
 21  5  1  0
 22 17  1  0
 23 26  2  0
 24 22  1  0
 25 23  1  0
 26 28  1  0
 27 29  2  0
 28 24  2  0
 29 24  1  0
 30 11  1  0
 31 11  1  0
 32 15  1  0
  5  3  1  0
 27 23  1  0
 12 15  2  0
 14 33  1  0
 17 34  1  0
 21 35  1  0
 21 36  1  0
 21 37  1  0
 22 38  1  0
 22 39  1  0
 26 40  1  0
 27 41  1  0
 28 42  1  0
 29 43  1  0
 30 44  1  0
 30 45  1  0
 30 46  1  0
 31 47  1  0
 31 48  1  0
 31 49  1  0
 32 50  1  0
 32 51  1  0
 32 52  1  0
M  CHG  1  16  -1
M  END
> <Uni-Dock RESULT> 
ENERGY=   -3.545  LOWER_BOUND=    2.968  UPPER_BOUND=    4.665
INTER + INTRA:          -3.545
INTER:                  -3.545
INTRA:                   0.000
UNBOUND:                 0.000

$$$$

     RDKit          3D

 52 54  0  0  0  0  0  0  0  0999 V2000
   44.5334   10.1573   11.7122 C   0  0  0  0  0  0  0  0  0  0  0  0
   43.3770    9.8370   10.9956 C   0  0  0  0  0  0  0  0  0  0  0  0
   44.2805   12.4576   11.1043 C   0  0  0  0  0  0  0  0  0  0  0  0
   44.9406   11.4469   11.7325 N   0  0  0  0  0  0  0  0  0  0  0  0
   43.0751   12.1781   10.4757 N   0  0  0  0  0  0  0  0  0  0  0  0
   42.6610   10.8652   10.3770 C   0  0  0  0  0  0  0  0  0  0  0  0
   48.6928   12.8084   10.9567 C   0  0  0  0  0  0  0  0  0  0  0  0
   49.1969   12.9970   12.1916 N   0  0  0  0  0  0  0  0  0  0  0  0
   49.6160   12.3955   10.1227 O   0  0  0  0  0  0  0  0  0  0  0  0
   47.2896   13.0265   10.5880 C   0  0  0  0  0  0  0  0  0  0  0  0
   44.9347   13.8514   11.2353 C   0  0  0  0  0  0  0  0  0  0  0  0
   50.4826   12.6928   12.1178 N   0  0  0  0  0  0  0  0  0  0  0  0
   45.3389    9.1478   12.4422 C   0  0  0  0  0  0  0  0  0  0  0  0
   46.3813   13.6708   11.5020 N   0  0  0  0  0  0  0  0  0  0  0  0
   50.7107   12.3330   10.8405 C   0  0  0  0  0  0  0  0  0  0  0  0
   42.9275    8.5232   10.8934 O   0  0  0  0  0  0  0  0  0  0  0  0
   46.5149    9.5554   13.1666 N   0  0  0  0  0  0  0  0  0  0  0  0
   41.6203   10.5629    9.7283 O   0  0  0  0  0  0  0  0  0  0  0  0
   46.8894   12.6328    9.4599 O   0  0  0  0  0  0  0  0  0  0  0  0
   44.9946    7.9326   12.4345 O   0  0  0  0  0  0  0  0  0  0  0  0
   42.2218   13.2234    9.8829 C   0  0  0  0  0  0  0  0  0  0  0  0
   47.3677    8.6196   13.8965 C   0  0  0  0  0  0  0  0  0  0  0  0
   51.0947    8.2402   11.7717 C   0  0  0  0  0  0  0  0  0  0  0  0
   48.6771    8.4664   13.1766 C   0  0  0  0  0  0  0  0  0  0  0  0
   52.2644    8.1272   11.0970 F   0  0  0  0  0  0  0  0  0  0  0  0
   50.0146    7.4166   11.4416 C   0  0  0  0  0  0  0  0  0  0  0  0
   50.9650    9.1882   12.7910 C   0  0  0  0  0  0  0  0  0  0  0  0
   48.8072    7.5310   12.1380 C   0  0  0  0  0  0  0  0  0  0  0  0
   49.7586    9.3082   13.4862 C   0  0  0  0  0  0  0  0  0  0  0  0
   44.8074   14.7502    9.9816 C   0  0  0  0  0  0  0  0  0  0  0  0
   44.3161   14.5734   12.4515 C   0  0  0  0  0  0  0  0  0  0  0  0
   52.0398   11.9139   10.3151 C   0  0  0  0  0  0  0  0  0  0  0  0
   46.7735   13.9986   12.4146 H   0  0  0  0  0  0  0  0  0  0  0  0
   46.8475   10.5459   13.0947 H   0  0  0  0  0  0  0  0  0  0  0  0
   42.1310   14.0945   10.5528 H   0  0  0  0  0  0  0  0  0  0  0  0
   41.1760   12.8810    9.7444 H   0  0  0  0  0  0  0  0  0  0  0  0
   42.6105   13.5171    8.8875 H   0  0  0  0  0  0  0  0  0  0  0  0
   47.5381    9.0117   14.9226 H   0  0  0  0  0  0  0  0  0  0  0  0
   46.8770    7.6291   14.0124 H   0  0  0  0  0  0  0  0  0  0  0  0
   50.1104    6.6906   10.6444 H   0  0  0  0  0  0  0  0  0  0  0  0
   51.7963    9.8356   13.0382 H   0  0  0  0  0  0  0  0  0  0  0  0
   47.9736    6.8945   11.8670 H   0  0  0  0  0  0  0  0  0  0  0  0
   49.6669   10.0572   14.2632 H   0  0  0  0  0  0  0  0  0  0  0  0
   43.8697   15.3399    9.9703 H   0  0  0  0  0  0  0  0  0  0  0  0
   44.8776   14.1525    9.0493 H   0  0  0  0  0  0  0  0  0  0  0  0
   45.6290   15.4984    9.9644 H   0  0  0  0  0  0  0  0  0  0  0  0
   44.8103   15.5576   12.6080 H   0  0  0  0  0  0  0  0  0  0  0  0
   43.2298   14.7541   12.3294 H   0  0  0  0  0  0  0  0  0  0  0  0
   44.4580   13.9656   13.3701 H   0  0  0  0  0  0  0  0  0  0  0  0
   52.8043   12.6688   10.5920 H   0  0  0  0  0  0  0  0  0  0  0  0
   52.3194   10.9317   10.7486 H   0  0  0  0  0  0  0  0  0  0  0  0
   52.0020   11.8285    9.2095 H   0  0  0  0  0  0  0  0  0  0  0  0
  2  1  2  0
  3  4  2  0
  4  1  1  0
  5  6  1  0
  6  2  1  0
  7 10  1  0
  8  7  2  0
  9  7  1  0
 10 14  1  0
 11  3  1  0
 12  8  1  0
 13  1  1  0
 14 11  1  0
 15  9  1  0
 16  2  1  0
 17 13  1  0
 18  6  2  0
 19 10  2  0
 20 13  2  0
 21  5  1  0
 22 17  1  0
 23 26  2  0
 24 22  1  0
 25 23  1  0
 26 28  1  0
 27 29  2  0
 28 24  2  0
 29 24  1  0
 30 11  1  0
 31 11  1  0
 32 15  1  0
  5  3  1  0
 27 23  1  0
 12 15  2  0
 14 33  1  0
 17 34  1  0
 21 35  1  0
 21 36  1  0
 21 37  1  0
 22 38  1  0
 22 39  1  0
 26 40  1  0
 27 41  1  0
 28 42  1  0
 29 43  1  0
 30 44  1  0
 30 45  1  0
 30 46  1  0
 31 47  1  0
 31 48  1  0
 31 49  1  0
 32 50  1  0
 32 51  1  0
 32 52  1  0
M  CHG  1  16  -1
M  END
> <Uni-Dock RESULT> 
ENERGY=   -3.519  LOWER_BOUND=    4.788  UPPER_BOUND=    8.261
INTER + INTRA:          -3.519
INTER:                  -3.519
INTRA:                   0.000
UNBOUND:                 0.000

$$$$
