
     RDKit          3D

 52 54  0  0  0  0  0  0  0  0999 V2000
   46.6885    6.5962   13.3352 C   0  0  0  0  0  0  0  0  0  0  0  0
   46.8309    5.4774   14.1578 C   0  0  0  0  0  0  0  0  0  0  0  0
   48.5354    7.6466   14.4234 C   0  0  0  0  0  0  0  0  0  0  0  0
   47.5449    7.6320   13.4881 N   0  0  0  0  0  0  0  0  0  0  0  0
   48.7335    6.5197   15.2101 N   0  0  0  0  0  0  0  0  0  0  0  0
   47.8578    5.4640   15.1014 C   0  0  0  0  0  0  0  0  0  0  0  0
   49.2634    9.7500   18.2901 C   0  0  0  0  0  0  0  0  0  0  0  0
   48.4407    9.9235   19.3427 N   0  0  0  0  0  0  0  0  0  0  0  0
   50.5202    9.8684   18.6436 O   0  0  0  0  0  0  0  0  0  0  0  0
   48.8088    9.4529   16.9274 C   0  0  0  0  0  0  0  0  0  0  0  0
   49.4099    8.9135   14.4850 C   0  0  0  0  0  0  0  0  0  0  0  0
   49.2190   10.1570   20.3878 N   0  0  0  0  0  0  0  0  0  0  0  0
   45.6583    6.6765   12.2824 C   0  0  0  0  0  0  0  0  0  0  0  0
   49.7696    9.2648   15.8710 N   0  0  0  0  0  0  0  0  0  0  0  0
   50.4842   10.1233   19.9289 C   0  0  0  0  0  0  0  0  0  0  0  0
   45.9959    4.3706   14.0269 O   0  0  0  0  0  0  0  0  0  0  0  0
   44.3602    6.0938   12.4698 N   0  0  0  0  0  0  0  0  0  0  0  0
   47.9702    4.4529   15.8497 O   0  0  0  0  0  0  0  0  0  0  0  0
   47.5732    9.3420   16.7008 O   0  0  0  0  0  0  0  0  0  0  0  0
   45.9196    7.2985   11.2167 O   0  0  0  0  0  0  0  0  0  0  0  0
   49.8140    6.4105   16.2105 C   0  0  0  0  0  0  0  0  0  0  0  0
   43.4580    5.8249   11.3552 C   0  0  0  0  0  0  0  0  0  0  0  0
   44.8445    2.3260    9.2580 C   0  0  0  0  0  0  0  0  0  0  0  0
   43.9205    4.6070   10.6055 C   0  0  0  0  0  0  0  0  0  0  0  0
   45.2874    1.2234    8.6049 F   0  0  0  0  0  0  0  0  0  0  0  0
   45.1348    3.5991    8.7577 C   0  0  0  0  0  0  0  0  0  0  0  0
   44.1027    2.1899   10.4340 C   0  0  0  0  0  0  0  0  0  0  0  0
   44.6806    4.7380    9.4313 C   0  0  0  0  0  0  0  0  0  0  0  0
   43.6447    3.3245   11.1090 C   0  0  0  0  0  0  0  0  0  0  0  0
   50.6820    8.6816   13.6418 C   0  0  0  0  0  0  0  0  0  0  0  0
   48.6755   10.1304   13.8701 C   0  0  0  0  0  0  0  0  0  0  0  0
   51.6915   10.3078   20.7828 C   0  0  0  0  0  0  0  0  0  0  0  0
   50.7784    9.4101   16.1045 H   0  0  0  0  0  0  0  0  0  0  0  0
   44.0343    5.8696   13.4362 H   0  0  0  0  0  0  0  0  0  0  0  0
   50.1620    5.3602   16.3142 H   0  0  0  0  0  0  0  0  0  0  0  0
   50.7190    6.9717   15.9265 H   0  0  0  0  0  0  0  0  0  0  0  0
   49.4485    6.7574   17.1995 H   0  0  0  0  0  0  0  0  0  0  0  0
   42.4348    5.6443   11.7485 H   0  0  0  0  0  0  0  0  0  0  0  0
   43.3967    6.7131   10.6888 H   0  0  0  0  0  0  0  0  0  0  0  0
   45.7143    3.7052    7.8494 H   0  0  0  0  0  0  0  0  0  0  0  0
   43.8823    1.2035   10.8237 H   0  0  0  0  0  0  0  0  0  0  0  0
   44.9190    5.7173    9.0363 H   0  0  0  0  0  0  0  0  0  0  0  0
   43.0762    3.2060   12.0228 H   0  0  0  0  0  0  0  0  0  0  0  0
   50.4151    8.4711   12.5828 H   0  0  0  0  0  0  0  0  0  0  0  0
   51.3309    9.5817   13.6629 H   0  0  0  0  0  0  0  0  0  0  0  0
   51.2768    7.8260   14.0078 H   0  0  0  0  0  0  0  0  0  0  0  0
   48.5044    9.9901   12.7801 H   0  0  0  0  0  0  0  0  0  0  0  0
   47.6900   10.2926   14.3519 H   0  0  0  0  0  0  0  0  0  0  0  0
   49.2798   11.0526   14.0052 H   0  0  0  0  0  0  0  0  0  0  0  0
   51.9897    9.3316   21.2174 H   0  0  0  0  0  0  0  0  0  0  0  0
   51.4714   11.0228   21.6030 H   0  0  0  0  0  0  0  0  0  0  0  0
   52.5273   10.7064   20.1702 H   0  0  0  0  0  0  0  0  0  0  0  0
  2  1  2  0
  3  4  2  0
  4  1  1  0
  5  6  1  0
  6  2  1  0
  7 10  1  0
  8  7  2  0
  9  7  1  0
 10 14  1  0
 11  3  1  0
 12  8  1  0
 13  1  1  0
 14 11  1  0
 15  9  1  0
 16  2  1  0
 17 13  1  0
 18  6  2  0
 19 10  2  0
 20 13  2  0
 21  5  1  0
 22 17  1  0
 23 26  2  0
 24 22  1  0
 25 23  1  0
 26 28  1  0
 27 29  2  0
 28 24  2  0
 29 24  1  0
 30 11  1  0
 31 11  1  0
 32 15  1  0
  5  3  1  0
 27 23  1  0
 12 15  2  0
 14 33  1  0
 17 34  1  0
 21 35  1  0
 21 36  1  0
 21 37  1  0
 22 38  1  0
 22 39  1  0
 26 40  1  0
 27 41  1  0
 28 42  1  0
 29 43  1  0
 30 44  1  0
 30 45  1  0
 30 46  1  0
 31 47  1  0
 31 48  1  0
 31 49  1  0
 32 50  1  0
 32 51  1  0
 32 52  1  0
M  CHG  1  16  -1
M  END
> <Uni-Dock RESULT> 
ENERGY=   -5.166  LOWER_BOUND=    0.000  UPPER_BOUND=    0.000
INTER + INTRA:          -5.166
INTER:                  -5.166
INTRA:                   0.000
UNBOUND:                 0.000

$$$$

     RDKit          3D

 52 54  0  0  0  0  0  0  0  0999 V2000
   46.6252   10.1126   12.3168 C   0  0  0  0  0  0  0  0  0  0  0  0
   45.7014    9.0664   12.2956 C   0  0  0  0  0  0  0  0  0  0  0  0
   48.1347    8.7703   13.5890 C   0  0  0  0  0  0  0  0  0  0  0  0
   47.8060    9.9280   12.9503 N   0  0  0  0  0  0  0  0  0  0  0  0
   47.2566    7.6964   13.5278 N   0  0  0  0  0  0  0  0  0  0  0  0
   46.0337    7.8644   12.9201 C   0  0  0  0  0  0  0  0  0  0  0  0
   48.5255    7.4493   17.8326 C   0  0  0  0  0  0  0  0  0  0  0  0
   47.6890    7.6367   18.8719 N   0  0  0  0  0  0  0  0  0  0  0  0
   49.3166    6.4242   18.0370 O   0  0  0  0  0  0  0  0  0  0  0  0
   48.5374    8.2789   16.6228 C   0  0  0  0  0  0  0  0  0  0  0  0
   49.5090    8.7300   14.2840 C   0  0  0  0  0  0  0  0  0  0  0  0
   47.9732    6.6899   19.7526 N   0  0  0  0  0  0  0  0  0  0  0  0
   46.3742   11.4018   11.6451 C   0  0  0  0  0  0  0  0  0  0  0  0
   49.4590    7.9854   15.5555 N   0  0  0  0  0  0  0  0  0  0  0  0
   48.9758    5.9680   19.2177 C   0  0  0  0  0  0  0  0  0  0  0  0
   44.4815    9.1899   11.6353 O   0  0  0  0  0  0  0  0  0  0  0  0
   45.0575   11.9714   11.6029 N   0  0  0  0  0  0  0  0  0  0  0  0
   45.1859    6.9284   12.9068 O   0  0  0  0  0  0  0  0  0  0  0  0
   47.7180    9.2321   16.5216 O   0  0  0  0  0  0  0  0  0  0  0  0
   47.3441   12.0233   11.1313 O   0  0  0  0  0  0  0  0  0  0  0  0
   47.5427    6.3811   14.1348 C   0  0  0  0  0  0  0  0  0  0  0  0
   44.6932   13.0238   10.6604 C   0  0  0  0  0  0  0  0  0  0  0  0
   44.1790   11.2758    6.7561 C   0  0  0  0  0  0  0  0  0  0  0  0
   44.5080   12.4394    9.2880 C   0  0  0  0  0  0  0  0  0  0  0  0
   44.0181   10.7170    5.5313 F   0  0  0  0  0  0  0  0  0  0  0  0
   45.3729   11.9304    7.0750 C   0  0  0  0  0  0  0  0  0  0  0  0
   43.1537   11.1927    7.7016 C   0  0  0  0  0  0  0  0  0  0  0  0
   45.5417   12.5058    8.3389 C   0  0  0  0  0  0  0  0  0  0  0  0
   43.3167   11.7681    8.9645 C   0  0  0  0  0  0  0  0  0  0  0  0
   50.5332    8.0870   13.3245 C   0  0  0  0  0  0  0  0  0  0  0  0
   50.0188   10.1581   14.5986 C   0  0  0  0  0  0  0  0  0  0  0  0
   49.5892    4.7749   19.8664 C   0  0  0  0  0  0  0  0  0  0  0  0
   50.1448    7.2112   15.7092 H   0  0  0  0  0  0  0  0  0  0  0  0
   44.3346   11.6408   12.2800 H   0  0  0  0  0  0  0  0  0  0  0  0
   47.0691    5.5591   13.5560 H   0  0  0  0  0  0  0  0  0  0  0  0
   48.6166    6.1333   14.1334 H   0  0  0  0  0  0  0  0  0  0  0  0
   47.1489    6.3510   15.1721 H   0  0  0  0  0  0  0  0  0  0  0  0
   43.7415   13.4943   10.9878 H   0  0  0  0  0  0  0  0  0  0  0  0
   45.4665   13.8230   10.6606 H   0  0  0  0  0  0  0  0  0  0  0  0
   46.1697   11.9903    6.3446 H   0  0  0  0  0  0  0  0  0  0  0  0
   42.2311   10.6813    7.4556 H   0  0  0  0  0  0  0  0  0  0  0  0
   46.4739   13.0031    8.5743 H   0  0  0  0  0  0  0  0  0  0  0  0
   42.5173   11.6914    9.6906 H   0  0  0  0  0  0  0  0  0  0  0  0
   50.6138    8.6788   12.3862 H   0  0  0  0  0  0  0  0  0  0  0  0
   51.5367    8.0490   13.7969 H   0  0  0  0  0  0  0  0  0  0  0  0
   50.2524    7.0571   13.0411 H   0  0  0  0  0  0  0  0  0  0  0  0
   50.2202   10.7294   13.6658 H   0  0  0  0  0  0  0  0  0  0  0  0
   49.2782   10.7287   15.1948 H   0  0  0  0  0  0  0  0  0  0  0  0
   50.9639   10.1095   15.1803 H   0  0  0  0  0  0  0  0  0  0  0  0
   49.0060    3.8691   19.6014 H   0  0  0  0  0  0  0  0  0  0  0  0
   49.5910    4.9006   20.9694 H   0  0  0  0  0  0  0  0  0  0  0  0
   50.6353    4.6526   19.5148 H   0  0  0  0  0  0  0  0  0  0  0  0
  2  1  2  0
  3  4  2  0
  4  1  1  0
  5  6  1  0
  6  2  1  0
  7 10  1  0
  8  7  2  0
  9  7  1  0
 10 14  1  0
 11  3  1  0
 12  8  1  0
 13  1  1  0
 14 11  1  0
 15  9  1  0
 16  2  1  0
 17 13  1  0
 18  6  2  0
 19 10  2  0
 20 13  2  0
 21  5  1  0
 22 17  1  0
 23 26  2  0
 24 22  1  0
 25 23  1  0
 26 28  1  0
 27 29  2  0
 28 24  2  0
 29 24  1  0
 30 11  1  0
 31 11  1  0
 32 15  1  0
  5  3  1  0
 27 23  1  0
 12 15  2  0
 14 33  1  0
 17 34  1  0
 21 35  1  0
 21 36  1  0
 21 37  1  0
 22 38  1  0
 22 39  1  0
 26 40  1  0
 27 41  1  0
 28 42  1  0
 29 43  1  0
 30 44  1  0
 30 45  1  0
 30 46  1  0
 31 47  1  0
 31 48  1  0
 31 49  1  0
 32 50  1  0
 32 51  1  0
 32 52  1  0
M  CHG  1  16  -1
M  END
> <Uni-Dock RESULT> 
ENERGY=   -4.267  LOWER_BOUND=    4.240  UPPER_BOUND=    5.341
INTER + INTRA:          -4.267
INTER:                  -4.267
INTRA:                   0.000
UNBOUND:                 0.000

$$$$

     RDKit          3D

 52 54  0  0  0  0  0  0  0  0999 V2000
   46.6459   10.1049   12.3472 C   0  0  0  0  0  0  0  0  0  0  0  0
   45.7299    9.0520   12.3205 C   0  0  0  0  0  0  0  0  0  0  0  0
   48.1615    8.7704   13.6202 C   0  0  0  0  0  0  0  0  0  0  0  0
   47.8262    9.9273   12.9836 N   0  0  0  0  0  0  0  0  0  0  0  0
   47.2916    7.6902   13.5536 N   0  0  0  0  0  0  0  0  0  0  0  0
   46.0692    7.8508   12.9428 C   0  0  0  0  0  0  0  0  0  0  0  0
   48.5498    7.4408   17.8613 C   0  0  0  0  0  0  0  0  0  0  0  0
   47.7089    7.6192   18.8987 N   0  0  0  0  0  0  0  0  0  0  0  0
   49.3479    6.4211   18.0653 O   0  0  0  0  0  0  0  0  0  0  0  0
   48.5590    8.2737   16.6538 C   0  0  0  0  0  0  0  0  0  0  0  0
   49.5341    8.7383   14.3191 C   0  0  0  0  0  0  0  0  0  0  0  0
   47.9976    6.6722   19.7777 N   0  0  0  0  0  0  0  0  0  0  0  0
   46.3872   11.3940   11.6782 C   0  0  0  0  0  0  0  0  0  0  0  0
   49.4859    7.9900   15.5885 N   0  0  0  0  0  0  0  0  0  0  0  0
   49.0070    5.9592   19.2438 C   0  0  0  0  0  0  0  0  0  0  0  0
   44.5110    9.1682   11.6569 O   0  0  0  0  0  0  0  0  0  0  0  0
   45.0665   11.9540   11.6337 N   0  0  0  0  0  0  0  0  0  0  0  0
   45.2284    6.9086   12.9245 O   0  0  0  0  0  0  0  0  0  0  0  0
   47.7329    9.2211   16.5528 O   0  0  0  0  0  0  0  0  0  0  0  0
   47.3540   12.0240   11.1689 O   0  0  0  0  0  0  0  0  0  0  0  0
   47.5856    6.3754   14.1578 C   0  0  0  0  0  0  0  0  0  0  0  0
   44.6972   13.0062   10.6929 C   0  0  0  0  0  0  0  0  0  0  0  0
   44.2072   11.2650    6.7825 C   0  0  0  0  0  0  0  0  0  0  0  0
   44.5203   12.4242    9.3185 C   0  0  0  0  0  0  0  0  0  0  0  0
   44.0540   10.7083    5.5558 F   0  0  0  0  0  0  0  0  0  0  0  0
   45.3953   11.9275    7.1066 C   0  0  0  0  0  0  0  0  0  0  0  0
   43.1798   11.1718    7.7247 C   0  0  0  0  0  0  0  0  0  0  0  0
   45.5562   12.5007    8.3726 C   0  0  0  0  0  0  0  0  0  0  0  0
   43.3349   11.7450    8.9897 C   0  0  0  0  0  0  0  0  0  0  0  0
   50.5658    8.1055   13.3608 C   0  0  0  0  0  0  0  0  0  0  0  0
   50.0324   10.1693   14.6390 C   0  0  0  0  0  0  0  0  0  0  0  0
   49.6273    4.7689   19.8911 C   0  0  0  0  0  0  0  0  0  0  0  0
   50.1769    7.2205   15.7421 H   0  0  0  0  0  0  0  0  0  0  0  0
   44.3442   11.6162   12.3078 H   0  0  0  0  0  0  0  0  0  0  0  0
   47.1197    5.5515   13.5755 H   0  0  0  0  0  0  0  0  0  0  0  0
   48.6613    6.1355   14.1590 H   0  0  0  0  0  0  0  0  0  0  0  0
   47.1890    6.3396   15.1939 H   0  0  0  0  0  0  0  0  0  0  0  0
   43.7411   13.4688   11.0188 H   0  0  0  0  0  0  0  0  0  0  0  0
   45.4645   13.8112   10.6975 H   0  0  0  0  0  0  0  0  0  0  0  0
   46.1938   11.9953    6.3787 H   0  0  0  0  0  0  0  0  0  0  0  0
   42.2617   10.6543    7.4748 H   0  0  0  0  0  0  0  0  0  0  0  0
   46.4840   13.0042    8.6120 H   0  0  0  0  0  0  0  0  0  0  0  0
   42.5340   11.6604    9.7133 H   0  0  0  0  0  0  0  0  0  0  0  0
   50.6447    8.7004   12.4244 H   0  0  0  0  0  0  0  0  0  0  0  0
   51.5682    8.0736   13.8360 H   0  0  0  0  0  0  0  0  0  0  0  0
   50.2934    7.0743   13.0739 H   0  0  0  0  0  0  0  0  0  0  0  0
   50.2323   10.7446   13.7083 H   0  0  0  0  0  0  0  0  0  0  0  0
   49.2859   10.7329   15.2345 H   0  0  0  0  0  0  0  0  0  0  0  0
   50.9761   10.1261   15.2233 H   0  0  0  0  0  0  0  0  0  0  0  0
   49.0516    3.8595   19.6220 H   0  0  0  0  0  0  0  0  0  0  0  0
   49.6250    4.8917   20.9944 H   0  0  0  0  0  0  0  0  0  0  0  0
   50.6752    4.6553   19.5422 H   0  0  0  0  0  0  0  0  0  0  0  0
  2  1  2  0
  3  4  2  0
  4  1  1  0
  5  6  1  0
  6  2  1  0
  7 10  1  0
  8  7  2  0
  9  7  1  0
 10 14  1  0
 11  3  1  0
 12  8  1  0
 13  1  1  0
 14 11  1  0
 15  9  1  0
 16  2  1  0
 17 13  1  0
 18  6  2  0
 19 10  2  0
 20 13  2  0
 21  5  1  0
 22 17  1  0
 23 26  2  0
 24 22  1  0
 25 23  1  0
 26 28  1  0
 27 29  2  0
 28 24  2  0
 29 24  1  0
 30 11  1  0
 31 11  1  0
 32 15  1  0
  5  3  1  0
 27 23  1  0
 12 15  2  0
 14 33  1  0
 17 34  1  0
 21 35  1  0
 21 36  1  0
 21 37  1  0
 22 38  1  0
 22 39  1  0
 26 40  1  0
 27 41  1  0
 28 42  1  0
 29 43  1  0
 30 44  1  0
 30 45  1  0
 30 46  1  0
 31 47  1  0
 31 48  1  0
 31 49  1  0
 32 50  1  0
 32 51  1  0
 32 52  1  0
M  CHG  1  16  -1
M  END
> <Uni-Dock RESULT> 
ENERGY=   -4.261  LOWER_BOUND=    4.228  UPPER_BOUND=    5.325
INTER + INTRA:          -4.261
INTER:                  -4.261
INTRA:                   0.000
UNBOUND:                 0.000

$$$$

     RDKit          3D

 52 54  0  0  0  0  0  0  0  0999 V2000
   51.8355    4.2682   18.9394 C   0  0  0  0  0  0  0  0  0  0  0  0
   51.8070    3.0683   18.2268 C   0  0  0  0  0  0  0  0  0  0  0  0
   49.6863    4.8462   18.0759 C   0  0  0  0  0  0  0  0  0  0  0  0
   50.7781    5.1068   18.8481 N   0  0  0  0  0  0  0  0  0  0  0  0
   49.6102    3.6314   17.4077 N   0  0  0  0  0  0  0  0  0  0  0  0
   50.6843    2.7727   17.4539 C   0  0  0  0  0  0  0  0  0  0  0  0
   48.0358    6.3932   14.2304 C   0  0  0  0  0  0  0  0  0  0  0  0
   48.6566    6.6141   13.0553 N   0  0  0  0  0  0  0  0  0  0  0  0
   46.7443    6.2408   14.0653 O   0  0  0  0  0  0  0  0  0  0  0  0
   48.7217    6.3192   15.5250 C   0  0  0  0  0  0  0  0  0  0  0  0
   48.5779    5.9162   18.0617 C   0  0  0  0  0  0  0  0  0  0  0  0
   47.7124    6.5964   12.1275 N   0  0  0  0  0  0  0  0  0  0  0  0
   52.9630    4.6404   19.8149 C   0  0  0  0  0  0  0  0  0  0  0  0
   47.9703    6.0586   16.7259 N   0  0  0  0  0  0  0  0  0  0  0  0
   46.5536    6.3723   12.7751 C   0  0  0  0  0  0  0  0  0  0  0  0
   52.8548    2.1541   18.3044 O   0  0  0  0  0  0  0  0  0  0  0  0
   54.3130    4.2942   19.4722 N   0  0  0  0  0  0  0  0  0  0  0  0
   50.6738    1.6908   16.8025 O   0  0  0  0  0  0  0  0  0  0  0  0
   49.9738    6.4626   15.5677 O   0  0  0  0  0  0  0  0  0  0  0  0
   52.7312    5.3031   20.8628 O   0  0  0  0  0  0  0  0  0  0  0  0
   48.4468    3.2267   16.5936 C   0  0  0  0  0  0  0  0  0  0  0  0
   55.3938    4.3071   20.4521 C   0  0  0  0  0  0  0  0  0  0  0  0
   55.0275    0.8308   22.9710 C   0  0  0  0  0  0  0  0  0  0  0  0
   55.2886    3.1027   21.3453 C   0  0  0  0  0  0  0  0  0  0  0  0
   54.9052   -0.2665   23.7580 F   0  0  0  0  0  0  0  0  0  0  0  0
   54.5615    2.0700   23.4212 C   0  0  0  0  0  0  0  0  0  0  0  0
   55.6143    0.7220   21.7077 C   0  0  0  0  0  0  0  0  0  0  0  0
   54.6847    3.2030   22.6098 C   0  0  0  0  0  0  0  0  0  0  0  0
   55.7419    1.8514   20.8947 C   0  0  0  0  0  0  0  0  0  0  0  0
   47.5040    5.5342   19.1028 C   0  0  0  0  0  0  0  0  0  0  0  0
   49.1333    7.3022   18.4725 C   0  0  0  0  0  0  0  0  0  0  0  0
   45.2288    6.2454   12.1045 C   0  0  0  0  0  0  0  0  0  0  0  0
   46.9305    5.9903   16.6395 H   0  0  0  0  0  0  0  0  0  0  0  0
   54.5421    4.0421   18.4851 H   0  0  0  0  0  0  0  0  0  0  0  0
   48.3032    2.1250   16.6164 H   0  0  0  0  0  0  0  0  0  0  0  0
   47.4959    3.6345   16.9730 H   0  0  0  0  0  0  0  0  0  0  0  0
   48.5981    3.5383   15.5391 H   0  0  0  0  0  0  0  0  0  0  0  0
   56.3692    4.2828   19.9208 H   0  0  0  0  0  0  0  0  0  0  0  0
   55.3680    5.2514   21.0389 H   0  0  0  0  0  0  0  0  0  0  0  0
   54.1017    2.1537   24.3978 H   0  0  0  0  0  0  0  0  0  0  0  0
   55.9707   -0.2391   21.3576 H   0  0  0  0  0  0  0  0  0  0  0  0
   54.3130    4.1542   22.9684 H   0  0  0  0  0  0  0  0  0  0  0  0
   56.1927    1.7529   19.9152 H   0  0  0  0  0  0  0  0  0  0  0  0
   47.9491    5.4806   20.1206 H   0  0  0  0  0  0  0  0  0  0  0  0
   46.6929    6.2915   19.1192 H   0  0  0  0  0  0  0  0  0  0  0  0
   47.0464    4.5516   18.8912 H   0  0  0  0  0  0  0  0  0  0  0  0
   49.4757    7.3024   19.5307 H   0  0  0  0  0  0  0  0  0  0  0  0
   49.9920    7.5977   17.8362 H   0  0  0  0  0  0  0  0  0  0  0  0
   48.3455    8.0783   18.3683 H   0  0  0  0  0  0  0  0  0  0  0  0
   45.0737    5.1933   11.7884 H   0  0  0  0  0  0  0  0  0  0  0  0
   45.1889    6.9061   11.2133 H   0  0  0  0  0  0  0  0  0  0  0  0
   44.4220    6.5389   12.8085 H   0  0  0  0  0  0  0  0  0  0  0  0
  2  1  2  0
  3  4  2  0
  4  1  1  0
  5  6  1  0
  6  2  1  0
  7 10  1  0
  8  7  2  0
  9  7  1  0
 10 14  1  0
 11  3  1  0
 12  8  1  0
 13  1  1  0
 14 11  1  0
 15  9  1  0
 16  2  1  0
 17 13  1  0
 18  6  2  0
 19 10  2  0
 20 13  2  0
 21  5  1  0
 22 17  1  0
 23 26  2  0
 24 22  1  0
 25 23  1  0
 26 28  1  0
 27 29  2  0
 28 24  2  0
 29 24  1  0
 30 11  1  0
 31 11  1  0
 32 15  1  0
  5  3  1  0
 27 23  1  0
 12 15  2  0
 14 33  1  0
 17 34  1  0
 21 35  1  0
 21 36  1  0
 21 37  1  0
 22 38  1  0
 22 39  1  0
 26 40  1  0
 27 41  1  0
 28 42  1  0
 29 43  1  0
 30 44  1  0
 30 45  1  0
 30 46  1  0
 31 47  1  0
 31 48  1  0
 31 49  1  0
 32 50  1  0
 32 51  1  0
 32 52  1  0
M  CHG  1  16  -1
M  END
> <Uni-Dock RESULT> 
ENERGY=   -3.929  LOWER_BOUND=    6.056  UPPER_BOUND=   10.414
INTER + INTRA:          -3.929
INTER:                  -3.929
INTRA:                   0.000
UNBOUND:                 0.000

$$$$

     RDKit          3D

 52 54  0  0  0  0  0  0  0  0999 V2000
   51.8978    8.3341   12.7536 C   0  0  0  0  0  0  0  0  0  0  0  0
   50.6263    8.0217   12.2696 C   0  0  0  0  0  0  0  0  0  0  0  0
   51.0808    8.2412   14.9947 C   0  0  0  0  0  0  0  0  0  0  0  0
   52.0834    8.4238   14.0904 N   0  0  0  0  0  0  0  0  0  0  0  0
   49.8233    7.8694   14.5380 N   0  0  0  0  0  0  0  0  0  0  0  0
   49.5950    7.8033   13.1828 C   0  0  0  0  0  0  0  0  0  0  0  0
   48.6782   10.8610   17.6909 C   0  0  0  0  0  0  0  0  0  0  0  0
   48.0561   12.0264   17.4269 N   0  0  0  0  0  0  0  0  0  0  0  0
   48.1587   10.2709   18.7399 O   0  0  0  0  0  0  0  0  0  0  0  0
   49.7853   10.3179   16.8963 C   0  0  0  0  0  0  0  0  0  0  0  0
   51.4522    8.4030   16.4811 C   0  0  0  0  0  0  0  0  0  0  0  0
   47.1145   12.1615   18.3476 N   0  0  0  0  0  0  0  0  0  0  0  0
   53.0546    8.5379   11.8612 C   0  0  0  0  0  0  0  0  0  0  0  0
   50.3729    9.0510   17.2486 N   0  0  0  0  0  0  0  0  0  0  0  0
   47.2051   11.0767   19.1397 C   0  0  0  0  0  0  0  0  0  0  0  0
   50.3827    7.8889   10.9048 O   0  0  0  0  0  0  0  0  0  0  0  0
   52.9002    9.1639   10.5789 N   0  0  0  0  0  0  0  0  0  0  0  0
   48.4454    7.5341   12.7346 O   0  0  0  0  0  0  0  0  0  0  0  0
   50.1966   10.9612   15.8927 O   0  0  0  0  0  0  0  0  0  0  0  0
   54.1999    8.1837   12.2533 O   0  0  0  0  0  0  0  0  0  0  0  0
   48.6856    7.5901   15.4367 C   0  0  0  0  0  0  0  0  0  0  0  0
   53.9107    9.0564    9.5321 C   0  0  0  0  0  0  0  0  0  0  0  0
   53.6700    5.1339    7.7659 C   0  0  0  0  0  0  0  0  0  0  0  0
   53.8481    7.6945    8.8990 C   0  0  0  0  0  0  0  0  0  0  0  0
   53.5862    3.8978    7.2152 F   0  0  0  0  0  0  0  0  0  0  0  0
   54.6485    5.4067    8.7270 C   0  0  0  0  0  0  0  0  0  0  0  0
   52.7748    6.1335    7.3770 C   0  0  0  0  0  0  0  0  0  0  0  0
   54.7351    6.6809    9.2980 C   0  0  0  0  0  0  0  0  0  0  0  0
   52.8591    7.4085    7.9427 C   0  0  0  0  0  0  0  0  0  0  0  0
   51.7693    7.0114   17.0692 C   0  0  0  0  0  0  0  0  0  0  0  0
   52.7273    9.2659   16.6483 C   0  0  0  0  0  0  0  0  0  0  0  0
   46.3061   10.8053   20.2967 C   0  0  0  0  0  0  0  0  0  0  0  0
   50.0228    8.5805   18.1143 H   0  0  0  0  0  0  0  0  0  0  0  0
   52.0470    9.7345   10.3872 H   0  0  0  0  0  0  0  0  0  0  0  0
   48.0091    6.8224   15.0030 H   0  0  0  0  0  0  0  0  0  0  0  0
   48.9982    7.1643   16.4039 H   0  0  0  0  0  0  0  0  0  0  0  0
   48.1003    8.5183   15.6034 H   0  0  0  0  0  0  0  0  0  0  0  0
   53.7174    9.8282    8.7568 H   0  0  0  0  0  0  0  0  0  0  0  0
   54.9199    9.2636    9.9508 H   0  0  0  0  0  0  0  0  0  0  0  0
   55.3389    4.6308    9.0327 H   0  0  0  0  0  0  0  0  0  0  0  0
   52.0139    5.9202    6.6361 H   0  0  0  0  0  0  0  0  0  0  0  0
   55.4930    6.8756   10.0460 H   0  0  0  0  0  0  0  0  0  0  0  0
   52.1555    8.1728    7.6377 H   0  0  0  0  0  0  0  0  0  0  0  0
   52.6205    6.5436   16.5273 H   0  0  0  0  0  0  0  0  0  0  0  0
   52.0462    7.0968   18.1405 H   0  0  0  0  0  0  0  0  0  0  0  0
   50.9114    6.3198   16.9947 H   0  0  0  0  0  0  0  0  0  0  0  0
   53.6175    8.7585   16.2157 H   0  0  0  0  0  0  0  0  0  0  0  0
   52.6179   10.2489   16.1470 H   0  0  0  0  0  0  0  0  0  0  0  0
   52.9285    9.4499   17.7251 H   0  0  0  0  0  0  0  0  0  0  0  0
   45.3972   10.2766   19.9428 H   0  0  0  0  0  0  0  0  0  0  0  0
   46.0104   11.7597   20.7806 H   0  0  0  0  0  0  0  0  0  0  0  0
   46.8324   10.1708   21.0404 H   0  0  0  0  0  0  0  0  0  0  0  0
  2  1  2  0
  3  4  2  0
  4  1  1  0
  5  6  1  0
  6  2  1  0
  7 10  1  0
  8  7  2  0
  9  7  1  0
 10 14  1  0
 11  3  1  0
 12  8  1  0
 13  1  1  0
 14 11  1  0
 15  9  1  0
 16  2  1  0
 17 13  1  0
 18  6  2  0
 19 10  2  0
 20 13  2  0
 21  5  1  0
 22 17  1  0
 23 26  2  0
 24 22  1  0
 25 23  1  0
 26 28  1  0
 27 29  2  0
 28 24  2  0
 29 24  1  0
 30 11  1  0
 31 11  1  0
 32 15  1  0
  5  3  1  0
 27 23  1  0
 12 15  2  0
 14 33  1  0
 17 34  1  0
 21 35  1  0
 21 36  1  0
 21 37  1  0
 22 38  1  0
 22 39  1  0
 26 40  1  0
 27 41  1  0
 28 42  1  0
 29 43  1  0
 30 44  1  0
 30 45  1  0
 30 46  1  0
 31 47  1  0
 31 48  1  0
 31 49  1  0
 32 50  1  0
 32 51  1  0
 32 52  1  0
M  CHG  1  16  -1
M  END
> <Uni-Dock RESULT> 
ENERGY=   -3.856  LOWER_BOUND=    4.641  UPPER_BOUND=    6.427
INTER + INTRA:          -3.856
INTER:                  -3.856
INTRA:                   0.000
UNBOUND:                 0.000

$$$$

     RDKit          3D

 52 54  0  0  0  0  0  0  0  0999 V2000
   50.0619    9.7777   15.5561 C   0  0  0  0  0  0  0  0  0  0  0  0
   49.4539    8.5232   15.6279 C   0  0  0  0  0  0  0  0  0  0  0  0
   50.4033    9.4915   13.2108 C   0  0  0  0  0  0  0  0  0  0  0  0
   50.5048   10.2206   14.3572 N   0  0  0  0  0  0  0  0  0  0  0  0
   49.7473    8.2682   13.2483 N   0  0  0  0  0  0  0  0  0  0  0  0
   49.3161    7.7757   14.4585 C   0  0  0  0  0  0  0  0  0  0  0  0
   53.2184    7.2347   10.5865 C   0  0  0  0  0  0  0  0  0  0  0  0
   54.1768    6.3471   10.9161 N   0  0  0  0  0  0  0  0  0  0  0  0
   52.8344    7.0808    9.3426 O   0  0  0  0  0  0  0  0  0  0  0  0
   52.6675    8.2346   11.5077 C   0  0  0  0  0  0  0  0  0  0  0  0
   50.9798   10.1291   11.9323 C   0  0  0  0  0  0  0  0  0  0  0  0
   54.3927    5.6150    9.8344 N   0  0  0  0  0  0  0  0  0  0  0  0
   50.2095   10.6525   16.7346 C   0  0  0  0  0  0  0  0  0  0  0  0
   51.6286    9.1287   11.0651 N   0  0  0  0  0  0  0  0  0  0  0  0
   53.5625    6.0904    8.8872 C   0  0  0  0  0  0  0  0  0  0  0  0
   48.9542    8.0276   16.8297 O   0  0  0  0  0  0  0  0  0  0  0  0
   50.4701   10.1055   18.0357 N   0  0  0  0  0  0  0  0  0  0  0  0
   48.7766    6.6365   14.5361 O   0  0  0  0  0  0  0  0  0  0  0  0
   53.0976    8.2839   12.6921 O   0  0  0  0  0  0  0  0  0  0  0  0
   50.1376   11.9025   16.5818 O   0  0  0  0  0  0  0  0  0  0  0  0
   49.5318    7.4283   12.0532 C   0  0  0  0  0  0  0  0  0  0  0  0
   50.2597   10.8710   19.2597 C   0  0  0  0  0  0  0  0  0  0  0  0
   46.0323   11.0636   20.0692 C   0  0  0  0  0  0  0  0  0  0  0  0
   48.7903   10.9536   19.5649 C   0  0  0  0  0  0  0  0  0  0  0  0
   44.7004   11.1179   20.3167 F   0  0  0  0  0  0  0  0  0  0  0  0
   46.6762   12.1473   19.4639 C   0  0  0  0  0  0  0  0  0  0  0  0
   46.7604    9.9221   20.4139 C   0  0  0  0  0  0  0  0  0  0  0  0
   48.0500   12.0923   19.2057 C   0  0  0  0  0  0  0  0  0  0  0  0
   48.1334    9.8635   20.1603 C   0  0  0  0  0  0  0  0  0  0  0  0
   49.8393   10.8400   11.1728 C   0  0  0  0  0  0  0  0  0  0  0  0
   52.0373   11.2079   12.2732 C   0  0  0  0  0  0  0  0  0  0  0  0
   53.4537    5.5318    7.5099 C   0  0  0  0  0  0  0  0  0  0  0  0
   51.3392    9.0734   10.0619 H   0  0  0  0  0  0  0  0  0  0  0  0
   50.8421    9.1332   18.1172 H   0  0  0  0  0  0  0  0  0  0  0  0
   48.5890    6.8458   12.1353 H   0  0  0  0  0  0  0  0  0  0  0  0
   49.4090    8.0190   11.1310 H   0  0  0  0  0  0  0  0  0  0  0  0
   50.3746    6.7155   11.9365 H   0  0  0  0  0  0  0  0  0  0  0  0
   50.7790   10.3647   20.1013 H   0  0  0  0  0  0  0  0  0  0  0  0
   50.7117   11.8824   19.1618 H   0  0  0  0  0  0  0  0  0  0  0  0
   46.1113   13.0299   19.1916 H   0  0  0  0  0  0  0  0  0  0  0  0
   46.2602    9.0809   20.8783 H   0  0  0  0  0  0  0  0  0  0  0  0
   48.5337   12.9359   18.7301 H   0  0  0  0  0  0  0  0  0  0  0  0
   48.6853    8.9708   20.4263 H   0  0  0  0  0  0  0  0  0  0  0  0
   49.3846   11.6336   11.8056 H   0  0  0  0  0  0  0  0  0  0  0  0
   50.2264   11.3147   10.2474 H   0  0  0  0  0  0  0  0  0  0  0  0
   49.0308   10.1448   10.8849 H   0  0  0  0  0  0  0  0  0  0  0  0
   51.5776   12.0701   12.8045 H   0  0  0  0  0  0  0  0  0  0  0  0
   52.8389   10.7971   12.9199 H   0  0  0  0  0  0  0  0  0  0  0  0
   52.5088   11.5914   11.3435 H   0  0  0  0  0  0  0  0  0  0  0  0
   52.7248    4.6955    7.5065 H   0  0  0  0  0  0  0  0  0  0  0  0
   54.4429    5.1579    7.1720 H   0  0  0  0  0  0  0  0  0  0  0  0
   53.1077    6.3218    6.8107 H   0  0  0  0  0  0  0  0  0  0  0  0
  2  1  2  0
  3  4  2  0
  4  1  1  0
  5  6  1  0
  6  2  1  0
  7 10  1  0
  8  7  2  0
  9  7  1  0
 10 14  1  0
 11  3  1  0
 12  8  1  0
 13  1  1  0
 14 11  1  0
 15  9  1  0
 16  2  1  0
 17 13  1  0
 18  6  2  0
 19 10  2  0
 20 13  2  0
 21  5  1  0
 22 17  1  0
 23 26  2  0
 24 22  1  0
 25 23  1  0
 26 28  1  0
 27 29  2  0
 28 24  2  0
 29 24  1  0
 30 11  1  0
 31 11  1  0
 32 15  1  0
  5  3  1  0
 27 23  1  0
 12 15  2  0
 14 33  1  0
 17 34  1  0
 21 35  1  0
 21 36  1  0
 21 37  1  0
 22 38  1  0
 22 39  1  0
 26 40  1  0
 27 41  1  0
 28 42  1  0
 29 43  1  0
 30 44  1  0
 30 45  1  0
 30 46  1  0
 31 47  1  0
 31 48  1  0
 31 49  1  0
 32 50  1  0
 32 51  1  0
 32 52  1  0
M  CHG  1  16  -1
M  END
> <Uni-Dock RESULT> 
ENERGY=   -3.816  LOWER_BOUND=    4.847  UPPER_BOUND=    9.157
INTER + INTRA:          -3.816
INTER:                  -3.816
INTRA:                   0.000
UNBOUND:                 0.000

$$$$

     RDKit          3D

 52 54  0  0  0  0  0  0  0  0999 V2000
   46.3722   10.2774   12.0613 C   0  0  0  0  0  0  0  0  0  0  0  0
   45.3055    9.3782   12.1058 C   0  0  0  0  0  0  0  0  0  0  0  0
   47.8682    8.5568   12.7686 C   0  0  0  0  0  0  0  0  0  0  0  0
   47.6103    9.8378   12.3829 N   0  0  0  0  0  0  0  0  0  0  0  0
   46.8330    7.6313   12.7606 N   0  0  0  0  0  0  0  0  0  0  0  0
   45.5567    8.0558   12.4709 C   0  0  0  0  0  0  0  0  0  0  0  0
   48.8855    6.5040   16.5970 C   0  0  0  0  0  0  0  0  0  0  0  0
   48.3174    6.6215   17.8129 N   0  0  0  0  0  0  0  0  0  0  0  0
   49.5241    5.3655   16.4779 O   0  0  0  0  0  0  0  0  0  0  0  0
   48.7882    7.5160   15.5394 C   0  0  0  0  0  0  0  0  0  0  0  0
   49.3291    8.2228   13.1258 C   0  0  0  0  0  0  0  0  0  0  0  0
   48.6153    5.5118   18.4707 N   0  0  0  0  0  0  0  0  0  0  0  0
   46.2041   11.6824   11.6442 C   0  0  0  0  0  0  0  0  0  0  0  0
   49.4158    7.2885   14.2631 N   0  0  0  0  0  0  0  0  0  0  0  0
   49.3586    4.7660   17.6318 C   0  0  0  0  0  0  0  0  0  0  0  0
   44.0142    9.7676   11.7587 O   0  0  0  0  0  0  0  0  0  0  0  0
   45.0164   12.4168   11.9759 N   0  0  0  0  0  0  0  0  0  0  0  0
   44.5829    7.2531   12.5210 O   0  0  0  0  0  0  0  0  0  0  0  0
   48.1314    8.5707   15.7548 O   0  0  0  0  0  0  0  0  0  0  0  0
   47.1385   12.2501   11.0154 O   0  0  0  0  0  0  0  0  0  0  0  0
   47.0177    6.2071   13.1037 C   0  0  0  0  0  0  0  0  0  0  0  0
   44.6459   13.6504   11.2908 C   0  0  0  0  0  0  0  0  0  0  0  0
   43.0785   12.6629    7.4008 C   0  0  0  0  0  0  0  0  0  0  0  0
   44.0955   13.3332    9.9285 C   0  0  0  0  0  0  0  0  0  0  0  0
   42.5855   12.3428    6.1791 F   0  0  0  0  0  0  0  0  0  0  0  0
   44.4024   13.0945    7.5299 C   0  0  0  0  0  0  0  0  0  0  0  0
   42.2651   12.5562    8.5318 C   0  0  0  0  0  0  0  0  0  0  0  0
   44.9136   13.4231    8.7900 C   0  0  0  0  0  0  0  0  0  0  0  0
   42.7705   12.8858    9.7922 C   0  0  0  0  0  0  0  0  0  0  0  0
   50.0205    7.6224   11.8831 C   0  0  0  0  0  0  0  0  0  0  0  0
   50.1171    9.4996   13.5091 C   0  0  0  0  0  0  0  0  0  0  0  0
   49.8877    3.4117   17.9585 C   0  0  0  0  0  0  0  0  0  0  0  0
   49.9832    6.4173   14.1527 H   0  0  0  0  0  0  0  0  0  0  0  0
   44.4008   12.0739   12.7464 H   0  0  0  0  0  0  0  0  0  0  0  0
   46.3100    5.5621   12.5397 H   0  0  0  0  0  0  0  0  0  0  0  0
   48.0144    5.8259   12.8281 H   0  0  0  0  0  0  0  0  0  0  0  0
   46.8413    6.0549   14.1889 H   0  0  0  0  0  0  0  0  0  0  0  0
   43.8691   14.1788   11.8839 H   0  0  0  0  0  0  0  0  0  0  0  0
   45.5228   14.3313   11.2261 H   0  0  0  0  0  0  0  0  0  0  0  0
   45.0347   13.1721    6.6545 H   0  0  0  0  0  0  0  0  0  0  0  0
   41.2412   12.2172    8.4318 H   0  0  0  0  0  0  0  0  0  0  0  0
   45.9423   13.7489    8.8757 H   0  0  0  0  0  0  0  0  0  0  0  0
   42.1321   12.7928   10.6617 H   0  0  0  0  0  0  0  0  0  0  0  0
   50.0056    8.3475   11.0398 H   0  0  0  0  0  0  0  0  0  0  0  0
   51.0788    7.3760   12.1089 H   0  0  0  0  0  0  0  0  0  0  0  0
   49.5247    6.6997   11.5328 H   0  0  0  0  0  0  0  0  0  0  0  0
   50.2167   10.1882   12.6413 H   0  0  0  0  0  0  0  0  0  0  0  0
   49.6146   10.0535   14.3278 H   0  0  0  0  0  0  0  0  0  0  0  0
   51.1392    9.2322   13.8520 H   0  0  0  0  0  0  0  0  0  0  0  0
   49.1236    2.6465   17.7105 H   0  0  0  0  0  0  0  0  0  0  0  0
   50.1320    3.3496   19.0396 H   0  0  0  0  0  0  0  0  0  0  0  0
   50.8073    3.2155   17.3681 H   0  0  0  0  0  0  0  0  0  0  0  0
  2  1  2  0
  3  4  2  0
  4  1  1  0
  5  6  1  0
  6  2  1  0
  7 10  1  0
  8  7  2  0
  9  7  1  0
 10 14  1  0
 11  3  1  0
 12  8  1  0
 13  1  1  0
 14 11  1  0
 15  9  1  0
 16  2  1  0
 17 13  1  0
 18  6  2  0
 19 10  2  0
 20 13  2  0
 21  5  1  0
 22 17  1  0
 23 26  2  0
 24 22  1  0
 25 23  1  0
 26 28  1  0
 27 29  2  0
 28 24  2  0
 29 24  1  0
 30 11  1  0
 31 11  1  0
 32 15  1  0
  5  3  1  0
 27 23  1  0
 12 15  2  0
 14 33  1  0
 17 34  1  0
 21 35  1  0
 21 36  1  0
 21 37  1  0
 22 38  1  0
 22 39  1  0
 26 40  1  0
 27 41  1  0
 28 42  1  0
 29 43  1  0
 30 44  1  0
 30 45  1  0
 30 46  1  0
 31 47  1  0
 31 48  1  0
 31 49  1  0
 32 50  1  0
 32 51  1  0
 32 52  1  0
M  CHG  1  16  -1
M  END
> <Uni-Dock RESULT> 
ENERGY=   -3.813  LOWER_BOUND=    4.584  UPPER_BOUND=    6.168
INTER + INTRA:          -3.813
INTER:                  -3.813
INTRA:                   0.000
UNBOUND:                 0.000

$$$$

     RDKit          3D

 52 54  0  0  0  0  0  0  0  0999 V2000
   49.0390    6.9332   16.0911 C   0  0  0  0  0  0  0  0  0  0  0  0
   49.7375    8.1064   16.3810 C   0  0  0  0  0  0  0  0  0  0  0  0
   49.2570    6.2281   18.3614 C   0  0  0  0  0  0  0  0  0  0  0  0
   48.8157    6.0439   17.0856 N   0  0  0  0  0  0  0  0  0  0  0  0
   49.8999    7.4154   18.6853 N   0  0  0  0  0  0  0  0  0  0  0  0
   50.1715    8.3241   17.6884 C   0  0  0  0  0  0  0  0  0  0  0  0
   52.4591    4.4807   20.9302 C   0  0  0  0  0  0  0  0  0  0  0  0
   53.7565    4.2504   20.6495 N   0  0  0  0  0  0  0  0  0  0  0  0
   52.2598    4.5675   22.2229 O   0  0  0  0  0  0  0  0  0  0  0  0
   51.4092    4.6290   19.9164 C   0  0  0  0  0  0  0  0  0  0  0  0
   48.9413    5.1079   19.3709 C   0  0  0  0  0  0  0  0  0  0  0  0
   54.3838    4.1938   21.8140 N   0  0  0  0  0  0  0  0  0  0  0  0
   48.5065    6.6426   14.7464 C   0  0  0  0  0  0  0  0  0  0  0  0
   50.0513    4.8937   20.3173 N   0  0  0  0  0  0  0  0  0  0  0  0
   53.4427    4.3850   22.7574 C   0  0  0  0  0  0  0  0  0  0  0  0
   49.9726    9.0703   15.4036 O   0  0  0  0  0  0  0  0  0  0  0  0
   49.2190    7.0397   13.5655 N   0  0  0  0  0  0  0  0  0  0  0  0
   50.8140    9.3824   17.9377 O   0  0  0  0  0  0  0  0  0  0  0  0
   51.7152    4.5453   18.6960 O   0  0  0  0  0  0  0  0  0  0  0  0
   47.4235    6.0047   14.6418 O   0  0  0  0  0  0  0  0  0  0  0  0
   50.3641    7.7388   20.0492 C   0  0  0  0  0  0  0  0  0  0  0  0
   48.5799    7.1092   12.2558 C   0  0  0  0  0  0  0  0  0  0  0  0
   46.1240   10.6455   12.0936 C   0  0  0  0  0  0  0  0  0  0  0  0
   47.7154    8.3360   12.1732 C   0  0  0  0  0  0  0  0  0  0  0  0
   45.3547   11.7612   12.0511 F   0  0  0  0  0  0  0  0  0  0  0  0
   45.5386    9.4015   12.3489 C   0  0  0  0  0  0  0  0  0  0  0  0
   47.5027   10.7399   11.8879 C   0  0  0  0  0  0  0  0  0  0  0  0
   46.3309    8.2494   12.3954 C   0  0  0  0  0  0  0  0  0  0  0  0
   48.2978    9.5916   11.9308 C   0  0  0  0  0  0  0  0  0  0  0  0
   47.6490    5.4736   20.1319 C   0  0  0  0  0  0  0  0  0  0  0  0
   48.6762    3.7634   18.6496 C   0  0  0  0  0  0  0  0  0  0  0  0
   53.7188    4.4283   24.2212 C   0  0  0  0  0  0  0  0  0  0  0  0
   49.8451    4.9108   21.3422 H   0  0  0  0  0  0  0  0  0  0  0  0
   50.2353    7.2696   13.6336 H   0  0  0  0  0  0  0  0  0  0  0  0
   50.3226    8.8328   20.2397 H   0  0  0  0  0  0  0  0  0  0  0  0
   49.7266    7.3000   20.8338 H   0  0  0  0  0  0  0  0  0  0  0  0
   51.4129    7.4001   20.1805 H   0  0  0  0  0  0  0  0  0  0  0  0
   49.3628    7.1612   11.4693 H   0  0  0  0  0  0  0  0  0  0  0  0
   47.9918    6.1844   12.0667 H   0  0  0  0  0  0  0  0  0  0  0  0
   44.4711    9.3287   12.5139 H   0  0  0  0  0  0  0  0  0  0  0  0
   47.9562   11.7045   11.6950 H   0  0  0  0  0  0  0  0  0  0  0  0
   45.8652    7.2942   12.6011 H   0  0  0  0  0  0  0  0  0  0  0  0
   49.3659    9.6787   11.7760 H   0  0  0  0  0  0  0  0  0  0  0  0
   46.7971    5.5812   19.4250 H   0  0  0  0  0  0  0  0  0  0  0  0
   47.3926    4.6805   20.8647 H   0  0  0  0  0  0  0  0  0  0  0  0
   47.7425    6.4265   20.6824 H   0  0  0  0  0  0  0  0  0  0  0  0
   47.7559    3.8139   18.0270 H   0  0  0  0  0  0  0  0  0  0  0  0
   49.5213    3.4874   17.9870 H   0  0  0  0  0  0  0  0  0  0  0  0
   48.5418    2.9486   19.3925 H   0  0  0  0  0  0  0  0  0  0  0  0
   53.9986    5.4610   24.5144 H   0  0  0  0  0  0  0  0  0  0  0  0
   54.5510    3.7375   24.4717 H   0  0  0  0  0  0  0  0  0  0  0  0
   52.8122    4.1209   24.7835 H   0  0  0  0  0  0  0  0  0  0  0  0
  2  1  2  0
  3  4  2  0
  4  1  1  0
  5  6  1  0
  6  2  1  0
  7 10  1  0
  8  7  2  0
  9  7  1  0
 10 14  1  0
 11  3  1  0
 12  8  1  0
 13  1  1  0
 14 11  1  0
 15  9  1  0
 16  2  1  0
 17 13  1  0
 18  6  2  0
 19 10  2  0
 20 13  2  0
 21  5  1  0
 22 17  1  0
 23 26  2  0
 24 22  1  0
 25 23  1  0
 26 28  1  0
 27 29  2  0
 28 24  2  0
 29 24  1  0
 30 11  1  0
 31 11  1  0
 32 15  1  0
  5  3  1  0
 27 23  1  0
 12 15  2  0
 14 33  1  0
 17 34  1  0
 21 35  1  0
 21 36  1  0
 21 37  1  0
 22 38  1  0
 22 39  1  0
 26 40  1  0
 27 41  1  0
 28 42  1  0
 29 43  1  0
 30 44  1  0
 30 45  1  0
 30 46  1  0
 31 47  1  0
 31 48  1  0
 31 49  1  0
 32 50  1  0
 32 51  1  0
 32 52  1  0
M  CHG  1  16  -1
M  END
> <Uni-Dock RESULT> 
ENERGY=   -3.712  LOWER_BOUND=    4.393  UPPER_BOUND=    6.455
INTER + INTRA:          -3.712
INTER:                  -3.712
INTRA:                   0.000
UNBOUND:                 0.000

$$$$

     RDKit          3D

 52 54  0  0  0  0  0  0  0  0999 V2000
   50.4518    7.4177   20.0302 C   0  0  0  0  0  0  0  0  0  0  0  0
   50.0778    7.5193   18.6892 C   0  0  0  0  0  0  0  0  0  0  0  0
   52.4947    6.3597   19.3928 C   0  0  0  0  0  0  0  0  0  0  0  0
   51.6430    6.8537   20.3346 N   0  0  0  0  0  0  0  0  0  0  0  0
   52.1703    6.5059   18.0506 N   0  0  0  0  0  0  0  0  0  0  0  0
   50.9507    7.0445   17.7107 C   0  0  0  0  0  0  0  0  0  0  0  0
   53.7712    2.3060   18.0351 C   0  0  0  0  0  0  0  0  0  0  0  0
   53.0258    1.2214   17.7472 N   0  0  0  0  0  0  0  0  0  0  0  0
   54.9438    2.2463   17.4520 O   0  0  0  0  0  0  0  0  0  0  0  0
   53.3205    3.4163   18.8813 C   0  0  0  0  0  0  0  0  0  0  0  0
   53.8016    5.7261   19.9066 C   0  0  0  0  0  0  0  0  0  0  0  0
   53.7657    0.4622   16.9543 N   0  0  0  0  0  0  0  0  0  0  0  0
   49.6098    7.9329   21.1264 C   0  0  0  0  0  0  0  0  0  0  0  0
   54.1862    4.5436   19.1143 N   0  0  0  0  0  0  0  0  0  0  0  0
   54.9346    1.1112   16.7965 C   0  0  0  0  0  0  0  0  0  0  0  0
   48.8759    8.1153   18.3152 O   0  0  0  0  0  0  0  0  0  0  0  0
   48.1779    7.8619   21.0572 N   0  0  0  0  0  0  0  0  0  0  0  0
   50.5974    7.1290   16.5011 O   0  0  0  0  0  0  0  0  0  0  0  0
   52.1625    3.3804   19.3792 O   0  0  0  0  0  0  0  0  0  0  0  0
   50.1660    8.4112   22.1525 O   0  0  0  0  0  0  0  0  0  0  0  0
   53.0499    6.0593   16.9519 C   0  0  0  0  0  0  0  0  0  0  0  0
   47.3151    8.6679   21.9142 C   0  0  0  0  0  0  0  0  0  0  0  0
   47.2928   12.7191   20.4477 C   0  0  0  0  0  0  0  0  0  0  0  0
   47.2902   10.0884   21.4235 C   0  0  0  0  0  0  0  0  0  0  0  0
   47.2907   13.9911   19.9784 F   0  0  0  0  0  0  0  0  0  0  0  0
   48.1041   12.3753   21.5335 C   0  0  0  0  0  0  0  0  0  0  0  0
   46.4881   11.7504   19.8425 C   0  0  0  0  0  0  0  0  0  0  0  0
   48.1094   11.0628   22.0178 C   0  0  0  0  0  0  0  0  0  0  0  0
   46.4880   10.4387   20.3243 C   0  0  0  0  0  0  0  0  0  0  0  0
   54.9204    6.7889   19.8637 C   0  0  0  0  0  0  0  0  0  0  0  0
   53.6626    5.2751   21.3815 C   0  0  0  0  0  0  0  0  0  0  0  0
   56.0578    0.6220   15.9480 C   0  0  0  0  0  0  0  0  0  0  0  0
   55.1509    4.5026   18.7130 H   0  0  0  0  0  0  0  0  0  0  0  0
   47.7300    7.1986   20.3866 H   0  0  0  0  0  0  0  0  0  0  0  0
   52.9355    6.7069   16.0562 H   0  0  0  0  0  0  0  0  0  0  0  0
   54.1203    6.1287   17.2050 H   0  0  0  0  0  0  0  0  0  0  0  0
   52.7957    5.0175   16.6655 H   0  0  0  0  0  0  0  0  0  0  0  0
   46.2842    8.2546   21.8871 H   0  0  0  0  0  0  0  0  0  0  0  0
   47.6601    8.6087   22.9697 H   0  0  0  0  0  0  0  0  0  0  0  0
   48.7319   13.1243   21.9993 H   0  0  0  0  0  0  0  0  0  0  0  0
   45.8635   12.0162   18.9984 H   0  0  0  0  0  0  0  0  0  0  0  0
   48.7478   10.8095   22.8544 H   0  0  0  0  0  0  0  0  0  0  0  0
   45.8649    9.6957   19.8427 H   0  0  0  0  0  0  0  0  0  0  0  0
   54.6573    7.6584   20.5054 H   0  0  0  0  0  0  0  0  0  0  0  0
   55.8755    6.3620   20.2340 H   0  0  0  0  0  0  0  0  0  0  0  0
   55.0939    7.1735   18.8430 H   0  0  0  0  0  0  0  0  0  0  0  0
   53.5171    6.1461   22.0579 H   0  0  0  0  0  0  0  0  0  0  0  0
   52.7994    4.5919   21.5150 H   0  0  0  0  0  0  0  0  0  0  0  0
   54.5789    4.7387   21.7076 H   0  0  0  0  0  0  0  0  0  0  0  0
   55.9076    0.9631   14.9030 H   0  0  0  0  0  0  0  0  0  0  0  0
   56.0958   -0.4873   15.9701 H   0  0  0  0  0  0  0  0  0  0  0  0
   57.0196    1.0243   16.3298 H   0  0  0  0  0  0  0  0  0  0  0  0
  2  1  2  0
  3  4  2  0
  4  1  1  0
  5  6  1  0
  6  2  1  0
  7 10  1  0
  8  7  2  0
  9  7  1  0
 10 14  1  0
 11  3  1  0
 12  8  1  0
 13  1  1  0
 14 11  1  0
 15  9  1  0
 16  2  1  0
 17 13  1  0
 18  6  2  0
 19 10  2  0
 20 13  2  0
 21  5  1  0
 22 17  1  0
 23 26  2  0
 24 22  1  0
 25 23  1  0
 26 28  1  0
 27 29  2  0
 28 24  2  0
 29 24  1  0
 30 11  1  0
 31 11  1  0
 32 15  1  0
  5  3  1  0
 27 23  1  0
 12 15  2  0
 14 33  1  0
 17 34  1  0
 21 35  1  0
 21 36  1  0
 21 37  1  0
 22 38  1  0
 22 39  1  0
 26 40  1  0
 27 41  1  0
 28 42  1  0
 29 43  1  0
 30 44  1  0
 30 45  1  0
 30 46  1  0
 31 47  1  0
 31 48  1  0
 31 49  1  0
 32 50  1  0
 32 51  1  0
 32 52  1  0
M  CHG  1  16  -1
M  END
> <Uni-Dock RESULT> 
ENERGY=   -3.669  LOWER_BOUND=    7.215  UPPER_BOUND=   10.120
INTER + INTRA:          -3.669
INTER:                  -3.669
INTRA:                   0.000
UNBOUND:                 0.000

$$$$
