
     RDKit          3D

 52 54  0  0  0  0  0  0  0  0999 V2000
   50.5449    7.6382   15.7772 C   0  0  0  0  0  0  0  0  0  0  0  0
   51.9227    7.8262   15.6788 C   0  0  0  0  0  0  0  0  0  0  0  0
   50.2044    9.0639   13.8888 C   0  0  0  0  0  0  0  0  0  0  0  0
   49.7418    8.2436   14.8736 N   0  0  0  0  0  0  0  0  0  0  0  0
   51.5602    9.3606   13.8498 N   0  0  0  0  0  0  0  0  0  0  0  0
   52.4140    8.6990   14.7064 C   0  0  0  0  0  0  0  0  0  0  0  0
   46.7528    6.5410   12.6778 C   0  0  0  0  0  0  0  0  0  0  0  0
   45.5624    6.9820   13.1280 N   0  0  0  0  0  0  0  0  0  0  0  0
   46.6963    5.2730   12.3468 O   0  0  0  0  0  0  0  0  0  0  0  0
   47.9632    7.3665   12.5771 C   0  0  0  0  0  0  0  0  0  0  0  0
   49.1270    9.6379   12.9395 C   0  0  0  0  0  0  0  0  0  0  0  0
   44.7379    5.9474   13.0736 N   0  0  0  0  0  0  0  0  0  0  0  0
   49.9309    6.7503   16.7846 C   0  0  0  0  0  0  0  0  0  0  0  0
   47.9403    8.7522   12.9717 N   0  0  0  0  0  0  0  0  0  0  0  0
   45.4575    4.9184   12.5880 C   0  0  0  0  0  0  0  0  0  0  0  0
   52.8074    7.1410   16.5073 O   0  0  0  0  0  0  0  0  0  0  0  0
   50.5122    6.5856   18.0871 N   0  0  0  0  0  0  0  0  0  0  0  0
   53.6637    8.8627   14.6274 O   0  0  0  0  0  0  0  0  0  0  0  0
   49.0276    6.8386   12.1573 O   0  0  0  0  0  0  0  0  0  0  0  0
   48.8532    6.1599   16.5007 O   0  0  0  0  0  0  0  0  0  0  0  0
   52.1434   10.3275   12.9004 C   0  0  0  0  0  0  0  0  0  0  0  0
   50.1104    5.5083   18.9881 C   0  0  0  0  0  0  0  0  0  0  0  0
   51.6006    1.7649   17.4563 C   0  0  0  0  0  0  0  0  0  0  0  0
   50.6208    4.1896   18.4752 C   0  0  0  0  0  0  0  0  0  0  0  0
   52.0739    0.5930   16.9652 F   0  0  0  0  0  0  0  0  0  0  0  0
   50.2396    2.0668   17.3547 C   0  0  0  0  0  0  0  0  0  0  0  0
   52.4742    2.6730   18.0617 C   0  0  0  0  0  0  0  0  0  0  0  0
   49.7498    3.2757   17.8591 C   0  0  0  0  0  0  0  0  0  0  0  0
   51.9882    3.8830   18.5669 C   0  0  0  0  0  0  0  0  0  0  0  0
   48.6933   11.0243   13.4625 C   0  0  0  0  0  0  0  0  0  0  0  0
   49.5673    9.7542   11.4597 C   0  0  0  0  0  0  0  0  0  0  0  0
   44.9230    3.5420   12.3852 C   0  0  0  0  0  0  0  0  0  0  0  0
   47.0295    9.1376   13.3125 H   0  0  0  0  0  0  0  0  0  0  0  0
   51.2151    7.2785   18.4289 H   0  0  0  0  0  0  0  0  0  0  0  0
   53.1365   10.6951   13.2343 H   0  0  0  0  0  0  0  0  0  0  0  0
   51.5334   11.2430   12.8309 H   0  0  0  0  0  0  0  0  0  0  0  0
   52.2802    9.8539   11.9068 H   0  0  0  0  0  0  0  0  0  0  0  0
   50.5373    5.6940   19.9979 H   0  0  0  0  0  0  0  0  0  0  0  0
   49.0041    5.5007   19.0992 H   0  0  0  0  0  0  0  0  0  0  0  0
   49.5635    1.3659   16.8824 H   0  0  0  0  0  0  0  0  0  0  0  0
   53.5289    2.4419   18.1370 H   0  0  0  0  0  0  0  0  0  0  0  0
   48.6944    3.4992   17.7661 H   0  0  0  0  0  0  0  0  0  0  0  0
   52.6759    4.5827   19.0257 H   0  0  0  0  0  0  0  0  0  0  0  0
   48.3013   10.9378   14.4992 H   0  0  0  0  0  0  0  0  0  0  0  0
   49.5254   11.7528   13.4772 H   0  0  0  0  0  0  0  0  0  0  0  0
   47.8862   11.4418   12.8222 H   0  0  0  0  0  0  0  0  0  0  0  0
   50.2168    8.9031   11.1668 H   0  0  0  0  0  0  0  0  0  0  0  0
   48.6764    9.7428   10.7947 H   0  0  0  0  0  0  0  0  0  0  0  0
   50.0867   10.7077   11.2391 H   0  0  0  0  0  0  0  0  0  0  0  0
   45.2377    2.8957   13.2313 H   0  0  0  0  0  0  0  0  0  0  0  0
   43.8138    3.5659   12.3341 H   0  0  0  0  0  0  0  0  0  0  0  0
   45.3209    3.1232   11.4369 H   0  0  0  0  0  0  0  0  0  0  0  0
  2  1  2  0
  3  4  2  0
  4  1  1  0
  5  6  1  0
  6  2  1  0
  7 10  1  0
  8  7  2  0
  9  7  1  0
 10 14  1  0
 11  3  1  0
 12  8  1  0
 13  1  1  0
 14 11  1  0
 15  9  1  0
 16  2  1  0
 17 13  1  0
 18  6  2  0
 19 10  2  0
 20 13  2  0
 21  5  1  0
 22 17  1  0
 23 26  2  0
 24 22  1  0
 25 23  1  0
 26 28  1  0
 27 29  2  0
 28 24  2  0
 29 24  1  0
 30 11  1  0
 31 11  1  0
 32 15  1  0
  5  3  1  0
 27 23  1  0
 12 15  2  0
 14 33  1  0
 17 34  1  0
 21 35  1  0
 21 36  1  0
 21 37  1  0
 22 38  1  0
 22 39  1  0
 26 40  1  0
 27 41  1  0
 28 42  1  0
 29 43  1  0
 30 44  1  0
 30 45  1  0
 30 46  1  0
 31 47  1  0
 31 48  1  0
 31 49  1  0
 32 50  1  0
 32 51  1  0
 32 52  1  0
M  CHG  1  16  -1
M  END
> <Uni-Dock RESULT> 
ENERGY=   -4.488  LOWER_BOUND=    0.000  UPPER_BOUND=    0.000
INTER + INTRA:          -4.488
INTER:                  -4.488
INTRA:                   0.000
UNBOUND:                 0.000

$$$$

     RDKit          3D

 52 54  0  0  0  0  0  0  0  0999 V2000
   45.2385   11.7996   11.2336 C   0  0  0  0  0  0  0  0  0  0  0  0
   45.2938   13.0345   11.8782 C   0  0  0  0  0  0  0  0  0  0  0  0
   47.3532   11.2016   12.1747 C   0  0  0  0  0  0  0  0  0  0  0  0
   46.2535   10.9258   11.4189 N   0  0  0  0  0  0  0  0  0  0  0  0
   47.4838   12.4700   12.7243 N   0  0  0  0  0  0  0  0  0  0  0  0
   46.4322   13.3553   12.6195 C   0  0  0  0  0  0  0  0  0  0  0  0
   45.9780    6.9848   12.4423 C   0  0  0  0  0  0  0  0  0  0  0  0
   46.3208    6.2246   11.3845 N   0  0  0  0  0  0  0  0  0  0  0  0
   44.9811    6.4521   13.1078 O   0  0  0  0  0  0  0  0  0  0  0  0
   46.6272    8.2516   12.8031 C   0  0  0  0  0  0  0  0  0  0  0  0
   48.3900   10.0595   12.2838 C   0  0  0  0  0  0  0  0  0  0  0  0
   45.5047    5.1820   11.3958 N   0  0  0  0  0  0  0  0  0  0  0  0
   44.0857   11.3790   10.4126 C   0  0  0  0  0  0  0  0  0  0  0  0
   47.7126    8.7710   12.0101 N   0  0  0  0  0  0  0  0  0  0  0  0
   44.7003    5.3460   12.4628 C   0  0  0  0  0  0  0  0  0  0  0  0
   44.2292   13.9299   11.8183 O   0  0  0  0  0  0  0  0  0  0  0  0
   43.3254   12.3299    9.6515 N   0  0  0  0  0  0  0  0  0  0  0  0
   46.4718   14.4772   13.1978 O   0  0  0  0  0  0  0  0  0  0  0  0
   46.2077    8.8870   13.8072 O   0  0  0  0  0  0  0  0  0  0  0  0
   43.7945   10.1533   10.3532 O   0  0  0  0  0  0  0  0  0  0  0  0
   48.6871   12.9073   13.4572 C   0  0  0  0  0  0  0  0  0  0  0  0
   42.0225   12.0037    9.0771 C   0  0  0  0  0  0  0  0  0  0  0  0
   39.1247   11.6904   12.2529 C   0  0  0  0  0  0  0  0  0  0  0  0
   40.9922   11.8904   10.1671 C   0  0  0  0  0  0  0  0  0  0  0  0
   38.2217   11.5940   13.2596 F   0  0  0  0  0  0  0  0  0  0  0  0
   39.5929   10.5351   11.6205 C   0  0  0  0  0  0  0  0  0  0  0  0
   39.5903   12.9452   11.8489 C   0  0  0  0  0  0  0  0  0  0  0  0
   40.5256   10.6322   10.5831 C   0  0  0  0  0  0  0  0  0  0  0  0
   40.5232   13.0464   10.8121 C   0  0  0  0  0  0  0  0  0  0  0  0
   49.4684   10.2635   11.1979 C   0  0  0  0  0  0  0  0  0  0  0  0
   49.0656    9.9322   13.6709 C   0  0  0  0  0  0  0  0  0  0  0  0
   43.6059    4.4076   12.8411 C   0  0  0  0  0  0  0  0  0  0  0  0
   48.0196    8.2017   11.1881 H   0  0  0  0  0  0  0  0  0  0  0  0
   43.7269   13.2748    9.4592 H   0  0  0  0  0  0  0  0  0  0  0  0
   48.7661   14.0136   13.5102 H   0  0  0  0  0  0  0  0  0  0  0  0
   49.6097   12.6020   12.9371 H   0  0  0  0  0  0  0  0  0  0  0  0
   48.6618   12.5249   14.4981 H   0  0  0  0  0  0  0  0  0  0  0  0
   41.7181   12.8088    8.3732 H   0  0  0  0  0  0  0  0  0  0  0  0
   42.0940   11.0648    8.4859 H   0  0  0  0  0  0  0  0  0  0  0  0
   39.2360    9.5631   11.9357 H   0  0  0  0  0  0  0  0  0  0  0  0
   39.2315   13.8400   12.3408 H   0  0  0  0  0  0  0  0  0  0  0  0
   40.8851    9.7281   10.1080 H   0  0  0  0  0  0  0  0  0  0  0  0
   40.8834   14.0232   10.5139 H   0  0  0  0  0  0  0  0  0  0  0  0
   48.9999   10.2774   10.1898 H   0  0  0  0  0  0  0  0  0  0  0  0
   50.0245   11.2113   11.3235 H   0  0  0  0  0  0  0  0  0  0  0  0
   50.2041    9.4306   11.2250 H   0  0  0  0  0  0  0  0  0  0  0  0
   48.3485   10.1561   14.4881 H   0  0  0  0  0  0  0  0  0  0  0  0
   49.4348    8.8943   13.8216 H   0  0  0  0  0  0  0  0  0  0  0  0
   49.9583   10.5799   13.7758 H   0  0  0  0  0  0  0  0  0  0  0  0
   42.6333    4.8168   12.4954 H   0  0  0  0  0  0  0  0  0  0  0  0
   43.7740    3.4148   12.3726 H   0  0  0  0  0  0  0  0  0  0  0  0
   43.5814    4.2884   13.9448 H   0  0  0  0  0  0  0  0  0  0  0  0
  2  1  2  0
  3  4  2  0
  4  1  1  0
  5  6  1  0
  6  2  1  0
  7 10  1  0
  8  7  2  0
  9  7  1  0
 10 14  1  0
 11  3  1  0
 12  8  1  0
 13  1  1  0
 14 11  1  0
 15  9  1  0
 16  2  1  0
 17 13  1  0
 18  6  2  0
 19 10  2  0
 20 13  2  0
 21  5  1  0
 22 17  1  0
 23 26  2  0
 24 22  1  0
 25 23  1  0
 26 28  1  0
 27 29  2  0
 28 24  2  0
 29 24  1  0
 30 11  1  0
 31 11  1  0
 32 15  1  0
  5  3  1  0
 27 23  1  0
 12 15  2  0
 14 33  1  0
 17 34  1  0
 21 35  1  0
 21 36  1  0
 21 37  1  0
 22 38  1  0
 22 39  1  0
 26 40  1  0
 27 41  1  0
 28 42  1  0
 29 43  1  0
 30 44  1  0
 30 45  1  0
 30 46  1  0
 31 47  1  0
 31 48  1  0
 31 49  1  0
 32 50  1  0
 32 51  1  0
 32 52  1  0
M  CHG  1  16  -1
M  END
> <Uni-Dock RESULT> 
ENERGY=   -4.466  LOWER_BOUND=    6.138  UPPER_BOUND=    9.592
INTER + INTRA:          -4.466
INTER:                  -4.466
INTRA:                   0.000
UNBOUND:                 0.000

$$$$

     RDKit          3D

 52 54  0  0  0  0  0  0  0  0999 V2000
   50.9965    7.5793   15.7923 C   0  0  0  0  0  0  0  0  0  0  0  0
   52.3798    7.7005   15.6689 C   0  0  0  0  0  0  0  0  0  0  0  0
   50.6917    9.0038   13.8969 C   0  0  0  0  0  0  0  0  0  0  0  0
   50.2077    8.2149   14.8968 N   0  0  0  0  0  0  0  0  0  0  0  0
   52.0593    9.2351   13.8323 N   0  0  0  0  0  0  0  0  0  0  0  0
   52.8953    8.5406   14.6804 C   0  0  0  0  0  0  0  0  0  0  0  0
   47.1035    6.6387   12.7674 C   0  0  0  0  0  0  0  0  0  0  0  0
   45.9434    7.1398   13.2336 N   0  0  0  0  0  0  0  0  0  0  0  0
   46.9810    5.3722   12.4490 O   0  0  0  0  0  0  0  0  0  0  0  0
   48.3499    7.4046   12.6388 C   0  0  0  0  0  0  0  0  0  0  0  0
   49.6267    9.6208   12.9607 C   0  0  0  0  0  0  0  0  0  0  0  0
   45.0697    6.1454   13.2026 N   0  0  0  0  0  0  0  0  0  0  0  0
   50.3584    6.7303   16.8180 C   0  0  0  0  0  0  0  0  0  0  0  0
   48.3998    8.7931   13.0210 N   0  0  0  0  0  0  0  0  0  0  0  0
   45.7311    5.0791   12.7143 C   0  0  0  0  0  0  0  0  0  0  0  0
   53.2450    6.9807   16.4887 O   0  0  0  0  0  0  0  0  0  0  0  0
   50.9537    6.5488   18.1119 N   0  0  0  0  0  0  0  0  0  0  0  0
   54.1498    8.6438   14.5789 O   0  0  0  0  0  0  0  0  0  0  0  0
   49.3806    6.8229   12.2059 O   0  0  0  0  0  0  0  0  0  0  0  0
   49.2491    6.1897   16.5577 O   0  0  0  0  0  0  0  0  0  0  0  0
   52.6713   10.1651   12.8645 C   0  0  0  0  0  0  0  0  0  0  0  0
   50.5166    5.4995   19.0295 C   0  0  0  0  0  0  0  0  0  0  0  0
   51.8001    1.6765   17.5071 C   0  0  0  0  0  0  0  0  0  0  0  0
   50.9547    4.1537   18.5201 C   0  0  0  0  0  0  0  0  0  0  0  0
   52.2085    0.4793   17.0189 F   0  0  0  0  0  0  0  0  0  0  0  0
   50.4535    2.0423   17.4257 C   0  0  0  0  0  0  0  0  0  0  0  0
   52.7264    2.5469   18.0893 C   0  0  0  0  0  0  0  0  0  0  0  0
   50.0306    3.2773   17.9271 C   0  0  0  0  0  0  0  0  0  0  0  0
   52.3073    3.7829   18.5915 C   0  0  0  0  0  0  0  0  0  0  0  0
   49.2686   11.0306   13.4782 C   0  0  0  0  0  0  0  0  0  0  0  0
   50.0464    9.7036   11.4727 C   0  0  0  0  0  0  0  0  0  0  0  0
   45.1282    3.7282   12.5332 C   0  0  0  0  0  0  0  0  0  0  0  0
   47.5145    9.2243   13.3736 H   0  0  0  0  0  0  0  0  0  0  0  0
   51.6945    7.2101   18.4355 H   0  0  0  0  0  0  0  0  0  0  0  0
   53.6865   10.4876   13.1781 H   0  0  0  0  0  0  0  0  0  0  0  0
   52.1046   11.1081   12.7969 H   0  0  0  0  0  0  0  0  0  0  0  0
   52.7683    9.6773   11.8730 H   0  0  0  0  0  0  0  0  0  0  0  0
   50.9693    5.6730   20.0302 H   0  0  0  0  0  0  0  0  0  0  0  0
   49.4133    5.5457   19.1592 H   0  0  0  0  0  0  0  0  0  0  0  0
   49.7367    1.3706   16.9712 H   0  0  0  0  0  0  0  0  0  0  0  0
   53.7700    2.2662   18.1490 H   0  0  0  0  0  0  0  0  0  0  0  0
   48.9856    3.5502   17.8499 H   0  0  0  0  0  0  0  0  0  0  0  0
   53.0354    4.4527   19.0322 H   0  0  0  0  0  0  0  0  0  0  0  0
   48.8909   10.9716   14.5221 H   0  0  0  0  0  0  0  0  0  0  0  0
   50.1346   11.7186   13.4722 H   0  0  0  0  0  0  0  0  0  0  0  0
   48.4713   11.4808   12.8478 H   0  0  0  0  0  0  0  0  0  0  0  0
   50.6494    8.8199   11.1766 H   0  0  0  0  0  0  0  0  0  0  0  0
   49.1446    9.7292   10.8229 H   0  0  0  0  0  0  0  0  0  0  0  0
   50.6067   10.6292   11.2346 H   0  0  0  0  0  0  0  0  0  0  0  0
   45.4263    3.0747   13.3798 H   0  0  0  0  0  0  0  0  0  0  0  0
   44.0207    3.8047   12.5006 H   0  0  0  0  0  0  0  0  0  0  0  0
   45.4892    3.2830   11.5822 H   0  0  0  0  0  0  0  0  0  0  0  0
  2  1  2  0
  3  4  2  0
  4  1  1  0
  5  6  1  0
  6  2  1  0
  7 10  1  0
  8  7  2  0
  9  7  1  0
 10 14  1  0
 11  3  1  0
 12  8  1  0
 13  1  1  0
 14 11  1  0
 15  9  1  0
 16  2  1  0
 17 13  1  0
 18  6  2  0
 19 10  2  0
 20 13  2  0
 21  5  1  0
 22 17  1  0
 23 26  2  0
 24 22  1  0
 25 23  1  0
 26 28  1  0
 27 29  2  0
 28 24  2  0
 29 24  1  0
 30 11  1  0
 31 11  1  0
 32 15  1  0
  5  3  1  0
 27 23  1  0
 12 15  2  0
 14 33  1  0
 17 34  1  0
 21 35  1  0
 21 36  1  0
 21 37  1  0
 22 38  1  0
 22 39  1  0
 26 40  1  0
 27 41  1  0
 28 42  1  0
 29 43  1  0
 30 44  1  0
 30 45  1  0
 30 46  1  0
 31 47  1  0
 31 48  1  0
 31 49  1  0
 32 50  1  0
 32 51  1  0
 32 52  1  0
M  CHG  1  16  -1
M  END
> <Uni-Dock RESULT> 
ENERGY=   -4.435  LOWER_BOUND=    0.417  UPPER_BOUND=    0.417
INTER + INTRA:          -4.435
INTER:                  -4.435
INTRA:                   0.000
UNBOUND:                 0.000

$$$$

     RDKit          3D

 52 54  0  0  0  0  0  0  0  0999 V2000
   45.9322    9.3948   12.4364 C   0  0  0  0  0  0  0  0  0  0  0  0
   45.4048    8.1724   12.0229 C   0  0  0  0  0  0  0  0  0  0  0  0
   47.5557    8.2552   13.7708 C   0  0  0  0  0  0  0  0  0  0  0  0
   46.9934    9.3927   13.2743 N   0  0  0  0  0  0  0  0  0  0  0  0
   46.9687    7.0338   13.4681 N   0  0  0  0  0  0  0  0  0  0  0  0
   45.9361    6.9965   12.5556 C   0  0  0  0  0  0  0  0  0  0  0  0
   50.4766   11.4804   12.8705 C   0  0  0  0  0  0  0  0  0  0  0  0
   50.5186   12.4602   13.7939 N   0  0  0  0  0  0  0  0  0  0  0  0
   50.9808   11.8816   11.7279 O   0  0  0  0  0  0  0  0  0  0  0  0
   49.9298   10.1378   13.1047 C   0  0  0  0  0  0  0  0  0  0  0  0
   48.7792    8.4649   14.6930 C   0  0  0  0  0  0  0  0  0  0  0  0
   51.0695   13.5075   13.1999 N   0  0  0  0  0  0  0  0  0  0  0  0
   45.4242   10.6905   11.9434 C   0  0  0  0  0  0  0  0  0  0  0  0
   49.3857    9.7820   14.3907 N   0  0  0  0  0  0  0  0  0  0  0  0
   51.3456   13.1228   11.9397 C   0  0  0  0  0  0  0  0  0  0  0  0
   44.3874    8.1072   11.0745 O   0  0  0  0  0  0  0  0  0  0  0  0
   44.0376   10.8735   11.6191 N   0  0  0  0  0  0  0  0  0  0  0  0
   45.4495    5.8952   12.1749 O   0  0  0  0  0  0  0  0  0  0  0  0
   49.9272    9.3071   12.1571 O   0  0  0  0  0  0  0  0  0  0  0  0
   46.2235   11.6613   11.8460 O   0  0  0  0  0  0  0  0  0  0  0  0
   47.4265    5.7574   14.0489 C   0  0  0  0  0  0  0  0  0  0  0  0
   43.5615   12.0271   10.8597 C   0  0  0  0  0  0  0  0  0  0  0  0
   44.8377   11.6358    6.7611 C   0  0  0  0  0  0  0  0  0  0  0  0
   43.9935   11.9128    9.4235 C   0  0  0  0  0  0  0  0  0  0  0  0
   45.2446   11.5027    5.4745 F   0  0  0  0  0  0  0  0  0  0  0  0
   45.4652   12.5603    7.6008 C   0  0  0  0  0  0  0  0  0  0  0  0
   43.7924   10.8461    7.2490 C   0  0  0  0  0  0  0  0  0  0  0  0
   45.0481   12.6979    8.9286 C   0  0  0  0  0  0  0  0  0  0  0  0
   43.3728   10.9805    8.5762 C   0  0  0  0  0  0  0  0  0  0  0  0
   48.2957    8.4953   16.1590 C   0  0  0  0  0  0  0  0  0  0  0  0
   49.8952    7.4035   14.5349 C   0  0  0  0  0  0  0  0  0  0  0  0
   51.9551   14.0072   10.9064 C   0  0  0  0  0  0  0  0  0  0  0  0
   49.4141   10.5108   15.1404 H   0  0  0  0  0  0  0  0  0  0  0  0
   43.3317   10.1882   11.9698 H   0  0  0  0  0  0  0  0  0  0  0  0
   46.6513    4.9652   13.9824 H   0  0  0  0  0  0  0  0  0  0  0  0
   47.6156    5.8508   15.1308 H   0  0  0  0  0  0  0  0  0  0  0  0
   48.3240    5.3911   13.5096 H   0  0  0  0  0  0  0  0  0  0  0  0
   42.4510   12.0634   10.9023 H   0  0  0  0  0  0  0  0  0  0  0  0
   43.9356   12.9659   11.3234 H   0  0  0  0  0  0  0  0  0  0  0  0
   46.2774   13.1690    7.2247 H   0  0  0  0  0  0  0  0  0  0  0  0
   43.3087   10.1270    6.6007 H   0  0  0  0  0  0  0  0  0  0  0  0
   45.5490   13.4128    9.5694 H   0  0  0  0  0  0  0  0  0  0  0  0
   42.5680   10.3570    8.9456 H   0  0  0  0  0  0  0  0  0  0  0  0
   47.5502    9.3079   16.3002 H   0  0  0  0  0  0  0  0  0  0  0  0
   47.8215    7.5458   16.4702 H   0  0  0  0  0  0  0  0  0  0  0  0
   49.1509    8.6891   16.8421 H   0  0  0  0  0  0  0  0  0  0  0  0
   50.0034    7.0905   13.4755 H   0  0  0  0  0  0  0  0  0  0  0  0
   50.8707    7.8239   14.8634 H   0  0  0  0  0  0  0  0  0  0  0  0
   49.7318    6.5097   15.1688 H   0  0  0  0  0  0  0  0  0  0  0  0
   51.1595   14.3909   10.2336 H   0  0  0  0  0  0  0  0  0  0  0  0
   52.4705   14.8632   11.3912 H   0  0  0  0  0  0  0  0  0  0  0  0
   52.6927   13.4304   10.3095 H   0  0  0  0  0  0  0  0  0  0  0  0
  2  1  2  0
  3  4  2  0
  4  1  1  0
  5  6  1  0
  6  2  1  0
  7 10  1  0
  8  7  2  0
  9  7  1  0
 10 14  1  0
 11  3  1  0
 12  8  1  0
 13  1  1  0
 14 11  1  0
 15  9  1  0
 16  2  1  0
 17 13  1  0
 18  6  2  0
 19 10  2  0
 20 13  2  0
 21  5  1  0
 22 17  1  0
 23 26  2  0
 24 22  1  0
 25 23  1  0
 26 28  1  0
 27 29  2  0
 28 24  2  0
 29 24  1  0
 30 11  1  0
 31 11  1  0
 32 15  1  0
  5  3  1  0
 27 23  1  0
 12 15  2  0
 14 33  1  0
 17 34  1  0
 21 35  1  0
 21 36  1  0
 21 37  1  0
 22 38  1  0
 22 39  1  0
 26 40  1  0
 27 41  1  0
 28 42  1  0
 29 43  1  0
 30 44  1  0
 30 45  1  0
 30 46  1  0
 31 47  1  0
 31 48  1  0
 31 49  1  0
 32 50  1  0
 32 51  1  0
 32 52  1  0
M  CHG  1  16  -1
M  END
> <Uni-Dock RESULT> 
ENERGY=   -4.109  LOWER_BOUND=    5.012  UPPER_BOUND=    9.688
INTER + INTRA:          -4.109
INTER:                  -4.109
INTRA:                   0.000
UNBOUND:                 0.000

$$$$

     RDKit          3D

 52 54  0  0  0  0  0  0  0  0999 V2000
   49.4092   10.8580   17.0143 C   0  0  0  0  0  0  0  0  0  0  0  0
   50.4637   11.6803   17.4083 C   0  0  0  0  0  0  0  0  0  0  0  0
   50.6995   10.0730   15.1612 C   0  0  0  0  0  0  0  0  0  0  0  0
   49.5703   10.0749   15.9239 N   0  0  0  0  0  0  0  0  0  0  0  0
   51.7118   10.9732   15.4659 N   0  0  0  0  0  0  0  0  0  0  0  0
   51.6113   11.7280   16.6150 C   0  0  0  0  0  0  0  0  0  0  0  0
   48.8013    6.0798   15.6039 C   0  0  0  0  0  0  0  0  0  0  0  0
   47.7163    5.8956   14.8273 N   0  0  0  0  0  0  0  0  0  0  0  0
   48.8200    5.2314   16.6042 O   0  0  0  0  0  0  0  0  0  0  0  0
   49.8288    7.1027   15.3707 C   0  0  0  0  0  0  0  0  0  0  0  0
   50.6975    9.0856   13.9711 C   0  0  0  0  0  0  0  0  0  0  0  0
   47.0377    4.8952   15.3677 N   0  0  0  0  0  0  0  0  0  0  0  0
   48.1494   10.7553   17.7775 C   0  0  0  0  0  0  0  0  0  0  0  0
   49.7263    8.0025   14.2499 N   0  0  0  0  0  0  0  0  0  0  0  0
   47.7387    4.5066   16.4494 C   0  0  0  0  0  0  0  0  0  0  0  0
   50.4012   12.4234   18.5841 O   0  0  0  0  0  0  0  0  0  0  0  0
   47.6138   11.8821   18.4882 N   0  0  0  0  0  0  0  0  0  0  0  0
   52.5595   12.4775   16.9809 O   0  0  0  0  0  0  0  0  0  0  0  0
   50.7927    7.1932   16.1774 O   0  0  0  0  0  0  0  0  0  0  0  0
   47.5176    9.6638   17.7669 O   0  0  0  0  0  0  0  0  0  0  0  0
   52.9201   11.1337   14.6349 C   0  0  0  0  0  0  0  0  0  0  0  0
   46.5505   11.7428   19.4801 C   0  0  0  0  0  0  0  0  0  0  0  0
   48.1500    9.8308   22.9966 C   0  0  0  0  0  0  0  0  0  0  0  0
   47.0850   11.0786   20.7192 C   0  0  0  0  0  0  0  0  0  0  0  0
   48.6636    9.2285   24.0975 F   0  0  0  0  0  0  0  0  0  0  0  0
   47.3158    9.1151   22.1331 C   0  0  0  0  0  0  0  0  0  0  0  0
   48.4571   11.1669   22.7232 C   0  0  0  0  0  0  0  0  0  0  0  0
   46.7865    9.7340   20.9962 C   0  0  0  0  0  0  0  0  0  0  0  0
   47.9300   11.7891   21.5872 C   0  0  0  0  0  0  0  0  0  0  0  0
   50.2186    9.8328   12.7077 C   0  0  0  0  0  0  0  0  0  0  0  0
   52.0625    8.4109   13.6907 C   0  0  0  0  0  0  0  0  0  0  0  0
   47.3194    3.4153   17.3738 C   0  0  0  0  0  0  0  0  0  0  0  0
   48.9054    7.8817   13.6130 H   0  0  0  0  0  0  0  0  0  0  0  0
   47.9580   12.8427   18.2653 H   0  0  0  0  0  0  0  0  0  0  0  0
   53.4271   12.1047   14.8165 H   0  0  0  0  0  0  0  0  0  0  0  0
   52.6709   11.1633   13.5616 H   0  0  0  0  0  0  0  0  0  0  0  0
   53.6500   10.3295   14.8607 H   0  0  0  0  0  0  0  0  0  0  0  0
   46.1619   12.7497   19.7476 H   0  0  0  0  0  0  0  0  0  0  0  0
   45.7011   11.1711   19.0465 H   0  0  0  0  0  0  0  0  0  0  0  0
   47.0811    8.0794   22.3420 H   0  0  0  0  0  0  0  0  0  0  0  0
   49.1063   11.7206   23.3891 H   0  0  0  0  0  0  0  0  0  0  0  0
   46.1481    9.1646   20.3323 H   0  0  0  0  0  0  0  0  0  0  0  0
   48.1822   12.8220   21.3808 H   0  0  0  0  0  0  0  0  0  0  0  0
   49.2034   10.2545   12.8733 H   0  0  0  0  0  0  0  0  0  0  0  0
   50.8881   10.6674   12.4278 H   0  0  0  0  0  0  0  0  0  0  0  0
   50.1655    9.1343   11.8446 H   0  0  0  0  0  0  0  0  0  0  0  0
   52.6035    8.1933   14.6353 H   0  0  0  0  0  0  0  0  0  0  0  0
   51.9092    7.4460   13.1601 H   0  0  0  0  0  0  0  0  0  0  0  0
   52.7112    9.0131   13.0244 H   0  0  0  0  0  0  0  0  0  0  0  0
   46.8531    3.8576   18.2791 H   0  0  0  0  0  0  0  0  0  0  0  0
   46.5866    2.7489   16.8716 H   0  0  0  0  0  0  0  0  0  0  0  0
   48.2066    2.8185   17.6733 H   0  0  0  0  0  0  0  0  0  0  0  0
  2  1  2  0
  3  4  2  0
  4  1  1  0
  5  6  1  0
  6  2  1  0
  7 10  1  0
  8  7  2  0
  9  7  1  0
 10 14  1  0
 11  3  1  0
 12  8  1  0
 13  1  1  0
 14 11  1  0
 15  9  1  0
 16  2  1  0
 17 13  1  0
 18  6  2  0
 19 10  2  0
 20 13  2  0
 21  5  1  0
 22 17  1  0
 23 26  2  0
 24 22  1  0
 25 23  1  0
 26 28  1  0
 27 29  2  0
 28 24  2  0
 29 24  1  0
 30 11  1  0
 31 11  1  0
 32 15  1  0
  5  3  1  0
 27 23  1  0
 12 15  2  0
 14 33  1  0
 17 34  1  0
 21 35  1  0
 21 36  1  0
 21 37  1  0
 22 38  1  0
 22 39  1  0
 26 40  1  0
 27 41  1  0
 28 42  1  0
 29 43  1  0
 30 44  1  0
 30 45  1  0
 30 46  1  0
 31 47  1  0
 31 48  1  0
 31 49  1  0
 32 50  1  0
 32 51  1  0
 32 52  1  0
M  CHG  1  16  -1
M  END
> <Uni-Dock RESULT> 
ENERGY=   -4.031  LOWER_BOUND=    4.523  UPPER_BOUND=    5.753
INTER + INTRA:          -4.031
INTER:                  -4.031
INTRA:                   0.000
UNBOUND:                 0.000

$$$$

     RDKit          3D

 52 54  0  0  0  0  0  0  0  0999 V2000
   52.3338    6.7677   16.2885 C   0  0  0  0  0  0  0  0  0  0  0  0
   51.3404    7.5206   15.6644 C   0  0  0  0  0  0  0  0  0  0  0  0
   50.7655    6.0509   17.9442 C   0  0  0  0  0  0  0  0  0  0  0  0
   52.0089    6.0495   17.3870 N   0  0  0  0  0  0  0  0  0  0  0  0
   49.7959    6.8888   17.4097 N   0  0  0  0  0  0  0  0  0  0  0  0
   50.0720    7.5727   16.2450 C   0  0  0  0  0  0  0  0  0  0  0  0
   52.8244    2.1167   18.1098 C   0  0  0  0  0  0  0  0  0  0  0  0
   53.7635    2.0255   19.0710 N   0  0  0  0  0  0  0  0  0  0  0  0
   53.0030    1.2065   17.1823 O   0  0  0  0  0  0  0  0  0  0  0  0
   51.7433    3.1104   18.0928 C   0  0  0  0  0  0  0  0  0  0  0  0
   50.5897    5.1418   19.1828 C   0  0  0  0  0  0  0  0  0  0  0  0
   54.5535    1.0209   18.7250 N   0  0  0  0  0  0  0  0  0  0  0  0
   53.7090    6.6672   15.7604 C   0  0  0  0  0  0  0  0  0  0  0  0
   51.6249    4.0829   19.1495 N   0  0  0  0  0  0  0  0  0  0  0  0
   54.0615    0.5367   17.5691 C   0  0  0  0  0  0  0  0  0  0  0  0
   51.5841    8.1896   14.4678 O   0  0  0  0  0  0  0  0  0  0  0  0
   54.3271    7.7672   15.0752 N   0  0  0  0  0  0  0  0  0  0  0  0
   49.1804    8.2590   15.6716 O   0  0  0  0  0  0  0  0  0  0  0  0
   50.9313    3.1110   17.1292 O   0  0  0  0  0  0  0  0  0  0  0  0
   54.3602    5.6047   15.9543 O   0  0  0  0  0  0  0  0  0  0  0  0
   48.4580    7.0533   18.0091 C   0  0  0  0  0  0  0  0  0  0  0  0
   55.5495    7.6079   14.2913 C   0  0  0  0  0  0  0  0  0  0  0  0
   54.6371    5.4143   10.6945 C   0  0  0  0  0  0  0  0  0  0  0  0
   55.2563    6.8456   13.0282 C   0  0  0  0  0  0  0  0  0  0  0  0
   54.3389    4.7234    9.5667 F   0  0  0  0  0  0  0  0  0  0  0  0
   55.3294    4.7888   11.7353 C   0  0  0  0  0  0  0  0  0  0  0  0
   54.2494    6.7518   10.8182 C   0  0  0  0  0  0  0  0  0  0  0  0
   55.6364    5.4992   12.9001 C   0  0  0  0  0  0  0  0  0  0  0  0
   54.5543    7.4653   11.9816 C   0  0  0  0  0  0  0  0  0  0  0  0
   50.8215    5.9861   20.4544 C   0  0  0  0  0  0  0  0  0  0  0  0
   49.2165    4.4323   19.2722 C   0  0  0  0  0  0  0  0  0  0  0  0
   54.6651   -0.5934   16.8078 C   0  0  0  0  0  0  0  0  0  0  0  0
   52.3264    4.0356   19.9240 H   0  0  0  0  0  0  0  0  0  0  0  0
   53.9224    8.7255   15.1689 H   0  0  0  0  0  0  0  0  0  0  0  0
   47.9627    7.9898   17.6768 H   0  0  0  0  0  0  0  0  0  0  0  0
   48.5170    7.1608   19.1046 H   0  0  0  0  0  0  0  0  0  0  0  0
   47.8013    6.2079   17.7185 H   0  0  0  0  0  0  0  0  0  0  0  0
   55.9496    8.6105   14.0248 H   0  0  0  0  0  0  0  0  0  0  0  0
   56.3270    7.0993   14.9020 H   0  0  0  0  0  0  0  0  0  0  0  0
   55.6261    3.7521   11.6418 H   0  0  0  0  0  0  0  0  0  0  0  0
   53.7096    7.2358   10.0146 H   0  0  0  0  0  0  0  0  0  0  0  0
   56.1663    4.9990   13.7011 H   0  0  0  0  0  0  0  0  0  0  0  0
   54.2410    8.4983   12.0698 H   0  0  0  0  0  0  0  0  0  0  0  0
   51.8376    6.4368   20.4357 H   0  0  0  0  0  0  0  0  0  0  0  0
   50.0902    6.8094   20.5575 H   0  0  0  0  0  0  0  0  0  0  0  0
   50.7445    5.3464   21.3603 H   0  0  0  0  0  0  0  0  0  0  0  0
   48.8534    4.1337   18.2667 H   0  0  0  0  0  0  0  0  0  0  0  0
   49.3032    3.5098   19.8868 H   0  0  0  0  0  0  0  0  0  0  0  0
   48.4455    5.0491   19.7748 H   0  0  0  0  0  0  0  0  0  0  0  0
   55.2681   -0.1911   15.9668 H   0  0  0  0  0  0  0  0  0  0  0  0
   55.3188   -1.1968   17.4726 H   0  0  0  0  0  0  0  0  0  0  0  0
   53.8604   -1.2429   16.4034 H   0  0  0  0  0  0  0  0  0  0  0  0
  2  1  2  0
  3  4  2  0
  4  1  1  0
  5  6  1  0
  6  2  1  0
  7 10  1  0
  8  7  2  0
  9  7  1  0
 10 14  1  0
 11  3  1  0
 12  8  1  0
 13  1  1  0
 14 11  1  0
 15  9  1  0
 16  2  1  0
 17 13  1  0
 18  6  2  0
 19 10  2  0
 20 13  2  0
 21  5  1  0
 22 17  1  0
 23 26  2  0
 24 22  1  0
 25 23  1  0
 26 28  1  0
 27 29  2  0
 28 24  2  0
 29 24  1  0
 30 11  1  0
 31 11  1  0
 32 15  1  0
  5  3  1  0
 27 23  1  0
 12 15  2  0
 14 33  1  0
 17 34  1  0
 21 35  1  0
 21 36  1  0
 21 37  1  0
 22 38  1  0
 22 39  1  0
 26 40  1  0
 27 41  1  0
 28 42  1  0
 29 43  1  0
 30 44  1  0
 30 45  1  0
 30 46  1  0
 31 47  1  0
 31 48  1  0
 31 49  1  0
 32 50  1  0
 32 51  1  0
 32 52  1  0
M  CHG  1  16  -1
M  END
> <Uni-Dock RESULT> 
ENERGY=   -3.946  LOWER_BOUND=    3.973  UPPER_BOUND=    7.613
INTER + INTRA:          -3.946
INTER:                  -3.946
INTRA:                   0.000
UNBOUND:                 0.000

$$$$

     RDKit          3D

 52 54  0  0  0  0  0  0  0  0999 V2000
   50.5498    8.5385   15.6999 C   0  0  0  0  0  0  0  0  0  0  0  0
   51.8445    8.1426   16.0326 C   0  0  0  0  0  0  0  0  0  0  0  0
   51.1377    8.5519   13.3828 C   0  0  0  0  0  0  0  0  0  0  0  0
   50.2393    8.7091   14.3951 N   0  0  0  0  0  0  0  0  0  0  0  0
   52.4609    8.2777   13.7018 N   0  0  0  0  0  0  0  0  0  0  0  0
   52.7923    8.0209   15.0151 C   0  0  0  0  0  0  0  0  0  0  0  0
   47.0274    7.1864   12.3903 C   0  0  0  0  0  0  0  0  0  0  0  0
   46.1700    8.1837   12.0991 N   0  0  0  0  0  0  0  0  0  0  0  0
   46.3874    6.0910   12.7237 O   0  0  0  0  0  0  0  0  0  0  0  0
   48.4904    7.3071   12.3500 C   0  0  0  0  0  0  0  0  0  0  0  0
   50.5787    8.7664   11.9570 C   0  0  0  0  0  0  0  0  0  0  0  0
   44.9533    7.6864   12.2587 N   0  0  0  0  0  0  0  0  0  0  0  0
   49.4850    8.7124   16.7078 C   0  0  0  0  0  0  0  0  0  0  0  0
   49.1132    8.5530   11.9808 N   0  0  0  0  0  0  0  0  0  0  0  0
   45.1176    6.4046   12.6361 C   0  0  0  0  0  0  0  0  0  0  0  0
   52.1937    7.8414   17.3464 O   0  0  0  0  0  0  0  0  0  0  0  0
   49.7816    9.1757   18.0340 N   0  0  0  0  0  0  0  0  0  0  0  0
   53.9622    7.6630   15.3283 O   0  0  0  0  0  0  0  0  0  0  0  0
   49.1930    6.3085   12.6616 O   0  0  0  0  0  0  0  0  0  0  0  0
   48.2894    8.4852   16.3767 O   0  0  0  0  0  0  0  0  0  0  0  0
   53.5323    8.2064   12.6903 C   0  0  0  0  0  0  0  0  0  0  0  0
   48.8176    9.0761   19.1271 C   0  0  0  0  0  0  0  0  0  0  0  0
   48.4164    4.9408   20.2753 C   0  0  0  0  0  0  0  0  0  0  0  0
   48.6611    7.6404   19.5474 C   0  0  0  0  0  0  0  0  0  0  0  0
   48.2978    3.6370   20.6281 F   0  0  0  0  0  0  0  0  0  0  0  0
   47.3964    5.5649   19.5516 C   0  0  0  0  0  0  0  0  0  0  0  0
   49.5604    5.6606   20.6327 C   0  0  0  0  0  0  0  0  0  0  0  0
   47.5176    6.9091   19.1853 C   0  0  0  0  0  0  0  0  0  0  0  0
   49.6853    7.0047   20.2679 C   0  0  0  0  0  0  0  0  0  0  0  0
   50.8338   10.2309   11.5397 C   0  0  0  0  0  0  0  0  0  0  0  0
   51.1598    7.8112   10.8861 C   0  0  0  0  0  0  0  0  0  0  0  0
   43.9983    5.4718   12.9498 C   0  0  0  0  0  0  0  0  0  0  0  0
   48.4812    9.3485   11.7319 H   0  0  0  0  0  0  0  0  0  0  0  0
   50.6974    9.6404   18.2246 H   0  0  0  0  0  0  0  0  0  0  0  0
   54.5404    8.3315   13.1386 H   0  0  0  0  0  0  0  0  0  0  0  0
   53.4608    9.0354   11.9673 H   0  0  0  0  0  0  0  0  0  0  0  0
   53.5141    7.2208   12.1816 H   0  0  0  0  0  0  0  0  0  0  0  0
   49.1809    9.6700   19.9941 H   0  0  0  0  0  0  0  0  0  0  0  0
   47.8454    9.5169   18.8156 H   0  0  0  0  0  0  0  0  0  0  0  0
   46.5124    5.0069   19.2710 H   0  0  0  0  0  0  0  0  0  0  0  0
   50.3525    5.1769   21.1895 H   0  0  0  0  0  0  0  0  0  0  0  0
   46.7227    7.3769   18.6179 H   0  0  0  0  0  0  0  0  0  0  0  0
   50.5801    7.5497   20.5425 H   0  0  0  0  0  0  0  0  0  0  0  0
   50.3519   10.9251   12.2619 H   0  0  0  0  0  0  0  0  0  0  0  0
   51.9106   10.4805   11.5003 H   0  0  0  0  0  0  0  0  0  0  0  0
   50.4020   10.4250   10.5339 H   0  0  0  0  0  0  0  0  0  0  0  0
   51.3321    6.7976   11.3043 H   0  0  0  0  0  0  0  0  0  0  0  0
   50.4471    7.7094   10.0388 H   0  0  0  0  0  0  0  0  0  0  0  0
   52.0991    8.1894   10.4364 H   0  0  0  0  0  0  0  0  0  0  0  0
   43.8716    5.4048   14.0508 H   0  0  0  0  0  0  0  0  0  0  0  0
   43.0548    5.8389   12.4932 H   0  0  0  0  0  0  0  0  0  0  0  0
   44.2285    4.4635   12.5457 H   0  0  0  0  0  0  0  0  0  0  0  0
  2  1  2  0
  3  4  2  0
  4  1  1  0
  5  6  1  0
  6  2  1  0
  7 10  1  0
  8  7  2  0
  9  7  1  0
 10 14  1  0
 11  3  1  0
 12  8  1  0
 13  1  1  0
 14 11  1  0
 15  9  1  0
 16  2  1  0
 17 13  1  0
 18  6  2  0
 19 10  2  0
 20 13  2  0
 21  5  1  0
 22 17  1  0
 23 26  2  0
 24 22  1  0
 25 23  1  0
 26 28  1  0
 27 29  2  0
 28 24  2  0
 29 24  1  0
 30 11  1  0
 31 11  1  0
 32 15  1  0
  5  3  1  0
 27 23  1  0
 12 15  2  0
 14 33  1  0
 17 34  1  0
 21 35  1  0
 21 36  1  0
 21 37  1  0
 22 38  1  0
 22 39  1  0
 26 40  1  0
 27 41  1  0
 28 42  1  0
 29 43  1  0
 30 44  1  0
 30 45  1  0
 30 46  1  0
 31 47  1  0
 31 48  1  0
 31 49  1  0
 32 50  1  0
 32 51  1  0
 32 52  1  0
M  CHG  1  16  -1
M  END
> <Uni-Dock RESULT> 
ENERGY=   -3.922  LOWER_BOUND=    2.537  UPPER_BOUND=    2.820
INTER + INTRA:          -3.922
INTER:                  -3.922
INTRA:                   0.000
UNBOUND:                 0.000

$$$$

     RDKit          3D

 52 54  0  0  0  0  0  0  0  0999 V2000
   50.6026   11.4090   16.1674 C   0  0  0  0  0  0  0  0  0  0  0  0
   51.6457   12.2192   16.6133 C   0  0  0  0  0  0  0  0  0  0  0  0
   52.1678    9.9929   15.0450 C   0  0  0  0  0  0  0  0  0  0  0  0
   50.9000   10.3217   15.4207 N   0  0  0  0  0  0  0  0  0  0  0  0
   53.2059   10.8536   15.3757 N   0  0  0  0  0  0  0  0  0  0  0  0
   52.9470   11.9267   16.2015 C   0  0  0  0  0  0  0  0  0  0  0  0
   49.5859    6.4979   15.9740 C   0  0  0  0  0  0  0  0  0  0  0  0
   48.7151    6.1800   14.9968 N   0  0  0  0  0  0  0  0  0  0  0  0
   49.2129    5.9939   17.1262 O   0  0  0  0  0  0  0  0  0  0  0  0
   50.7936    7.3109   15.7817 C   0  0  0  0  0  0  0  0  0  0  0  0
   52.3008    8.6954   14.2143 C   0  0  0  0  0  0  0  0  0  0  0  0
   47.7670    5.4518   15.5660 N   0  0  0  0  0  0  0  0  0  0  0  0
   49.1927   11.6497   16.5340 C   0  0  0  0  0  0  0  0  0  0  0  0
   51.1254    7.8343   14.4808 N   0  0  0  0  0  0  0  0  0  0  0  0
   48.1003    5.3509   16.8665 C   0  0  0  0  0  0  0  0  0  0  0  0
   51.4144   13.2860   17.4777 O   0  0  0  0  0  0  0  0  0  0  0  0
   48.6901   12.9800   16.7318 N   0  0  0  0  0  0  0  0  0  0  0  0
   53.8838   12.6683   16.6104 O   0  0  0  0  0  0  0  0  0  0  0  0
   51.5259    7.5591   16.7768 O   0  0  0  0  0  0  0  0  0  0  0  0
   48.4122   10.6641   16.6344 O   0  0  0  0  0  0  0  0  0  0  0  0
   54.5932   10.6516   14.9166 C   0  0  0  0  0  0  0  0  0  0  0  0
   47.4042   13.2386   17.3750 C   0  0  0  0  0  0  0  0  0  0  0  0
   47.7327   12.3526   21.5806 C   0  0  0  0  0  0  0  0  0  0  0  0
   47.4938   12.9379   18.8460 C   0  0  0  0  0  0  0  0  0  0  0  0
   47.8472   12.0706   22.9019 F   0  0  0  0  0  0  0  0  0  0  0  0
   47.0351   11.4827   20.7379 C   0  0  0  0  0  0  0  0  0  0  0  0
   48.3152   13.5121   21.0601 C   0  0  0  0  0  0  0  0  0  0  0  0
   46.9173   11.7709   19.3745 C   0  0  0  0  0  0  0  0  0  0  0  0
   48.1999   13.8034   19.6973 C   0  0  0  0  0  0  0  0  0  0  0  0
   52.2841    9.0628   12.7148 C   0  0  0  0  0  0  0  0  0  0  0  0
   53.5615    7.8540   14.5300 C   0  0  0  0  0  0  0  0  0  0  0  0
   47.2883    4.6306   17.8877 C   0  0  0  0  0  0  0  0  0  0  0  0
   50.4820    7.5966   13.6911 H   0  0  0  0  0  0  0  0  0  0  0  0
   49.2330   13.7951   16.3689 H   0  0  0  0  0  0  0  0  0  0  0  0
   55.1919   11.5852   14.9697 H   0  0  0  0  0  0  0  0  0  0  0  0
   54.6294   10.3759   13.8499 H   0  0  0  0  0  0  0  0  0  0  0  0
   55.0999    9.8946   15.5495 H   0  0  0  0  0  0  0  0  0  0  0  0
   47.1331   14.3085   17.2397 H   0  0  0  0  0  0  0  0  0  0  0  0
   46.6081   12.6369   16.8847 H   0  0  0  0  0  0  0  0  0  0  0  0
   46.5875   10.5828   21.1396 H   0  0  0  0  0  0  0  0  0  0  0  0
   48.8591   14.1840   21.7112 H   0  0  0  0  0  0  0  0  0  0  0  0
   46.3806   11.0836   18.7326 H   0  0  0  0  0  0  0  0  0  0  0  0
   48.6629   14.6999   19.3038 H   0  0  0  0  0  0  0  0  0  0  0  0
   51.3440    9.5996   12.4619 H   0  0  0  0  0  0  0  0  0  0  0  0
   53.1309    9.7134   12.4268 H   0  0  0  0  0  0  0  0  0  0  0  0
   52.3341    8.1429   12.0928 H   0  0  0  0  0  0  0  0  0  0  0  0
   53.8049    7.8874   15.6125 H   0  0  0  0  0  0  0  0  0  0  0  0
   53.3887    6.7904   14.2562 H   0  0  0  0  0  0  0  0  0  0  0  0
   54.4469    8.1687   13.9429 H   0  0  0  0  0  0  0  0  0  0  0  0
   46.6899    5.3643   18.4676 H   0  0  0  0  0  0  0  0  0  0  0  0
   46.6049    3.9082   17.3932 H   0  0  0  0  0  0  0  0  0  0  0  0
   47.9609    4.0793   18.5782 H   0  0  0  0  0  0  0  0  0  0  0  0
  2  1  2  0
  3  4  2  0
  4  1  1  0
  5  6  1  0
  6  2  1  0
  7 10  1  0
  8  7  2  0
  9  7  1  0
 10 14  1  0
 11  3  1  0
 12  8  1  0
 13  1  1  0
 14 11  1  0
 15  9  1  0
 16  2  1  0
 17 13  1  0
 18  6  2  0
 19 10  2  0
 20 13  2  0
 21  5  1  0
 22 17  1  0
 23 26  2  0
 24 22  1  0
 25 23  1  0
 26 28  1  0
 27 29  2  0
 28 24  2  0
 29 24  1  0
 30 11  1  0
 31 11  1  0
 32 15  1  0
  5  3  1  0
 27 23  1  0
 12 15  2  0
 14 33  1  0
 17 34  1  0
 21 35  1  0
 21 36  1  0
 21 37  1  0
 22 38  1  0
 22 39  1  0
 26 40  1  0
 27 41  1  0
 28 42  1  0
 29 43  1  0
 30 44  1  0
 30 45  1  0
 30 46  1  0
 31 47  1  0
 31 48  1  0
 31 49  1  0
 32 50  1  0
 32 51  1  0
 32 52  1  0
M  CHG  1  16  -1
M  END
> <Uni-Dock RESULT> 
ENERGY=   -3.786  LOWER_BOUND=    4.701  UPPER_BOUND=    6.667
INTER + INTRA:          -3.786
INTER:                  -3.786
INTRA:                   0.000
UNBOUND:                 0.000

$$$$

     RDKit          3D

 52 54  0  0  0  0  0  0  0  0999 V2000
   48.8329   11.1658   16.9836 C   0  0  0  0  0  0  0  0  0  0  0  0
   48.2030   12.4063   17.0732 C   0  0  0  0  0  0  0  0  0  0  0  0
   48.8171   10.9737   19.3665 C   0  0  0  0  0  0  0  0  0  0  0  0
   49.0982   10.4897   18.1241 N   0  0  0  0  0  0  0  0  0  0  0  0
   48.3024   12.2581   19.4813 N   0  0  0  0  0  0  0  0  0  0  0  0
   47.9483   12.9409   18.3372 C   0  0  0  0  0  0  0  0  0  0  0  0
   48.2353    6.5880   18.9524 C   0  0  0  0  0  0  0  0  0  0  0  0
   49.3777    5.8749   18.9797 N   0  0  0  0  0  0  0  0  0  0  0  0
   47.2605    5.9039   18.4026 O   0  0  0  0  0  0  0  0  0  0  0  0
   48.0959    7.9579   19.4627 C   0  0  0  0  0  0  0  0  0  0  0  0
   49.1737   10.0356   20.5430 C   0  0  0  0  0  0  0  0  0  0  0  0
   49.0992    4.7052   18.4254 N   0  0  0  0  0  0  0  0  0  0  0  0
   49.1600   10.5285   15.6926 C   0  0  0  0  0  0  0  0  0  0  0  0
   49.2230    8.6415   20.0450 N   0  0  0  0  0  0  0  0  0  0  0  0
   47.7970    4.7502   18.0868 C   0  0  0  0  0  0  0  0  0  0  0  0
   47.8020   13.0979   15.9332 O   0  0  0  0  0  0  0  0  0  0  0  0
   49.5199   11.3115   14.5442 N   0  0  0  0  0  0  0  0  0  0  0  0
   47.3786   14.0659   18.4062 O   0  0  0  0  0  0  0  0  0  0  0  0
   46.9789    8.5333   19.3665 O   0  0  0  0  0  0  0  0  0  0  0  0
   49.1592    9.2696   15.6168 O   0  0  0  0  0  0  0  0  0  0  0  0
   48.0751   12.9186   20.7807 C   0  0  0  0  0  0  0  0  0  0  0  0
   49.5573   10.7465   13.1976 C   0  0  0  0  0  0  0  0  0  0  0  0
   45.5235   10.0032   11.8723 C   0  0  0  0  0  0  0  0  0  0  0  0
   48.1592   10.4794   12.7114 C   0  0  0  0  0  0  0  0  0  0  0  0
   44.2506    9.7732   11.4657 F   0  0  0  0  0  0  0  0  0  0  0  0
   46.3419    8.9338   12.2471 C   0  0  0  0  0  0  0  0  0  0  0  0
   46.0170   11.3104   11.9197 C   0  0  0  0  0  0  0  0  0  0  0  0
   47.6545    9.1691   12.6684 C   0  0  0  0  0  0  0  0  0  0  0  0
   47.3289   11.5496   12.3407 C   0  0  0  0  0  0  0  0  0  0  0  0
   50.5825   10.4006   21.0587 C   0  0  0  0  0  0  0  0  0  0  0  0
   48.1660   10.0632   21.7180 C   0  0  0  0  0  0  0  0  0  0  0  0
   47.0678    3.6428   17.4063 C   0  0  0  0  0  0  0  0  0  0  0  0
   50.1256    8.1157   20.0991 H   0  0  0  0  0  0  0  0  0  0  0  0
   49.8083   12.3075   14.6696 H   0  0  0  0  0  0  0  0  0  0  0  0
   48.0049   14.0224   20.6826 H   0  0  0  0  0  0  0  0  0  0  0  0
   48.9268   12.7686   21.4642 H   0  0  0  0  0  0  0  0  0  0  0  0
   47.1255   12.5631   21.2303 H   0  0  0  0  0  0  0  0  0  0  0  0
   50.0488   11.4680   12.5088 H   0  0  0  0  0  0  0  0  0  0  0  0
   50.1734    9.8210   13.1925 H   0  0  0  0  0  0  0  0  0  0  0  0
   45.9590    7.9219   12.2146 H   0  0  0  0  0  0  0  0  0  0  0  0
   45.3827   12.1394   11.6336 H   0  0  0  0  0  0  0  0  0  0  0  0
   48.2740    8.3314   12.9631 H   0  0  0  0  0  0  0  0  0  0  0  0
   47.6973   12.5672   12.3819 H   0  0  0  0  0  0  0  0  0  0  0  0
   51.3273   10.3071   20.2387 H   0  0  0  0  0  0  0  0  0  0  0  0
   50.6383   11.4344   21.4477 H   0  0  0  0  0  0  0  0  0  0  0  0
   50.8828    9.7116   21.8777 H   0  0  0  0  0  0  0  0  0  0  0  0
   47.1247   10.1766   21.3503 H   0  0  0  0  0  0  0  0  0  0  0  0
   48.2198    9.1107   22.2891 H   0  0  0  0  0  0  0  0  0  0  0  0
   48.3860   10.8607   22.4548 H   0  0  0  0  0  0  0  0  0  0  0  0
   46.9885    3.8653   16.3214 H   0  0  0  0  0  0  0  0  0  0  0  0
   47.6111    2.6842   17.5459 H   0  0  0  0  0  0  0  0  0  0  0  0
   46.0483    3.5478   17.8360 H   0  0  0  0  0  0  0  0  0  0  0  0
  2  1  2  0
  3  4  2  0
  4  1  1  0
  5  6  1  0
  6  2  1  0
  7 10  1  0
  8  7  2  0
  9  7  1  0
 10 14  1  0
 11  3  1  0
 12  8  1  0
 13  1  1  0
 14 11  1  0
 15  9  1  0
 16  2  1  0
 17 13  1  0
 18  6  2  0
 19 10  2  0
 20 13  2  0
 21  5  1  0
 22 17  1  0
 23 26  2  0
 24 22  1  0
 25 23  1  0
 26 28  1  0
 27 29  2  0
 28 24  2  0
 29 24  1  0
 30 11  1  0
 31 11  1  0
 32 15  1  0
  5  3  1  0
 27 23  1  0
 12 15  2  0
 14 33  1  0
 17 34  1  0
 21 35  1  0
 21 36  1  0
 21 37  1  0
 22 38  1  0
 22 39  1  0
 26 40  1  0
 27 41  1  0
 28 42  1  0
 29 43  1  0
 30 44  1  0
 30 45  1  0
 30 46  1  0
 31 47  1  0
 31 48  1  0
 31 49  1  0
 32 50  1  0
 32 51  1  0
 32 52  1  0
M  CHG  1  16  -1
M  END
> <Uni-Dock RESULT> 
ENERGY=   -3.541  LOWER_BOUND=    4.685  UPPER_BOUND=    7.916
INTER + INTRA:          -3.541
INTER:                  -3.541
INTRA:                   0.000
UNBOUND:                 0.000

$$$$
