
     RDKit          3D

 52 54  0  0  0  0  0  0  0  0999 V2000
   44.5391   10.8278   11.5191 C   0  0  0  0  0  0  0  0  0  0  0  0
   43.3848   10.6799   10.7507 C   0  0  0  0  0  0  0  0  0  0  0  0
   44.0481   13.1467   11.8336 C   0  0  0  0  0  0  0  0  0  0  0  0
   44.8425   12.0526   12.0086 N   0  0  0  0  0  0  0  0  0  0  0  0
   42.8615   13.0049   11.1281 N   0  0  0  0  0  0  0  0  0  0  0  0
   42.5577   11.7875   10.5610 C   0  0  0  0  0  0  0  0  0  0  0  0
   42.4308   16.6756   14.9006 C   0  0  0  0  0  0  0  0  0  0  0  0
   41.3603   15.9072   15.1820 N   0  0  0  0  0  0  0  0  0  0  0  0
   42.3451   17.8451   15.4900 O   0  0  0  0  0  0  0  0  0  0  0  0
   43.5455   16.2644   14.0359 C   0  0  0  0  0  0  0  0  0  0  0  0
   44.5356   14.4835   12.4405 C   0  0  0  0  0  0  0  0  0  0  0  0
   40.5820   16.6286   15.9739 N   0  0  0  0  0  0  0  0  0  0  0  0
   45.4768    9.7137   11.7691 C   0  0  0  0  0  0  0  0  0  0  0  0
   43.5588   14.9527   13.4425 N   0  0  0  0  0  0  0  0  0  0  0  0
   41.2086   17.8082   16.1438 C   0  0  0  0  0  0  0  0  0  0  0  0
   43.0703    9.4676   10.1427 O   0  0  0  0  0  0  0  0  0  0  0  0
   45.0111    8.3630   11.8984 N   0  0  0  0  0  0  0  0  0  0  0  0
   41.5270   11.6519    9.8423 O   0  0  0  0  0  0  0  0  0  0  0  0
   44.4837   17.0778   13.8229 O   0  0  0  0  0  0  0  0  0  0  0  0
   46.7043    9.9682   11.9067 O   0  0  0  0  0  0  0  0  0  0  0  0
   41.9374   14.1279   10.8665 C   0  0  0  0  0  0  0  0  0  0  0  0
   45.9395    7.2337   11.8858 C   0  0  0  0  0  0  0  0  0  0  0  0
   43.7152    3.5411   11.8030 C   0  0  0  0  0  0  0  0  0  0  0  0
   45.1866    5.9306   11.8562 C   0  0  0  0  0  0  0  0  0  0  0  0
   43.0034    2.3876   11.7776 F   0  0  0  0  0  0  0  0  0  0  0  0
   44.3465    3.9485   12.9834 C   0  0  0  0  0  0  0  0  0  0  0  0
   43.8121    4.3280   10.6519 C   0  0  0  0  0  0  0  0  0  0  0  0
   45.0757    5.1419   13.0139 C   0  0  0  0  0  0  0  0  0  0  0  0
   44.5439    5.5195   10.6767 C   0  0  0  0  0  0  0  0  0  0  0  0
   45.8930   14.2862   13.1603 C   0  0  0  0  0  0  0  0  0  0  0  0
   44.7430   15.5210   11.3070 C   0  0  0  0  0  0  0  0  0  0  0  0
   40.6787   18.9226   16.9804 C   0  0  0  0  0  0  0  0  0  0  0  0
   42.8453   14.2684   13.7854 H   0  0  0  0  0  0  0  0  0  0  0  0
   43.9928    8.1917   12.0626 H   0  0  0  0  0  0  0  0  0  0  0  0
   41.9372   14.8838   11.6668 H   0  0  0  0  0  0  0  0  0  0  0  0
   42.1906   14.6046    9.8968 H   0  0  0  0  0  0  0  0  0  0  0  0
   40.8843   13.7770   10.8242 H   0  0  0  0  0  0  0  0  0  0  0  0
   46.5996    7.2890   12.7781 H   0  0  0  0  0  0  0  0  0  0  0  0
   46.5846    7.2967   10.9831 H   0  0  0  0  0  0  0  0  0  0  0  0
   44.2673    3.3416   13.8761 H   0  0  0  0  0  0  0  0  0  0  0  0
   43.3167    4.0187    9.7414 H   0  0  0  0  0  0  0  0  0  0  0  0
   45.5527    5.4480   13.9369 H   0  0  0  0  0  0  0  0  0  0  0  0
   44.6054    6.1250    9.7804 H   0  0  0  0  0  0  0  0  0  0  0  0
   46.2598   15.2366   13.6017 H   0  0  0  0  0  0  0  0  0  0  0  0
   45.7900   13.5510   13.9874 H   0  0  0  0  0  0  0  0  0  0  0  0
   46.6667   13.9229   12.4490 H   0  0  0  0  0  0  0  0  0  0  0  0
   45.1791   15.0347   10.4072 H   0  0  0  0  0  0  0  0  0  0  0  0
   43.7999   16.0234   11.0188 H   0  0  0  0  0  0  0  0  0  0  0  0
   45.4467   16.3246   11.6108 H   0  0  0  0  0  0  0  0  0  0  0  0
   40.6547   18.6093   18.0450 H   0  0  0  0  0  0  0  0  0  0  0  0
   41.3276   19.8171   16.8778 H   0  0  0  0  0  0  0  0  0  0  0  0
   39.6505   19.1800   16.6502 H   0  0  0  0  0  0  0  0  0  0  0  0
  2  1  2  0
  3  4  2  0
  4  1  1  0
  5  6  1  0
  6  2  1  0
  7 10  1  0
  8  7  2  0
  9  7  1  0
 10 14  1  0
 11  3  1  0
 12  8  1  0
 13  1  1  0
 14 11  1  0
 15  9  1  0
 16  2  1  0
 17 13  1  0
 18  6  2  0
 19 10  2  0
 20 13  2  0
 21  5  1  0
 22 17  1  0
 23 26  2  0
 24 22  1  0
 25 23  1  0
 26 28  1  0
 27 29  2  0
 28 24  2  0
 29 24  1  0
 30 11  1  0
 31 11  1  0
 32 15  1  0
  5  3  1  0
 27 23  1  0
 12 15  2  0
 14 33  1  0
 17 34  1  0
 21 35  1  0
 21 36  1  0
 21 37  1  0
 22 38  1  0
 22 39  1  0
 26 40  1  0
 27 41  1  0
 28 42  1  0
 29 43  1  0
 30 44  1  0
 30 45  1  0
 30 46  1  0
 31 47  1  0
 31 48  1  0
 31 49  1  0
 32 50  1  0
 32 51  1  0
 32 52  1  0
M  CHG  1  16  -1
M  END
> <Uni-Dock RESULT> 
ENERGY=   -4.904  LOWER_BOUND=    0.000  UPPER_BOUND=    0.000
INTER + INTRA:          -4.904
INTER:                  -4.904
INTRA:                   0.000
UNBOUND:                 0.000

$$$$

     RDKit          3D

 52 54  0  0  0  0  0  0  0  0999 V2000
   47.3987    7.6333   13.5673 C   0  0  0  0  0  0  0  0  0  0  0  0
   47.7142    6.5103   14.3315 C   0  0  0  0  0  0  0  0  0  0  0  0
   48.9750    8.9357   14.8068 C   0  0  0  0  0  0  0  0  0  0  0  0
   48.0163    8.8048   13.8464 N   0  0  0  0  0  0  0  0  0  0  0  0
   49.3506    7.8143   15.5331 N   0  0  0  0  0  0  0  0  0  0  0  0
   48.6939    6.6232   15.3186 C   0  0  0  0  0  0  0  0  0  0  0  0
   53.4067   11.1334   14.8827 C   0  0  0  0  0  0  0  0  0  0  0  0
   53.9579    9.9834   14.4477 N   0  0  0  0  0  0  0  0  0  0  0  0
   54.3258   12.0348   15.1382 O   0  0  0  0  0  0  0  0  0  0  0  0
   51.9640   11.3490   15.0605 C   0  0  0  0  0  0  0  0  0  0  0  0
   49.5798   10.3433   15.0204 C   0  0  0  0  0  0  0  0  0  0  0  0
   55.2674   10.1796   14.4352 N   0  0  0  0  0  0  0  0  0  0  0  0
   46.3720    7.6101   12.5050 C   0  0  0  0  0  0  0  0  0  0  0  0
   51.0283   10.3028   14.7399 N   0  0  0  0  0  0  0  0  0  0  0  0
   55.4626   11.4413   14.8630 C   0  0  0  0  0  0  0  0  0  0  0  0
   47.0449    5.3025   14.1541 O   0  0  0  0  0  0  0  0  0  0  0  0
   46.1509    6.4377   11.7084 N   0  0  0  0  0  0  0  0  0  0  0  0
   48.9561    5.6079   16.0241 O   0  0  0  0  0  0  0  0  0  0  0  0
   51.5634   12.4602   15.4985 O   0  0  0  0  0  0  0  0  0  0  0  0
   45.7068    8.6567   12.2762 O   0  0  0  0  0  0  0  0  0  0  0  0
   50.3654    7.8490   16.6066 C   0  0  0  0  0  0  0  0  0  0  0  0
   44.9792    6.3162   10.8424 C   0  0  0  0  0  0  0  0  0  0  0  0
   44.7989    2.3281    9.2140 C   0  0  0  0  0  0  0  0  0  0  0  0
   44.8930    4.9305   10.2610 C   0  0  0  0  0  0  0  0  0  0  0  0
   44.7547    1.0709    8.7087 F   0  0  0  0  0  0  0  0  0  0  0  0
   45.1942    3.3961    8.4009 C   0  0  0  0  0  0  0  0  0  0  0  0
   44.4573    2.5568   10.5499 C   0  0  0  0  0  0  0  0  0  0  0  0
   45.2472    4.6932    8.9220 C   0  0  0  0  0  0  0  0  0  0  0  0
   44.5046    3.8527   11.0737 C   0  0  0  0  0  0  0  0  0  0  0  0
   48.9379   11.3603   14.0441 C   0  0  0  0  0  0  0  0  0  0  0  0
   49.2853   10.8189   16.4665 C   0  0  0  0  0  0  0  0  0  0  0  0
   56.8028   12.0811   14.9934 C   0  0  0  0  0  0  0  0  0  0  0  0
   51.4025    9.4706   14.2278 H   0  0  0  0  0  0  0  0  0  0  0  0
   46.8742    5.6827   11.7063 H   0  0  0  0  0  0  0  0  0  0  0  0
   51.1518    8.6000   16.4348 H   0  0  0  0  0  0  0  0  0  0  0  0
   49.8726    8.0349   17.5835 H   0  0  0  0  0  0  0  0  0  0  0  0
   50.9173    6.8868   16.6659 H   0  0  0  0  0  0  0  0  0  0  0  0
   45.0347    7.0803   10.0375 H   0  0  0  0  0  0  0  0  0  0  0  0
   44.0605    6.5151   11.4353 H   0  0  0  0  0  0  0  0  0  0  0  0
   45.4634    3.2182    7.3678 H   0  0  0  0  0  0  0  0  0  0  0  0
   44.1605    1.7305   11.1819 H   0  0  0  0  0  0  0  0  0  0  0  0
   45.5622    5.5087    8.2826 H   0  0  0  0  0  0  0  0  0  0  0  0
   44.2450    4.0164   12.1127 H   0  0  0  0  0  0  0  0  0  0  0  0
   49.3592   12.3780   14.1838 H   0  0  0  0  0  0  0  0  0  0  0  0
   49.1290   11.0607   12.9911 H   0  0  0  0  0  0  0  0  0  0  0  0
   47.8397   11.4236   14.2075 H   0  0  0  0  0  0  0  0  0  0  0  0
   48.2629   10.5121   16.7781 H   0  0  0  0  0  0  0  0  0  0  0  0
   50.0150   10.4207   17.1972 H   0  0  0  0  0  0  0  0  0  0  0  0
   49.3285   11.9253   16.5508 H   0  0  0  0  0  0  0  0  0  0  0  0
   57.2625   12.1891   13.9889 H   0  0  0  0  0  0  0  0  0  0  0  0
   56.7021   13.0838   15.4584 H   0  0  0  0  0  0  0  0  0  0  0  0
   57.4569   11.4494   15.6303 H   0  0  0  0  0  0  0  0  0  0  0  0
  2  1  2  0
  3  4  2  0
  4  1  1  0
  5  6  1  0
  6  2  1  0
  7 10  1  0
  8  7  2  0
  9  7  1  0
 10 14  1  0
 11  3  1  0
 12  8  1  0
 13  1  1  0
 14 11  1  0
 15  9  1  0
 16  2  1  0
 17 13  1  0
 18  6  2  0
 19 10  2  0
 20 13  2  0
 21  5  1  0
 22 17  1  0
 23 26  2  0
 24 22  1  0
 25 23  1  0
 26 28  1  0
 27 29  2  0
 28 24  2  0
 29 24  1  0
 30 11  1  0
 31 11  1  0
 32 15  1  0
  5  3  1  0
 27 23  1  0
 12 15  2  0
 14 33  1  0
 17 34  1  0
 21 35  1  0
 21 36  1  0
 21 37  1  0
 22 38  1  0
 22 39  1  0
 26 40  1  0
 27 41  1  0
 28 42  1  0
 29 43  1  0
 30 44  1  0
 30 45  1  0
 30 46  1  0
 31 47  1  0
 31 48  1  0
 31 49  1  0
 32 50  1  0
 32 51  1  0
 32 52  1  0
M  CHG  1  16  -1
M  END
> <Uni-Dock RESULT> 
ENERGY=   -4.650  LOWER_BOUND=    6.234  UPPER_BOUND=    8.766
INTER + INTRA:          -4.650
INTER:                  -4.650
INTRA:                   0.000
UNBOUND:                 0.000

$$$$

     RDKit          3D

 52 54  0  0  0  0  0  0  0  0999 V2000
   46.4600    9.0104   12.7502 C   0  0  0  0  0  0  0  0  0  0  0  0
   45.4692    8.1306   12.3152 C   0  0  0  0  0  0  0  0  0  0  0  0
   45.3842   10.8103   11.6010 C   0  0  0  0  0  0  0  0  0  0  0  0
   46.3980   10.3048   12.3594 N   0  0  0  0  0  0  0  0  0  0  0  0
   44.3538    9.9650   11.2139 N   0  0  0  0  0  0  0  0  0  0  0  0
   44.4221    8.6288   11.5391 C   0  0  0  0  0  0  0  0  0  0  0  0
   42.6231   14.9013   11.9418 C   0  0  0  0  0  0  0  0  0  0  0  0
   41.7492   14.2190   12.7075 N   0  0  0  0  0  0  0  0  0  0  0  0
   42.1890   16.1138   11.6895 O   0  0  0  0  0  0  0  0  0  0  0  0
   43.8931   14.3563   11.4421 C   0  0  0  0  0  0  0  0  0  0  0  0
   45.4592   12.3080   11.2212 C   0  0  0  0  0  0  0  0  0  0  0  0
   40.7354   15.0393   12.9365 N   0  0  0  0  0  0  0  0  0  0  0  0
   47.6085    8.5730   13.5702 C   0  0  0  0  0  0  0  0  0  0  0  0
   44.2927   13.0160   11.7837 N   0  0  0  0  0  0  0  0  0  0  0  0
   41.0312   16.1890   12.3012 C   0  0  0  0  0  0  0  0  0  0  0  0
   45.5303    6.7705   12.6060 O   0  0  0  0  0  0  0  0  0  0  0  0
   47.4766    7.5195   14.5349 N   0  0  0  0  0  0  0  0  0  0  0  0
   43.5419    7.8207   11.1274 O   0  0  0  0  0  0  0  0  0  0  0  0
   44.6210   15.0795   10.7112 O   0  0  0  0  0  0  0  0  0  0  0  0
   48.7132    9.1669   13.4394 O   0  0  0  0  0  0  0  0  0  0  0  0
   43.2175   10.4056   10.3784 C   0  0  0  0  0  0  0  0  0  0  0  0
   48.6489    6.9081   15.1589 C   0  0  0  0  0  0  0  0  0  0  0  0
   47.4201    3.5144   17.5174 C   0  0  0  0  0  0  0  0  0  0  0  0
   48.2462    5.7186   15.9888 C   0  0  0  0  0  0  0  0  0  0  0  0
   47.0200    2.4502   18.2557 F   0  0  0  0  0  0  0  0  0  0  0  0
   47.7980    4.7036   18.1507 C   0  0  0  0  0  0  0  0  0  0  0  0
   47.4478    3.4268   16.1227 C   0  0  0  0  0  0  0  0  0  0  0  0
   48.2048    5.8053   17.3906 C   0  0  0  0  0  0  0  0  0  0  0  0
   47.8581    4.5243   15.3592 C   0  0  0  0  0  0  0  0  0  0  0  0
   46.7355   12.9526   11.8170 C   0  0  0  0  0  0  0  0  0  0  0  0
   45.5300   12.4474    9.6785 C   0  0  0  0  0  0  0  0  0  0  0  0
   40.1553   17.3955   12.3065 C   0  0  0  0  0  0  0  0  0  0  0  0
   43.7353   12.5271   12.5220 H   0  0  0  0  0  0  0  0  0  0  0  0
   46.5195    7.2263   14.8373 H   0  0  0  0  0  0  0  0  0  0  0  0
   42.9437   11.4595   10.5407 H   0  0  0  0  0  0  0  0  0  0  0  0
   43.4517   10.2370    9.3067 H   0  0  0  0  0  0  0  0  0  0  0  0
   42.2937    9.8430   10.6316 H   0  0  0  0  0  0  0  0  0  0  0  0
   49.1726    7.6655   15.7810 H   0  0  0  0  0  0  0  0  0  0  0  0
   49.3544    6.5727   14.3685 H   0  0  0  0  0  0  0  0  0  0  0  0
   47.7719    4.7730   19.2305 H   0  0  0  0  0  0  0  0  0  0  0  0
   47.1469    2.5110   15.6318 H   0  0  0  0  0  0  0  0  0  0  0  0
   48.4873    6.7215   17.8946 H   0  0  0  0  0  0  0  0  0  0  0  0
   47.8679    4.4470   14.2787 H   0  0  0  0  0  0  0  0  0  0  0  0
   46.8073   14.0287   11.5534 H   0  0  0  0  0  0  0  0  0  0  0  0
   46.7251   12.8798   12.9260 H   0  0  0  0  0  0  0  0  0  0  0  0
   47.6483   12.4482   11.4310 H   0  0  0  0  0  0  0  0  0  0  0  0
   46.1685   11.6482    9.2429 H   0  0  0  0  0  0  0  0  0  0  0  0
   44.5303   12.4022    9.2057 H   0  0  0  0  0  0  0  0  0  0  0  0
   45.9773   13.4174    9.3748 H   0  0  0  0  0  0  0  0  0  0  0  0
   40.0914   17.8039   13.3366 H   0  0  0  0  0  0  0  0  0  0  0  0
   40.5726   18.1715   11.6316 H   0  0  0  0  0  0  0  0  0  0  0  0
   39.1384   17.1192   11.9574 H   0  0  0  0  0  0  0  0  0  0  0  0
  2  1  2  0
  3  4  2  0
  4  1  1  0
  5  6  1  0
  6  2  1  0
  7 10  1  0
  8  7  2  0
  9  7  1  0
 10 14  1  0
 11  3  1  0
 12  8  1  0
 13  1  1  0
 14 11  1  0
 15  9  1  0
 16  2  1  0
 17 13  1  0
 18  6  2  0
 19 10  2  0
 20 13  2  0
 21  5  1  0
 22 17  1  0
 23 26  2  0
 24 22  1  0
 25 23  1  0
 26 28  1  0
 27 29  2  0
 28 24  2  0
 29 24  1  0
 30 11  1  0
 31 11  1  0
 32 15  1  0
  5  3  1  0
 27 23  1  0
 12 15  2  0
 14 33  1  0
 17 34  1  0
 21 35  1  0
 21 36  1  0
 21 37  1  0
 22 38  1  0
 22 39  1  0
 26 40  1  0
 27 41  1  0
 28 42  1  0
 29 43  1  0
 30 44  1  0
 30 45  1  0
 30 46  1  0
 31 47  1  0
 31 48  1  0
 31 49  1  0
 32 50  1  0
 32 51  1  0
 32 52  1  0
M  CHG  1  16  -1
M  END
> <Uni-Dock RESULT> 
ENERGY=   -4.249  LOWER_BOUND=    3.322  UPPER_BOUND=    4.290
INTER + INTRA:          -4.249
INTER:                  -4.249
INTRA:                   0.000
UNBOUND:                 0.000

$$$$

     RDKit          3D

 52 54  0  0  0  0  0  0  0  0999 V2000
   47.0150    9.8623   12.7911 C   0  0  0  0  0  0  0  0  0  0  0  0
   45.7743    9.3056   12.4818 C   0  0  0  0  0  0  0  0  0  0  0  0
   46.2761   11.9888   11.9852 C   0  0  0  0  0  0  0  0  0  0  0  0
   47.2303   11.1686   12.5101 N   0  0  0  0  0  0  0  0  0  0  0  0
   45.0142   11.4695   11.7324 N   0  0  0  0  0  0  0  0  0  0  0  0
   44.7837   10.1288   11.9450 C   0  0  0  0  0  0  0  0  0  0  0  0
   44.7598   16.5624   13.1069 C   0  0  0  0  0  0  0  0  0  0  0  0
   43.8704   16.0306   13.9682 N   0  0  0  0  0  0  0  0  0  0  0  0
   44.6210   17.8648   13.0234 O   0  0  0  0  0  0  0  0  0  0  0  0
   45.7500   15.7853   12.3487 C   0  0  0  0  0  0  0  0  0  0  0  0
   46.6764   13.4564   11.7044 C   0  0  0  0  0  0  0  0  0  0  0  0
   43.1531   17.0414   14.4340 N   0  0  0  0  0  0  0  0  0  0  0  0
   48.1248    9.0679   13.3570 C   0  0  0  0  0  0  0  0  0  0  0  0
   45.8369   14.3581   12.5171 N   0  0  0  0  0  0  0  0  0  0  0  0
   43.6333   18.1493   13.8382 C   0  0  0  0  0  0  0  0  0  0  0  0
   45.5255    7.9475   12.6602 O   0  0  0  0  0  0  0  0  0  0  0  0
   47.8774    7.9753   14.2530 N   0  0  0  0  0  0  0  0  0  0  0  0
   43.6707    9.6116   11.6435 O   0  0  0  0  0  0  0  0  0  0  0  0
   46.5164   16.3881   11.5508 O   0  0  0  0  0  0  0  0  0  0  0  0
   49.3110    9.3860   13.0706 O   0  0  0  0  0  0  0  0  0  0  0  0
   43.9143   12.2657   11.1493 C   0  0  0  0  0  0  0  0  0  0  0  0
   48.9340    7.0300   14.6100 C   0  0  0  0  0  0  0  0  0  0  0  0
   47.2535    3.7913   16.9071 C   0  0  0  0  0  0  0  0  0  0  0  0
   48.3722    5.8876   15.4132 C   0  0  0  0  0  0  0  0  0  0  0  0
   46.7122    2.7795   17.6289 F   0  0  0  0  0  0  0  0  0  0  0  0
   48.0216    4.7725   17.5436 C   0  0  0  0  0  0  0  0  0  0  0  0
   47.0380    3.8592   15.5278 C   0  0  0  0  0  0  0  0  0  0  0  0
   48.5755    5.8214   16.8020 C   0  0  0  0  0  0  0  0  0  0  0  0
   47.5936    4.9035   14.7818 C   0  0  0  0  0  0  0  0  0  0  0  0
   48.1535   13.6987   12.1033 C   0  0  0  0  0  0  0  0  0  0  0  0
   46.5376   13.7493   10.1881 C   0  0  0  0  0  0  0  0  0  0  0  0
   43.1125   19.5239   14.0868 C   0  0  0  0  0  0  0  0  0  0  0  0
   45.2949   13.9387   13.3078 H   0  0  0  0  0  0  0  0  0  0  0  0
   46.9370    7.8914   14.7022 H   0  0  0  0  0  0  0  0  0  0  0  0
   43.9524   13.3289   11.4323 H   0  0  0  0  0  0  0  0  0  0  0  0
   43.9254   12.1685   10.0439 H   0  0  0  0  0  0  0  0  0  0  0  0
   42.9280   11.9198   11.5253 H   0  0  0  0  0  0  0  0  0  0  0  0
   49.7273    7.5611   15.1788 H   0  0  0  0  0  0  0  0  0  0  0  0
   49.3951    6.6253   13.6834 H   0  0  0  0  0  0  0  0  0  0  0  0
   48.1844    4.7227   18.6125 H   0  0  0  0  0  0  0  0  0  0  0  0
   46.4366    3.1062   15.0362 H   0  0  0  0  0  0  0  0  0  0  0  0
   49.1615    6.5777   17.3098 H   0  0  0  0  0  0  0  0  0  0  0  0
   47.4131    4.9498   13.7146 H   0  0  0  0  0  0  0  0  0  0  0  0
   48.4595   14.7478   11.9074 H   0  0  0  0  0  0  0  0  0  0  0  0
   48.2989   13.5047   13.1879 H   0  0  0  0  0  0  0  0  0  0  0  0
   48.8318   13.0347   11.5240 H   0  0  0  0  0  0  0  0  0  0  0  0
   46.8703   12.8737    9.5889 H   0  0  0  0  0  0  0  0  0  0  0  0
   45.4989   14.0030    9.9020 H   0  0  0  0  0  0  0  0  0  0  0  0
   47.1677   14.6094    9.8775 H   0  0  0  0  0  0  0  0  0  0  0  0
   43.3194   19.8154   15.1376 H   0  0  0  0  0  0  0  0  0  0  0  0
   43.6053   20.2467   13.4038 H   0  0  0  0  0  0  0  0  0  0  0  0
   42.0169   19.5451   13.9089 H   0  0  0  0  0  0  0  0  0  0  0  0
  2  1  2  0
  3  4  2  0
  4  1  1  0
  5  6  1  0
  6  2  1  0
  7 10  1  0
  8  7  2  0
  9  7  1  0
 10 14  1  0
 11  3  1  0
 12  8  1  0
 13  1  1  0
 14 11  1  0
 15  9  1  0
 16  2  1  0
 17 13  1  0
 18  6  2  0
 19 10  2  0
 20 13  2  0
 21  5  1  0
 22 17  1  0
 23 26  2  0
 24 22  1  0
 25 23  1  0
 26 28  1  0
 27 29  2  0
 28 24  2  0
 29 24  1  0
 30 11  1  0
 31 11  1  0
 32 15  1  0
  5  3  1  0
 27 23  1  0
 12 15  2  0
 14 33  1  0
 17 34  1  0
 21 35  1  0
 21 36  1  0
 21 37  1  0
 22 38  1  0
 22 39  1  0
 26 40  1  0
 27 41  1  0
 28 42  1  0
 29 43  1  0
 30 44  1  0
 30 45  1  0
 30 46  1  0
 31 47  1  0
 31 48  1  0
 31 49  1  0
 32 50  1  0
 32 51  1  0
 32 52  1  0
M  CHG  1  16  -1
M  END
> <Uni-Dock RESULT> 
ENERGY=   -4.046  LOWER_BOUND=    3.058  UPPER_BOUND=    3.841
INTER + INTRA:          -4.046
INTER:                  -4.046
INTRA:                   0.000
UNBOUND:                 0.000

$$$$

     RDKit          3D

 52 54  0  0  0  0  0  0  0  0999 V2000
   47.3247    9.8360   12.9887 C   0  0  0  0  0  0  0  0  0  0  0  0
   46.1015    9.2949   12.5939 C   0  0  0  0  0  0  0  0  0  0  0  0
   46.6605   11.9773   12.1573 C   0  0  0  0  0  0  0  0  0  0  0  0
   47.5704   11.1425   12.7352 N   0  0  0  0  0  0  0  0  0  0  0  0
   45.4128   11.4733   11.8177 N   0  0  0  0  0  0  0  0  0  0  0  0
   45.1561   10.1331   12.0018 C   0  0  0  0  0  0  0  0  0  0  0  0
   45.1185   16.5557   13.2227 C   0  0  0  0  0  0  0  0  0  0  0  0
   44.1697   16.0252   14.0190 N   0  0  0  0  0  0  0  0  0  0  0  0
   44.9979   17.8602   13.1430 O   0  0  0  0  0  0  0  0  0  0  0  0
   46.1485   15.7755   12.5229 C   0  0  0  0  0  0  0  0  0  0  0  0
   47.0924   13.4432   11.9175 C   0  0  0  0  0  0  0  0  0  0  0  0
   43.4333   17.0390   14.4469 N   0  0  0  0  0  0  0  0  0  0  0  0
   48.3876    9.0251   13.6178 C   0  0  0  0  0  0  0  0  0  0  0  0
   46.2104   14.3460   12.6827 N   0  0  0  0  0  0  0  0  0  0  0  0
   43.9621   18.1473   13.8946 C   0  0  0  0  0  0  0  0  0  0  0  0
   45.8285    7.9379   12.7424 O   0  0  0  0  0  0  0  0  0  0  0  0
   48.0717    7.9269   14.4851 N   0  0  0  0  0  0  0  0  0  0  0  0
   44.0602    9.6301   11.6234 O   0  0  0  0  0  0  0  0  0  0  0  0
   46.9710   16.3777   11.7826 O   0  0  0  0  0  0  0  0  0  0  0  0
   49.5929    9.3336   13.4124 O   0  0  0  0  0  0  0  0  0  0  0  0
   44.3610   12.2860   11.1722 C   0  0  0  0  0  0  0  0  0  0  0  0
   49.0937    6.9676   14.9009 C   0  0  0  0  0  0  0  0  0  0  0  0
   47.2358    3.7255   17.0518 C   0  0  0  0  0  0  0  0  0  0  0  0
   48.4696    5.8238   15.6546 C   0  0  0  0  0  0  0  0  0  0  0  0
   46.6388    2.7127   17.7268 F   0  0  0  0  0  0  0  0  0  0  0  0
   47.9701    4.6929   17.7466 C   0  0  0  0  0  0  0  0  0  0  0  0
   47.1113    3.8082   15.6621 C   0  0  0  0  0  0  0  0  0  0  0  0
   48.5813    5.7428   17.0529 C   0  0  0  0  0  0  0  0  0  0  0  0
   47.7244    4.8535   14.9642 C   0  0  0  0  0  0  0  0  0  0  0  0
   48.5426   13.6667   12.4142 C   0  0  0  0  0  0  0  0  0  0  0  0
   47.0556   13.7514   10.3983 C   0  0  0  0  0  0  0  0  0  0  0  0
   43.4394   19.5249   14.1222 C   0  0  0  0  0  0  0  0  0  0  0  0
   45.6140   13.9249   13.4322 H   0  0  0  0  0  0  0  0  0  0  0  0
   47.1032    7.8486   14.8713 H   0  0  0  0  0  0  0  0  0  0  0  0
   44.3908   13.3462   11.4674 H   0  0  0  0  0  0  0  0  0  0  0  0
   44.4433   12.1988   10.0689 H   0  0  0  0  0  0  0  0  0  0  0  0
   43.3490   11.9468   11.4797 H   0  0  0  0  0  0  0  0  0  0  0  0
   49.8532    7.4853   15.5253 H   0  0  0  0  0  0  0  0  0  0  0  0
   49.6103    6.5667   14.0023 H   0  0  0  0  0  0  0  0  0  0  0  0
   48.0624    4.6316   18.8233 H   0  0  0  0  0  0  0  0  0  0  0  0
   46.5360    3.0660   15.1250 H   0  0  0  0  0  0  0  0  0  0  0  0
   49.1403    6.4883   17.6052 H   0  0  0  0  0  0  0  0  0  0  0  0
   47.6143    4.9115   13.8880 H   0  0  0  0  0  0  0  0  0  0  0  0
   48.8708   14.7143   12.2489 H   0  0  0  0  0  0  0  0  0  0  0  0
   48.6151   13.4612   13.5040 H   0  0  0  0  0  0  0  0  0  0  0  0
   49.2508   13.0011   11.8737 H   0  0  0  0  0  0  0  0  0  0  0  0
   47.4182   12.8779    9.8136 H   0  0  0  0  0  0  0  0  0  0  0  0
   46.0403   14.0183   10.0477 H   0  0  0  0  0  0  0  0  0  0  0  0
   47.7129   14.6077   10.1379 H   0  0  0  0  0  0  0  0  0  0  0  0
   43.5802   19.8047   15.1871 H   0  0  0  0  0  0  0  0  0  0  0  0
   43.9827   20.2488   13.4799 H   0  0  0  0  0  0  0  0  0  0  0  0
   42.3580   19.5589   13.8736 H   0  0  0  0  0  0  0  0  0  0  0  0
  2  1  2  0
  3  4  2  0
  4  1  1  0
  5  6  1  0
  6  2  1  0
  7 10  1  0
  8  7  2  0
  9  7  1  0
 10 14  1  0
 11  3  1  0
 12  8  1  0
 13  1  1  0
 14 11  1  0
 15  9  1  0
 16  2  1  0
 17 13  1  0
 18  6  2  0
 19 10  2  0
 20 13  2  0
 21  5  1  0
 22 17  1  0
 23 26  2  0
 24 22  1  0
 25 23  1  0
 26 28  1  0
 27 29  2  0
 28 24  2  0
 29 24  1  0
 30 11  1  0
 31 11  1  0
 32 15  1  0
  5  3  1  0
 27 23  1  0
 12 15  2  0
 14 33  1  0
 17 34  1  0
 21 35  1  0
 21 36  1  0
 21 37  1  0
 22 38  1  0
 22 39  1  0
 26 40  1  0
 27 41  1  0
 28 42  1  0
 29 43  1  0
 30 44  1  0
 30 45  1  0
 30 46  1  0
 31 47  1  0
 31 48  1  0
 31 49  1  0
 32 50  1  0
 32 51  1  0
 32 52  1  0
M  CHG  1  16  -1
M  END
> <Uni-Dock RESULT> 
ENERGY=   -3.985  LOWER_BOUND=    3.224  UPPER_BOUND=    4.067
INTER + INTRA:          -3.985
INTER:                  -3.985
INTRA:                   0.000
UNBOUND:                 0.000

$$$$

     RDKit          3D

 52 54  0  0  0  0  0  0  0  0999 V2000
   41.8167   15.3035   13.9203 C   0  0  0  0  0  0  0  0  0  0  0  0
   43.0681   15.8849   14.1224 C   0  0  0  0  0  0  0  0  0  0  0  0
   42.7726   13.7540   12.3702 C   0  0  0  0  0  0  0  0  0  0  0  0
   41.7082   14.2828   13.0381 N   0  0  0  0  0  0  0  0  0  0  0  0
   44.0366   14.2754   12.6080 N   0  0  0  0  0  0  0  0  0  0  0  0
   44.1705   15.3573   13.4491 C   0  0  0  0  0  0  0  0  0  0  0  0
   44.2584    9.1141   11.5108 C   0  0  0  0  0  0  0  0  0  0  0  0
   44.9609    9.1515   12.6600 N   0  0  0  0  0  0  0  0  0  0  0  0
   44.4637    7.9907   10.8641 O   0  0  0  0  0  0  0  0  0  0  0  0
   43.3843   10.1952   11.0349 C   0  0  0  0  0  0  0  0  0  0  0  0
   42.4887   12.5983   11.3820 C   0  0  0  0  0  0  0  0  0  0  0  0
   45.6273    8.0092   12.7264 N   0  0  0  0  0  0  0  0  0  0  0  0
   40.5931   15.7975   14.5849 C   0  0  0  0  0  0  0  0  0  0  0  0
   43.2102   11.3881   11.8219 N   0  0  0  0  0  0  0  0  0  0  0  0
   45.3048    7.3208   11.6151 C   0  0  0  0  0  0  0  0  0  0  0  0
   43.2253   16.9972   14.9448 O   0  0  0  0  0  0  0  0  0  0  0  0
   40.6346   16.3449   15.9103 N   0  0  0  0  0  0  0  0  0  0  0  0
   45.2965   15.9056   13.6176 O   0  0  0  0  0  0  0  0  0  0  0  0
   42.7948   10.0603    9.9297 O   0  0  0  0  0  0  0  0  0  0  0  0
   39.4893   15.6989   13.9830 O   0  0  0  0  0  0  0  0  0  0  0  0
   45.2534   13.7881   11.9258 C   0  0  0  0  0  0  0  0  0  0  0  0
   39.4936   17.0663   16.4716 C   0  0  0  0  0  0  0  0  0  0  0  0
   40.6113   18.8118   20.2523 C   0  0  0  0  0  0  0  0  0  0  0  0
   39.8587   17.6865   17.7936 C   0  0  0  0  0  0  0  0  0  0  0  0
   40.9758   19.3545   21.4399 F   0  0  0  0  0  0  0  0  0  0  0  0
   39.7853   17.6827   20.2225 C   0  0  0  0  0  0  0  0  0  0  0  0
   41.0669   19.3752   19.0571 C   0  0  0  0  0  0  0  0  0  0  0  0
   39.4134   17.1168   18.9985 C   0  0  0  0  0  0  0  0  0  0  0  0
   40.6939   18.8153   17.8310 C   0  0  0  0  0  0  0  0  0  0  0  0
   40.9761   12.2651   11.3613 C   0  0  0  0  0  0  0  0  0  0  0  0
   42.9022   13.0282    9.9507 C   0  0  0  0  0  0  0  0  0  0  0  0
   45.8309    5.9640   11.2909 C   0  0  0  0  0  0  0  0  0  0  0  0
   43.5879   11.3735   12.7976 H   0  0  0  0  0  0  0  0  0  0  0  0
   41.4779   16.1717   16.5038 H   0  0  0  0  0  0  0  0  0  0  0  0
   45.2108   12.7164   11.6775 H   0  0  0  0  0  0  0  0  0  0  0  0
   45.4315   14.3822   11.0056 H   0  0  0  0  0  0  0  0  0  0  0  0
   46.1438   13.8790   12.5838 H   0  0  0  0  0  0  0  0  0  0  0  0
   38.6359   16.3688   16.5852 H   0  0  0  0  0  0  0  0  0  0  0  0
   39.1849   17.8710   15.7700 H   0  0  0  0  0  0  0  0  0  0  0  0
   39.4364   17.2435   21.1482 H   0  0  0  0  0  0  0  0  0  0  0  0
   41.7131   20.2425   19.0793 H   0  0  0  0  0  0  0  0  0  0  0  0
   38.7797   16.2384   18.9915 H   0  0  0  0  0  0  0  0  0  0  0  0
   41.0598   19.2562   16.9115 H   0  0  0  0  0  0  0  0  0  0  0  0
   40.7528   11.4376   10.6556 H   0  0  0  0  0  0  0  0  0  0  0  0
   40.6356   11.9458   12.3699 H   0  0  0  0  0  0  0  0  0  0  0  0
   40.3824   13.1500   11.0435 H   0  0  0  0  0  0  0  0  0  0  0  0
   42.6431   14.0948    9.7730 H   0  0  0  0  0  0  0  0  0  0  0  0
   43.9845   12.8888    9.7657 H   0  0  0  0  0  0  0  0  0  0  0  0
   42.3723   12.4353    9.1756 H   0  0  0  0  0  0  0  0  0  0  0  0
   45.4560    5.2320   12.0365 H   0  0  0  0  0  0  0  0  0  0  0  0
   45.4953    5.6578   10.2783 H   0  0  0  0  0  0  0  0  0  0  0  0
   46.9406    5.9786   11.3169 H   0  0  0  0  0  0  0  0  0  0  0  0
  2  1  2  0
  3  4  2  0
  4  1  1  0
  5  6  1  0
  6  2  1  0
  7 10  1  0
  8  7  2  0
  9  7  1  0
 10 14  1  0
 11  3  1  0
 12  8  1  0
 13  1  1  0
 14 11  1  0
 15  9  1  0
 16  2  1  0
 17 13  1  0
 18  6  2  0
 19 10  2  0
 20 13  2  0
 21  5  1  0
 22 17  1  0
 23 26  2  0
 24 22  1  0
 25 23  1  0
 26 28  1  0
 27 29  2  0
 28 24  2  0
 29 24  1  0
 30 11  1  0
 31 11  1  0
 32 15  1  0
  5  3  1  0
 27 23  1  0
 12 15  2  0
 14 33  1  0
 17 34  1  0
 21 35  1  0
 21 36  1  0
 21 37  1  0
 22 38  1  0
 22 39  1  0
 26 40  1  0
 27 41  1  0
 28 42  1  0
 29 43  1  0
 30 44  1  0
 30 45  1  0
 30 46  1  0
 31 47  1  0
 31 48  1  0
 31 49  1  0
 32 50  1  0
 32 51  1  0
 32 52  1  0
M  CHG  1  16  -1
M  END
> <Uni-Dock RESULT> 
ENERGY=   -3.917  LOWER_BOUND=    3.905  UPPER_BOUND=   10.488
INTER + INTRA:          -3.917
INTER:                  -3.917
INTRA:                   0.000
UNBOUND:                 0.000

$$$$

     RDKit          3D

 52 54  0  0  0  0  0  0  0  0999 V2000
   48.6843    9.1219   11.8259 C   0  0  0  0  0  0  0  0  0  0  0  0
   49.5530    8.0318   11.7829 C   0  0  0  0  0  0  0  0  0  0  0  0
   50.4254   10.5568   11.0340 C   0  0  0  0  0  0  0  0  0  0  0  0
   49.1541   10.3424   11.4775 N   0  0  0  0  0  0  0  0  0  0  0  0
   51.2852    9.4733   10.9209 N   0  0  0  0  0  0  0  0  0  0  0  0
   50.8579    8.2301   11.3306 C   0  0  0  0  0  0  0  0  0  0  0  0
   52.2946   13.1237    7.2402 C   0  0  0  0  0  0  0  0  0  0  0  0
   52.1804   12.0237    6.4706 N   0  0  0  0  0  0  0  0  0  0  0  0
   52.8818   14.1007    6.5897 O   0  0  0  0  0  0  0  0  0  0  0  0
   51.8332   13.2163    8.6323 C   0  0  0  0  0  0  0  0  0  0  0  0
   50.8214   12.0114   10.6870 C   0  0  0  0  0  0  0  0  0  0  0  0
   52.7186   12.3305    5.3003 N   0  0  0  0  0  0  0  0  0  0  0  0
   47.2879    9.0087   12.2952 C   0  0  0  0  0  0  0  0  0  0  0  0
   51.1856   12.0935    9.2590 N   0  0  0  0  0  0  0  0  0  0  0  0
   53.1397   13.6053    5.4029 C   0  0  0  0  0  0  0  0  0  0  0  0
   49.1545    6.7710   12.2186 O   0  0  0  0  0  0  0  0  0  0  0  0
   46.5189    7.8197   12.0653 N   0  0  0  0  0  0  0  0  0  0  0  0
   51.6466    7.2427   11.3188 O   0  0  0  0  0  0  0  0  0  0  0  0
   52.0158   14.2905    9.2647 O   0  0  0  0  0  0  0  0  0  0  0  0
   46.7575    9.9944   12.8761 O   0  0  0  0  0  0  0  0  0  0  0  0
   52.6862    9.5970   10.4678 C   0  0  0  0  0  0  0  0  0  0  0  0
   45.2421    7.5968   12.7417 C   0  0  0  0  0  0  0  0  0  0  0  0
   43.8473    3.6036   11.9061 C   0  0  0  0  0  0  0  0  0  0  0  0
   44.7333    6.2073   12.4659 C   0  0  0  0  0  0  0  0  0  0  0  0
   43.4202    2.3459   11.6347 F   0  0  0  0  0  0  0  0  0  0  0  0
   43.2390    4.6992   11.2836 C   0  0  0  0  0  0  0  0  0  0  0  0
   44.9009    3.8058   12.8020 C   0  0  0  0  0  0  0  0  0  0  0  0
   43.6826    5.9975   11.5567 C   0  0  0  0  0  0  0  0  0  0  0  0
   45.3445    5.1024   13.0814 C   0  0  0  0  0  0  0  0  0  0  0  0
   49.6262   12.9676   10.9254 C   0  0  0  0  0  0  0  0  0  0  0  0
   51.9851   12.4639   11.6063 C   0  0  0  0  0  0  0  0  0  0  0  0
   53.8031   14.3572    4.2996 C   0  0  0  0  0  0  0  0  0  0  0  0
   50.9140   11.2948    8.6400 H   0  0  0  0  0  0  0  0  0  0  0  0
   46.8540    7.1290   11.3554 H   0  0  0  0  0  0  0  0  0  0  0  0
   52.8365   10.4118    9.7429 H   0  0  0  0  0  0  0  0  0  0  0  0
   53.3526    9.7428   11.3433 H   0  0  0  0  0  0  0  0  0  0  0  0
   53.0118    8.6854    9.9230 H   0  0  0  0  0  0  0  0  0  0  0  0
   44.5084    8.3608   12.4057 H   0  0  0  0  0  0  0  0  0  0  0  0
   45.3795    7.7183   13.8378 H   0  0  0  0  0  0  0  0  0  0  0  0
   42.4264    4.5422   10.5861 H   0  0  0  0  0  0  0  0  0  0  0  0
   45.3780    2.9589   13.2767 H   0  0  0  0  0  0  0  0  0  0  0  0
   43.2069    6.8351   11.0615 H   0  0  0  0  0  0  0  0  0  0  0  0
   46.1672    5.2461   13.7716 H   0  0  0  0  0  0  0  0  0  0  0  0
   49.8924   14.0177   10.6826 H   0  0  0  0  0  0  0  0  0  0  0  0
   48.7670   12.6826   10.2806 H   0  0  0  0  0  0  0  0  0  0  0  0
   49.3042   12.9376   11.9893 H   0  0  0  0  0  0  0  0  0  0  0  0
   51.8437   12.0721   12.6372 H   0  0  0  0  0  0  0  0  0  0  0  0
   52.9717   12.1311   11.2308 H   0  0  0  0  0  0  0  0  0  0  0  0
   52.0370   13.5702   11.6872 H   0  0  0  0  0  0  0  0  0  0  0  0
   53.0863   14.5013    3.4645 H   0  0  0  0  0  0  0  0  0  0  0  0
   54.1418   15.3488    4.6650 H   0  0  0  0  0  0  0  0  0  0  0  0
   54.6817   13.7851    3.9346 H   0  0  0  0  0  0  0  0  0  0  0  0
  2  1  2  0
  3  4  2  0
  4  1  1  0
  5  6  1  0
  6  2  1  0
  7 10  1  0
  8  7  2  0
  9  7  1  0
 10 14  1  0
 11  3  1  0
 12  8  1  0
 13  1  1  0
 14 11  1  0
 15  9  1  0
 16  2  1  0
 17 13  1  0
 18  6  2  0
 19 10  2  0
 20 13  2  0
 21  5  1  0
 22 17  1  0
 23 26  2  0
 24 22  1  0
 25 23  1  0
 26 28  1  0
 27 29  2  0
 28 24  2  0
 29 24  1  0
 30 11  1  0
 31 11  1  0
 32 15  1  0
  5  3  1  0
 27 23  1  0
 12 15  2  0
 14 33  1  0
 17 34  1  0
 21 35  1  0
 21 36  1  0
 21 37  1  0
 22 38  1  0
 22 39  1  0
 26 40  1  0
 27 41  1  0
 28 42  1  0
 29 43  1  0
 30 44  1  0
 30 45  1  0
 30 46  1  0
 31 47  1  0
 31 48  1  0
 31 49  1  0
 32 50  1  0
 32 51  1  0
 32 52  1  0
M  CHG  1  16  -1
M  END
> <Uni-Dock RESULT> 
ENERGY=   -3.829  LOWER_BOUND=    6.131  UPPER_BOUND=    8.909
INTER + INTRA:          -3.829
INTER:                  -3.829
INTRA:                   0.000
UNBOUND:                 0.000

$$$$

     RDKit          3D

 52 54  0  0  0  0  0  0  0  0999 V2000
   45.8713   10.3851   11.9216 C   0  0  0  0  0  0  0  0  0  0  0  0
   44.6580    9.7101   11.7912 C   0  0  0  0  0  0  0  0  0  0  0  0
   44.7995   12.4469   11.3579 C   0  0  0  0  0  0  0  0  0  0  0  0
   45.9052   11.7158   11.6768 N   0  0  0  0  0  0  0  0  0  0  0  0
   43.5711   11.8048   11.2886 N   0  0  0  0  0  0  0  0  0  0  0  0
   43.5144   10.4407   11.4669 C   0  0  0  0  0  0  0  0  0  0  0  0
   43.0455   16.7915   12.9466 C   0  0  0  0  0  0  0  0  0  0  0  0
   42.3711   16.1387   13.9133 N   0  0  0  0  0  0  0  0  0  0  0  0
   42.7657   18.0737   12.9540 O   0  0  0  0  0  0  0  0  0  0  0  0
   43.9666   16.1509   11.9975 C   0  0  0  0  0  0  0  0  0  0  0  0
   44.9988   13.9576   11.0913 C   0  0  0  0  0  0  0  0  0  0  0  0
   41.6452   17.0506   14.5416 N   0  0  0  0  0  0  0  0  0  0  0  0
   47.1340    9.6949   12.2566 C   0  0  0  0  0  0  0  0  0  0  0  0
   44.2222   14.7362   12.0758 N   0  0  0  0  0  0  0  0  0  0  0  0
   41.9057   18.2231   13.9330 C   0  0  0  0  0  0  0  0  0  0  0  0
   44.5792    8.3279   11.9378 O   0  0  0  0  0  0  0  0  0  0  0  0
   47.1508    8.5521   13.1236 N   0  0  0  0  0  0  0  0  0  0  0  0
   42.4236    9.8182   11.3254 O   0  0  0  0  0  0  0  0  0  0  0  0
   44.5241   16.8590   11.1171 O   0  0  0  0  0  0  0  0  0  0  0  0
   48.2176   10.1474   11.7967 O   0  0  0  0  0  0  0  0  0  0  0  0
   42.3152   12.4985   10.9352 C   0  0  0  0  0  0  0  0  0  0  0  0
   48.3412    7.7133   13.2537 C   0  0  0  0  0  0  0  0  0  0  0  0
   47.4017    4.2372   15.6251 C   0  0  0  0  0  0  0  0  0  0  0  0
   48.0389    6.4908   14.0782 C   0  0  0  0  0  0  0  0  0  0  0  0
   47.0929    3.1493   16.3726 F   0  0  0  0  0  0  0  0  0  0  0  0
   48.1643    5.2725   16.1770 C   0  0  0  0  0  0  0  0  0  0  0  0
   46.9517    4.3287   14.3050 C   0  0  0  0  0  0  0  0  0  0  0  0
   48.4784    6.3992   15.4097 C   0  0  0  0  0  0  0  0  0  0  0  0
   47.2672    5.4513   13.5329 C   0  0  0  0  0  0  0  0  0  0  0  0
   46.4903   14.3424   11.2552 C   0  0  0  0  0  0  0  0  0  0  0  0
   44.5785   14.2857    9.6353 C   0  0  0  0  0  0  0  0  0  0  0  0
   41.2998   19.5250   14.3339 C   0  0  0  0  0  0  0  0  0  0  0  0
   43.8654   14.2346   12.9219 H   0  0  0  0  0  0  0  0  0  0  0  0
   46.3124    8.3530   13.7157 H   0  0  0  0  0  0  0  0  0  0  0  0
   42.2941   13.5494   11.2625 H   0  0  0  0  0  0  0  0  0  0  0  0
   42.1499   12.4409    9.8393 H   0  0  0  0  0  0  0  0  0  0  0  0
   41.4455   12.0366   11.4492 H   0  0  0  0  0  0  0  0  0  0  0  0
   49.1619    8.3063   13.7116 H   0  0  0  0  0  0  0  0  0  0  0  0
   48.6780    7.3921   12.2446 H   0  0  0  0  0  0  0  0  0  0  0  0
   48.5086    5.2038   17.2008 H   0  0  0  0  0  0  0  0  0  0  0  0
   46.3542    3.5332   13.8803 H   0  0  0  0  0  0  0  0  0  0  0  0
   49.0632    7.1959   15.8530 H   0  0  0  0  0  0  0  0  0  0  0  0
   46.9062    5.5146   12.5134 H   0  0  0  0  0  0  0  0  0  0  0  0
   46.6530   15.4243   11.0661 H   0  0  0  0  0  0  0  0  0  0  0  0
   46.8346   14.1281   12.2899 H   0  0  0  0  0  0  0  0  0  0  0  0
   47.1242   13.7749   10.5392 H   0  0  0  0  0  0  0  0  0  0  0  0
   44.8913   13.4716    8.9455 H   0  0  0  0  0  0  0  0  0  0  0  0
   43.4865   14.4367    9.5365 H   0  0  0  0  0  0  0  0  0  0  0  0
   45.0587   15.2182    9.2705 H   0  0  0  0  0  0  0  0  0  0  0  0
   41.6504   19.8008   15.3503 H   0  0  0  0  0  0  0  0  0  0  0  0
   41.5964   20.3192   13.6176 H   0  0  0  0  0  0  0  0  0  0  0  0
   40.1933   19.4351   14.3391 H   0  0  0  0  0  0  0  0  0  0  0  0
  2  1  2  0
  3  4  2  0
  4  1  1  0
  5  6  1  0
  6  2  1  0
  7 10  1  0
  8  7  2  0
  9  7  1  0
 10 14  1  0
 11  3  1  0
 12  8  1  0
 13  1  1  0
 14 11  1  0
 15  9  1  0
 16  2  1  0
 17 13  1  0
 18  6  2  0
 19 10  2  0
 20 13  2  0
 21  5  1  0
 22 17  1  0
 23 26  2  0
 24 22  1  0
 25 23  1  0
 26 28  1  0
 27 29  2  0
 28 24  2  0
 29 24  1  0
 30 11  1  0
 31 11  1  0
 32 15  1  0
  5  3  1  0
 27 23  1  0
 12 15  2  0
 14 33  1  0
 17 34  1  0
 21 35  1  0
 21 36  1  0
 21 37  1  0
 22 38  1  0
 22 39  1  0
 26 40  1  0
 27 41  1  0
 28 42  1  0
 29 43  1  0
 30 44  1  0
 30 45  1  0
 30 46  1  0
 31 47  1  0
 31 48  1  0
 31 49  1  0
 32 50  1  0
 32 51  1  0
 32 52  1  0
M  CHG  1  16  -1
M  END
> <Uni-Dock RESULT> 
ENERGY=   -3.804  LOWER_BOUND=    2.464  UPPER_BOUND=    2.898
INTER + INTRA:          -3.804
INTER:                  -3.804
INTRA:                   0.000
UNBOUND:                 0.000

$$$$
