
     RDKit          3D

 52 54  0  0  0  0  0  0  0  0999 V2000
   46.6688    4.7868   14.0307 C   0  0  0  0  0  0  0  0  0  0  0  0
   47.5443    5.7381   13.5065 C   0  0  0  0  0  0  0  0  0  0  0  0
   47.7340    4.9641   16.1619 C   0  0  0  0  0  0  0  0  0  0  0  0
   46.7837    4.4453   15.3348 N   0  0  0  0  0  0  0  0  0  0  0  0
   48.5932    5.9367   15.6706 N   0  0  0  0  0  0  0  0  0  0  0  0
   48.5172    6.2897   14.3417 C   0  0  0  0  0  0  0  0  0  0  0  0
   51.4026    3.2490   18.1372 C   0  0  0  0  0  0  0  0  0  0  0  0
   51.7836    3.8025   19.3047 N   0  0  0  0  0  0  0  0  0  0  0  0
   52.3593    2.5119   17.6255 O   0  0  0  0  0  0  0  0  0  0  0  0
   50.0873    3.4432   17.5137 C   0  0  0  0  0  0  0  0  0  0  0  0
   47.7302    4.4640   17.6200 C   0  0  0  0  0  0  0  0  0  0  0  0
   53.0233    3.3925   19.5236 N   0  0  0  0  0  0  0  0  0  0  0  0
   45.6048    4.1534   13.2260 C   0  0  0  0  0  0  0  0  0  0  0  0
   49.0977    4.2807   18.1404 N   0  0  0  0  0  0  0  0  0  0  0  0
   53.3501    2.6095   18.4784 C   0  0  0  0  0  0  0  0  0  0  0  0
   47.4414    6.1662   12.1857 O   0  0  0  0  0  0  0  0  0  0  0  0
   45.7980    3.8562   11.8355 N   0  0  0  0  0  0  0  0  0  0  0  0
   49.3249    7.1272   13.8502 O   0  0  0  0  0  0  0  0  0  0  0  0
   49.8455    2.8814   16.4118 O   0  0  0  0  0  0  0  0  0  0  0  0
   44.5250    3.8290   13.7909 O   0  0  0  0  0  0  0  0  0  0  0  0
   49.6452    6.5712   16.4907 C   0  0  0  0  0  0  0  0  0  0  0  0
   44.6905    3.4044   10.9945 C   0  0  0  0  0  0  0  0  0  0  0  0
   46.0886    2.8736    6.9516 C   0  0  0  0  0  0  0  0  0  0  0  0
   45.1490    3.2105    9.5745 C   0  0  0  0  0  0  0  0  0  0  0  0
   46.5390    2.7100    5.6834 F   0  0  0  0  0  0  0  0  0  0  0  0
   45.6295    4.1245    7.3745 C   0  0  0  0  0  0  0  0  0  0  0  0
   46.0893    1.7931    7.8388 C   0  0  0  0  0  0  0  0  0  0  0  0
   45.1663    4.2957    8.6829 C   0  0  0  0  0  0  0  0  0  0  0  0
   45.6271    1.9605    9.1480 C   0  0  0  0  0  0  0  0  0  0  0  0
   46.9983    3.1037   17.7424 C   0  0  0  0  0  0  0  0  0  0  0  0
   46.9529    5.4746   18.4929 C   0  0  0  0  0  0  0  0  0  0  0  0
   54.6589    1.9120   18.3323 C   0  0  0  0  0  0  0  0  0  0  0  0
   49.3544    4.7450   19.0417 H   0  0  0  0  0  0  0  0  0  0  0  0
   46.7626    3.9016   11.4351 H   0  0  0  0  0  0  0  0  0  0  0  0
   50.5837    5.9829   16.4202 H   0  0  0  0  0  0  0  0  0  0  0  0
   49.8552    7.6074   16.1494 H   0  0  0  0  0  0  0  0  0  0  0  0
   49.3531    6.6847   17.5467 H   0  0  0  0  0  0  0  0  0  0  0  0
   43.8741    4.1588   11.0237 H   0  0  0  0  0  0  0  0  0  0  0  0
   44.2827    2.4520   11.3982 H   0  0  0  0  0  0  0  0  0  0  0  0
   45.6358    4.9635    6.6905 H   0  0  0  0  0  0  0  0  0  0  0  0
   46.4518    0.8261    7.5142 H   0  0  0  0  0  0  0  0  0  0  0  0
   44.8232    5.2723    9.0015 H   0  0  0  0  0  0  0  0  0  0  0  0
   45.6430    1.1181    9.8284 H   0  0  0  0  0  0  0  0  0  0  0  0
   47.0801    2.7138   18.7801 H   0  0  0  0  0  0  0  0  0  0  0  0
   45.9181    3.2030   17.4981 H   0  0  0  0  0  0  0  0  0  0  0  0
   47.4348    2.3485   17.0561 H   0  0  0  0  0  0  0  0  0  0  0  0
   45.9028    5.5659   18.1396 H   0  0  0  0  0  0  0  0  0  0  0  0
   47.3983    6.4871   18.4648 H   0  0  0  0  0  0  0  0  0  0  0  0
   46.9347    5.1394   19.5525 H   0  0  0  0  0  0  0  0  0  0  0  0
   55.4757    2.5559   18.7208 H   0  0  0  0  0  0  0  0  0  0  0  0
   54.8511    1.6907   17.2618 H   0  0  0  0  0  0  0  0  0  0  0  0
   54.6368    0.9614   18.9043 H   0  0  0  0  0  0  0  0  0  0  0  0
  2  1  2  0
  3  4  2  0
  4  1  1  0
  5  6  1  0
  6  2  1  0
  7 10  1  0
  8  7  2  0
  9  7  1  0
 10 14  1  0
 11  3  1  0
 12  8  1  0
 13  1  1  0
 14 11  1  0
 15  9  1  0
 16  2  1  0
 17 13  1  0
 18  6  2  0
 19 10  2  0
 20 13  2  0
 21  5  1  0
 22 17  1  0
 23 26  2  0
 24 22  1  0
 25 23  1  0
 26 28  1  0
 27 29  2  0
 28 24  2  0
 29 24  1  0
 30 11  1  0
 31 11  1  0
 32 15  1  0
  5  3  1  0
 27 23  1  0
 12 15  2  0
 14 33  1  0
 17 34  1  0
 21 35  1  0
 21 36  1  0
 21 37  1  0
 22 38  1  0
 22 39  1  0
 26 40  1  0
 27 41  1  0
 28 42  1  0
 29 43  1  0
 30 44  1  0
 30 45  1  0
 30 46  1  0
 31 47  1  0
 31 48  1  0
 31 49  1  0
 32 50  1  0
 32 51  1  0
 32 52  1  0
M  CHG  1  16  -1
M  END
> <Uni-Dock RESULT> 
ENERGY=   -5.583  LOWER_BOUND=    0.000  UPPER_BOUND=    0.000
INTER + INTRA:          -5.583
INTER:                  -5.583
INTRA:                   0.000
UNBOUND:                 0.000

$$$$

     RDKit          3D

 52 54  0  0  0  0  0  0  0  0999 V2000
   47.7011    8.1509   13.2442 C   0  0  0  0  0  0  0  0  0  0  0  0
   48.8003    7.8279   12.4480 C   0  0  0  0  0  0  0  0  0  0  0  0
   49.1514    9.1392   14.8653 C   0  0  0  0  0  0  0  0  0  0  0  0
   47.9118    8.8035   14.4105 N   0  0  0  0  0  0  0  0  0  0  0  0
   50.2558    8.8580   14.0737 N   0  0  0  0  0  0  0  0  0  0  0  0
   50.0775    8.1742   12.8918 C   0  0  0  0  0  0  0  0  0  0  0  0
   51.7002    7.6915   18.2873 C   0  0  0  0  0  0  0  0  0  0  0  0
   52.5695    8.5734   18.8178 N   0  0  0  0  0  0  0  0  0  0  0  0
   51.9786    6.4655   18.6609 O   0  0  0  0  0  0  0  0  0  0  0  0
   50.5839    8.0517   17.4038 C   0  0  0  0  0  0  0  0  0  0  0  0
   49.2162    9.8768   16.2174 C   0  0  0  0  0  0  0  0  0  0  0  0
   53.4181    7.8659   19.5473 N   0  0  0  0  0  0  0  0  0  0  0  0
   46.3131    7.8307   12.8549 C   0  0  0  0  0  0  0  0  0  0  0  0
   50.3577    9.4249   17.0344 N   0  0  0  0  0  0  0  0  0  0  0  0
   53.0353    6.5807   19.4283 C   0  0  0  0  0  0  0  0  0  0  0  0
   48.6413    7.2022   11.2145 O   0  0  0  0  0  0  0  0  0  0  0  0
   45.9984    6.6300   12.1348 N   0  0  0  0  0  0  0  0  0  0  0  0
   51.0685    7.8501   12.1790 O   0  0  0  0  0  0  0  0  0  0  0  0
   49.8392    7.1378   16.9582 O   0  0  0  0  0  0  0  0  0  0  0  0
   45.3863    8.6106   13.2061 O   0  0  0  0  0  0  0  0  0  0  0  0
   51.6382    9.1955   14.4701 C   0  0  0  0  0  0  0  0  0  0  0  0
   44.6621    6.4013   11.5869 C   0  0  0  0  0  0  0  0  0  0  0  0
   44.6077    2.6465    9.4703 C   0  0  0  0  0  0  0  0  0  0  0  0
   44.6125    5.0956   10.8407 C   0  0  0  0  0  0  0  0  0  0  0  0
   44.6018    1.4640    8.8072 F   0  0  0  0  0  0  0  0  0  0  0  0
   44.9874    3.8176    8.8078 C   0  0  0  0  0  0  0  0  0  0  0  0
   44.2404    2.6941   10.8184 C   0  0  0  0  0  0  0  0  0  0  0  0
   44.9959    5.0380    9.4906 C   0  0  0  0  0  0  0  0  0  0  0  0
   44.2480    3.9126   11.5046 C   0  0  0  0  0  0  0  0  0  0  0  0
   47.9277    9.6409   17.0451 C   0  0  0  0  0  0  0  0  0  0  0  0
   49.3110   11.3962   15.9536 C   0  0  0  0  0  0  0  0  0  0  0  0
   53.7061    5.4408   20.1148 C   0  0  0  0  0  0  0  0  0  0  0  0
   51.0175   10.1442   17.4099 H   0  0  0  0  0  0  0  0  0  0  0  0
   46.7210    5.8785   12.0589 H   0  0  0  0  0  0  0  0  0  0  0  0
   52.0804    8.3560   15.0458 H   0  0  0  0  0  0  0  0  0  0  0  0
   52.2788    9.3872   13.5829 H   0  0  0  0  0  0  0  0  0  0  0  0
   51.6990   10.1252   15.0576 H   0  0  0  0  0  0  0  0  0  0  0  0
   44.3980    7.2346   10.8996 H   0  0  0  0  0  0  0  0  0  0  0  0
   43.9180    6.3982   12.4131 H   0  0  0  0  0  0  0  0  0  0  0  0
   45.2793    3.7803    7.7661 H   0  0  0  0  0  0  0  0  0  0  0  0
   43.9537    1.7865   11.3340 H   0  0  0  0  0  0  0  0  0  0  0  0
   45.3023    5.9364    8.9691 H   0  0  0  0  0  0  0  0  0  0  0  0
   43.9716    3.9340   12.5515 H   0  0  0  0  0  0  0  0  0  0  0  0
   48.0251   10.1043   18.0507 H   0  0  0  0  0  0  0  0  0  0  0  0
   47.0400   10.0879   16.5466 H   0  0  0  0  0  0  0  0  0  0  0  0
   47.7309    8.5574   17.1836 H   0  0  0  0  0  0  0  0  0  0  0  0
   48.4190   11.7494   15.3919 H   0  0  0  0  0  0  0  0  0  0  0  0
   50.2030   11.6666   15.3572 H   0  0  0  0  0  0  0  0  0  0  0  0
   49.3604   11.9549   16.9133 H   0  0  0  0  0  0  0  0  0  0  0  0
   54.8026    5.6116   20.1475 H   0  0  0  0  0  0  0  0  0  0  0  0
   53.5033    4.4977   19.5659 H   0  0  0  0  0  0  0  0  0  0  0  0
   53.3169    5.3525   21.1503 H   0  0  0  0  0  0  0  0  0  0  0  0
  2  1  2  0
  3  4  2  0
  4  1  1  0
  5  6  1  0
  6  2  1  0
  7 10  1  0
  8  7  2  0
  9  7  1  0
 10 14  1  0
 11  3  1  0
 12  8  1  0
 13  1  1  0
 14 11  1  0
 15  9  1  0
 16  2  1  0
 17 13  1  0
 18  6  2  0
 19 10  2  0
 20 13  2  0
 21  5  1  0
 22 17  1  0
 23 26  2  0
 24 22  1  0
 25 23  1  0
 26 28  1  0
 27 29  2  0
 28 24  2  0
 29 24  1  0
 30 11  1  0
 31 11  1  0
 32 15  1  0
  5  3  1  0
 27 23  1  0
 12 15  2  0
 14 33  1  0
 17 34  1  0
 21 35  1  0
 21 36  1  0
 21 37  1  0
 22 38  1  0
 22 39  1  0
 26 40  1  0
 27 41  1  0
 28 42  1  0
 29 43  1  0
 30 44  1  0
 30 45  1  0
 30 46  1  0
 31 47  1  0
 31 48  1  0
 31 49  1  0
 32 50  1  0
 32 51  1  0
 32 52  1  0
M  CHG  1  16  -1
M  END
> <Uni-Dock RESULT> 
ENERGY=   -4.813  LOWER_BOUND=    3.511  UPPER_BOUND=    4.066
INTER + INTRA:          -4.813
INTER:                  -4.813
INTRA:                   0.000
UNBOUND:                 0.000

$$$$

     RDKit          3D

 52 54  0  0  0  0  0  0  0  0999 V2000
   45.7107    8.7414   12.4499 C   0  0  0  0  0  0  0  0  0  0  0  0
   46.9389    8.3069   12.9492 C   0  0  0  0  0  0  0  0  0  0  0  0
   44.9985    6.4749   12.1974 C   0  0  0  0  0  0  0  0  0  0  0  0
   44.7840    7.8174   12.1069 N   0  0  0  0  0  0  0  0  0  0  0  0
   46.1998    6.0210   12.7231 N   0  0  0  0  0  0  0  0  0  0  0  0
   47.1728    6.9353   13.0603 C   0  0  0  0  0  0  0  0  0  0  0  0
   45.5251    3.2023    9.1453 C   0  0  0  0  0  0  0  0  0  0  0  0
   45.1416    1.9623    9.5063 N   0  0  0  0  0  0  0  0  0  0  0  0
   46.2803    3.1737    8.0734 O   0  0  0  0  0  0  0  0  0  0  0  0
   45.1490    4.4303    9.8574 C   0  0  0  0  0  0  0  0  0  0  0  0
   43.8391    5.5578   11.7605 C   0  0  0  0  0  0  0  0  0  0  0  0
   45.6803    1.1351    8.6241 N   0  0  0  0  0  0  0  0  0  0  0  0
   45.3710   10.1710   12.3022 C   0  0  0  0  0  0  0  0  0  0  0  0
   44.3238    4.3686   11.0358 N   0  0  0  0  0  0  0  0  0  0  0  0
   46.3746    1.9032    7.7637 C   0  0  0  0  0  0  0  0  0  0  0  0
   47.9116    9.2116   13.3660 O   0  0  0  0  0  0  0  0  0  0  0  0
   46.3640   11.1398   11.9354 N   0  0  0  0  0  0  0  0  0  0  0  0
   48.2988    6.5513   13.4843 O   0  0  0  0  0  0  0  0  0  0  0  0
   45.5762    5.5372    9.4322 O   0  0  0  0  0  0  0  0  0  0  0  0
   44.1727   10.5317   12.4587 O   0  0  0  0  0  0  0  0  0  0  0  0
   46.5215    4.5875   12.8769 C   0  0  0  0  0  0  0  0  0  0  0  0
   46.0761   12.5729   11.9707 C   0  0  0  0  0  0  0  0  0  0  0  0
   49.6153   14.7702   10.8627 C   0  0  0  0  0  0  0  0  0  0  0  0
   47.2955   13.3672   11.5881 C   0  0  0  0  0  0  0  0  0  0  0  0
   50.7342   15.4512   10.5129 F   0  0  0  0  0  0  0  0  0  0  0  0
   49.4059   14.4076   12.1965 C   0  0  0  0  0  0  0  0  0  0  0  0
   48.6739   14.4246    9.8886 C   0  0  0  0  0  0  0  0  0  0  0  0
   48.2533   13.7034   12.5590 C   0  0  0  0  0  0  0  0  0  0  0  0
   47.5202   13.7202   10.2472 C   0  0  0  0  0  0  0  0  0  0  0  0
   42.8566    6.3062   10.8247 C   0  0  0  0  0  0  0  0  0  0  0  0
   43.0371    5.1358   13.0120 C   0  0  0  0  0  0  0  0  0  0  0  0
   47.1217    1.3764    6.5869 C   0  0  0  0  0  0  0  0  0  0  0  0
   44.0145    3.4248   11.3635 H   0  0  0  0  0  0  0  0  0  0  0  0
   47.2876   10.8094   11.5741 H   0  0  0  0  0  0  0  0  0  0  0  0
   47.0066    4.2093   11.9531 H   0  0  0  0  0  0  0  0  0  0  0  0
   47.2122    4.4166   13.7302 H   0  0  0  0  0  0  0  0  0  0  0  0
   45.6374    3.9745   13.1133 H   0  0  0  0  0  0  0  0  0  0  0  0
   45.7506   12.8583   12.9949 H   0  0  0  0  0  0  0  0  0  0  0  0
   45.2382   12.8002   11.2760 H   0  0  0  0  0  0  0  0  0  0  0  0
   50.1381   14.6681   12.9500 H   0  0  0  0  0  0  0  0  0  0  0  0
   48.8391   14.6983    8.8545 H   0  0  0  0  0  0  0  0  0  0  0  0
   48.1079   13.4190   13.5939 H   0  0  0  0  0  0  0  0  0  0  0  0
   46.8041   13.4493    9.4813 H   0  0  0  0  0  0  0  0  0  0  0  0
   42.0766    5.6095   10.4481 H   0  0  0  0  0  0  0  0  0  0  0  0
   42.3450    7.1372   11.3577 H   0  0  0  0  0  0  0  0  0  0  0  0
   43.3844    6.7372    9.9487 H   0  0  0  0  0  0  0  0  0  0  0  0
   42.6179    6.0291   13.5241 H   0  0  0  0  0  0  0  0  0  0  0  0
   43.6597    4.5958   13.7504 H   0  0  0  0  0  0  0  0  0  0  0  0
   42.1930    4.4713   12.7267 H   0  0  0  0  0  0  0  0  0  0  0  0
   47.5887    0.4018    6.8411 H   0  0  0  0  0  0  0  0  0  0  0  0
   47.9171    2.0928    6.2933 H   0  0  0  0  0  0  0  0  0  0  0  0
   46.4220    1.2379    5.7368 H   0  0  0  0  0  0  0  0  0  0  0  0
  2  1  2  0
  3  4  2  0
  4  1  1  0
  5  6  1  0
  6  2  1  0
  7 10  1  0
  8  7  2  0
  9  7  1  0
 10 14  1  0
 11  3  1  0
 12  8  1  0
 13  1  1  0
 14 11  1  0
 15  9  1  0
 16  2  1  0
 17 13  1  0
 18  6  2  0
 19 10  2  0
 20 13  2  0
 21  5  1  0
 22 17  1  0
 23 26  2  0
 24 22  1  0
 25 23  1  0
 26 28  1  0
 27 29  2  0
 28 24  2  0
 29 24  1  0
 30 11  1  0
 31 11  1  0
 32 15  1  0
  5  3  1  0
 27 23  1  0
 12 15  2  0
 14 33  1  0
 17 34  1  0
 21 35  1  0
 21 36  1  0
 21 37  1  0
 22 38  1  0
 22 39  1  0
 26 40  1  0
 27 41  1  0
 28 42  1  0
 29 43  1  0
 30 44  1  0
 30 45  1  0
 30 46  1  0
 31 47  1  0
 31 48  1  0
 31 49  1  0
 32 50  1  0
 32 51  1  0
 32 52  1  0
M  CHG  1  16  -1
M  END
> <Uni-Dock RESULT> 
ENERGY=   -4.355  LOWER_BOUND=    5.467  UPPER_BOUND=    9.254
INTER + INTRA:          -4.355
INTER:                  -4.355
INTRA:                   0.000
UNBOUND:                 0.000

$$$$

     RDKit          3D

 52 54  0  0  0  0  0  0  0  0999 V2000
   48.0879    8.5517   14.7279 C   0  0  0  0  0  0  0  0  0  0  0  0
   48.7719    7.3694   15.0123 C   0  0  0  0  0  0  0  0  0  0  0  0
   49.1518    9.6257   16.5779 C   0  0  0  0  0  0  0  0  0  0  0  0
   48.3105    9.6356   15.5063 N   0  0  0  0  0  0  0  0  0  0  0  0
   49.8681    8.4708   16.8584 N   0  0  0  0  0  0  0  0  0  0  0  0
   49.6472    7.3433   16.0993 C   0  0  0  0  0  0  0  0  0  0  0  0
   48.5101    9.8650   21.0314 C   0  0  0  0  0  0  0  0  0  0  0  0
   49.5030   10.4057   21.7639 N   0  0  0  0  0  0  0  0  0  0  0  0
   47.6605    9.2134   21.7889 O   0  0  0  0  0  0  0  0  0  0  0  0
   48.3906    9.9862   19.5728 C   0  0  0  0  0  0  0  0  0  0  0  0
   49.2883   10.9453   17.3629 C   0  0  0  0  0  0  0  0  0  0  0  0
   49.2584   10.0760   23.0225 N   0  0  0  0  0  0  0  0  0  0  0  0
   47.1474    8.6760   13.5962 C   0  0  0  0  0  0  0  0  0  0  0  0
   49.3776   10.7122   18.8162 N   0  0  0  0  0  0  0  0  0  0  0  0
   48.1291    9.3433   23.0064 C   0  0  0  0  0  0  0  0  0  0  0  0
   48.6220    6.2372   14.2161 O   0  0  0  0  0  0  0  0  0  0  0  0
   46.3167    7.5778   13.1924 N   0  0  0  0  0  0  0  0  0  0  0  0
   50.2383    6.2599   16.3675 O   0  0  0  0  0  0  0  0  0  0  0  0
   47.4215    9.4283   18.9916 O   0  0  0  0  0  0  0  0  0  0  0  0
   47.0455    9.7868   13.0079 O   0  0  0  0  0  0  0  0  0  0  0  0
   50.8155    8.3643   17.9867 C   0  0  0  0  0  0  0  0  0  0  0  0
   45.5258    7.6355   11.9640 C   0  0  0  0  0  0  0  0  0  0  0  0
   43.4424    3.9001   11.4275 C   0  0  0  0  0  0  0  0  0  0  0  0
   44.7862    6.3428   11.7495 C   0  0  0  0  0  0  0  0  0  0  0  0
   42.7919    2.7213   11.2687 F   0  0  0  0  0  0  0  0  0  0  0  0
   44.7414    4.0538   10.9340 C   0  0  0  0  0  0  0  0  0  0  0  0
   42.8169    4.9601   12.0906 C   0  0  0  0  0  0  0  0  0  0  0  0
   45.4147    5.2685   11.0986 C   0  0  0  0  0  0  0  0  0  0  0  0
   43.4872    6.1761   12.2573 C   0  0  0  0  0  0  0  0  0  0  0  0
   48.0722   11.8725   17.1131 C   0  0  0  0  0  0  0  0  0  0  0  0
   50.5404   11.6984   16.8605 C   0  0  0  0  0  0  0  0  0  0  0  0
   47.4760    8.7856   24.2243 C   0  0  0  0  0  0  0  0  0  0  0  0
   50.1765   11.1366   19.3409 H   0  0  0  0  0  0  0  0  0  0  0  0
   46.2269    6.7493   13.8235 H   0  0  0  0  0  0  0  0  0  0  0  0
   50.2805    8.0209   18.8965 H   0  0  0  0  0  0  0  0  0  0  0  0
   51.6295    7.6414   17.7654 H   0  0  0  0  0  0  0  0  0  0  0  0
   51.3391    9.3107   18.1953 H   0  0  0  0  0  0  0  0  0  0  0  0
   46.1995    7.8281   11.1006 H   0  0  0  0  0  0  0  0  0  0  0  0
   44.8071    8.4818   12.0249 H   0  0  0  0  0  0  0  0  0  0  0  0
   45.2292    3.2310   10.4272 H   0  0  0  0  0  0  0  0  0  0  0  0
   41.8141    4.8392   12.4797 H   0  0  0  0  0  0  0  0  0  0  0  0
   46.4246    5.3714   10.7212 H   0  0  0  0  0  0  0  0  0  0  0  0
   42.9954    6.9857   12.7823 H   0  0  0  0  0  0  0  0  0  0  0  0
   48.1411   12.7795   17.7521 H   0  0  0  0  0  0  0  0  0  0  0  0
   48.0279   12.2036   16.0525 H   0  0  0  0  0  0  0  0  0  0  0  0
   47.1179   11.3574   17.3493 H   0  0  0  0  0  0  0  0  0  0  0  0
   50.4455   11.9305   15.7774 H   0  0  0  0  0  0  0  0  0  0  0  0
   51.4680   11.1092   16.9902 H   0  0  0  0  0  0  0  0  0  0  0  0
   50.6649   12.6560   17.4111 H   0  0  0  0  0  0  0  0  0  0  0  0
   48.2487    8.4566   24.9504 H   0  0  0  0  0  0  0  0  0  0  0  0
   46.8448    7.9152   23.9488 H   0  0  0  0  0  0  0  0  0  0  0  0
   46.8401    9.5653   24.6923 H   0  0  0  0  0  0  0  0  0  0  0  0
  2  1  2  0
  3  4  2  0
  4  1  1  0
  5  6  1  0
  6  2  1  0
  7 10  1  0
  8  7  2  0
  9  7  1  0
 10 14  1  0
 11  3  1  0
 12  8  1  0
 13  1  1  0
 14 11  1  0
 15  9  1  0
 16  2  1  0
 17 13  1  0
 18  6  2  0
 19 10  2  0
 20 13  2  0
 21  5  1  0
 22 17  1  0
 23 26  2  0
 24 22  1  0
 25 23  1  0
 26 28  1  0
 27 29  2  0
 28 24  2  0
 29 24  1  0
 30 11  1  0
 31 11  1  0
 32 15  1  0
  5  3  1  0
 27 23  1  0
 12 15  2  0
 14 33  1  0
 17 34  1  0
 21 35  1  0
 21 36  1  0
 21 37  1  0
 22 38  1  0
 22 39  1  0
 26 40  1  0
 27 41  1  0
 28 42  1  0
 29 43  1  0
 30 44  1  0
 30 45  1  0
 30 46  1  0
 31 47  1  0
 31 48  1  0
 31 49  1  0
 32 50  1  0
 32 51  1  0
 32 52  1  0
M  CHG  1  16  -1
M  END
> <Uni-Dock RESULT> 
ENERGY=   -4.349  LOWER_BOUND=    4.455  UPPER_BOUND=    6.158
INTER + INTRA:          -4.349
INTER:                  -4.349
INTRA:                   0.000
UNBOUND:                 0.000

$$$$

     RDKit          3D

 52 54  0  0  0  0  0  0  0  0999 V2000
   46.0929    9.2768   12.4153 C   0  0  0  0  0  0  0  0  0  0  0  0
   45.5514    7.9911   12.4271 C   0  0  0  0  0  0  0  0  0  0  0  0
   48.0742    8.4644   13.4750 C   0  0  0  0  0  0  0  0  0  0  0  0
   47.3327    9.4654   12.9231 N   0  0  0  0  0  0  0  0  0  0  0  0
   47.5693    7.1720   13.4664 N   0  0  0  0  0  0  0  0  0  0  0  0
   46.3010    6.9503   12.9777 C   0  0  0  0  0  0  0  0  0  0  0  0
   49.3829    7.5282   17.6836 C   0  0  0  0  0  0  0  0  0  0  0  0
   50.5379    6.8501   17.8281 N   0  0  0  0  0  0  0  0  0  0  0  0
   48.6834    7.5183   18.7931 O   0  0  0  0  0  0  0  0  0  0  0  0
   48.9575    8.1937   16.4457 C   0  0  0  0  0  0  0  0  0  0  0  0
   49.4664    8.8502   14.0128 C   0  0  0  0  0  0  0  0  0  0  0  0
   50.5535    6.4035   19.0743 N   0  0  0  0  0  0  0  0  0  0  0  0
   45.3775   10.4379   11.8491 C   0  0  0  0  0  0  0  0  0  0  0  0
   49.7844    8.1444   15.2678 N   0  0  0  0  0  0  0  0  0  0  0  0
   49.4052    6.8229   19.6382 C   0  0  0  0  0  0  0  0  0  0  0  0
   44.3018    7.7270   11.8730 O   0  0  0  0  0  0  0  0  0  0  0  0
   43.9518   10.5608   11.9567 N   0  0  0  0  0  0  0  0  0  0  0  0
   45.7900    5.7958   13.0119 O   0  0  0  0  0  0  0  0  0  0  0  0
   47.8483    8.7918   16.4247 O   0  0  0  0  0  0  0  0  0  0  0  0
   46.0451   11.3575   11.3021 O   0  0  0  0  0  0  0  0  0  0  0  0
   48.3015    6.0172   14.0252 C   0  0  0  0  0  0  0  0  0  0  0  0
   43.2235   11.6065   11.2397 C   0  0  0  0  0  0  0  0  0  0  0  0
   39.0009   11.1842   11.9965 C   0  0  0  0  0  0  0  0  0  0  0  0
   41.7439   11.4842   11.4849 C   0  0  0  0  0  0  0  0  0  0  0  0
   37.6750   11.0421   12.2413 F   0  0  0  0  0  0  0  0  0  0  0  0
   39.5965   10.4831   10.9438 C   0  0  0  0  0  0  0  0  0  0  0  0
   39.7741   12.0267   12.8008 C   0  0  0  0  0  0  0  0  0  0  0  0
   40.9644   10.6269   10.6909 C   0  0  0  0  0  0  0  0  0  0  0  0
   41.1423   12.1728   12.5512 C   0  0  0  0  0  0  0  0  0  0  0  0
   49.5538   10.3708   14.2976 C   0  0  0  0  0  0  0  0  0  0  0  0
   50.5248    8.5319   12.9331 C   0  0  0  0  0  0  0  0  0  0  0  0
   49.0244    6.5616   21.0550 C   0  0  0  0  0  0  0  0  0  0  0  0
   50.6843    7.6151   15.3277 H   0  0  0  0  0  0  0  0  0  0  0  0
   43.4352    9.9307   12.6116 H   0  0  0  0  0  0  0  0  0  0  0  0
   48.0539    5.8989   15.1006 H   0  0  0  0  0  0  0  0  0  0  0  0
   48.0354    5.0756   13.4991 H   0  0  0  0  0  0  0  0  0  0  0  0
   49.3925    6.1020   13.8996 H   0  0  0  0  0  0  0  0  0  0  0  0
   43.4301   11.5191   10.1506 H   0  0  0  0  0  0  0  0  0  0  0  0
   43.5850   12.6043   11.5715 H   0  0  0  0  0  0  0  0  0  0  0  0
   39.0000    9.8247   10.3254 H   0  0  0  0  0  0  0  0  0  0  0  0
   39.3150   12.5639   13.6208 H   0  0  0  0  0  0  0  0  0  0  0  0
   41.4160   10.0701    9.8792 H   0  0  0  0  0  0  0  0  0  0  0  0
   41.7320   12.8202   13.1883 H   0  0  0  0  0  0  0  0  0  0  0  0
   50.5304   10.6197   14.7665 H   0  0  0  0  0  0  0  0  0  0  0  0
   49.4630   10.9630   13.3609 H   0  0  0  0  0  0  0  0  0  0  0  0
   48.7481   10.6982   14.9871 H   0  0  0  0  0  0  0  0  0  0  0  0
   50.3217    9.1125   12.0069 H   0  0  0  0  0  0  0  0  0  0  0  0
   50.5349    7.4612   12.6541 H   0  0  0  0  0  0  0  0  0  0  0  0
   51.5413    8.7996   13.2946 H   0  0  0  0  0  0  0  0  0  0  0  0
   49.3622    5.5479   21.3563 H   0  0  0  0  0  0  0  0  0  0  0  0
   47.9218    6.6234   21.1669 H   0  0  0  0  0  0  0  0  0  0  0  0
   49.5018    7.3183   21.7115 H   0  0  0  0  0  0  0  0  0  0  0  0
  2  1  2  0
  3  4  2  0
  4  1  1  0
  5  6  1  0
  6  2  1  0
  7 10  1  0
  8  7  2  0
  9  7  1  0
 10 14  1  0
 11  3  1  0
 12  8  1  0
 13  1  1  0
 14 11  1  0
 15  9  1  0
 16  2  1  0
 17 13  1  0
 18  6  2  0
 19 10  2  0
 20 13  2  0
 21  5  1  0
 22 17  1  0
 23 26  2  0
 24 22  1  0
 25 23  1  0
 26 28  1  0
 27 29  2  0
 28 24  2  0
 29 24  1  0
 30 11  1  0
 31 11  1  0
 32 15  1  0
  5  3  1  0
 27 23  1  0
 12 15  2  0
 14 33  1  0
 17 34  1  0
 21 35  1  0
 21 36  1  0
 21 37  1  0
 22 38  1  0
 22 39  1  0
 26 40  1  0
 27 41  1  0
 28 42  1  0
 29 43  1  0
 30 44  1  0
 30 45  1  0
 30 46  1  0
 31 47  1  0
 31 48  1  0
 31 49  1  0
 32 50  1  0
 32 51  1  0
 32 52  1  0
M  CHG  1  16  -1
M  END
> <Uni-Dock RESULT> 
ENERGY=   -4.148  LOWER_BOUND=    5.700  UPPER_BOUND=    7.220
INTER + INTRA:          -4.148
INTER:                  -4.148
INTRA:                   0.000
UNBOUND:                 0.000

$$$$

     RDKit          3D

 52 54  0  0  0  0  0  0  0  0999 V2000
   43.6031   10.6219   11.4268 C   0  0  0  0  0  0  0  0  0  0  0  0
   42.2799   10.3735   11.0609 C   0  0  0  0  0  0  0  0  0  0  0  0
   43.2550   12.9677   11.1366 C   0  0  0  0  0  0  0  0  0  0  0  0
   44.0381   11.9024   11.4656 N   0  0  0  0  0  0  0  0  0  0  0  0
   41.9265   12.7465   10.8028 N   0  0  0  0  0  0  0  0  0  0  0  0
   41.4589   11.4532   10.7317 C   0  0  0  0  0  0  0  0  0  0  0  0
   43.2510   15.8716    7.6915 C   0  0  0  0  0  0  0  0  0  0  0  0
   42.7654   17.1050    7.9321 N   0  0  0  0  0  0  0  0  0  0  0  0
   43.3448   15.6400    6.4039 O   0  0  0  0  0  0  0  0  0  0  0  0
   43.6276   14.9074    8.7330 C   0  0  0  0  0  0  0  0  0  0  0  0
   43.9076   14.3612   11.2295 C   0  0  0  0  0  0  0  0  0  0  0  0
   42.5504   17.6573    6.7483 N   0  0  0  0  0  0  0  0  0  0  0  0
   44.5434    9.5451   11.7971 C   0  0  0  0  0  0  0  0  0  0  0  0
   43.4807   15.2412   10.1260 N   0  0  0  0  0  0  0  0  0  0  0  0
   42.9088   16.7370    5.8335 C   0  0  0  0  0  0  0  0  0  0  0  0
   41.7619    9.0812   11.0522 O   0  0  0  0  0  0  0  0  0  0  0  0
   44.4961    8.2610   11.1583 N   0  0  0  0  0  0  0  0  0  0  0  0
   40.2717   11.2161   10.3719 O   0  0  0  0  0  0  0  0  0  0  0  0
   44.0627   13.7759    8.3883 O   0  0  0  0  0  0  0  0  0  0  0  0
   45.4318    9.7820   12.6603 O   0  0  0  0  0  0  0  0  0  0  0  0
   40.9933   13.8347   10.4465 C   0  0  0  0  0  0  0  0  0  0  0  0
   45.2956    7.1391   11.6484 C   0  0  0  0  0  0  0  0  0  0  0  0
   44.4652    3.6430    9.2674 C   0  0  0  0  0  0  0  0  0  0  0  0
   45.0261    5.9020   10.8353 C   0  0  0  0  0  0  0  0  0  0  0  0
   44.1964    2.5497    8.5121 F   0  0  0  0  0  0  0  0  0  0  0  0
   43.6740    3.9340   10.3827 C   0  0  0  0  0  0  0  0  0  0  0  0
   45.5293    4.4835    8.9272 C   0  0  0  0  0  0  0  0  0  0  0  0
   43.9485    5.0624   11.1619 C   0  0  0  0  0  0  0  0  0  0  0  0
   45.8067    5.6130    9.7038 C   0  0  0  0  0  0  0  0  0  0  0  0
   45.4528   14.2595   11.1741 C   0  0  0  0  0  0  0  0  0  0  0  0
   43.5456   14.9925   12.5925 C   0  0  0  0  0  0  0  0  0  0  0  0
   42.8527   16.9554    4.3604 C   0  0  0  0  0  0  0  0  0  0  0  0
   43.0922   16.1832   10.3615 H   0  0  0  0  0  0  0  0  0  0  0  0
   43.9288    8.1468   10.2878 H   0  0  0  0  0  0  0  0  0  0  0  0
   41.0343   14.0232    9.3536 H   0  0  0  0  0  0  0  0  0  0  0  0
   39.9474   13.5768   10.7183 H   0  0  0  0  0  0  0  0  0  0  0  0
   41.1964   14.7681   10.9952 H   0  0  0  0  0  0  0  0  0  0  0  0
   45.0461    6.9468   12.7148 H   0  0  0  0  0  0  0  0  0  0  0  0
   46.3747    7.4026   11.5978 H   0  0  0  0  0  0  0  0  0  0  0  0
   42.8452    3.2879   10.6422 H   0  0  0  0  0  0  0  0  0  0  0  0
   46.1375    4.2630    8.0593 H   0  0  0  0  0  0  0  0  0  0  0  0
   43.3217    5.2827   12.0171 H   0  0  0  0  0  0  0  0  0  0  0  0
   46.6273    6.2617    9.4232 H   0  0  0  0  0  0  0  0  0  0  0  0
   45.9054   15.2746   11.1529 H   0  0  0  0  0  0  0  0  0  0  0  0
   45.8544   13.7240   12.0619 H   0  0  0  0  0  0  0  0  0  0  0  0
   45.7881   13.7147   10.2672 H   0  0  0  0  0  0  0  0  0  0  0  0
   43.9231   14.3607   13.4257 H   0  0  0  0  0  0  0  0  0  0  0  0
   42.4532   15.1008   12.7310 H   0  0  0  0  0  0  0  0  0  0  0  0
   44.0030   16.0012   12.6871 H   0  0  0  0  0  0  0  0  0  0  0  0
   41.9605   17.5635    4.1022 H   0  0  0  0  0  0  0  0  0  0  0  0
   42.7888   15.9789    3.8364 H   0  0  0  0  0  0  0  0  0  0  0  0
   43.7686   17.4882    4.0308 H   0  0  0  0  0  0  0  0  0  0  0  0
  2  1  2  0
  3  4  2  0
  4  1  1  0
  5  6  1  0
  6  2  1  0
  7 10  1  0
  8  7  2  0
  9  7  1  0
 10 14  1  0
 11  3  1  0
 12  8  1  0
 13  1  1  0
 14 11  1  0
 15  9  1  0
 16  2  1  0
 17 13  1  0
 18  6  2  0
 19 10  2  0
 20 13  2  0
 21  5  1  0
 22 17  1  0
 23 26  2  0
 24 22  1  0
 25 23  1  0
 26 28  1  0
 27 29  2  0
 28 24  2  0
 29 24  1  0
 30 11  1  0
 31 11  1  0
 32 15  1  0
  5  3  1  0
 27 23  1  0
 12 15  2  0
 14 33  1  0
 17 34  1  0
 21 35  1  0
 21 36  1  0
 21 37  1  0
 22 38  1  0
 22 39  1  0
 26 40  1  0
 27 41  1  0
 28 42  1  0
 29 43  1  0
 30 44  1  0
 30 45  1  0
 30 46  1  0
 31 47  1  0
 31 48  1  0
 31 49  1  0
 32 50  1  0
 32 51  1  0
 32 52  1  0
M  CHG  1  16  -1
M  END
> <Uni-Dock RESULT> 
ENERGY=   -4.138  LOWER_BOUND=    8.680  UPPER_BOUND=   12.178
INTER + INTRA:          -4.138
INTER:                  -4.138
INTRA:                   0.000
UNBOUND:                 0.000

$$$$

     RDKit          3D

 52 54  0  0  0  0  0  0  0  0999 V2000
   48.0817    9.6926   18.7817 C   0  0  0  0  0  0  0  0  0  0  0  0
   48.1880    9.9031   17.4066 C   0  0  0  0  0  0  0  0  0  0  0  0
   48.7953   11.9355   19.1918 C   0  0  0  0  0  0  0  0  0  0  0  0
   48.3733   10.7131   19.6207 N   0  0  0  0  0  0  0  0  0  0  0  0
   48.8754   12.1775   17.8278 N   0  0  0  0  0  0  0  0  0  0  0  0
   48.6076   11.1527   16.9477 C   0  0  0  0  0  0  0  0  0  0  0  0
   52.7265   14.1239   19.4345 C   0  0  0  0  0  0  0  0  0  0  0  0
   52.6766   15.4699   19.4563 N   0  0  0  0  0  0  0  0  0  0  0  0
   53.9378   13.6970   19.1685 O   0  0  0  0  0  0  0  0  0  0  0  0
   51.5759   13.2441   19.6763 C   0  0  0  0  0  0  0  0  0  0  0  0
   49.0902   12.9869   20.2799 C   0  0  0  0  0  0  0  0  0  0  0  0
   53.9036   15.8918   19.1935 N   0  0  0  0  0  0  0  0  0  0  0  0
   47.6407    8.4072   19.3597 C   0  0  0  0  0  0  0  0  0  0  0  0
   50.2759   13.7993   19.9504 N   0  0  0  0  0  0  0  0  0  0  0  0
   54.6514   14.7863   19.0172 C   0  0  0  0  0  0  0  0  0  0  0  0
   47.8526    8.9067   16.4940 O   0  0  0  0  0  0  0  0  0  0  0  0
   47.9862    7.1562   18.7473 N   0  0  0  0  0  0  0  0  0  0  0  0
   48.7305   11.3241   15.7024 O   0  0  0  0  0  0  0  0  0  0  0  0
   51.7401   11.9958   19.6204 O   0  0  0  0  0  0  0  0  0  0  0  0
   46.9867    8.4164   20.4379 O   0  0  0  0  0  0  0  0  0  0  0  0
   49.3063   13.4727   17.2632 C   0  0  0  0  0  0  0  0  0  0  0  0
   47.3990    5.8983   19.2065 C   0  0  0  0  0  0  0  0  0  0  0  0
   48.8564    2.6625   16.7596 C   0  0  0  0  0  0  0  0  0  0  0  0
   47.8899    4.7484   18.3693 C   0  0  0  0  0  0  0  0  0  0  0  0
   49.3211    1.6525   15.9838 F   0  0  0  0  0  0  0  0  0  0  0  0
   47.7205    3.3780   16.3694 C   0  0  0  0  0  0  0  0  0  0  0  0
   49.5168    2.9932   17.9466 C   0  0  0  0  0  0  0  0  0  0  0  0
   47.2407    4.4215   17.1673 C   0  0  0  0  0  0  0  0  0  0  0  0
   49.0402    4.0363   18.7470 C   0  0  0  0  0  0  0  0  0  0  0  0
   49.3521   12.3140   21.6509 C   0  0  0  0  0  0  0  0  0  0  0  0
   47.8488   13.8907   20.4508 C   0  0  0  0  0  0  0  0  0  0  0  0
   56.1128   14.8022   18.7261 C   0  0  0  0  0  0  0  0  0  0  0  0
   50.1851   14.8411   19.9618 H   0  0  0  0  0  0  0  0  0  0  0  0
   48.7204    7.1399   18.0035 H   0  0  0  0  0  0  0  0  0  0  0  0
   50.4083   13.4782   17.1319 H   0  0  0  0  0  0  0  0  0  0  0  0
   48.8351   13.6607   16.2748 H   0  0  0  0  0  0  0  0  0  0  0  0
   48.9987   14.3312   17.8809 H   0  0  0  0  0  0  0  0  0  0  0  0
   46.2910    5.9627   19.1397 H   0  0  0  0  0  0  0  0  0  0  0  0
   47.6625    5.7339   20.2742 H   0  0  0  0  0  0  0  0  0  0  0  0
   47.2131    3.1276   15.4466 H   0  0  0  0  0  0  0  0  0  0  0  0
   50.4009    2.4447   18.2454 H   0  0  0  0  0  0  0  0  0  0  0  0
   46.3661    4.9751   16.8487 H   0  0  0  0  0  0  0  0  0  0  0  0
   49.5673    4.2893   19.6586 H   0  0  0  0  0  0  0  0  0  0  0  0
   49.6494   13.0758   22.4038 H   0  0  0  0  0  0  0  0  0  0  0  0
   48.4423   11.7973   22.0274 H   0  0  0  0  0  0  0  0  0  0  0  0
   50.1663   11.5630   21.5818 H   0  0  0  0  0  0  0  0  0  0  0  0
   46.9684   13.2869   20.7611 H   0  0  0  0  0  0  0  0  0  0  0  0
   47.5751   14.4138   19.5149 H   0  0  0  0  0  0  0  0  0  0  0  0
   48.0334   14.6611   21.2305 H   0  0  0  0  0  0  0  0  0  0  0  0
   56.3558   15.6550   18.0581 H   0  0  0  0  0  0  0  0  0  0  0  0
   56.4084   13.8560   18.2268 H   0  0  0  0  0  0  0  0  0  0  0  0
   56.6775   14.9068   19.6757 H   0  0  0  0  0  0  0  0  0  0  0  0
  2  1  2  0
  3  4  2  0
  4  1  1  0
  5  6  1  0
  6  2  1  0
  7 10  1  0
  8  7  2  0
  9  7  1  0
 10 14  1  0
 11  3  1  0
 12  8  1  0
 13  1  1  0
 14 11  1  0
 15  9  1  0
 16  2  1  0
 17 13  1  0
 18  6  2  0
 19 10  2  0
 20 13  2  0
 21  5  1  0
 22 17  1  0
 23 26  2  0
 24 22  1  0
 25 23  1  0
 26 28  1  0
 27 29  2  0
 28 24  2  0
 29 24  1  0
 30 11  1  0
 31 11  1  0
 32 15  1  0
  5  3  1  0
 27 23  1  0
 12 15  2  0
 14 33  1  0
 17 34  1  0
 21 35  1  0
 21 36  1  0
 21 37  1  0
 22 38  1  0
 22 39  1  0
 26 40  1  0
 27 41  1  0
 28 42  1  0
 29 43  1  0
 30 44  1  0
 30 45  1  0
 30 46  1  0
 31 47  1  0
 31 48  1  0
 31 49  1  0
 32 50  1  0
 32 51  1  0
 32 52  1  0
M  CHG  1  16  -1
M  END
> <Uni-Dock RESULT> 
ENERGY=   -4.080  LOWER_BOUND=    6.815  UPPER_BOUND=    9.288
INTER + INTRA:          -4.080
INTER:                  -4.080
INTRA:                   0.000
UNBOUND:                 0.000

$$$$

     RDKit          3D

 52 54  0  0  0  0  0  0  0  0999 V2000
   43.5288   10.3641   11.2945 C   0  0  0  0  0  0  0  0  0  0  0  0
   44.3374   11.5010   11.2989 C   0  0  0  0  0  0  0  0  0  0  0  0
   41.5755   11.7392   11.3369 C   0  0  0  0  0  0  0  0  0  0  0  0
   42.1850   10.5212   11.2992 N   0  0  0  0  0  0  0  0  0  0  0  0
   42.3597   12.8835   11.3074 N   0  0  0  0  0  0  0  0  0  0  0  0
   43.7309   12.7579   11.3255 C   0  0  0  0  0  0  0  0  0  0  0  0
   39.1744   13.9139   14.4686 C   0  0  0  0  0  0  0  0  0  0  0  0
   38.2504   14.7910   14.0307 N   0  0  0  0  0  0  0  0  0  0  0  0
   39.4265   14.0856   15.7442 O   0  0  0  0  0  0  0  0  0  0  0  0
   39.8192   12.8957   13.6297 C   0  0  0  0  0  0  0  0  0  0  0  0
   40.0340   11.7417   11.3424 C   0  0  0  0  0  0  0  0  0  0  0  0
   37.9184   15.5337   15.0752 N   0  0  0  0  0  0  0  0  0  0  0  0
   44.0795    8.9943   11.2609 C   0  0  0  0  0  0  0  0  0  0  0  0
   39.4905   12.7846   12.2321 N   0  0  0  0  0  0  0  0  0  0  0  0
   38.6567   15.0830   16.1067 C   0  0  0  0  0  0  0  0  0  0  0  0
   45.7250   11.4023   11.2433 O   0  0  0  0  0  0  0  0  0  0  0  0
   45.3007    8.6643   11.9384 N   0  0  0  0  0  0  0  0  0  0  0  0
   44.4713   13.7805   11.3605 O   0  0  0  0  0  0  0  0  0  0  0  0
   40.6792   12.1337   14.1476 O   0  0  0  0  0  0  0  0  0  0  0  0
   43.4336    8.0924   10.6610 O   0  0  0  0  0  0  0  0  0  0  0  0
   41.7948   14.2482   11.3288 C   0  0  0  0  0  0  0  0  0  0  0  0
   45.9440    7.3643   11.7540 C   0  0  0  0  0  0  0  0  0  0  0  0
   49.6074    7.2467   14.0229 C   0  0  0  0  0  0  0  0  0  0  0  0
   47.2281    7.2937   12.5353 C   0  0  0  0  0  0  0  0  0  0  0  0
   50.7575    7.2207   14.7402 F   0  0  0  0  0  0  0  0  0  0  0  0
   49.6083    7.7494   12.7183 C   0  0  0  0  0  0  0  0  0  0  0  0
   48.4189    6.7772   14.5899 C   0  0  0  0  0  0  0  0  0  0  0  0
   48.4225    7.7789   11.9775 C   0  0  0  0  0  0  0  0  0  0  0  0
   47.2311    6.8053   13.8523 C   0  0  0  0  0  0  0  0  0  0  0  0
   39.4746   10.3794   11.8243 C   0  0  0  0  0  0  0  0  0  0  0  0
   39.5295   11.9507    9.8970 C   0  0  0  0  0  0  0  0  0  0  0  0
   38.5776   15.6255   17.4924 C   0  0  0  0  0  0  0  0  0  0  0  0
   38.7890   13.4556   11.8432 H   0  0  0  0  0  0  0  0  0  0  0  0
   45.7001    9.3430   12.6259 H   0  0  0  0  0  0  0  0  0  0  0  0
   41.6772   14.5907   12.3779 H   0  0  0  0  0  0  0  0  0  0  0  0
   42.4536   14.9679   10.7975 H   0  0  0  0  0  0  0  0  0  0  0  0
   40.8302   14.3194   10.8016 H   0  0  0  0  0  0  0  0  0  0  0  0
   46.1551    7.2075   10.6735 H   0  0  0  0  0  0  0  0  0  0  0  0
   45.2520    6.5581   12.0818 H   0  0  0  0  0  0  0  0  0  0  0  0
   50.5266    8.1203   12.2814 H   0  0  0  0  0  0  0  0  0  0  0  0
   48.4160    6.3950   15.6026 H   0  0  0  0  0  0  0  0  0  0  0  0
   48.4342    8.1806   10.9718 H   0  0  0  0  0  0  0  0  0  0  0  0
   46.3152    6.4485   14.3070 H   0  0  0  0  0  0  0  0  0  0  0  0
   38.3670   10.4250   11.9074 H   0  0  0  0  0  0  0  0  0  0  0  0
   39.7313    9.5634   11.1139 H   0  0  0  0  0  0  0  0  0  0  0  0
   39.8829   10.1058   12.8194 H   0  0  0  0  0  0  0  0  0  0  0  0
   39.8870   11.1296    9.2383 H   0  0  0  0  0  0  0  0  0  0  0  0
   39.8857   12.9023    9.4588 H   0  0  0  0  0  0  0  0  0  0  0  0
   38.4183   11.9580    9.8706 H   0  0  0  0  0  0  0  0  0  0  0  0
   38.4228   16.7244   17.4598 H   0  0  0  0  0  0  0  0  0  0  0  0
   39.5206   15.4092   18.0366 H   0  0  0  0  0  0  0  0  0  0  0  0
   37.7292   15.1506   18.0272 H   0  0  0  0  0  0  0  0  0  0  0  0
  2  1  2  0
  3  4  2  0
  4  1  1  0
  5  6  1  0
  6  2  1  0
  7 10  1  0
  8  7  2  0
  9  7  1  0
 10 14  1  0
 11  3  1  0
 12  8  1  0
 13  1  1  0
 14 11  1  0
 15  9  1  0
 16  2  1  0
 17 13  1  0
 18  6  2  0
 19 10  2  0
 20 13  2  0
 21  5  1  0
 22 17  1  0
 23 26  2  0
 24 22  1  0
 25 23  1  0
 26 28  1  0
 27 29  2  0
 28 24  2  0
 29 24  1  0
 30 11  1  0
 31 11  1  0
 32 15  1  0
  5  3  1  0
 27 23  1  0
 12 15  2  0
 14 33  1  0
 17 34  1  0
 21 35  1  0
 21 36  1  0
 21 37  1  0
 22 38  1  0
 22 39  1  0
 26 40  1  0
 27 41  1  0
 28 42  1  0
 29 43  1  0
 30 44  1  0
 30 45  1  0
 30 46  1  0
 31 47  1  0
 31 48  1  0
 31 49  1  0
 32 50  1  0
 32 51  1  0
 32 52  1  0
M  CHG  1  16  -1
M  END
> <Uni-Dock RESULT> 
ENERGY=   -3.917  LOWER_BOUND=    8.633  UPPER_BOUND=   11.781
INTER + INTRA:          -3.917
INTER:                  -3.917
INTRA:                   0.000
UNBOUND:                 0.000

$$$$

     RDKit          3D

 52 54  0  0  0  0  0  0  0  0999 V2000
   49.6702    8.1304   16.1444 C   0  0  0  0  0  0  0  0  0  0  0  0
   49.5423    9.3769   16.7578 C   0  0  0  0  0  0  0  0  0  0  0  0
   49.1166    9.1002   14.0323 C   0  0  0  0  0  0  0  0  0  0  0  0
   49.4683    8.0381   14.8098 N   0  0  0  0  0  0  0  0  0  0  0  0
   49.0172   10.3554   14.6155 N   0  0  0  0  0  0  0  0  0  0  0  0
   49.1940   10.4792   15.9755 C   0  0  0  0  0  0  0  0  0  0  0  0
   45.3455   10.2291   11.8398 C   0  0  0  0  0  0  0  0  0  0  0  0
   45.4845   10.9864   10.7344 N   0  0  0  0  0  0  0  0  0  0  0  0
   44.1023   10.2206   12.2575 O   0  0  0  0  0  0  0  0  0  0  0  0
   46.4417    9.5052   12.4962 C   0  0  0  0  0  0  0  0  0  0  0  0
   48.9199    8.8222   12.5288 C   0  0  0  0  0  0  0  0  0  0  0  0
   44.2814   11.4647   10.4578 N   0  0  0  0  0  0  0  0  0  0  0  0
   50.0406    6.9099   16.8887 C   0  0  0  0  0  0  0  0  0  0  0  0
   47.7821    9.5795   11.9754 N   0  0  0  0  0  0  0  0  0  0  0  0
   43.4582   10.9841   11.4084 C   0  0  0  0  0  0  0  0  0  0  0  0
   49.7875    9.5426   18.1182 O   0  0  0  0  0  0  0  0  0  0  0  0
   49.5978    6.6948   18.2366 N   0  0  0  0  0  0  0  0  0  0  0  0
   49.0504   11.5974   16.5448 O   0  0  0  0  0  0  0  0  0  0  0  0
   46.1943    8.8340   13.5339 O   0  0  0  0  0  0  0  0  0  0  0  0
   50.7216    6.0234   16.3050 O   0  0  0  0  0  0  0  0  0  0  0  0
   48.6579   11.5704   13.8562 C   0  0  0  0  0  0  0  0  0  0  0  0
   50.1126    5.5848   19.0370 C   0  0  0  0  0  0  0  0  0  0  0  0
   48.3824    5.7431   22.9820 C   0  0  0  0  0  0  0  0  0  0  0  0
   49.5255    5.6142   20.4222 C   0  0  0  0  0  0  0  0  0  0  0  0
   47.8323    5.8025   24.2197 F   0  0  0  0  0  0  0  0  0  0  0  0
   49.5524    6.4553   22.7021 C   0  0  0  0  0  0  0  0  0  0  0  0
   47.7762    4.9750   21.9835 C   0  0  0  0  0  0  0  0  0  0  0  0
   50.1203    6.3968   21.4255 C   0  0  0  0  0  0  0  0  0  0  0  0
   48.3410    4.9143   20.7056 C   0  0  0  0  0  0  0  0  0  0  0  0
   48.6501    7.3186   12.2691 C   0  0  0  0  0  0  0  0  0  0  0  0
   50.2221    9.1828   11.7795 C   0  0  0  0  0  0  0  0  0  0  0  0
   41.9939   11.2555   11.4626 C   0  0  0  0  0  0  0  0  0  0  0  0
   47.9415   10.1692   11.1265 H   0  0  0  0  0  0  0  0  0  0  0  0
   48.8450    7.3055   18.6280 H   0  0  0  0  0  0  0  0  0  0  0  0
   47.5556   11.6993   13.8515 H   0  0  0  0  0  0  0  0  0  0  0  0
   49.1147   12.4784   14.3048 H   0  0  0  0  0  0  0  0  0  0  0  0
   49.0373   11.5555   12.8221 H   0  0  0  0  0  0  0  0  0  0  0  0
   51.2204    5.6579   19.0992 H   0  0  0  0  0  0  0  0  0  0  0  0
   49.8667    4.6221   18.5378 H   0  0  0  0  0  0  0  0  0  0  0  0
   50.0181    7.0564   23.4726 H   0  0  0  0  0  0  0  0  0  0  0  0
   46.8660    4.4295   22.1974 H   0  0  0  0  0  0  0  0  0  0  0  0
   51.0209    6.9616   21.2183 H   0  0  0  0  0  0  0  0  0  0  0  0
   47.8556    4.3243   19.9381 H   0  0  0  0  0  0  0  0  0  0  0  0
   48.4232    7.1476   11.1944 H   0  0  0  0  0  0  0  0  0  0  0  0
   49.5333    6.6979   12.5356 H   0  0  0  0  0  0  0  0  0  0  0  0
   47.7866    6.9558   12.8646 H   0  0  0  0  0  0  0  0  0  0  0  0
   51.0687    8.5665   12.1531 H   0  0  0  0  0  0  0  0  0  0  0  0
   50.5053   10.2443   11.9114 H   0  0  0  0  0  0  0  0  0  0  0  0
   50.1089    8.9930   10.6901 H   0  0  0  0  0  0  0  0  0  0  0  0
   41.7903   12.2969   11.1362 H   0  0  0  0  0  0  0  0  0  0  0  0
   41.6239   11.1230   12.5007 H   0  0  0  0  0  0  0  0  0  0  0  0
   41.4622   10.5495   10.7917 H   0  0  0  0  0  0  0  0  0  0  0  0
  2  1  2  0
  3  4  2  0
  4  1  1  0
  5  6  1  0
  6  2  1  0
  7 10  1  0
  8  7  2  0
  9  7  1  0
 10 14  1  0
 11  3  1  0
 12  8  1  0
 13  1  1  0
 14 11  1  0
 15  9  1  0
 16  2  1  0
 17 13  1  0
 18  6  2  0
 19 10  2  0
 20 13  2  0
 21  5  1  0
 22 17  1  0
 23 26  2  0
 24 22  1  0
 25 23  1  0
 26 28  1  0
 27 29  2  0
 28 24  2  0
 29 24  1  0
 30 11  1  0
 31 11  1  0
 32 15  1  0
  5  3  1  0
 27 23  1  0
 12 15  2  0
 14 33  1  0
 17 34  1  0
 21 35  1  0
 21 36  1  0
 21 37  1  0
 22 38  1  0
 22 39  1  0
 26 40  1  0
 27 41  1  0
 28 42  1  0
 29 43  1  0
 30 44  1  0
 30 45  1  0
 30 46  1  0
 31 47  1  0
 31 48  1  0
 31 49  1  0
 32 50  1  0
 32 51  1  0
 32 52  1  0
M  CHG  1  16  -1
M  END
> <Uni-Dock RESULT> 
ENERGY=   -3.755  LOWER_BOUND=    5.580  UPPER_BOUND=   10.650
INTER + INTRA:          -3.755
INTER:                  -3.755
INTRA:                   0.000
UNBOUND:                 0.000

$$$$
