
     RDKit          3D

 52 54  0  0  0  0  0  0  0  0999 V2000
   45.1410    9.0704   12.1732 C   0  0  0  0  0  0  0  0  0  0  0  0
   46.4208    9.0117   12.7248 C   0  0  0  0  0  0  0  0  0  0  0  0
   44.9857    6.6861   12.2503 C   0  0  0  0  0  0  0  0  0  0  0  0
   44.4631    7.9157   11.9793 N   0  0  0  0  0  0  0  0  0  0  0  0
   46.2853    6.6028   12.7284 N   0  0  0  0  0  0  0  0  0  0  0  0
   46.9785    7.7619   12.9976 C   0  0  0  0  0  0  0  0  0  0  0  0
   44.9338    2.5615    9.5025 C   0  0  0  0  0  0  0  0  0  0  0  0
   44.5778    1.3316    9.0837 N   0  0  0  0  0  0  0  0  0  0  0  0
   45.9823    3.0018    8.8488 O   0  0  0  0  0  0  0  0  0  0  0  0
   44.2367    3.3070   10.5583 C   0  0  0  0  0  0  0  0  0  0  0  0
   44.0834    5.4564   11.9886 C   0  0  0  0  0  0  0  0  0  0  0  0
   45.4386    0.9987    8.1346 N   0  0  0  0  0  0  0  0  0  0  0  0
   44.4750   10.3458   11.8395 C   0  0  0  0  0  0  0  0  0  0  0  0
   44.6883    4.6217   10.9324 N   0  0  0  0  0  0  0  0  0  0  0  0
   46.2818    2.0407    8.0093 C   0  0  0  0  0  0  0  0  0  0  0  0
   47.1272   10.1698   13.0389 O   0  0  0  0  0  0  0  0  0  0  0  0
   45.2206   11.4719   11.3545 N   0  0  0  0  0  0  0  0  0  0  0  0
   48.1329    7.7188   13.5084 O   0  0  0  0  0  0  0  0  0  0  0  0
   43.2434    2.7797   11.1264 O   0  0  0  0  0  0  0  0  0  0  0  0
   43.2205   10.4238   11.9431 O   0  0  0  0  0  0  0  0  0  0  0  0
   46.9372    5.3186   13.0534 C   0  0  0  0  0  0  0  0  0  0  0  0
   44.5982   12.7863   11.2027 C   0  0  0  0  0  0  0  0  0  0  0  0
   47.5517   15.6142    9.8378 C   0  0  0  0  0  0  0  0  0  0  0  0
   45.6063   13.7971   10.7267 C   0  0  0  0  0  0  0  0  0  0  0  0
   48.4887   16.4951    9.4085 F   0  0  0  0  0  0  0  0  0  0  0  0
   47.3809   15.3868   11.2066 C   0  0  0  0  0  0  0  0  0  0  0  0
   46.7603   14.9284    8.9115 C   0  0  0  0  0  0  0  0  0  0  0  0
   46.4161   14.4773   11.6512 C   0  0  0  0  0  0  0  0  0  0  0  0
   45.7945   14.0179    9.3524 C   0  0  0  0  0  0  0  0  0  0  0  0
   43.8878    4.6611   13.3058 C   0  0  0  0  0  0  0  0  0  0  0  0
   42.6870    5.9094   11.4923 C   0  0  0  0  0  0  0  0  0  0  0  0
   47.4331    2.0768    7.0639 C   0  0  0  0  0  0  0  0  0  0  0  0
   45.4615    5.0371   10.3631 H   0  0  0  0  0  0  0  0  0  0  0  0
   46.2095   11.3322   11.0459 H   0  0  0  0  0  0  0  0  0  0  0  0
   46.7056    5.0357   14.1017 H   0  0  0  0  0  0  0  0  0  0  0  0
   48.0410    5.3844   12.9458 H   0  0  0  0  0  0  0  0  0  0  0  0
   46.6442    4.5073   12.3662 H   0  0  0  0  0  0  0  0  0  0  0  0
   44.1773   13.1098   12.1796 H   0  0  0  0  0  0  0  0  0  0  0  0
   43.7560   12.7169   10.4801 H   0  0  0  0  0  0  0  0  0  0  0  0
   47.9984   15.9118   11.9240 H   0  0  0  0  0  0  0  0  0  0  0  0
   46.8970   15.0984    7.8512 H   0  0  0  0  0  0  0  0  0  0  0  0
   46.3012   14.3018   12.7137 H   0  0  0  0  0  0  0  0  0  0  0  0
   45.1952   13.4854    8.6243 H   0  0  0  0  0  0  0  0  0  0  0  0
   43.8343    5.3495   14.1770 H   0  0  0  0  0  0  0  0  0  0  0  0
   44.7019    3.9298   13.4745 H   0  0  0  0  0  0  0  0  0  0  0  0
   42.9432    4.0771   13.2969 H   0  0  0  0  0  0  0  0  0  0  0  0
   42.7774    6.4701   10.5367 H   0  0  0  0  0  0  0  0  0  0  0  0
   42.0209    5.0412   11.3070 H   0  0  0  0  0  0  0  0  0  0  0  0
   42.1928    6.5601   12.2465 H   0  0  0  0  0  0  0  0  0  0  0  0
   47.6990    3.1296    6.8336 H   0  0  0  0  0  0  0  0  0  0  0  0
   48.3065    1.5718    7.5258 H   0  0  0  0  0  0  0  0  0  0  0  0
   47.1644    1.5568    6.1205 H   0  0  0  0  0  0  0  0  0  0  0  0
  2  1  2  0
  3  4  2  0
  4  1  1  0
  5  6  1  0
  6  2  1  0
  7 10  1  0
  8  7  2  0
  9  7  1  0
 10 14  1  0
 11  3  1  0
 12  8  1  0
 13  1  1  0
 14 11  1  0
 15  9  1  0
 16  2  1  0
 17 13  1  0
 18  6  2  0
 19 10  2  0
 20 13  2  0
 21  5  1  0
 22 17  1  0
 23 26  2  0
 24 22  1  0
 25 23  1  0
 26 28  1  0
 27 29  2  0
 28 24  2  0
 29 24  1  0
 30 11  1  0
 31 11  1  0
 32 15  1  0
  5  3  1  0
 27 23  1  0
 12 15  2  0
 14 33  1  0
 17 34  1  0
 21 35  1  0
 21 36  1  0
 21 37  1  0
 22 38  1  0
 22 39  1  0
 26 40  1  0
 27 41  1  0
 28 42  1  0
 29 43  1  0
 30 44  1  0
 30 45  1  0
 30 46  1  0
 31 47  1  0
 31 48  1  0
 31 49  1  0
 32 50  1  0
 32 51  1  0
 32 52  1  0
M  CHG  1  16  -1
M  END
> <Uni-Dock RESULT> 
ENERGY=   -5.405  LOWER_BOUND=    0.000  UPPER_BOUND=    0.000
INTER + INTRA:          -5.405
INTER:                  -5.405
INTRA:                   0.000
UNBOUND:                 0.000

$$$$

     RDKit          3D

 52 54  0  0  0  0  0  0  0  0999 V2000
   44.7825   10.0690   11.7889 C   0  0  0  0  0  0  0  0  0  0  0  0
   46.1234   10.2000   12.1501 C   0  0  0  0  0  0  0  0  0  0  0  0
   45.0009    7.6883   11.7969 C   0  0  0  0  0  0  0  0  0  0  0  0
   44.2652    8.8265   11.6498 N   0  0  0  0  0  0  0  0  0  0  0  0
   46.3540    7.7993   12.0817 N   0  0  0  0  0  0  0  0  0  0  0  0
   46.8968    9.0472   12.2933 C   0  0  0  0  0  0  0  0  0  0  0  0
   45.1686    3.6487    8.9300 C   0  0  0  0  0  0  0  0  0  0  0  0
   44.9444    2.3853    8.5199 N   0  0  0  0  0  0  0  0  0  0  0  0
   46.0318    4.2558    8.1510 O   0  0  0  0  0  0  0  0  0  0  0  0
   44.5294    4.2609   10.1018 C   0  0  0  0  0  0  0  0  0  0  0  0
   44.2655    6.3383   11.6198 C   0  0  0  0  0  0  0  0  0  0  0  0
   45.6972    2.2042    7.4460 N   0  0  0  0  0  0  0  0  0  0  0  0
   43.8905   11.2312   11.6019 C   0  0  0  0  0  0  0  0  0  0  0  0
   44.8279    5.6237   10.4574 N   0  0  0  0  0  0  0  0  0  0  0  0
   46.3464    3.3657    7.2416 C   0  0  0  0  0  0  0  0  0  0  0  0
   46.6857   11.4482   12.4042 O   0  0  0  0  0  0  0  0  0  0  0  0
   44.3790   12.4664   11.0588 N   0  0  0  0  0  0  0  0  0  0  0  0
   48.1066    9.1749   12.6325 O   0  0  0  0  0  0  0  0  0  0  0  0
   43.7209    3.5778   10.7850 O   0  0  0  0  0  0  0  0  0  0  0  0
   42.6675   11.1129   11.8859 O   0  0  0  0  0  0  0  0  0  0  0  0
   47.2323    6.6262   12.2617 C   0  0  0  0  0  0  0  0  0  0  0  0
   43.5504   13.6712   11.0471 C   0  0  0  0  0  0  0  0  0  0  0  0
   45.8125   16.9423    9.3839 C   0  0  0  0  0  0  0  0  0  0  0  0
   44.3141   14.8328   10.4711 C   0  0  0  0  0  0  0  0  0  0  0  0
   46.5332   17.9639    8.8594 F   0  0  0  0  0  0  0  0  0  0  0  0
   45.8802   16.6698   10.7535 C   0  0  0  0  0  0  0  0  0  0  0  0
   45.0064   16.1570    8.5543 C   0  0  0  0  0  0  0  0  0  0  0  0
   45.1388   15.6154   11.2961 C   0  0  0  0  0  0  0  0  0  0  0  0
   44.2637   15.1015    9.0934 C   0  0  0  0  0  0  0  0  0  0  0  0
   44.3868    5.5019   12.9203 C   0  0  0  0  0  0  0  0  0  0  0  0
   42.7593    6.5779   11.3447 C   0  0  0  0  0  0  0  0  0  0  0  0
   47.3281    3.5940    6.1440 C   0  0  0  0  0  0  0  0  0  0  0  0
   45.4379    6.1623    9.8001 H   0  0  0  0  0  0  0  0  0  0  0  0
   45.3217   12.4860   10.6076 H   0  0  0  0  0  0  0  0  0  0  0  0
   47.2019    6.2946   13.3208 H   0  0  0  0  0  0  0  0  0  0  0  0
   48.2858    6.8634   12.0007 H   0  0  0  0  0  0  0  0  0  0  0  0
   46.9674    5.7903   11.5929 H   0  0  0  0  0  0  0  0  0  0  0  0
   43.2332   13.9105   12.0854 H   0  0  0  0  0  0  0  0  0  0  0  0
   42.6316   13.4838   10.4495 H   0  0  0  0  0  0  0  0  0  0  0  0
   46.5099   17.2726   11.3951 H   0  0  0  0  0  0  0  0  0  0  0  0
   44.9592   16.3626    7.4926 H   0  0  0  0  0  0  0  0  0  0  0  0
   45.2085   15.4076   12.3567 H   0  0  0  0  0  0  0  0  0  0  0  0
   43.6513   14.4943    8.4383 H   0  0  0  0  0  0  0  0  0  0  0  0
   44.3585    6.1600   13.8158 H   0  0  0  0  0  0  0  0  0  0  0  0
   45.3175    4.9024   12.9436 H   0  0  0  0  0  0  0  0  0  0  0  0
   43.5498    4.7792   13.0238 H   0  0  0  0  0  0  0  0  0  0  0  0
   42.6234    7.1607   10.4080 H   0  0  0  0  0  0  0  0  0  0  0  0
   42.2117    5.6202   11.2234 H   0  0  0  0  0  0  0  0  0  0  0  0
   42.2886    7.1326   12.1857 H   0  0  0  0  0  0  0  0  0  0  0  0
   47.3959    4.6787    5.9183 H   0  0  0  0  0  0  0  0  0  0  0  0
   48.3257    3.2228    6.4575 H   0  0  0  0  0  0  0  0  0  0  0  0
   47.0056    3.0536    5.2294 H   0  0  0  0  0  0  0  0  0  0  0  0
  2  1  2  0
  3  4  2  0
  4  1  1  0
  5  6  1  0
  6  2  1  0
  7 10  1  0
  8  7  2  0
  9  7  1  0
 10 14  1  0
 11  3  1  0
 12  8  1  0
 13  1  1  0
 14 11  1  0
 15  9  1  0
 16  2  1  0
 17 13  1  0
 18  6  2  0
 19 10  2  0
 20 13  2  0
 21  5  1  0
 22 17  1  0
 23 26  2  0
 24 22  1  0
 25 23  1  0
 26 28  1  0
 27 29  2  0
 28 24  2  0
 29 24  1  0
 30 11  1  0
 31 11  1  0
 32 15  1  0
  5  3  1  0
 27 23  1  0
 12 15  2  0
 14 33  1  0
 17 34  1  0
 21 35  1  0
 21 36  1  0
 21 37  1  0
 22 38  1  0
 22 39  1  0
 26 40  1  0
 27 41  1  0
 28 42  1  0
 29 43  1  0
 30 44  1  0
 30 45  1  0
 30 46  1  0
 31 47  1  0
 31 48  1  0
 31 49  1  0
 32 50  1  0
 32 51  1  0
 32 52  1  0
M  CHG  1  16  -1
M  END
> <Uni-Dock RESULT> 
ENERGY=   -4.756  LOWER_BOUND=    1.449  UPPER_BOUND=    1.486
INTER + INTRA:          -4.756
INTER:                  -4.756
INTRA:                   0.000
UNBOUND:                 0.000

$$$$

     RDKit          3D

 52 54  0  0  0  0  0  0  0  0999 V2000
   47.9260    8.0470   13.3748 C   0  0  0  0  0  0  0  0  0  0  0  0
   49.0241    7.7668   12.5616 C   0  0  0  0  0  0  0  0  0  0  0  0
   49.3781    8.9550   15.0427 C   0  0  0  0  0  0  0  0  0  0  0  0
   48.1375    8.6493   14.5678 N   0  0  0  0  0  0  0  0  0  0  0  0
   50.4874    8.6155   14.2820 N   0  0  0  0  0  0  0  0  0  0  0  0
   50.3036    8.0606   13.0350 C   0  0  0  0  0  0  0  0  0  0  0  0
   51.3033    8.2063   19.5482 C   0  0  0  0  0  0  0  0  0  0  0  0
   51.7363    8.4801   20.7941 N   0  0  0  0  0  0  0  0  0  0  0  0
   51.6019    6.9775   19.1999 O   0  0  0  0  0  0  0  0  0  0  0  0
   50.5926    9.1654   18.6929 C   0  0  0  0  0  0  0  0  0  0  0  0
   49.4596    9.6557   16.4201 C   0  0  0  0  0  0  0  0  0  0  0  0
   52.3247    7.3785   21.2333 N   0  0  0  0  0  0  0  0  0  0  0  0
   46.5367    7.7595   12.9644 C   0  0  0  0  0  0  0  0  0  0  0  0
   50.1618    8.7767   17.3754 N   0  0  0  0  0  0  0  0  0  0  0  0
   52.2227    6.4759   20.2397 C   0  0  0  0  0  0  0  0  0  0  0  0
   48.8620    7.2392   11.2833 O   0  0  0  0  0  0  0  0  0  0  0  0
   46.2175    6.6106   12.1661 N   0  0  0  0  0  0  0  0  0  0  0  0
   51.2911    7.8148   12.2870 O   0  0  0  0  0  0  0  0  0  0  0  0
   50.3679   10.3257   19.1293 O   0  0  0  0  0  0  0  0  0  0  0  0
   45.6131    8.5190   13.3650 O   0  0  0  0  0  0  0  0  0  0  0  0
   51.8701    8.9071   14.7096 C   0  0  0  0  0  0  0  0  0  0  0  0
   44.8810    6.4248   11.6027 C   0  0  0  0  0  0  0  0  0  0  0  0
   44.8171    2.8194    9.2405 C   0  0  0  0  0  0  0  0  0  0  0  0
   44.8271    5.1719   10.7709 C   0  0  0  0  0  0  0  0  0  0  0  0
   44.8083    1.6836    8.5001 F   0  0  0  0  0  0  0  0  0  0  0  0
   45.1944    4.0320    8.6561 C   0  0  0  0  0  0  0  0  0  0  0  0
   44.4548    2.7770   10.5902 C   0  0  0  0  0  0  0  0  0  0  0  0
   45.2057    5.2043    9.4186 C   0  0  0  0  0  0  0  0  0  0  0  0
   44.4651    3.9473   11.3559 C   0  0  0  0  0  0  0  0  0  0  0  0
   50.1735   11.0244   16.2695 C   0  0  0  0  0  0  0  0  0  0  0  0
   48.0368    9.9176   16.9757 C   0  0  0  0  0  0  0  0  0  0  0  0
   52.7815    5.0959   20.3019 C   0  0  0  0  0  0  0  0  0  0  0  0
   50.3008    7.7750   17.1075 H   0  0  0  0  0  0  0  0  0  0  0  0
   46.9378    5.8637   12.0389 H   0  0  0  0  0  0  0  0  0  0  0  0
   52.1572    9.9272   14.3787 H   0  0  0  0  0  0  0  0  0  0  0  0
   52.5916    8.1833   14.2737 H   0  0  0  0  0  0  0  0  0  0  0  0
   52.0082    8.8069   15.7992 H   0  0  0  0  0  0  0  0  0  0  0  0
   44.6213    7.3032   10.9725 H   0  0  0  0  0  0  0  0  0  0  0  0
   44.1357    6.3694   12.4260 H   0  0  0  0  0  0  0  0  0  0  0  0
   45.4823    4.0642    7.6132 H   0  0  0  0  0  0  0  0  0  0  0  0
   44.1697    1.8372   11.0453 H   0  0  0  0  0  0  0  0  0  0  0  0
   45.5107    6.1354    8.9570 H   0  0  0  0  0  0  0  0  0  0  0  0
   44.1923    3.8991   12.4030 H   0  0  0  0  0  0  0  0  0  0  0  0
   49.9140   11.4990   15.2983 H   0  0  0  0  0  0  0  0  0  0  0  0
   51.2744   10.9290   16.3405 H   0  0  0  0  0  0  0  0  0  0  0  0
   49.8717   11.7354   17.0675 H   0  0  0  0  0  0  0  0  0  0  0  0
   47.4925    8.9589   17.1175 H   0  0  0  0  0  0  0  0  0  0  0  0
   48.0734   10.4284   17.9604 H   0  0  0  0  0  0  0  0  0  0  0  0
   47.4554   10.5629   16.2814 H   0  0  0  0  0  0  0  0  0  0  0  0
   52.2313    4.4343   19.6006 H   0  0  0  0  0  0  0  0  0  0  0  0
   53.8540    5.1185   20.0179 H   0  0  0  0  0  0  0  0  0  0  0  0
   52.6824    4.6936   21.3319 H   0  0  0  0  0  0  0  0  0  0  0  0
  2  1  2  0
  3  4  2  0
  4  1  1  0
  5  6  1  0
  6  2  1  0
  7 10  1  0
  8  7  2  0
  9  7  1  0
 10 14  1  0
 11  3  1  0
 12  8  1  0
 13  1  1  0
 14 11  1  0
 15  9  1  0
 16  2  1  0
 17 13  1  0
 18  6  2  0
 19 10  2  0
 20 13  2  0
 21  5  1  0
 22 17  1  0
 23 26  2  0
 24 22  1  0
 25 23  1  0
 26 28  1  0
 27 29  2  0
 28 24  2  0
 29 24  1  0
 30 11  1  0
 31 11  1  0
 32 15  1  0
  5  3  1  0
 27 23  1  0
 12 15  2  0
 14 33  1  0
 17 34  1  0
 21 35  1  0
 21 36  1  0
 21 37  1  0
 22 38  1  0
 22 39  1  0
 26 40  1  0
 27 41  1  0
 28 42  1  0
 29 43  1  0
 30 44  1  0
 30 45  1  0
 30 46  1  0
 31 47  1  0
 31 48  1  0
 31 49  1  0
 32 50  1  0
 32 51  1  0
 32 52  1  0
M  CHG  1  16  -1
M  END
> <Uni-Dock RESULT> 
ENERGY=   -4.521  LOWER_BOUND=    5.725  UPPER_BOUND=    9.865
INTER + INTRA:          -4.521
INTER:                  -4.521
INTRA:                   0.000
UNBOUND:                 0.000

$$$$

     RDKit          3D

 52 54  0  0  0  0  0  0  0  0999 V2000
   48.0114    8.0087   18.6347 C   0  0  0  0  0  0  0  0  0  0  0  0
   47.8822    7.9158   20.0204 C   0  0  0  0  0  0  0  0  0  0  0  0
   48.2774    5.6374   18.4889 C   0  0  0  0  0  0  0  0  0  0  0  0
   48.1787    6.8722   17.9198 N   0  0  0  0  0  0  0  0  0  0  0  0
   48.2271    5.5325   19.8712 N   0  0  0  0  0  0  0  0  0  0  0  0
   47.9929    6.6621   20.6234 C   0  0  0  0  0  0  0  0  0  0  0  0
   51.5133    1.9949   17.5794 C   0  0  0  0  0  0  0  0  0  0  0  0
   51.9999    0.8324   17.1035 N   0  0  0  0  0  0  0  0  0  0  0  0
   52.3690    2.5738   18.3875 O   0  0  0  0  0  0  0  0  0  0  0  0
   50.1922    2.5374   17.2375 C   0  0  0  0  0  0  0  0  0  0  0  0
   48.4538    4.4286   17.5389 C   0  0  0  0  0  0  0  0  0  0  0  0
   53.2027    0.6870   17.6372 N   0  0  0  0  0  0  0  0  0  0  0  0
   47.9218    9.2928   17.9105 C   0  0  0  0  0  0  0  0  0  0  0  0
   49.7623    3.7944   17.7920 N   0  0  0  0  0  0  0  0  0  0  0  0
   53.4031    1.7687   18.4132 C   0  0  0  0  0  0  0  0  0  0  0  0
   47.6097    9.0378   20.7987 O   0  0  0  0  0  0  0  0  0  0  0  0
   48.4181   10.5099   18.4862 N   0  0  0  0  0  0  0  0  0  0  0  0
   47.8623    6.5859   21.8773 O   0  0  0  0  0  0  0  0  0  0  0  0
   49.4474    1.8883   16.4557 O   0  0  0  0  0  0  0  0  0  0  0  0
   47.4388    9.3032   16.7455 O   0  0  0  0  0  0  0  0  0  0  0  0
   48.3223    4.2405   20.5793 C   0  0  0  0  0  0  0  0  0  0  0  0
   48.1639   11.8059   17.8584 C   0  0  0  0  0  0  0  0  0  0  0  0
   49.8701   14.9288   20.2915 C   0  0  0  0  0  0  0  0  0  0  0  0
   48.7485   12.9183   18.6862 C   0  0  0  0  0  0  0  0  0  0  0  0
   50.4105   15.9029   21.0644 F   0  0  0  0  0  0  0  0  0  0  0  0
   48.5679   14.4833   20.5370 C   0  0  0  0  0  0  0  0  0  0  0  0
   50.6172   14.3651   19.2528 C   0  0  0  0  0  0  0  0  0  0  0  0
   48.0094   13.4774   19.7419 C   0  0  0  0  0  0  0  0  0  0  0  0
   50.0621   13.3589   18.4557 C   0  0  0  0  0  0  0  0  0  0  0  0
   47.2844    3.4298   17.7402 C   0  0  0  0  0  0  0  0  0  0  0  0
   48.4328    4.8973   16.0619 C   0  0  0  0  0  0  0  0  0  0  0  0
   54.6293    1.9986   19.2283 C   0  0  0  0  0  0  0  0  0  0  0  0
   50.4608    4.3245   18.3625 H   0  0  0  0  0  0  0  0  0  0  0  0
   49.0250   10.4600   19.3359 H   0  0  0  0  0  0  0  0  0  0  0  0
   47.3125    3.7880   20.6702 H   0  0  0  0  0  0  0  0  0  0  0  0
   48.7410    4.3665   21.6006 H   0  0  0  0  0  0  0  0  0  0  0  0
   49.0128    3.5356   20.0867 H   0  0  0  0  0  0  0  0  0  0  0  0
   47.0673   11.9553   17.7526 H   0  0  0  0  0  0  0  0  0  0  0  0
   48.6048   11.8166   16.8378 H   0  0  0  0  0  0  0  0  0  0  0  0
   47.9916   14.9139   21.3457 H   0  0  0  0  0  0  0  0  0  0  0  0
   51.6282   14.7043   19.0669 H   0  0  0  0  0  0  0  0  0  0  0  0
   47.0037   13.1333   19.9493 H   0  0  0  0  0  0  0  0  0  0  0  0
   50.6551   12.9232   17.6610 H   0  0  0  0  0  0  0  0  0  0  0  0
   46.3376    3.9706   17.9564 H   0  0  0  0  0  0  0  0  0  0  0  0
   47.4857    2.7143   18.5610 H   0  0  0  0  0  0  0  0  0  0  0  0
   47.1062    2.8169   16.8313 H   0  0  0  0  0  0  0  0  0  0  0  0
   49.2685    5.6037   15.8665 H   0  0  0  0  0  0  0  0  0  0  0  0
   48.5492    4.0427   15.3633 H   0  0  0  0  0  0  0  0  0  0  0  0
   47.4712    5.4015   15.8223 H   0  0  0  0  0  0  0  0  0  0  0  0
   54.7552    3.0843   19.4221 H   0  0  0  0  0  0  0  0  0  0  0  0
   54.5356    1.4629   20.1956 H   0  0  0  0  0  0  0  0  0  0  0  0
   55.5211    1.6223   18.6846 H   0  0  0  0  0  0  0  0  0  0  0  0
  2  1  2  0
  3  4  2  0
  4  1  1  0
  5  6  1  0
  6  2  1  0
  7 10  1  0
  8  7  2  0
  9  7  1  0
 10 14  1  0
 11  3  1  0
 12  8  1  0
 13  1  1  0
 14 11  1  0
 15  9  1  0
 16  2  1  0
 17 13  1  0
 18  6  2  0
 19 10  2  0
 20 13  2  0
 21  5  1  0
 22 17  1  0
 23 26  2  0
 24 22  1  0
 25 23  1  0
 26 28  1  0
 27 29  2  0
 28 24  2  0
 29 24  1  0
 30 11  1  0
 31 11  1  0
 32 15  1  0
  5  3  1  0
 27 23  1  0
 12 15  2  0
 14 33  1  0
 17 34  1  0
 21 35  1  0
 21 36  1  0
 21 37  1  0
 22 38  1  0
 22 39  1  0
 26 40  1  0
 27 41  1  0
 28 42  1  0
 29 43  1  0
 30 44  1  0
 30 45  1  0
 30 46  1  0
 31 47  1  0
 31 48  1  0
 31 49  1  0
 32 50  1  0
 32 51  1  0
 32 52  1  0
M  CHG  1  16  -1
M  END
> <Uni-Dock RESULT> 
ENERGY=   -4.512  LOWER_BOUND=    7.592  UPPER_BOUND=    9.136
INTER + INTRA:          -4.512
INTER:                  -4.512
INTRA:                   0.000
UNBOUND:                 0.000

$$$$

     RDKit          3D

 52 54  0  0  0  0  0  0  0  0999 V2000
   48.0585    8.5784   14.7124 C   0  0  0  0  0  0  0  0  0  0  0  0
   48.8527    7.4408   14.8557 C   0  0  0  0  0  0  0  0  0  0  0  0
   49.2115    9.6259   16.5259 C   0  0  0  0  0  0  0  0  0  0  0  0
   48.2802    9.6332   15.5304 N   0  0  0  0  0  0  0  0  0  0  0  0
   49.9593    8.4760   16.7331 N   0  0  0  0  0  0  0  0  0  0  0  0
   49.8032    7.4087   15.8769 C   0  0  0  0  0  0  0  0  0  0  0  0
   48.8046   11.1127   21.2365 C   0  0  0  0  0  0  0  0  0  0  0  0
   48.9451   11.8883   22.3289 N   0  0  0  0  0  0  0  0  0  0  0  0
   48.2844    9.9483   21.5433 O   0  0  0  0  0  0  0  0  0  0  0  0
   49.1899   11.5216   19.8798 C   0  0  0  0  0  0  0  0  0  0  0  0
   49.3587   10.9136   17.3715 C   0  0  0  0  0  0  0  0  0  0  0  0
   48.4942   11.1768   23.3502 N   0  0  0  0  0  0  0  0  0  0  0  0
   47.0189    8.6984   13.6702 C   0  0  0  0  0  0  0  0  0  0  0  0
   48.9937   10.6236   18.7718 N   0  0  0  0  0  0  0  0  0  0  0  0
   48.0925    9.9979   22.8390 C   0  0  0  0  0  0  0  0  0  0  0  0
   48.7384    6.3636   13.9808 O   0  0  0  0  0  0  0  0  0  0  0  0
   46.2488    7.5625   13.2508 N   0  0  0  0  0  0  0  0  0  0  0  0
   50.5262    6.3794   15.9914 O   0  0  0  0  0  0  0  0  0  0  0  0
   49.6911   12.6640   19.7037 O   0  0  0  0  0  0  0  0  0  0  0  0
   46.7791    9.8337   13.1762 O   0  0  0  0  0  0  0  0  0  0  0  0
   50.9923    8.3721   17.7829 C   0  0  0  0  0  0  0  0  0  0  0  0
   45.3558    7.6352   12.0952 C   0  0  0  0  0  0  0  0  0  0  0  0
   43.5477    3.7763   11.4445 C   0  0  0  0  0  0  0  0  0  0  0  0
   44.7086    6.3005   11.8421 C   0  0  0  0  0  0  0  0  0  0  0  0
   42.9850    2.5584   11.2491 F   0  0  0  0  0  0  0  0  0  0  0  0
   44.7799    4.0794   10.8579 C   0  0  0  0  0  0  0  0  0  0  0  0
   42.8989    4.7272   12.2379 C   0  0  0  0  0  0  0  0  0  0  0  0
   45.3628    5.3346   11.0597 C   0  0  0  0  0  0  0  0  0  0  0  0
   43.4788    5.9834   12.4422 C   0  0  0  0  0  0  0  0  0  0  0  0
   50.8088   11.4518   17.2570 C   0  0  0  0  0  0  0  0  0  0  0  0
   48.3986   12.0126   16.8500 C   0  0  0  0  0  0  0  0  0  0  0  0
   47.5382    8.8785   23.6516 C   0  0  0  0  0  0  0  0  0  0  0  0
   48.4930    9.7269   18.9714 H   0  0  0  0  0  0  0  0  0  0  0  0
   46.2817    6.6872   13.8213 H   0  0  0  0  0  0  0  0  0  0  0  0
   51.9638    8.7385   17.3898 H   0  0  0  0  0  0  0  0  0  0  0  0
   51.1261    7.3217   18.1190 H   0  0  0  0  0  0  0  0  0  0  0  0
   50.7218    8.9197   18.7012 H   0  0  0  0  0  0  0  0  0  0  0  0
   45.9369    7.9446   11.1993 H   0  0  0  0  0  0  0  0  0  0  0  0
   44.5781    8.4091   12.2754 H   0  0  0  0  0  0  0  0  0  0  0  0
   45.2864    3.3410   10.2497 H   0  0  0  0  0  0  0  0  0  0  0  0
   41.9483    4.4907   12.6986 H   0  0  0  0  0  0  0  0  0  0  0  0
   46.3230    5.5531   10.6088 H   0  0  0  0  0  0  0  0  0  0  0  0
   42.9710    6.7074   13.0674 H   0  0  0  0  0  0  0  0  0  0  0  0
   51.2134   11.2790   16.2362 H   0  0  0  0  0  0  0  0  0  0  0  0
   51.4859   10.9824   17.9967 H   0  0  0  0  0  0  0  0  0  0  0  0
   50.8570   12.5457   17.4429 H   0  0  0  0  0  0  0  0  0  0  0  0
   47.3423   11.6759   16.9305 H   0  0  0  0  0  0  0  0  0  0  0  0
   48.4954   12.9486   17.4386 H   0  0  0  0  0  0  0  0  0  0  0  0
   48.6191   12.2566   15.7878 H   0  0  0  0  0  0  0  0  0  0  0  0
   46.9079    8.2250   23.0130 H   0  0  0  0  0  0  0  0  0  0  0  0
   48.3721    8.2814   24.0752 H   0  0  0  0  0  0  0  0  0  0  0  0
   46.9181    9.2825   24.4791 H   0  0  0  0  0  0  0  0  0  0  0  0
  2  1  2  0
  3  4  2  0
  4  1  1  0
  5  6  1  0
  6  2  1  0
  7 10  1  0
  8  7  2  0
  9  7  1  0
 10 14  1  0
 11  3  1  0
 12  8  1  0
 13  1  1  0
 14 11  1  0
 15  9  1  0
 16  2  1  0
 17 13  1  0
 18  6  2  0
 19 10  2  0
 20 13  2  0
 21  5  1  0
 22 17  1  0
 23 26  2  0
 24 22  1  0
 25 23  1  0
 26 28  1  0
 27 29  2  0
 28 24  2  0
 29 24  1  0
 30 11  1  0
 31 11  1  0
 32 15  1  0
  5  3  1  0
 27 23  1  0
 12 15  2  0
 14 33  1  0
 17 34  1  0
 21 35  1  0
 21 36  1  0
 21 37  1  0
 22 38  1  0
 22 39  1  0
 26 40  1  0
 27 41  1  0
 28 42  1  0
 29 43  1  0
 30 44  1  0
 30 45  1  0
 30 46  1  0
 31 47  1  0
 31 48  1  0
 31 49  1  0
 32 50  1  0
 32 51  1  0
 32 52  1  0
M  CHG  1  16  -1
M  END
> <Uni-Dock RESULT> 
ENERGY=   -4.397  LOWER_BOUND=    6.439  UPPER_BOUND=   10.728
INTER + INTRA:          -4.397
INTER:                  -4.397
INTRA:                   0.000
UNBOUND:                 0.000

$$$$

     RDKit          3D

 52 54  0  0  0  0  0  0  0  0999 V2000
   46.7745    9.7479   12.2073 C   0  0  0  0  0  0  0  0  0  0  0  0
   47.3429   11.0141   12.3459 C   0  0  0  0  0  0  0  0  0  0  0  0
   44.7258   10.7354   11.4706 C   0  0  0  0  0  0  0  0  0  0  0  0
   45.5032    9.6521   11.7543 N   0  0  0  0  0  0  0  0  0  0  0  0
   45.2479   12.0044   11.6742 N   0  0  0  0  0  0  0  0  0  0  0  0
   46.5596   12.1362   12.0724 C   0  0  0  0  0  0  0  0  0  0  0  0
   40.0183   11.6538   12.7200 C   0  0  0  0  0  0  0  0  0  0  0  0
   38.6834   11.7818   12.5921 N   0  0  0  0  0  0  0  0  0  0  0  0
   40.4294   12.0964   13.8843 O   0  0  0  0  0  0  0  0  0  0  0  0
   40.8959   11.0939   11.6843 C   0  0  0  0  0  0  0  0  0  0  0  0
   43.2944   10.4663   10.9476 C   0  0  0  0  0  0  0  0  0  0  0  0
   38.2524   12.3239   13.7205 N   0  0  0  0  0  0  0  0  0  0  0  0
   47.5212    8.5045   12.4862 C   0  0  0  0  0  0  0  0  0  0  0  0
   42.3128   10.9908   11.9170 N   0  0  0  0  0  0  0  0  0  0  0  0
   39.3409   12.5001   14.4928 C   0  0  0  0  0  0  0  0  0  0  0  0
   48.6769   11.1723   12.7124 O   0  0  0  0  0  0  0  0  0  0  0  0
   48.4989    8.4410   13.5346 N   0  0  0  0  0  0  0  0  0  0  0  0
   47.0864   13.2782   12.1887 O   0  0  0  0  0  0  0  0  0  0  0  0
   40.3906   10.7078   10.5967 O   0  0  0  0  0  0  0  0  0  0  0  0
   47.2562    7.4706   11.8144 O   0  0  0  0  0  0  0  0  0  0  0  0
   44.4857   13.2374   11.3937 C   0  0  0  0  0  0  0  0  0  0  0  0
   49.3696    7.2767   13.6915 C   0  0  0  0  0  0  0  0  0  0  0  0
   52.0860    7.9581   16.9688 C   0  0  0  0  0  0  0  0  0  0  0  0
   50.3313    7.4851   14.8300 C   0  0  0  0  0  0  0  0  0  0  0  0
   52.9354    8.1830   18.0013 F   0  0  0  0  0  0  0  0  0  0  0  0
   52.4243    8.3815   15.6801 C   0  0  0  0  0  0  0  0  0  0  0  0
   50.8686    7.3084   17.1937 C   0  0  0  0  0  0  0  0  0  0  0  0
   51.5486    8.1519   14.6141 C   0  0  0  0  0  0  0  0  0  0  0  0
   49.9902    7.0773   16.1301 C   0  0  0  0  0  0  0  0  0  0  0  0
   43.1187   11.1113    9.5481 C   0  0  0  0  0  0  0  0  0  0  0  0
   43.0511    8.9424   10.8053 C   0  0  0  0  0  0  0  0  0  0  0  0
   39.3135   13.1139   15.8504 C   0  0  0  0  0  0  0  0  0  0  0  0
   42.6563   11.2464   12.8715 H   0  0  0  0  0  0  0  0  0  0  0  0
   48.5443    9.2155   14.2352 H   0  0  0  0  0  0  0  0  0  0  0  0
   44.6218   13.5282   10.3309 H   0  0  0  0  0  0  0  0  0  0  0  0
   44.8265   14.0802   12.0322 H   0  0  0  0  0  0  0  0  0  0  0  0
   43.4124   13.1359   11.6265 H   0  0  0  0  0  0  0  0  0  0  0  0
   49.9362    7.1106   12.7494 H   0  0  0  0  0  0  0  0  0  0  0  0
   48.7500    6.3720   13.8753 H   0  0  0  0  0  0  0  0  0  0  0  0
   53.3633    8.8912   15.5066 H   0  0  0  0  0  0  0  0  0  0  0  0
   50.6026    6.9870   18.1925 H   0  0  0  0  0  0  0  0  0  0  0  0
   51.8175    8.4946   13.6225 H   0  0  0  0  0  0  0  0  0  0  0  0
   49.0457    6.5823   16.3195 H   0  0  0  0  0  0  0  0  0  0  0  0
   44.0617   11.0456    8.9631 H   0  0  0  0  0  0  0  0  0  0  0  0
   42.8102   12.1726    9.6154 H   0  0  0  0  0  0  0  0  0  0  0  0
   42.3335   10.5972    8.9543 H   0  0  0  0  0  0  0  0  0  0  0  0
   43.1493    8.4395   11.7917 H   0  0  0  0  0  0  0  0  0  0  0  0
   42.0316    8.7284   10.4225 H   0  0  0  0  0  0  0  0  0  0  0  0
   43.7800    8.4916   10.0968 H   0  0  0  0  0  0  0  0  0  0  0  0
   40.1935   12.7744   16.4356 H   0  0  0  0  0  0  0  0  0  0  0  0
   39.3410   14.2192   15.7567 H   0  0  0  0  0  0  0  0  0  0  0  0
   38.3869   12.8131   16.3830 H   0  0  0  0  0  0  0  0  0  0  0  0
  2  1  2  0
  3  4  2  0
  4  1  1  0
  5  6  1  0
  6  2  1  0
  7 10  1  0
  8  7  2  0
  9  7  1  0
 10 14  1  0
 11  3  1  0
 12  8  1  0
 13  1  1  0
 14 11  1  0
 15  9  1  0
 16  2  1  0
 17 13  1  0
 18  6  2  0
 19 10  2  0
 20 13  2  0
 21  5  1  0
 22 17  1  0
 23 26  2  0
 24 22  1  0
 25 23  1  0
 26 28  1  0
 27 29  2  0
 28 24  2  0
 29 24  1  0
 30 11  1  0
 31 11  1  0
 32 15  1  0
  5  3  1  0
 27 23  1  0
 12 15  2  0
 14 33  1  0
 17 34  1  0
 21 35  1  0
 21 36  1  0
 21 37  1  0
 22 38  1  0
 22 39  1  0
 26 40  1  0
 27 41  1  0
 28 42  1  0
 29 43  1  0
 30 44  1  0
 30 45  1  0
 30 46  1  0
 31 47  1  0
 31 48  1  0
 31 49  1  0
 32 50  1  0
 32 51  1  0
 32 52  1  0
M  CHG  1  16  -1
M  END
> <Uni-Dock RESULT> 
ENERGY=   -4.303  LOWER_BOUND=    5.001  UPPER_BOUND=    8.805
INTER + INTRA:          -4.303
INTER:                  -4.303
INTRA:                   0.000
UNBOUND:                 0.000

$$$$

     RDKit          3D

 52 54  0  0  0  0  0  0  0  0999 V2000
   43.6381   10.5982   11.4538 C   0  0  0  0  0  0  0  0  0  0  0  0
   42.3205   10.3606   11.0625 C   0  0  0  0  0  0  0  0  0  0  0  0
   43.2926   12.9530   11.2293 C   0  0  0  0  0  0  0  0  0  0  0  0
   44.0680   11.8777   11.5467 N   0  0  0  0  0  0  0  0  0  0  0  0
   42.0037   12.7340   10.7656 N   0  0  0  0  0  0  0  0  0  0  0  0
   41.5143   11.4474   10.7212 C   0  0  0  0  0  0  0  0  0  0  0  0
   44.3981   16.9454    8.5082 C   0  0  0  0  0  0  0  0  0  0  0  0
   44.7215   18.2201    8.2158 N   0  0  0  0  0  0  0  0  0  0  0  0
   44.1181   16.2645    7.4227 O   0  0  0  0  0  0  0  0  0  0  0  0
   44.3613   16.3956    9.8694 C   0  0  0  0  0  0  0  0  0  0  0  0
   43.9202   14.3573   11.3992 C   0  0  0  0  0  0  0  0  0  0  0  0
   44.6387   18.3316    6.8992 N   0  0  0  0  0  0  0  0  0  0  0  0
   44.5686    9.5113   11.8206 C   0  0  0  0  0  0  0  0  0  0  0  0
   44.0104   15.0156   10.0813 N   0  0  0  0  0  0  0  0  0  0  0  0
   44.2731   17.1196    6.4414 C   0  0  0  0  0  0  0  0  0  0  0  0
   41.7922    9.0725   11.0439 O   0  0  0  0  0  0  0  0  0  0  0  0
   44.5226    8.2367   11.1632 N   0  0  0  0  0  0  0  0  0  0  0  0
   40.3190   11.2238   10.3799 O   0  0  0  0  0  0  0  0  0  0  0  0
   44.6406   17.1471   10.8411 O   0  0  0  0  0  0  0  0  0  0  0  0
   45.4467    9.7310   12.6987 O   0  0  0  0  0  0  0  0  0  0  0  0
   41.0878   13.8326   10.3995 C   0  0  0  0  0  0  0  0  0  0  0  0
   45.3096    7.1035   11.6476 C   0  0  0  0  0  0  0  0  0  0  0  0
   44.4864    3.6472    9.2064 C   0  0  0  0  0  0  0  0  0  0  0  0
   45.0431    5.8794   10.8139 C   0  0  0  0  0  0  0  0  0  0  0  0
   44.2199    2.5665    8.4322 F   0  0  0  0  0  0  0  0  0  0  0  0
   43.6884    3.9227   10.3208 C   0  0  0  0  0  0  0  0  0  0  0  0
   45.5553    4.4898    8.8869 C   0  0  0  0  0  0  0  0  0  0  0  0
   43.9607    5.0379   11.1196 C   0  0  0  0  0  0  0  0  0  0  0  0
   45.8304    5.6061    9.6833 C   0  0  0  0  0  0  0  0  0  0  0  0
   43.0762   15.1901   12.3992 C   0  0  0  0  0  0  0  0  0  0  0  0
   45.3566   14.2395   11.9687 C   0  0  0  0  0  0  0  0  0  0  0  0
   44.0358   16.8043    5.0043 C   0  0  0  0  0  0  0  0  0  0  0  0
   43.8760   14.4243    9.2288 H   0  0  0  0  0  0  0  0  0  0  0  0
   43.9636    8.1371   10.2854 H   0  0  0  0  0  0  0  0  0  0  0  0
   40.5329   14.1730   11.2989 H   0  0  0  0  0  0  0  0  0  0  0  0
   40.3489   13.5085    9.6359 H   0  0  0  0  0  0  0  0  0  0  0  0
   41.6102   14.6828    9.9297 H   0  0  0  0  0  0  0  0  0  0  0  0
   45.0460    6.8981   12.7079 H   0  0  0  0  0  0  0  0  0  0  0  0
   46.3907    7.3611   11.6136 H   0  0  0  0  0  0  0  0  0  0  0  0
   42.8561    3.2750   10.5644 H   0  0  0  0  0  0  0  0  0  0  0  0
   46.1690    4.2813    8.0199 H   0  0  0  0  0  0  0  0  0  0  0  0
   43.3283    5.2467   11.9737 H   0  0  0  0  0  0  0  0  0  0  0  0
   46.6549    6.2567    9.4189 H   0  0  0  0  0  0  0  0  0  0  0  0
   42.6709   14.5427   13.2068 H   0  0  0  0  0  0  0  0  0  0  0  0
   42.2364   15.7117   11.9005 H   0  0  0  0  0  0  0  0  0  0  0  0
   43.6830   15.9794   12.8914 H   0  0  0  0  0  0  0  0  0  0  0  0
   46.0044   13.6633   11.2730 H   0  0  0  0  0  0  0  0  0  0  0  0
   45.8216   15.2379   12.1066 H   0  0  0  0  0  0  0  0  0  0  0  0
   45.3479   13.7310   12.9576 H   0  0  0  0  0  0  0  0  0  0  0  0
   44.1688   15.7161    4.8301 H   0  0  0  0  0  0  0  0  0  0  0  0
   43.0012   17.0950    4.7283 H   0  0  0  0  0  0  0  0  0  0  0  0
   44.7562   17.3629    4.3705 H   0  0  0  0  0  0  0  0  0  0  0  0
  2  1  2  0
  3  4  2  0
  4  1  1  0
  5  6  1  0
  6  2  1  0
  7 10  1  0
  8  7  2  0
  9  7  1  0
 10 14  1  0
 11  3  1  0
 12  8  1  0
 13  1  1  0
 14 11  1  0
 15  9  1  0
 16  2  1  0
 17 13  1  0
 18  6  2  0
 19 10  2  0
 20 13  2  0
 21  5  1  0
 22 17  1  0
 23 26  2  0
 24 22  1  0
 25 23  1  0
 26 28  1  0
 27 29  2  0
 28 24  2  0
 29 24  1  0
 30 11  1  0
 31 11  1  0
 32 15  1  0
  5  3  1  0
 27 23  1  0
 12 15  2  0
 14 33  1  0
 17 34  1  0
 21 35  1  0
 21 36  1  0
 21 37  1  0
 22 38  1  0
 22 39  1  0
 26 40  1  0
 27 41  1  0
 28 42  1  0
 29 43  1  0
 30 44  1  0
 30 45  1  0
 30 46  1  0
 31 47  1  0
 31 48  1  0
 31 49  1  0
 32 50  1  0
 32 51  1  0
 32 52  1  0
M  CHG  1  16  -1
M  END
> <Uni-Dock RESULT> 
ENERGY=   -4.181  LOWER_BOUND=    4.392  UPPER_BOUND=   10.503
INTER + INTRA:          -4.181
INTER:                  -4.181
INTRA:                   0.000
UNBOUND:                 0.000

$$$$

     RDKit          3D

 52 54  0  0  0  0  0  0  0  0999 V2000
   47.3913    9.9297   12.4793 C   0  0  0  0  0  0  0  0  0  0  0  0
   48.4774    9.3133   13.1004 C   0  0  0  0  0  0  0  0  0  0  0  0
   46.3274    7.8063   12.2061 C   0  0  0  0  0  0  0  0  0  0  0  0
   46.3507    9.1633   12.0787 N   0  0  0  0  0  0  0  0  0  0  0  0
   47.4309    7.1673   12.7525 N   0  0  0  0  0  0  0  0  0  0  0  0
   48.4785    7.9237   13.2291 C   0  0  0  0  0  0  0  0  0  0  0  0
   45.0216    4.3501    8.9023 C   0  0  0  0  0  0  0  0  0  0  0  0
   44.2734    3.4118    8.2903 N   0  0  0  0  0  0  0  0  0  0  0  0
   46.2272    4.4070    8.3888 O   0  0  0  0  0  0  0  0  0  0  0  0
   44.5449    5.1948   10.0049 C   0  0  0  0  0  0  0  0  0  0  0  0
   45.0603    7.0672   11.7130 C   0  0  0  0  0  0  0  0  0  0  0  0
   45.0455    2.8679    7.3625 N   0  0  0  0  0  0  0  0  0  0  0  0
   47.3079   11.3917   12.2869 C   0  0  0  0  0  0  0  0  0  0  0  0
   45.4184    6.1775   10.5913 N   0  0  0  0  0  0  0  0  0  0  0  0
   46.2317    3.4995    7.4429 C   0  0  0  0  0  0  0  0  0  0  0  0
   49.5314   10.0587   13.6221 O   0  0  0  0  0  0  0  0  0  0  0  0
   48.4787   12.1764   12.0175 N   0  0  0  0  0  0  0  0  0  0  0  0
   49.4604    7.3752   13.8038 O   0  0  0  0  0  0  0  0  0  0  0  0
   43.3666    5.0458   10.4252 O   0  0  0  0  0  0  0  0  0  0  0  0
   46.1760   11.9470   12.3173 O   0  0  0  0  0  0  0  0  0  0  0  0
   47.4990    5.7037   12.9340 C   0  0  0  0  0  0  0  0  0  0  0  0
   48.4290   13.6378   12.0133 C   0  0  0  0  0  0  0  0  0  0  0  0
   52.3772   15.1972   11.2629 C   0  0  0  0  0  0  0  0  0  0  0  0
   49.7952   14.2127   11.7536 C   0  0  0  0  0  0  0  0  0  0  0  0
   53.6232   15.6767   11.0262 F   0  0  0  0  0  0  0  0  0  0  0  0
   51.9742   14.9133   12.5711 C   0  0  0  0  0  0  0  0  0  0  0  0
   51.4974   14.9807   10.1981 C   0  0  0  0  0  0  0  0  0  0  0  0
   50.6900   14.4171   12.8170 C   0  0  0  0  0  0  0  0  0  0  0  0
   50.2124   14.4843   10.4402 C   0  0  0  0  0  0  0  0  0  0  0  0
   44.4232    6.2802   12.8879 C   0  0  0  0  0  0  0  0  0  0  0  0
   44.0118    8.0838   11.1948 C   0  0  0  0  0  0  0  0  0  0  0  0
   47.4108    3.1775    6.5905 C   0  0  0  0  0  0  0  0  0  0  0  0
   46.3523    6.3114   10.1393 H   0  0  0  0  0  0  0  0  0  0  0  0
   49.3675   11.6911   11.7583 H   0  0  0  0  0  0  0  0  0  0  0  0
   47.0563    5.4268   13.9138 H   0  0  0  0  0  0  0  0  0  0  0  0
   48.5483    5.3395   12.9102 H   0  0  0  0  0  0  0  0  0  0  0  0
   47.0001    5.1508   12.1205 H   0  0  0  0  0  0  0  0  0  0  0  0
   48.0532   13.9966   12.9962 H   0  0  0  0  0  0  0  0  0  0  0  0
   47.7148   13.9825   11.2340 H   0  0  0  0  0  0  0  0  0  0  0  0
   52.6574   15.0736   13.3952 H   0  0  0  0  0  0  0  0  0  0  0  0
   51.8114   15.1932    9.1842 H   0  0  0  0  0  0  0  0  0  0  0  0
   50.3937   14.1906   13.8338 H   0  0  0  0  0  0  0  0  0  0  0  0
   49.5442   14.3111    9.6056 H   0  0  0  0  0  0  0  0  0  0  0  0
   44.5361    6.8382   13.8427 H   0  0  0  0  0  0  0  0  0  0  0  0
   44.8697    5.2736   13.0044 H   0  0  0  0  0  0  0  0  0  0  0  0
   43.3350    6.1207   12.7335 H   0  0  0  0  0  0  0  0  0  0  0  0
   44.4205    8.6603   10.3368 H   0  0  0  0  0  0  0  0  0  0  0  0
   43.0906    7.5735   10.8443 H   0  0  0  0  0  0  0  0  0  0  0  0
   43.7200    8.7936   11.9995 H   0  0  0  0  0  0  0  0  0  0  0  0
   48.0843    4.0579    6.5303 H   0  0  0  0  0  0  0  0  0  0  0  0
   47.9642    2.3234    7.0327 H   0  0  0  0  0  0  0  0  0  0  0  0
   47.0755    2.9079    5.5670 H   0  0  0  0  0  0  0  0  0  0  0  0
  2  1  2  0
  3  4  2  0
  4  1  1  0
  5  6  1  0
  6  2  1  0
  7 10  1  0
  8  7  2  0
  9  7  1  0
 10 14  1  0
 11  3  1  0
 12  8  1  0
 13  1  1  0
 14 11  1  0
 15  9  1  0
 16  2  1  0
 17 13  1  0
 18  6  2  0
 19 10  2  0
 20 13  2  0
 21  5  1  0
 22 17  1  0
 23 26  2  0
 24 22  1  0
 25 23  1  0
 26 28  1  0
 27 29  2  0
 28 24  2  0
 29 24  1  0
 30 11  1  0
 31 11  1  0
 32 15  1  0
  5  3  1  0
 27 23  1  0
 12 15  2  0
 14 33  1  0
 17 34  1  0
 21 35  1  0
 21 36  1  0
 21 37  1  0
 22 38  1  0
 22 39  1  0
 26 40  1  0
 27 41  1  0
 28 42  1  0
 29 43  1  0
 30 44  1  0
 30 45  1  0
 30 46  1  0
 31 47  1  0
 31 48  1  0
 31 49  1  0
 32 50  1  0
 32 51  1  0
 32 52  1  0
M  CHG  1  16  -1
M  END
> <Uni-Dock RESULT> 
ENERGY=   -4.141  LOWER_BOUND=    2.583  UPPER_BOUND=    2.989
INTER + INTRA:          -4.141
INTER:                  -4.141
INTRA:                   0.000
UNBOUND:                 0.000

$$$$

     RDKit          3D

 52 54  0  0  0  0  0  0  0  0999 V2000
   48.0596    9.6021   19.0608 C   0  0  0  0  0  0  0  0  0  0  0  0
   48.1502    9.8653   17.6940 C   0  0  0  0  0  0  0  0  0  0  0  0
   48.7217   11.8468   19.5489 C   0  0  0  0  0  0  0  0  0  0  0  0
   48.3227   10.6015   19.9341 N   0  0  0  0  0  0  0  0  0  0  0  0
   48.8908   12.1059   18.1967 N   0  0  0  0  0  0  0  0  0  0  0  0
   48.5692   11.1303   17.2794 C   0  0  0  0  0  0  0  0  0  0  0  0
   52.3915   14.6704   21.3166 C   0  0  0  0  0  0  0  0  0  0  0  0
   53.0046   15.6583   21.9970 N   0  0  0  0  0  0  0  0  0  0  0  0
   53.2373   14.0251   20.5493 O   0  0  0  0  0  0  0  0  0  0  0  0
   50.9595   14.3627   21.4210 C   0  0  0  0  0  0  0  0  0  0  0  0
   48.9727   12.8898   20.6642 C   0  0  0  0  0  0  0  0  0  0  0  0
   54.2782   15.6223   21.6373 N   0  0  0  0  0  0  0  0  0  0  0  0
   47.6382    8.2905   19.5933 C   0  0  0  0  0  0  0  0  0  0  0  0
   50.3961   13.2799   20.6577 N   0  0  0  0  0  0  0  0  0  0  0  0
   54.3915   14.6111   20.7558 C   0  0  0  0  0  0  0  0  0  0  0  0
   47.7965    8.9073   16.7475 O   0  0  0  0  0  0  0  0  0  0  0  0
   47.9865    7.0683   18.9269 N   0  0  0  0  0  0  0  0  0  0  0  0
   48.6365   11.3635   16.0399 O   0  0  0  0  0  0  0  0  0  0  0  0
   50.2380   15.0576   22.1851 O   0  0  0  0  0  0  0  0  0  0  0  0
   46.9983    8.2505   20.6793 O   0  0  0  0  0  0  0  0  0  0  0  0
   49.3167   13.4225   17.6817 C   0  0  0  0  0  0  0  0  0  0  0  0
   47.4167    5.7874   19.3429 C   0  0  0  0  0  0  0  0  0  0  0  0
   48.8693    2.6688   16.7453 C   0  0  0  0  0  0  0  0  0  0  0  0
   47.9059    4.6770   18.4531 C   0  0  0  0  0  0  0  0  0  0  0  0
   49.3324    1.6960   15.9223 F   0  0  0  0  0  0  0  0  0  0  0  0
   47.7170    3.3833   16.4043 C   0  0  0  0  0  0  0  0  0  0  0  0
   49.5475    2.9622   17.9322 C   0  0  0  0  0  0  0  0  0  0  0  0
   47.2388    4.3882   17.2511 C   0  0  0  0  0  0  0  0  0  0  0  0
   49.0723    3.9667   18.7815 C   0  0  0  0  0  0  0  0  0  0  0  0
   48.0423   14.1131   20.4555 C   0  0  0  0  0  0  0  0  0  0  0  0
   48.6554   12.2798   22.0529 C   0  0  0  0  0  0  0  0  0  0  0  0
   55.6612   14.2347   20.0726 C   0  0  0  0  0  0  0  0  0  0  0  0
   51.0633   12.6876   20.1115 H   0  0  0  0  0  0  0  0  0  0  0  0
   48.7086    7.0890   18.1713 H   0  0  0  0  0  0  0  0  0  0  0  0
   48.4280   14.0702   17.5292 H   0  0  0  0  0  0  0  0  0  0  0  0
   49.8489   13.3266   16.7112 H   0  0  0  0  0  0  0  0  0  0  0  0
   50.0438   13.9226   18.3431 H   0  0  0  0  0  0  0  0  0  0  0  0
   46.3074    5.8443   19.2941 H   0  0  0  0  0  0  0  0  0  0  0  0
   47.6968    5.5824   20.3992 H   0  0  0  0  0  0  0  0  0  0  0  0
   47.1957    3.1619   15.4819 H   0  0  0  0  0  0  0  0  0  0  0  0
   50.4440    2.4145   18.1933 H   0  0  0  0  0  0  0  0  0  0  0  0
   46.3514    4.9420   16.9701 H   0  0  0  0  0  0  0  0  0  0  0  0
   49.6129    4.1912   19.6928 H   0  0  0  0  0  0  0  0  0  0  0  0
   47.0552   13.7935   20.0565 H   0  0  0  0  0  0  0  0  0  0  0  0
   48.4845   14.8589   19.7667 H   0  0  0  0  0  0  0  0  0  0  0  0
   47.8475   14.6487   21.4088 H   0  0  0  0  0  0  0  0  0  0  0  0
   49.3142   11.4072   22.2537 H   0  0  0  0  0  0  0  0  0  0  0  0
   48.8209   13.0159   22.8669 H   0  0  0  0  0  0  0  0  0  0  0  0
   47.5948   11.9501   22.1054 H   0  0  0  0  0  0  0  0  0  0  0  0
   55.6175   13.1722   19.7542 H   0  0  0  0  0  0  0  0  0  0  0  0
   55.8054   14.8782   19.1801 H   0  0  0  0  0  0  0  0  0  0  0  0
   56.5182   14.3698   20.7654 H   0  0  0  0  0  0  0  0  0  0  0  0
  2  1  2  0
  3  4  2  0
  4  1  1  0
  5  6  1  0
  6  2  1  0
  7 10  1  0
  8  7  2  0
  9  7  1  0
 10 14  1  0
 11  3  1  0
 12  8  1  0
 13  1  1  0
 14 11  1  0
 15  9  1  0
 16  2  1  0
 17 13  1  0
 18  6  2  0
 19 10  2  0
 20 13  2  0
 21  5  1  0
 22 17  1  0
 23 26  2  0
 24 22  1  0
 25 23  1  0
 26 28  1  0
 27 29  2  0
 28 24  2  0
 29 24  1  0
 30 11  1  0
 31 11  1  0
 32 15  1  0
  5  3  1  0
 27 23  1  0
 12 15  2  0
 14 33  1  0
 17 34  1  0
 21 35  1  0
 21 36  1  0
 21 37  1  0
 22 38  1  0
 22 39  1  0
 26 40  1  0
 27 41  1  0
 28 42  1  0
 29 43  1  0
 30 44  1  0
 30 45  1  0
 30 46  1  0
 31 47  1  0
 31 48  1  0
 31 49  1  0
 32 50  1  0
 32 51  1  0
 32 52  1  0
M  CHG  1  16  -1
M  END
> <Uni-Dock RESULT> 
ENERGY=   -4.066  LOWER_BOUND=    8.852  UPPER_BOUND=   13.561
INTER + INTRA:          -4.066
INTER:                  -4.066
INTRA:                   0.000
UNBOUND:                 0.000

$$$$
