
     RDKit          3D

 52 54  0  0  0  0  0  0  0  0999 V2000
   46.4871    5.4831   12.9459 C   0  0  0  0  0  0  0  0  0  0  0  0
   46.6054    4.2839   13.6483 C   0  0  0  0  0  0  0  0  0  0  0  0
   47.8885    6.5730   14.5469 C   0  0  0  0  0  0  0  0  0  0  0  0
   47.1480    6.5720   13.4024 N   0  0  0  0  0  0  0  0  0  0  0  0
   47.9560    5.4101   15.3003 N   0  0  0  0  0  0  0  0  0  0  0  0
   47.3488    4.2673   14.8293 C   0  0  0  0  0  0  0  0  0  0  0  0
   47.9775    9.8741   18.2502 C   0  0  0  0  0  0  0  0  0  0  0  0
   46.9055    9.2710   18.8000 N   0  0  0  0  0  0  0  0  0  0  0  0
   48.4058   10.8601   19.0018 O   0  0  0  0  0  0  0  0  0  0  0  0
   48.5932    9.4794   16.9763 C   0  0  0  0  0  0  0  0  0  0  0  0
   48.5983    7.8926   14.9336 C   0  0  0  0  0  0  0  0  0  0  0  0
   46.6611    9.9086   19.9344 N   0  0  0  0  0  0  0  0  0  0  0  0
   45.7134    5.5984   11.6937 C   0  0  0  0  0  0  0  0  0  0  0  0
   48.0490    8.3875   16.2110 N   0  0  0  0  0  0  0  0  0  0  0  0
   47.5907   10.8776   20.0285 C   0  0  0  0  0  0  0  0  0  0  0  0
   46.0299    3.1081   13.1742 O   0  0  0  0  0  0  0  0  0  0  0  0
   44.5248    4.8218   11.4786 N   0  0  0  0  0  0  0  0  0  0  0  0
   47.4611    3.1743   15.4522 O   0  0  0  0  0  0  0  0  0  0  0  0
   49.6024   10.1130   16.5676 O   0  0  0  0  0  0  0  0  0  0  0  0
   46.0870    6.4265   10.8193 O   0  0  0  0  0  0  0  0  0  0  0  0
   48.7326    5.3119   16.5521 C   0  0  0  0  0  0  0  0  0  0  0  0
   43.9014    4.6994   10.1633 C   0  0  0  0  0  0  0  0  0  0  0  0
   46.3955    2.2572    7.6345 C   0  0  0  0  0  0  0  0  0  0  0  0
   44.7557    3.8488    9.2638 C   0  0  0  0  0  0  0  0  0  0  0  0
   47.1868    1.4882    6.8466 F   0  0  0  0  0  0  0  0  0  0  0  0
   45.6630    1.6731    8.6720 C   0  0  0  0  0  0  0  0  0  0  0  0
   46.3148    3.6350    7.4118 C   0  0  0  0  0  0  0  0  0  0  0  0
   44.8475    2.4650    9.4863 C   0  0  0  0  0  0  0  0  0  0  0  0
   45.5007    4.4303    8.2242 C   0  0  0  0  0  0  0  0  0  0  0  0
   50.1288    7.6574   15.0206 C   0  0  0  0  0  0  0  0  0  0  0  0
   48.3421    8.9769   13.8564 C   0  0  0  0  0  0  0  0  0  0  0  0
   47.7002   11.8234   21.1750 C   0  0  0  0  0  0  0  0  0  0  0  0
   47.1580    7.9618   16.5562 H   0  0  0  0  0  0  0  0  0  0  0  0
   44.0561    4.3617   12.2908 H   0  0  0  0  0  0  0  0  0  0  0  0
   49.7807    5.0284   16.3214 H   0  0  0  0  0  0  0  0  0  0  0  0
   48.7108    6.2446   17.1402 H   0  0  0  0  0  0  0  0  0  0  0  0
   48.3066    4.5465   17.2353 H   0  0  0  0  0  0  0  0  0  0  0  0
   42.9035    4.2215   10.2715 H   0  0  0  0  0  0  0  0  0  0  0  0
   43.7334    5.7095    9.7296 H   0  0  0  0  0  0  0  0  0  0  0  0
   45.7283    0.6071    8.8479 H   0  0  0  0  0  0  0  0  0  0  0  0
   46.8852    4.0884    6.6112 H   0  0  0  0  0  0  0  0  0  0  0  0
   44.2905    2.0025   10.2920 H   0  0  0  0  0  0  0  0  0  0  0  0
   45.4536    5.4971    8.0440 H   0  0  0  0  0  0  0  0  0  0  0  0
   50.4368    7.2897   16.0186 H   0  0  0  0  0  0  0  0  0  0  0  0
   50.4596    6.9285   14.2492 H   0  0  0  0  0  0  0  0  0  0  0  0
   50.6993    8.5942   14.8455 H   0  0  0  0  0  0  0  0  0  0  0  0
   48.8509    9.9299   14.1109 H   0  0  0  0  0  0  0  0  0  0  0  0
   47.2548    9.1918   13.7722 H   0  0  0  0  0  0  0  0  0  0  0  0
   48.7217    8.6450   12.8654 H   0  0  0  0  0  0  0  0  0  0  0  0
   46.6867   12.1129   21.5235 H   0  0  0  0  0  0  0  0  0  0  0  0
   48.2490   12.7356   20.8609 H   0  0  0  0  0  0  0  0  0  0  0  0
   48.2489   11.3345   22.0063 H   0  0  0  0  0  0  0  0  0  0  0  0
  2  1  2  0
  3  4  2  0
  4  1  1  0
  5  6  1  0
  6  2  1  0
  7 10  1  0
  8  7  2  0
  9  7  1  0
 10 14  1  0
 11  3  1  0
 12  8  1  0
 13  1  1  0
 14 11  1  0
 15  9  1  0
 16  2  1  0
 17 13  1  0
 18  6  2  0
 19 10  2  0
 20 13  2  0
 21  5  1  0
 22 17  1  0
 23 26  2  0
 24 22  1  0
 25 23  1  0
 26 28  1  0
 27 29  2  0
 28 24  2  0
 29 24  1  0
 30 11  1  0
 31 11  1  0
 32 15  1  0
  5  3  1  0
 27 23  1  0
 12 15  2  0
 14 33  1  0
 17 34  1  0
 21 35  1  0
 21 36  1  0
 21 37  1  0
 22 38  1  0
 22 39  1  0
 26 40  1  0
 27 41  1  0
 28 42  1  0
 29 43  1  0
 30 44  1  0
 30 45  1  0
 30 46  1  0
 31 47  1  0
 31 48  1  0
 31 49  1  0
 32 50  1  0
 32 51  1  0
 32 52  1  0
M  CHG  1  16  -1
M  END
> <Uni-Dock RESULT> 
ENERGY=   -7.283  LOWER_BOUND=    0.000  UPPER_BOUND=    0.000
INTER + INTRA:          -7.283
INTER:                  -7.283
INTRA:                   0.000
UNBOUND:                 0.000

$$$$

     RDKit          3D

 52 54  0  0  0  0  0  0  0  0999 V2000
   46.4904    5.4817   12.9405 C   0  0  0  0  0  0  0  0  0  0  0  0
   46.6067    4.2825   13.6432 C   0  0  0  0  0  0  0  0  0  0  0  0
   47.8918    6.5702   14.5423 C   0  0  0  0  0  0  0  0  0  0  0  0
   47.1521    6.5699   13.3972 N   0  0  0  0  0  0  0  0  0  0  0  0
   47.9574    5.4074   15.2959 N   0  0  0  0  0  0  0  0  0  0  0  0
   47.3492    4.2652   14.8248 C   0  0  0  0  0  0  0  0  0  0  0  0
   47.9818    9.8720   18.2450 C   0  0  0  0  0  0  0  0  0  0  0  0
   46.9087    9.2703   18.7941 N   0  0  0  0  0  0  0  0  0  0  0  0
   48.4107   10.8576   18.9967 O   0  0  0  0  0  0  0  0  0  0  0  0
   48.5981    9.4763   16.9717 C   0  0  0  0  0  0  0  0  0  0  0  0
   48.6028    7.8891   14.9293 C   0  0  0  0  0  0  0  0  0  0  0  0
   46.6642    9.9084   19.9282 N   0  0  0  0  0  0  0  0  0  0  0  0
   45.7177    5.5976   11.6876 C   0  0  0  0  0  0  0  0  0  0  0  0
   48.0531    8.3849   16.2061 N   0  0  0  0  0  0  0  0  0  0  0  0
   47.5949   10.8763   20.0228 C   0  0  0  0  0  0  0  0  0  0  0  0
   46.0301    3.1072   13.1688 O   0  0  0  0  0  0  0  0  0  0  0  0
   44.5284    4.8224   11.4718 N   0  0  0  0  0  0  0  0  0  0  0  0
   47.4597    3.1722   15.4479 O   0  0  0  0  0  0  0  0  0  0  0  0
   49.6083   10.1086   16.5636 O   0  0  0  0  0  0  0  0  0  0  0  0
   46.0930    6.4252   10.8133 O   0  0  0  0  0  0  0  0  0  0  0  0
   48.7329    5.3085   16.5483 C   0  0  0  0  0  0  0  0  0  0  0  0
   43.9059    4.7005   10.1560 C   0  0  0  0  0  0  0  0  0  0  0  0
   46.3990    2.2548    7.6296 C   0  0  0  0  0  0  0  0  0  0  0  0
   44.7598    3.8487    9.2574 C   0  0  0  0  0  0  0  0  0  0  0  0
   47.1899    1.4848    6.8424 F   0  0  0  0  0  0  0  0  0  0  0  0
   45.6650    1.6718    8.6667 C   0  0  0  0  0  0  0  0  0  0  0  0
   46.3201    3.6327    7.4065 C   0  0  0  0  0  0  0  0  0  0  0  0
   44.8499    2.4648    9.4802 C   0  0  0  0  0  0  0  0  0  0  0  0
   45.5063    4.4291    8.2182 C   0  0  0  0  0  0  0  0  0  0  0  0
   50.1330    7.6521   15.0175 C   0  0  0  0  0  0  0  0  0  0  0  0
   48.3487    8.9735   13.8516 C   0  0  0  0  0  0  0  0  0  0  0  0
   47.7046   11.8221   21.1692 C   0  0  0  0  0  0  0  0  0  0  0  0
   47.1614    7.9603   16.5508 H   0  0  0  0  0  0  0  0  0  0  0  0
   44.0586    4.3630   12.2837 H   0  0  0  0  0  0  0  0  0  0  0  0
   49.7808    5.0238   16.3185 H   0  0  0  0  0  0  0  0  0  0  0  0
   48.7117    6.2414   17.1363 H   0  0  0  0  0  0  0  0  0  0  0  0
   48.3054    4.5438   17.2314 H   0  0  0  0  0  0  0  0  0  0  0  0
   42.9073    4.2238   10.2635 H   0  0  0  0  0  0  0  0  0  0  0  0
   43.7394    5.7107    9.7220 H   0  0  0  0  0  0  0  0  0  0  0  0
   45.7289    0.6057    8.8428 H   0  0  0  0  0  0  0  0  0  0  0  0
   46.8916    4.0853    6.6063 H   0  0  0  0  0  0  0  0  0  0  0  0
   44.2917    2.0032   10.2855 H   0  0  0  0  0  0  0  0  0  0  0  0
   45.4606    5.4960    8.0378 H   0  0  0  0  0  0  0  0  0  0  0  0
   50.4398    7.2842   16.0158 H   0  0  0  0  0  0  0  0  0  0  0  0
   50.4635    6.9226   14.2465 H   0  0  0  0  0  0  0  0  0  0  0  0
   50.7048    8.5882   14.8426 H   0  0  0  0  0  0  0  0  0  0  0  0
   48.8585    9.9259   14.1063 H   0  0  0  0  0  0  0  0  0  0  0  0
   47.2617    9.1897   13.7666 H   0  0  0  0  0  0  0  0  0  0  0  0
   48.7287    8.6409   12.8610 H   0  0  0  0  0  0  0  0  0  0  0  0
   46.6912   12.1130   21.5169 H   0  0  0  0  0  0  0  0  0  0  0  0
   48.2547   12.7337   20.8553 H   0  0  0  0  0  0  0  0  0  0  0  0
   48.2521   11.3327   22.0010 H   0  0  0  0  0  0  0  0  0  0  0  0
  2  1  2  0
  3  4  2  0
  4  1  1  0
  5  6  1  0
  6  2  1  0
  7 10  1  0
  8  7  2  0
  9  7  1  0
 10 14  1  0
 11  3  1  0
 12  8  1  0
 13  1  1  0
 14 11  1  0
 15  9  1  0
 16  2  1  0
 17 13  1  0
 18  6  2  0
 19 10  2  0
 20 13  2  0
 21  5  1  0
 22 17  1  0
 23 26  2  0
 24 22  1  0
 25 23  1  0
 26 28  1  0
 27 29  2  0
 28 24  2  0
 29 24  1  0
 30 11  1  0
 31 11  1  0
 32 15  1  0
  5  3  1  0
 27 23  1  0
 12 15  2  0
 14 33  1  0
 17 34  1  0
 21 35  1  0
 21 36  1  0
 21 37  1  0
 22 38  1  0
 22 39  1  0
 26 40  1  0
 27 41  1  0
 28 42  1  0
 29 43  1  0
 30 44  1  0
 30 45  1  0
 30 46  1  0
 31 47  1  0
 31 48  1  0
 31 49  1  0
 32 50  1  0
 32 51  1  0
 32 52  1  0
M  CHG  1  16  -1
M  END
> <Uni-Dock RESULT> 
ENERGY=   -7.269  LOWER_BOUND=    0.007  UPPER_BOUND=    0.007
INTER + INTRA:          -7.269
INTER:                  -7.269
INTRA:                   0.000
UNBOUND:                 0.000

$$$$

     RDKit          3D

 52 54  0  0  0  0  0  0  0  0999 V2000
   42.8883    9.4749   11.3210 C   0  0  0  0  0  0  0  0  0  0  0  0
   44.0803   10.1586   11.5599 C   0  0  0  0  0  0  0  0  0  0  0  0
   44.0432    7.3867   11.4655 C   0  0  0  0  0  0  0  0  0  0  0  0
   42.9063    8.1220   11.3068 N   0  0  0  0  0  0  0  0  0  0  0  0
   45.2508    8.0499   11.6281 N   0  0  0  0  0  0  0  0  0  0  0  0
   45.2573    9.4245   11.7124 C   0  0  0  0  0  0  0  0  0  0  0  0
   45.6718    3.4856    8.8676 C   0  0  0  0  0  0  0  0  0  0  0  0
   46.1972    4.3257    7.9548 N   0  0  0  0  0  0  0  0  0  0  0  0
   45.9409    2.2358    8.5741 O   0  0  0  0  0  0  0  0  0  0  0  0
   44.9003    3.9098   10.0435 C   0  0  0  0  0  0  0  0  0  0  0  0
   43.9031    5.8458   11.4392 C   0  0  0  0  0  0  0  0  0  0  0  0
   46.8142    3.5667    7.0624 N   0  0  0  0  0  0  0  0  0  0  0  0
   41.5974   10.1673   11.1369 C   0  0  0  0  0  0  0  0  0  0  0  0
   44.6445    5.3068   10.2824 N   0  0  0  0  0  0  0  0  0  0  0  0
   46.6364    2.2943    7.4643 C   0  0  0  0  0  0  0  0  0  0  0  0
   44.1065   11.5452   11.6839 O   0  0  0  0  0  0  0  0  0  0  0  0
   41.5255   11.4512   10.4979 N   0  0  0  0  0  0  0  0  0  0  0  0
   46.3299   10.0511   11.9410 O   0  0  0  0  0  0  0  0  0  0  0  0
   44.4677    3.0307   10.8353 O   0  0  0  0  0  0  0  0  0  0  0  0
   40.5386    9.5952   11.5136 O   0  0  0  0  0  0  0  0  0  0  0  0
   46.5339    7.3424   11.8087 C   0  0  0  0  0  0  0  0  0  0  0  0
   40.3248   12.2816   10.5503 C   0  0  0  0  0  0  0  0  0  0  0  0
   39.8483   13.8341   14.5431 C   0  0  0  0  0  0  0  0  0  0  0  0
   40.1398   12.8354   11.9364 C   0  0  0  0  0  0  0  0  0  0  0  0
   39.7067   14.3173   15.8019 F   0  0  0  0  0  0  0  0  0  0  0  0
   40.8546   14.3341   13.7114 C   0  0  0  0  0  0  0  0  0  0  0  0
   38.9903   12.8331   14.0778 C   0  0  0  0  0  0  0  0  0  0  0  0
   41.0028   13.8358   12.4134 C   0  0  0  0  0  0  0  0  0  0  0  0
   39.1357   12.3321   12.7804 C   0  0  0  0  0  0  0  0  0  0  0  0
   44.4161    5.2510   12.7765 C   0  0  0  0  0  0  0  0  0  0  0  0
   42.4153    5.4437   11.2770 C   0  0  0  0  0  0  0  0  0  0  0  0
   47.1941    1.1077    6.7560 C   0  0  0  0  0  0  0  0  0  0  0  0
   44.9500    5.9800    9.5423 H   0  0  0  0  0  0  0  0  0  0  0  0
   42.3370   11.7931    9.9361 H   0  0  0  0  0  0  0  0  0  0  0  0
   46.6948    7.1273   12.8857 H   0  0  0  0  0  0  0  0  0  0  0  0
   46.5921    6.4108   11.2212 H   0  0  0  0  0  0  0  0  0  0  0  0
   47.3883    7.9512   11.4432 H   0  0  0  0  0  0  0  0  0  0  0  0
   40.4294   13.1261    9.8348 H   0  0  0  0  0  0  0  0  0  0  0  0
   39.4413   11.6886   10.2273 H   0  0  0  0  0  0  0  0  0  0  0  0
   41.5220   15.1059   14.0724 H   0  0  0  0  0  0  0  0  0  0  0  0
   38.2137   12.4426   14.7229 H   0  0  0  0  0  0  0  0  0  0  0  0
   41.7909   14.2254   11.7806 H   0  0  0  0  0  0  0  0  0  0  0  0
   38.4681   11.5519   12.4362 H   0  0  0  0  0  0  0  0  0  0  0  0
   45.5090    5.0744   12.7608 H   0  0  0  0  0  0  0  0  0  0  0  0
   44.1711    5.9242   13.6265 H   0  0  0  0  0  0  0  0  0  0  0  0
   43.9463    4.2688   12.9966 H   0  0  0  0  0  0  0  0  0  0  0  0
   42.2921    4.3407   11.2649 H   0  0  0  0  0  0  0  0  0  0  0  0
   42.0092    5.8348   10.3191 H   0  0  0  0  0  0  0  0  0  0  0  0
   41.8056    5.8429   12.1167 H   0  0  0  0  0  0  0  0  0  0  0  0
   47.1386    1.2628    5.6582 H   0  0  0  0  0  0  0  0  0  0  0  0
   46.6123    0.2008    7.0230 H   0  0  0  0  0  0  0  0  0  0  0  0
   48.2532    0.9636    7.0538 H   0  0  0  0  0  0  0  0  0  0  0  0
  2  1  2  0
  3  4  2  0
  4  1  1  0
  5  6  1  0
  6  2  1  0
  7 10  1  0
  8  7  2  0
  9  7  1  0
 10 14  1  0
 11  3  1  0
 12  8  1  0
 13  1  1  0
 14 11  1  0
 15  9  1  0
 16  2  1  0
 17 13  1  0
 18  6  2  0
 19 10  2  0
 20 13  2  0
 21  5  1  0
 22 17  1  0
 23 26  2  0
 24 22  1  0
 25 23  1  0
 26 28  1  0
 27 29  2  0
 28 24  2  0
 29 24  1  0
 30 11  1  0
 31 11  1  0
 32 15  1  0
  5  3  1  0
 27 23  1  0
 12 15  2  0
 14 33  1  0
 17 34  1  0
 21 35  1  0
 21 36  1  0
 21 37  1  0
 22 38  1  0
 22 39  1  0
 26 40  1  0
 27 41  1  0
 28 42  1  0
 29 43  1  0
 30 44  1  0
 30 45  1  0
 30 46  1  0
 31 47  1  0
 31 48  1  0
 31 49  1  0
 32 50  1  0
 32 51  1  0
 32 52  1  0
M  CHG  1  16  -1
M  END
> <Uni-Dock RESULT> 
ENERGY=   -5.246  LOWER_BOUND=    6.281  UPPER_BOUND=   10.447
INTER + INTRA:          -5.246
INTER:                  -5.246
INTRA:                   0.000
UNBOUND:                 0.000

$$$$

     RDKit          3D

 52 54  0  0  0  0  0  0  0  0999 V2000
   45.7720    9.1096   12.4896 C   0  0  0  0  0  0  0  0  0  0  0  0
   45.2810    7.9084   11.9784 C   0  0  0  0  0  0  0  0  0  0  0  0
   47.3072    7.9073   13.8726 C   0  0  0  0  0  0  0  0  0  0  0  0
   46.7777    9.0687   13.3939 N   0  0  0  0  0  0  0  0  0  0  0  0
   46.7802    6.7016   13.4334 N   0  0  0  0  0  0  0  0  0  0  0  0
   45.8011    6.7083   12.4650 C   0  0  0  0  0  0  0  0  0  0  0  0
   48.3693    6.6072   18.5419 C   0  0  0  0  0  0  0  0  0  0  0  0
   47.0860    6.2379   18.7203 N   0  0  0  0  0  0  0  0  0  0  0  0
   49.0879    6.3610   19.6112 O   0  0  0  0  0  0  0  0  0  0  0  0
   48.9007    7.2046   17.3096 C   0  0  0  0  0  0  0  0  0  0  0  0
   48.4638    8.0210   14.8944 C   0  0  0  0  0  0  0  0  0  0  0  0
   47.0077    5.7452   19.9467 N   0  0  0  0  0  0  0  0  0  0  0  0
   45.2754   10.4263   12.0428 C   0  0  0  0  0  0  0  0  0  0  0  0
   48.0344    7.4484   16.1852 N   0  0  0  0  0  0  0  0  0  0  0  0
   48.2451    5.8380   20.4685 C   0  0  0  0  0  0  0  0  0  0  0  0
   44.3165    7.8901   10.9743 O   0  0  0  0  0  0  0  0  0  0  0  0
   43.9029   10.6156   11.6655 N   0  0  0  0  0  0  0  0  0  0  0  0
   45.3595    5.6257   11.9873 O   0  0  0  0  0  0  0  0  0  0  0  0
   50.1244    7.4992   17.2563 O   0  0  0  0  0  0  0  0  0  0  0  0
   46.0680   11.4071   12.0347 O   0  0  0  0  0  0  0  0  0  0  0  0
   47.2867    5.3928   13.8920 C   0  0  0  0  0  0  0  0  0  0  0  0
   43.4463   11.8107   10.9604 C   0  0  0  0  0  0  0  0  0  0  0  0
   44.9283   11.7220    6.9138 C   0  0  0  0  0  0  0  0  0  0  0  0
   43.9518   11.7996    9.5439 C   0  0  0  0  0  0  0  0  0  0  0  0
   45.3993   11.6854    5.6429 F   0  0  0  0  0  0  0  0  0  0  0  0
   43.8999   10.8589    7.3034 C   0  0  0  0  0  0  0  0  0  0  0  0
   45.4735   12.6204    7.8359 C   0  0  0  0  0  0  0  0  0  0  0  0
   43.4140   10.8945    8.6140 C   0  0  0  0  0  0  0  0  0  0  0  0
   44.9904   12.6587    9.1476 C   0  0  0  0  0  0  0  0  0  0  0  0
   49.7233    7.3054   14.3404 C   0  0  0  0  0  0  0  0  0  0  0  0
   48.8260    9.5087   15.1336 C   0  0  0  0  0  0  0  0  0  0  0  0
   48.6146    5.3689   21.8339 C   0  0  0  0  0  0  0  0  0  0  0  0
   47.0134    7.2680   16.3231 H   0  0  0  0  0  0  0  0  0  0  0  0
   43.1905    9.9024   11.9389 H   0  0  0  0  0  0  0  0  0  0  0  0
   48.1308    5.0709   13.2470 H   0  0  0  0  0  0  0  0  0  0  0  0
   47.5985    5.4045   14.9498 H   0  0  0  0  0  0  0  0  0  0  0  0
   46.4966    4.6132   13.8473 H   0  0  0  0  0  0  0  0  0  0  0  0
   42.3348   11.8286   10.9472 H   0  0  0  0  0  0  0  0  0  0  0  0
   43.7802   12.7209   11.5049 H   0  0  0  0  0  0  0  0  0  0  0  0
   43.4803   10.1601    6.5913 H   0  0  0  0  0  0  0  0  0  0  0  0
   46.2728   13.2859    7.5358 H   0  0  0  0  0  0  0  0  0  0  0  0
   42.6222   10.2157    8.9066 H   0  0  0  0  0  0  0  0  0  0  0  0
   45.4273   13.3551    9.8525 H   0  0  0  0  0  0  0  0  0  0  0  0
   49.7243    6.2236   14.5765 H   0  0  0  0  0  0  0  0  0  0  0  0
   49.7972    7.4349   13.2389 H   0  0  0  0  0  0  0  0  0  0  0  0
   50.6569    7.7191   14.7776 H   0  0  0  0  0  0  0  0  0  0  0  0
   49.6608    9.6117   15.8577 H   0  0  0  0  0  0  0  0  0  0  0  0
   47.9543   10.0589   15.5496 H   0  0  0  0  0  0  0  0  0  0  0  0
   49.1397    9.9952   14.1843 H   0  0  0  0  0  0  0  0  0  0  0  0
   47.7904    5.5885   22.5444 H   0  0  0  0  0  0  0  0  0  0  0  0
   49.5344    5.8879   22.1754 H   0  0  0  0  0  0  0  0  0  0  0  0
   48.7987    4.2749   21.8115 H   0  0  0  0  0  0  0  0  0  0  0  0
  2  1  2  0
  3  4  2  0
  4  1  1  0
  5  6  1  0
  6  2  1  0
  7 10  1  0
  8  7  2  0
  9  7  1  0
 10 14  1  0
 11  3  1  0
 12  8  1  0
 13  1  1  0
 14 11  1  0
 15  9  1  0
 16  2  1  0
 17 13  1  0
 18  6  2  0
 19 10  2  0
 20 13  2  0
 21  5  1  0
 22 17  1  0
 23 26  2  0
 24 22  1  0
 25 23  1  0
 26 28  1  0
 27 29  2  0
 28 24  2  0
 29 24  1  0
 30 11  1  0
 31 11  1  0
 32 15  1  0
  5  3  1  0
 27 23  1  0
 12 15  2  0
 14 33  1  0
 17 34  1  0
 21 35  1  0
 21 36  1  0
 21 37  1  0
 22 38  1  0
 22 39  1  0
 26 40  1  0
 27 41  1  0
 28 42  1  0
 29 43  1  0
 30 44  1  0
 30 45  1  0
 30 46  1  0
 31 47  1  0
 31 48  1  0
 31 49  1  0
 32 50  1  0
 32 51  1  0
 32 52  1  0
M  CHG  1  16  -1
M  END
> <Uni-Dock RESULT> 
ENERGY=   -5.037  LOWER_BOUND=    4.523  UPPER_BOUND=    5.538
INTER + INTRA:          -5.037
INTER:                  -5.037
INTRA:                   0.000
UNBOUND:                 0.000

$$$$
