
     RDKit          3D

 52 54  0  0  0  0  0  0  0  0999 V2000
   46.6678    4.7796   14.0318 C   0  0  0  0  0  0  0  0  0  0  0  0
   47.5414    5.7317   13.5057 C   0  0  0  0  0  0  0  0  0  0  0  0
   47.7335    4.9624   16.1624 C   0  0  0  0  0  0  0  0  0  0  0  0
   46.7839    4.4407   15.3365 N   0  0  0  0  0  0  0  0  0  0  0  0
   48.5911    5.9353   15.6689 N   0  0  0  0  0  0  0  0  0  0  0  0
   48.5139    6.2860   14.3395 C   0  0  0  0  0  0  0  0  0  0  0  0
   51.4037    3.2545   18.1422 C   0  0  0  0  0  0  0  0  0  0  0  0
   51.7840    3.8109   19.3086 N   0  0  0  0  0  0  0  0  0  0  0  0
   52.3608    2.5165   17.6328 O   0  0  0  0  0  0  0  0  0  0  0  0
   50.0888    3.4469   17.5176 C   0  0  0  0  0  0  0  0  0  0  0  0
   47.7306    4.4654   17.6216 C   0  0  0  0  0  0  0  0  0  0  0  0
   53.0237    3.4017   19.5292 N   0  0  0  0  0  0  0  0  0  0  0  0
   45.6045    4.1429   13.2288 C   0  0  0  0  0  0  0  0  0  0  0  0
   49.0983    4.2851   18.1424 N   0  0  0  0  0  0  0  0  0  0  0  0
   53.3512    2.6163   18.4860 C   0  0  0  0  0  0  0  0  0  0  0  0
   47.4371    6.1577   12.1843 O   0  0  0  0  0  0  0  0  0  0  0  0
   45.7961    3.8460   11.8381 N   0  0  0  0  0  0  0  0  0  0  0  0
   49.3202    7.1239   13.8462 O   0  0  0  0  0  0  0  0  0  0  0  0
   49.8477    2.8827   16.4168 O   0  0  0  0  0  0  0  0  0  0  0  0
   44.5264    3.8157   13.7955 O   0  0  0  0  0  0  0  0  0  0  0  0
   49.6430    6.5724   16.4874 C   0  0  0  0  0  0  0  0  0  0  0  0
   44.6886    3.3902   10.9993 C   0  0  0  0  0  0  0  0  0  0  0  0
   46.0773    2.8769    6.9509 C   0  0  0  0  0  0  0  0  0  0  0  0
   45.1439    3.2023    9.5775 C   0  0  0  0  0  0  0  0  0  0  0  0
   46.5248    2.7187    5.6809 F   0  0  0  0  0  0  0  0  0  0  0  0
   45.6073    4.1229    7.3766 C   0  0  0  0  0  0  0  0  0  0  0  0
   46.0923    1.7958    7.8373 C   0  0  0  0  0  0  0  0  0  0  0  0
   45.1472    4.2883    8.6867 C   0  0  0  0  0  0  0  0  0  0  0  0
   45.6331    1.9575    9.1483 C   0  0  0  0  0  0  0  0  0  0  0  0
   47.0003    3.1045   17.7469 C   0  0  0  0  0  0  0  0  0  0  0  0
   46.9521    5.4769   18.4923 C   0  0  0  0  0  0  0  0  0  0  0  0
   54.6605    1.9192   18.3422 C   0  0  0  0  0  0  0  0  0  0  0  0
   49.3545    4.7517   19.0424 H   0  0  0  0  0  0  0  0  0  0  0  0
   46.7599    3.8936   11.4359 H   0  0  0  0  0  0  0  0  0  0  0  0
   50.5816    5.9844   16.4183 H   0  0  0  0  0  0  0  0  0  0  0  0
   49.8525    7.6078   16.1436 H   0  0  0  0  0  0  0  0  0  0  0  0
   49.3507    6.6884   17.5431 H   0  0  0  0  0  0  0  0  0  0  0  0
   43.8681    4.1401   11.0326 H   0  0  0  0  0  0  0  0  0  0  0  0
   44.2871    2.4347   11.4019 H   0  0  0  0  0  0  0  0  0  0  0  0
   45.6027    4.9622    6.6932 H   0  0  0  0  0  0  0  0  0  0  0  0
   46.4633    0.8328    7.5106 H   0  0  0  0  0  0  0  0  0  0  0  0
   44.7956    5.2612    9.0074 H   0  0  0  0  0  0  0  0  0  0  0  0
   45.6599    1.1147    9.8279 H   0  0  0  0  0  0  0  0  0  0  0  0
   45.9199    3.2020   17.5026 H   0  0  0  0  0  0  0  0  0  0  0  0
   47.0828    2.7168   18.7855 H   0  0  0  0  0  0  0  0  0  0  0  0
   47.4375    2.3484   17.0622 H   0  0  0  0  0  0  0  0  0  0  0  0
   46.9341    5.1438   19.5526 H   0  0  0  0  0  0  0  0  0  0  0  0
   47.3965    6.4899   18.4623 H   0  0  0  0  0  0  0  0  0  0  0  0
   45.9019    5.5664   18.1386 H   0  0  0  0  0  0  0  0  0  0  0  0
   54.8466    1.6822   17.2739 H   0  0  0  0  0  0  0  0  0  0  0  0
   54.6440    0.9773   18.9286 H   0  0  0  0  0  0  0  0  0  0  0  0
   55.4781    2.5705   18.7159 H   0  0  0  0  0  0  0  0  0  0  0  0
  2  1  2  0
  3  4  2  0
  4  1  1  0
  5  6  1  0
  6  2  1  0
  7 10  1  0
  8  7  2  0
  9  7  1  0
 10 14  1  0
 11  3  1  0
 12  8  1  0
 13  1  1  0
 14 11  1  0
 15  9  1  0
 16  2  1  0
 17 13  1  0
 18  6  2  0
 19 10  2  0
 20 13  2  0
 21  5  1  0
 22 17  1  0
 23 26  2  0
 24 22  1  0
 25 23  1  0
 26 28  1  0
 27 29  2  0
 28 24  2  0
 29 24  1  0
 30 11  1  0
 31 11  1  0
 32 15  1  0
  5  3  1  0
 27 23  1  0
 12 15  2  0
 14 33  1  0
 17 34  1  0
 21 35  1  0
 21 36  1  0
 21 37  1  0
 22 38  1  0
 22 39  1  0
 26 40  1  0
 27 41  1  0
 28 42  1  0
 29 43  1  0
 30 44  1  0
 30 45  1  0
 30 46  1  0
 31 47  1  0
 31 48  1  0
 31 49  1  0
 32 50  1  0
 32 51  1  0
 32 52  1  0
M  CHG  1  16  -1
M  END
> <Uni-Dock RESULT> 
ENERGY=   -5.539  LOWER_BOUND=    0.000  UPPER_BOUND=    0.000
INTER + INTRA:          -5.539
INTER:                  -5.539
INTRA:                   0.000
UNBOUND:                 0.000

$$$$

     RDKit          3D

 52 54  0  0  0  0  0  0  0  0999 V2000
   47.7045    8.1465   13.2416 C   0  0  0  0  0  0  0  0  0  0  0  0
   48.8028    7.8210   12.4452 C   0  0  0  0  0  0  0  0  0  0  0  0
   49.1566    9.1405   14.8577 C   0  0  0  0  0  0  0  0  0  0  0  0
   47.9165    8.8032   14.4054 N   0  0  0  0  0  0  0  0  0  0  0  0
   50.2602    8.8563   14.0660 N   0  0  0  0  0  0  0  0  0  0  0  0
   50.0806    8.1686   12.8866 C   0  0  0  0  0  0  0  0  0  0  0  0
   51.7071    7.7067   18.2850 C   0  0  0  0  0  0  0  0  0  0  0  0
   52.5768    8.5906   18.8114 N   0  0  0  0  0  0  0  0  0  0  0  0
   51.9849    6.4823   18.6645 O   0  0  0  0  0  0  0  0  0  0  0  0
   50.5910    8.0631   17.3999 C   0  0  0  0  0  0  0  0  0  0  0  0
   49.2229    9.8835   16.2068 C   0  0  0  0  0  0  0  0  0  0  0  0
   53.4252    7.8863   19.5442 N   0  0  0  0  0  0  0  0  0  0  0  0
   46.3160    7.8250   12.8551 C   0  0  0  0  0  0  0  0  0  0  0  0
   50.3649    9.4349   17.0245 N   0  0  0  0  0  0  0  0  0  0  0  0
   53.0417    6.6008   19.4313 C   0  0  0  0  0  0  0  0  0  0  0  0
   48.6427    7.1915   11.2137 O   0  0  0  0  0  0  0  0  0  0  0  0
   46.0004    6.6234   12.1370 N   0  0  0  0  0  0  0  0  0  0  0  0
   51.0709    7.8419   12.1739 O   0  0  0  0  0  0  0  0  0  0  0  0
   49.8460    7.1475   16.9584 O   0  0  0  0  0  0  0  0  0  0  0  0
   45.3895    8.6051   13.2069 O   0  0  0  0  0  0  0  0  0  0  0  0
   51.6431    9.1945   14.4601 C   0  0  0  0  0  0  0  0  0  0  0  0
   44.6631    6.3932   11.5925 C   0  0  0  0  0  0  0  0  0  0  0  0
   44.6097    2.6431    9.4677 C   0  0  0  0  0  0  0  0  0  0  0  0
   44.6138    5.0891   10.8435 C   0  0  0  0  0  0  0  0  0  0  0  0
   44.6041    1.4620    8.8021 F   0  0  0  0  0  0  0  0  0  0  0  0
   44.9797    3.8173    8.8052 C   0  0  0  0  0  0  0  0  0  0  0  0
   44.2521    2.6861   10.8186 C   0  0  0  0  0  0  0  0  0  0  0  0
   44.9879    5.0361    9.4908 C   0  0  0  0  0  0  0  0  0  0  0  0
   44.2593    3.9031   11.5074 C   0  0  0  0  0  0  0  0  0  0  0  0
   47.9349    9.6512   17.0365 C   0  0  0  0  0  0  0  0  0  0  0  0
   49.3176   11.4018   15.9367 C   0  0  0  0  0  0  0  0  0  0  0  0
   53.7123    5.4639   20.1231 C   0  0  0  0  0  0  0  0  0  0  0  0
   51.0253   10.1555   17.3963 H   0  0  0  0  0  0  0  0  0  0  0  0
   46.7230    5.8717   12.0610 H   0  0  0  0  0  0  0  0  0  0  0  0
   52.0849    8.3575   15.0394 H   0  0  0  0  0  0  0  0  0  0  0  0
   52.2834    9.3818   13.5718 H   0  0  0  0  0  0  0  0  0  0  0  0
   51.7047   10.1269   15.0434 H   0  0  0  0  0  0  0  0  0  0  0  0
   44.3953    7.2275   10.9078 H   0  0  0  0  0  0  0  0  0  0  0  0
   43.9213    6.3869   12.4208 H   0  0  0  0  0  0  0  0  0  0  0  0
   45.2642    3.7835    7.7614 H   0  0  0  0  0  0  0  0  0  0  0  0
   43.9731    1.7761   11.3341 H   0  0  0  0  0  0  0  0  0  0  0  0
   45.2868    5.9370    8.9691 H   0  0  0  0  0  0  0  0  0  0  0  0
   43.9903    3.9209   12.5564 H   0  0  0  0  0  0  0  0  0  0  0  0
   47.0469   10.0965   16.5370 H   0  0  0  0  0  0  0  0  0  0  0  0
   48.0334   10.1186   18.0403 H   0  0  0  0  0  0  0  0  0  0  0  0
   47.7380    8.5683   17.1795 H   0  0  0  0  0  0  0  0  0  0  0  0
   49.3675   11.9644   16.8941 H   0  0  0  0  0  0  0  0  0  0  0  0
   50.2094   11.6697   15.3388 H   0  0  0  0  0  0  0  0  0  0  0  0
   48.4252   11.7528   15.3740 H   0  0  0  0  0  0  0  0  0  0  0  0
   53.4970    4.5160   19.5870 H   0  0  0  0  0  0  0  0  0  0  0  0
   53.3344    5.3897   21.1637 H   0  0  0  0  0  0  0  0  0  0  0  0
   54.8101    5.6276   20.1414 H   0  0  0  0  0  0  0  0  0  0  0  0
  2  1  2  0
  3  4  2  0
  4  1  1  0
  5  6  1  0
  6  2  1  0
  7 10  1  0
  8  7  2  0
  9  7  1  0
 10 14  1  0
 11  3  1  0
 12  8  1  0
 13  1  1  0
 14 11  1  0
 15  9  1  0
 16  2  1  0
 17 13  1  0
 18  6  2  0
 19 10  2  0
 20 13  2  0
 21  5  1  0
 22 17  1  0
 23 26  2  0
 24 22  1  0
 25 23  1  0
 26 28  1  0
 27 29  2  0
 28 24  2  0
 29 24  1  0
 30 11  1  0
 31 11  1  0
 32 15  1  0
  5  3  1  0
 27 23  1  0
 12 15  2  0
 14 33  1  0
 17 34  1  0
 21 35  1  0
 21 36  1  0
 21 37  1  0
 22 38  1  0
 22 39  1  0
 26 40  1  0
 27 41  1  0
 28 42  1  0
 29 43  1  0
 30 44  1  0
 30 45  1  0
 30 46  1  0
 31 47  1  0
 31 48  1  0
 31 49  1  0
 32 50  1  0
 32 51  1  0
 32 52  1  0
M  CHG  1  16  -1
M  END
> <Uni-Dock RESULT> 
ENERGY=   -4.799  LOWER_BOUND=    3.516  UPPER_BOUND=    4.072
INTER + INTRA:          -4.799
INTER:                  -4.799
INTRA:                   0.000
UNBOUND:                 0.000

$$$$

     RDKit          3D

 52 54  0  0  0  0  0  0  0  0999 V2000
   45.6934    8.7432   12.4511 C   0  0  0  0  0  0  0  0  0  0  0  0
   46.9232    8.3136   12.9506 C   0  0  0  0  0  0  0  0  0  0  0  0
   44.9907    6.4737   12.1976 C   0  0  0  0  0  0  0  0  0  0  0  0
   44.7706    7.8152   12.1077 N   0  0  0  0  0  0  0  0  0  0  0  0
   46.1940    6.0247   12.7231 N   0  0  0  0  0  0  0  0  0  0  0  0
   47.1629    6.9430   13.0609 C   0  0  0  0  0  0  0  0  0  0  0  0
   45.5274    3.2041    9.1433 C   0  0  0  0  0  0  0  0  0  0  0  0
   45.1490    1.9625    9.5039 N   0  0  0  0  0  0  0  0  0  0  0  0
   46.2810    3.1789    8.0701 O   0  0  0  0  0  0  0  0  0  0  0  0
   45.1479    4.4303    9.8566 C   0  0  0  0  0  0  0  0  0  0  0  0
   43.8349    5.5518   11.7611 C   0  0  0  0  0  0  0  0  0  0  0  0
   45.6894    1.1377    8.6204 N   0  0  0  0  0  0  0  0  0  0  0  0
   45.3473   10.1713   12.3038 C   0  0  0  0  0  0  0  0  0  0  0  0
   44.3240    4.3648   11.0359 N   0  0  0  0  0  0  0  0  0  0  0  0
   46.3794    1.9090    7.7595 C   0  0  0  0  0  0  0  0  0  0  0  0
   47.8919    9.2222   13.3683 O   0  0  0  0  0  0  0  0  0  0  0  0
   46.3364   11.1451   11.9403 N   0  0  0  0  0  0  0  0  0  0  0  0
   48.2906    6.5635   13.4847 O   0  0  0  0  0  0  0  0  0  0  0  0
   45.5707    5.5389    9.4318 O   0  0  0  0  0  0  0  0  0  0  0  0
   44.1470   10.5263   12.4580 O   0  0  0  0  0  0  0  0  0  0  0  0
   46.5220    4.5924   12.8757 C   0  0  0  0  0  0  0  0  0  0  0  0
   46.0413   12.5768   11.9755 C   0  0  0  0  0  0  0  0  0  0  0  0
   49.5765   14.7930   10.8926 C   0  0  0  0  0  0  0  0  0  0  0  0
   47.2592   13.3776   11.6016 C   0  0  0  0  0  0  0  0  0  0  0  0
   50.6941   15.4801   10.5506 F   0  0  0  0  0  0  0  0  0  0  0  0
   49.3577   14.4326   12.2255 C   0  0  0  0  0  0  0  0  0  0  0  0
   48.6457   14.4388    9.9113 C   0  0  0  0  0  0  0  0  0  0  0  0
   48.2064   13.7223   12.5798 C   0  0  0  0  0  0  0  0  0  0  0  0
   47.4934   13.7282   10.2618 C   0  0  0  0  0  0  0  0  0  0  0  0
   42.8488    6.2965   10.8262 C   0  0  0  0  0  0  0  0  0  0  0  0
   43.0353    5.1262   13.0129 C   0  0  0  0  0  0  0  0  0  0  0  0
   47.1270    1.3854    6.5814 C   0  0  0  0  0  0  0  0  0  0  0  0
   44.0190    3.4197   11.3636 H   0  0  0  0  0  0  0  0  0  0  0  0
   47.2624   10.8197   11.5804 H   0  0  0  0  0  0  0  0  0  0  0  0
   47.0074    4.2168   11.9511 H   0  0  0  0  0  0  0  0  0  0  0  0
   47.2144    4.4238   13.7279 H   0  0  0  0  0  0  0  0  0  0  0  0
   45.6407    3.9756   13.1128 H   0  0  0  0  0  0  0  0  0  0  0  0
   45.7081   12.8594   12.9981 H   0  0  0  0  0  0  0  0  0  0  0  0
   45.2066   12.8009   11.2761 H   0  0  0  0  0  0  0  0  0  0  0  0
   50.0817   14.6999   12.9846 H   0  0  0  0  0  0  0  0  0  0  0  0
   48.8184   14.7107    8.8779 H   0  0  0  0  0  0  0  0  0  0  0  0
   48.0538   13.4397   13.6142 H   0  0  0  0  0  0  0  0  0  0  0  0
   46.7856   13.4508    9.4904 H   0  0  0  0  0  0  0  0  0  0  0  0
   42.3340    7.1251   11.3597 H   0  0  0  0  0  0  0  0  0  0  0  0
   42.0715    5.5967   10.4496 H   0  0  0  0  0  0  0  0  0  0  0  0
   43.3744    6.7300    9.9500 H   0  0  0  0  0  0  0  0  0  0  0  0
   42.1936    4.4586   12.7278 H   0  0  0  0  0  0  0  0  0  0  0  0
   43.6605    4.5883   13.7506 H   0  0  0  0  0  0  0  0  0  0  0  0
   42.6130    6.0177   13.5257 H   0  0  0  0  0  0  0  0  0  0  0  0
   47.9096    2.1116    6.2779 H   0  0  0  0  0  0  0  0  0  0  0  0
   46.4242    1.2305    5.7368 H   0  0  0  0  0  0  0  0  0  0  0  0
   47.6101    0.4199    6.8395 H   0  0  0  0  0  0  0  0  0  0  0  0
  2  1  2  0
  3  4  2  0
  4  1  1  0
  5  6  1  0
  6  2  1  0
  7 10  1  0
  8  7  2  0
  9  7  1  0
 10 14  1  0
 11  3  1  0
 12  8  1  0
 13  1  1  0
 14 11  1  0
 15  9  1  0
 16  2  1  0
 17 13  1  0
 18  6  2  0
 19 10  2  0
 20 13  2  0
 21  5  1  0
 22 17  1  0
 23 26  2  0
 24 22  1  0
 25 23  1  0
 26 28  1  0
 27 29  2  0
 28 24  2  0
 29 24  1  0
 30 11  1  0
 31 11  1  0
 32 15  1  0
  5  3  1  0
 27 23  1  0
 12 15  2  0
 14 33  1  0
 17 34  1  0
 21 35  1  0
 21 36  1  0
 21 37  1  0
 22 38  1  0
 22 39  1  0
 26 40  1  0
 27 41  1  0
 28 42  1  0
 29 43  1  0
 30 44  1  0
 30 45  1  0
 30 46  1  0
 31 47  1  0
 31 48  1  0
 31 49  1  0
 32 50  1  0
 32 51  1  0
 32 52  1  0
M  CHG  1  16  -1
M  END
> <Uni-Dock RESULT> 
ENERGY=   -4.348  LOWER_BOUND=    5.473  UPPER_BOUND=    9.263
INTER + INTRA:          -4.348
INTER:                  -4.348
INTRA:                   0.000
UNBOUND:                 0.000

$$$$

     RDKit          3D

 52 54  0  0  0  0  0  0  0  0999 V2000
   48.1082    8.6074   14.7291 C   0  0  0  0  0  0  0  0  0  0  0  0
   48.7755    7.4169   15.0192 C   0  0  0  0  0  0  0  0  0  0  0  0
   49.1844    9.6740   16.5765 C   0  0  0  0  0  0  0  0  0  0  0  0
   48.3449    9.6912   15.5036 N   0  0  0  0  0  0  0  0  0  0  0  0
   49.8838    8.5102   16.8629 N   0  0  0  0  0  0  0  0  0  0  0  0
   49.6485    7.3830   16.1077 C   0  0  0  0  0  0  0  0  0  0  0  0
   48.5389    9.9442   21.0281 C   0  0  0  0  0  0  0  0  0  0  0  0
   49.5383   10.4741   21.7597 N   0  0  0  0  0  0  0  0  0  0  0  0
   47.6782    9.3095   21.7876 O   0  0  0  0  0  0  0  0  0  0  0  0
   48.4239   10.0594   19.5688 C   0  0  0  0  0  0  0  0  0  0  0  0
   49.3388   10.9950   17.3559 C   0  0  0  0  0  0  0  0  0  0  0  0
   49.2865   10.1549   23.0197 N   0  0  0  0  0  0  0  0  0  0  0  0
   47.1711    8.7405   13.5956 C   0  0  0  0  0  0  0  0  0  0  0  0
   49.4228   10.7671   18.8103 N   0  0  0  0  0  0  0  0  0  0  0  0
   48.1464    9.4391   23.0052 C   0  0  0  0  0  0  0  0  0  0  0  0
   48.6114    6.2838   14.2271 O   0  0  0  0  0  0  0  0  0  0  0  0
   46.3277    7.6518   13.1928 N   0  0  0  0  0  0  0  0  0  0  0  0
   50.2240    6.2924   16.3813 O   0  0  0  0  0  0  0  0  0  0  0  0
   47.4479    9.5125   18.9886 O   0  0  0  0  0  0  0  0  0  0  0  0
   47.0841    9.8511   13.0043 O   0  0  0  0  0  0  0  0  0  0  0  0
   50.8275    8.3949   17.9935 C   0  0  0  0  0  0  0  0  0  0  0  0
   45.5391    7.7168   11.9632 C   0  0  0  0  0  0  0  0  0  0  0  0
   43.4222    4.0008   11.4233 C   0  0  0  0  0  0  0  0  0  0  0  0
   44.7879    6.4310   11.7475 C   0  0  0  0  0  0  0  0  0  0  0  0
   42.7609    2.8281   11.2634 F   0  0  0  0  0  0  0  0  0  0  0  0
   44.7211    4.1445   10.9267 C   0  0  0  0  0  0  0  0  0  0  0  0
   42.8078    5.0645   12.0909 C   0  0  0  0  0  0  0  0  0  0  0  0
   45.4053    5.3528   11.0924 C   0  0  0  0  0  0  0  0  0  0  0  0
   43.4890    6.2743   12.2587 C   0  0  0  0  0  0  0  0  0  0  0  0
   48.1366   11.9385   17.1000 C   0  0  0  0  0  0  0  0  0  0  0  0
   50.6023   11.7276   16.8520 C   0  0  0  0  0  0  0  0  0  0  0  0
   47.4831    8.8976   24.2249 C   0  0  0  0  0  0  0  0  0  0  0  0
   50.2270   11.1821   19.3342 H   0  0  0  0  0  0  0  0  0  0  0  0
   46.2261    6.8260   13.8258 H   0  0  0  0  0  0  0  0  0  0  0  0
   50.2858    8.0640   18.9038 H   0  0  0  0  0  0  0  0  0  0  0  0
   51.6310    7.6589   17.7773 H   0  0  0  0  0  0  0  0  0  0  0  0
   51.3649    9.3344   18.1984 H   0  0  0  0  0  0  0  0  0  0  0  0
   46.2158    7.9032   11.1008 H   0  0  0  0  0  0  0  0  0  0  0  0
   44.8282    8.5697   12.0231 H   0  0  0  0  0  0  0  0  0  0  0  0
   45.2002    3.3188   10.4166 H   0  0  0  0  0  0  0  0  0  0  0  0
   41.8050    4.9513   12.4825 H   0  0  0  0  0  0  0  0  0  0  0  0
   46.4151    5.4479   10.7126 H   0  0  0  0  0  0  0  0  0  0  0  0
   43.0056    7.0868   12.7870 H   0  0  0  0  0  0  0  0  0  0  0  0
   48.0987   12.2655   16.0379 H   0  0  0  0  0  0  0  0  0  0  0  0
   48.2175   12.8472   17.7352 H   0  0  0  0  0  0  0  0  0  0  0  0
   47.1746   11.4382   17.3369 H   0  0  0  0  0  0  0  0  0  0  0  0
   50.7396   12.6859   17.3982 H   0  0  0  0  0  0  0  0  0  0  0  0
   51.5212   11.1258   16.9861 H   0  0  0  0  0  0  0  0  0  0  0  0
   50.5125   11.9559   15.7676 H   0  0  0  0  0  0  0  0  0  0  0  0
   46.8280    8.0445   23.9510 H   0  0  0  0  0  0  0  0  0  0  0  0
   46.8699    9.6932   24.6962 H   0  0  0  0  0  0  0  0  0  0  0  0
   48.2495    8.5474   24.9477 H   0  0  0  0  0  0  0  0  0  0  0  0
  2  1  2  0
  3  4  2  0
  4  1  1  0
  5  6  1  0
  6  2  1  0
  7 10  1  0
  8  7  2  0
  9  7  1  0
 10 14  1  0
 11  3  1  0
 12  8  1  0
 13  1  1  0
 14 11  1  0
 15  9  1  0
 16  2  1  0
 17 13  1  0
 18  6  2  0
 19 10  2  0
 20 13  2  0
 21  5  1  0
 22 17  1  0
 23 26  2  0
 24 22  1  0
 25 23  1  0
 26 28  1  0
 27 29  2  0
 28 24  2  0
 29 24  1  0
 30 11  1  0
 31 11  1  0
 32 15  1  0
  5  3  1  0
 27 23  1  0
 12 15  2  0
 14 33  1  0
 17 34  1  0
 21 35  1  0
 21 36  1  0
 21 37  1  0
 22 38  1  0
 22 39  1  0
 26 40  1  0
 27 41  1  0
 28 42  1  0
 29 43  1  0
 30 44  1  0
 30 45  1  0
 30 46  1  0
 31 47  1  0
 31 48  1  0
 31 49  1  0
 32 50  1  0
 32 51  1  0
 32 52  1  0
M  CHG  1  16  -1
M  END
> <Uni-Dock RESULT> 
ENERGY=   -4.319  LOWER_BOUND=    4.494  UPPER_BOUND=    6.207
INTER + INTRA:          -4.319
INTER:                  -4.319
INTRA:                   0.000
UNBOUND:                 0.000

$$$$

     RDKit          3D

 52 54  0  0  0  0  0  0  0  0999 V2000
   43.6128   10.6255   11.4323 C   0  0  0  0  0  0  0  0  0  0  0  0
   42.2913   10.3799   11.0582 C   0  0  0  0  0  0  0  0  0  0  0  0
   43.2687   12.9728   11.1490 C   0  0  0  0  0  0  0  0  0  0  0  0
   44.0488   11.9055   11.4784 N   0  0  0  0  0  0  0  0  0  0  0  0
   41.9419   12.7543   10.8065 N   0  0  0  0  0  0  0  0  0  0  0  0
   41.4734   11.4617   10.7282 C   0  0  0  0  0  0  0  0  0  0  0  0
   43.2905   15.8920    7.7161 C   0  0  0  0  0  0  0  0  0  0  0  0
   42.8048   17.1249    7.9589 N   0  0  0  0  0  0  0  0  0  0  0  0
   43.3932   15.6663    6.4282 O   0  0  0  0  0  0  0  0  0  0  0  0
   43.6584   14.9225    8.7558 C   0  0  0  0  0  0  0  0  0  0  0  0
   43.9219   14.3654   11.2516 C   0  0  0  0  0  0  0  0  0  0  0  0
   42.5990   17.6831    6.7761 N   0  0  0  0  0  0  0  0  0  0  0  0
   44.5500    9.5465   11.8039 C   0  0  0  0  0  0  0  0  0  0  0  0
   43.5026   15.2505   10.1493 N   0  0  0  0  0  0  0  0  0  0  0  0
   42.9627   16.7664    5.8598 C   0  0  0  0  0  0  0  0  0  0  0  0
   41.7718    9.0884   11.0422 O   0  0  0  0  0  0  0  0  0  0  0  0
   44.5035    8.2638   11.1624 N   0  0  0  0  0  0  0  0  0  0  0  0
   40.2879   11.2272   10.3606 O   0  0  0  0  0  0  0  0  0  0  0  0
   44.0942   13.7919    8.4090 O   0  0  0  0  0  0  0  0  0  0  0  0
   45.4352    9.7803   12.6714 O   0  0  0  0  0  0  0  0  0  0  0  0
   41.0121   13.8449   10.4484 C   0  0  0  0  0  0  0  0  0  0  0  0
   45.3001    7.1401   11.6530 C   0  0  0  0  0  0  0  0  0  0  0  0
   44.4636    3.6460    9.2711 C   0  0  0  0  0  0  0  0  0  0  0  0
   45.0285    5.9037   10.8395 C   0  0  0  0  0  0  0  0  0  0  0  0
   44.1931    2.5533    8.5156 F   0  0  0  0  0  0  0  0  0  0  0  0
   43.6758    3.9355   10.3892 C   0  0  0  0  0  0  0  0  0  0  0  0
   45.5263    4.4875    8.9284 C   0  0  0  0  0  0  0  0  0  0  0  0
   43.9523    5.0633   11.1685 C   0  0  0  0  0  0  0  0  0  0  0  0
   45.8055    5.6163    9.7053 C   0  0  0  0  0  0  0  0  0  0  0  0
   45.4673   14.2624   11.2054 C   0  0  0  0  0  0  0  0  0  0  0  0
   43.5522   14.9914   12.6150 C   0  0  0  0  0  0  0  0  0  0  0  0
   42.9171   16.9917    4.3873 C   0  0  0  0  0  0  0  0  0  0  0  0
   43.1134   16.1917   10.3864 H   0  0  0  0  0  0  0  0  0  0  0  0
   43.9400    8.1521   10.2890 H   0  0  0  0  0  0  0  0  0  0  0  0
   41.0610   14.0379    9.3567 H   0  0  0  0  0  0  0  0  0  0  0  0
   39.9641   13.5868   10.7117 H   0  0  0  0  0  0  0  0  0  0  0  0
   41.2123   14.7756   11.0024 H   0  0  0  0  0  0  0  0  0  0  0  0
   45.0494    6.9482   12.7192 H   0  0  0  0  0  0  0  0  0  0  0  0
   46.3798    7.4011   11.6033 H   0  0  0  0  0  0  0  0  0  0  0  0
   42.8482    3.2888   10.6506 H   0  0  0  0  0  0  0  0  0  0  0  0
   46.1317    4.2682    8.0583 H   0  0  0  0  0  0  0  0  0  0  0  0
   43.3279    5.2825   12.0259 H   0  0  0  0  0  0  0  0  0  0  0  0
   46.6249    6.2657    9.4227 H   0  0  0  0  0  0  0  0  0  0  0  0
   45.8629   13.7230   12.0936 H   0  0  0  0  0  0  0  0  0  0  0  0
   45.9211   15.2772   11.1911 H   0  0  0  0  0  0  0  0  0  0  0  0
   45.8078   13.7210   10.2984 H   0  0  0  0  0  0  0  0  0  0  0  0
   44.0102   15.9990   12.7168 H   0  0  0  0  0  0  0  0  0  0  0  0
   42.4590   15.1005   12.7471 H   0  0  0  0  0  0  0  0  0  0  0  0
   43.9236   14.3555   13.4479 H   0  0  0  0  0  0  0  0  0  0  0  0
   42.8706   16.0174    3.8577 H   0  0  0  0  0  0  0  0  0  0  0  0
   43.8288   17.5382    4.0687 H   0  0  0  0  0  0  0  0  0  0  0  0
   42.0195   17.5895    4.1244 H   0  0  0  0  0  0  0  0  0  0  0  0
  2  1  2  0
  3  4  2  0
  4  1  1  0
  5  6  1  0
  6  2  1  0
  7 10  1  0
  8  7  2  0
  9  7  1  0
 10 14  1  0
 11  3  1  0
 12  8  1  0
 13  1  1  0
 14 11  1  0
 15  9  1  0
 16  2  1  0
 17 13  1  0
 18  6  2  0
 19 10  2  0
 20 13  2  0
 21  5  1  0
 22 17  1  0
 23 26  2  0
 24 22  1  0
 25 23  1  0
 26 28  1  0
 27 29  2  0
 28 24  2  0
 29 24  1  0
 30 11  1  0
 31 11  1  0
 32 15  1  0
  5  3  1  0
 27 23  1  0
 12 15  2  0
 14 33  1  0
 17 34  1  0
 21 35  1  0
 21 36  1  0
 21 37  1  0
 22 38  1  0
 22 39  1  0
 26 40  1  0
 27 41  1  0
 28 42  1  0
 29 43  1  0
 30 44  1  0
 30 45  1  0
 30 46  1  0
 31 47  1  0
 31 48  1  0
 31 49  1  0
 32 50  1  0
 32 51  1  0
 32 52  1  0
M  CHG  1  16  -1
M  END
> <Uni-Dock RESULT> 
ENERGY=   -4.161  LOWER_BOUND=    8.685  UPPER_BOUND=   12.167
INTER + INTRA:          -4.161
INTER:                  -4.161
INTRA:                   0.000
UNBOUND:                 0.000

$$$$

     RDKit          3D

 52 54  0  0  0  0  0  0  0  0999 V2000
   46.0422    9.1286   12.4050 C   0  0  0  0  0  0  0  0  0  0  0  0
   45.4634    7.8594   12.4334 C   0  0  0  0  0  0  0  0  0  0  0  0
   48.0139    8.2651   13.4419 C   0  0  0  0  0  0  0  0  0  0  0  0
   47.2943    9.2838   12.8937 N   0  0  0  0  0  0  0  0  0  0  0  0
   47.4709    6.9882   13.4501 N   0  0  0  0  0  0  0  0  0  0  0  0
   46.1899    6.8008   12.9810 C   0  0  0  0  0  0  0  0  0  0  0  0
   49.3585    7.3216   17.6382 C   0  0  0  0  0  0  0  0  0  0  0  0
   50.4951    6.6107   17.7707 N   0  0  0  0  0  0  0  0  0  0  0  0
   48.6765    7.3415   18.7584 O   0  0  0  0  0  0  0  0  0  0  0  0
   48.9337    7.9896   16.4015 C   0  0  0  0  0  0  0  0  0  0  0  0
   49.4249    8.6130   13.9562 C   0  0  0  0  0  0  0  0  0  0  0  0
   50.5170    6.1738   19.0203 N   0  0  0  0  0  0  0  0  0  0  0  0
   45.3534   10.3067   11.8408 C   0  0  0  0  0  0  0  0  0  0  0  0
   49.7407    7.9069   15.2116 N   0  0  0  0  0  0  0  0  0  0  0  0
   49.3906    6.6317   19.5981 C   0  0  0  0  0  0  0  0  0  0  0  0
   44.1989    7.6285   11.8987 O   0  0  0  0  0  0  0  0  0  0  0  0
   43.9334   10.4714   11.9651 N   0  0  0  0  0  0  0  0  0  0  0  0
   45.6455    5.6622   13.0308 O   0  0  0  0  0  0  0  0  0  0  0  0
   47.8424    8.6199   16.3923 O   0  0  0  0  0  0  0  0  0  0  0  0
   46.0404   11.2034   11.2799 O   0  0  0  0  0  0  0  0  0  0  0  0
   48.1767    5.8161   14.0073 C   0  0  0  0  0  0  0  0  0  0  0  0
   43.2268   11.5342   11.2516 C   0  0  0  0  0  0  0  0  0  0  0  0
   39.0018   11.2298   12.0505 C   0  0  0  0  0  0  0  0  0  0  0  0
   41.7469   11.4531   11.5115 C   0  0  0  0  0  0  0  0  0  0  0  0
   37.6750   11.1249   12.3086 F   0  0  0  0  0  0  0  0  0  0  0  0
   39.5669   10.5136   10.9911 C   0  0  0  0  0  0  0  0  0  0  0  0
   39.8067   12.0489   12.8480 C   0  0  0  0  0  0  0  0  0  0  0  0
   40.9356   10.6192   10.7246 C   0  0  0  0  0  0  0  0  0  0  0  0
   41.1759   12.1567   12.5847 C   0  0  0  0  0  0  0  0  0  0  0  0
   49.5616   10.1323   14.2282 C   0  0  0  0  0  0  0  0  0  0  0  0
   50.4571    8.2557   12.8634 C   0  0  0  0  0  0  0  0  0  0  0  0
   49.0244    6.3927   21.0228 C   0  0  0  0  0  0  0  0  0  0  0  0
   50.6252    7.3513   15.2621 H   0  0  0  0  0  0  0  0  0  0  0  0
   43.4068    9.8606   12.6304 H   0  0  0  0  0  0  0  0  0  0  0  0
   47.9421    5.7137   15.0871 H   0  0  0  0  0  0  0  0  0  0  0  0
   47.8745    4.8789   13.4930 H   0  0  0  0  0  0  0  0  0  0  0  0
   49.2677    5.8672   13.8644 H   0  0  0  0  0  0  0  0  0  0  0  0
   43.4203   11.4376   10.1608 H   0  0  0  0  0  0  0  0  0  0  0  0
   43.6186   12.5229   11.5761 H   0  0  0  0  0  0  0  0  0  0  0  0
   38.9457    9.8733   10.3780 H   0  0  0  0  0  0  0  0  0  0  0  0
   39.3712   12.5975   13.6733 H   0  0  0  0  0  0  0  0  0  0  0  0
   41.3631   10.0510    9.9076 H   0  0  0  0  0  0  0  0  0  0  0  0
   41.7900   12.7864   13.2166 H   0  0  0  0  0  0  0  0  0  0  0  0
   49.4745   10.7203   13.2885 H   0  0  0  0  0  0  0  0  0  0  0  0
   50.5521   10.3554   14.6810 H   0  0  0  0  0  0  0  0  0  0  0  0
   48.7764   10.4885   14.9270 H   0  0  0  0  0  0  0  0  0  0  0  0
   51.4863    8.4960   13.2077 H   0  0  0  0  0  0  0  0  0  0  0  0
   50.4314    7.1831   12.5926 H   0  0  0  0  0  0  0  0  0  0  0  0
   50.2572    8.8353   11.9359 H   0  0  0  0  0  0  0  0  0  0  0  0
   47.9277    6.5027   21.1541 H   0  0  0  0  0  0  0  0  0  0  0  0
   49.5459    7.1304   21.6671 H   0  0  0  0  0  0  0  0  0  0  0  0
   49.3234    5.3666   21.3225 H   0  0  0  0  0  0  0  0  0  0  0  0
  2  1  2  0
  3  4  2  0
  4  1  1  0
  5  6  1  0
  6  2  1  0
  7 10  1  0
  8  7  2  0
  9  7  1  0
 10 14  1  0
 11  3  1  0
 12  8  1  0
 13  1  1  0
 14 11  1  0
 15  9  1  0
 16  2  1  0
 17 13  1  0
 18  6  2  0
 19 10  2  0
 20 13  2  0
 21  5  1  0
 22 17  1  0
 23 26  2  0
 24 22  1  0
 25 23  1  0
 26 28  1  0
 27 29  2  0
 28 24  2  0
 29 24  1  0
 30 11  1  0
 31 11  1  0
 32 15  1  0
  5  3  1  0
 27 23  1  0
 12 15  2  0
 14 33  1  0
 17 34  1  0
 21 35  1  0
 21 36  1  0
 21 37  1  0
 22 38  1  0
 22 39  1  0
 26 40  1  0
 27 41  1  0
 28 42  1  0
 29 43  1  0
 30 44  1  0
 30 45  1  0
 30 46  1  0
 31 47  1  0
 31 48  1  0
 31 49  1  0
 32 50  1  0
 32 51  1  0
 32 52  1  0
M  CHG  1  16  -1
M  END
> <Uni-Dock RESULT> 
ENERGY=   -4.154  LOWER_BOUND=    5.661  UPPER_BOUND=    7.169
INTER + INTRA:          -4.154
INTER:                  -4.154
INTRA:                   0.000
UNBOUND:                 0.000

$$$$

     RDKit          3D

 52 54  0  0  0  0  0  0  0  0999 V2000
   48.0846    9.6888   18.7888 C   0  0  0  0  0  0  0  0  0  0  0  0
   48.1910    9.8987   17.4136 C   0  0  0  0  0  0  0  0  0  0  0  0
   48.7918   11.9340   19.1979 C   0  0  0  0  0  0  0  0  0  0  0  0
   48.3728   10.7107   19.6272 N   0  0  0  0  0  0  0  0  0  0  0  0
   48.8725   12.1751   17.8338 N   0  0  0  0  0  0  0  0  0  0  0  0
   48.6079   11.1491   16.9542 C   0  0  0  0  0  0  0  0  0  0  0  0
   52.7166   14.1342   19.4460 C   0  0  0  0  0  0  0  0  0  0  0  0
   52.6628   15.4801   19.4668 N   0  0  0  0  0  0  0  0  0  0  0  0
   53.9299   13.7107   19.1833 O   0  0  0  0  0  0  0  0  0  0  0  0
   51.5681   13.2511   19.6855 C   0  0  0  0  0  0  0  0  0  0  0  0
   49.0823   12.9872   20.2855 C   0  0  0  0  0  0  0  0  0  0  0  0
   53.8893   15.9055   19.2068 N   0  0  0  0  0  0  0  0  0  0  0  0
   47.6466    8.4026   19.3675 C   0  0  0  0  0  0  0  0  0  0  0  0
   50.2659   13.8028   19.9569 N   0  0  0  0  0  0  0  0  0  0  0  0
   54.6406   14.8020   19.0331 C   0  0  0  0  0  0  0  0  0  0  0  0
   47.8585    8.9010   16.5013 O   0  0  0  0  0  0  0  0  0  0  0  0
   47.9932    7.1521   18.7551 N   0  0  0  0  0  0  0  0  0  0  0  0
   48.7313   11.3200   15.7088 O   0  0  0  0  0  0  0  0  0  0  0  0
   51.7359   12.0033   19.6305 O   0  0  0  0  0  0  0  0  0  0  0  0
   46.9938    8.4111   20.4466 O   0  0  0  0  0  0  0  0  0  0  0  0
   49.3011   13.4710   17.2686 C   0  0  0  0  0  0  0  0  0  0  0  0
   47.4093    5.8933   19.2160 C   0  0  0  0  0  0  0  0  0  0  0  0
   48.8566    2.6609   16.7586 C   0  0  0  0  0  0  0  0  0  0  0  0
   47.8968    4.7446   18.3752 C   0  0  0  0  0  0  0  0  0  0  0  0
   49.3181    1.6518   15.9797 F   0  0  0  0  0  0  0  0  0  0  0  0
   47.7149    3.3722   16.3777 C   0  0  0  0  0  0  0  0  0  0  0  0
   49.5262    2.9949   17.9396 C   0  0  0  0  0  0  0  0  0  0  0  0
   47.2386    4.4146   17.1791 C   0  0  0  0  0  0  0  0  0  0  0  0
   49.0529    4.0369   18.7434 C   0  0  0  0  0  0  0  0  0  0  0  0
   49.3442   12.3161   21.6573 C   0  0  0  0  0  0  0  0  0  0  0  0
   47.8380   13.8874   20.4540 C   0  0  0  0  0  0  0  0  0  0  0  0
   56.1027   14.8223   18.7452 C   0  0  0  0  0  0  0  0  0  0  0  0
   50.1719   14.8443   19.9672 H   0  0  0  0  0  0  0  0  0  0  0  0
   48.7268    7.1365   18.0105 H   0  0  0  0  0  0  0  0  0  0  0  0
   50.4032   13.4794   17.1397 H   0  0  0  0  0  0  0  0  0  0  0  0
   48.8314   13.6568   16.2792 H   0  0  0  0  0  0  0  0  0  0  0  0
   48.9897   14.3292   17.8849 H   0  0  0  0  0  0  0  0  0  0  0  0
   46.3008    5.9569   19.1547 H   0  0  0  0  0  0  0  0  0  0  0  0
   47.6781    5.7280   20.2822 H   0  0  0  0  0  0  0  0  0  0  0  0
   47.2005    3.1192   15.4596 H   0  0  0  0  0  0  0  0  0  0  0  0
   50.4147    2.4497   18.2311 H   0  0  0  0  0  0  0  0  0  0  0  0
   46.3593    4.9650   16.8675 H   0  0  0  0  0  0  0  0  0  0  0  0
   49.5870    4.2924   19.6503 H   0  0  0  0  0  0  0  0  0  0  0  0
   48.4354   11.7971   22.0332 H   0  0  0  0  0  0  0  0  0  0  0  0
   49.6384   13.0793   22.4101 H   0  0  0  0  0  0  0  0  0  0  0  0
   50.1607   11.5673   21.5899 H   0  0  0  0  0  0  0  0  0  0  0  0
   48.0192   14.6588   21.2336 H   0  0  0  0  0  0  0  0  0  0  0  0
   47.5642   14.4093   19.5174 H   0  0  0  0  0  0  0  0  0  0  0  0
   46.9588   13.2812   20.7633 H   0  0  0  0  0  0  0  0  0  0  0  0
   56.4051   13.8706   18.2605 H   0  0  0  0  0  0  0  0  0  0  0  0
   56.6645   14.9442   19.6943 H   0  0  0  0  0  0  0  0  0  0  0  0
   56.3420   15.6664   18.0653 H   0  0  0  0  0  0  0  0  0  0  0  0
  2  1  2  0
  3  4  2  0
  4  1  1  0
  5  6  1  0
  6  2  1  0
  7 10  1  0
  8  7  2  0
  9  7  1  0
 10 14  1  0
 11  3  1  0
 12  8  1  0
 13  1  1  0
 14 11  1  0
 15  9  1  0
 16  2  1  0
 17 13  1  0
 18  6  2  0
 19 10  2  0
 20 13  2  0
 21  5  1  0
 22 17  1  0
 23 26  2  0
 24 22  1  0
 25 23  1  0
 26 28  1  0
 27 29  2  0
 28 24  2  0
 29 24  1  0
 30 11  1  0
 31 11  1  0
 32 15  1  0
  5  3  1  0
 27 23  1  0
 12 15  2  0
 14 33  1  0
 17 34  1  0
 21 35  1  0
 21 36  1  0
 21 37  1  0
 22 38  1  0
 22 39  1  0
 26 40  1  0
 27 41  1  0
 28 42  1  0
 29 43  1  0
 30 44  1  0
 30 45  1  0
 30 46  1  0
 31 47  1  0
 31 48  1  0
 31 49  1  0
 32 50  1  0
 32 51  1  0
 32 52  1  0
M  CHG  1  16  -1
M  END
> <Uni-Dock RESULT> 
ENERGY=   -4.079  LOWER_BOUND=    6.820  UPPER_BOUND=    9.292
INTER + INTRA:          -4.079
INTER:                  -4.079
INTRA:                   0.000
UNBOUND:                 0.000

$$$$

     RDKit          3D

 52 54  0  0  0  0  0  0  0  0999 V2000
   43.5369   10.3664   11.3003 C   0  0  0  0  0  0  0  0  0  0  0  0
   44.3455   11.5033   11.3054 C   0  0  0  0  0  0  0  0  0  0  0  0
   41.5835   11.7416   11.3387 C   0  0  0  0  0  0  0  0  0  0  0  0
   42.1931   10.5237   11.3026 N   0  0  0  0  0  0  0  0  0  0  0  0
   42.3679   12.8859   11.3104 N   0  0  0  0  0  0  0  0  0  0  0  0
   43.7390   12.7602   11.3307 C   0  0  0  0  0  0  0  0  0  0  0  0
   39.1735   13.9154   14.4649 C   0  0  0  0  0  0  0  0  0  0  0  0
   38.2504   14.7923   14.0248 N   0  0  0  0  0  0  0  0  0  0  0  0
   39.4216   14.0865   15.7414 O   0  0  0  0  0  0  0  0  0  0  0  0
   39.8214   12.8981   13.6274 C   0  0  0  0  0  0  0  0  0  0  0  0
   40.0419   11.7443   11.3407 C   0  0  0  0  0  0  0  0  0  0  0  0
   37.9147   15.5343   15.0687 N   0  0  0  0  0  0  0  0  0  0  0  0
   44.0874    8.9964   11.2681 C   0  0  0  0  0  0  0  0  0  0  0  0
   39.4964   12.7872   12.2289 N   0  0  0  0  0  0  0  0  0  0  0  0
   38.6502   15.0833   16.1021 C   0  0  0  0  0  0  0  0  0  0  0  0
   45.7332   11.4046   11.2518 O   0  0  0  0  0  0  0  0  0  0  0  0
   45.3087    8.6668   11.9453 N   0  0  0  0  0  0  0  0  0  0  0  0
   44.4795   13.7828   11.3668 O   0  0  0  0  0  0  0  0  0  0  0  0
   40.6805   12.1365   14.1473 O   0  0  0  0  0  0  0  0  0  0  0  0
   43.4410    8.0941   10.6693 O   0  0  0  0  0  0  0  0  0  0  0  0
   41.8029   14.2507   11.3311 C   0  0  0  0  0  0  0  0  0  0  0  0
   45.9512    7.3661   11.7626 C   0  0  0  0  0  0  0  0  0  0  0  0
   49.6232    7.2550   14.0176 C   0  0  0  0  0  0  0  0  0  0  0  0
   47.2382    7.2977   12.5392 C   0  0  0  0  0  0  0  0  0  0  0  0
   50.7761    7.2308   14.7306 F   0  0  0  0  0  0  0  0  0  0  0  0
   49.6203    7.7482   12.7095 C   0  0  0  0  0  0  0  0  0  0  0  0
   48.4356    6.7930   14.5928 C   0  0  0  0  0  0  0  0  0  0  0  0
   48.4316    7.7756   11.9733 C   0  0  0  0  0  0  0  0  0  0  0  0
   47.2450    6.8191   13.8597 C   0  0  0  0  0  0  0  0  0  0  0  0
   39.4815   10.3820   11.8213 C   0  0  0  0  0  0  0  0  0  0  0  0
   39.5409   11.9531    9.8941 C   0  0  0  0  0  0  0  0  0  0  0  0
   38.5667   15.6253   17.4878 C   0  0  0  0  0  0  0  0  0  0  0  0
   38.7960   13.4583   11.8382 H   0  0  0  0  0  0  0  0  0  0  0  0
   45.7086    9.3459   12.6323 H   0  0  0  0  0  0  0  0  0  0  0  0
   41.6824   14.5925   12.3799 H   0  0  0  0  0  0  0  0  0  0  0  0
   42.4631   14.9707   10.8019 H   0  0  0  0  0  0  0  0  0  0  0  0
   40.8399   14.3220   10.8012 H   0  0  0  0  0  0  0  0  0  0  0  0
   46.1581    7.2058   10.6819 H   0  0  0  0  0  0  0  0  0  0  0  0
   45.2603    6.5611   12.0955 H   0  0  0  0  0  0  0  0  0  0  0  0
   50.5379    8.1132   12.2663 H   0  0  0  0  0  0  0  0  0  0  0  0
   48.4357    6.4183   15.6083 H   0  0  0  0  0  0  0  0  0  0  0  0
   48.4405    8.1701   10.9647 H   0  0  0  0  0  0  0  0  0  0  0  0
   46.3299    6.4681   14.3207 H   0  0  0  0  0  0  0  0  0  0  0  0
   39.7397    9.5659   11.1115 H   0  0  0  0  0  0  0  0  0  0  0  0
   38.3737   10.4276   11.9019 H   0  0  0  0  0  0  0  0  0  0  0  0
   39.8875   10.1084   12.8173 H   0  0  0  0  0  0  0  0  0  0  0  0
   38.4298   11.9600    9.8650 H   0  0  0  0  0  0  0  0  0  0  0  0
   39.8979   12.9048    9.4567 H   0  0  0  0  0  0  0  0  0  0  0  0
   39.9003   11.1321    9.2362 H   0  0  0  0  0  0  0  0  0  0  0  0
   39.5022   15.3963   18.0396 H   0  0  0  0  0  0  0  0  0  0  0  0
   37.7078   15.1610   18.0151 H   0  0  0  0  0  0  0  0  0  0  0  0
   38.4264   16.7260   17.4550 H   0  0  0  0  0  0  0  0  0  0  0  0
  2  1  2  0
  3  4  2  0
  4  1  1  0
  5  6  1  0
  6  2  1  0
  7 10  1  0
  8  7  2  0
  9  7  1  0
 10 14  1  0
 11  3  1  0
 12  8  1  0
 13  1  1  0
 14 11  1  0
 15  9  1  0
 16  2  1  0
 17 13  1  0
 18  6  2  0
 19 10  2  0
 20 13  2  0
 21  5  1  0
 22 17  1  0
 23 26  2  0
 24 22  1  0
 25 23  1  0
 26 28  1  0
 27 29  2  0
 28 24  2  0
 29 24  1  0
 30 11  1  0
 31 11  1  0
 32 15  1  0
  5  3  1  0
 27 23  1  0
 12 15  2  0
 14 33  1  0
 17 34  1  0
 21 35  1  0
 21 36  1  0
 21 37  1  0
 22 38  1  0
 22 39  1  0
 26 40  1  0
 27 41  1  0
 28 42  1  0
 29 43  1  0
 30 44  1  0
 30 45  1  0
 30 46  1  0
 31 47  1  0
 31 48  1  0
 31 49  1  0
 32 50  1  0
 32 51  1  0
 32 52  1  0
M  CHG  1  16  -1
M  END
> <Uni-Dock RESULT> 
ENERGY=   -3.924  LOWER_BOUND=    8.636  UPPER_BOUND=   11.783
INTER + INTRA:          -3.924
INTER:                  -3.924
INTRA:                   0.000
UNBOUND:                 0.000

$$$$

     RDKit          3D

 52 54  0  0  0  0  0  0  0  0999 V2000
   49.6126    8.1772   16.1018 C   0  0  0  0  0  0  0  0  0  0  0  0
   49.4841    9.4280   16.7065 C   0  0  0  0  0  0  0  0  0  0  0  0
   49.0321    9.1270   13.9877 C   0  0  0  0  0  0  0  0  0  0  0  0
   49.3978    8.0732   14.7701 N   0  0  0  0  0  0  0  0  0  0  0  0
   48.9311   10.3861   14.5620 N   0  0  0  0  0  0  0  0  0  0  0  0
   49.1213   10.5219   15.9191 C   0  0  0  0  0  0  0  0  0  0  0  0
   45.2330   10.2144   11.8217 C   0  0  0  0  0  0  0  0  0  0  0  0
   45.3567   10.9635   10.7090 N   0  0  0  0  0  0  0  0  0  0  0  0
   43.9936   10.2006   12.2506 O   0  0  0  0  0  0  0  0  0  0  0  0
   46.3399    9.5034   12.4741 C   0  0  0  0  0  0  0  0  0  0  0  0
   48.8226    8.8361   12.4884 C   0  0  0  0  0  0  0  0  0  0  0  0
   44.1479   11.4313   10.4393 N   0  0  0  0  0  0  0  0  0  0  0  0
   49.9975    6.9647   16.8518 C   0  0  0  0  0  0  0  0  0  0  0  0
   47.6750    9.5822   11.9401 N   0  0  0  0  0  0  0  0  0  0  0  0
   43.3367   10.9527   11.4011 C   0  0  0  0  0  0  0  0  0  0  0  0
   49.7426    9.6061   18.0629 O   0  0  0  0  0  0  0  0  0  0  0  0
   49.5723    6.7588   18.2067 N   0  0  0  0  0  0  0  0  0  0  0  0
   48.9769   11.6438   16.4810 O   0  0  0  0  0  0  0  0  0  0  0  0
   46.1067    8.8393   13.5194 O   0  0  0  0  0  0  0  0  0  0  0  0
   50.6757    6.0764   16.2672 O   0  0  0  0  0  0  0  0  0  0  0  0
   48.5565   11.5930   13.7968 C   0  0  0  0  0  0  0  0  0  0  0  0
   50.1014    5.6573   19.0096 C   0  0  0  0  0  0  0  0  0  0  0  0
   48.4307    5.8490   22.9787 C   0  0  0  0  0  0  0  0  0  0  0  0
   49.5352    5.6985   20.4031 C   0  0  0  0  0  0  0  0  0  0  0  0
   47.8991    5.9187   24.2239 F   0  0  0  0  0  0  0  0  0  0  0  0
   49.5980    6.5563   22.6761 C   0  0  0  0  0  0  0  0  0  0  0  0
   47.8078    5.0752   21.9948 C   0  0  0  0  0  0  0  0  0  0  0  0
   50.1466    6.4871   21.3916 C   0  0  0  0  0  0  0  0  0  0  0  0
   48.3534    5.0038   20.7091 C   0  0  0  0  0  0  0  0  0  0  0  0
   48.5595    7.3289   12.2432 C   0  0  0  0  0  0  0  0  0  0  0  0
   50.1153    9.1985   11.7238 C   0  0  0  0  0  0  0  0  0  0  0  0
   41.8711   11.2149   11.4664 C   0  0  0  0  0  0  0  0  0  0  0  0
   47.8228   10.1662   11.0853 H   0  0  0  0  0  0  0  0  0  0  0  0
   48.8212    7.3689   18.6023 H   0  0  0  0  0  0  0  0  0  0  0  0
   47.4535   11.7144   13.8015 H   0  0  0  0  0  0  0  0  0  0  0  0
   49.0112   12.5074   14.2340 H   0  0  0  0  0  0  0  0  0  0  0  0
   48.9264   11.5725   12.7595 H   0  0  0  0  0  0  0  0  0  0  0  0
   51.2099    5.7332   19.0544 H   0  0  0  0  0  0  0  0  0  0  0  0
   49.8502    4.6895   18.5231 H   0  0  0  0  0  0  0  0  0  0  0  0
   50.0765    7.1617   23.4351 H   0  0  0  0  0  0  0  0  0  0  0  0
   46.8996    4.5336   22.2262 H   0  0  0  0  0  0  0  0  0  0  0  0
   51.0453    7.0483   21.1669 H   0  0  0  0  0  0  0  0  0  0  0  0
   47.8552    4.4093   19.9533 H   0  0  0  0  0  0  0  0  0  0  0  0
   49.4491    6.7156   12.5058 H   0  0  0  0  0  0  0  0  0  0  0  0
   48.3232    7.1480   11.1721 H   0  0  0  0  0  0  0  0  0  0  0  0
   47.7041    6.9655   12.8499 H   0  0  0  0  0  0  0  0  0  0  0  0
   49.9929    8.9991   10.6372 H   0  0  0  0  0  0  0  0  0  0  0  0
   50.3930   10.2629   11.8444 H   0  0  0  0  0  0  0  0  0  0  0  0
   50.9692    8.5905   12.0943 H   0  0  0  0  0  0  0  0  0  0  0  0
   41.5085   11.0739   12.5060 H   0  0  0  0  0  0  0  0  0  0  0  0
   41.3393   10.5098   10.7946 H   0  0  0  0  0  0  0  0  0  0  0  0
   41.6593   12.2569   11.1477 H   0  0  0  0  0  0  0  0  0  0  0  0
  2  1  2  0
  3  4  2  0
  4  1  1  0
  5  6  1  0
  6  2  1  0
  7 10  1  0
  8  7  2  0
  9  7  1  0
 10 14  1  0
 11  3  1  0
 12  8  1  0
 13  1  1  0
 14 11  1  0
 15  9  1  0
 16  2  1  0
 17 13  1  0
 18  6  2  0
 19 10  2  0
 20 13  2  0
 21  5  1  0
 22 17  1  0
 23 26  2  0
 24 22  1  0
 25 23  1  0
 26 28  1  0
 27 29  2  0
 28 24  2  0
 29 24  1  0
 30 11  1  0
 31 11  1  0
 32 15  1  0
  5  3  1  0
 27 23  1  0
 12 15  2  0
 14 33  1  0
 17 34  1  0
 21 35  1  0
 21 36  1  0
 21 37  1  0
 22 38  1  0
 22 39  1  0
 26 40  1  0
 27 41  1  0
 28 42  1  0
 29 43  1  0
 30 44  1  0
 30 45  1  0
 30 46  1  0
 31 47  1  0
 31 48  1  0
 31 49  1  0
 32 50  1  0
 32 51  1  0
 32 52  1  0
M  CHG  1  16  -1
M  END
> <Uni-Dock RESULT> 
ENERGY=   -3.783  LOWER_BOUND=    5.580  UPPER_BOUND=   10.676
INTER + INTRA:          -3.783
INTER:                  -3.783
INTRA:                   0.000
UNBOUND:                 0.000

$$$$
