
     RDKit          2D

 40 41  0  0  0  0  0  0  0  0999 V2000
    0.0000    2.2990    0.0000 Na  0  0  0  0  0 15  0  0  0  0  0  0
    3.3037   -4.2221    0.0000 N   0  0  0  0  0  0  0  0  0  0  0  0
    4.6740   -4.8322    0.0000 C   0  0  0  0  0  0  0  0  0  0  0  0
    2.0046   -4.9721    0.0000 C   0  0  0  0  0  0  0  0  0  0  0  0
    6.2011   -6.9341    0.0000 P   0  0  0  0  0  0  0  0  0  0  0  0
    4.8308   -6.3240    0.0000 C   0  0  0  0  0  0  0  0  0  0  0  0
    2.9918   -2.7549    0.0000 C   0  0  0  0  0  0  0  0  0  0  0  0
    5.5910   -8.3044    0.0000 O   0  0  0  0  0  0  0  0  0  0  0  0
    6.4727   -9.5179    0.0000 C   0  0  0  0  0  0  0  0  0  0  0  0
    0.8899   -3.9684    0.0000 C   0  0  0  0  0  0  0  0  0  0  0  0
    1.8478   -6.4639    0.0000 C   0  0  0  0  0  0  0  0  0  0  0  0
    1.5000   -2.5981    0.0000 C   0  0  0  0  0  0  0  0  0  0  0  0
    7.9644   -9.3611    0.0000 O   0  0  0  0  0  0  0  0  0  0  0  0
    8.8461  -10.5747    0.0000 C   0  0  0  0  0  0  0  0  0  0  0  0
    6.8112   -5.5638    0.0000 O   0  0  0  0  0  0  0  0  0  0  0  0
    5.8875   -3.9505    0.0000 O   0  0  0  0  0  0  0  0  0  0  0  0
    0.4775   -7.0740    0.0000 O   0  0  0  0  0  0  0  0  0  0  0  0
    3.0613   -7.3456    0.0000 O   0  0  0  0  0  0  0  0  0  0  0  0
    8.2360  -11.9450    0.0000 O   0  0  0  0  0  0  0  0  0  0  0  0
    0.7500   -1.2990    0.0000 C   0  0  0  0  0  0  0  0  0  0  0  0
    5.8625  -10.8882    0.0000 C   0  0  0  0  0  0  0  0  0  0  0  0
    7.5714   -7.5442    0.0000 C   0  0  0  0  0  0  0  0  0  0  0  0
   12.7391   -7.0010    0.0000 C   0  0  0  0  0  0  0  0  0  0  0  0
   10.3379  -10.4179    0.0000 C   0  0  0  0  0  0  0  0  0  0  0  0
    1.5000    0.0000    0.0000 C   0  0  0  0  0  0  0  0  0  0  0  0
   -0.7500   -1.2990    0.0000 C   0  0  0  0  0  0  0  0  0  0  0  0
    6.7442  -12.1018    0.0000 C   0  0  0  0  0  0  0  0  0  0  0  0
    4.3708  -11.0450    0.0000 C   0  0  0  0  0  0  0  0  0  0  0  0
   11.3688   -6.3909    0.0000 C   0  0  0  0  0  0  0  0  0  0  0  0
   12.8959   -8.4928    0.0000 C   0  0  0  0  0  0  0  0  0  0  0  0
   13.9526   -6.1194    0.0000 C   0  0  0  0  0  0  0  0  0  0  0  0
    8.7849   -6.6625    0.0000 C   0  0  0  0  0  0  0  0  0  0  0  0
   10.1552   -7.2726    0.0000 C   0  0  0  0  0  0  0  0  0  0  0  0
   11.2196  -11.6314    0.0000 C   0  0  0  0  0  0  0  0  0  0  0  0
    0.7500    1.2990    0.0000 C   0  0  0  0  0  0  0  0  0  0  0  0
   -1.5000    0.0000    0.0000 C   0  0  0  0  0  0  0  0  0  0  0  0
   14.2662   -9.1029    0.0000 C   0  0  0  0  0  0  0  0  0  0  0  0
   15.3229   -6.7295    0.0000 C   0  0  0  0  0  0  0  0  0  0  0  0
   15.4797   -8.2213    0.0000 C   0  0  0  0  0  0  0  0  0  0  0  0
   -0.7500    1.2990    0.0000 C   0  0  0  0  0  0  0  0  0  0  0  0
  3  2  1  0
  4  2  1  0
  5  6  1  1
  6  3  1  0
  7  2  1  0
  8  5  1  0
  9  8  1  6
 10  4  1  0
  4 11  1  6
 12  7  1  0
 13  9  1  0
 14 13  1  0
 15  5  2  0
 16  3  2  0
 17 11  1  0
 18 11  2  0
 19 14  2  0
 12 20  1  1
  9 21  1  0
 23 29  1  0
 24 14  1  0
 25 20  1  0
 26 20  1  0
 27 21  1  0
 28 21  1  0
 29 33  1  0
 30 23  2  0
 31 23  1  0
 32 22  1  0
 33 32  1  0
 34 24  1  0
 35 25  1  0
 36 26  1  0
 37 30  1  0
 38 31  2  0
 39 37  2  0
 40 35  1  0
 10 12  1  0
 40 36  1  0
 39 38  1  0
  5 22  1  0
M  CHG  2   1   1  17  -1
M  END
