
     RDKit          3D

 84 86  0  0  0  0  0  0  0  0999 V2000
    1.9443    0.0534   -0.1502 N   0  0  0  0  0  0  0  0  0  0  0  0
    0.6484    0.4808    0.3017 C   0  0  0  0  0  0  0  0  0  0  0  0
    3.1936    0.6346    0.3223 C   0  0  1  0  0  0  0  0  0  0  0  0
   -2.0034    1.2213   -0.1062 P   0  0  1  0  0  0  0  0  0  0  0  0
   -0.5778    0.1517   -0.5072 C   0  0  0  0  0  0  0  0  0  0  0  0
    2.1429   -1.1039   -1.0067 C   0  0  0  0  0  0  0  0  0  0  0  0
   -1.4643    2.8449   -0.1388 O   0  0  0  0  0  0  0  0  0  0  0  0
   -2.5631    3.7172   -0.3007 C   0  0  2  0  0  0  0  0  0  0  0  0
    4.2997   -0.1039   -0.4355 C   0  0  0  0  0  0  0  0  0  0  0  0
    3.2424    2.1146    0.0623 C   0  0  0  0  0  0  0  0  0  0  0  0
    3.6517   -1.3905   -0.9858 C   0  0  1  0  0  0  0  0  0  0  0  0
   -2.9051    3.7831   -1.6900 O   0  0  0  0  0  0  0  0  0  0  0  0
   -4.2136    3.8863   -2.1722 C   0  0  0  0  0  0  0  0  0  0  0  0
   -3.0702    0.9938   -1.1554 O   0  0  0  0  0  0  0  0  0  0  0  0
    0.5490    1.1119    1.3905 O   0  0  0  0  0  0  0  0  0  0  0  0
    3.8261    2.9631    0.9972 O   0  0  0  0  0  0  0  0  0  0  0  0
    2.8043    2.5889   -1.0205 O   0  0  0  0  0  0  0  0  0  0  0  0
   -5.1995    3.8166   -1.3890 O   0  0  0  0  0  0  0  0  0  0  0  0
    4.0109   -2.6768   -0.1783 C   0  0  0  0  0  0  0  0  0  0  0  0
   -2.1554    5.1181    0.2107 C   0  0  0  0  0  0  0  0  0  0  0  0
   -2.6939    0.8527    1.5506 C   0  0  0  0  0  0  0  0  0  0  0  0
   -2.1700   -3.5671    1.0550 C   0  0  0  0  0  0  0  0  0  0  0  0
   -4.4383    4.0753   -3.6394 C   0  0  0  0  0  0  0  0  0  0  0  0
    5.4795   -3.1138   -0.4485 C   0  0  0  0  0  0  0  0  0  0  0  0
    3.7236   -2.5629    1.3397 C   0  0  0  0  0  0  0  0  0  0  0  0
   -3.3399    6.0929    0.2026 C   0  0  0  0  0  0  0  0  0  0  0  0
   -0.9825    5.7002   -0.5917 C   0  0  0  0  0  0  0  0  0  0  0  0
   -3.5289   -2.9766    1.3428 C   0  0  0  0  0  0  0  0  0  0  0  0
   -1.2727   -3.8233    2.1052 C   0  0  0  0  0  0  0  0  0  0  0  0
   -1.7684   -3.8149   -0.2704 C   0  0  0  0  0  0  0  0  0  0  0  0
   -2.6716   -0.6407    1.9000 C   0  0  0  0  0  0  0  0  0  0  0  0
   -3.5852   -1.4831    0.9933 C   0  0  0  0  0  0  0  0  0  0  0  0
   -5.0918    5.4241   -3.9208 C   0  0  0  0  0  0  0  0  0  0  0  0
    6.1125   -3.9067    0.7110 C   0  0  0  0  0  0  0  0  0  0  0  0
    3.9685   -3.8971    2.0756 C   0  0  0  0  0  0  0  0  0  0  0  0
    0.0012   -4.3302    1.8346 C   0  0  0  0  0  0  0  0  0  0  0  0
   -0.4913   -4.3188   -0.5364 C   0  0  0  0  0  0  0  0  0  0  0  0
    0.3912   -4.5788    0.5150 C   0  0  0  0  0  0  0  0  0  0  0  0
    5.0712   -4.7631    1.4346 C   0  0  0  0  0  0  0  0  0  0  0  0
    3.2912    0.4446    1.4143 H   0  0  0  0  0  0  0  0  0  0  0  0
   -0.3440    0.2998   -1.5821 H   0  0  0  0  0  0  0  0  0  0  0  0
   -0.8488   -0.9141   -0.3632 H   0  0  0  0  0  0  0  0  0  0  0  0
    1.8133   -0.8579   -2.0384 H   0  0  0  0  0  0  0  0  0  0  0  0
    1.5447   -1.9641   -0.6368 H   0  0  0  0  0  0  0  0  0  0  0  0
   -3.4323    3.3813    0.3135 H   0  0  0  0  0  0  0  0  0  0  0  0
    4.6597    0.5017   -1.2981 H   0  0  0  0  0  0  0  0  0  0  0  0
    5.1730   -0.2946    0.2222 H   0  0  0  0  0  0  0  0  0  0  0  0
    3.9891   -1.5463   -2.0365 H   0  0  0  0  0  0  0  0  0  0  0  0
    3.3608   -3.4963   -0.5658 H   0  0  0  0  0  0  0  0  0  0  0  0
   -1.8223    5.0083    1.2663 H   0  0  0  0  0  0  0  0  0  0  0  0
   -3.7334    1.2390    1.6091 H   0  0  0  0  0  0  0  0  0  0  0  0
   -2.0874    1.3984    2.3035 H   0  0  0  0  0  0  0  0  0  0  0  0
   -3.4632    4.0253   -4.1737 H   0  0  0  0  0  0  0  0  0  0  0  0
   -5.0869    3.2584   -4.0228 H   0  0  0  0  0  0  0  0  0  0  0  0
    6.1294   -2.2386   -0.6578 H   0  0  0  0  0  0  0  0  0  0  0  0
    5.4946   -3.7437   -1.3654 H   0  0  0  0  0  0  0  0  0  0  0  0
    2.6724   -2.2478    1.5158 H   0  0  0  0  0  0  0  0  0  0  0  0
    4.3855   -1.7924    1.7908 H   0  0  0  0  0  0  0  0  0  0  0  0
   -4.1795    5.6839    0.8037 H   0  0  0  0  0  0  0  0  0  0  0  0
   -3.0372    7.0620    0.6527 H   0  0  0  0  0  0  0  0  0  0  0  0
   -3.6910    6.2855   -0.8325 H   0  0  0  0  0  0  0  0  0  0  0  0
   -1.2645    5.8432   -1.6572 H   0  0  0  0  0  0  0  0  0  0  0  0
   -0.1026    5.0244   -0.5409 H   0  0  0  0  0  0  0  0  0  0  0  0
   -0.6801    6.6827   -0.1699 H   0  0  0  0  0  0  0  0  0  0  0  0
   -3.8084   -3.1248    2.4089 H   0  0  0  0  0  0  0  0  0  0  0  0
   -4.2884   -3.5147    0.7349 H   0  0  0  0  0  0  0  0  0  0  0  0
   -1.5564   -3.6243    3.1331 H   0  0  0  0  0  0  0  0  0  0  0  0
   -2.4414   -3.6106   -1.0941 H   0  0  0  0  0  0  0  0  0  0  0  0
   -3.0128   -0.7560    2.9503 H   0  0  0  0  0  0  0  0  0  0  0  0
   -1.6266   -1.0072    1.8577 H   0  0  0  0  0  0  0  0  0  0  0  0
   -4.6336   -1.1313    1.1087 H   0  0  0  0  0  0  0  0  0  0  0  0
   -3.3066   -1.3586   -0.0730 H   0  0  0  0  0  0  0  0  0  0  0  0
   -4.4672    6.2506   -3.5136 H   0  0  0  0  0  0  0  0  0  0  0  0
   -6.1037    5.4643   -3.4608 H   0  0  0  0  0  0  0  0  0  0  0  0
   -5.1966    5.5645   -5.0172 H   0  0  0  0  0  0  0  0  0  0  0  0
    6.5731   -3.2017    1.4395 H   0  0  0  0  0  0  0  0  0  0  0  0
    6.9236   -4.5570    0.3157 H   0  0  0  0  0  0  0  0  0  0  0  0
    3.0281   -4.4888    2.1018 H   0  0  0  0  0  0  0  0  0  0  0  0
    4.2426   -3.6727    3.1313 H   0  0  0  0  0  0  0  0  0  0  0  0
    0.6835   -4.5295    2.6504 H   0  0  0  0  0  0  0  0  0  0  0  0
   -0.1849   -4.5072   -1.5579 H   0  0  0  0  0  0  0  0  0  0  0  0
    1.3773   -4.9731    0.3060 H   0  0  0  0  0  0  0  0  0  0  0  0
    4.6133   -5.4687    0.7055 H   0  0  0  0  0  0  0  0  0  0  0  0
    5.5706   -5.3688    2.2213 H   0  0  0  0  0  0  0  0  0  0  0  0
  2  1  1  0
  3  1  1  0
  4  5  1  0
  5  2  1  0
  6  1  1  0
  4  7  1  1
  8  7  1  0
  9  3  1  0
  3 10  1  0
 11  6  1  0
 12  8  1  0
 13 12  1  0
 14  4  2  0
 15  2  2  0
 16 10  1  0
 17 10  2  0
 18 13  2  0
 11 19  1  0
  8 20  1  0
 22 28  1  0
 23 13  1  0
 24 19  1  0
 25 19  1  0
 26 20  1  0
 27 20  1  0
 28 32  1  0
 29 22  2  0
 30 22  1  0
 31 21  1  0
 32 31  1  0
 33 23  1  0
 34 24  1  0
 35 25  1  0
 36 29  1  0
 37 30  2  0
 38 36  2  0
 39 34  1  0
  9 11  1  0
 39 35  1  0
 38 37  1  0
  4 21  1  0
  3 40  1  1
  5 41  1  0
  5 42  1  0
  6 43  1  0
  6 44  1  0
  8 45  1  1
  9 46  1  0
  9 47  1  0
 11 48  1  6
 19 49  1  0
 20 50  1  0
 21 51  1  0
 21 52  1  0
 23 53  1  0
 23 54  1  0
 24 55  1  0
 24 56  1  0
 25 57  1  0
 25 58  1  0
 26 59  1  0
 26 60  1  0
 26 61  1  0
 27 62  1  0
 27 63  1  0
 27 64  1  0
 28 65  1  0
 28 66  1  0
 29 67  1  0
 30 68  1  0
 31 69  1  0
 31 70  1  0
 32 71  1  0
 32 72  1  0
 33 73  1  0
 33 74  1  0
 33 75  1  0
 34 76  1  0
 34 77  1  0
 35 78  1  0
 35 79  1  0
 36 80  1  0
 37 81  1  0
 38 82  1  0
 39 83  1  0
 39 84  1  0
M  CHG  1  16  -1
M  END
$$$$
