
     RDKit          3D

 84 86  0  0  0  0  0  0  0  0999 V2000
    2.2585    0.9193   -0.1238 N   0  0  0  0  0  0  0  0  0  0  0  0
    1.3914    1.7012   -0.9687 C   0  0  0  0  0  0  0  0  0  0  0  0
    2.0210    0.6219    1.2836 C   0  0  1  0  0  0  0  0  0  0  0  0
   -1.2321    0.9461   -1.1633 P   0  0  1  0  0  0  0  0  0  0  0  0
    0.0168    2.1181   -0.5315 C   0  0  0  0  0  0  0  0  0  0  0  0
    3.4450    0.2542   -0.6391 C   0  0  0  0  0  0  0  0  0  0  0  0
   -2.7846    1.3224   -0.5565 O   0  0  0  0  0  0  0  0  0  0  0  0
   -3.1352    2.6533   -0.8773 C   0  0  2  0  0  0  0  0  0  0  0  0
    2.9880   -0.5139    1.6161 C   0  0  0  0  0  0  0  0  0  0  0  0
    2.2944    1.8352    2.1295 C   0  0  0  0  0  0  0  0  0  0  0  0
    4.1098   -0.4186    0.5706 C   0  0  1  0  0  0  0  0  0  0  0  0
   -2.6906    3.5125    0.1766 O   0  0  0  0  0  0  0  0  0  0  0  0
   -2.2596    4.8313   -0.0118 C   0  0  0  0  0  0  0  0  0  0  0  0
   -1.2429    1.0003   -2.6754 O   0  0  0  0  0  0  0  0  0  0  0  0
    1.7689    2.0028   -2.1342 O   0  0  0  0  0  0  0  0  0  0  0  0
    1.4255    2.1704    3.1610 O   0  0  0  0  0  0  0  0  0  0  0  0
    3.3294    2.5271    1.9386 O   0  0  0  0  0  0  0  0  0  0  0  0
   -2.1127    5.3063   -1.1717 O   0  0  0  0  0  0  0  0  0  0  0  0
    4.7593   -1.7944    0.2270 C   0  0  0  0  0  0  0  0  0  0  0  0
   -4.6736    2.7270   -1.0155 C   0  0  0  0  0  0  0  0  0  0  0  0
   -0.8126   -0.7518   -0.6292 C   0  0  0  0  0  0  0  0  0  0  0  0
   -3.5348   -4.3154   -0.8521 C   0  0  0  0  0  0  0  0  0  0  0  0
   -1.9734    5.6853    1.1821 C   0  0  0  0  0  0  0  0  0  0  0  0
    5.8720   -1.6726   -0.8441 C   0  0  0  0  0  0  0  0  0  0  0  0
    5.3176   -2.5264    1.4723 C   0  0  0  0  0  0  0  0  0  0  0  0
   -5.1428    4.1077   -1.4934 C   0  0  0  0  0  0  0  0  0  0  0  0
   -5.3838    2.3452    0.2935 C   0  0  0  0  0  0  0  0  0  0  0  0
   -3.8707   -3.0271   -1.5591 C   0  0  0  0  0  0  0  0  0  0  0  0
   -4.0985   -4.5970    0.4047 C   0  0  0  0  0  0  0  0  0  0  0  0
   -2.6413   -5.2353   -1.4281 C   0  0  0  0  0  0  0  0  0  0  0  0
   -1.6265   -1.8288   -1.3613 C   0  0  0  0  0  0  0  0  0  0  0  0
   -3.1129   -1.8300   -0.9668 C   0  0  0  0  0  0  0  0  0  0  0  0
   -2.9965    6.8115    1.2971 C   0  0  0  0  0  0  0  0  0  0  0  0
    7.1463   -1.0140   -0.2954 C   0  0  0  0  0  0  0  0  0  0  0  0
    6.5838   -1.8577    2.0230 C   0  0  0  0  0  0  0  0  0  0  0  0
   -3.7789   -5.7853    1.0698 C   0  0  0  0  0  0  0  0  0  0  0  0
   -2.3256   -6.4224   -0.7597 C   0  0  0  0  0  0  0  0  0  0  0  0
   -2.8944   -6.6977    0.4878 C   0  0  0  0  0  0  0  0  0  0  0  0
    7.6646   -1.7550    0.9419 C   0  0  0  0  0  0  0  0  0  0  0  0
    0.9785    0.2746    1.4416 H   0  0  0  0  0  0  0  0  0  0  0  0
   -0.1942    3.1268   -0.9418 H   0  0  0  0  0  0  0  0  0  0  0  0
   -0.0632    2.1836    0.5715 H   0  0  0  0  0  0  0  0  0  0  0  0
    3.1338   -0.4921   -1.4033 H   0  0  0  0  0  0  0  0  0  0  0  0
    4.1338    0.9974   -1.0989 H   0  0  0  0  0  0  0  0  0  0  0  0
   -2.7027    2.9710   -1.8555 H   0  0  0  0  0  0  0  0  0  0  0  0
    3.3886   -0.4461    2.6525 H   0  0  0  0  0  0  0  0  0  0  0  0
    2.4467   -1.4807    1.5074 H   0  0  0  0  0  0  0  0  0  0  0  0
    4.8792    0.2777    0.9693 H   0  0  0  0  0  0  0  0  0  0  0  0
    3.9621   -2.4439   -0.2008 H   0  0  0  0  0  0  0  0  0  0  0  0
   -4.9780    1.9890   -1.7916 H   0  0  0  0  0  0  0  0  0  0  0  0
   -0.9645   -0.8379    0.4675 H   0  0  0  0  0  0  0  0  0  0  0  0
    0.2621   -0.9301   -0.8427 H   0  0  0  0  0  0  0  0  0  0  0  0
   -0.9515    6.1140    1.0946 H   0  0  0  0  0  0  0  0  0  0  0  0
   -2.0141    5.0629    2.1029 H   0  0  0  0  0  0  0  0  0  0  0  0
    5.5137   -1.1008   -1.7253 H   0  0  0  0  0  0  0  0  0  0  0  0
    6.1272   -2.6897   -1.2125 H   0  0  0  0  0  0  0  0  0  0  0  0
    5.5609   -3.5758    1.1930 H   0  0  0  0  0  0  0  0  0  0  0  0
    4.5539   -2.5884    2.2758 H   0  0  0  0  0  0  0  0  0  0  0  0
   -4.6194    4.3930   -2.4304 H   0  0  0  0  0  0  0  0  0  0  0  0
   -4.9525    4.8813   -0.7199 H   0  0  0  0  0  0  0  0  0  0  0  0
   -6.2338    4.0865   -1.7026 H   0  0  0  0  0  0  0  0  0  0  0  0
   -6.4851    2.3661    0.1490 H   0  0  0  0  0  0  0  0  0  0  0  0
   -5.1219    3.0548    1.1074 H   0  0  0  0  0  0  0  0  0  0  0  0
   -5.1014    1.3165    0.6053 H   0  0  0  0  0  0  0  0  0  0  0  0
   -3.6598   -3.1069   -2.6481 H   0  0  0  0  0  0  0  0  0  0  0  0
   -4.9625   -2.8419   -1.4606 H   0  0  0  0  0  0  0  0  0  0  0  0
   -4.7856   -3.8974    0.8671 H   0  0  0  0  0  0  0  0  0  0  0  0
   -2.1901   -5.0333   -2.3920 H   0  0  0  0  0  0  0  0  0  0  0  0
   -1.5270   -1.6969   -2.4596 H   0  0  0  0  0  0  0  0  0  0  0  0
   -1.1803   -2.8120   -1.1025 H   0  0  0  0  0  0  0  0  0  0  0  0
   -3.5921   -0.9089   -1.3560 H   0  0  0  0  0  0  0  0  0  0  0  0
   -3.2183   -1.8271    0.1394 H   0  0  0  0  0  0  0  0  0  0  0  0
   -4.0245    6.3939    1.3677 H   0  0  0  0  0  0  0  0  0  0  0  0
   -2.7900    7.4094    2.2102 H   0  0  0  0  0  0  0  0  0  0  0  0
   -2.9318    7.4821    0.4124 H   0  0  0  0  0  0  0  0  0  0  0  0
    7.9307   -1.0310   -1.0821 H   0  0  0  0  0  0  0  0  0  0  0  0
    6.9528    0.0514   -0.0480 H   0  0  0  0  0  0  0  0  0  0  0  0
    6.3444   -0.8480    2.4191 H   0  0  0  0  0  0  0  0  0  0  0  0
    6.9737   -2.4639    2.8684 H   0  0  0  0  0  0  0  0  0  0  0  0
   -4.2149   -5.9974    2.0377 H   0  0  0  0  0  0  0  0  0  0  0  0
   -1.6388   -7.1282   -1.2079 H   0  0  0  0  0  0  0  0  0  0  0  0
   -2.6514   -7.6196    1.0011 H   0  0  0  0  0  0  0  0  0  0  0  0
    7.9957   -2.7757    0.6500 H   0  0  0  0  0  0  0  0  0  0  0  0
    8.5437   -1.2144    1.3534 H   0  0  0  0  0  0  0  0  0  0  0  0
  2  1  1  0
  3  1  1  0
  4  5  1  0
  5  2  1  0
  6  1  1  0
  4  7  1  1
  8  7  1  0
  9  3  1  0
  3 10  1  0
 11  6  1  0
 12  8  1  0
 13 12  1  0
 14  4  2  0
 15  2  2  0
 16 10  1  0
 17 10  2  0
 18 13  2  0
 11 19  1  0
  8 20  1  0
 22 28  1  0
 23 13  1  0
 24 19  1  0
 25 19  1  0
 26 20  1  0
 27 20  1  0
 28 32  1  0
 29 22  2  0
 30 22  1  0
 31 21  1  0
 32 31  1  0
 33 23  1  0
 34 24  1  0
 35 25  1  0
 36 29  1  0
 37 30  2  0
 38 36  2  0
 39 34  1  0
  9 11  1  0
 39 35  1  0
 38 37  1  0
  4 21  1  0
  3 40  1  6
  5 41  1  0
  5 42  1  0
  6 43  1  0
  6 44  1  0
  8 45  1  6
  9 46  1  0
  9 47  1  0
 11 48  1  1
 19 49  1  0
 20 50  1  0
 21 51  1  0
 21 52  1  0
 23 53  1  0
 23 54  1  0
 24 55  1  0
 24 56  1  0
 25 57  1  0
 25 58  1  0
 26 59  1  0
 26 60  1  0
 26 61  1  0
 27 62  1  0
 27 63  1  0
 27 64  1  0
 28 65  1  0
 28 66  1  0
 29 67  1  0
 30 68  1  0
 31 69  1  0
 31 70  1  0
 32 71  1  0
 32 72  1  0
 33 73  1  0
 33 74  1  0
 33 75  1  0
 34 76  1  0
 34 77  1  0
 35 78  1  0
 35 79  1  0
 36 80  1  0
 37 81  1  0
 38 82  1  0
 39 83  1  0
 39 84  1  0
M  CHG  1  16  -1
M  END
$$$$
