
     RDKit          3D

 84 86  0  0  0  0  0  0  0  0999 V2000
    2.1775    0.8739    0.7386 N   0  0  0  0  0  0  0  0  0  0  0  0
    0.8993    0.7440    0.0936 C   0  0  0  0  0  0  0  0  0  0  0  0
    2.5173    0.1648    1.9629 C   0  0  1  0  0  0  0  0  0  0  0  0
   -0.7583   -0.1803   -2.0080 P   0  0  1  0  0  0  0  0  0  0  0  0
    0.8128    0.5632   -1.4019 C   0  0  0  0  0  0  0  0  0  0  0  0
    3.3235    1.5144    0.1139 C   0  0  0  0  0  0  0  0  0  0  0  0
   -1.7936    1.0158   -2.6612 O   0  0  0  0  0  0  0  0  0  0  0  0
   -2.1246    1.9893   -1.6902 C   0  0  2  0  0  0  0  0  0  0  0  0
    3.9833    0.4992    2.2509 C   0  0  0  0  0  0  0  0  0  0  0  0
    1.6077    0.5540    3.0967 C   0  0  0  0  0  0  0  0  0  0  0  0
    4.5454    1.1372    0.9660 C   0  0  1  0  0  0  0  0  0  0  0  0
   -3.2432    1.5281   -0.9265 O   0  0  0  0  0  0  0  0  0  0  0  0
   -3.4801    1.8829    0.4074 C   0  0  0  0  0  0  0  0  0  0  0  0
   -0.3818   -1.0975   -3.1504 O   0  0  0  0  0  0  0  0  0  0  0  0
   -0.1426    0.7784    0.7934 O   0  0  0  0  0  0  0  0  0  0  0  0
    0.7390   -0.3893    3.6363 O   0  0  0  0  0  0  0  0  0  0  0  0
    1.5911    1.7364    3.5353 O   0  0  0  0  0  0  0  0  0  0  0  0
   -2.6159    2.5162    1.0753 O   0  0  0  0  0  0  0  0  0  0  0  0
    5.5673    0.2488    0.1916 C   0  0  0  0  0  0  0  0  0  0  0  0
   -2.4835    3.2997   -2.4300 C   0  0  0  0  0  0  0  0  0  0  0  0
   -1.6460   -1.2145   -0.7851 C   0  0  0  0  0  0  0  0  0  0  0  0
   -3.7304   -3.3110    0.6374 C   0  0  0  0  0  0  0  0  0  0  0  0
   -4.7967    1.5449    1.0323 C   0  0  0  0  0  0  0  0  0  0  0  0
    5.0269   -1.1570   -0.1718 C   0  0  0  0  0  0  0  0  0  0  0  0
    6.9032    0.1347    0.9601 C   0  0  0  0  0  0  0  0  0  0  0  0
   -3.7546    3.1477   -3.2815 C   0  0  0  0  0  0  0  0  0  0  0  0
   -2.6237    4.4917   -1.4704 C   0  0  0  0  0  0  0  0  0  0  0  0
   -2.3950   -3.9556    0.9091 C   0  0  0  0  0  0  0  0  0  0  0  0
   -4.3646   -3.4812   -0.6066 C   0  0  0  0  0  0  0  0  0  0  0  0
   -4.3734   -2.5610    1.6394 C   0  0  0  0  0  0  0  0  0  0  0  0
   -0.7477   -2.3385   -0.2473 C   0  0  0  0  0  0  0  0  0  0  0  0
   -1.2582   -2.9326    1.0781 C   0  0  0  0  0  0  0  0  0  0  0  0
   -5.7248    2.7534    1.0090 C   0  0  0  0  0  0  0  0  0  0  0  0
    6.0725   -1.9514   -0.9679 C   0  0  0  0  0  0  0  0  0  0  0  0
    7.9356   -0.6646    0.1575 C   0  0  0  0  0  0  0  0  0  0  0  0
   -5.6134   -2.9008   -0.8460 C   0  0  0  0  0  0  0  0  0  0  0  0
   -5.6270   -1.9897    1.3972 C   0  0  0  0  0  0  0  0  0  0  0  0
   -6.2451   -2.1575    0.1547 C   0  0  0  0  0  0  0  0  0  0  0  0
    7.3954   -2.0544   -0.1979 C   0  0  0  0  0  0  0  0  0  0  0  0
    2.4196   -0.9283    1.7765 H   0  0  0  0  0  0  0  0  0  0  0  0
    0.9741    1.5392   -1.9044 H   0  0  0  0  0  0  0  0  0  0  0  0
    1.6332   -0.1175   -1.7127 H   0  0  0  0  0  0  0  0  0  0  0  0
    3.4408    1.1838   -0.9409 H   0  0  0  0  0  0  0  0  0  0  0  0
    3.1681    2.6157    0.1131 H   0  0  0  0  0  0  0  0  0  0  0  0
   -1.2611    2.2158   -1.0284 H   0  0  0  0  0  0  0  0  0  0  0  0
    4.5291   -0.4110    2.5667 H   0  0  0  0  0  0  0  0  0  0  0  0
    4.0802    1.2330    3.0806 H   0  0  0  0  0  0  0  0  0  0  0  0
    5.0680    2.0804    1.2380 H   0  0  0  0  0  0  0  0  0  0  0  0
    5.7927    0.7766   -0.7625 H   0  0  0  0  0  0  0  0  0  0  0  0
   -1.6430    3.5357   -3.1210 H   0  0  0  0  0  0  0  0  0  0  0  0
   -2.0252   -0.5844    0.0405 H   0  0  0  0  0  0  0  0  0  0  0  0
   -2.5201   -1.6528   -1.2990 H   0  0  0  0  0  0  0  0  0  0  0  0
   -4.6406    1.2141    2.0821 H   0  0  0  0  0  0  0  0  0  0  0  0
   -5.2706    0.7129    0.4689 H   0  0  0  0  0  0  0  0  0  0  0  0
    4.7652   -1.7315    0.7399 H   0  0  0  0  0  0  0  0  0  0  0  0
    4.1065   -1.0701   -0.7875 H   0  0  0  0  0  0  0  0  0  0  0  0
    7.3156    1.1503    1.1491 H   0  0  0  0  0  0  0  0  0  0  0  0
    6.7524   -0.3594    1.9435 H   0  0  0  0  0  0  0  0  0  0  0  0
   -3.9412    4.0764   -3.8622 H   0  0  0  0  0  0  0  0  0  0  0  0
   -3.6391    2.3135   -4.0046 H   0  0  0  0  0  0  0  0  0  0  0  0
   -4.6402    2.9489   -2.6397 H   0  0  0  0  0  0  0  0  0  0  0  0
   -3.5056    4.3696   -0.8045 H   0  0  0  0  0  0  0  0  0  0  0  0
   -2.7495    5.4300   -2.0527 H   0  0  0  0  0  0  0  0  0  0  0  0
   -1.7078    4.6004   -0.8499 H   0  0  0  0  0  0  0  0  0  0  0  0
   -2.1312   -4.6854    0.1117 H   0  0  0  0  0  0  0  0  0  0  0  0
   -2.4843   -4.5375    1.8528 H   0  0  0  0  0  0  0  0  0  0  0  0
   -3.8878   -4.0556   -1.3918 H   0  0  0  0  0  0  0  0  0  0  0  0
   -3.9114   -2.4320    2.6104 H   0  0  0  0  0  0  0  0  0  0  0  0
    0.2708   -1.9420   -0.0588 H   0  0  0  0  0  0  0  0  0  0  0  0
   -0.6417   -3.1355   -1.0144 H   0  0  0  0  0  0  0  0  0  0  0  0
   -0.4081   -3.4640    1.5535 H   0  0  0  0  0  0  0  0  0  0  0  0
   -1.5524   -2.1245    1.7814 H   0  0  0  0  0  0  0  0  0  0  0  0
   -5.2796    3.5933    1.5866 H   0  0  0  0  0  0  0  0  0  0  0  0
   -6.6986    2.4848    1.4709 H   0  0  0  0  0  0  0  0  0  0  0  0
   -5.9038    3.0793   -0.0396 H   0  0  0  0  0  0  0  0  0  0  0  0
    5.6835   -2.9754   -1.1638 H   0  0  0  0  0  0  0  0  0  0  0  0
    6.2498   -1.4575   -1.9497 H   0  0  0  0  0  0  0  0  0  0  0  0
    8.1945   -0.1130   -0.7734 H   0  0  0  0  0  0  0  0  0  0  0  0
    8.8639   -0.7750    0.7603 H   0  0  0  0  0  0  0  0  0  0  0  0
   -6.0931   -3.0279   -1.8075 H   0  0  0  0  0  0  0  0  0  0  0  0
   -6.1181   -1.4127    2.1702 H   0  0  0  0  0  0  0  0  0  0  0  0
   -7.2140   -1.7117   -0.0315 H   0  0  0  0  0  0  0  0  0  0  0  0
    7.2411   -2.6429    0.7334 H   0  0  0  0  0  0  0  0  0  0  0  0
    8.1458   -2.5870   -0.8243 H   0  0  0  0  0  0  0  0  0  0  0  0
  2  1  1  0
  3  1  1  0
  4  5  1  0
  5  2  1  0
  6  1  1  0
  4  7  1  6
  8  7  1  0
  9  3  1  0
  3 10  1  0
 11  6  1  0
 12  8  1  0
 13 12  1  0
 14  4  2  0
 15  2  2  0
 16 10  1  0
 17 10  2  0
 18 13  2  0
 11 19  1  0
  8 20  1  0
 22 28  1  0
 23 13  1  0
 24 19  1  0
 25 19  1  0
 26 20  1  0
 27 20  1  0
 28 32  1  0
 29 22  2  0
 30 22  1  0
 31 21  1  0
 32 31  1  0
 33 23  1  0
 34 24  1  0
 35 25  1  0
 36 29  1  0
 37 30  2  0
 38 36  2  0
 39 34  1  0
  9 11  1  0
 39 35  1  0
 38 37  1  0
  4 21  1  0
  3 40  1  6
  5 41  1  0
  5 42  1  0
  6 43  1  0
  6 44  1  0
  8 45  1  1
  9 46  1  0
  9 47  1  0
 11 48  1  1
 19 49  1  0
 20 50  1  0
 21 51  1  0
 21 52  1  0
 23 53  1  0
 23 54  1  0
 24 55  1  0
 24 56  1  0
 25 57  1  0
 25 58  1  0
 26 59  1  0
 26 60  1  0
 26 61  1  0
 27 62  1  0
 27 63  1  0
 27 64  1  0
 28 65  1  0
 28 66  1  0
 29 67  1  0
 30 68  1  0
 31 69  1  0
 31 70  1  0
 32 71  1  0
 32 72  1  0
 33 73  1  0
 33 74  1  0
 33 75  1  0
 34 76  1  0
 34 77  1  0
 35 78  1  0
 35 79  1  0
 36 80  1  0
 37 81  1  0
 38 82  1  0
 39 83  1  0
 39 84  1  0
M  CHG  1  16  -1
M  END
$$$$
