
     RDKit          3D

 84 86  0  0  0  0  0  0  0  0999 V2000
    2.3226    0.9936    1.0375 N   0  0  0  0  0  0  0  0  0  0  0  0
    1.0165    0.8356    1.6278 C   0  0  0  0  0  0  0  0  0  0  0  0
    3.3442    1.8643    1.5921 C   0  0  1  0  0  0  0  0  0  0  0  0
   -1.7248    0.3399    1.4011 P   0  0  1  0  0  0  0  0  0  0  0  0
    0.0069   -0.0831    0.9973 C   0  0  0  0  0  0  0  0  0  0  0  0
    2.8247    0.1240   -0.0119 C   0  0  0  0  0  0  0  0  0  0  0  0
   -2.8071   -0.6094    0.4751 O   0  0  0  0  0  0  0  0  0  0  0  0
   -2.4548   -1.9752    0.5611 C   0  0  2  0  0  0  0  0  0  0  0  0
    4.6047    1.6169    0.7610 C   0  0  0  0  0  0  0  0  0  0  0  0
    2.9123    3.3030    1.5258 C   0  0  0  0  0  0  0  0  0  0  0  0
    4.3441    0.3596   -0.1012 C   0  0  1  0  0  0  0  0  0  0  0  0
   -1.4294   -2.2520   -0.3969 O   0  0  0  0  0  0  0  0  0  0  0  0
   -0.5423   -3.3281   -0.2973 C   0  0  0  0  0  0  0  0  0  0  0  0
   -1.9716    0.1018    2.8752 O   0  0  0  0  0  0  0  0  0  0  0  0
    0.7571    1.3945    2.7298 O   0  0  0  0  0  0  0  0  0  0  0  0
    2.3045    3.8006    0.3787 O   0  0  0  0  0  0  0  0  0  0  0  0
    3.1313    4.0735    2.4970 O   0  0  0  0  0  0  0  0  0  0  0  0
   -0.6296   -4.1507    0.6541 O   0  0  0  0  0  0  0  0  0  0  0  0
    5.2112   -0.8630    0.3499 C   0  0  0  0  0  0  0  0  0  0  0  0
   -3.6953   -2.8448    0.2601 C   0  0  0  0  0  0  0  0  0  0  0  0
   -2.0250    2.0996    1.0066 C   0  0  0  0  0  0  0  0  0  0  0  0
   -5.1101    3.4348   -0.8581 C   0  0  0  0  0  0  0  0  0  0  0  0
    0.5584   -3.4633   -1.3035 C   0  0  0  0  0  0  0  0  0  0  0  0
    4.7562   -2.1922   -0.3287 C   0  0  0  0  0  0  0  0  0  0  0  0
    6.7311   -0.5975    0.1046 C   0  0  0  0  0  0  0  0  0  0  0  0
   -4.7814   -2.6395    1.3249 C   0  0  0  0  0  0  0  0  0  0  0  0
   -4.2612   -2.5646   -1.1401 C   0  0  0  0  0  0  0  0  0  0  0  0
   -4.8540    2.0203   -0.4038 C   0  0  0  0  0  0  0  0  0  0  0  0
   -4.0982    4.1764   -1.4930 C   0  0  0  0  0  0  0  0  0  0  0  0
   -6.3609    4.0325   -0.6318 C   0  0  0  0  0  0  0  0  0  0  0  0
   -3.3385    2.6367    1.6008 C   0  0  0  0  0  0  0  0  0  0  0  0
   -4.6223    1.9365    1.1136 C   0  0  0  0  0  0  0  0  0  0  0  0
    0.5308   -4.8327   -1.9750 C   0  0  0  0  0  0  0  0  0  0  0  0
    5.8872   -3.2228   -0.4106 C   0  0  0  0  0  0  0  0  0  0  0  0
    7.2172   -1.1822   -1.2276 C   0  0  0  0  0  0  0  0  0  0  0  0
   -4.3374    5.4951   -1.8923 C   0  0  0  0  0  0  0  0  0  0  0  0
   -6.5959    5.3515   -1.0317 C   0  0  0  0  0  0  0  0  0  0  0  0
   -5.5847    6.0823   -1.6606 C   0  0  0  0  0  0  0  0  0  0  0  0
    7.0596   -2.7129   -1.2672 C   0  0  0  0  0  0  0  0  0  0  0  0
    3.5328    1.5724    2.6494 H   0  0  0  0  0  0  0  0  0  0  0  0
    0.2175   -1.1138    1.3457 H   0  0  0  0  0  0  0  0  0  0  0  0
    0.1093   -0.0462   -0.1061 H   0  0  0  0  0  0  0  0  0  0  0  0
    2.3411    0.3969   -0.9744 H   0  0  0  0  0  0  0  0  0  0  0  0
    2.5608   -0.9223    0.2273 H   0  0  0  0  0  0  0  0  0  0  0  0
   -2.1012   -2.2451    1.5853 H   0  0  0  0  0  0  0  0  0  0  0  0
    4.8188    2.4754    0.0839 H   0  0  0  0  0  0  0  0  0  0  0  0
    5.4735    1.5065    1.4458 H   0  0  0  0  0  0  0  0  0  0  0  0
    4.6006    0.5876   -1.1605 H   0  0  0  0  0  0  0  0  0  0  0  0
    5.0680   -0.9876    1.4481 H   0  0  0  0  0  0  0  0  0  0  0  0
   -3.3895   -3.9140    0.2963 H   0  0  0  0  0  0  0  0  0  0  0  0
   -1.1934    2.6984    1.4288 H   0  0  0  0  0  0  0  0  0  0  0  0
   -1.9949    2.2384   -0.0917 H   0  0  0  0  0  0  0  0  0  0  0  0
    0.4454   -2.6775   -2.0809 H   0  0  0  0  0  0  0  0  0  0  0  0
    1.5367   -3.3139   -0.7960 H   0  0  0  0  0  0  0  0  0  0  0  0
    3.9312   -2.6519    0.2567 H   0  0  0  0  0  0  0  0  0  0  0  0
    4.3806   -1.9955   -1.3585 H   0  0  0  0  0  0  0  0  0  0  0  0
    6.9736    0.4854    0.1134 H   0  0  0  0  0  0  0  0  0  0  0  0
    7.3177   -1.0605    0.9294 H   0  0  0  0  0  0  0  0  0  0  0  0
   -4.3756   -2.8583    2.3355 H   0  0  0  0  0  0  0  0  0  0  0  0
   -5.6336   -3.3283    1.1402 H   0  0  0  0  0  0  0  0  0  0  0  0
   -5.1595   -1.5953    1.3074 H   0  0  0  0  0  0  0  0  0  0  0  0
   -4.6053   -1.5114   -1.2249 H   0  0  0  0  0  0  0  0  0  0  0  0
   -5.1215   -3.2363   -1.3464 H   0  0  0  0  0  0  0  0  0  0  0  0
   -3.4893   -2.7544   -1.9154 H   0  0  0  0  0  0  0  0  0  0  0  0
   -3.9999    1.5747   -0.9544 H   0  0  0  0  0  0  0  0  0  0  0  0
   -5.7365    1.3955   -0.6615 H   0  0  0  0  0  0  0  0  0  0  0  0
   -3.1261    3.7382   -1.6776 H   0  0  0  0  0  0  0  0  0  0  0  0
   -7.1519    3.4786   -0.1412 H   0  0  0  0  0  0  0  0  0  0  0  0
   -3.4093    3.7223    1.3736 H   0  0  0  0  0  0  0  0  0  0  0  0
   -3.2907    2.5490    2.7076 H   0  0  0  0  0  0  0  0  0  0  0  0
   -5.4899    2.3959    1.6357 H   0  0  0  0  0  0  0  0  0  0  0  0
   -4.6119    0.8728    1.4260 H   0  0  0  0  0  0  0  0  0  0  0  0
   -0.4545   -5.0087   -2.4587 H   0  0  0  0  0  0  0  0  0  0  0  0
    0.7216   -5.6329   -1.2269 H   0  0  0  0  0  0  0  0  0  0  0  0
    1.3233   -4.8814   -2.7520 H   0  0  0  0  0  0  0  0  0  0  0  0
    6.2474   -3.4457    0.6187 H   0  0  0  0  0  0  0  0  0  0  0  0
    5.4972   -4.1706   -0.8415 H   0  0  0  0  0  0  0  0  0  0  0  0
    6.6350   -0.7271   -2.0581 H   0  0  0  0  0  0  0  0  0  0  0  0
    8.2853   -0.9176   -1.3842 H   0  0  0  0  0  0  0  0  0  0  0  0
   -3.5559    6.0613   -2.3840 H   0  0  0  0  0  0  0  0  0  0  0  0
   -7.5624    5.8054   -0.8554 H   0  0  0  0  0  0  0  0  0  0  0  0
   -5.7681    7.1024   -1.9716 H   0  0  0  0  0  0  0  0  0  0  0  0
    7.9961   -3.1898   -0.9047 H   0  0  0  0  0  0  0  0  0  0  0  0
    6.9120   -3.0301   -2.3226 H   0  0  0  0  0  0  0  0  0  0  0  0
  2  1  1  0
  3  1  1  0
  4  5  1  0
  5  2  1  0
  6  1  1  0
  4  7  1  6
  8  7  1  0
  9  3  1  0
  3 10  1  0
 11  6  1  0
 12  8  1  0
 13 12  1  0
 14  4  2  0
 15  2  2  0
 16 10  1  0
 17 10  2  0
 18 13  2  0
 11 19  1  0
  8 20  1  0
 22 28  1  0
 23 13  1  0
 24 19  1  0
 25 19  1  0
 26 20  1  0
 27 20  1  0
 28 32  1  0
 29 22  2  0
 30 22  1  0
 31 21  1  0
 32 31  1  0
 33 23  1  0
 34 24  1  0
 35 25  1  0
 36 29  1  0
 37 30  2  0
 38 36  2  0
 39 34  1  0
  9 11  1  0
 39 35  1  0
 38 37  1  0
  4 21  1  0
  3 40  1  1
  5 41  1  0
  5 42  1  0
  6 43  1  0
  6 44  1  0
  8 45  1  1
  9 46  1  0
  9 47  1  0
 11 48  1  6
 19 49  1  0
 20 50  1  0
 21 51  1  0
 21 52  1  0
 23 53  1  0
 23 54  1  0
 24 55  1  0
 24 56  1  0
 25 57  1  0
 25 58  1  0
 26 59  1  0
 26 60  1  0
 26 61  1  0
 27 62  1  0
 27 63  1  0
 27 64  1  0
 28 65  1  0
 28 66  1  0
 29 67  1  0
 30 68  1  0
 31 69  1  0
 31 70  1  0
 32 71  1  0
 32 72  1  0
 33 73  1  0
 33 74  1  0
 33 75  1  0
 34 76  1  0
 34 77  1  0
 35 78  1  0
 35 79  1  0
 36 80  1  0
 37 81  1  0
 38 82  1  0
 39 83  1  0
 39 84  1  0
M  CHG  1  16  -1
M  END
$$$$
