
     RDKit          2D

 40 41  0  0  0  0  0  0  0  0999 V2000
   15.1446   -6.9830    0.0000 Na  0  0  0  0  0 15  0  0  0  0  0  0
   12.9842   -5.3377    0.0000 N   0  0  0  0  0  0  0  0  0  0  0  0
   12.9842   -4.4939    0.0000 C   0  0  0  0  0  0  0  0  0  0  0  0
   13.6923   -5.7888    0.0000 C   0  0  0  0  0  0  0  0  0  0  0  0
   11.5875   -4.4939    0.0000 P   0  0  0  0  0  0  0  0  0  0  0  0
   12.3101   -4.1010    0.0000 C   0  0  0  0  0  0  0  0  0  0  0  0
   12.3683   -5.8179    0.0000 C   0  0  0  0  0  0  0  0  0  0  0  0
   10.8018   -4.1010    0.0000 O   0  0  0  0  0  0  0  0  0  0  0  0
   10.0694   -4.4939    0.0000 C   0  0  0  0  0  0  0  0  0  0  0  0
   13.4595   -6.6181    0.0000 C   0  0  0  0  0  0  0  0  0  0  0  0
   14.4343   -5.3523    0.0000 C   0  0  0  0  0  0  0  0  0  0  0  0
   12.5914   -6.6181    0.0000 C   0  0  0  0  0  0  0  0  0  0  0  0
    9.3322   -4.1010    0.0000 O   0  0  0  0  0  0  0  0  0  0  0  0
    8.6193   -4.4939    0.0000 C   0  0  0  0  0  0  0  0  0  0  0  0
   11.5875   -5.3377    0.0000 O   0  0  0  0  0  0  0  0  0  0  0  0
   13.7068   -4.0719    0.0000 O   0  0  0  0  0  0  0  0  0  0  0  0
   15.1522   -5.7888    0.0000 O   0  0  0  0  0  0  0  0  0  0  0  0
   14.4343   -4.6248    0.0000 O   0  0  0  0  0  0  0  0  0  0  0  0
    8.6193   -5.2795    0.0000 O   0  0  0  0  0  0  0  0  0  0  0  0
   11.8784   -7.0643    0.0000 C   0  0  0  0  0  0  0  0  0  0  0  0
   10.0694   -5.3959    0.0000 C   0  0  0  0  0  0  0  0  0  0  0  0
   11.5875   -3.5918    0.0000 C   0  0  0  0  0  0  0  0  0  0  0  0
   13.7263   -2.3405    0.0000 C   0  0  0  0  0  0  0  0  0  0  0  0
    7.9064   -4.0719    0.0000 C   0  0  0  0  0  0  0  0  0  0  0  0
   11.2043   -6.6181    0.0000 C   0  0  0  0  0  0  0  0  0  0  0  0
   11.8784   -7.8403    0.0000 C   0  0  0  0  0  0  0  0  0  0  0  0
   10.7727   -5.7888    0.0000 C   0  0  0  0  0  0  0  0  0  0  0  0
    9.3564   -5.7742    0.0000 C   0  0  0  0  0  0  0  0  0  0  0  0
   13.0133   -1.9282    0.0000 C   0  0  0  0  0  0  0  0  0  0  0  0
   14.4829   -1.9913    0.0000 C   0  0  0  0  0  0  0  0  0  0  0  0
   13.7263   -3.1698    0.0000 C   0  0  0  0  0  0  0  0  0  0  0  0
   12.3101   -3.1698    0.0000 C   0  0  0  0  0  0  0  0  0  0  0  0
   12.3101   -2.3405    0.0000 C   0  0  0  0  0  0  0  0  0  0  0  0
    7.1885   -4.4793    0.0000 C   0  0  0  0  0  0  0  0  0  0  0  0
   10.5108   -7.0643    0.0000 C   0  0  0  0  0  0  0  0  0  0  0  0
   11.1801   -8.2332    0.0000 C   0  0  0  0  0  0  0  0  0  0  0  0
   15.2104   -2.3647    0.0000 C   0  0  0  0  0  0  0  0  0  0  0  0
   14.4392   -3.5627    0.0000 C   0  0  0  0  0  0  0  0  0  0  0  0
   15.2104   -3.1698    0.0000 C   0  0  0  0  0  0  0  0  0  0  0  0
   10.5108   -7.8403    0.0000 C   0  0  0  0  0  0  0  0  0  0  0  0
  3  2  1  0
  4  2  1  0
  5  6  1  0
  6  3  1  0
  7  2  1  0
  8  5  1  0
  9  8  1  0
 10  4  1  0
  4 11  1  6
 12  7  1  0
 13  9  1  0
 14 13  1  0
 15  5  2  0
 16  3  2  0
 17 11  1  0
 18 11  2  0
 19 14  2  0
 12 20  1  1
  9 21  1  1
 23 29  1  0
 24 14  1  0
 25 20  1  0
 26 20  1  0
 27 21  1  0
 28 21  1  0
 29 33  1  0
 30 23  1  0
 31 23  2  0
 32 22  1  0
 33 32  1  0
 34 24  1  0
 35 25  1  0
 36 26  1  0
 37 30  2  0
 38 31  1  0
 39 37  1  0
 40 35  1  0
 10 12  1  0
 40 36  1  0
 39 38  2  0
  5 22  1  1
M  CHG  2   1   1  17  -1
M  END
> <chembl_id>
CHEMBL3039596

> <chembl_pref_name>
FOSINOPRIL SODIUM
