
     RDKit          3D

 84 86  0  0  0  0  0  0  0  0999 V2000
    2.5926   -0.2859   -0.5320 N   0  0  0  0  0  0  0  0  0  0  0  0
    1.4136    0.3189   -1.0996 C   0  0  0  0  0  0  0  0  0  0  0  0
    2.7727   -1.7156   -0.3035 C   0  0  1  0  0  0  0  0  0  0  0  0
   -1.3429    0.4429   -1.2133 P   0  0  1  0  0  0  0  0  0  0  0  0
    0.1981   -0.5009   -1.4540 C   0  0  0  0  0  0  0  0  0  0  0  0
    3.8057    0.4791   -0.2829 C   0  0  0  0  0  0  0  0  0  0  0  0
   -1.3532    1.0623    0.3807 O   0  0  0  0  0  0  0  0  0  0  0  0
   -2.3574    2.0471    0.5065 C   0  0  2  0  0  0  0  0  0  0  0  0
    4.2804   -1.9104   -0.1284 C   0  0  0  0  0  0  0  0  0  0  0  0
    2.0270   -2.1517    0.9279 C   0  0  0  0  0  0  0  0  0  0  0  0
    4.8227   -0.5298    0.2651 C   0  0  1  0  0  0  0  0  0  0  0  0
   -1.8647    3.2865   -0.0137 O   0  0  0  0  0  0  0  0  0  0  0  0
   -2.6639    4.2396   -0.6546 C   0  0  0  0  0  0  0  0  0  0  0  0
   -1.3878    1.5660   -2.2270 O   0  0  0  0  0  0  0  0  0  0  0  0
    1.4297    1.5493   -1.3791 O   0  0  0  0  0  0  0  0  0  0  0  0
    1.3347   -3.3560    0.9251 O   0  0  0  0  0  0  0  0  0  0  0  0
    2.0545   -1.4529    1.9762 O   0  0  0  0  0  0  0  0  0  0  0  0
   -3.8794    4.0066   -0.9035 O   0  0  0  0  0  0  0  0  0  0  0  0
    6.3105   -0.2937   -0.1318 C   0  0  0  0  0  0  0  0  0  0  0  0
   -2.7094    2.1947    2.0041 C   0  0  0  0  0  0  0  0  0  0  0  0
   -2.7753   -0.6549   -1.4785 C   0  0  0  0  0  0  0  0  0  0  0  0
   -5.6986   -4.2029    0.5331 C   0  0  0  0  0  0  0  0  0  0  0  0
   -2.0779    5.5713   -0.9941 C   0  0  0  0  0  0  0  0  0  0  0  0
    6.9035    0.9181    0.6347 C   0  0  0  0  0  0  0  0  0  0  0  0
    6.5787   -0.1452   -1.6492 C   0  0  0  0  0  0  0  0  0  0  0  0
   -3.9124    3.1220    2.2232 C   0  0  0  0  0  0  0  0  0  0  0  0
   -1.5083    2.6776    2.8294 C   0  0  0  0  0  0  0  0  0  0  0  0
   -4.4265   -3.4155    0.7023 C   0  0  0  0  0  0  0  0  0  0  0  0
   -6.9142   -3.6987    1.0263 C   0  0  0  0  0  0  0  0  0  0  0  0
   -5.6929   -5.4159   -0.1763 C   0  0  0  0  0  0  0  0  0  0  0  0
   -2.9643   -1.6093   -0.2959 C   0  0  0  0  0  0  0  0  0  0  0  0
   -4.2274   -2.4586   -0.4785 C   0  0  0  0  0  0  0  0  0  0  0  0
   -2.2271    6.5301    0.1811 C   0  0  0  0  0  0  0  0  0  0  0  0
    8.1846    1.4894   -0.0127 C   0  0  0  0  0  0  0  0  0  0  0  0
    8.0926   -0.1662   -1.9480 C   0  0  0  0  0  0  0  0  0  0  0  0
   -8.1020   -4.4105    0.8316 C   0  0  0  0  0  0  0  0  0  0  0  0
   -6.8827   -6.1246   -0.3693 C   0  0  0  0  0  0  0  0  0  0  0  0
   -8.0860   -5.6231    0.1361 C   0  0  0  0  0  0  0  0  0  0  0  0
    8.9504    0.4275   -0.8109 C   0  0  0  0  0  0  0  0  0  0  0  0
    2.4222   -2.2954   -1.1864 H   0  0  0  0  0  0  0  0  0  0  0  0
    0.1359   -1.4053   -0.8213 H   0  0  0  0  0  0  0  0  0  0  0  0
    0.2675   -0.8198   -2.5144 H   0  0  0  0  0  0  0  0  0  0  0  0
    4.1325    0.9500   -1.2297 H   0  0  0  0  0  0  0  0  0  0  0  0
    3.6067    1.2763    0.4668 H   0  0  0  0  0  0  0  0  0  0  0  0
   -3.2884    1.7360   -0.0229 H   0  0  0  0  0  0  0  0  0  0  0  0
    4.5285   -2.6743    0.6419 H   0  0  0  0  0  0  0  0  0  0  0  0
    4.7089   -2.2532   -1.0928 H   0  0  0  0  0  0  0  0  0  0  0  0
    4.7627   -0.4809    1.3776 H   0  0  0  0  0  0  0  0  0  0  0  0
    6.8675   -1.1975    0.2090 H   0  0  0  0  0  0  0  0  0  0  0  0
   -2.9961    1.1884    2.3814 H   0  0  0  0  0  0  0  0  0  0  0  0
   -3.6836   -0.0274   -1.6027 H   0  0  0  0  0  0  0  0  0  0  0  0
   -2.6156   -1.2336   -2.4133 H   0  0  0  0  0  0  0  0  0  0  0  0
   -2.5886    5.9926   -1.8865 H   0  0  0  0  0  0  0  0  0  0  0  0
   -1.0005    5.4487   -1.2363 H   0  0  0  0  0  0  0  0  0  0  0  0
    6.1554    1.7389    0.6982 H   0  0  0  0  0  0  0  0  0  0  0  0
    7.1311    0.6023    1.6774 H   0  0  0  0  0  0  0  0  0  0  0  0
    6.0891   -0.9507   -2.2329 H   0  0  0  0  0  0  0  0  0  0  0  0
    6.1759    0.8242   -2.0125 H   0  0  0  0  0  0  0  0  0  0  0  0
   -4.2243    3.0912    3.2877 H   0  0  0  0  0  0  0  0  0  0  0  0
   -4.7722    2.7922    1.6042 H   0  0  0  0  0  0  0  0  0  0  0  0
   -3.6594    4.1702    1.9644 H   0  0  0  0  0  0  0  0  0  0  0  0
   -1.7775    2.7136    3.9056 H   0  0  0  0  0  0  0  0  0  0  0  0
   -0.6533    1.9776    2.7161 H   0  0  0  0  0  0  0  0  0  0  0  0
   -1.1898    3.6922    2.5090 H   0  0  0  0  0  0  0  0  0  0  0  0
   -3.5594   -4.1088    0.7719 H   0  0  0  0  0  0  0  0  0  0  0  0
   -4.4678   -2.8384    1.6521 H   0  0  0  0  0  0  0  0  0  0  0  0
   -6.9410   -2.7541    1.5566 H   0  0  0  0  0  0  0  0  0  0  0  0
   -4.7689   -5.8081   -0.5824 H   0  0  0  0  0  0  0  0  0  0  0  0
   -2.0792   -2.2771   -0.2104 H   0  0  0  0  0  0  0  0  0  0  0  0
   -3.0566   -1.0201    0.6431 H   0  0  0  0  0  0  0  0  0  0  0  0
   -5.1116   -1.7869   -0.5623 H   0  0  0  0  0  0  0  0  0  0  0  0
   -4.1434   -3.0493   -1.4181 H   0  0  0  0  0  0  0  0  0  0  0  0
   -3.3014    6.6978    0.4073 H   0  0  0  0  0  0  0  0  0  0  0  0
   -1.7249    6.1167    1.0826 H   0  0  0  0  0  0  0  0  0  0  0  0
   -1.7589    7.5052   -0.0702 H   0  0  0  0  0  0  0  0  0  0  0  0
    7.9134    2.3244   -0.6971 H   0  0  0  0  0  0  0  0  0  0  0  0
    8.8456    1.9057    0.7776 H   0  0  0  0  0  0  0  0  0  0  0  0
    8.4191   -1.2141   -2.1297 H   0  0  0  0  0  0  0  0  0  0  0  0
    8.2788    0.4041   -2.8837 H   0  0  0  0  0  0  0  0  0  0  0  0
   -9.0357   -4.0196    1.2160 H   0  0  0  0  0  0  0  0  0  0  0  0
   -6.8727   -7.0600   -0.9148 H   0  0  0  0  0  0  0  0  0  0  0  0
   -9.0063   -6.1713   -0.0159 H   0  0  0  0  0  0  0  0  0  0  0  0
    9.2648   -0.3855   -0.1196 H   0  0  0  0  0  0  0  0  0  0  0  0
    9.8737    0.8765   -1.2368 H   0  0  0  0  0  0  0  0  0  0  0  0
  2  1  1  0
  3  1  1  0
  4  5  1  0
  5  2  1  0
  6  1  1  0
  4  7  1  1
  8  7  1  0
  9  3  1  0
  3 10  1  0
 11  6  1  0
 12  8  1  0
 13 12  1  0
 14  4  2  0
 15  2  2  0
 16 10  1  0
 17 10  2  0
 18 13  2  0
 11 19  1  0
  8 20  1  0
 22 28  1  0
 23 13  1  0
 24 19  1  0
 25 19  1  0
 26 20  1  0
 27 20  1  0
 28 32  1  0
 29 22  2  0
 30 22  1  0
 31 21  1  0
 32 31  1  0
 33 23  1  0
 34 24  1  0
 35 25  1  0
 36 29  1  0
 37 30  2  0
 38 36  2  0
 39 34  1  0
  9 11  1  0
 39 35  1  0
 38 37  1  0
  4 21  1  0
  3 40  1  6
  5 41  1  0
  5 42  1  0
  6 43  1  0
  6 44  1  0
  8 45  1  6
  9 46  1  0
  9 47  1  0
 11 48  1  1
 19 49  1  0
 20 50  1  0
 21 51  1  0
 21 52  1  0
 23 53  1  0
 23 54  1  0
 24 55  1  0
 24 56  1  0
 25 57  1  0
 25 58  1  0
 26 59  1  0
 26 60  1  0
 26 61  1  0
 27 62  1  0
 27 63  1  0
 27 64  1  0
 28 65  1  0
 28 66  1  0
 29 67  1  0
 30 68  1  0
 31 69  1  0
 31 70  1  0
 32 71  1  0
 32 72  1  0
 33 73  1  0
 33 74  1  0
 33 75  1  0
 34 76  1  0
 34 77  1  0
 35 78  1  0
 35 79  1  0
 36 80  1  0
 37 81  1  0
 38 82  1  0
 39 83  1  0
 39 84  1  0
M  CHG  1  16  -1
M  END
$$$$
