
     RDKit          3D

 77 78  0  0  0  0  0  0  0  0999 V2000
   -0.8543    0.3825   -0.2377 C   0  0  0  0  0  0  0  0  0  0  0  0
    0.3738   -0.4824   -0.5433 C   0  0  0  0  0  0  0  0  0  0  0  0
    1.5321   -0.0736    0.2570 N   0  0  0  0  0  0  0  0  0  0  0  0
   -1.1509    0.3470    1.1581 O   0  0  0  0  0  0  0  0  0  0  0  0
   -4.5687   -0.9985    0.0275 C   0  0  0  0  0  0  0  0  0  0  0  0
   -4.9119   -2.3307   -0.2705 C   0  0  0  0  0  0  0  0  0  0  0  0
   -3.9324   -3.2906   -0.5331 C   0  0  0  0  0  0  0  0  0  0  0  0
   -2.5804   -2.9442   -0.4821 C   0  0  0  0  0  0  0  0  0  0  0  0
   -2.1879   -1.6421   -0.1554 C   0  0  0  0  0  0  0  0  0  0  0  0
   -3.1966   -0.6755    0.0551 C   0  0  0  0  0  0  0  0  0  0  0  0
   -5.6366   -0.0055    0.2564 C   0  0  0  0  0  0  0  0  0  0  0  0
   -6.6189   -0.2222    1.2404 C   0  0  0  0  0  0  0  0  0  0  0  0
   -7.6492    0.6979    1.4505 C   0  0  0  0  0  0  0  0  0  0  0  0
   -7.7142    1.8566    0.6774 C   0  0  0  0  0  0  0  0  0  0  0  0
   -6.7521    2.0958   -0.3093 C   0  0  0  0  0  0  0  0  0  0  0  0
   -5.7228    1.1661   -0.5166 C   0  0  0  0  0  0  0  0  0  0  0  0
   -6.8583    3.3422   -1.1052 C   0  0  0  0  0  0  0  0  0  0  0  0
   -5.8757    3.4728   -2.0169 O   0  0  0  0  0  0  0  0  0  0  0  0
   -7.7166    4.1965   -0.9825 O   0  0  0  0  0  0  0  0  0  0  0  0
   -2.8186    0.6328    0.2617 O   0  0  0  0  0  0  0  0  0  0  0  0
   -0.8283   -1.2429   -0.1403 N   0  0  0  0  0  0  0  0  0  0  0  0
    0.1292   -2.1700   -0.4109 N   0  0  0  0  0  0  0  0  0  0  0  0
    1.3573   -1.7829   -0.2749 C   0  0  0  0  0  0  0  0  0  0  0  0
    1.9255   -0.4663    0.1561 C   0  0  0  0  0  0  0  0  0  0  0  0
    3.2930   -0.6792    0.0038 N   0  0  0  0  0  0  0  0  0  0  0  0
    3.6349   -1.9746   -0.4284 N   0  0  0  0  0  0  0  0  0  0  0  0
    2.5286   -2.6372   -0.5867 C   0  0  0  0  0  0  0  0  0  0  0  0
    2.3817   -4.0481   -1.0175 C   0  0  0  0  0  0  0  0  0  0  0  0
    1.2458    0.4657    0.5333 O   0  0  0  0  0  0  0  0  0  0  0  0
    4.3423    0.2463    0.2366 C   0  0  0  0  0  0  0  0  0  0  0  0
    5.6769   -0.1251    0.0039 C   0  0  0  0  0  0  0  0  0  0  0  0
    6.7464    0.7666    0.2119 C   0  0  0  0  0  0  0  0  0  0  0  0
    6.4749    2.0722    0.6556 C   0  0  0  0  0  0  0  0  0  0  0  0
    5.1462    2.4451    0.8971 C   0  0  0  0  0  0  0  0  0  0  0  0
    4.0947    1.5449    0.6897 C   0  0  0  0  0  0  0  0  0  0  0  0
    7.5760    3.0732    0.8783 C   0  0  0  0  0  0  0  0  0  0  0  0
    8.1505    0.3093   -0.0799 C   0  0  0  0  0  0  0  0  0  0  0  0
   -0.7083    0.5161    0.2581 C   0  0  0  0  0  0  0  0  0  0  0  0
    0.3194   -0.6141    0.1316 C   0  0  0  0  0  0  0  0  0  0  0  0
    1.7005   -0.1438    0.1866 N   0  0  0  0  0  0  0  0  0  0  0  0
   -2.0336    0.0022    0.1957 O   0  0  0  0  0  0  0  0  0  0  0  0
   -1.7286    0.0208   -0.7875 H   0  0  0  0  0  0  0  0  0  0  0  0
   -0.6771    1.4253   -0.5186 H   0  0  0  0  0  0  0  0  0  0  0  0
    0.1526   -1.5272   -0.2975 H   0  0  0  0  0  0  0  0  0  0  0  0
    0.6216   -0.4314   -1.6080 H   0  0  0  0  0  0  0  0  0  0  0  0
    1.2073    0.0652    1.2182 H   0  0  0  0  0  0  0  0  0  0  0  0
    1.8235    0.8591   -0.0373 H   0  0  0  0  0  0  0  0  0  0  0  0
   -1.3002   -0.5854    1.3966 H   0  0  0  0  0  0  0  0  0  0  0  0
   -5.9590   -2.6232   -0.3340 H   0  0  0  0  0  0  0  0  0  0  0  0
   -4.2233   -4.3071   -0.7837 H   0  0  0  0  0  0  0  0  0  0  0  0
   -1.8321   -3.7031   -0.6947 H   0  0  0  0  0  0  0  0  0  0  0  0
   -6.5804   -1.1186    1.8596 H   0  0  0  0  0  0  0  0  0  0  0  0
   -8.3924    0.5143    2.2226 H   0  0  0  0  0  0  0  0  0  0  0  0
   -8.5172    2.5714    0.8469 H   0  0  0  0  0  0  0  0  0  0  0  0
   -4.9736    1.3517   -1.2841 H   0  0  0  0  0  0  0  0  0  0  0  0
   -6.0617    4.3413   -2.4344 H   0  0  0  0  0  0  0  0  0  0  0  0
   -2.0000    0.7583   -0.2491 H   0  0  0  0  0  0  0  0  0  0  0  0
   -0.6350   -0.5152    0.5606 H   0  0  0  0  0  0  0  0  0  0  0  0
    1.8021   -4.0921   -1.9449 H   0  0  0  0  0  0  0  0  0  0  0  0
    3.3663   -4.4927   -1.1891 H   0  0  0  0  0  0  0  0  0  0  0  0
    1.8650   -4.6166   -0.2394 H   0  0  0  0  0  0  0  0  0  0  0  0
    5.8975   -1.1275   -0.3539 H   0  0  0  0  0  0  0  0  0  0  0  0
    4.9125    3.4499    1.2449 H   0  0  0  0  0  0  0  0  0  0  0  0
    3.0874    1.8971    0.8924 H   0  0  0  0  0  0  0  0  0  0  0  0
    8.1635    3.2054   -0.0369 H   0  0  0  0  0  0  0  0  0  0  0  0
    7.1767    4.0539    1.1563 H   0  0  0  0  0  0  0  0  0  0  0  0
    8.2331    2.7406    1.6890 H   0  0  0  0  0  0  0  0  0  0  0  0
    8.5372    0.8197   -0.9673 H   0  0  0  0  0  0  0  0  0  0  0  0
    8.1903   -0.7688   -0.2679 H   0  0  0  0  0  0  0  0  0  0  0  0
    8.8086    0.5130    0.7712 H   0  0  0  0  0  0  0  0  0  0  0  0
   -0.5916    1.0349    1.2150 H   0  0  0  0  0  0  0  0  0  0  0  0
   -0.5876    1.2507   -0.5450 H   0  0  0  0  0  0  0  0  0  0  0  0
    0.1623   -1.1463   -0.8132 H   0  0  0  0  0  0  0  0  0  0  0  0
    0.1520   -1.3524    0.9243 H   0  0  0  0  0  0  0  0  0  0  0  0
    1.8653    0.3275    1.0766 H   0  0  0  0  0  0  0  0  0  0  0  0
    1.8606    0.5560   -0.5381 H   0  0  0  0  0  0  0  0  0  0  0  0
   -2.1390   -0.4307   -0.6683 H   0  0  0  0  0  0  0  0  0  0  0  0
  4  1  1  0
  1  2  1  0
  2  3  1  0
 10 20  1  0
  9 21  1  0
 12 13  2  0
 21 22  1  0
  8  9  2  0
 22 23  2  0
 23 24  1  0
 13 14  1  0
  6  7  2  0
 14 15  2  0
  9 10  1  0
 24 25  1  0
 25 26  1  0
 26 27  2  0
 27 23  1  0
 15 16  1  0
 27 28  1  0
 16 11  2  0
 24 29  2  0
  5 11  1  0
 25 30  1  0
 10  5  2  0
 30 31  2  0
 15 17  1  0
 31 32  1  0
  5  6  1  0
 32 33  2  0
  7  8  1  0
 33 34  1  0
 17 18  1  0
 34 35  2  0
 35 30  1  0
 17 19  2  0
 33 36  1  0
 11 12  1  0
 32 37  1  0
 41 38  1  0
 38 39  1  0
 39 40  1  0
  1 42  1  0
  1 43  1  0
  2 44  1  0
  2 45  1  0
  3 46  1  0
  3 47  1  0
  4 48  1  0
  6 49  1  0
  7 50  1  0
  8 51  1  0
 12 52  1  0
 13 53  1  0
 14 54  1  0
 16 55  1  0
 18 56  1  0
 20 57  1  0
 21 58  1  0
 28 59  1  0
 28 60  1  0
 28 61  1  0
 31 62  1  0
 34 63  1  0
 35 64  1  0
 36 65  1  0
 36 66  1  0
 36 67  1  0
 37 68  1  0
 37 69  1  0
 37 70  1  0
 38 71  1  0
 38 72  1  0
 39 73  1  0
 39 74  1  0
 40 75  1  0
 40 76  1  0
 41 77  1  0
M  END
$$$$
