
     RDKit          3D

 77 78  0  0  0  0  0  0  0  0999 V2000
   -0.8376   -0.3747    0.5897 C   0  0  0  0  0  0  0  0  0  0  0  0
    0.5797   -0.6288    0.0649 C   0  0  0  0  0  0  0  0  0  0  0  0
    1.3237    0.6079   -0.1897 N   0  0  0  0  0  0  0  0  0  0  0  0
   -1.5874    0.4106   -0.3320 O   0  0  0  0  0  0  0  0  0  0  0  0
    4.2729    1.3120   -0.7746 C   0  0  0  0  0  0  0  0  0  0  0  0
    4.3373    2.6951   -1.0154 C   0  0  0  0  0  0  0  0  0  0  0  0
    3.1809    3.4474   -1.2319 C   0  0  0  0  0  0  0  0  0  0  0  0
    1.9289    2.8327   -1.1986 C   0  0  0  0  0  0  0  0  0  0  0  0
    1.8090    1.4623   -0.9349 C   0  0  0  0  0  0  0  0  0  0  0  0
    2.9959    0.7188   -0.7515 C   0  0  0  0  0  0  0  0  0  0  0  0
    5.5158    0.5456   -0.5547 C   0  0  0  0  0  0  0  0  0  0  0  0
    6.5601    0.5768   -1.4965 C   0  0  0  0  0  0  0  0  0  0  0  0
    7.7458   -0.1318   -1.2864 C   0  0  0  0  0  0  0  0  0  0  0  0
    7.9087   -0.8865   -0.1266 C   0  0  0  0  0  0  0  0  0  0  0  0
    6.8849   -0.9359    0.8256 C   0  0  0  0  0  0  0  0  0  0  0  0
    5.6981   -0.2217    0.6095 C   0  0  0  0  0  0  0  0  0  0  0  0
    7.1012   -1.7534    2.0431 C   0  0  0  0  0  0  0  0  0  0  0  0
    6.0706   -1.7025    2.9056 O   0  0  0  0  0  0  0  0  0  0  0  0
    8.0938   -2.4144    2.2892 O   0  0  0  0  0  0  0  0  0  0  0  0
    2.8973   -0.6413   -0.5663 O   0  0  0  0  0  0  0  0  0  0  0  0
    0.5168    0.8812   -0.9495 N   0  0  0  0  0  0  0  0  0  0  0  0
    0.3182   -0.3913   -0.5078 N   0  0  0  0  0  0  0  0  0  0  0  0
   -0.9052   -0.7154   -0.2208 C   0  0  0  0  0  0  0  0  0  0  0  0
   -2.1644    0.0942   -0.2621 C   0  0  0  0  0  0  0  0  0  0  0  0
   -3.1175   -0.8299    0.1529 N   0  0  0  0  0  0  0  0  0  0  0  0
   -2.5981   -2.1039    0.4544 N   0  0  0  0  0  0  0  0  0  0  0  0
   -1.3162   -2.0619    0.2467 C   0  0  0  0  0  0  0  0  0  0  0  0
   -0.3405   -3.1614    0.4331 C   0  0  0  0  0  0  0  0  0  0  0  0
   -2.1901    1.2640   -0.5865 O   0  0  0  0  0  0  0  0  0  0  0  0
   -4.5109   -0.6213    0.3134 C   0  0  0  0  0  0  0  0  0  0  0  0
   -5.1094    0.6192    0.0540 C   0  0  0  0  0  0  0  0  0  0  0  0
   -6.4960    0.8192    0.2116 C   0  0  0  0  0  0  0  0  0  0  0  0
   -7.3043   -0.2456    0.6508 C   0  0  0  0  0  0  0  0  0  0  0  0
   -6.7105   -1.4870    0.9066 C   0  0  0  0  0  0  0  0  0  0  0  0
   -5.3349   -1.6701    0.7414 C   0  0  0  0  0  0  0  0  0  0  0  0
   -8.7886   -0.0866    0.8342 C   0  0  0  0  0  0  0  0  0  0  0  0
   -7.0792    2.1780   -0.0724 C   0  0  0  0  0  0  0  0  0  0  0  0
    0.7553    0.6371    0.2232 C   0  0  0  0  0  0  0  0  0  0  0  0
   -0.2794   -0.4921    0.2044 C   0  0  0  0  0  0  0  0  0  0  0  0
   -1.6493    0.0103    0.1896 N   0  0  0  0  0  0  0  0  0  0  0  0
    2.0739    0.1041    0.1367 O   0  0  0  0  0  0  0  0  0  0  0  0
   -1.3614   -1.3256    0.7289 H   0  0  0  0  0  0  0  0  0  0  0  0
   -0.8170    0.1456    1.5531 H   0  0  0  0  0  0  0  0  0  0  0  0
    1.1334   -1.2341    0.7891 H   0  0  0  0  0  0  0  0  0  0  0  0
    0.5301   -1.1928   -0.8727 H   0  0  0  0  0  0  0  0  0  0  0  0
    0.9311    1.0822   -1.0009 H   0  0  0  0  0  0  0  0  0  0  0  0
    1.2444    1.2398    0.6047 H   0  0  0  0  0  0  0  0  0  0  0  0
   -1.1390    1.2698   -0.3977 H   0  0  0  0  0  0  0  0  0  0  0  0
    5.3013    3.2007   -1.0319 H   0  0  0  0  0  0  0  0  0  0  0  0
    3.2572    4.5142   -1.4262 H   0  0  0  0  0  0  0  0  0  0  0  0
    1.0442    3.4383   -1.3797 H   0  0  0  0  0  0  0  0  0  0  0  0
    6.4475    1.1509   -2.4147 H   0  0  0  0  0  0  0  0  0  0  0  0
    8.5396   -0.0972   -2.0290 H   0  0  0  0  0  0  0  0  0  0  0  0
    8.8332   -1.4382    0.0320 H   0  0  0  0  0  0  0  0  0  0  0  0
    4.8990   -0.2606    1.3480 H   0  0  0  0  0  0  0  0  0  0  0  0
    6.3578   -2.2790    3.6429 H   0  0  0  0  0  0  0  0  0  0  0  0
    1.9291   -0.7950   -0.6114 H   0  0  0  0  0  0  0  0  0  0  0  0
   -0.2487    1.5677   -0.9062 H   0  0  0  0  0  0  0  0  0  0  0  0
    0.3873   -2.8782    1.1976 H   0  0  0  0  0  0  0  0  0  0  0  0
    0.1795   -3.3572   -0.5084 H   0  0  0  0  0  0  0  0  0  0  0  0
   -0.8569   -4.0707    0.7528 H   0  0  0  0  0  0  0  0  0  0  0  0
   -4.5099    1.4625   -0.2783 H   0  0  0  0  0  0  0  0  0  0  0  0
   -7.3142   -2.3287    1.2400 H   0  0  0  0  0  0  0  0  0  0  0  0
   -4.9191   -2.6520    0.9536 H   0  0  0  0  0  0  0  0  0  0  0  0
   -9.2717    0.0928   -0.1313 H   0  0  0  0  0  0  0  0  0  0  0  0
   -9.2380   -0.9856    1.2699 H   0  0  0  0  0  0  0  0  0  0  0  0
   -9.0046    0.7447    1.5121 H   0  0  0  0  0  0  0  0  0  0  0  0
   -7.4451    2.6321    0.8536 H   0  0  0  0  0  0  0  0  0  0  0  0
   -7.9028    2.1003   -0.7893 H   0  0  0  0  0  0  0  0  0  0  0  0
   -6.3349    2.8538   -0.5063 H   0  0  0  0  0  0  0  0  0  0  0  0
    0.6826    1.2115    1.1522 H   0  0  0  0  0  0  0  0  0  0  0  0
    0.6098    1.3262   -0.6159 H   0  0  0  0  0  0  0  0  0  0  0  0
   -0.1325   -1.1305    1.0825 H   0  0  0  0  0  0  0  0  0  0  0  0
   -0.1131   -1.1313   -0.6702 H   0  0  0  0  0  0  0  0  0  0  0  0
   -2.2973   -0.7767    0.1793 H   0  0  0  0  0  0  0  0  0  0  0  0
   -1.8198    0.5321   -0.6694 H   0  0  0  0  0  0  0  0  0  0  0  0
    2.1698   -0.2907   -0.7464 H   0  0  0  0  0  0  0  0  0  0  0  0
  4  1  1  0
  1  2  1  0
  2  3  1  0
 10 20  1  0
  9 21  1  0
 12 13  2  0
 21 22  1  0
  8  9  2  0
 22 23  2  0
 23 24  1  0
 13 14  1  0
  6  7  2  0
 14 15  2  0
  9 10  1  0
 24 25  1  0
 25 26  1  0
 26 27  2  0
 27 23  1  0
 15 16  1  0
 27 28  1  0
 16 11  2  0
 24 29  2  0
  5 11  1  0
 25 30  1  0
 10  5  2  0
 30 31  2  0
 15 17  1  0
 31 32  1  0
  5  6  1  0
 32 33  2  0
  7  8  1  0
 33 34  1  0
 17 18  1  0
 34 35  2  0
 35 30  1  0
 17 19  2  0
 33 36  1  0
 11 12  1  0
 32 37  1  0
 41 38  1  0
 38 39  1  0
 39 40  1  0
  1 42  1  0
  1 43  1  0
  2 44  1  0
  2 45  1  0
  3 46  1  0
  3 47  1  0
  4 48  1  0
  6 49  1  0
  7 50  1  0
  8 51  1  0
 12 52  1  0
 13 53  1  0
 14 54  1  0
 16 55  1  0
 18 56  1  0
 20 57  1  0
 21 58  1  0
 28 59  1  0
 28 60  1  0
 28 61  1  0
 31 62  1  0
 34 63  1  0
 35 64  1  0
 36 65  1  0
 36 66  1  0
 36 67  1  0
 37 68  1  0
 37 69  1  0
 37 70  1  0
 38 71  1  0
 38 72  1  0
 39 73  1  0
 39 74  1  0
 40 75  1  0
 40 76  1  0
 41 77  1  0
M  END
$$$$
