
     RDKit          3D

 41 42  0  0  0  0  0  0  0  0999 V2000
   -0.7364   -0.5531    0.3017 C   0  0  0  0  0  0  0  0  0  0  0  0
    0.6708   -0.6163   -0.2733 C   0  0  0  0  0  0  0  0  0  0  0  0
    1.3985    0.5620    0.1579 N   0  0  0  0  0  0  0  0  0  0  0  0
   -1.3329    0.6074   -0.1863 O   0  0  0  0  0  0  0  0  0  0  0  0
    3.5944    1.3434   -0.2032 C   0  0  0  0  0  0  0  0  0  0  0  0
    3.4356    2.6674   -0.5663 C   0  0  0  0  0  0  0  0  0  0  0  0
    2.1665    3.1970   -0.6539 C   0  0  0  0  0  0  0  0  0  0  0  0
    1.0672    2.4020   -0.3788 C   0  0  0  0  0  0  0  0  0  0  0  0
    1.2285    1.0797   -0.0162 C   0  0  0  0  0  0  0  0  0  0  0  0
    2.4928    0.5538    0.0706 C   0  0  0  0  0  0  0  0  0  0  0  0
    4.9647    0.8467   -0.1302 C   0  0  0  0  0  0  0  0  0  0  0  0
    5.8422    1.1632   -1.1512 C   0  0  0  0  0  0  0  0  0  0  0  0
    7.1570    0.7233   -1.1429 C   0  0  0  0  0  0  0  0  0  0  0  0
    7.6362   -0.0511   -0.1065 C   0  0  0  0  0  0  0  0  0  0  0  0
    6.7582   -0.3712    0.9209 C   0  0  0  0  0  0  0  0  0  0  0  0
    5.4346    0.0733    0.9097 C   0  0  0  0  0  0  0  0  0  0  0  0
    7.2167   -1.1879    2.0398 C   0  0  0  0  0  0  0  0  0  0  0  0
    8.5209   -1.6409    2.0757 O   0  0  0  0  0  0  0  0  0  0  0  0
    6.4710   -1.5118    3.0000 O   0  0  0  0  0  0  0  0  0  0  0  0
    2.6723   -0.7712    0.4332 O   0  0  0  0  0  0  0  0  0  0  0  0
    0.0466    0.3046    0.2569 N   0  0  0  0  0  0  0  0  0  0  0  0
   -0.4885   -0.3606   -0.8749 N   0  0  0  0  0  0  0  0  0  0  0  0
   -1.7337   -0.5849   -1.0195 C   0  0  0  0  0  0  0  0  0  0  0  0
   -2.7871   -0.2114   -0.0825 C   0  0  0  0  0  0  0  0  0  0  0  0
   -4.0014   -0.6667   -0.6674 N   0  0  0  0  0  0  0  0  0  0  0  0
   -3.6945   -1.2841   -1.8962 N   0  0  0  0  0  0  0  0  0  0  0  0
   -2.4251   -1.2554   -2.1256 C   0  0  0  0  0  0  0  0  0  0  0  0
   -1.7597   -1.8254   -3.3452 C   0  0  0  0  0  0  0  0  0  0  0  0
   -2.6514    0.3833    1.0050 O   0  0  0  0  0  0  0  0  0  0  0  0
   -5.3280   -0.5500   -0.1519 C   0  0  0  0  0  0  0  0  0  0  0  0
   -6.1423    0.5309   -0.4257 C   0  0  0  0  0  0  0  0  0  0  0  0
   -7.4178    0.5464    0.1262 C   0  0  0  0  0  0  0  0  0  0  0  0
   -7.8852   -0.4739    0.9282 C   0  0  0  0  0  0  0  0  0  0  0  0
   -7.0606   -1.5589    1.1998 C   0  0  0  0  0  0  0  0  0  0  0  0
   -5.7844   -1.5745    0.6476 C   0  0  0  0  0  0  0  0  0  0  0  0
   -9.2553   -0.4347    1.5077 C   0  0  0  0  0  0  0  0  0  0  0  0
   -8.2906    1.7320   -0.1831 C   0  0  0  0  0  0  0  0  0  0  0  0
   -0.7018    0.5429    0.2936 C   0  0  0  0  0  0  0  0  0  0  0  0
    0.6949    0.6001   -0.2691 C   0  0  0  0  0  0  0  0  0  0  0  0
    1.4367   -0.5811    0.1199 N   0  0  0  0  0  0  0  0  0  0  0  0
   -1.4298   -0.5619   -0.1444 O   0  0  0  0  0  0  0  0  0  0  0  0
  4  1  1  0
  1  2  1  0
  2  3  1  0
 10 20  1  0
  9 21  1  0
 12 13  2  0
 21 22  1  0
  8  9  2  0
 22 23  2  0
 23 24  1  0
 13 14  1  0
  6  7  2  0
 14 15  2  0
  9 10  1  0
 24 25  1  0
 25 26  1  0
 26 27  2  0
 27 23  1  0
 15 16  1  0
 27 28  1  0
 16 11  2  0
 24 29  2  0
  5 11  1  0
 25 30  1  0
 10  5  2  0
 30 31  2  0
 15 17  1  0
 31 32  1  0
  5  6  1  0
 32 33  2  0
  7  8  1  0
 33 34  1  0
 17 18  1  0
 34 35  2  0
 35 30  1  0
 17 19  2  0
 33 36  1  0
 11 12  1  0
 32 37  1  0
 41 38  1  0
 38 39  1  0
 39 40  1  0
M  END
