
     RDKit          3D

 77 78  0  0  0  0  0  0  0  0999 V2000
   -0.7666   -0.6348    0.0627 C   0  0  0  0  0  0  0  0  0  0  0  0
    0.2771    0.3639   -0.4453 C   0  0  0  0  0  0  0  0  0  0  0  0
    1.6432   -0.1105   -0.2482 N   0  0  0  0  0  0  0  0  0  0  0  0
   -2.0775   -0.0894   -0.0547 O   0  0  0  0  0  0  0  0  0  0  0  0
   -4.4121   -0.8760   -0.1020 C   0  0  0  0  0  0  0  0  0  0  0  0
   -4.7899   -1.7851    0.9006 C   0  0  0  0  0  0  0  0  0  0  0  0
   -3.8423   -2.5815    1.5469 C   0  0  0  0  0  0  0  0  0  0  0  0
   -2.4910   -2.4647    1.2213 C   0  0  0  0  0  0  0  0  0  0  0  0
   -2.0639   -1.5350    0.2672 C   0  0  0  0  0  0  0  0  0  0  0  0
   -3.0441   -0.7869   -0.4170 C   0  0  0  0  0  0  0  0  0  0  0  0
   -5.4447   -0.0856   -0.7932 C   0  0  0  0  0  0  0  0  0  0  0  0
   -5.6862   -0.2519   -2.1666 C   0  0  0  0  0  0  0  0  0  0  0  0
   -6.6862    0.4746   -2.8171 C   0  0  0  0  0  0  0  0  0  0  0  0
   -7.4638    1.3830   -2.1005 C   0  0  0  0  0  0  0  0  0  0  0  0
   -7.2386    1.5704   -0.7326 C   0  0  0  0  0  0  0  0  0  0  0  0
   -6.2345    0.8365   -0.0848 C   0  0  0  0  0  0  0  0  0  0  0  0
   -8.0852    2.5504   -0.0101 C   0  0  0  0  0  0  0  0  0  0  0  0
   -7.7673    2.6595    1.2916 O   0  0  0  0  0  0  0  0  0  0  0  0
   -8.9849    3.2120   -0.4946 O   0  0  0  0  0  0  0  0  0  0  0  0
   -2.6448    0.0438   -1.4392 O   0  0  0  0  0  0  0  0  0  0  0  0
   -0.6999   -1.3796   -0.0869 N   0  0  0  0  0  0  0  0  0  0  0  0
    0.2246   -2.1565    0.5475 N   0  0  0  0  0  0  0  0  0  0  0  0
    1.4446   -1.7206    0.5451 C   0  0  0  0  0  0  0  0  0  0  0  0
    2.0229   -0.4596   -0.0134 C   0  0  0  0  0  0  0  0  0  0  0  0
    3.3686   -0.5865    0.3152 N   0  0  0  0  0  0  0  0  0  0  0  0
    3.6885   -1.7721    1.0046 N   0  0  0  0  0  0  0  0  0  0  0  0
    2.5865   -2.4453    1.1530 C   0  0  0  0  0  0  0  0  0  0  0  0
    2.4221   -3.7633    1.8095 C   0  0  0  0  0  0  0  0  0  0  0  0
    1.3555    0.3821   -0.5792 O   0  0  0  0  0  0  0  0  0  0  0  0
    4.4109    0.3358    0.0462 C   0  0  0  0  0  0  0  0  0  0  0  0
    5.7307    0.0463    0.4278 C   0  0  0  0  0  0  0  0  0  0  0  0
    6.7912    0.9376    0.1781 C   0  0  0  0  0  0  0  0  0  0  0  0
    6.5230    2.1649   -0.4523 C   0  0  0  0  0  0  0  0  0  0  0  0
    5.2098    2.4527   -0.8442 C   0  0  0  0  0  0  0  0  0  0  0  0
    4.1683    1.5516   -0.5980 C   0  0  0  0  0  0  0  0  0  0  0  0
    7.6131    3.1597   -0.7428 C   0  0  0  0  0  0  0  0  0  0  0  0
    8.1826    0.5639    0.6126 C   0  0  0  0  0  0  0  0  0  0  0  0
    0.7633    0.3500    0.5593 C   0  0  0  0  0  0  0  0  0  0  0  0
   -0.2840   -0.4633   -0.2085 C   0  0  0  0  0  0  0  0  0  0  0  0
   -1.6489   -0.0690    0.1253 N   0  0  0  0  0  0  0  0  0  0  0  0
    2.0777   -0.0043    0.1407 O   0  0  0  0  0  0  0  0  0  0  0  0
   -0.7320   -1.5617   -0.5192 H   0  0  0  0  0  0  0  0  0  0  0  0
   -0.5960   -0.8891    1.1143 H   0  0  0  0  0  0  0  0  0  0  0  0
    0.1061    0.5526   -1.5105 H   0  0  0  0  0  0  0  0  0  0  0  0
    0.1473    1.3260    0.0623 H   0  0  0  0  0  0  0  0  0  0  0  0
    1.8317   -0.2258    0.7468 H   0  0  0  0  0  0  0  0  0  0  0  0
    2.2973    0.5974   -0.5833 H   0  0  0  0  0  0  0  0  0  0  0  0
   -2.1307    0.6714    0.5484 H   0  0  0  0  0  0  0  0  0  0  0  0
   -5.8400   -1.8978    1.1663 H   0  0  0  0  0  0  0  0  0  0  0  0
   -4.1573   -3.2950    2.3050 H   0  0  0  0  0  0  0  0  0  0  0  0
   -1.7689   -3.0923    1.7374 H   0  0  0  0  0  0  0  0  0  0  0  0
   -5.0873   -0.9585   -2.7389 H   0  0  0  0  0  0  0  0  0  0  0  0
   -6.8577    0.3310   -3.8808 H   0  0  0  0  0  0  0  0  0  0  0  0
   -8.2420    1.9459   -2.6134 H   0  0  0  0  0  0  0  0  0  0  0  0
   -6.0535    0.9843    0.9783 H   0  0  0  0  0  0  0  0  0  0  0  0
   -8.3897    3.3385    1.6266 H   0  0  0  0  0  0  0  0  0  0  0  0
   -1.8334   -0.3492   -1.8063 H   0  0  0  0  0  0  0  0  0  0  0  0
   -0.4709   -0.3899   -0.2684 H   0  0  0  0  0  0  0  0  0  0  0  0
    3.3718   -4.0899    2.2422 H   0  0  0  0  0  0  0  0  0  0  0  0
    2.0952   -4.5005    1.0709 H   0  0  0  0  0  0  0  0  0  0  0  0
    1.6732   -3.6907    2.6024 H   0  0  0  0  0  0  0  0  0  0  0  0
    5.9500   -0.8950    0.9279 H   0  0  0  0  0  0  0  0  0  0  0  0
    4.9812    3.3920   -1.3452 H   0  0  0  0  0  0  0  0  0  0  0  0
    3.1712    1.8403   -0.9199 H   0  0  0  0  0  0  0  0  0  0  0  0
    8.2146    3.3463    0.1533 H   0  0  0  0  0  0  0  0  0  0  0  0
    8.2572    2.7880   -1.5463 H   0  0  0  0  0  0  0  0  0  0  0  0
    7.1999    4.1242   -1.0574 H   0  0  0  0  0  0  0  0  0  0  0  0
    8.5093    1.2118    1.4323 H   0  0  0  0  0  0  0  0  0  0  0  0
    8.8821    0.6543   -0.2253 H   0  0  0  0  0  0  0  0  0  0  0  0
    8.2314   -0.4723    0.9647 H   0  0  0  0  0  0  0  0  0  0  0  0
    0.6310    1.4245    0.3944 H   0  0  0  0  0  0  0  0  0  0  0  0
    0.6882    0.1584    1.6344 H   0  0  0  0  0  0  0  0  0  0  0  0
   -0.1232   -0.3499   -1.2870 H   0  0  0  0  0  0  0  0  0  0  0  0
   -0.1457   -1.5280    0.0113 H   0  0  0  0  0  0  0  0  0  0  0  0
   -2.3041   -0.6381   -0.4099 H   0  0  0  0  0  0  0  0  0  0  0  0
   -1.8111    0.8965   -0.1588 H   0  0  0  0  0  0  0  0  0  0  0  0
    2.1569    0.2232   -0.8013 H   0  0  0  0  0  0  0  0  0  0  0  0
  4  1  1  0
  1  2  1  0
  2  3  1  0
 10 20  1  0
  9 21  1  0
 12 13  2  0
 21 22  1  0
  8  9  2  0
 22 23  2  0
 23 24  1  0
 13 14  1  0
  6  7  2  0
 14 15  2  0
  9 10  1  0
 24 25  1  0
 25 26  1  0
 26 27  2  0
 27 23  1  0
 15 16  1  0
 27 28  1  0
 16 11  2  0
 24 29  2  0
  5 11  1  0
 25 30  1  0
 10  5  2  0
 30 31  2  0
 15 17  1  0
 31 32  1  0
  5  6  1  0
 32 33  2  0
  7  8  1  0
 33 34  1  0
 17 18  1  0
 34 35  2  0
 35 30  1  0
 17 19  2  0
 33 36  1  0
 11 12  1  0
 32 37  1  0
 41 38  1  0
 38 39  1  0
 39 40  1  0
  1 42  1  0
  1 43  1  0
  2 44  1  0
  2 45  1  0
  3 46  1  0
  3 47  1  0
  4 48  1  0
  6 49  1  0
  7 50  1  0
  8 51  1  0
 12 52  1  0
 13 53  1  0
 14 54  1  0
 16 55  1  0
 18 56  1  0
 20 57  1  0
 21 58  1  0
 28 59  1  0
 28 60  1  0
 28 61  1  0
 31 62  1  0
 34 63  1  0
 35 64  1  0
 36 65  1  0
 36 66  1  0
 36 67  1  0
 37 68  1  0
 37 69  1  0
 37 70  1  0
 38 71  1  0
 38 72  1  0
 39 73  1  0
 39 74  1  0
 40 75  1  0
 40 76  1  0
 41 77  1  0
M  END
$$$$
