
     RDKit          3D

 77 78  0  0  0  0  0  0  0  0999 V2000
    0.6513   -0.6856   -0.4797 C   0  0  0  0  0  0  0  0  0  0  0  0
   -0.2319    0.4272    0.0918 C   0  0  0  0  0  0  0  0  0  0  0  0
   -1.4968    0.5525   -0.6259 N   0  0  0  0  0  0  0  0  0  0  0  0
    1.8798   -0.7581    0.2373 O   0  0  0  0  0  0  0  0  0  0  0  0
    4.2513   -1.6115    0.4201 C   0  0  0  0  0  0  0  0  0  0  0  0
    4.4284   -2.6075    1.3944 C   0  0  0  0  0  0  0  0  0  0  0  0
    3.3352   -3.2669    1.9465 C   0  0  0  0  0  0  0  0  0  0  0  0
    2.0451   -2.9301    1.5397 C   0  0  0  0  0  0  0  0  0  0  0  0
    1.8099   -1.9208    0.5861 C   0  0  0  0  0  0  0  0  0  0  0  0
    2.9346   -1.2868    0.0115 C   0  0  0  0  0  0  0  0  0  0  0  0
    5.4413   -0.9441   -0.1277 C   0  0  0  0  0  0  0  0  0  0  0  0
    6.2169   -1.5657   -1.1185 C   0  0  0  0  0  0  0  0  0  0  0  0
    7.3433   -0.9323   -1.6470 C   0  0  0  0  0  0  0  0  0  0  0  0
    7.7129    0.3320   -1.1867 C   0  0  0  0  0  0  0  0  0  0  0  0
    6.9533    0.9675   -0.1980 C   0  0  0  0  0  0  0  0  0  0  0  0
    5.8218    0.3288    0.3271 C   0  0  0  0  0  0  0  0  0  0  0  0
    7.3088    2.3078    0.3254 C   0  0  0  0  0  0  0  0  0  0  0  0
    8.3817    2.8400   -0.2883 O   0  0  0  0  0  0  0  0  0  0  0  0
    6.7255    2.9061    1.2096 O   0  0  0  0  0  0  0  0  0  0  0  0
    2.7481   -0.3346   -0.9653 O   0  0  0  0  0  0  0  0  0  0  0  0
    0.4583   -1.7006    0.2169 N   0  0  0  0  0  0  0  0  0  0  0  0
    0.1286   -0.6493   -0.5734 N   0  0  0  0  0  0  0  0  0  0  0  0
   -1.0832   -0.2091   -0.4892 C   0  0  0  0  0  0  0  0  0  0  0  0
   -2.2211   -0.6496    0.3761 C   0  0  0  0  0  0  0  0  0  0  0  0
   -3.2303    0.2309   -0.0017 N   0  0  0  0  0  0  0  0  0  0  0  0
   -2.8507    1.1583   -0.9919 N   0  0  0  0  0  0  0  0  0  0  0  0
   -1.6067    0.9225   -1.2897 C   0  0  0  0  0  0  0  0  0  0  0  0
   -0.7689    1.6403   -2.2793 C   0  0  0  0  0  0  0  0  0  0  0  0
   -2.1398   -1.5607    1.1749 O   0  0  0  0  0  0  0  0  0  0  0  0
   -4.5501    0.2974    0.5118 C   0  0  0  0  0  0  0  0  0  0  0  0
   -5.4499    1.2630    0.0325 C   0  0  0  0  0  0  0  0  0  0  0  0
   -6.7682    1.3633    0.5180 C   0  0  0  0  0  0  0  0  0  0  0  0
   -7.1987    0.4787    1.5211 C   0  0  0  0  0  0  0  0  0  0  0  0
   -6.3036   -0.4910    1.9970 C   0  0  0  0  0  0  0  0  0  0  0  0
   -4.9990   -0.5787    1.5019 C   0  0  0  0  0  0  0  0  0  0  0  0
   -8.5879    0.4980    2.0964 C   0  0  0  0  0  0  0  0  0  0  0  0
   -7.6718    2.4247   -0.0485 C   0  0  0  0  0  0  0  0  0  0  0  0
   -0.2943    1.0538   -0.1930 C   0  0  0  0  0  0  0  0  0  0  0  0
    0.1318   -0.3808   -0.5173 C   0  0  0  0  0  0  0  0  0  0  0  0
    0.4435   -1.1067    0.7207 N   0  0  0  0  0  0  0  0  0  0  0  0
   -1.3342    1.0280    0.7834 O   0  0  0  0  0  0  0  0  0  0  0  0
    0.1532   -1.6569   -0.3909 H   0  0  0  0  0  0  0  0  0  0  0  0
    0.8760   -0.5132   -1.5381 H   0  0  0  0  0  0  0  0  0  0  0  0
    0.3074    1.3803    0.0467 H   0  0  0  0  0  0  0  0  0  0  0  0
   -0.4244    0.2333    1.1533 H   0  0  0  0  0  0  0  0  0  0  0  0
   -2.0611    1.2793   -0.1855 H   0  0  0  0  0  0  0  0  0  0  0  0
   -2.0296   -0.3118   -0.5290 H   0  0  0  0  0  0  0  0  0  0  0  0
    2.3760    0.0531    0.0330 H   0  0  0  0  0  0  0  0  0  0  0  0
    5.4299   -2.8746    1.7271 H   0  0  0  0  0  0  0  0  0  0  0  0
    3.4846   -4.0435    2.6918 H   0  0  0  0  0  0  0  0  0  0  0  0
    1.2071   -3.4678    1.9774 H   0  0  0  0  0  0  0  0  0  0  0  0
    5.9418   -2.5539   -1.4864 H   0  0  0  0  0  0  0  0  0  0  0  0
    7.9345   -1.4246   -2.4158 H   0  0  0  0  0  0  0  0  0  0  0  0
    8.5947    0.8130   -1.6053 H   0  0  0  0  0  0  0  0  0  0  0  0
    5.2298    0.8240    1.0964 H   0  0  0  0  0  0  0  0  0  0  0  0
    8.5040    3.7026    0.1615 H   0  0  0  0  0  0  0  0  0  0  0  0
    3.6012   -0.1148   -1.3680 H   0  0  0  0  0  0  0  0  0  0  0  0
   -0.2149   -2.0390    0.9126 H   0  0  0  0  0  0  0  0  0  0  0  0
   -0.4530    0.9463   -3.0629 H   0  0  0  0  0  0  0  0  0  0  0  0
    0.1128    2.0539   -1.7840 H   0  0  0  0  0  0  0  0  0  0  0  0
   -1.3385    2.4557   -2.7319 H   0  0  0  0  0  0  0  0  0  0  0  0
   -5.1261    1.9570   -0.7406 H   0  0  0  0  0  0  0  0  0  0  0  0
   -6.6200   -1.1918    2.7682 H   0  0  0  0  0  0  0  0  0  0  0  0
   -4.3584   -1.3540    1.9116 H   0  0  0  0  0  0  0  0  0  0  0  0
   -8.5390    0.5256    3.1914 H   0  0  0  0  0  0  0  0  0  0  0  0
   -9.1314   -0.4015    1.7850 H   0  0  0  0  0  0  0  0  0  0  0  0
   -9.1680    1.3707    1.7808 H   0  0  0  0  0  0  0  0  0  0  0  0
   -7.9613    3.1330    0.7362 H   0  0  0  0  0  0  0  0  0  0  0  0
   -8.5665    1.9691   -0.4842 H   0  0  0  0  0  0  0  0  0  0  0  0
   -7.1782    2.9946   -0.8428 H   0  0  0  0  0  0  0  0  0  0  0  0
    0.5429    1.6294    0.2161 H   0  0  0  0  0  0  0  0  0  0  0  0
   -0.6651    1.5648   -1.0860 H   0  0  0  0  0  0  0  0  0  0  0  0
    0.9928   -0.3848   -1.1929 H   0  0  0  0  0  0  0  0  0  0  0  0
   -0.6957   -0.9039   -1.0084 H   0  0  0  0  0  0  0  0  0  0  0  0
    0.6882   -2.0694    0.4820 H   0  0  0  0  0  0  0  0  0  0  0  0
    1.2838   -0.7108    1.1433 H   0  0  0  0  0  0  0  0  0  0  0  0
   -1.0936    0.2805    1.3686 H   0  0  0  0  0  0  0  0  0  0  0  0
  4  1  1  0
  1  2  1  0
  2  3  1  0
 10 20  1  0
  9 21  1  0
 12 13  2  0
 21 22  1  0
  8  9  2  0
 22 23  2  0
 23 24  1  0
 13 14  1  0
  6  7  2  0
 14 15  2  0
  9 10  1  0
 24 25  1  0
 25 26  1  0
 26 27  2  0
 27 23  1  0
 15 16  1  0
 27 28  1  0
 16 11  2  0
 24 29  2  0
  5 11  1  0
 25 30  1  0
 10  5  2  0
 30 31  2  0
 15 17  1  0
 31 32  1  0
  5  6  1  0
 32 33  2  0
  7  8  1  0
 33 34  1  0
 17 18  1  0
 34 35  2  0
 35 30  1  0
 17 19  2  0
 33 36  1  0
 11 12  1  0
 32 37  1  0
 41 38  1  0
 38 39  1  0
 39 40  1  0
  1 42  1  0
  1 43  1  0
  2 44  1  0
  2 45  1  0
  3 46  1  0
  3 47  1  0
  4 48  1  0
  6 49  1  0
  7 50  1  0
  8 51  1  0
 12 52  1  0
 13 53  1  0
 14 54  1  0
 16 55  1  0
 18 56  1  0
 20 57  1  0
 21 58  1  0
 28 59  1  0
 28 60  1  0
 28 61  1  0
 31 62  1  0
 34 63  1  0
 35 64  1  0
 36 65  1  0
 36 66  1  0
 36 67  1  0
 37 68  1  0
 37 69  1  0
 37 70  1  0
 38 71  1  0
 38 72  1  0
 39 73  1  0
 39 74  1  0
 40 75  1  0
 40 76  1  0
 41 77  1  0
M  END
$$$$
