
     RDKit          3D

 77 78  0  0  0  0  0  0  0  0999 V2000
   -0.8090   -0.1993    0.4886 C   0  0  0  0  0  0  0  0  0  0  0  0
    0.3834    0.7050    0.1573 C   0  0  0  0  0  0  0  0  0  0  0  0
    1.5034   -0.0627   -0.3950 N   0  0  0  0  0  0  0  0  0  0  0  0
   -1.2105   -0.9352   -0.6667 O   0  0  0  0  0  0  0  0  0  0  0  0
    4.2295    0.1457   -1.0914 C   0  0  0  0  0  0  0  0  0  0  0  0
    4.3807    0.7884   -2.3320 C   0  0  0  0  0  0  0  0  0  0  0  0
    3.2795    1.2948   -3.0244 C   0  0  0  0  0  0  0  0  0  0  0  0
    1.9976    1.1645   -2.4901 C   0  0  0  0  0  0  0  0  0  0  0  0
    1.7911    0.5153   -1.2662 C   0  0  0  0  0  0  0  0  0  0  0  0
    2.9231    0.0288   -0.5772 C   0  0  0  0  0  0  0  0  0  0  0  0
    5.4185   -0.3648   -0.3814 C   0  0  0  0  0  0  0  0  0  0  0  0
    5.5194   -1.7164   -0.0115 C   0  0  0  0  0  0  0  0  0  0  0  0
    6.6499   -2.2040    0.6479 C   0  0  0  0  0  0  0  0  0  0  0  0
    7.7051   -1.3453    0.9481 C   0  0  0  0  0  0  0  0  0  0  0  0
    7.6314    0.0043    0.5884 C   0  0  0  0  0  0  0  0  0  0  0  0
    6.4934    0.4878   -0.0721 C   0  0  0  0  0  0  0  0  0  0  0  0
    8.7743    0.8856    0.9280 C   0  0  0  0  0  0  0  0  0  0  0  0
    8.6541    2.1224    0.4104 O   0  0  0  0  0  0  0  0  0  0  0  0
    9.7486    0.5724    1.5873 O   0  0  0  0  0  0  0  0  0  0  0  0
    2.7401   -0.5650    0.6493 O   0  0  0  0  0  0  0  0  0  0  0  0
    0.4751    0.4560   -0.7505 N   0  0  0  0  0  0  0  0  0  0  0  0
    0.1724   -0.2584    0.3673 N   0  0  0  0  0  0  0  0  0  0  0  0
   -1.0935   -0.3981    0.6215 C   0  0  0  0  0  0  0  0  0  0  0  0
   -2.2935    0.0841   -0.1338 C   0  0  0  0  0  0  0  0  0  0  0  0
   -3.3403   -0.3651    0.6636 N   0  0  0  0  0  0  0  0  0  0  0  0
   -2.9331   -1.0777    1.8076 N   0  0  0  0  0  0  0  0  0  0  0  0
   -1.6336   -1.1118    1.8047 C   0  0  0  0  0  0  0  0  0  0  0  0
   -0.7512   -1.7549    2.8061 C   0  0  0  0  0  0  0  0  0  0  0  0
   -2.2166    0.6978   -1.1790 O   0  0  0  0  0  0  0  0  0  0  0  0
   -4.7291   -0.1854    0.4425 C   0  0  0  0  0  0  0  0  0  0  0  0
   -5.2166    0.5249   -0.6634 C   0  0  0  0  0  0  0  0  0  0  0  0
   -6.5976    0.7028   -0.8792 C   0  0  0  0  0  0  0  0  0  0  0  0
   -7.5177    0.1450    0.0264 C   0  0  0  0  0  0  0  0  0  0  0  0
   -7.0351   -0.5543    1.1391 C   0  0  0  0  0  0  0  0  0  0  0  0
   -5.6614   -0.7190    1.3413 C   0  0  0  0  0  0  0  0  0  0  0  0
   -9.0021    0.3118   -0.1511 C   0  0  0  0  0  0  0  0  0  0  0  0
   -7.0551    1.4644   -2.0936 C   0  0  0  0  0  0  0  0  0  0  0  0
   -0.9226   -0.2461    0.0881 C   0  0  0  0  0  0  0  0  0  0  0  0
    0.4297   -0.3229   -0.6258 C   0  0  0  0  0  0  0  0  0  0  0  0
    1.5303   -0.1125    0.3201 N   0  0  0  0  0  0  0  0  0  0  0  0
   -1.1021    1.0623    0.6324 O   0  0  0  0  0  0  0  0  0  0  0  0
   -1.6602    0.3940    0.8366 H   0  0  0  0  0  0  0  0  0  0  0  0
   -0.5470   -0.9180    1.2716 H   0  0  0  0  0  0  0  0  0  0  0  0
    0.0832    1.4417   -0.5952 H   0  0  0  0  0  0  0  0  0  0  0  0
    0.7101    1.2472    1.0502 H   0  0  0  0  0  0  0  0  0  0  0  0
    1.1246   -0.6883   -1.1124 H   0  0  0  0  0  0  0  0  0  0  0  0
    1.8540   -0.6978    0.3229 H   0  0  0  0  0  0  0  0  0  0  0  0
   -1.4320   -0.2866   -1.3579 H   0  0  0  0  0  0  0  0  0  0  0  0
    5.3705    0.8959   -2.7725 H   0  0  0  0  0  0  0  0  0  0  0  0
    3.4233    1.7969   -3.9772 H   0  0  0  0  0  0  0  0  0  0  0  0
    1.1565    1.5782   -3.0412 H   0  0  0  0  0  0  0  0  0  0  0  0
    4.7006   -2.3998   -0.2329 H   0  0  0  0  0  0  0  0  0  0  0  0
    6.7028   -3.2522    0.9309 H   0  0  0  0  0  0  0  0  0  0  0  0
    8.5821   -1.7295    1.4651 H   0  0  0  0  0  0  0  0  0  0  0  0
    6.4307    1.5410   -0.3375 H   0  0  0  0  0  0  0  0  0  0  0  0
    9.4637    2.5796    0.7192 H   0  0  0  0  0  0  0  0  0  0  0  0
    1.7699   -0.4901    0.7832 H   0  0  0  0  0  0  0  0  0  0  0  0
   -0.2590    0.7078   -1.4248 H   0  0  0  0  0  0  0  0  0  0  0  0
   -0.0731   -1.0107    3.2322 H   0  0  0  0  0  0  0  0  0  0  0  0
   -0.1664   -2.5448    2.3279 H   0  0  0  0  0  0  0  0  0  0  0  0
   -1.3517   -2.1910    3.6086 H   0  0  0  0  0  0  0  0  0  0  0  0
   -4.5314    0.9589   -1.3863 H   0  0  0  0  0  0  0  0  0  0  0  0
   -7.7258   -0.9842    1.8622 H   0  0  0  0  0  0  0  0  0  0  0  0
   -5.3333   -1.2747    2.2164 H   0  0  0  0  0  0  0  0  0  0  0  0
   -9.3032    0.0481   -1.1703 H   0  0  0  0  0  0  0  0  0  0  0  0
   -9.2920    1.3470    0.0576 H   0  0  0  0  0  0  0  0  0  0  0  0
   -9.5614   -0.3406    0.5278 H   0  0  0  0  0  0  0  0  0  0  0  0
   -7.7557    2.2557   -1.8098 H   0  0  0  0  0  0  0  0  0  0  0  0
   -6.2159    1.9454   -2.6067 H   0  0  0  0  0  0  0  0  0  0  0  0
   -7.5385    0.7862   -2.8030 H   0  0  0  0  0  0  0  0  0  0  0  0
   -1.7345   -0.4382   -0.6200 H   0  0  0  0  0  0  0  0  0  0  0  0
   -0.9804   -0.9773    0.9017 H   0  0  0  0  0  0  0  0  0  0  0  0
    0.5482   -1.2966   -1.1105 H   0  0  0  0  0  0  0  0  0  0  0  0
    0.4802    0.4563   -1.3943 H   0  0  0  0  0  0  0  0  0  0  0  0
    2.3774    0.1110   -0.1987 H   0  0  0  0  0  0  0  0  0  0  0  0
    1.3024    0.7254    0.8623 H   0  0  0  0  0  0  0  0  0  0  0  0
   -1.9285    1.0386    1.1447 H   0  0  0  0  0  0  0  0  0  0  0  0
  4  1  1  0
  1  2  1  0
  2  3  1  0
 10 20  1  0
  9 21  1  0
 12 13  2  0
 21 22  1  0
  8  9  2  0
 22 23  2  0
 23 24  1  0
 13 14  1  0
  6  7  2  0
 14 15  2  0
  9 10  1  0
 24 25  1  0
 25 26  1  0
 26 27  2  0
 27 23  1  0
 15 16  1  0
 27 28  1  0
 16 11  2  0
 24 29  2  0
  5 11  1  0
 25 30  1  0
 10  5  2  0
 30 31  2  0
 15 17  1  0
 31 32  1  0
  5  6  1  0
 32 33  2  0
  7  8  1  0
 33 34  1  0
 17 18  1  0
 34 35  2  0
 35 30  1  0
 17 19  2  0
 33 36  1  0
 11 12  1  0
 32 37  1  0
 41 38  1  0
 38 39  1  0
 39 40  1  0
  1 42  1  0
  1 43  1  0
  2 44  1  0
  2 45  1  0
  3 46  1  0
  3 47  1  0
  4 48  1  0
  6 49  1  0
  7 50  1  0
  8 51  1  0
 12 52  1  0
 13 53  1  0
 14 54  1  0
 16 55  1  0
 18 56  1  0
 20 57  1  0
 21 58  1  0
 28 59  1  0
 28 60  1  0
 28 61  1  0
 31 62  1  0
 34 63  1  0
 35 64  1  0
 36 65  1  0
 36 66  1  0
 36 67  1  0
 37 68  1  0
 37 69  1  0
 37 70  1  0
 38 71  1  0
 38 72  1  0
 39 73  1  0
 39 74  1  0
 40 75  1  0
 40 76  1  0
 41 77  1  0
M  END
$$$$
