
     RDKit          3D

 57 59  0  0  0  0  0  0  0  0999 V2000
    3.8845    0.9082    1.1052 C   0  0  0  0  0  0  0  0  0  0  0  0
    3.0463   -0.3411    1.3266 C   0  0  0  0  0  0  0  0  0  0  0  0
    2.8196   -1.1575    0.0522 C   0  0  0  0  0  0  0  0  0  0  0  0
    2.0923   -0.4277   -1.0820 C   0  0  0  0  0  0  0  0  0  0  0  0
    0.7224    0.1571   -0.7253 C   0  0  0  0  0  0  0  0  0  0  0  0
   -0.2861   -0.8991   -0.2653 C   0  0  0  0  0  0  0  0  0  0  0  0
   -1.9986    0.0742    1.2872 C   0  0  0  0  0  0  0  0  0  0  0  0
   -3.2460    0.6367    1.5656 C   0  0  0  0  0  0  0  0  0  0  0  0
   -3.8362    0.4820   -0.7693 C   0  0  0  0  0  0  0  0  0  0  0  0
   -1.6513   -0.2995   -0.0233 C   0  0  0  0  0  0  0  0  0  0  0  0
   -4.1556    0.8340    0.5363 C   0  0  0  0  0  0  0  0  0  0  0  0
   -2.5873   -0.0765   -1.0434 C   0  0  0  0  0  0  0  0  0  0  0  0
   -5.3633    1.3844    0.8498 O   0  0  0  0  0  0  0  0  0  0  0  0
   -2.3509   -0.3803   -2.3549 O   0  0  0  0  0  0  0  0  0  0  0  0
   -3.5527    0.5594    0.6767 C   0  0  0  0  0  0  0  0  0  0  0  0
    3.6657   -0.0622   -0.5335 C   0  0  0  0  0  0  0  0  0  0  0  0
   -3.6521   -0.7561    0.2520 C   0  0  0  0  0  0  0  0  0  0  0  0
    3.4081   -1.3715   -0.9123 C   0  0  0  0  0  0  0  0  0  0  0  0
   -2.3073    1.1877    0.6784 C   0  0  0  0  0  0  0  0  0  0  0  0
    2.6063    0.7612   -0.1567 C   0  0  0  0  0  0  0  0  0  0  0  0
   -2.5043   -1.4344   -0.1605 C   0  0  0  0  0  0  0  0  0  0  0  0
    2.0938   -1.8446   -0.9109 C   0  0  0  0  0  0  0  0  0  0  0  0
   -1.1363    0.5092    0.2514 C   0  0  0  0  0  0  0  0  0  0  0  0
    1.2732    0.2857   -0.1499 C   0  0  0  0  0  0  0  0  0  0  0  0
   -1.2527   -0.8327   -0.1639 C   0  0  0  0  0  0  0  0  0  0  0  0
    1.0227   -1.0427   -0.5366 C   0  0  0  0  0  0  0  0  0  0  0  0
    0.1605    1.0862    0.2093 C   0  0  0  0  0  0  0  0  0  0  0  0
    0.4011    2.3931    0.7283 N   0  0  0  0  0  0  0  0  0  0  0  0
   -0.2071   -1.5751   -0.5528 N   0  0  0  0  0  0  0  0  0  0  0  0
    4.8430    0.6605    0.6382 H   0  0  0  0  0  0  0  0  0  0  0  0
    3.3661    1.6319    0.4694 H   0  0  0  0  0  0  0  0  0  0  0  0
    4.0908    1.3966    2.0630 H   0  0  0  0  0  0  0  0  0  0  0  0
    2.0880   -0.0640    1.7793 H   0  0  0  0  0  0  0  0  0  0  0  0
    3.5592   -0.9788    2.0568 H   0  0  0  0  0  0  0  0  0  0  0  0
    2.2665   -2.0675    0.3132 H   0  0  0  0  0  0  0  0  0  0  0  0
    3.7917   -1.4974   -0.3273 H   0  0  0  0  0  0  0  0  0  0  0  0
    2.7293    0.3813   -1.4590 H   0  0  0  0  0  0  0  0  0  0  0  0
    1.9706   -1.1276   -1.9184 H   0  0  0  0  0  0  0  0  0  0  0  0
    0.3358    0.6729   -1.6137 H   0  0  0  0  0  0  0  0  0  0  0  0
    0.8321    0.9312    0.0436 H   0  0  0  0  0  0  0  0  0  0  0  0
   -0.3616   -1.7111   -0.9984 H   0  0  0  0  0  0  0  0  0  0  0  0
    0.0616   -1.3763    0.6590 H   0  0  0  0  0  0  0  0  0  0  0  0
   -1.2965   -0.0714    2.1056 H   0  0  0  0  0  0  0  0  0  0  0  0
   -3.5054    0.9191    2.5819 H   0  0  0  0  0  0  0  0  0  0  0  0
   -4.5369    0.6359   -1.5831 H   0  0  0  0  0  0  0  0  0  0  0  0
   -5.8870    1.4558    0.0346 H   0  0  0  0  0  0  0  0  0  0  0  0
   -1.4370   -0.6858   -2.4564 H   0  0  0  0  0  0  0  0  0  0  0  0
   -4.4383    1.0976    1.0045 H   0  0  0  0  0  0  0  0  0  0  0  0
    4.6821    0.3218   -0.5357 H   0  0  0  0  0  0  0  0  0  0  0  0
   -4.6143   -1.2610    0.2426 H   0  0  0  0  0  0  0  0  0  0  0  0
    4.2211   -2.0272   -1.2117 H   0  0  0  0  0  0  0  0  0  0  0  0
   -2.2639    2.2177    1.0185 H   0  0  0  0  0  0  0  0  0  0  0  0
    2.8166    1.7915    0.1231 H   0  0  0  0  0  0  0  0  0  0  0  0
   -2.5869   -2.4696   -0.4851 H   0  0  0  0  0  0  0  0  0  0  0  0
    1.8980   -2.8721   -1.2095 H   0  0  0  0  0  0  0  0  0  0  0  0
    0.6637    2.3277    1.7107 H   0  0  0  0  0  0  0  0  0  0  0  0
   -0.3969    3.0102    0.6238 H   0  0  0  0  0  0  0  0  0  0  0  0
  2  1  1  0
  3  2  1  0
  4  3  1  0
  5  4  1  0
  6  5  1  0
  8  7  2  0
 10  6  1  0
 10  7  1  0
 11  8  1  0
 11  9  2  0
 12  9  1  0
 12 10  2  0
 13 11  1  0
 14 12  1  0
 17 15  2  0
 18 16  1  0
 19 15  1  0
 20 16  2  0
 21 17  1  0
 22 18  2  0
 23 19  2  0
 24 20  1  0
 25 21  2  0
 25 23  1  0
 26 22  1  0
 26 24  1  0
 27 23  1  0
 27 24  2  0
 28 27  1  0
 29 25  1  0
 29 26  2  0
  1 30  1  0
  1 31  1  0
  1 32  1  0
  2 33  1  0
  2 34  1  0
  3 35  1  0
  3 36  1  0
  4 37  1  0
  4 38  1  0
  5 39  1  0
  5 40  1  0
  6 41  1  0
  6 42  1  0
  7 43  1  0
  8 44  1  0
  9 45  1  0
 13 46  1  0
 14 47  1  0
 15 48  1  0
 16 49  1  0
 17 50  1  0
 18 51  1  0
 19 52  1  0
 20 53  1  0
 21 54  1  0
 22 55  1  0
 28 56  1  0
 28 57  1  0
M  END
$$$$
