
     RDKit          3D

 57 59  0  0  0  0  0  0  0  0999 V2000
    4.9932    0.1039    1.1302 C   0  0  0  0  0  0  0  0  0  0  0  0
    4.1023    0.3787   -0.0709 C   0  0  0  0  0  0  0  0  0  0  0  0
    2.6218    0.3524    0.3116 C   0  0  0  0  0  0  0  0  0  0  0  0
    1.7318    0.6299   -0.9018 C   0  0  0  0  0  0  0  0  0  0  0  0
    0.2435    0.7310   -0.5552 C   0  0  0  0  0  0  0  0  0  0  0  0
   -0.3543   -0.5881   -0.0575 C   0  0  0  0  0  0  0  0  0  0  0  0
   -2.3258   -0.2077    1.4464 C   0  0  0  0  0  0  0  0  0  0  0  0
   -3.6953   -0.0942    1.6946 C   0  0  0  0  0  0  0  0  0  0  0  0
   -4.1522   -0.5123   -0.6378 C   0  0  0  0  0  0  0  0  0  0  0  0
   -1.8465   -0.4812    0.1530 C   0  0  0  0  0  0  0  0  0  0  0  0
   -4.5976   -0.2494    0.6517 C   0  0  0  0  0  0  0  0  0  0  0  0
   -2.7827   -0.6216   -0.8818 C   0  0  0  0  0  0  0  0  0  0  0  0
   -5.9262   -0.1325    0.9358 O   0  0  0  0  0  0  0  0  0  0  0  0
   -2.4318   -0.8685   -2.1796 O   0  0  0  0  0  0  0  0  0  0  0  0
    3.5477    0.0589    1.0014 C   0  0  0  0  0  0  0  0  0  0  0  0
   -3.5511    0.4622   -0.8771 C   0  0  0  0  0  0  0  0  0  0  0  0
    3.3417   -1.3047    1.1358 C   0  0  0  0  0  0  0  0  0  0  0  0
   -3.5839   -0.9111   -0.6964 C   0  0  0  0  0  0  0  0  0  0  0  0
    2.5019    0.8701    0.5611 C   0  0  0  0  0  0  0  0  0  0  0  0
   -2.3449    1.1455   -0.7217 C   0  0  0  0  0  0  0  0  0  0  0  0
    2.0882   -1.8420    0.8405 C   0  0  0  0  0  0  0  0  0  0  0  0
   -2.4128   -1.5862   -0.3501 C   0  0  0  0  0  0  0  0  0  0  0  0
    1.2273    0.3317    0.2434 C   0  0  0  0  0  0  0  0  0  0  0  0
   -1.1446    0.4665   -0.3843 C   0  0  0  0  0  0  0  0  0  0  0  0
    1.0302   -1.0529    0.4078 C   0  0  0  0  0  0  0  0  0  0  0  0
   -1.2022   -0.9261   -0.1828 C   0  0  0  0  0  0  0  0  0  0  0  0
    0.1256    1.0916   -0.2400 C   0  0  0  0  0  0  0  0  0  0  0  0
    0.2459    2.5030   -0.3916 N   0  0  0  0  0  0  0  0  0  0  0  0
   -0.1406   -1.6589    0.1750 N   0  0  0  0  0  0  0  0  0  0  0  0
    6.0465    0.1276    0.8341 H   0  0  0  0  0  0  0  0  0  0  0  0
    4.8426    0.8567    1.9106 H   0  0  0  0  0  0  0  0  0  0  0  0
    4.7825   -0.8816    1.5578 H   0  0  0  0  0  0  0  0  0  0  0  0
    4.3000   -0.3722   -0.8448 H   0  0  0  0  0  0  0  0  0  0  0  0
    4.3612    1.3566   -0.4934 H   0  0  0  0  0  0  0  0  0  0  0  0
    2.3806   -0.6272    0.7389 H   0  0  0  0  0  0  0  0  0  0  0  0
    2.4299    1.1026    1.0881 H   0  0  0  0  0  0  0  0  0  0  0  0
    2.0396    1.5773   -1.3616 H   0  0  0  0  0  0  0  0  0  0  0  0
    1.8810   -0.1505   -1.6578 H   0  0  0  0  0  0  0  0  0  0  0  0
    0.0935    1.5161    0.1968 H   0  0  0  0  0  0  0  0  0  0  0  0
   -0.2913    1.0623   -1.4544 H   0  0  0  0  0  0  0  0  0  0  0  0
    0.1183   -0.8839    0.8870 H   0  0  0  0  0  0  0  0  0  0  0  0
   -0.1364   -1.4038   -0.7573 H   0  0  0  0  0  0  0  0  0  0  0  0
   -1.6322   -0.0810    2.2752 H   0  0  0  0  0  0  0  0  0  0  0  0
   -4.0549    0.1143    2.6982 H   0  0  0  0  0  0  0  0  0  0  0  0
   -4.8475   -0.6307   -1.4622 H   0  0  0  0  0  0  0  0  0  0  0  0
   -6.4271   -0.2701    0.1147 H   0  0  0  0  0  0  0  0  0  0  0  0
   -1.4665   -0.8527   -2.2623 H   0  0  0  0  0  0  0  0  0  0  0  0
    4.5143    0.4940    1.2411 H   0  0  0  0  0  0  0  0  0  0  0  0
   -4.4578    1.0038   -1.1333 H   0  0  0  0  0  0  0  0  0  0  0  0
    4.1441   -1.9525    1.4778 H   0  0  0  0  0  0  0  0  0  0  0  0
   -4.5141   -1.4604   -0.8126 H   0  0  0  0  0  0  0  0  0  0  0  0
    2.6893    1.9371    0.4844 H   0  0  0  0  0  0  0  0  0  0  0  0
   -2.3559    2.2237   -0.8512 H   0  0  0  0  0  0  0  0  0  0  0  0
    1.9274   -2.9114    0.9599 H   0  0  0  0  0  0  0  0  0  0  0  0
   -2.4462   -2.6628   -0.1967 H   0  0  0  0  0  0  0  0  0  0  0  0
   -0.4166    2.8858   -1.0574 H   0  0  0  0  0  0  0  0  0  0  0  0
    1.1868    2.7947   -0.6330 H   0  0  0  0  0  0  0  0  0  0  0  0
  2  1  1  0
  3  2  1  0
  4  3  1  0
  5  4  1  0
  6  5  1  0
  8  7  2  0
 10  6  1  0
 10  7  1  0
 11  8  1  0
 11  9  2  0
 12  9  1  0
 12 10  2  0
 13 11  1  0
 14 12  1  0
 17 15  2  0
 18 16  1  0
 19 15  1  0
 20 16  2  0
 21 17  1  0
 22 18  2  0
 23 19  2  0
 24 20  1  0
 25 21  2  0
 25 23  1  0
 26 22  1  0
 26 24  1  0
 27 23  1  0
 27 24  2  0
 28 27  1  0
 29 25  1  0
 29 26  2  0
  1 30  1  0
  1 31  1  0
  1 32  1  0
  2 33  1  0
  2 34  1  0
  3 35  1  0
  3 36  1  0
  4 37  1  0
  4 38  1  0
  5 39  1  0
  5 40  1  0
  6 41  1  0
  6 42  1  0
  7 43  1  0
  8 44  1  0
  9 45  1  0
 13 46  1  0
 14 47  1  0
 15 48  1  0
 16 49  1  0
 17 50  1  0
 18 51  1  0
 19 52  1  0
 20 53  1  0
 21 54  1  0
 22 55  1  0
 28 56  1  0
 28 57  1  0
M  END
$$$$
