
     RDKit          3D

 57 59  0  0  0  0  0  0  0  0999 V2000
    2.9711    1.1185   -1.4633 C   0  0  0  0  0  0  0  0  0  0  0  0
    3.4999   -0.0480   -0.6427 C   0  0  0  0  0  0  0  0  0  0  0  0
    2.4681   -0.6236    0.3308 C   0  0  0  0  0  0  0  0  0  0  0  0
    1.2815   -1.2869   -0.3733 C   0  0  0  0  0  0  0  0  0  0  0  0
    0.3241   -1.9977    0.5918 C   0  0  0  0  0  0  0  0  0  0  0  0
   -0.4000   -1.0852    1.5903 C   0  0  0  0  0  0  0  0  0  0  0  0
   -0.9460    1.2600    0.8391 C   0  0  0  0  0  0  0  0  0  0  0  0
   -1.7880    2.1947    0.2350 C   0  0  0  0  0  0  0  0  0  0  0  0
   -3.4294    0.4645   -0.1684 C   0  0  0  0  0  0  0  0  0  0  0  0
   -1.3315   -0.0853    0.9462 C   0  0  0  0  0  0  0  0  0  0  0  0
   -3.0201    1.7909   -0.2635 C   0  0  0  0  0  0  0  0  0  0  0  0
   -2.5808   -0.4641    0.4369 C   0  0  0  0  0  0  0  0  0  0  0  0
   -3.8080    2.7405   -0.8454 O   0  0  0  0  0  0  0  0  0  0  0  0
   -2.9645   -1.7723    0.5467 O   0  0  0  0  0  0  0  0  0  0  0  0
    3.6771   -0.1765    0.2031 C   0  0  0  0  0  0  0  0  0  0  0  0
   -3.6065    0.6936   -0.3239 C   0  0  0  0  0  0  0  0  0  0  0  0
    3.4384   -1.5284    0.0152 C   0  0  0  0  0  0  0  0  0  0  0  0
   -3.6672   -0.6795   -0.4988 C   0  0  0  0  0  0  0  0  0  0  0  0
    2.5994    0.7061    0.2765 C   0  0  0  0  0  0  0  0  0  0  0  0
   -2.3737    1.3002   -0.0832 C   0  0  0  0  0  0  0  0  0  0  0  0
    2.1251   -1.9830   -0.1096 C   0  0  0  0  0  0  0  0  0  0  0  0
   -2.4929   -1.4313   -0.4437 C   0  0  0  0  0  0  0  0  0  0  0  0
    1.2587    0.2523    0.1661 C   0  0  0  0  0  0  0  0  0  0  0  0
   -1.1750    0.5430   -0.0100 C   0  0  0  0  0  0  0  0  0  0  0  0
    1.0369   -1.1220   -0.0470 C   0  0  0  0  0  0  0  0  0  0  0  0
   -1.2535   -0.8483   -0.2126 C   0  0  0  0  0  0  0  0  0  0  0  0
    0.1110    1.0880    0.2624 C   0  0  0  0  0  0  0  0  0  0  0  0
    0.2662    2.4932    0.4381 N   0  0  0  0  0  0  0  0  0  0  0  0
   -0.1826   -1.6515   -0.2036 N   0  0  0  0  0  0  0  0  0  0  0  0
    2.1801    0.8013   -2.1490 H   0  0  0  0  0  0  0  0  0  0  0  0
    2.5730    1.9063   -0.8159 H   0  0  0  0  0  0  0  0  0  0  0  0
    3.7773    1.5499   -2.0653 H   0  0  0  0  0  0  0  0  0  0  0  0
    3.8603   -0.8349   -1.3153 H   0  0  0  0  0  0  0  0  0  0  0  0
    4.3662    0.2971   -0.0658 H   0  0  0  0  0  0  0  0  0  0  0  0
    2.1219    0.1748    0.9956 H   0  0  0  0  0  0  0  0  0  0  0  0
    2.9695   -1.3669    0.9628 H   0  0  0  0  0  0  0  0  0  0  0  0
    1.6633   -2.0332   -1.0814 H   0  0  0  0  0  0  0  0  0  0  0  0
    0.7279   -0.5524   -0.9673 H   0  0  0  0  0  0  0  0  0  0  0  0
    0.8874   -2.7510    1.1568 H   0  0  0  0  0  0  0  0  0  0  0  0
   -0.4128   -2.5504   -0.0037 H   0  0  0  0  0  0  0  0  0  0  0  0
    0.3272   -0.5659    2.2258 H   0  0  0  0  0  0  0  0  0  0  0  0
   -0.9830   -1.7068    2.2825 H   0  0  0  0  0  0  0  0  0  0  0  0
    0.0166    1.5889    1.2233 H   0  0  0  0  0  0  0  0  0  0  0  0
   -1.4819    3.2338    0.1538 H   0  0  0  0  0  0  0  0  0  0  0  0
   -4.3929    0.1583   -0.5580 H   0  0  0  0  0  0  0  0  0  0  0  0
   -4.6315    2.3244   -1.1471 H   0  0  0  0  0  0  0  0  0  0  0  0
   -3.8449   -1.8792    0.1528 H   0  0  0  0  0  0  0  0  0  0  0  0
    4.6950    0.1944    0.2880 H   0  0  0  0  0  0  0  0  0  0  0  0
   -4.5107    1.2942   -0.3780 H   0  0  0  0  0  0  0  0  0  0  0  0
    4.2651   -2.2310   -0.0450 H   0  0  0  0  0  0  0  0  0  0  0  0
   -4.6183   -1.1697   -0.6876 H   0  0  0  0  0  0  0  0  0  0  0  0
    2.8200    1.7616    0.4051 H   0  0  0  0  0  0  0  0  0  0  0  0
   -2.3567    2.3801    0.0306 H   0  0  0  0  0  0  0  0  0  0  0  0
    1.9433   -3.0436   -0.2698 H   0  0  0  0  0  0  0  0  0  0  0  0
   -2.5439   -2.5075   -0.5944 H   0  0  0  0  0  0  0  0  0  0  0  0
    1.0951    2.7346    0.9705 H   0  0  0  0  0  0  0  0  0  0  0  0
   -0.5500    2.9311    0.8515 H   0  0  0  0  0  0  0  0  0  0  0  0
  2  1  1  0
  3  2  1  0
  4  3  1  0
  5  4  1  0
  6  5  1  0
  8  7  2  0
 10  6  1  0
 10  7  1  0
 11  8  1  0
 11  9  2  0
 12  9  1  0
 12 10  2  0
 13 11  1  0
 14 12  1  0
 17 15  2  0
 18 16  1  0
 19 15  1  0
 20 16  2  0
 21 17  1  0
 22 18  2  0
 23 19  2  0
 24 20  1  0
 25 21  2  0
 25 23  1  0
 26 22  1  0
 26 24  1  0
 27 23  1  0
 27 24  2  0
 28 27  1  0
 29 25  1  0
 29 26  2  0
  1 30  1  0
  1 31  1  0
  1 32  1  0
  2 33  1  0
  2 34  1  0
  3 35  1  0
  3 36  1  0
  4 37  1  0
  4 38  1  0
  5 39  1  0
  5 40  1  0
  6 41  1  0
  6 42  1  0
  7 43  1  0
  8 44  1  0
  9 45  1  0
 13 46  1  0
 14 47  1  0
 15 48  1  0
 16 49  1  0
 17 50  1  0
 18 51  1  0
 19 52  1  0
 20 53  1  0
 21 54  1  0
 22 55  1  0
 28 56  1  0
 28 57  1  0
M  END
$$$$
