
     RDKit          3D

 57 59  0  0  0  0  0  0  0  0999 V2000
   -4.8144    0.3121   -0.8697 C   0  0  0  0  0  0  0  0  0  0  0  0
   -4.3072    0.1434    0.5542 C   0  0  0  0  0  0  0  0  0  0  0  0
   -2.8514    0.5768    0.7398 C   0  0  0  0  0  0  0  0  0  0  0  0
   -1.8563   -0.2969   -0.0272 C   0  0  0  0  0  0  0  0  0  0  0  0
   -0.4126    0.1111    0.2760 C   0  0  0  0  0  0  0  0  0  0  0  0
    0.5830   -0.7591   -0.4954 C   0  0  0  0  0  0  0  0  0  0  0  0
    2.6697    0.4923   -1.1020 C   0  0  0  0  0  0  0  0  0  0  0  0
    3.9899    0.8886   -0.8783 C   0  0  0  0  0  0  0  0  0  0  0  0
    4.0369   -0.4159    1.1513 C   0  0  0  0  0  0  0  0  0  0  0  0
    2.0125   -0.3693   -0.2059 C   0  0  0  0  0  0  0  0  0  0  0  0
    4.6637    0.4303    0.2450 C   0  0  0  0  0  0  0  0  0  0  0  0
    2.7168   -0.8072    0.9250 C   0  0  0  0  0  0  0  0  0  0  0  0
    5.9517    0.8395    0.4268 O   0  0  0  0  0  0  0  0  0  0  0  0
    2.1746   -1.6311    1.8713 O   0  0  0  0  0  0  0  0  0  0  0  0
   -3.6982   -0.2014   -0.0913 C   0  0  0  0  0  0  0  0  0  0  0  0
    3.5878    0.7184    0.0608 C   0  0  0  0  0  0  0  0  0  0  0  0
   -3.4475   -1.5631   -0.0085 C   0  0  0  0  0  0  0  0  0  0  0  0
    3.6768   -0.6634    0.1196 C   0  0  0  0  0  0  0  0  0  0  0  0
   -2.6271    0.6889   -0.1421 C   0  0  0  0  0  0  0  0  0  0  0  0
    2.3336    1.3221   -0.0292 C   0  0  0  0  0  0  0  0  0  0  0  0
   -2.1283   -2.0215    0.0225 C   0  0  0  0  0  0  0  0  0  0  0  0
    2.5105   -1.4294    0.0954 C   0  0  0  0  0  0  0  0  0  0  0  0
   -1.2887    0.2300   -0.1072 C   0  0  0  0  0  0  0  0  0  0  0  0
    1.1428    0.5511   -0.0645 C   0  0  0  0  0  0  0  0  0  0  0  0
   -1.0453   -1.1523   -0.0243 C   0  0  0  0  0  0  0  0  0  0  0  0
    1.2502   -0.8523    0.0106 C   0  0  0  0  0  0  0  0  0  0  0  0
   -0.1659    1.0920   -0.1718 C   0  0  0  0  0  0  0  0  0  0  0  0
   -0.3853    2.5008   -0.1253 N   0  0  0  0  0  0  0  0  0  0  0  0
    0.1895   -1.6712    0.0201 N   0  0  0  0  0  0  0  0  0  0  0  0
   -5.8831    0.0797   -0.9172 H   0  0  0  0  0  0  0  0  0  0  0  0
   -4.6759    1.3408   -1.2172 H   0  0  0  0  0  0  0  0  0  0  0  0
   -4.2990   -0.3602   -1.5618 H   0  0  0  0  0  0  0  0  0  0  0  0
   -4.4280   -0.9014    0.8631 H   0  0  0  0  0  0  0  0  0  0  0  0
   -4.9359    0.7456    1.2209 H   0  0  0  0  0  0  0  0  0  0  0  0
   -2.7376    1.6238    0.4335 H   0  0  0  0  0  0  0  0  0  0  0  0
   -2.6156    0.5336    1.8103 H   0  0  0  0  0  0  0  0  0  0  0  0
   -2.0046   -1.3488    0.2450 H   0  0  0  0  0  0  0  0  0  0  0  0
   -2.0340   -0.2107   -1.1050 H   0  0  0  0  0  0  0  0  0  0  0  0
   -0.2286    0.0301    1.3544 H   0  0  0  0  0  0  0  0  0  0  0  0
   -0.2660    1.1658    0.0104 H   0  0  0  0  0  0  0  0  0  0  0  0
    0.3905   -0.6709   -1.5727 H   0  0  0  0  0  0  0  0  0  0  0  0
    0.4342   -1.8207   -0.2635 H   0  0  0  0  0  0  0  0  0  0  0  0
    2.1557    0.8633   -1.9864 H   0  0  0  0  0  0  0  0  0  0  0  0
    4.4890    1.5525   -1.5783 H   0  0  0  0  0  0  0  0  0  0  0  0
    4.5516   -0.7775    2.0352 H   0  0  0  0  0  0  0  0  0  0  0  0
    6.2868    0.4380    1.2456 H   0  0  0  0  0  0  0  0  0  0  0  0
    1.2437   -1.7976    1.6605 H   0  0  0  0  0  0  0  0  0  0  0  0
   -4.7190    0.1696   -0.1228 H   0  0  0  0  0  0  0  0  0  0  0  0
    4.4883    1.3267    0.0833 H   0  0  0  0  0  0  0  0  0  0  0  0
   -4.2699   -2.2722    0.0294 H   0  0  0  0  0  0  0  0  0  0  0  0
    4.6455   -1.1509    0.1886 H   0  0  0  0  0  0  0  0  0  0  0  0
   -2.8339    1.7541   -0.2235 H   0  0  0  0  0  0  0  0  0  0  0  0
    2.2990    2.4063   -0.0719 H   0  0  0  0  0  0  0  0  0  0  0  0
   -1.9380   -3.0905    0.0869 H   0  0  0  0  0  0  0  0  0  0  0  0
    2.5858   -2.5135    0.1501 H   0  0  0  0  0  0  0  0  0  0  0  0
   -0.5446    2.7902    0.8387 H   0  0  0  0  0  0  0  0  0  0  0  0
    0.3819    3.0312   -0.5235 H   0  0  0  0  0  0  0  0  0  0  0  0
  2  1  1  0
  3  2  1  0
  4  3  1  0
  5  4  1  0
  6  5  1  0
  8  7  2  0
 10  6  1  0
 10  7  1  0
 11  8  1  0
 11  9  2  0
 12  9  1  0
 12 10  2  0
 13 11  1  0
 14 12  1  0
 17 15  2  0
 18 16  1  0
 19 15  1  0
 20 16  2  0
 21 17  1  0
 22 18  2  0
 23 19  2  0
 24 20  1  0
 25 21  2  0
 25 23  1  0
 26 22  1  0
 26 24  1  0
 27 23  1  0
 27 24  2  0
 28 27  1  0
 29 25  1  0
 29 26  2  0
  1 30  1  0
  1 31  1  0
  1 32  1  0
  2 33  1  0
  2 34  1  0
  3 35  1  0
  3 36  1  0
  4 37  1  0
  4 38  1  0
  5 39  1  0
  5 40  1  0
  6 41  1  0
  6 42  1  0
  7 43  1  0
  8 44  1  0
  9 45  1  0
 13 46  1  0
 14 47  1  0
 15 48  1  0
 16 49  1  0
 17 50  1  0
 18 51  1  0
 19 52  1  0
 20 53  1  0
 21 54  1  0
 22 55  1  0
 28 56  1  0
 28 57  1  0
M  END
$$$$
