
     RDKit          2D

 29 31  0  0  0  0  0  0  0  0999 V2000
    4.3827   -0.2652    0.0000 C   0  0  0  0  0  0  0  0  0  0  0  0
    5.0972   -0.6777    0.0000 C   0  0  0  0  0  0  0  0  0  0  0  0
    5.8116   -0.2652    0.0000 C   0  0  0  0  0  0  0  0  0  0  0  0
    6.5261   -0.6777    0.0000 C   0  0  0  0  0  0  0  0  0  0  0  0
    7.2406   -0.2652    0.0000 C   0  0  0  0  0  0  0  0  0  0  0  0
    7.9551   -0.6777    0.0000 C   0  0  0  0  0  0  0  0  0  0  0  0
    9.3840   -0.6777    0.0000 C   0  0  0  0  0  0  0  0  0  0  0  0
   10.0985   -0.2652    0.0000 C   0  0  0  0  0  0  0  0  0  0  0  0
    9.3840    0.9723    0.0000 C   0  0  0  0  0  0  0  0  0  0  0  0
    8.6695   -0.2652    0.0000 C   0  0  0  0  0  0  0  0  0  0  0  0
   10.0985    0.5598    0.0000 C   0  0  0  0  0  0  0  0  0  0  0  0
    8.6695    0.5598    0.0000 C   0  0  0  0  0  0  0  0  0  0  0  0
   10.8129    0.9723    0.0000 O   0  0  0  0  0  0  0  0  0  0  0  0
    7.9551    0.9723    0.0000 O   0  0  0  0  0  0  0  0  0  0  0  0
    2.1434   -0.3025    0.0000 C   0  0  0  0  0  0  0  0  0  0  0  0
   -2.1434   -0.3025    0.0000 C   0  0  0  0  0  0  0  0  0  0  0  0
    2.1434    0.5225    0.0000 C   0  0  0  0  0  0  0  0  0  0  0  0
   -2.1434    0.5225    0.0000 C   0  0  0  0  0  0  0  0  0  0  0  0
    1.4289   -0.7150    0.0000 C   0  0  0  0  0  0  0  0  0  0  0  0
   -1.4289   -0.7150    0.0000 C   0  0  0  0  0  0  0  0  0  0  0  0
    1.4289    0.9350    0.0000 C   0  0  0  0  0  0  0  0  0  0  0  0
   -1.4289    0.9350    0.0000 C   0  0  0  0  0  0  0  0  0  0  0  0
    0.7145   -0.3025    0.0000 C   0  0  0  0  0  0  0  0  0  0  0  0
   -0.7145   -0.3025    0.0000 C   0  0  0  0  0  0  0  0  0  0  0  0
    0.7145    0.5225    0.0000 C   0  0  0  0  0  0  0  0  0  0  0  0
   -0.7145    0.5225    0.0000 C   0  0  0  0  0  0  0  0  0  0  0  0
    0.0000   -0.7150    0.0000 C   0  0  0  0  0  0  0  0  0  0  0  0
    0.0000   -1.5400    0.0000 N   0  0  0  0  0  0  0  0  0  0  0  0
    0.0000    0.9350    0.0000 N   0  0  0  0  0  0  0  0  0  0  0  0
  2  1  1  0
  3  2  1  0
  4  3  1  0
  5  4  1  0
  6  5  1  0
  8  7  2  0
 10  6  1  0
 10  7  1  0
 11  8  1  0
 11  9  2  0
 12  9  1  0
 12 10  2  0
 13 11  1  0
 14 12  1  0
 17 15  2  0
 18 16  1  0
 19 15  1  0
 20 16  2  0
 21 17  1  0
 22 18  2  0
 23 19  2  0
 24 20  1  0
 25 21  2  0
 25 23  1  0
 26 22  1  0
 26 24  1  0
 27 23  1  0
 27 24  2  0
 28 27  1  0
 29 25  1  0
 29 26  2  0
M  END
> <chembl_id>
CHEMBL1201038

> <chembl_pref_name>
ACRISORCIN
