
     RDKit          3D

 57 59  0  0  0  0  0  0  0  0999 V2000
    4.0969   -1.8862   -0.1156 C   0  0  0  0  0  0  0  0  0  0  0  0
    3.1952   -0.7085    0.2215 C   0  0  0  0  0  0  0  0  0  0  0  0
    2.7774    0.0516   -1.0375 C   0  0  0  0  0  0  0  0  0  0  0  0
    1.9631    1.3156   -0.7454 C   0  0  0  0  0  0  0  0  0  0  0  0
    0.6550    1.1043    0.0231 C   0  0  0  0  0  0  0  0  0  0  0  0
   -0.3315    0.1826   -0.6987 C   0  0  0  0  0  0  0  0  0  0  0  0
   -1.8377   -0.9365    0.9857 C   0  0  0  0  0  0  0  0  0  0  0  0
   -3.0380   -1.0361    1.6932 C   0  0  0  0  0  0  0  0  0  0  0  0
   -3.8769    0.9166    0.5361 C   0  0  0  0  0  0  0  0  0  0  0  0
   -1.6447    0.0850    0.0417 C   0  0  0  0  0  0  0  0  0  0  0  0
   -4.0471   -0.1079    1.4598 C   0  0  0  0  0  0  0  0  0  0  0  0
   -2.6760    1.0092   -0.1656 C   0  0  0  0  0  0  0  0  0  0  0  0
   -5.2347   -0.1678    2.1287 O   0  0  0  0  0  0  0  0  0  0  0  0
   -2.4882    2.0157   -1.0713 O   0  0  0  0  0  0  0  0  0  0  0  0
    3.5817    0.3547    0.6615 C   0  0  0  0  0  0  0  0  0  0  0  0
   -3.6230    0.1646   -0.7565 C   0  0  0  0  0  0  0  0  0  0  0  0
    3.4880   -1.0093    0.8880 C   0  0  0  0  0  0  0  0  0  0  0  0
   -3.5525   -1.2000   -0.5181 C   0  0  0  0  0  0  0  0  0  0  0  0
    2.4339    1.0765    0.3341 C   0  0  0  0  0  0  0  0  0  0  0  0
   -2.4744    0.9423   -0.6212 C   0  0  0  0  0  0  0  0  0  0  0  0
    2.2485   -1.6413    0.7780 C   0  0  0  0  0  0  0  0  0  0  0  0
   -2.3343   -1.7737   -0.1465 C   0  0  0  0  0  0  0  0  0  0  0  0
    1.1677    0.4444    0.2297 C   0  0  0  0  0  0  0  0  0  0  0  0
   -1.2368    0.3654   -0.2486 C   0  0  0  0  0  0  0  0  0  0  0  0
    1.0923   -0.9459    0.4491 C   0  0  0  0  0  0  0  0  0  0  0  0
   -1.1763   -1.0185   -0.0081 C   0  0  0  0  0  0  0  0  0  0  0  0
   -0.0451    1.1138   -0.0824 C   0  0  0  0  0  0  0  0  0  0  0  0
   -0.0511    2.4934   -0.4455 N   0  0  0  0  0  0  0  0  0  0  0  0
   -0.0452   -1.6463    0.3421 N   0  0  0  0  0  0  0  0  0  0  0  0
    4.3817   -2.4187    0.7973 H   0  0  0  0  0  0  0  0  0  0  0  0
    5.0128   -1.5502   -0.6122 H   0  0  0  0  0  0  0  0  0  0  0  0
    3.5866   -2.5939   -0.7768 H   0  0  0  0  0  0  0  0  0  0  0  0
    2.3126   -1.0848    0.7498 H   0  0  0  0  0  0  0  0  0  0  0  0
    3.7240   -0.0349    0.9055 H   0  0  0  0  0  0  0  0  0  0  0  0
    2.2150   -0.6126   -1.7038 H   0  0  0  0  0  0  0  0  0  0  0  0
    3.6769    0.3495   -1.5912 H   0  0  0  0  0  0  0  0  0  0  0  0
    2.5883    2.0154   -0.1768 H   0  0  0  0  0  0  0  0  0  0  0  0
    1.7379    1.8103   -1.6985 H   0  0  0  0  0  0  0  0  0  0  0  0
    0.8674    0.7168    1.0267 H   0  0  0  0  0  0  0  0  0  0  0  0
    0.1920    2.0880    0.1755 H   0  0  0  0  0  0  0  0  0  0  0  0
   -0.5064    0.5352   -1.7226 H   0  0  0  0  0  0  0  0  0  0  0  0
    0.0904   -0.8244   -0.8008 H   0  0  0  0  0  0  0  0  0  0  0  0
   -1.0480   -1.6607    1.1741 H   0  0  0  0  0  0  0  0  0  0  0  0
   -3.1627   -1.8363    2.4157 H   0  0  0  0  0  0  0  0  0  0  0  0
   -4.6815    1.6269    0.3797 H   0  0  0  0  0  0  0  0  0  0  0  0
   -5.2103   -0.9275    2.7336 H   0  0  0  0  0  0  0  0  0  0  0  0
   -3.2895    2.5642   -1.0931 H   0  0  0  0  0  0  0  0  0  0  0  0
    4.5418    0.8582    0.7398 H   0  0  0  0  0  0  0  0  0  0  0  0
   -4.5650    0.6260   -1.0401 H   0  0  0  0  0  0  0  0  0  0  0  0
    4.3714   -1.5873    1.1454 H   0  0  0  0  0  0  0  0  0  0  0  0
   -4.4382   -1.8217   -0.6162 H   0  0  0  0  0  0  0  0  0  0  0  0
    2.5423    2.1428    0.1614 H   0  0  0  0  0  0  0  0  0  0  0  0
   -2.5434    2.0143   -0.7944 H   0  0  0  0  0  0  0  0  0  0  0  0
    2.1821   -2.7138    0.9488 H   0  0  0  0  0  0  0  0  0  0  0  0
   -2.2853   -2.8443    0.0397 H   0  0  0  0  0  0  0  0  0  0  0  0
    0.0417    2.5811   -1.4564 H   0  0  0  0  0  0  0  0  0  0  0  0
    0.6791    3.0243    0.0164 H   0  0  0  0  0  0  0  0  0  0  0  0
  2  1  1  0
  3  2  1  0
  4  3  1  0
  5  4  1  0
  6  5  1  0
  8  7  2  0
 10  6  1  0
 10  7  1  0
 11  8  1  0
 11  9  2  0
 12  9  1  0
 12 10  2  0
 13 11  1  0
 14 12  1  0
 17 15  2  0
 18 16  1  0
 19 15  1  0
 20 16  2  0
 21 17  1  0
 22 18  2  0
 23 19  2  0
 24 20  1  0
 25 21  2  0
 25 23  1  0
 26 22  1  0
 26 24  1  0
 27 23  1  0
 27 24  2  0
 28 27  1  0
 29 25  1  0
 29 26  2  0
  1 30  1  0
  1 31  1  0
  1 32  1  0
  2 33  1  0
  2 34  1  0
  3 35  1  0
  3 36  1  0
  4 37  1  0
  4 38  1  0
  5 39  1  0
  5 40  1  0
  6 41  1  0
  6 42  1  0
  7 43  1  0
  8 44  1  0
  9 45  1  0
 13 46  1  0
 14 47  1  0
 15 48  1  0
 16 49  1  0
 17 50  1  0
 18 51  1  0
 19 52  1  0
 20 53  1  0
 21 54  1  0
 22 55  1  0
 28 56  1  0
 28 57  1  0
M  END
$$$$
