
     RDKit          3D

 57 59  0  0  0  0  0  0  0  0999 V2000
   -4.1165   -0.9941    1.1616 C   0  0  0  0  0  0  0  0  0  0  0  0
   -3.0911   -0.7383    0.0676 C   0  0  0  0  0  0  0  0  0  0  0  0
   -2.8900    0.7587   -0.1687 C   0  0  0  0  0  0  0  0  0  0  0  0
   -1.9534    1.0717   -1.3397 C   0  0  0  0  0  0  0  0  0  0  0  0
   -0.5339    0.5072   -1.2271 C   0  0  0  0  0  0  0  0  0  0  0  0
    0.2256    1.0141    0.0017 C   0  0  0  0  0  0  0  0  0  0  0  0
    2.6754    1.3232   -0.5063 C   0  0  0  0  0  0  0  0  0  0  0  0
    3.9970    0.8749   -0.5128 C   0  0  0  0  0  0  0  0  0  0  0  0
    3.3054   -1.2009    0.5205 C   0  0  0  0  0  0  0  0  0  0  0  0
    1.6526    0.5186    0.0183 C   0  0  0  0  0  0  0  0  0  0  0  0
    4.3014   -0.3800    0.0002 C   0  0  0  0  0  0  0  0  0  0  0  0
    1.9861   -0.7452    0.5231 C   0  0  0  0  0  0  0  0  0  0  0  0
    5.6073   -0.7740   -0.0282 O   0  0  0  0  0  0  0  0  0  0  0  0
    0.9880   -1.5354    1.0228 O   0  0  0  0  0  0  0  0  0  0  0  0
   -3.7022   -0.1382   -0.0138 C   0  0  0  0  0  0  0  0  0  0  0  0
    3.5999    0.6486    0.1113 C   0  0  0  0  0  0  0  0  0  0  0  0
   -3.4727   -1.4812   -0.2738 C   0  0  0  0  0  0  0  0  0  0  0  0
    3.6669   -0.7143   -0.1310 C   0  0  0  0  0  0  0  0  0  0  0  0
   -2.6177    0.7157    0.1786 C   0  0  0  0  0  0  0  0  0  0  0  0
    2.3543    1.2596    0.2555 C   0  0  0  0  0  0  0  0  0  0  0  0
   -2.1611   -1.9575   -0.3387 C   0  0  0  0  0  0  0  0  0  0  0  0
    2.4875   -1.4533   -0.2343 C   0  0  0  0  0  0  0  0  0  0  0  0
   -1.2868    0.2391    0.1102 C   0  0  0  0  0  0  0  0  0  0  0  0
    1.1501    0.5146    0.1619 C   0  0  0  0  0  0  0  0  0  0  0  0
   -1.0649   -1.1241   -0.1528 C   0  0  0  0  0  0  0  0  0  0  0  0
    1.2355   -0.8678   -0.0990 C   0  0  0  0  0  0  0  0  0  0  0  0
   -0.1514    1.0622    0.3137 C   0  0  0  0  0  0  0  0  0  0  0  0
   -0.3458    2.4686    0.4525 N   0  0  0  0  0  0  0  0  0  0  0  0
    0.1617   -1.6569   -0.2408 N   0  0  0  0  0  0  0  0  0  0  0  0
   -4.2433   -2.0699    1.3180 H   0  0  0  0  0  0  0  0  0  0  0  0
   -5.0906   -0.5730    0.8933 H   0  0  0  0  0  0  0  0  0  0  0  0
   -3.7979   -0.5481    2.1093 H   0  0  0  0  0  0  0  0  0  0  0  0
   -2.1458   -1.2085    0.3588 H   0  0  0  0  0  0  0  0  0  0  0  0
   -3.4252   -1.2205   -0.8583 H   0  0  0  0  0  0  0  0  0  0  0  0
   -2.5190    1.2333    0.7470 H   0  0  0  0  0  0  0  0  0  0  0  0
   -3.8621    1.2219   -0.3805 H   0  0  0  0  0  0  0  0  0  0  0  0
   -2.4041    0.6905   -2.2646 H   0  0  0  0  0  0  0  0  0  0  0  0
   -1.8938    2.1613   -1.4538 H   0  0  0  0  0  0  0  0  0  0  0  0
    0.0154    0.7911   -2.1346 H   0  0  0  0  0  0  0  0  0  0  0  0
   -0.5662   -0.5887   -1.2299 H   0  0  0  0  0  0  0  0  0  0  0  0
   -0.2723    0.7047    0.9278 H   0  0  0  0  0  0  0  0  0  0  0  0
    0.2208    2.1116    0.0152 H   0  0  0  0  0  0  0  0  0  0  0  0
    2.4472    2.3049   -0.9148 H   0  0  0  0  0  0  0  0  0  0  0  0
    4.7852    1.5029   -0.9185 H   0  0  0  0  0  0  0  0  0  0  0  0
    3.5512   -2.1793    0.9157 H   0  0  0  0  0  0  0  0  0  0  0  0
    5.6768   -1.6613    0.3592 H   0  0  0  0  0  0  0  0  0  0  0  0
    1.3697   -2.3732    1.3293 H   0  0  0  0  0  0  0  0  0  0  0  0
   -4.7170    0.2454    0.0459 H   0  0  0  0  0  0  0  0  0  0  0  0
    4.5108    1.2364    0.1897 H   0  0  0  0  0  0  0  0  0  0  0  0
   -4.3058   -2.1624   -0.4239 H   0  0  0  0  0  0  0  0  0  0  0  0
    4.6286   -1.2073   -0.2446 H   0  0  0  0  0  0  0  0  0  0  0  0
   -2.8083    1.7643    0.3982 H   0  0  0  0  0  0  0  0  0  0  0  0
    2.3370    2.3288    0.4429 H   0  0  0  0  0  0  0  0  0  0  0  0
   -1.9873   -3.0117   -0.5423 H   0  0  0  0  0  0  0  0  0  0  0  0
    2.5457   -2.5215   -0.4328 H   0  0  0  0  0  0  0  0  0  0  0  0
    0.4207    2.9254    0.9344 H   0  0  0  0  0  0  0  0  0  0  0  0
   -0.4776    2.8877   -0.4669 H   0  0  0  0  0  0  0  0  0  0  0  0
  2  1  1  0
  3  2  1  0
  4  3  1  0
  5  4  1  0
  6  5  1  0
  8  7  2  0
 10  6  1  0
 10  7  1  0
 11  8  1  0
 11  9  2  0
 12  9  1  0
 12 10  2  0
 13 11  1  0
 14 12  1  0
 17 15  2  0
 18 16  1  0
 19 15  1  0
 20 16  2  0
 21 17  1  0
 22 18  2  0
 23 19  2  0
 24 20  1  0
 25 21  2  0
 25 23  1  0
 26 22  1  0
 26 24  1  0
 27 23  1  0
 27 24  2  0
 28 27  1  0
 29 25  1  0
 29 26  2  0
  1 30  1  0
  1 31  1  0
  1 32  1  0
  2 33  1  0
  2 34  1  0
  3 35  1  0
  3 36  1  0
  4 37  1  0
  4 38  1  0
  5 39  1  0
  5 40  1  0
  6 41  1  0
  6 42  1  0
  7 43  1  0
  8 44  1  0
  9 45  1  0
 13 46  1  0
 14 47  1  0
 15 48  1  0
 16 49  1  0
 17 50  1  0
 18 51  1  0
 19 52  1  0
 20 53  1  0
 21 54  1  0
 22 55  1  0
 28 56  1  0
 28 57  1  0
M  END
$$$$
