
     RDKit          3D

 57 59  0  0  0  0  0  0  0  0999 V2000
    4.9746    0.2252   -0.0464 C   0  0  0  0  0  0  0  0  0  0  0  0
    4.0301   -0.5176    0.8866 C   0  0  0  0  0  0  0  0  0  0  0  0
    2.5935   -0.5978    0.3637 C   0  0  0  0  0  0  0  0  0  0  0  0
    1.8806    0.7571    0.3483 C   0  0  0  0  0  0  0  0  0  0  0  0
    0.4521    0.6805   -0.2011 C   0  0  0  0  0  0  0  0  0  0  0  0
   -0.5076   -0.0936    0.7075 C   0  0  0  0  0  0  0  0  0  0  0  0
   -2.8234    0.9074    0.6742 C   0  0  0  0  0  0  0  0  0  0  0  0
   -4.1332    0.9692    0.1926 C   0  0  0  0  0  0  0  0  0  0  0  0
   -3.6713   -0.8867   -1.2902 C   0  0  0  0  0  0  0  0  0  0  0  0
   -1.9245   -0.0535    0.1844 C   0  0  0  0  0  0  0  0  0  0  0  0
   -4.5444    0.0698   -0.7854 C   0  0  0  0  0  0  0  0  0  0  0  0
   -2.3661   -0.9415   -0.8044 C   0  0  0  0  0  0  0  0  0  0  0  0
   -5.8153    0.0933   -1.2814 O   0  0  0  0  0  0  0  0  0  0  0  0
   -1.4919   -1.8721   -1.2936 O   0  0  0  0  0  0  0  0  0  0  0  0
    3.6503   -0.1719   -0.1928 C   0  0  0  0  0  0  0  0  0  0  0  0
   -3.6457    0.6587   -0.0156 C   0  0  0  0  0  0  0  0  0  0  0  0
    3.4362   -1.4298    0.3482 C   0  0  0  0  0  0  0  0  0  0  0  0
   -3.6962   -0.6107    0.5412 C   0  0  0  0  0  0  0  0  0  0  0  0
    2.5575    0.6420   -0.4909 C   0  0  0  0  0  0  0  0  0  0  0  0
   -2.4123    1.1979   -0.3767 C   0  0  0  0  0  0  0  0  0  0  0  0
    2.1314   -1.8600    0.5936 C   0  0  0  0  0  0  0  0  0  0  0  0
   -2.5131   -1.3286    0.7315 C   0  0  0  0  0  0  0  0  0  0  0  0
    1.2270    0.2092   -0.2541 C   0  0  0  0  0  0  0  0  0  0  0  0
   -1.2103    0.4764   -0.1824 C   0  0  0  0  0  0  0  0  0  0  0  0
    1.0273   -1.0668    0.3101 C   0  0  0  0  0  0  0  0  0  0  0  0
   -1.2726   -0.8098    0.3820 C   0  0  0  0  0  0  0  0  0  0  0  0
    0.0660    0.9730   -0.5462 C   0  0  0  0  0  0  0  0  0  0  0  0
    0.1679    2.3217   -1.0000 N   0  0  0  0  0  0  0  0  0  0  0  0
   -0.1837   -1.5582    0.6065 N   0  0  0  0  0  0  0  0  0  0  0  0
    5.9991    0.1690    0.3357 H   0  0  0  0  0  0  0  0  0  0  0  0
    4.7102    1.2836   -0.1284 H   0  0  0  0  0  0  0  0  0  0  0  0
    4.9631   -0.2150   -1.0489 H   0  0  0  0  0  0  0  0  0  0  0  0
    4.0431   -0.0437    1.8750 H   0  0  0  0  0  0  0  0  0  0  0  0
    4.4082   -1.5383    1.0187 H   0  0  0  0  0  0  0  0  0  0  0  0
    2.0439   -1.2929    1.0080 H   0  0  0  0  0  0  0  0  0  0  0  0
    2.5924   -1.0291   -0.6442 H   0  0  0  0  0  0  0  0  0  0  0  0
    2.4403    1.4591   -0.2797 H   0  0  0  0  0  0  0  0  0  0  0  0
    1.8648    1.1798    1.3598 H   0  0  0  0  0  0  0  0  0  0  0  0
    0.0804    1.7058   -0.3297 H   0  0  0  0  0  0  0  0  0  0  0  0
    0.4699    0.2325   -1.2030 H   0  0  0  0  0  0  0  0  0  0  0  0
   -0.4812    0.3263    1.7210 H   0  0  0  0  0  0  0  0  0  0  0  0
   -0.1946   -1.1382    0.8115 H   0  0  0  0  0  0  0  0  0  0  0  0
   -2.5037    1.6155    1.4356 H   0  0  0  0  0  0  0  0  0  0  0  0
   -4.8085    1.7208    0.5882 H   0  0  0  0  0  0  0  0  0  0  0  0
   -4.0216   -1.5721   -2.0546 H   0  0  0  0  0  0  0  0  0  0  0  0
   -6.3108    0.7952   -0.8279 H   0  0  0  0  0  0  0  0  0  0  0  0
   -1.9481   -2.3980   -1.9709 H   0  0  0  0  0  0  0  0  0  0  0  0
    4.6618    0.1768   -0.3845 H   0  0  0  0  0  0  0  0  0  0  0  0
   -4.5581    1.2266   -0.1756 H   0  0  0  0  0  0  0  0  0  0  0  0
    4.2754   -2.0781    0.5852 H   0  0  0  0  0  0  0  0  0  0  0  0
   -4.6488   -1.0486    0.8262 H   0  0  0  0  0  0  0  0  0  0  0  0
    2.7599    1.6219   -0.9121 H   0  0  0  0  0  0  0  0  0  0  0  0
   -2.3845    2.1877   -0.8279 H   0  0  0  0  0  0  0  0  0  0  0  0
    1.9697   -2.8452    1.0262 H   0  0  0  0  0  0  0  0  0  0  0  0
   -2.5592   -2.3239    1.1680 H   0  0  0  0  0  0  0  0  0  0  0  0
    0.1565    2.9534   -0.2004 H   0  0  0  0  0  0  0  0  0  0  0  0
    0.9976    2.4862   -1.5596 H   0  0  0  0  0  0  0  0  0  0  0  0
  2  1  1  0
  3  2  1  0
  4  3  1  0
  5  4  1  0
  6  5  1  0
  8  7  2  0
 10  6  1  0
 10  7  1  0
 11  8  1  0
 11  9  2  0
 12  9  1  0
 12 10  2  0
 13 11  1  0
 14 12  1  0
 17 15  2  0
 18 16  1  0
 19 15  1  0
 20 16  2  0
 21 17  1  0
 22 18  2  0
 23 19  2  0
 24 20  1  0
 25 21  2  0
 25 23  1  0
 26 22  1  0
 26 24  1  0
 27 23  1  0
 27 24  2  0
 28 27  1  0
 29 25  1  0
 29 26  2  0
  1 30  1  0
  1 31  1  0
  1 32  1  0
  2 33  1  0
  2 34  1  0
  3 35  1  0
  3 36  1  0
  4 37  1  0
  4 38  1  0
  5 39  1  0
  5 40  1  0
  6 41  1  0
  6 42  1  0
  7 43  1  0
  8 44  1  0
  9 45  1  0
 13 46  1  0
 14 47  1  0
 15 48  1  0
 16 49  1  0
 17 50  1  0
 18 51  1  0
 19 52  1  0
 20 53  1  0
 21 54  1  0
 22 55  1  0
 28 56  1  0
 28 57  1  0
M  END
$$$$
