
     RDKit          3D

 57 59  0  0  0  0  0  0  0  0999 V2000
    4.9378    1.1380   -0.1691 C   0  0  0  0  0  0  0  0  0  0  0  0
    4.1341   -0.1475   -0.0538 C   0  0  0  0  0  0  0  0  0  0  0  0
    2.6343    0.1145   -0.1981 C   0  0  0  0  0  0  0  0  0  0  0  0
    1.8317   -1.1827   -0.0775 C   0  0  0  0  0  0  0  0  0  0  0  0
    0.3327   -0.9948   -0.3286 C   0  0  0  0  0  0  0  0  0  0  0  0
   -0.3580   -0.1398    0.7377 C   0  0  0  0  0  0  0  0  0  0  0  0
   -2.6928   -0.9718    1.1975 C   0  0  0  0  0  0  0  0  0  0  0  0
   -4.0735   -0.9375    0.9969 C   0  0  0  0  0  0  0  0  0  0  0  0
   -3.8070    0.8829   -0.5746 C   0  0  0  0  0  0  0  0  0  0  0  0
   -1.8517   -0.0763    0.5196 C   0  0  0  0  0  0  0  0  0  0  0  0
   -4.6188   -0.0122    0.1155 C   0  0  0  0  0  0  0  0  0  0  0  0
   -2.4270    0.8419   -0.3685 C   0  0  0  0  0  0  0  0  0  0  0  0
   -5.9734   -0.0174   -0.0473 O   0  0  0  0  0  0  0  0  0  0  0  0
   -1.6069    1.7065   -1.0395 O   0  0  0  0  0  0  0  0  0  0  0  0
    3.7038    0.0767    0.0821 C   0  0  0  0  0  0  0  0  0  0  0  0
   -3.6326    0.4405    0.0870 C   0  0  0  0  0  0  0  0  0  0  0  0
    3.5562   -1.2821   -0.1542 C   0  0  0  0  0  0  0  0  0  0  0  0
   -3.6170   -0.9284   -0.1289 C   0  0  0  0  0  0  0  0  0  0  0  0
    2.5689    0.8698    0.2418 C   0  0  0  0  0  0  0  0  0  0  0  0
   -2.4268    1.1255    0.2367 C   0  0  0  0  0  0  0  0  0  0  0  0
    2.2755   -1.8348   -0.2283 C   0  0  0  0  0  0  0  0  0  0  0  0
   -2.3955   -1.5995   -0.2006 C   0  0  0  0  0  0  0  0  0  0  0  0
    1.2689    0.3155    0.1640 C   0  0  0  0  0  0  0  0  0  0  0  0
   -1.1803    0.4500    0.1753 C   0  0  0  0  0  0  0  0  0  0  0  0
    1.1303   -1.0631   -0.0748 C   0  0  0  0  0  0  0  0  0  0  0  0
   -1.1817   -0.9399   -0.0591 C   0  0  0  0  0  0  0  0  0  0  0  0
    0.0849    1.0750    0.3346 C   0  0  0  0  0  0  0  0  0  0  0  0
    0.1956    2.4927    0.4480 N   0  0  0  0  0  0  0  0  0  0  0  0
   -0.0619   -1.6678   -0.1697 N   0  0  0  0  0  0  0  0  0  0  0  0
    6.0067    0.9274   -0.0637 H   0  0  0  0  0  0  0  0  0  0  0  0
    4.6532    1.8501    0.6121 H   0  0  0  0  0  0  0  0  0  0  0  0
    4.7796    1.6136   -1.1423 H   0  0  0  0  0  0  0  0  0  0  0  0
    4.3387   -0.6140    0.9169 H   0  0  0  0  0  0  0  0  0  0  0  0
    4.4663   -0.8492   -0.8278 H   0  0  0  0  0  0  0  0  0  0  0  0
    2.3196    0.8250    0.5743 H   0  0  0  0  0  0  0  0  0  0  0  0
    2.4353    0.5814   -1.1703 H   0  0  0  0  0  0  0  0  0  0  0  0
    2.2116   -1.9077   -0.8081 H   0  0  0  0  0  0  0  0  0  0  0  0
    1.9864   -1.6243    0.9145 H   0  0  0  0  0  0  0  0  0  0  0  0
   -0.1352   -1.9876   -0.3553 H   0  0  0  0  0  0  0  0  0  0  0  0
    0.1805   -0.5568   -1.3230 H   0  0  0  0  0  0  0  0  0  0  0  0
    0.0473    0.8784    0.7495 H   0  0  0  0  0  0  0  0  0  0  0  0
   -0.1534   -0.5514    1.7344 H   0  0  0  0  0  0  0  0  0  0  0  0
   -2.2757   -1.7033    1.8858 H   0  0  0  0  0  0  0  0  0  0  0  0
   -4.7200   -1.6319    1.5259 H   0  0  0  0  0  0  0  0  0  0  0  0
   -4.2403    1.5991   -1.2625 H   0  0  0  0  0  0  0  0  0  0  0  0
   -6.2165    0.6742   -0.6835 H   0  0  0  0  0  0  0  0  0  0  0  0
   -2.1455    2.2734   -1.6141 H   0  0  0  0  0  0  0  0  0  0  0  0
    4.6937    0.5197    0.1486 H   0  0  0  0  0  0  0  0  0  0  0  0
   -4.5771    0.9758    0.1406 H   0  0  0  0  0  0  0  0  0  0  0  0
    4.4296   -1.9164   -0.2787 H   0  0  0  0  0  0  0  0  0  0  0  0
   -4.5468   -1.4785   -0.2464 H   0  0  0  0  0  0  0  0  0  0  0  0
    2.6952    1.9316    0.4431 H   0  0  0  0  0  0  0  0  0  0  0  0
   -2.4742    2.1972    0.4029 H   0  0  0  0  0  0  0  0  0  0  0  0
    2.1661   -2.9011   -0.4133 H   0  0  0  0  0  0  0  0  0  0  0  0
   -2.3889   -2.6729   -0.3785 H   0  0  0  0  0  0  0  0  0  0  0  0
    0.3172    2.9011   -0.4776 H   0  0  0  0  0  0  0  0  0  0  0  0
   -0.6034    2.9134    0.9096 H   0  0  0  0  0  0  0  0  0  0  0  0
  2  1  1  0
  3  2  1  0
  4  3  1  0
  5  4  1  0
  6  5  1  0
  8  7  2  0
 10  6  1  0
 10  7  1  0
 11  8  1  0
 11  9  2  0
 12  9  1  0
 12 10  2  0
 13 11  1  0
 14 12  1  0
 17 15  2  0
 18 16  1  0
 19 15  1  0
 20 16  2  0
 21 17  1  0
 22 18  2  0
 23 19  2  0
 24 20  1  0
 25 21  2  0
 25 23  1  0
 26 22  1  0
 26 24  1  0
 27 23  1  0
 27 24  2  0
 28 27  1  0
 29 25  1  0
 29 26  2  0
  1 30  1  0
  1 31  1  0
  1 32  1  0
  2 33  1  0
  2 34  1  0
  3 35  1  0
  3 36  1  0
  4 37  1  0
  4 38  1  0
  5 39  1  0
  5 40  1  0
  6 41  1  0
  6 42  1  0
  7 43  1  0
  8 44  1  0
  9 45  1  0
 13 46  1  0
 14 47  1  0
 15 48  1  0
 16 49  1  0
 17 50  1  0
 18 51  1  0
 19 52  1  0
 20 53  1  0
 21 54  1  0
 22 55  1  0
 28 56  1  0
 28 57  1  0
M  END
$$$$
