
     RDKit          3D

 57 59  0  0  0  0  0  0  0  0999 V2000
   -4.1019   -0.1176   -1.4986 C   0  0  0  0  0  0  0  0  0  0  0  0
   -3.0351   -1.0594   -0.9622 C   0  0  0  0  0  0  0  0  0  0  0  0
   -2.2842   -0.5085    0.2531 C   0  0  0  0  0  0  0  0  0  0  0  0
   -1.4332    0.7224   -0.0700 C   0  0  0  0  0  0  0  0  0  0  0  0
   -0.6603    1.2631    1.1400 C   0  0  0  0  0  0  0  0  0  0  0  0
    0.4164    0.3306    1.7095 C   0  0  0  0  0  0  0  0  0  0  0  0
    1.6034   -1.2027    0.0945 C   0  0  0  0  0  0  0  0  0  0  0  0
    2.6340   -1.4891   -0.8040 C   0  0  0  0  0  0  0  0  0  0  0  0
    3.5818    0.7009   -0.4078 C   0  0  0  0  0  0  0  0  0  0  0  0
    1.5468    0.0373    0.7513 C   0  0  0  0  0  0  0  0  0  0  0  0
    3.6138   -0.5327   -1.0466 C   0  0  0  0  0  0  0  0  0  0  0  0
    2.5496    0.9788    0.4872 C   0  0  0  0  0  0  0  0  0  0  0  0
    4.6377   -0.7704   -1.9162 O   0  0  0  0  0  0  0  0  0  0  0  0
    2.5078    2.1857    1.1281 O   0  0  0  0  0  0  0  0  0  0  0  0
    3.6465   -0.2687    0.1990 C   0  0  0  0  0  0  0  0  0  0  0  0
   -3.6907   -0.2574   -0.1482 C   0  0  0  0  0  0  0  0  0  0  0  0
    3.5610    1.1120    0.2838 C   0  0  0  0  0  0  0  0  0  0  0  0
   -3.6140    1.1230   -0.0351 C   0  0  0  0  0  0  0  0  0  0  0  0
    2.4801   -1.0214    0.0626 C   0  0  0  0  0  0  0  0  0  0  0  0
   -2.5161   -1.0066   -0.1831 C   0  0  0  0  0  0  0  0  0  0  0  0
    2.3093    1.7277    0.2388 C   0  0  0  0  0  0  0  0  0  0  0  0
   -2.3635    1.7408    0.0418 C   0  0  0  0  0  0  0  0  0  0  0  0
    1.2038   -0.4036    0.0059 C   0  0  0  0  0  0  0  0  0  0  0  0
   -1.2467   -0.3859   -0.1017 C   0  0  0  0  0  0  0  0  0  0  0  0
    1.1335    1.0005    0.1078 C   0  0  0  0  0  0  0  0  0  0  0  0
   -1.1798    1.0139    0.0117 C   0  0  0  0  0  0  0  0  0  0  0  0
   -0.0238   -1.1004   -0.1484 C   0  0  0  0  0  0  0  0  0  0  0  0
   -0.0671   -2.5262   -0.1320 N   0  0  0  0  0  0  0  0  0  0  0  0
   -0.0209    1.6811    0.1005 N   0  0  0  0  0  0  0  0  0  0  0  0
   -4.6693   -0.6088   -2.2957 H   0  0  0  0  0  0  0  0  0  0  0  0
   -3.6614    0.7909   -1.9193 H   0  0  0  0  0  0  0  0  0  0  0  0
   -4.8050    0.1701   -0.7106 H   0  0  0  0  0  0  0  0  0  0  0  0
   -3.5177   -2.0008   -0.6730 H   0  0  0  0  0  0  0  0  0  0  0  0
   -2.3250   -1.3006   -1.7617 H   0  0  0  0  0  0  0  0  0  0  0  0
   -1.6453   -1.3105    0.6379 H   0  0  0  0  0  0  0  0  0  0  0  0
   -2.9996   -0.2652    1.0479 H   0  0  0  0  0  0  0  0  0  0  0  0
   -2.0851    1.5281   -0.4274 H   0  0  0  0  0  0  0  0  0  0  0  0
   -0.7429    0.4965   -0.8904 H   0  0  0  0  0  0  0  0  0  0  0  0
   -1.3753    1.4949    1.9396 H   0  0  0  0  0  0  0  0  0  0  0  0
   -0.2033    2.2181    0.8528 H   0  0  0  0  0  0  0  0  0  0  0  0
   -0.0357   -0.6066    2.0549 H   0  0  0  0  0  0  0  0  0  0  0  0
    0.8387    0.7865    2.6147 H   0  0  0  0  0  0  0  0  0  0  0  0
    0.8385   -1.9538    0.2787 H   0  0  0  0  0  0  0  0  0  0  0  0
    2.6525   -2.4548   -1.2990 H   0  0  0  0  0  0  0  0  0  0  0  0
    4.3615    1.4252   -0.6169 H   0  0  0  0  0  0  0  0  0  0  0  0
    4.5303   -1.6636   -2.2828 H   0  0  0  0  0  0  0  0  0  0  0  0
    3.2675    2.7160    0.8368 H   0  0  0  0  0  0  0  0  0  0  0  0
    4.6149   -0.7608    0.2372 H   0  0  0  0  0  0  0  0  0  0  0  0
   -4.6561   -0.7514   -0.2155 H   0  0  0  0  0  0  0  0  0  0  0  0
    4.4592    1.7145    0.3890 H   0  0  0  0  0  0  0  0  0  0  0  0
   -4.5191    1.7236   -0.0091 H   0  0  0  0  0  0  0  0  0  0  0  0
    2.5820   -2.1004    0.0006 H   0  0  0  0  0  0  0  0  0  0  0  0
   -2.5862   -2.0873   -0.2885 H   0  0  0  0  0  0  0  0  0  0  0  0
    2.2474    2.8114    0.3141 H   0  0  0  0  0  0  0  0  0  0  0  0
   -2.3096    2.8236    0.1298 H   0  0  0  0  0  0  0  0  0  0  0  0
    0.7705   -2.9491   -0.5168 H   0  0  0  0  0  0  0  0  0  0  0  0
   -0.2147   -2.8527    0.8219 H   0  0  0  0  0  0  0  0  0  0  0  0
  2  1  1  0
  3  2  1  0
  4  3  1  0
  5  4  1  0
  6  5  1  0
  8  7  2  0
 10  6  1  0
 10  7  1  0
 11  8  1  0
 11  9  2  0
 12  9  1  0
 12 10  2  0
 13 11  1  0
 14 12  1  0
 17 15  2  0
 18 16  1  0
 19 15  1  0
 20 16  2  0
 21 17  1  0
 22 18  2  0
 23 19  2  0
 24 20  1  0
 25 21  2  0
 25 23  1  0
 26 22  1  0
 26 24  1  0
 27 23  1  0
 27 24  2  0
 28 27  1  0
 29 25  1  0
 29 26  2  0
  1 30  1  0
  1 31  1  0
  1 32  1  0
  2 33  1  0
  2 34  1  0
  3 35  1  0
  3 36  1  0
  4 37  1  0
  4 38  1  0
  5 39  1  0
  5 40  1  0
  6 41  1  0
  6 42  1  0
  7 43  1  0
  8 44  1  0
  9 45  1  0
 13 46  1  0
 14 47  1  0
 15 48  1  0
 16 49  1  0
 17 50  1  0
 18 51  1  0
 19 52  1  0
 20 53  1  0
 21 54  1  0
 22 55  1  0
 28 56  1  0
 28 57  1  0
M  END
$$$$
