
     RDKit          3D

 52 55  0  0  0  0  0  0  0  0999 V2000
   44.4045    4.7266   12.2469 C   0  0  0  0  0  0  0  0  0  0  0  0
   45.0916    5.4113   11.2188 N   0  0  0  0  0  0  0  0  0  0  0  0
   44.0727    3.4636   11.7353 N   0  0  0  0  0  0  0  0  0  0  0  0
   45.1563    4.5712   10.0935 C   0  0  0  0  0  0  0  0  0  0  0  0
   44.5268    3.3709   10.4267 C   0  0  0  0  0  0  0  0  0  0  0  0
   45.6070    6.7682   11.2970 C   0  0  0  0  0  0  0  0  0  0  0  0
   46.3024    9.3841   11.9124 N   0  0  0  0  0  0  0  0  0  0  0  0
   44.1304    5.1248   13.3667 O   0  0  0  0  0  0  0  0  0  0  0  0
   46.6333    6.9335   12.4190 C   0  0  0  0  0  0  0  0  0  0  0  0
   44.4795    7.8044   11.4388 C   0  0  0  0  0  0  0  0  0  0  0  0
   48.6112   12.8168   13.8043 C   0  0  0  0  0  0  0  0  0  0  0  0
   48.7844   14.1961   14.3575 C   0  0  0  0  0  0  0  0  0  0  0  0
   48.7353   11.8530   14.5568 O   0  0  0  0  0  0  0  0  0  0  0  0
   44.9135    9.0402   12.2322 C   0  0  0  0  0  0  0  0  0  0  0  0
   47.2311    8.3462   12.4023 C   0  0  0  0  0  0  0  0  0  0  0  0
   48.7738   15.3383   13.5438 C   0  0  0  0  0  0  0  0  0  0  0  0
   48.9681   14.3402   15.7427 C   0  0  0  0  0  0  0  0  0  0  0  0
   49.1178   16.7276   15.4863 C   0  0  0  0  0  0  0  0  0  0  0  0
   49.1340   15.6071   16.3067 C   0  0  0  0  0  0  0  0  0  0  0  0
   48.9402   16.6049   14.1127 C   0  0  0  0  0  0  0  0  0  0  0  0
   49.2768   17.9433   16.0242 F   0  0  0  0  0  0  0  0  0  0  0  0
   46.6497   10.7171   12.4344 C   0  0  0  0  0  0  0  0  0  0  0  0
   45.7009    4.7648    8.8417 C   0  0  0  0  0  0  0  0  0  0  0  0
   44.4115    2.3195    9.5459 C   0  0  0  0  0  0  0  0  0  0  0  0
   48.0107   11.2102   11.9181 C   0  0  0  0  0  0  0  0  0  0  0  0
   48.2965   12.6586   12.3252 C   0  0  0  0  0  0  0  0  0  0  0  0
   45.5978    3.7101    7.9254 C   0  0  0  0  0  0  0  0  0  0  0  0
   44.9605    2.5007    8.2737 C   0  0  0  0  0  0  0  0  0  0  0  0
   43.5721    2.7657   12.2593 H   0  0  0  0  0  0  0  0  0  0  0  0
   46.1309    6.9827   10.3575 H   0  0  0  0  0  0  0  0  0  0  0  0
   46.1626    6.7541   13.3936 H   0  0  0  0  0  0  0  0  0  0  0  0
   47.4357    6.1923   12.3209 H   0  0  0  0  0  0  0  0  0  0  0  0
   44.1555    8.1019   10.4328 H   0  0  0  0  0  0  0  0  0  0  0  0
   43.5932    7.3779   11.9234 H   0  0  0  0  0  0  0  0  0  0  0  0
   44.7911    8.8676   13.3098 H   0  0  0  0  0  0  0  0  0  0  0  0
   44.2360    9.8608   11.9654 H   0  0  0  0  0  0  0  0  0  0  0  0
   48.1109    8.3422   11.7478 H   0  0  0  0  0  0  0  0  0  0  0  0
   47.5860    8.5690   13.4169 H   0  0  0  0  0  0  0  0  0  0  0  0
   48.6434   15.2733   12.4676 H   0  0  0  0  0  0  0  0  0  0  0  0
   48.9826   13.4642   16.3896 H   0  0  0  0  0  0  0  0  0  0  0  0
   49.2756   15.7231   17.3767 H   0  0  0  0  0  0  0  0  0  0  0  0
   48.9343   17.4970   13.4933 H   0  0  0  0  0  0  0  0  0  0  0  0
   46.6208   10.7201   13.5306 H   0  0  0  0  0  0  0  0  0  0  0  0
   45.8911   11.4350   12.0966 H   0  0  0  0  0  0  0  0  0  0  0  0
   46.1919    5.6876    8.5593 H   0  0  0  0  0  0  0  0  0  0  0  0
   43.9194    1.3942    9.8191 H   0  0  0  0  0  0  0  0  0  0  0  0
   48.0162   11.1553   10.8219 H   0  0  0  0  0  0  0  0  0  0  0  0
   48.8197   10.5623   12.2753 H   0  0  0  0  0  0  0  0  0  0  0  0
   49.1712   13.0057   11.7629 H   0  0  0  0  0  0  0  0  0  0  0  0
   47.4364   13.2856   12.0668 H   0  0  0  0  0  0  0  0  0  0  0  0
   46.0157    3.8245    6.9270 H   0  0  0  0  0  0  0  0  0  0  0  0
   44.8961    1.7000    7.5397 H   0  0  0  0  0  0  0  0  0  0  0  0
  2  1  1  0
  3  1  1  0
  4  2  1  0
  5  3  1  0
  6  2  1  0
  7 14  1  0
  8  1  2  0
  9  6  1  0
 10  6  1  0
 11 26  1  0
 12 11  1  0
 13 11  2  0
 14 10  1  0
 15  9  1  0
 16 12  2  0
 17 12  1  0
 18 19  1  0
 19 17  2  0
 20 16  1  0
 21 18  1  0
 22  7  1  0
 23  4  2  0
 24  5  2  0
 25 22  1  0
 26 25  1  0
 27 23  1  0
 28 24  1  0
  5  4  1  0
 28 27  2  0
 15  7  1  0
 20 18  2  0
  3 29  1  0
  6 30  1  0
  9 31  1  0
  9 32  1  0
 10 33  1  0
 10 34  1  0
 14 35  1  0
 14 36  1  0
 15 37  1  0
 15 38  1  0
 16 39  1  0
 17 40  1  0
 19 41  1  0
 20 42  1  0
 22 43  1  0
 22 44  1  0
 23 45  1  0
 24 46  1  0
 25 47  1  0
 25 48  1  0
 26 49  1  0
 26 50  1  0
 27 51  1  0
 28 52  1  0
M  END
> <Uni-Dock RESULT> 
ENERGY=   -4.875  LOWER_BOUND=    0.000  UPPER_BOUND=    0.000
INTER + INTRA:          -4.875
INTER:                  -4.875
INTRA:                   0.000
UNBOUND:                 0.000

$$$$

     RDKit          3D

 52 55  0  0  0  0  0  0  0  0999 V2000
   44.3795    4.7688   12.2535 C   0  0  0  0  0  0  0  0  0  0  0  0
   45.0773    5.4448   11.2269 N   0  0  0  0  0  0  0  0  0  0  0  0
   44.0460    3.5044   11.7463 N   0  0  0  0  0  0  0  0  0  0  0  0
   45.1468    4.5982   10.1066 C   0  0  0  0  0  0  0  0  0  0  0  0
   44.5096    3.4025   10.4417 C   0  0  0  0  0  0  0  0  0  0  0  0
   45.5981    6.7998   11.3015 C   0  0  0  0  0  0  0  0  0  0  0  0
   46.3004    9.4160   11.9077 N   0  0  0  0  0  0  0  0  0  0  0  0
   44.0988    5.1744   13.3690 O   0  0  0  0  0  0  0  0  0  0  0  0
   46.6166    6.9668   12.4302 C   0  0  0  0  0  0  0  0  0  0  0  0
   44.4741    7.8417   11.4291 C   0  0  0  0  0  0  0  0  0  0  0  0
   48.6100   12.8491   13.7982 C   0  0  0  0  0  0  0  0  0  0  0  0
   48.7851   14.2305   14.3450 C   0  0  0  0  0  0  0  0  0  0  0  0
   48.7242   11.8889   14.5568 O   0  0  0  0  0  0  0  0  0  0  0  0
   44.9076    9.0799   12.2190 C   0  0  0  0  0  0  0  0  0  0  0  0
   47.2208    8.3768   12.4103 C   0  0  0  0  0  0  0  0  0  0  0  0
   48.7857   15.3683   13.5250 C   0  0  0  0  0  0  0  0  0  0  0  0
   48.9590   14.3815   15.7307 C   0  0  0  0  0  0  0  0  0  0  0  0
   49.1212   16.7667   15.4625 C   0  0  0  0  0  0  0  0  0  0  0  0
   49.1262   15.6507   16.2890 C   0  0  0  0  0  0  0  0  0  0  0  0
   48.9534   16.6373   14.0883 C   0  0  0  0  0  0  0  0  0  0  0  0
   49.2815   17.9847   15.9949 F   0  0  0  0  0  0  0  0  0  0  0  0
   46.6496   10.7503   12.4251 C   0  0  0  0  0  0  0  0  0  0  0  0
   45.7017    4.7825    8.8580 C   0  0  0  0  0  0  0  0  0  0  0  0
   44.3963    2.3468    9.5659 C   0  0  0  0  0  0  0  0  0  0  0  0
   48.0166   11.2347   11.9163 C   0  0  0  0  0  0  0  0  0  0  0  0
   48.3058   12.6840   12.3176 C   0  0  0  0  0  0  0  0  0  0  0  0
   45.6008    3.7233    7.9467 C   0  0  0  0  0  0  0  0  0  0  0  0
   44.9556    2.5186    8.2969 C   0  0  0  0  0  0  0  0  0  0  0  0
   43.5385    2.8116   12.2704 H   0  0  0  0  0  0  0  0  0  0  0  0
   46.1300    7.0068   10.3647 H   0  0  0  0  0  0  0  0  0  0  0  0
   46.1379    6.7949   13.4022 H   0  0  0  0  0  0  0  0  0  0  0  0
   47.4165    6.2216   12.3423 H   0  0  0  0  0  0  0  0  0  0  0  0
   44.1590    8.1351   10.4191 H   0  0  0  0  0  0  0  0  0  0  0  0
   43.5824    7.4218   11.9093 H   0  0  0  0  0  0  0  0  0  0  0  0
   44.7764    8.9138   13.2965 H   0  0  0  0  0  0  0  0  0  0  0  0
   44.2358    9.9020   11.9426 H   0  0  0  0  0  0  0  0  0  0  0  0
   48.1054    8.3654   11.7625 H   0  0  0  0  0  0  0  0  0  0  0  0
   47.5691    8.6036   13.4263 H   0  0  0  0  0  0  0  0  0  0  0  0
   48.6630   15.2980   12.4483 H   0  0  0  0  0  0  0  0  0  0  0  0
   48.9648   13.5091   16.3826 H   0  0  0  0  0  0  0  0  0  0  0  0
   49.2603   15.7720   17.3594 H   0  0  0  0  0  0  0  0  0  0  0  0
   48.9561   17.5259   13.4640 H   0  0  0  0  0  0  0  0  0  0  0  0
   46.6126   10.7596   13.5210 H   0  0  0  0  0  0  0  0  0  0  0  0
   45.8967   11.4697   12.0775 H   0  0  0  0  0  0  0  0  0  0  0  0
   46.1988    5.7016    8.5742 H   0  0  0  0  0  0  0  0  0  0  0  0
   43.8981    1.4252    9.8404 H   0  0  0  0  0  0  0  0  0  0  0  0
   48.0301   11.1737   10.8205 H   0  0  0  0  0  0  0  0  0  0  0  0
   48.8200   10.5853   12.2832 H   0  0  0  0  0  0  0  0  0  0  0  0
   49.1861   13.0242   11.7600 H   0  0  0  0  0  0  0  0  0  0  0  0
   47.4503   13.3134   12.0493 H   0  0  0  0  0  0  0  0  0  0  0  0
   46.0267    3.8303    6.9509 H   0  0  0  0  0  0  0  0  0  0  0  0
   44.8931    1.7142    7.5668 H   0  0  0  0  0  0  0  0  0  0  0  0
  2  1  1  0
  3  1  1  0
  4  2  1  0
  5  3  1  0
  6  2  1  0
  7 14  1  0
  8  1  2  0
  9  6  1  0
 10  6  1  0
 11 26  1  0
 12 11  1  0
 13 11  2  0
 14 10  1  0
 15  9  1  0
 16 12  2  0
 17 12  1  0
 18 19  1  0
 19 17  2  0
 20 16  1  0
 21 18  1  0
 22  7  1  0
 23  4  2  0
 24  5  2  0
 25 22  1  0
 26 25  1  0
 27 23  1  0
 28 24  1  0
  5  4  1  0
 28 27  2  0
 15  7  1  0
 20 18  2  0
  3 29  1  0
  6 30  1  0
  9 31  1  0
  9 32  1  0
 10 33  1  0
 10 34  1  0
 14 35  1  0
 14 36  1  0
 15 37  1  0
 15 38  1  0
 16 39  1  0
 17 40  1  0
 19 41  1  0
 20 42  1  0
 22 43  1  0
 22 44  1  0
 23 45  1  0
 24 46  1  0
 25 47  1  0
 25 48  1  0
 26 49  1  0
 26 50  1  0
 27 51  1  0
 28 52  1  0
M  END
> <Uni-Dock RESULT> 
ENERGY=   -4.875  LOWER_BOUND=    0.039  UPPER_BOUND=    0.039
INTER + INTRA:          -4.875
INTER:                  -4.875
INTRA:                   0.000
UNBOUND:                 0.000

$$$$

     RDKit          3D

 52 55  0  0  0  0  0  0  0  0999 V2000
   48.1756    7.9503   18.3807 C   0  0  0  0  0  0  0  0  0  0  0  0
   48.4598    9.1444   17.6797 N   0  0  0  0  0  0  0  0  0  0  0  0
   47.3639    8.3068   19.4675 N   0  0  0  0  0  0  0  0  0  0  0  0
   47.8369   10.2111   18.3511 C   0  0  0  0  0  0  0  0  0  0  0  0
   47.1611    9.6801   19.4507 C   0  0  0  0  0  0  0  0  0  0  0  0
   49.2889    9.2567   16.4912 C   0  0  0  0  0  0  0  0  0  0  0  0
   51.0081    8.9513   14.3333 N   0  0  0  0  0  0  0  0  0  0  0  0
   48.5495    6.8178   18.1251 O   0  0  0  0  0  0  0  0  0  0  0  0
   48.7496    8.4219   15.3286 C   0  0  0  0  0  0  0  0  0  0  0  0
   50.7569    8.8991   16.7781 C   0  0  0  0  0  0  0  0  0  0  0  0
   52.3869    7.8326   10.1451 C   0  0  0  0  0  0  0  0  0  0  0  0
   53.3785    7.4035    9.1103 C   0  0  0  0  0  0  0  0  0  0  0  0
   51.4490    7.0865   10.4173 O   0  0  0  0  0  0  0  0  0  0  0  0
   51.4625    8.2925   15.5619 C   0  0  0  0  0  0  0  0  0  0  0  0
   49.5884    8.6486   14.0642 C   0  0  0  0  0  0  0  0  0  0  0  0
   54.4070    8.2447    8.6614 C   0  0  0  0  0  0  0  0  0  0  0  0
   53.2633    6.1110    8.5725 C   0  0  0  0  0  0  0  0  0  0  0  0
   55.1793    6.5095    7.1733 C   0  0  0  0  0  0  0  0  0  0  0  0
   54.1651    5.6642    7.6041 C   0  0  0  0  0  0  0  0  0  0  0  0
   55.3079    7.7933    7.6916 C   0  0  0  0  0  0  0  0  0  0  0  0
   56.0451    6.0840    6.2450 F   0  0  0  0  0  0  0  0  0  0  0  0
   51.8681    8.5917   13.1927 C   0  0  0  0  0  0  0  0  0  0  0  0
   47.8153   11.5645   18.0890 C   0  0  0  0  0  0  0  0  0  0  0  0
   46.4397   10.4564   20.3290 C   0  0  0  0  0  0  0  0  0  0  0  0
   51.5715    9.4415   11.9468 C   0  0  0  0  0  0  0  0  0  0  0  0
   52.5720    9.1843   10.8163 C   0  0  0  0  0  0  0  0  0  0  0  0
   47.0879   12.3781   18.9674 C   0  0  0  0  0  0  0  0  0  0  0  0
   46.4074   11.8301   20.0750 C   0  0  0  0  0  0  0  0  0  0  0  0
   47.0138    7.6455   20.1401 H   0  0  0  0  0  0  0  0  0  0  0  0
   49.2661   10.3034   16.1639 H   0  0  0  0  0  0  0  0  0  0  0  0
   48.7686    7.3556   15.5858 H   0  0  0  0  0  0  0  0  0  0  0  0
   47.7015    8.6735   15.1258 H   0  0  0  0  0  0  0  0  0  0  0  0
   51.2788    9.8115   17.0954 H   0  0  0  0  0  0  0  0  0  0  0  0
   50.8487    8.1969   17.6151 H   0  0  0  0  0  0  0  0  0  0  0  0
   51.2843    7.2100   15.5145 H   0  0  0  0  0  0  0  0  0  0  0  0
   52.5420    8.4285   15.7023 H   0  0  0  0  0  0  0  0  0  0  0  0
   49.1604    9.4935   13.5116 H   0  0  0  0  0  0  0  0  0  0  0  0
   49.4788    7.7601   13.4289 H   0  0  0  0  0  0  0  0  0  0  0  0
   54.5287    9.2541    9.0431 H   0  0  0  0  0  0  0  0  0  0  0  0
   52.4688    5.4451    8.9065 H   0  0  0  0  0  0  0  0  0  0  0  0
   54.0801    4.6659    7.1863 H   0  0  0  0  0  0  0  0  0  0  0  0
   56.1082    8.4352    7.3356 H   0  0  0  0  0  0  0  0  0  0  0  0
   51.7816    7.5219   12.9681 H   0  0  0  0  0  0  0  0  0  0  0  0
   52.9145    8.7724   13.4713 H   0  0  0  0  0  0  0  0  0  0  0  0
   48.3335   11.9999   17.2439 H   0  0  0  0  0  0  0  0  0  0  0  0
   45.9210   10.0295   21.1785 H   0  0  0  0  0  0  0  0  0  0  0  0
   51.6281   10.5033   12.2190 H   0  0  0  0  0  0  0  0  0  0  0  0
   50.5534    9.2575   11.5845 H   0  0  0  0  0  0  0  0  0  0  0  0
   52.4284    9.9554   10.0505 H   0  0  0  0  0  0  0  0  0  0  0  0
   53.5918    9.2592   11.2090 H   0  0  0  0  0  0  0  0  0  0  0  0
   47.0467   13.4518   18.7940 H   0  0  0  0  0  0  0  0  0  0  0  0
   45.8513   12.4883   20.7395 H   0  0  0  0  0  0  0  0  0  0  0  0
  2  1  1  0
  3  1  1  0
  4  2  1  0
  5  3  1  0
  6  2  1  0
  7 14  1  0
  8  1  2  0
  9  6  1  0
 10  6  1  0
 11 26  1  0
 12 11  1  0
 13 11  2  0
 14 10  1  0
 15  9  1  0
 16 12  2  0
 17 12  1  0
 18 19  1  0
 19 17  2  0
 20 16  1  0
 21 18  1  0
 22  7  1  0
 23  4  2  0
 24  5  2  0
 25 22  1  0
 26 25  1  0
 27 23  1  0
 28 24  1  0
  5  4  1  0
 28 27  2  0
 15  7  1  0
 20 18  2  0
  3 29  1  0
  6 30  1  0
  9 31  1  0
  9 32  1  0
 10 33  1  0
 10 34  1  0
 14 35  1  0
 14 36  1  0
 15 37  1  0
 15 38  1  0
 16 39  1  0
 17 40  1  0
 19 41  1  0
 20 42  1  0
 22 43  1  0
 22 44  1  0
 23 45  1  0
 24 46  1  0
 25 47  1  0
 25 48  1  0
 26 49  1  0
 26 50  1  0
 27 51  1  0
 28 52  1  0
M  END
> <Uni-Dock RESULT> 
ENERGY=   -4.290  LOWER_BOUND=    6.903  UPPER_BOUND=   10.083
INTER + INTRA:          -4.290
INTER:                  -4.290
INTRA:                   0.000
UNBOUND:                 0.000

$$$$

     RDKit          3D

 52 55  0  0  0  0  0  0  0  0999 V2000
   53.0814   10.2928   10.0064 C   0  0  0  0  0  0  0  0  0  0  0  0
   52.6415    8.9804   10.2926 N   0  0  0  0  0  0  0  0  0  0  0  0
   53.5910   10.2690    8.7000 N   0  0  0  0  0  0  0  0  0  0  0  0
   52.9010    8.1719    9.1721 C   0  0  0  0  0  0  0  0  0  0  0  0
   53.4839    8.9803    8.1950 C   0  0  0  0  0  0  0  0  0  0  0  0
   52.0584    8.5328   11.5466 C   0  0  0  0  0  0  0  0  0  0  0  0
   51.1062    8.1681   14.1283 N   0  0  0  0  0  0  0  0  0  0  0  0
   53.0469   11.2749   10.7290 O   0  0  0  0  0  0  0  0  0  0  0  0
   50.7772    9.2930   11.8928 C   0  0  0  0  0  0  0  0  0  0  0  0
   53.0633    8.6100   12.7081 C   0  0  0  0  0  0  0  0  0  0  0  0
   48.2351    8.3808   17.6505 C   0  0  0  0  0  0  0  0  0  0  0  0
   47.8629    8.4443   19.0981 C   0  0  0  0  0  0  0  0  0  0  0  0
   47.9731    9.3377   16.9252 O   0  0  0  0  0  0  0  0  0  0  0  0
   52.3857    8.8803   14.0545 C   0  0  0  0  0  0  0  0  0  0  0  0
   50.1354    8.7222   13.1639 C   0  0  0  0  0  0  0  0  0  0  0  0
   48.0220    7.3518   19.9630 C   0  0  0  0  0  0  0  0  0  0  0  0
   47.3315    9.6449   19.5974 C   0  0  0  0  0  0  0  0  0  0  0  0
   47.1363    8.6627   21.7848 C   0  0  0  0  0  0  0  0  0  0  0  0
   46.9691    9.7536   20.9418 C   0  0  0  0  0  0  0  0  0  0  0  0
   47.6578    7.4650   21.3085 C   0  0  0  0  0  0  0  0  0  0  0  0
   46.7895    8.7639   23.0740 F   0  0  0  0  0  0  0  0  0  0  0  0
   50.5757    8.1773   15.5026 C   0  0  0  0  0  0  0  0  0  0  0  0
   52.6785    6.8304    8.9450 C   0  0  0  0  0  0  0  0  0  0  0  0
   53.8664    8.5022    6.9622 C   0  0  0  0  0  0  0  0  0  0  0  0
   49.3652    7.2447   15.6676 C   0  0  0  0  0  0  0  0  0  0  0  0
   48.9174    7.1267   17.1273 C   0  0  0  0  0  0  0  0  0  0  0  0
   53.0584    6.3176    7.6979 C   0  0  0  0  0  0  0  0  0  0  0  0
   53.6454    7.1443    6.7172 C   0  0  0  0  0  0  0  0  0  0  0  0
   53.9773   11.0758    8.2394 H   0  0  0  0  0  0  0  0  0  0  0  0
   51.7767    7.4792   11.4284 H   0  0  0  0  0  0  0  0  0  0  0  0
   50.9968   10.3566   12.0478 H   0  0  0  0  0  0  0  0  0  0  0  0
   50.0614    9.2418   11.0633 H   0  0  0  0  0  0  0  0  0  0  0  0
   53.6143    7.6612   12.7517 H   0  0  0  0  0  0  0  0  0  0  0  0
   53.8195    9.3863   12.5413 H   0  0  0  0  0  0  0  0  0  0  0  0
   52.2425    9.9588   14.2030 H   0  0  0  0  0  0  0  0  0  0  0  0
   53.0681    8.5412   14.8437 H   0  0  0  0  0  0  0  0  0  0  0  0
   49.4488    7.9179   12.8740 H   0  0  0  0  0  0  0  0  0  0  0  0
   49.5275    9.5171   13.6151 H   0  0  0  0  0  0  0  0  0  0  0  0
   48.4207    6.4022   19.6185 H   0  0  0  0  0  0  0  0  0  0  0  0
   47.1976   10.5026   18.9397 H   0  0  0  0  0  0  0  0  0  0  0  0
   46.5587   10.6797   21.3320 H   0  0  0  0  0  0  0  0  0  0  0  0
   47.7758    6.6262   21.9881 H   0  0  0  0  0  0  0  0  0  0  0  0
   50.3289    9.1998   15.8126 H   0  0  0  0  0  0  0  0  0  0  0  0
   51.3593    7.8211   16.1838 H   0  0  0  0  0  0  0  0  0  0  0  0
   52.2302    6.1830    9.6882 H   0  0  0  0  0  0  0  0  0  0  0  0
   54.3183    9.1421    6.2143 H   0  0  0  0  0  0  0  0  0  0  0  0
   49.6371    6.2429   15.3109 H   0  0  0  0  0  0  0  0  0  0  0  0
   48.5247    7.5866   15.0525 H   0  0  0  0  0  0  0  0  0  0  0  0
   48.1958    6.3046   17.1983 H   0  0  0  0  0  0  0  0  0  0  0  0
   49.7837    6.8942   17.7560 H   0  0  0  0  0  0  0  0  0  0  0  0
   52.8988    5.2631    7.4806 H   0  0  0  0  0  0  0  0  0  0  0  0
   53.9300    6.7163    5.7581 H   0  0  0  0  0  0  0  0  0  0  0  0
  2  1  1  0
  3  1  1  0
  4  2  1  0
  5  3  1  0
  6  2  1  0
  7 14  1  0
  8  1  2  0
  9  6  1  0
 10  6  1  0
 11 26  1  0
 12 11  1  0
 13 11  2  0
 14 10  1  0
 15  9  1  0
 16 12  2  0
 17 12  1  0
 18 19  1  0
 19 17  2  0
 20 16  1  0
 21 18  1  0
 22  7  1  0
 23  4  2  0
 24  5  2  0
 25 22  1  0
 26 25  1  0
 27 23  1  0
 28 24  1  0
  5  4  1  0
 28 27  2  0
 15  7  1  0
 20 18  2  0
  3 29  1  0
  6 30  1  0
  9 31  1  0
  9 32  1  0
 10 33  1  0
 10 34  1  0
 14 35  1  0
 14 36  1  0
 15 37  1  0
 15 38  1  0
 16 39  1  0
 17 40  1  0
 19 41  1  0
 20 42  1  0
 22 43  1  0
 22 44  1  0
 23 45  1  0
 24 46  1  0
 25 47  1  0
 25 48  1  0
 26 49  1  0
 26 50  1  0
 27 51  1  0
 28 52  1  0
M  END
> <Uni-Dock RESULT> 
ENERGY=   -4.245  LOWER_BOUND=    6.750  UPPER_BOUND=    8.547
INTER + INTRA:          -4.245
INTER:                  -4.245
INTRA:                   0.000
UNBOUND:                 0.000

$$$$

     RDKit          3D

 52 55  0  0  0  0  0  0  0  0999 V2000
   46.8190    5.2661   13.8790 C   0  0  0  0  0  0  0  0  0  0  0  0
   46.5494    5.9671   12.6815 N   0  0  0  0  0  0  0  0  0  0  0  0
   46.0535    4.0917   13.8372 N   0  0  0  0  0  0  0  0  0  0  0  0
   45.6162    5.2264   11.9352 C   0  0  0  0  0  0  0  0  0  0  0  0
   45.3211    4.0695   12.6581 C   0  0  0  0  0  0  0  0  0  0  0  0
   47.1093    7.2544   12.3045 C   0  0  0  0  0  0  0  0  0  0  0  0
   48.3586    9.7249   12.1028 N   0  0  0  0  0  0  0  0  0  0  0  0
   47.5591    5.5899   14.7928 O   0  0  0  0  0  0  0  0  0  0  0  0
   48.6360    7.2188   12.2197 C   0  0  0  0  0  0  0  0  0  0  0  0
   46.6462    8.3804   13.2441 C   0  0  0  0  0  0  0  0  0  0  0  0
   51.7064   12.7343   11.4471 C   0  0  0  0  0  0  0  0  0  0  0  0
   52.4194   14.0360   11.6353 C   0  0  0  0  0  0  0  0  0  0  0  0
   52.2366   11.7008   11.8487 O   0  0  0  0  0  0  0  0  0  0  0  0
   47.6886    9.4931   13.3862 C   0  0  0  0  0  0  0  0  0  0  0  0
   49.1820    8.5616   11.7176 C   0  0  0  0  0  0  0  0  0  0  0  0
   51.9366   15.2405   11.1035 C   0  0  0  0  0  0  0  0  0  0  0  0
   53.6173   14.0395   12.3691 C   0  0  0  0  0  0  0  0  0  0  0  0
   53.8252   16.4137   12.0409 C   0  0  0  0  0  0  0  0  0  0  0  0
   54.3195   15.2295   12.5722 C   0  0  0  0  0  0  0  0  0  0  0  0
   52.6429   16.4299   11.3094 C   0  0  0  0  0  0  0  0  0  0  0  0
   54.4964   17.5559   12.2339 F   0  0  0  0  0  0  0  0  0  0  0  0
   49.1509   10.9663   12.1378 C   0  0  0  0  0  0  0  0  0  0  0  0
   45.0214    5.4741   10.7162 C   0  0  0  0  0  0  0  0  0  0  0  0
   44.4354    3.1158   12.2104 C   0  0  0  0  0  0  0  0  0  0  0  0
   49.6719   11.3661   10.7482 C   0  0  0  0  0  0  0  0  0  0  0  0
   50.3524   12.7380   10.7553 C   0  0  0  0  0  0  0  0  0  0  0  0
   44.1156    4.5191   10.2367 C   0  0  0  0  0  0  0  0  0  0  0  0
   43.8261    3.3527   10.9754 C   0  0  0  0  0  0  0  0  0  0  0  0
   46.0513    3.4034   14.5710 H   0  0  0  0  0  0  0  0  0  0  0  0
   46.7440    7.4975   11.2991 H   0  0  0  0  0  0  0  0  0  0  0  0
   49.0661    7.0020   13.2054 H   0  0  0  0  0  0  0  0  0  0  0  0
   48.9672    6.4135   11.5529 H   0  0  0  0  0  0  0  0  0  0  0  0
   45.7091    8.7953   12.8501 H   0  0  0  0  0  0  0  0  0  0  0  0
   46.4072    8.0026   14.2452 H   0  0  0  0  0  0  0  0  0  0  0  0
   48.4171    9.2397   14.1679 H   0  0  0  0  0  0  0  0  0  0  0  0
   47.1659   10.3967   13.7233 H   0  0  0  0  0  0  0  0  0  0  0  0
   49.2304    8.5282   10.6227 H   0  0  0  0  0  0  0  0  0  0  0  0
   50.2128    8.6586   12.0823 H   0  0  0  0  0  0  0  0  0  0  0  0
   51.0198   15.2832   10.5230 H   0  0  0  0  0  0  0  0  0  0  0  0
   54.0092   13.1131   12.7866 H   0  0  0  0  0  0  0  0  0  0  0  0
   55.2452   15.2369   13.1392 H   0  0  0  0  0  0  0  0  0  0  0  0
   52.2796   17.3689   10.9024 H   0  0  0  0  0  0  0  0  0  0  0  0
   49.9752   10.8762   12.8554 H   0  0  0  0  0  0  0  0  0  0  0  0
   48.5093   11.7824   12.4947 H   0  0  0  0  0  0  0  0  0  0  0  0
   45.2325    6.3651   10.1384 H   0  0  0  0  0  0  0  0  0  0  0  0
   44.2162    2.2232   12.7833 H   0  0  0  0  0  0  0  0  0  0  0  0
   48.8262   11.4071   10.0497 H   0  0  0  0  0  0  0  0  0  0  0  0
   50.3691   10.6128   10.3632 H   0  0  0  0  0  0  0  0  0  0  0  0
   50.5141   13.0449    9.7155 H   0  0  0  0  0  0  0  0  0  0  0  0
   49.6963   13.4670   11.2430 H   0  0  0  0  0  0  0  0  0  0  0  0
   43.6257    4.6786    9.2780 H   0  0  0  0  0  0  0  0  0  0  0  0
   43.1176    2.6296   10.5763 H   0  0  0  0  0  0  0  0  0  0  0  0
  2  1  1  0
  3  1  1  0
  4  2  1  0
  5  3  1  0
  6  2  1  0
  7 14  1  0
  8  1  2  0
  9  6  1  0
 10  6  1  0
 11 26  1  0
 12 11  1  0
 13 11  2  0
 14 10  1  0
 15  9  1  0
 16 12  2  0
 17 12  1  0
 18 19  1  0
 19 17  2  0
 20 16  1  0
 21 18  1  0
 22  7  1  0
 23  4  2  0
 24  5  2  0
 25 22  1  0
 26 25  1  0
 27 23  1  0
 28 24  1  0
  5  4  1  0
 28 27  2  0
 15  7  1  0
 20 18  2  0
  3 29  1  0
  6 30  1  0
  9 31  1  0
  9 32  1  0
 10 33  1  0
 10 34  1  0
 14 35  1  0
 14 36  1  0
 15 37  1  0
 15 38  1  0
 16 39  1  0
 17 40  1  0
 19 41  1  0
 20 42  1  0
 22 43  1  0
 22 44  1  0
 23 45  1  0
 24 46  1  0
 25 47  1  0
 25 48  1  0
 26 49  1  0
 26 50  1  0
 27 51  1  0
 28 52  1  0
M  END
> <Uni-Dock RESULT> 
ENERGY=   -4.068  LOWER_BOUND=    3.223  UPPER_BOUND=    3.635
INTER + INTRA:          -4.068
INTER:                  -4.068
INTRA:                   0.000
UNBOUND:                 0.000

$$$$

     RDKit          3D

 52 55  0  0  0  0  0  0  0  0999 V2000
   46.8009   15.5796    9.9543 C   0  0  0  0  0  0  0  0  0  0  0  0
   47.0505   15.0355   11.2348 N   0  0  0  0  0  0  0  0  0  0  0  0
   47.2812   16.8971    9.9779 N   0  0  0  0  0  0  0  0  0  0  0  0
   47.6605   16.0251   12.0254 C   0  0  0  0  0  0  0  0  0  0  0  0
   47.8003   17.1680   11.2367 C   0  0  0  0  0  0  0  0  0  0  0  0
   46.6989   13.6949   11.6731 C   0  0  0  0  0  0  0  0  0  0  0  0
   45.7429   11.1150   12.0411 N   0  0  0  0  0  0  0  0  0  0  0  0
   46.2700   15.0427    8.9964 O   0  0  0  0  0  0  0  0  0  0  0  0
   47.3670   12.6140   10.8218 C   0  0  0  0  0  0  0  0  0  0  0  0
   45.1760   13.4847   11.7158 C   0  0  0  0  0  0  0  0  0  0  0  0
   45.5565    6.5821   11.7068 C   0  0  0  0  0  0  0  0  0  0  0  0
   44.8773    5.2499   11.6595 C   0  0  0  0  0  0  0  0  0  0  0  0
   46.1506    6.9839   10.7088 O   0  0  0  0  0  0  0  0  0  0  0  0
   44.7749   12.0340   11.4342 C   0  0  0  0  0  0  0  0  0  0  0  0
   47.0582   11.2183   11.3786 C   0  0  0  0  0  0  0  0  0  0  0  0
   44.2795    4.6713   12.7885 C   0  0  0  0  0  0  0  0  0  0  0  0
   44.8470    4.5606   10.4359 C   0  0  0  0  0  0  0  0  0  0  0  0
   43.6351    2.7570   11.4686 C   0  0  0  0  0  0  0  0  0  0  0  0
   44.2246    3.3139   10.3411 C   0  0  0  0  0  0  0  0  0  0  0  0
   43.6574    3.4227   12.6891 C   0  0  0  0  0  0  0  0  0  0  0  0
   43.0380    1.5619   11.3806 F   0  0  0  0  0  0  0  0  0  0  0  0
   45.2349    9.7323   12.0325 C   0  0  0  0  0  0  0  0  0  0  0  0
   48.0875   16.0093   13.3362 C   0  0  0  0  0  0  0  0  0  0  0  0
   48.3648   18.3328   11.7046 C   0  0  0  0  0  0  0  0  0  0  0  0
   46.1095    8.7836   12.8675 C   0  0  0  0  0  0  0  0  0  0  0  0
   45.4940    7.3871   12.9952 C   0  0  0  0  0  0  0  0  0  0  0  0
   48.6664   17.1821   13.8382 C   0  0  0  0  0  0  0  0  0  0  0  0
   48.8038   18.3310   13.0313 C   0  0  0  0  0  0  0  0  0  0  0  0
   47.2283   17.5220    9.1912 H   0  0  0  0  0  0  0  0  0  0  0  0
   47.0747   13.5669   12.6956 H   0  0  0  0  0  0  0  0  0  0  0  0
   47.0126   12.6738    9.7853 H   0  0  0  0  0  0  0  0  0  0  0  0
   48.4527   12.7655   10.7875 H   0  0  0  0  0  0  0  0  0  0  0  0
   44.8136   13.7861   12.7075 H   0  0  0  0  0  0  0  0  0  0  0  0
   44.6556   14.1311   10.9992 H   0  0  0  0  0  0  0  0  0  0  0  0
   44.6950   11.8603   10.3529 H   0  0  0  0  0  0  0  0  0  0  0  0
   43.7729   11.8792   11.8532 H   0  0  0  0  0  0  0  0  0  0  0  0
   47.8294   10.9604   12.1141 H   0  0  0  0  0  0  0  0  0  0  0  0
   47.1505   10.5025   10.5514 H   0  0  0  0  0  0  0  0  0  0  0  0
   44.2864    5.1644   13.7560 H   0  0  0  0  0  0  0  0  0  0  0  0
   45.3090    4.9929    9.5495 H   0  0  0  0  0  0  0  0  0  0  0  0
   44.1984    2.7780    9.3974 H   0  0  0  0  0  0  0  0  0  0  0  0
   43.1914    2.9640   13.5561 H   0  0  0  0  0  0  0  0  0  0  0  0
   45.1309    9.3673   11.0037 H   0  0  0  0  0  0  0  0  0  0  0  0
   44.2297    9.7249   12.4734 H   0  0  0  0  0  0  0  0  0  0  0  0
   47.9877   15.1358   13.9682 H   0  0  0  0  0  0  0  0  0  0  0  0
   48.4657   19.2120   11.0804 H   0  0  0  0  0  0  0  0  0  0  0  0
   46.2237    9.2008   13.8763 H   0  0  0  0  0  0  0  0  0  0  0  0
   47.1150    8.7034   12.4383 H   0  0  0  0  0  0  0  0  0  0  0  0
   46.0554    6.8343   13.7572 H   0  0  0  0  0  0  0  0  0  0  0  0
   44.4512    7.4774   13.3180 H   0  0  0  0  0  0  0  0  0  0  0  0
   49.0161   17.2090   14.8685 H   0  0  0  0  0  0  0  0  0  0  0  0
   49.2574   19.2270   13.4502 H   0  0  0  0  0  0  0  0  0  0  0  0
  2  1  1  0
  3  1  1  0
  4  2  1  0
  5  3  1  0
  6  2  1  0
  7 14  1  0
  8  1  2  0
  9  6  1  0
 10  6  1  0
 11 26  1  0
 12 11  1  0
 13 11  2  0
 14 10  1  0
 15  9  1  0
 16 12  2  0
 17 12  1  0
 18 19  1  0
 19 17  2  0
 20 16  1  0
 21 18  1  0
 22  7  1  0
 23  4  2  0
 24  5  2  0
 25 22  1  0
 26 25  1  0
 27 23  1  0
 28 24  1  0
  5  4  1  0
 28 27  2  0
 15  7  1  0
 20 18  2  0
  3 29  1  0
  6 30  1  0
  9 31  1  0
  9 32  1  0
 10 33  1  0
 10 34  1  0
 14 35  1  0
 14 36  1  0
 15 37  1  0
 15 38  1  0
 16 39  1  0
 17 40  1  0
 19 41  1  0
 20 42  1  0
 22 43  1  0
 22 44  1  0
 23 45  1  0
 24 46  1  0
 25 47  1  0
 25 48  1  0
 26 49  1  0
 26 50  1  0
 27 51  1  0
 28 52  1  0
M  END
> <Uni-Dock RESULT> 
ENERGY=   -3.917  LOWER_BOUND=    4.505  UPPER_BOUND=   11.143
INTER + INTRA:          -3.917
INTER:                  -3.917
INTRA:                   0.000
UNBOUND:                 0.000

$$$$

     RDKit          3D

 52 55  0  0  0  0  0  0  0  0999 V2000
   46.8927    5.4909   13.8983 C   0  0  0  0  0  0  0  0  0  0  0  0
   46.4520    6.4982   13.0100 N   0  0  0  0  0  0  0  0  0  0  0  0
   45.8941    4.5062   13.9151 N   0  0  0  0  0  0  0  0  0  0  0  0
   45.1908    6.1280   12.5110 C   0  0  0  0  0  0  0  0  0  0  0  0
   44.8596    4.8950   13.0749 C   0  0  0  0  0  0  0  0  0  0  0  0
   47.1622    7.7273   12.6974 C   0  0  0  0  0  0  0  0  0  0  0  0
   48.8426    9.9294   12.5187 N   0  0  0  0  0  0  0  0  0  0  0  0
   47.9265    5.4538   14.5445 O   0  0  0  0  0  0  0  0  0  0  0  0
   48.5399    7.4606   12.0888 C   0  0  0  0  0  0  0  0  0  0  0  0
   47.2816    8.6499   13.9219 C   0  0  0  0  0  0  0  0  0  0  0  0
   52.4552   12.4090   11.2962 C   0  0  0  0  0  0  0  0  0  0  0  0
   53.4792   13.4882   11.4550 C   0  0  0  0  0  0  0  0  0  0  0  0
   52.8202   11.2355   11.3022 O   0  0  0  0  0  0  0  0  0  0  0  0
   48.5515    9.5051   13.8917 C   0  0  0  0  0  0  0  0  0  0  0  0
   49.2130    8.7756   11.6754 C   0  0  0  0  0  0  0  0  0  0  0  0
   53.1595   14.8491   11.3428 C   0  0  0  0  0  0  0  0  0  0  0  0
   54.8065   13.1132   11.7213 C   0  0  0  0  0  0  0  0  0  0  0  0
   55.4635   15.4270   11.7665 C   0  0  0  0  0  0  0  0  0  0  0  0
   55.7984   14.0838   11.8779 C   0  0  0  0  0  0  0  0  0  0  0  0
   54.1559   15.8177   11.5003 C   0  0  0  0  0  0  0  0  0  0  0  0
   56.4124   16.3597   11.9158 F   0  0  0  0  0  0  0  0  0  0  0  0
   49.8798   10.9752   12.4983 C   0  0  0  0  0  0  0  0  0  0  0  0
   44.3358    6.7616   11.6344 C   0  0  0  0  0  0  0  0  0  0  0  0
   43.6811    4.2404   12.7975 C   0  0  0  0  0  0  0  0  0  0  0  0
   50.0413   11.6106   11.1082 C   0  0  0  0  0  0  0  0  0  0  0  0
   50.9978   12.8065   11.1234 C   0  0  0  0  0  0  0  0  0  0  0  0
   43.1288    6.1168   11.3343 C   0  0  0  0  0  0  0  0  0  0  0  0
   42.8052    4.8699   11.9091 C   0  0  0  0  0  0  0  0  0  0  0  0
   45.9480    3.6695   14.4713 H   0  0  0  0  0  0  0  0  0  0  0  0
   46.5820    8.2661   11.9382 H   0  0  0  0  0  0  0  0  0  0  0  0
   49.1804    6.9410   12.8122 H   0  0  0  0  0  0  0  0  0  0  0  0
   48.4560    6.7994   11.2178 H   0  0  0  0  0  0  0  0  0  0  0  0
   46.3960    9.2982   13.9534 H   0  0  0  0  0  0  0  0  0  0  0  0
   47.2700    8.0838   14.8608 H   0  0  0  0  0  0  0  0  0  0  0  0
   49.3983    8.9510   14.3180 H   0  0  0  0  0  0  0  0  0  0  0  0
   48.3831   10.3727   14.5417 H   0  0  0  0  0  0  0  0  0  0  0  0
   48.9229    9.0035   10.6428 H   0  0  0  0  0  0  0  0  0  0  0  0
   50.2979    8.6080   11.6751 H   0  0  0  0  0  0  0  0  0  0  0  0
   52.1488   15.1840   11.1295 H   0  0  0  0  0  0  0  0  0  0  0  0
   55.0738   12.0610   11.8083 H   0  0  0  0  0  0  0  0  0  0  0  0
   56.8252   13.7986   12.0844 H   0  0  0  0  0  0  0  0  0  0  0  0
   53.9212   16.8746   11.4154 H   0  0  0  0  0  0  0  0  0  0  0  0
   50.8347   10.5768   12.8614 H   0  0  0  0  0  0  0  0  0  0  0  0
   49.5866   11.7740   13.1919 H   0  0  0  0  0  0  0  0  0  0  0  0
   44.5696    7.7191   11.1863 H   0  0  0  0  0  0  0  0  0  0  0  0
   43.4379    3.2839   13.2436 H   0  0  0  0  0  0  0  0  0  0  0  0
   49.0607   11.9610   10.7614 H   0  0  0  0  0  0  0  0  0  0  0  0
   50.3923   10.8694   10.3807 H   0  0  0  0  0  0  0  0  0  0  0  0
   50.9095   13.3273   10.1629 H   0  0  0  0  0  0  0  0  0  0  0  0
   50.7096   13.4925   11.9272 H   0  0  0  0  0  0  0  0  0  0  0  0
   42.4274    6.5851   10.6463 H   0  0  0  0  0  0  0  0  0  0  0  0
   41.8596    4.3944   11.6565 H   0  0  0  0  0  0  0  0  0  0  0  0
  2  1  1  0
  3  1  1  0
  4  2  1  0
  5  3  1  0
  6  2  1  0
  7 14  1  0
  8  1  2  0
  9  6  1  0
 10  6  1  0
 11 26  1  0
 12 11  1  0
 13 11  2  0
 14 10  1  0
 15  9  1  0
 16 12  2  0
 17 12  1  0
 18 19  1  0
 19 17  2  0
 20 16  1  0
 21 18  1  0
 22  7  1  0
 23  4  2  0
 24  5  2  0
 25 22  1  0
 26 25  1  0
 27 23  1  0
 28 24  1  0
  5  4  1  0
 28 27  2  0
 15  7  1  0
 20 18  2  0
  3 29  1  0
  6 30  1  0
  9 31  1  0
  9 32  1  0
 10 33  1  0
 10 34  1  0
 14 35  1  0
 14 36  1  0
 15 37  1  0
 15 38  1  0
 16 39  1  0
 17 40  1  0
 19 41  1  0
 20 42  1  0
 22 43  1  0
 22 44  1  0
 23 45  1  0
 24 46  1  0
 25 47  1  0
 25 48  1  0
 26 49  1  0
 26 50  1  0
 27 51  1  0
 28 52  1  0
M  END
> <Uni-Dock RESULT> 
ENERGY=   -3.897  LOWER_BOUND=    3.939  UPPER_BOUND=    4.603
INTER + INTRA:          -3.897
INTER:                  -3.897
INTRA:                   0.000
UNBOUND:                 0.000

$$$$

     RDKit          3D

 52 55  0  0  0  0  0  0  0  0999 V2000
   51.1810   10.2872   18.7279 C   0  0  0  0  0  0  0  0  0  0  0  0
   50.4793   11.0304   17.7517 N   0  0  0  0  0  0  0  0  0  0  0  0
   51.7283   11.2176   19.6234 N   0  0  0  0  0  0  0  0  0  0  0  0
   50.6191   12.3971   18.0503 C   0  0  0  0  0  0  0  0  0  0  0  0
   51.3893   12.4987   19.2098 C   0  0  0  0  0  0  0  0  0  0  0  0
   49.7689   10.4785   16.6100 C   0  0  0  0  0  0  0  0  0  0  0  0
   48.6597    8.9554   14.5716 N   0  0  0  0  0  0  0  0  0  0  0  0
   51.3121    9.0770   18.8053 O   0  0  0  0  0  0  0  0  0  0  0  0
   48.6503    9.5240   17.0308 C   0  0  0  0  0  0  0  0  0  0  0  0
   50.7215    9.7906   15.6177 C   0  0  0  0  0  0  0  0  0  0  0  0
   45.7472    6.1495   12.4888 C   0  0  0  0  0  0  0  0  0  0  0  0
   45.3365    5.1148   11.4894 C   0  0  0  0  0  0  0  0  0  0  0  0
   45.7090    5.8709   13.6852 O   0  0  0  0  0  0  0  0  0  0  0  0
   50.0567    8.6286   14.8742 C   0  0  0  0  0  0  0  0  0  0  0  0
   47.8575    9.0460   15.8076 C   0  0  0  0  0  0  0  0  0  0  0  0
   45.2415    5.3915   10.1178 C   0  0  0  0  0  0  0  0  0  0  0  0
   45.0332    3.8240   11.9531 C   0  0  0  0  0  0  0  0  0  0  0  0
   44.5593    3.1144    9.7037 C   0  0  0  0  0  0  0  0  0  0  0  0
   44.6452    2.8236   11.0590 C   0  0  0  0  0  0  0  0  0  0  0  0
   44.8527    4.3868    9.2260 C   0  0  0  0  0  0  0  0  0  0  0  0
   44.1874    2.1575    8.8444 F   0  0  0  0  0  0  0  0  0  0  0  0
   48.0863    7.9893   13.6187 C   0  0  0  0  0  0  0  0  0  0  0  0
   50.1452   13.5228   17.4107 C   0  0  0  0  0  0  0  0  0  0  0  0
   51.7193   13.7059   19.7827 C   0  0  0  0  0  0  0  0  0  0  0  0
   46.7098    8.4307   13.0967 C   0  0  0  0  0  0  0  0  0  0  0  0
   46.1887    7.5147   11.9855 C   0  0  0  0  0  0  0  0  0  0  0  0
   50.4664   14.7651   17.9730 C   0  0  0  0  0  0  0  0  0  0  0  0
   51.2444   14.8556   19.1462 C   0  0  0  0  0  0  0  0  0  0  0  0
   52.2848   10.9601   20.4212 H   0  0  0  0  0  0  0  0  0  0  0  0
   49.2896   11.3101   16.0791 H   0  0  0  0  0  0  0  0  0  0  0  0
   49.0693    8.6532   17.5500 H   0  0  0  0  0  0  0  0  0  0  0  0
   47.9727   10.0125   17.7416 H   0  0  0  0  0  0  0  0  0  0  0  0
   51.0718   10.5422   14.8980 H   0  0  0  0  0  0  0  0  0  0  0  0
   51.6222    9.4112   16.1145 H   0  0  0  0  0  0  0  0  0  0  0  0
   50.1235    7.7056   15.4654 H   0  0  0  0  0  0  0  0  0  0  0  0
   50.6261    8.4548   13.9528 H   0  0  0  0  0  0  0  0  0  0  0  0
   47.0377    9.7520   15.6286 H   0  0  0  0  0  0  0  0  0  0  0  0
   47.4008    8.0812   16.0637 H   0  0  0  0  0  0  0  0  0  0  0  0
   45.4583    6.3769    9.7162 H   0  0  0  0  0  0  0  0  0  0  0  0
   45.0981    3.5918   13.0151 H   0  0  0  0  0  0  0  0  0  0  0  0
   44.4105    1.8246   11.4130 H   0  0  0  0  0  0  0  0  0  0  0  0
   44.7749    4.5887    8.1618 H   0  0  0  0  0  0  0  0  0  0  0  0
   48.0342    6.9906   14.0683 H   0  0  0  0  0  0  0  0  0  0  0  0
   48.7559    7.9111   12.7524 H   0  0  0  0  0  0  0  0  0  0  0  0
   49.5481   13.4694   16.5091 H   0  0  0  0  0  0  0  0  0  0  0  0
   52.3186   13.7685   20.6826 H   0  0  0  0  0  0  0  0  0  0  0  0
   46.7925    9.4474   12.6915 H   0  0  0  0  0  0  0  0  0  0  0  0
   45.9790    8.4695   13.9128 H   0  0  0  0  0  0  0  0  0  0  0  0
   45.3166    7.9952   11.5270 H   0  0  0  0  0  0  0  0  0  0  0  0
   46.9658    7.3882   11.2240 H   0  0  0  0  0  0  0  0  0  0  0  0
   50.1105   15.6771   17.4973 H   0  0  0  0  0  0  0  0  0  0  0  0
   51.4774   15.8353   19.5585 H   0  0  0  0  0  0  0  0  0  0  0  0
  2  1  1  0
  3  1  1  0
  4  2  1  0
  5  3  1  0
  6  2  1  0
  7 14  1  0
  8  1  2  0
  9  6  1  0
 10  6  1  0
 11 26  1  0
 12 11  1  0
 13 11  2  0
 14 10  1  0
 15  9  1  0
 16 12  2  0
 17 12  1  0
 18 19  1  0
 19 17  2  0
 20 16  1  0
 21 18  1  0
 22  7  1  0
 23  4  2  0
 24  5  2  0
 25 22  1  0
 26 25  1  0
 27 23  1  0
 28 24  1  0
  5  4  1  0
 28 27  2  0
 15  7  1  0
 20 18  2  0
  3 29  1  0
  6 30  1  0
  9 31  1  0
  9 32  1  0
 10 33  1  0
 10 34  1  0
 14 35  1  0
 14 36  1  0
 15 37  1  0
 15 38  1  0
 16 39  1  0
 17 40  1  0
 19 41  1  0
 20 42  1  0
 22 43  1  0
 22 44  1  0
 23 45  1  0
 24 46  1  0
 25 47  1  0
 25 48  1  0
 26 49  1  0
 26 50  1  0
 27 51  1  0
 28 52  1  0
M  END
> <Uni-Dock RESULT> 
ENERGY=   -3.821  LOWER_BOUND=    5.074  UPPER_BOUND=   11.297
INTER + INTRA:          -3.821
INTER:                  -3.821
INTRA:                   0.000
UNBOUND:                 0.000

$$$$

     RDKit          3D

 52 55  0  0  0  0  0  0  0  0999 V2000
   49.5438   14.3111   17.4907 C   0  0  0  0  0  0  0  0  0  0  0  0
   50.4233   13.3614   16.9230 N   0  0  0  0  0  0  0  0  0  0  0  0
   50.3354   15.3901   17.9104 N   0  0  0  0  0  0  0  0  0  0  0  0
   51.7344   13.8600   17.0171 C   0  0  0  0  0  0  0  0  0  0  0  0
   51.6658   15.1144   17.6253 C   0  0  0  0  0  0  0  0  0  0  0  0
   50.0425   12.0708   16.3733 C   0  0  0  0  0  0  0  0  0  0  0  0
   48.8278    9.7142   15.5513 N   0  0  0  0  0  0  0  0  0  0  0  0
   48.3325   14.2388   17.6144 O   0  0  0  0  0  0  0  0  0  0  0  0
   49.0566   12.2049   15.2117 C   0  0  0  0  0  0  0  0  0  0  0  0
   49.4819   11.1289   17.4521 C   0  0  0  0  0  0  0  0  0  0  0  0
   46.3753    6.8992   12.9523 C   0  0  0  0  0  0  0  0  0  0  0  0
   45.4924    5.7220   12.6822 C   0  0  0  0  0  0  0  0  0  0  0  0
   45.9370    8.0304   12.7556 O   0  0  0  0  0  0  0  0  0  0  0  0
   48.4420   10.1519   16.8964 C   0  0  0  0  0  0  0  0  0  0  0  0
   48.7614   10.8335   14.5909 C   0  0  0  0  0  0  0  0  0  0  0  0
   45.9545    4.4008   12.7701 C   0  0  0  0  0  0  0  0  0  0  0  0
   44.1552    5.9603   12.3240 C   0  0  0  0  0  0  0  0  0  0  0  0
   43.7655    3.5922   12.1569 C   0  0  0  0  0  0  0  0  0  0  0  0
   43.2917    4.8943   12.0622 C   0  0  0  0  0  0  0  0  0  0  0  0
   45.0865    3.3363   12.5072 C   0  0  0  0  0  0  0  0  0  0  0  0
   42.9400    2.5683   11.9063 F   0  0  0  0  0  0  0  0  0  0  0  0
   48.0090    8.5705   15.1134 C   0  0  0  0  0  0  0  0  0  0  0  0
   52.9437   13.3233   16.6291 C   0  0  0  0  0  0  0  0  0  0  0  0
   52.7787   15.8858   17.8719 C   0  0  0  0  0  0  0  0  0  0  0  0
   48.5378    7.9358   13.8174 C   0  0  0  0  0  0  0  0  0  0  0  0
   47.7895    6.6505   13.4524 C   0  0  0  0  0  0  0  0  0  0  0  0
   54.0929   14.0879   16.8681 C   0  0  0  0  0  0  0  0  0  0  0  0
   54.0114   15.3552   17.4823 C   0  0  0  0  0  0  0  0  0  0  0  0
   49.9635   16.2118   18.3563 H   0  0  0  0  0  0  0  0  0  0  0  0
   50.9458   11.5998   15.9664 H   0  0  0  0  0  0  0  0  0  0  0  0
   48.1170   12.6510   15.5607 H   0  0  0  0  0  0  0  0  0  0  0  0
   49.4539   12.8796   14.4437 H   0  0  0  0  0  0  0  0  0  0  0  0
   50.3191   10.5717   17.8928 H   0  0  0  0  0  0  0  0  0  0  0  0
   49.0250   11.6842   18.2797 H   0  0  0  0  0  0  0  0  0  0  0  0
   47.4463   10.6148   16.8869 H   0  0  0  0  0  0  0  0  0  0  0  0
   48.3867    9.2991   17.5843 H   0  0  0  0  0  0  0  0  0  0  0  0
   49.4973   10.6457   13.8000 H   0  0  0  0  0  0  0  0  0  0  0  0
   47.7776   10.8922   14.1074 H   0  0  0  0  0  0  0  0  0  0  0  0
   46.9821    4.1702   13.0353 H   0  0  0  0  0  0  0  0  0  0  0  0
   43.7797    6.9797   12.2473 H   0  0  0  0  0  0  0  0  0  0  0  0
   42.2574    5.0739   11.7857 H   0  0  0  0  0  0  0  0  0  0  0  0
   45.4324    2.3089   12.5715 H   0  0  0  0  0  0  0  0  0  0  0  0
   46.9593    8.8683   15.0051 H   0  0  0  0  0  0  0  0  0  0  0  0
   48.0394    7.7981   15.8929 H   0  0  0  0  0  0  0  0  0  0  0  0
   53.0224   12.3517   16.1578 H   0  0  0  0  0  0  0  0  0  0  0  0
   52.7093   16.8573   18.3455 H   0  0  0  0  0  0  0  0  0  0  0  0
   49.5989    7.6882   13.9500 H   0  0  0  0  0  0  0  0  0  0  0  0
   48.4762    8.6453   12.9841 H   0  0  0  0  0  0  0  0  0  0  0  0
   48.3408    6.1504   12.6477 H   0  0  0  0  0  0  0  0  0  0  0  0
   47.7561    5.9887   14.3246 H   0  0  0  0  0  0  0  0  0  0  0  0
   55.0664   13.6985   16.5758 H   0  0  0  0  0  0  0  0  0  0  0  0
   54.9222   15.9250   17.6549 H   0  0  0  0  0  0  0  0  0  0  0  0
  2  1  1  0
  3  1  1  0
  4  2  1  0
  5  3  1  0
  6  2  1  0
  7 14  1  0
  8  1  2  0
  9  6  1  0
 10  6  1  0
 11 26  1  0
 12 11  1  0
 13 11  2  0
 14 10  1  0
 15  9  1  0
 16 12  2  0
 17 12  1  0
 18 19  1  0
 19 17  2  0
 20 16  1  0
 21 18  1  0
 22  7  1  0
 23  4  2  0
 24  5  2  0
 25 22  1  0
 26 25  1  0
 27 23  1  0
 28 24  1  0
  5  4  1  0
 28 27  2  0
 15  7  1  0
 20 18  2  0
  3 29  1  0
  6 30  1  0
  9 31  1  0
  9 32  1  0
 10 33  1  0
 10 34  1  0
 14 35  1  0
 14 36  1  0
 15 37  1  0
 15 38  1  0
 16 39  1  0
 17 40  1  0
 19 41  1  0
 20 42  1  0
 22 43  1  0
 22 44  1  0
 23 45  1  0
 24 46  1  0
 25 47  1  0
 25 48  1  0
 26 49  1  0
 26 50  1  0
 27 51  1  0
 28 52  1  0
M  END
> <Uni-Dock RESULT> 
ENERGY=   -3.767  LOWER_BOUND=    4.872  UPPER_BOUND=   11.497
INTER + INTRA:          -3.767
INTER:                  -3.767
INTRA:                   0.000
UNBOUND:                 0.000

$$$$
