
     RDKit          3D

 52 55  0  0  0  0  0  0  0  0999 V2000
   45.6710    4.8599   12.9567 C   0  0  0  0  0  0  0  0  0  0  0  0
   45.9627    5.5577   11.7624 N   0  0  0  0  0  0  0  0  0  0  0  0
   45.0534    3.6586   12.5784 N   0  0  0  0  0  0  0  0  0  0  0  0
   45.4863    4.7987   10.6790 C   0  0  0  0  0  0  0  0  0  0  0  0
   44.9348    3.6255   11.1956 C   0  0  0  0  0  0  0  0  0  0  0  0
   46.5492    6.8852   11.6726 C   0  0  0  0  0  0  0  0  0  0  0  0
   47.5515    9.4319   12.0341 N   0  0  0  0  0  0  0  0  0  0  0  0
   45.8892    5.2049   14.1060 O   0  0  0  0  0  0  0  0  0  0  0  0
   45.5893    7.9705   12.1900 C   0  0  0  0  0  0  0  0  0  0  0  0
   47.9026    6.9747   12.3830 C   0  0  0  0  0  0  0  0  0  0  0  0
   48.0976   13.6662   13.6102 C   0  0  0  0  0  0  0  0  0  0  0  0
   48.6166   15.0690   13.5729 C   0  0  0  0  0  0  0  0  0  0  0  0
   46.8903   13.4743   13.4837 O   0  0  0  0  0  0  0  0  0  0  0  0
   48.5374    8.3545   12.1699 C   0  0  0  0  0  0  0  0  0  0  0  0
   46.3255    9.1745   12.7851 C   0  0  0  0  0  0  0  0  0  0  0  0
   49.9621   15.3790   13.8188 C   0  0  0  0  0  0  0  0  0  0  0  0
   47.7136   16.1061   13.2857 C   0  0  0  0  0  0  0  0  0  0  0  0
   49.4861   17.7204   13.4833 C   0  0  0  0  0  0  0  0  0  0  0  0
   48.1496   17.4321   13.2402 C   0  0  0  0  0  0  0  0  0  0  0  0
   50.3944   16.7081   13.7721 C   0  0  0  0  0  0  0  0  0  0  0  0
   49.9069   18.9908   13.4405 F   0  0  0  0  0  0  0  0  0  0  0  0
   48.1094   10.7720   12.2495 C   0  0  0  0  0  0  0  0  0  0  0  0
   45.4898    5.0454    9.3225 C   0  0  0  0  0  0  0  0  0  0  0  0
   44.3729    2.6522   10.4009 C   0  0  0  0  0  0  0  0  0  0  0  0
   48.4468   11.1396   13.7050 C   0  0  0  0  0  0  0  0  0  0  0  0
   49.0853   12.5283   13.8161 C   0  0  0  0  0  0  0  0  0  0  0  0
   44.9245    4.0708    8.4902 C   0  0  0  0  0  0  0  0  0  0  0  0
   44.3730    2.8868    9.0234 C   0  0  0  0  0  0  0  0  0  0  0  0
   44.7296    2.9693   13.2359 H   0  0  0  0  0  0  0  0  0  0  0  0
   46.7420    7.0927   10.6127 H   0  0  0  0  0  0  0  0  0  0  0  0
   44.9047    7.5747   12.9498 H   0  0  0  0  0  0  0  0  0  0  0  0
   44.9548    8.2965   11.3553 H   0  0  0  0  0  0  0  0  0  0  0  0
   47.7790    6.8021   13.4591 H   0  0  0  0  0  0  0  0  0  0  0  0
   48.5823    6.1950   12.0185 H   0  0  0  0  0  0  0  0  0  0  0  0
   49.1386    8.3297   11.2529 H   0  0  0  0  0  0  0  0  0  0  0  0
   49.2340    8.5298   12.9970 H   0  0  0  0  0  0  0  0  0  0  0  0
   45.6503   10.0381   12.7434 H   0  0  0  0  0  0  0  0  0  0  0  0
   46.5445    8.9915   13.8448 H   0  0  0  0  0  0  0  0  0  0  0  0
   50.6930   14.6108   14.0534 H   0  0  0  0  0  0  0  0  0  0  0  0
   46.6643   15.8845   13.0958 H   0  0  0  0  0  0  0  0  0  0  0  0
   47.4551   18.2365   13.0184 H   0  0  0  0  0  0  0  0  0  0  0  0
   51.4335   16.9610   13.9611 H   0  0  0  0  0  0  0  0  0  0  0  0
   49.0085   10.8810   11.6292 H   0  0  0  0  0  0  0  0  0  0  0  0
   47.3955   11.4995   11.8453 H   0  0  0  0  0  0  0  0  0  0  0  0
   45.9065    5.9507    8.8989 H   0  0  0  0  0  0  0  0  0  0  0  0
   43.9467    1.7477   10.8169 H   0  0  0  0  0  0  0  0  0  0  0  0
   49.1563   10.4131   14.1162 H   0  0  0  0  0  0  0  0  0  0  0  0
   47.5479   11.0968   14.3305 H   0  0  0  0  0  0  0  0  0  0  0  0
   49.8983   12.6142   13.0872 H   0  0  0  0  0  0  0  0  0  0  0  0
   49.5002   12.6333   14.8255 H   0  0  0  0  0  0  0  0  0  0  0  0
   44.9082    4.2292    7.4136 H   0  0  0  0  0  0  0  0  0  0  0  0
   43.9396    2.1492    8.3509 H   0  0  0  0  0  0  0  0  0  0  0  0
  2  1  1  0
  3  1  1  0
  4  2  1  0
  5  3  1  0
  6  2  1  0
  7 14  1  0
  8  1  2  0
  9  6  1  0
 10  6  1  0
 11 26  1  0
 12 11  1  0
 13 11  2  0
 14 10  1  0
 15  9  1  0
 16 12  2  0
 17 12  1  0
 18 19  1  0
 19 17  2  0
 20 16  1  0
 21 18  1  0
 22  7  1  0
 23  4  2  0
 24  5  2  0
 25 22  1  0
 26 25  1  0
 27 23  1  0
 28 24  1  0
  5  4  1  0
 28 27  2  0
 15  7  1  0
 20 18  2  0
  3 29  1  0
  6 30  1  0
  9 31  1  0
  9 32  1  0
 10 33  1  0
 10 34  1  0
 14 35  1  0
 14 36  1  0
 15 37  1  0
 15 38  1  0
 16 39  1  0
 17 40  1  0
 19 41  1  0
 20 42  1  0
 22 43  1  0
 22 44  1  0
 23 45  1  0
 24 46  1  0
 25 47  1  0
 25 48  1  0
 26 49  1  0
 26 50  1  0
 27 51  1  0
 28 52  1  0
M  END
> <Uni-Dock RESULT> 
ENERGY=   -4.232  LOWER_BOUND=    0.000  UPPER_BOUND=    0.000
INTER + INTRA:          -4.232
INTER:                  -4.232
INTRA:                   0.000
UNBOUND:                 0.000

$$$$

     RDKit          3D

 52 55  0  0  0  0  0  0  0  0999 V2000
   47.8152    8.8054   18.2803 C   0  0  0  0  0  0  0  0  0  0  0  0
   48.0990    9.9476   17.4973 N   0  0  0  0  0  0  0  0  0  0  0  0
   47.3371    9.2733   19.5132 N   0  0  0  0  0  0  0  0  0  0  0  0
   47.8317   11.0913   18.2703 C   0  0  0  0  0  0  0  0  0  0  0  0
   47.3544   10.6614   19.5091 C   0  0  0  0  0  0  0  0  0  0  0  0
   48.6782    9.9442   16.1636 C   0  0  0  0  0  0  0  0  0  0  0  0
   49.8870    9.4154   13.7386 N   0  0  0  0  0  0  0  0  0  0  0  0
   47.9539    7.6310   17.9816 O   0  0  0  0  0  0  0  0  0  0  0  0
   50.1407    9.4666   16.1766 C   0  0  0  0  0  0  0  0  0  0  0  0
   47.8494    9.1261   15.1694 C   0  0  0  0  0  0  0  0  0  0  0  0
   52.6811    7.6536   10.6080 C   0  0  0  0  0  0  0  0  0  0  0  0
   53.3627    7.6005    9.2772 C   0  0  0  0  0  0  0  0  0  0  0  0
   53.3519    7.8819   11.6121 O   0  0  0  0  0  0  0  0  0  0  0  0
   48.4309    9.2398   13.7549 C   0  0  0  0  0  0  0  0  0  0  0  0
   50.5467    8.7733   14.8726 C   0  0  0  0  0  0  0  0  0  0  0  0
   52.6888    7.2381    8.1019 C   0  0  0  0  0  0  0  0  0  0  0  0
   54.7289    7.9218    9.2151 C   0  0  0  0  0  0  0  0  0  0  0  0
   54.7259    7.5280    6.8419 C   0  0  0  0  0  0  0  0  0  0  0  0
   55.4098    7.8861    7.9962 C   0  0  0  0  0  0  0  0  0  0  0  0
   53.3745    7.2038    6.8836 C   0  0  0  0  0  0  0  0  0  0  0  0
   55.3763    7.4928    5.6721 F   0  0  0  0  0  0  0  0  0  0  0  0
   50.5033    9.1096   12.4424 C   0  0  0  0  0  0  0  0  0  0  0  0
   47.9734   12.4338   17.9897 C   0  0  0  0  0  0  0  0  0  0  0  0
   46.9950   11.5317   20.5131 C   0  0  0  0  0  0  0  0  0  0  0  0
   50.5865    7.6200   12.0662 C   0  0  0  0  0  0  0  0  0  0  0  0
   51.1812    7.4101   10.6695 C   0  0  0  0  0  0  0  0  0  0  0  0
   47.6142   13.3418   18.9941 C   0  0  0  0  0  0  0  0  0  0  0  0
   47.1295   12.8958   20.2416 C   0  0  0  0  0  0  0  0  0  0  0  0
   47.0664    8.6680   20.2700 H   0  0  0  0  0  0  0  0  0  0  0  0
   48.6713   10.9775   15.7951 H   0  0  0  0  0  0  0  0  0  0  0  0
   50.3328    8.7778   17.0079 H   0  0  0  0  0  0  0  0  0  0  0  0
   50.7863   10.3370   16.3529 H   0  0  0  0  0  0  0  0  0  0  0  0
   47.8356    8.0699   15.4649 H   0  0  0  0  0  0  0  0  0  0  0  0
   46.8056    9.4628   15.1679 H   0  0  0  0  0  0  0  0  0  0  0  0
   47.9810   10.1066   13.2557 H   0  0  0  0  0  0  0  0  0  0  0  0
   48.1123    8.3545   13.1937 H   0  0  0  0  0  0  0  0  0  0  0  0
   51.6379    8.8381   14.7808 H   0  0  0  0  0  0  0  0  0  0  0  0
   50.2933    7.7067   14.9227 H   0  0  0  0  0  0  0  0  0  0  0  0
   51.6355    6.9735    8.1042 H   0  0  0  0  0  0  0  0  0  0  0  0
   55.2693    8.2018   10.1182 H   0  0  0  0  0  0  0  0  0  0  0  0
   56.4656    8.1339    7.9438 H   0  0  0  0  0  0  0  0  0  0  0  0
   52.8639    6.9244    5.9667 H   0  0  0  0  0  0  0  0  0  0  0  0
   49.9588    9.6526   11.6590 H   0  0  0  0  0  0  0  0  0  0  0  0
   51.5102    9.5434   12.4412 H   0  0  0  0  0  0  0  0  0  0  0  0
   48.3469   12.7910   17.0383 H   0  0  0  0  0  0  0  0  0  0  0  0
   46.6283   11.1827   21.4704 H   0  0  0  0  0  0  0  0  0  0  0  0
   49.5834    7.1796   12.0706 H   0  0  0  0  0  0  0  0  0  0  0  0
   51.1797    7.0696   12.8053 H   0  0  0  0  0  0  0  0  0  0  0  0
   50.6748    8.0689    9.9558 H   0  0  0  0  0  0  0  0  0  0  0  0
   51.0062    6.3680   10.3773 H   0  0  0  0  0  0  0  0  0  0  0  0
   47.7120   14.4101   18.8107 H   0  0  0  0  0  0  0  0  0  0  0  0
   46.8603   13.6260   21.0022 H   0  0  0  0  0  0  0  0  0  0  0  0
  2  1  1  0
  3  1  1  0
  4  2  1  0
  5  3  1  0
  6  2  1  0
  7 14  1  0
  8  1  2  0
  9  6  1  0
 10  6  1  0
 11 26  1  0
 12 11  1  0
 13 11  2  0
 14 10  1  0
 15  9  1  0
 16 12  2  0
 17 12  1  0
 18 19  1  0
 19 17  2  0
 20 16  1  0
 21 18  1  0
 22  7  1  0
 23  4  2  0
 24  5  2  0
 25 22  1  0
 26 25  1  0
 27 23  1  0
 28 24  1  0
  5  4  1  0
 28 27  2  0
 15  7  1  0
 20 18  2  0
  3 29  1  0
  6 30  1  0
  9 31  1  0
  9 32  1  0
 10 33  1  0
 10 34  1  0
 14 35  1  0
 14 36  1  0
 15 37  1  0
 15 38  1  0
 16 39  1  0
 17 40  1  0
 19 41  1  0
 20 42  1  0
 22 43  1  0
 22 44  1  0
 23 45  1  0
 24 46  1  0
 25 47  1  0
 25 48  1  0
 26 49  1  0
 26 50  1  0
 27 51  1  0
 28 52  1  0
M  END
> <Uni-Dock RESULT> 
ENERGY=   -4.106  LOWER_BOUND=    6.151  UPPER_BOUND=    9.610
INTER + INTRA:          -4.106
INTER:                  -4.106
INTRA:                   0.000
UNBOUND:                 0.000

$$$$

     RDKit          3D

 52 55  0  0  0  0  0  0  0  0999 V2000
   53.2563    3.8159   18.8851 C   0  0  0  0  0  0  0  0  0  0  0  0
   52.0912    4.3687   19.4642 N   0  0  0  0  0  0  0  0  0  0  0  0
   54.1484    3.5674   19.9386 N   0  0  0  0  0  0  0  0  0  0  0  0
   52.2999    4.4884   20.8495 C   0  0  0  0  0  0  0  0  0  0  0  0
   53.5699    3.9829   21.1303 C   0  0  0  0  0  0  0  0  0  0  0  0
   50.9218    4.8413   18.7407 C   0  0  0  0  0  0  0  0  0  0  0  0
   49.0230    5.6993   16.9298 N   0  0  0  0  0  0  0  0  0  0  0  0
   53.4819    3.5929   17.7074 O   0  0  0  0  0  0  0  0  0  0  0  0
   51.2310    6.1027   17.9159 C   0  0  0  0  0  0  0  0  0  0  0  0
   50.3030    3.7542   17.8577 C   0  0  0  0  0  0  0  0  0  0  0  0
   47.1031    7.6756   13.3077 C   0  0  0  0  0  0  0  0  0  0  0  0
   45.9638    8.2321   12.5132 C   0  0  0  0  0  0  0  0  0  0  0  0
   47.9649    8.4428   13.7308 O   0  0  0  0  0  0  0  0  0  0  0  0
   49.0118    4.2579   17.2010 C   0  0  0  0  0  0  0  0  0  0  0  0
   50.3631    6.2133   16.6588 C   0  0  0  0  0  0  0  0  0  0  0  0
   45.0020    7.4132   11.9040 C   0  0  0  0  0  0  0  0  0  0  0  0
   45.8669    9.6266   12.3743 C   0  0  0  0  0  0  0  0  0  0  0  0
   43.8768    9.3682   11.0477 C   0  0  0  0  0  0  0  0  0  0  0  0
   44.8220   10.1942   11.6417 C   0  0  0  0  0  0  0  0  0  0  0  0
   43.9574    7.9857   11.1715 C   0  0  0  0  0  0  0  0  0  0  0  0
   42.8742    9.9096   10.3447 F   0  0  0  0  0  0  0  0  0  0  0  0
   48.0156    6.1227   15.9503 C   0  0  0  0  0  0  0  0  0  0  0  0
   51.4980    4.9931   21.8511 C   0  0  0  0  0  0  0  0  0  0  0  0
   54.0954    3.9499   22.4020 C   0  0  0  0  0  0  0  0  0  0  0  0
   48.2979    5.7513   14.4841 C   0  0  0  0  0  0  0  0  0  0  0  0
   47.1581    6.1756   13.5518 C   0  0  0  0  0  0  0  0  0  0  0  0
   52.0082    4.9711   23.1555 C   0  0  0  0  0  0  0  0  0  0  0  0
   53.2922    4.4544   23.4282 C   0  0  0  0  0  0  0  0  0  0  0  0
   55.0678    3.1799   19.8084 H   0  0  0  0  0  0  0  0  0  0  0  0
   50.1583    5.1098   19.4814 H   0  0  0  0  0  0  0  0  0  0  0  0
   52.2841    6.1381   17.6122 H   0  0  0  0  0  0  0  0  0  0  0  0
   51.0737    6.9808   18.5561 H   0  0  0  0  0  0  0  0  0  0  0  0
   51.0083    3.4550   17.0728 H   0  0  0  0  0  0  0  0  0  0  0  0
   50.0910    2.8532   18.4461 H   0  0  0  0  0  0  0  0  0  0  0  0
   48.1687    4.0472   17.8702 H   0  0  0  0  0  0  0  0  0  0  0  0
   48.8483    3.6651   16.2944 H   0  0  0  0  0  0  0  0  0  0  0  0
   50.3270    7.2694   16.3646 H   0  0  0  0  0  0  0  0  0  0  0  0
   50.8339    5.6673   15.8313 H   0  0  0  0  0  0  0  0  0  0  0  0
   45.0425    6.3304   11.9775 H   0  0  0  0  0  0  0  0  0  0  0  0
   46.6068   10.2780   12.8373 H   0  0  0  0  0  0  0  0  0  0  0  0
   44.7434   11.2714   11.5320 H   0  0  0  0  0  0  0  0  0  0  0  0
   43.2068    7.3623   10.6946 H   0  0  0  0  0  0  0  0  0  0  0  0
   47.0425    5.7113   16.2486 H   0  0  0  0  0  0  0  0  0  0  0  0
   47.9028    7.2099   16.0364 H   0  0  0  0  0  0  0  0  0  0  0  0
   50.5118    5.3958   21.6568 H   0  0  0  0  0  0  0  0  0  0  0  0
   55.0839    3.5563   22.6039 H   0  0  0  0  0  0  0  0  0  0  0  0
   48.4165    4.6660   14.3924 H   0  0  0  0  0  0  0  0  0  0  0  0
   49.2371    6.2044   14.1469 H   0  0  0  0  0  0  0  0  0  0  0  0
   46.2028    5.8382   13.9681 H   0  0  0  0  0  0  0  0  0  0  0  0
   47.3134    5.6911   12.5806 H   0  0  0  0  0  0  0  0  0  0  0  0
   51.4052    5.3609   23.9735 H   0  0  0  0  0  0  0  0  0  0  0  0
   53.6611    4.4527   24.4519 H   0  0  0  0  0  0  0  0  0  0  0  0
  2  1  1  0
  3  1  1  0
  4  2  1  0
  5  3  1  0
  6  2  1  0
  7 14  1  0
  8  1  2  0
  9  6  1  0
 10  6  1  0
 11 26  1  0
 12 11  1  0
 13 11  2  0
 14 10  1  0
 15  9  1  0
 16 12  2  0
 17 12  1  0
 18 19  1  0
 19 17  2  0
 20 16  1  0
 21 18  1  0
 22  7  1  0
 23  4  2  0
 24  5  2  0
 25 22  1  0
 26 25  1  0
 27 23  1  0
 28 24  1  0
  5  4  1  0
 28 27  2  0
 15  7  1  0
 20 18  2  0
  3 29  1  0
  6 30  1  0
  9 31  1  0
  9 32  1  0
 10 33  1  0
 10 34  1  0
 14 35  1  0
 14 36  1  0
 15 37  1  0
 15 38  1  0
 16 39  1  0
 17 40  1  0
 19 41  1  0
 20 42  1  0
 22 43  1  0
 22 44  1  0
 23 45  1  0
 24 46  1  0
 25 47  1  0
 25 48  1  0
 26 49  1  0
 26 50  1  0
 27 51  1  0
 28 52  1  0
M  END
> <Uni-Dock RESULT> 
ENERGY=   -4.048  LOWER_BOUND=    7.516  UPPER_BOUND=   10.051
INTER + INTRA:          -4.048
INTER:                  -4.048
INTRA:                   0.000
UNBOUND:                 0.000

$$$$

     RDKit          3D

 52 55  0  0  0  0  0  0  0  0999 V2000
   53.2190    3.1940   18.8028 C   0  0  0  0  0  0  0  0  0  0  0  0
   52.3811    4.1428   19.4321 N   0  0  0  0  0  0  0  0  0  0  0  0
   54.1188    2.7433   19.7799 N   0  0  0  0  0  0  0  0  0  0  0  0
   52.8023    4.2894   20.7655 C   0  0  0  0  0  0  0  0  0  0  0  0
   53.8701    3.4143   20.9695 C   0  0  0  0  0  0  0  0  0  0  0  0
   51.3375    4.9207   18.7840 C   0  0  0  0  0  0  0  0  0  0  0  0
   49.5858    6.2217   17.0928 N   0  0  0  0  0  0  0  0  0  0  0  0
   53.2002    2.8218   17.6414 O   0  0  0  0  0  0  0  0  0  0  0  0
   51.9189    5.9435   17.7927 C   0  0  0  0  0  0  0  0  0  0  0  0
   50.2904    4.0372   18.1002 C   0  0  0  0  0  0  0  0  0  0  0  0
   47.9267    8.4468   13.4862 C   0  0  0  0  0  0  0  0  0  0  0  0
   46.9285    9.2883   12.7553 C   0  0  0  0  0  0  0  0  0  0  0  0
   49.0373    8.9146   13.7273 O   0  0  0  0  0  0  0  0  0  0  0  0
   49.1516    4.8897   17.5271 C   0  0  0  0  0  0  0  0  0  0  0  0
   50.9702    6.2413   16.6277 C   0  0  0  0  0  0  0  0  0  0  0  0
   45.6825    8.7911   12.3466 C   0  0  0  0  0  0  0  0  0  0  0  0
   47.2643   10.6218   12.4683 C   0  0  0  0  0  0  0  0  0  0  0  0
   45.1358   10.9389   11.3930 C   0  0  0  0  0  0  0  0  0  0  0  0
   46.3665   11.4472   11.7875 C   0  0  0  0  0  0  0  0  0  0  0  0
   44.7866    9.6209   11.6653 C   0  0  0  0  0  0  0  0  0  0  0  0
   44.2733   11.7278   10.7400 F   0  0  0  0  0  0  0  0  0  0  0  0
   48.6437    6.8805   16.1807 C   0  0  0  0  0  0  0  0  0  0  0  0
   52.3469    5.1042   21.7803 C   0  0  0  0  0  0  0  0  0  0  0  0
   54.5242    3.3039   22.1755 C   0  0  0  0  0  0  0  0  0  0  0  0
   48.5917    6.3286   14.7454 C   0  0  0  0  0  0  0  0  0  0  0  0
   47.5322    7.0357   13.8935 C   0  0  0  0  0  0  0  0  0  0  0  0
   52.9947    5.0117   23.0188 C   0  0  0  0  0  0  0  0  0  0  0  0
   54.0708    4.1208   23.2146 C   0  0  0  0  0  0  0  0  0  0  0  0
   54.8397    2.0647   19.6006 H   0  0  0  0  0  0  0  0  0  0  0  0
   50.8073    5.4811   19.5641 H   0  0  0  0  0  0  0  0  0  0  0  0
   52.8769    5.6056   17.3797 H   0  0  0  0  0  0  0  0  0  0  0  0
   52.1384    6.8692   18.3408 H   0  0  0  0  0  0  0  0  0  0  0  0
   50.7504    3.4639   17.2860 H   0  0  0  0  0  0  0  0  0  0  0  0
   49.8834    3.3037   18.8066 H   0  0  0  0  0  0  0  0  0  0  0  0
   48.3840    5.0204   18.2996 H   0  0  0  0  0  0  0  0  0  0  0  0
   48.6863    4.3188   16.7162 H   0  0  0  0  0  0  0  0  0  0  0  0
   51.2340    7.2248   16.2198 H   0  0  0  0  0  0  0  0  0  0  0  0
   51.1255    5.5103   15.8239 H   0  0  0  0  0  0  0  0  0  0  0  0
   45.3846    7.7646   12.5392 H   0  0  0  0  0  0  0  0  0  0  0  0
   48.2289   11.0240   12.7747 H   0  0  0  0  0  0  0  0  0  0  0  0
   46.6220   12.4784   11.5639 H   0  0  0  0  0  0  0  0  0  0  0  0
   43.8190    9.2476   11.3432 H   0  0  0  0  0  0  0  0  0  0  0  0
   47.6400    6.8380   16.6232 H   0  0  0  0  0  0  0  0  0  0  0  0
   48.8969    7.9470   16.1530 H   0  0  0  0  0  0  0  0  0  0  0  0
   51.5243    5.7950   21.6441 H   0  0  0  0  0  0  0  0  0  0  0  0
   55.3530    2.6215   22.3179 H   0  0  0  0  0  0  0  0  0  0  0  0
   48.3439    5.2617   14.7669 H   0  0  0  0  0  0  0  0  0  0  0  0
   49.5718    6.4188   14.2633 H   0  0  0  0  0  0  0  0  0  0  0  0
   46.5847    7.0656   14.4423 H   0  0  0  0  0  0  0  0  0  0  0  0
   47.3918    6.4563   12.9734 H   0  0  0  0  0  0  0  0  0  0  0  0
   52.6642    5.6388   23.8447 H   0  0  0  0  0  0  0  0  0  0  0  0
   54.5547    4.0732   24.1881 H   0  0  0  0  0  0  0  0  0  0  0  0
  2  1  1  0
  3  1  1  0
  4  2  1  0
  5  3  1  0
  6  2  1  0
  7 14  1  0
  8  1  2  0
  9  6  1  0
 10  6  1  0
 11 26  1  0
 12 11  1  0
 13 11  2  0
 14 10  1  0
 15  9  1  0
 16 12  2  0
 17 12  1  0
 18 19  1  0
 19 17  2  0
 20 16  1  0
 21 18  1  0
 22  7  1  0
 23  4  2  0
 24  5  2  0
 25 22  1  0
 26 25  1  0
 27 23  1  0
 28 24  1  0
  5  4  1  0
 28 27  2  0
 15  7  1  0
 20 18  2  0
  3 29  1  0
  6 30  1  0
  9 31  1  0
  9 32  1  0
 10 33  1  0
 10 34  1  0
 14 35  1  0
 14 36  1  0
 15 37  1  0
 15 38  1  0
 16 39  1  0
 17 40  1  0
 19 41  1  0
 20 42  1  0
 22 43  1  0
 22 44  1  0
 23 45  1  0
 24 46  1  0
 25 47  1  0
 25 48  1  0
 26 49  1  0
 26 50  1  0
 27 51  1  0
 28 52  1  0
M  END
> <Uni-Dock RESULT> 
ENERGY=   -3.950  LOWER_BOUND=    7.545  UPPER_BOUND=    9.707
INTER + INTRA:          -3.950
INTER:                  -3.950
INTRA:                   0.000
UNBOUND:                 0.000

$$$$

     RDKit          3D

 52 55  0  0  0  0  0  0  0  0999 V2000
   49.1776   12.6506   17.9350 C   0  0  0  0  0  0  0  0  0  0  0  0
   50.0578   11.6644   17.4341 N   0  0  0  0  0  0  0  0  0  0  0  0
   49.8691   13.3260   18.9515 N   0  0  0  0  0  0  0  0  0  0  0  0
   51.2528   11.7216   18.1728 C   0  0  0  0  0  0  0  0  0  0  0  0
   51.1264   12.7565   19.1004 C   0  0  0  0  0  0  0  0  0  0  0  0
   49.7423   10.6816   16.4100 C   0  0  0  0  0  0  0  0  0  0  0  0
   48.6292    8.9724   14.5497 N   0  0  0  0  0  0  0  0  0  0  0  0
   48.0341   12.8910   17.5852 O   0  0  0  0  0  0  0  0  0  0  0  0
   48.7106    9.6525   16.9037 C   0  0  0  0  0  0  0  0  0  0  0  0
   49.2792   11.3293   15.1022 C   0  0  0  0  0  0  0  0  0  0  0  0
   45.7051    6.1636   12.4828 C   0  0  0  0  0  0  0  0  0  0  0  0
   45.3027    5.1158   11.4935 C   0  0  0  0  0  0  0  0  0  0  0  0
   45.6960    5.8869   13.6802 O   0  0  0  0  0  0  0  0  0  0  0  0
   49.0649   10.2675   14.0165 C   0  0  0  0  0  0  0  0  0  0  0  0
   47.8391    9.1008   15.7715 C   0  0  0  0  0  0  0  0  0  0  0  0
   45.1812    5.3844   10.1224 C   0  0  0  0  0  0  0  0  0  0  0  0
   45.0338    3.8208   11.9668 C   0  0  0  0  0  0  0  0  0  0  0  0
   44.5416    3.0916    9.7278 C   0  0  0  0  0  0  0  0  0  0  0  0
   44.6539    2.8085   11.0827 C   0  0  0  0  0  0  0  0  0  0  0  0
   44.8007    4.3678    9.2406 C   0  0  0  0  0  0  0  0  0  0  0  0
   44.1774    2.1232    8.8780 F   0  0  0  0  0  0  0  0  0  0  0  0
   48.0253    8.0931   13.5419 C   0  0  0  0  0  0  0  0  0  0  0  0
   52.4019   10.9627   18.1063 C   0  0  0  0  0  0  0  0  0  0  0  0
   52.1230   13.0863   19.9906 C   0  0  0  0  0  0  0  0  0  0  0  0
   46.6129    8.4765   13.0669 C   0  0  0  0  0  0  0  0  0  0  0  0
   46.0995    7.5393   11.9685 C   0  0  0  0  0  0  0  0  0  0  0  0
   53.4328   11.2774   19.0009 C   0  0  0  0  0  0  0  0  0  0  0  0
   53.2954   12.3281   19.9322 C   0  0  0  0  0  0  0  0  0  0  0  0
   49.4713   14.0774   19.4896 H   0  0  0  0  0  0  0  0  0  0  0  0
   50.6656   10.1373   16.1755 H   0  0  0  0  0  0  0  0  0  0  0  0
   48.0518   10.0777   17.6702 H   0  0  0  0  0  0  0  0  0  0  0  0
   49.2497    8.8310   17.3935 H   0  0  0  0  0  0  0  0  0  0  0  0
   48.3394   11.8726   15.2592 H   0  0  0  0  0  0  0  0  0  0  0  0
   50.0123   12.0683   14.7566 H   0  0  0  0  0  0  0  0  0  0  0  0
   50.0101   10.1116   13.4823 H   0  0  0  0  0  0  0  0  0  0  0  0
   48.3568   10.6770   13.2879 H   0  0  0  0  0  0  0  0  0  0  0  0
   47.4471    8.1271   16.0903 H   0  0  0  0  0  0  0  0  0  0  0  0
   46.9738    9.7570   15.6131 H   0  0  0  0  0  0  0  0  0  0  0  0
   45.3705    6.3725    9.7135 H   0  0  0  0  0  0  0  0  0  0  0  0
   45.1194    3.5948   13.0288 H   0  0  0  0  0  0  0  0  0  0  0  0
   44.4454    1.8063   11.4444 H   0  0  0  0  0  0  0  0  0  0  0  0
   44.7026    4.5633    8.1769 H   0  0  0  0  0  0  0  0  0  0  0  0
   48.6979    8.0390   12.6760 H   0  0  0  0  0  0  0  0  0  0  0  0
   48.0090    7.0766   13.9528 H   0  0  0  0  0  0  0  0  0  0  0  0
   52.5207   10.1513   17.3992 H   0  0  0  0  0  0  0  0  0  0  0  0
   52.0092   13.8910   20.7065 H   0  0  0  0  0  0  0  0  0  0  0  0
   46.6218    9.4935   12.6596 H   0  0  0  0  0  0  0  0  0  0  0  0
   45.9111    8.4761   13.9087 H   0  0  0  0  0  0  0  0  0  0  0  0
   46.8659    7.4333   11.1932 H   0  0  0  0  0  0  0  0  0  0  0  0
   45.2050    7.9919   11.5245 H   0  0  0  0  0  0  0  0  0  0  0  0
   54.3557   10.7009   18.9795 H   0  0  0  0  0  0  0  0  0  0  0  0
   54.1137   12.5472   20.6152 H   0  0  0  0  0  0  0  0  0  0  0  0
  2  1  1  0
  3  1  1  0
  4  2  1  0
  5  3  1  0
  6  2  1  0
  7 14  1  0
  8  1  2  0
  9  6  1  0
 10  6  1  0
 11 26  1  0
 12 11  1  0
 13 11  2  0
 14 10  1  0
 15  9  1  0
 16 12  2  0
 17 12  1  0
 18 19  1  0
 19 17  2  0
 20 16  1  0
 21 18  1  0
 22  7  1  0
 23  4  2  0
 24  5  2  0
 25 22  1  0
 26 25  1  0
 27 23  1  0
 28 24  1  0
  5  4  1  0
 28 27  2  0
 15  7  1  0
 20 18  2  0
  3 29  1  0
  6 30  1  0
  9 31  1  0
  9 32  1  0
 10 33  1  0
 10 34  1  0
 14 35  1  0
 14 36  1  0
 15 37  1  0
 15 38  1  0
 16 39  1  0
 17 40  1  0
 19 41  1  0
 20 42  1  0
 22 43  1  0
 22 44  1  0
 23 45  1  0
 24 46  1  0
 25 47  1  0
 25 48  1  0
 26 49  1  0
 26 50  1  0
 27 51  1  0
 28 52  1  0
M  END
> <Uni-Dock RESULT> 
ENERGY=   -3.935  LOWER_BOUND=    5.254  UPPER_BOUND=   11.074
INTER + INTRA:          -3.935
INTER:                  -3.935
INTRA:                   0.000
UNBOUND:                 0.000

$$$$

     RDKit          3D

 52 55  0  0  0  0  0  0  0  0999 V2000
   47.9965    9.9932   23.1654 C   0  0  0  0  0  0  0  0  0  0  0  0
   47.9581    9.2898   21.9398 N   0  0  0  0  0  0  0  0  0  0  0  0
   47.8694    9.0348   24.1817 N   0  0  0  0  0  0  0  0  0  0  0  0
   47.7682    7.9249   22.2189 C   0  0  0  0  0  0  0  0  0  0  0  0
   47.7233    7.7800   23.6061 C   0  0  0  0  0  0  0  0  0  0  0  0
   47.9917    9.8856   20.6139 C   0  0  0  0  0  0  0  0  0  0  0  0
   47.9617   11.4825   18.3621 N   0  0  0  0  0  0  0  0  0  0  0  0
   48.1076   11.1946   23.3441 O   0  0  0  0  0  0  0  0  0  0  0  0
   46.7101   10.6814   20.3120 C   0  0  0  0  0  0  0  0  0  0  0  0
   49.2335   10.7544   20.3957 C   0  0  0  0  0  0  0  0  0  0  0  0
   46.9111   14.8331   15.4671 C   0  0  0  0  0  0  0  0  0  0  0  0
   46.8557   15.4988   14.1283 C   0  0  0  0  0  0  0  0  0  0  0  0
   45.8640   14.4570   15.9891 O   0  0  0  0  0  0  0  0  0  0  0  0
   49.2876   11.2716   18.9529 C   0  0  0  0  0  0  0  0  0  0  0  0
   46.9534   11.8503   19.3527 C   0  0  0  0  0  0  0  0  0  0  0  0
   47.9898   16.0533   13.5175 C   0  0  0  0  0  0  0  0  0  0  0  0
   45.6164   15.5702   13.4706 C   0  0  0  0  0  0  0  0  0  0  0  0
   46.6471   16.7234   11.6281 C   0  0  0  0  0  0  0  0  0  0  0  0
   45.5131   16.1823   12.2195 C   0  0  0  0  0  0  0  0  0  0  0  0
   47.8819   16.6651   12.2646 C   0  0  0  0  0  0  0  0  0  0  0  0
   46.5510   17.3109   10.4289 F   0  0  0  0  0  0  0  0  0  0  0  0
   47.9750   12.3496   17.1783 C   0  0  0  0  0  0  0  0  0  0  0  0
   47.6294    6.8355   21.3853 C   0  0  0  0  0  0  0  0  0  0  0  0
   47.5462    6.5627   24.2237 C   0  0  0  0  0  0  0  0  0  0  0  0
   48.1986   13.8493   17.4393 C   0  0  0  0  0  0  0  0  0  0  0  0
   48.2641   14.6576   16.1390 C   0  0  0  0  0  0  0  0  0  0  0  0
   47.4484    5.5839   21.9877 C   0  0  0  0  0  0  0  0  0  0  0  0
   47.4081    5.4488   23.3914 C   0  0  0  0  0  0  0  0  0  0  0  0
   47.8558    9.2626   25.1617 H   0  0  0  0  0  0  0  0  0  0  0  0
   48.0534    9.0692   19.8837 H   0  0  0  0  0  0  0  0  0  0  0  0
   46.2550   11.0762   21.2283 H   0  0  0  0  0  0  0  0  0  0  0  0
   45.9701    9.9937   19.8819 H   0  0  0  0  0  0  0  0  0  0  0  0
   49.2232   11.6109   21.0808 H   0  0  0  0  0  0  0  0  0  0  0  0
   50.1454   10.1876   20.6194 H   0  0  0  0  0  0  0  0  0  0  0  0
   49.8200   10.5392   18.3340 H   0  0  0  0  0  0  0  0  0  0  0  0
   49.8940   12.1839   18.9506 H   0  0  0  0  0  0  0  0  0  0  0  0
   45.9994   12.0958   18.8700 H   0  0  0  0  0  0  0  0  0  0  0  0
   47.2630   12.7386   19.9180 H   0  0  0  0  0  0  0  0  0  0  0  0
   48.9659   16.0288   13.9930 H   0  0  0  0  0  0  0  0  0  0  0  0
   44.7243   15.1483   13.9315 H   0  0  0  0  0  0  0  0  0  0  0  0
   44.5573   16.2395   11.7078 H   0  0  0  0  0  0  0  0  0  0  0  0
   48.7526   17.0986   11.7815 H   0  0  0  0  0  0  0  0  0  0  0  0
   48.7424   11.9829   16.4842 H   0  0  0  0  0  0  0  0  0  0  0  0
   47.0242   12.2084   16.6508 H   0  0  0  0  0  0  0  0  0  0  0  0
   47.6550    6.9240   20.3064 H   0  0  0  0  0  0  0  0  0  0  0  0
   47.5113    6.4664   25.3019 H   0  0  0  0  0  0  0  0  0  0  0  0
   49.1452   13.9964   17.9708 H   0  0  0  0  0  0  0  0  0  0  0  0
   47.4064   14.2499   18.0820 H   0  0  0  0  0  0  0  0  0  0  0  0
   48.9569   14.1721   15.4433 H   0  0  0  0  0  0  0  0  0  0  0  0
   48.6434   15.6582   16.3780 H   0  0  0  0  0  0  0  0  0  0  0  0
   47.3349    4.6998   21.3632 H   0  0  0  0  0  0  0  0  0  0  0  0
   47.2645    4.4630   23.8294 H   0  0  0  0  0  0  0  0  0  0  0  0
  2  1  1  0
  3  1  1  0
  4  2  1  0
  5  3  1  0
  6  2  1  0
  7 14  1  0
  8  1  2  0
  9  6  1  0
 10  6  1  0
 11 26  1  0
 12 11  1  0
 13 11  2  0
 14 10  1  0
 15  9  1  0
 16 12  2  0
 17 12  1  0
 18 19  1  0
 19 17  2  0
 20 16  1  0
 21 18  1  0
 22  7  1  0
 23  4  2  0
 24  5  2  0
 25 22  1  0
 26 25  1  0
 27 23  1  0
 28 24  1  0
  5  4  1  0
 28 27  2  0
 15  7  1  0
 20 18  2  0
  3 29  1  0
  6 30  1  0
  9 31  1  0
  9 32  1  0
 10 33  1  0
 10 34  1  0
 14 35  1  0
 14 36  1  0
 15 37  1  0
 15 38  1  0
 16 39  1  0
 17 40  1  0
 19 41  1  0
 20 42  1  0
 22 43  1  0
 22 44  1  0
 23 45  1  0
 24 46  1  0
 25 47  1  0
 25 48  1  0
 26 49  1  0
 26 50  1  0
 27 51  1  0
 28 52  1  0
M  END
> <Uni-Dock RESULT> 
ENERGY=   -3.933  LOWER_BOUND=    7.467  UPPER_BOUND=    8.866
INTER + INTRA:          -3.933
INTER:                  -3.933
INTRA:                   0.000
UNBOUND:                 0.000

$$$$

     RDKit          3D

 52 55  0  0  0  0  0  0  0  0999 V2000
   46.8229    5.2353   13.8447 C   0  0  0  0  0  0  0  0  0  0  0  0
   46.5667    5.9196   12.6345 N   0  0  0  0  0  0  0  0  0  0  0  0
   46.0513    4.0643   13.8141 N   0  0  0  0  0  0  0  0  0  0  0  0
   45.6176    5.1841   11.9029 C   0  0  0  0  0  0  0  0  0  0  0  0
   45.3140    4.0375   12.6381 C   0  0  0  0  0  0  0  0  0  0  0  0
   47.1025    7.2184   12.2600 C   0  0  0  0  0  0  0  0  0  0  0  0
   48.2645    9.7156   12.0726 N   0  0  0  0  0  0  0  0  0  0  0  0
   47.5552    5.5692   14.7611 O   0  0  0  0  0  0  0  0  0  0  0  0
   46.5302    8.3469   13.1353 C   0  0  0  0  0  0  0  0  0  0  0  0
   48.6334    7.2445   12.2741 C   0  0  0  0  0  0  0  0  0  0  0  0
   49.6450   13.9189   13.1392 C   0  0  0  0  0  0  0  0  0  0  0  0
   50.1479   15.2961   12.8407 C   0  0  0  0  0  0  0  0  0  0  0  0
   48.5060   13.7834   13.5805 O   0  0  0  0  0  0  0  0  0  0  0  0
   49.1581    8.5933   11.7668 C   0  0  0  0  0  0  0  0  0  0  0  0
   47.5062    9.5150   13.3047 C   0  0  0  0  0  0  0  0  0  0  0  0
   51.4691   15.5430   12.4404 C   0  0  0  0  0  0  0  0  0  0  0  0
   49.2573   16.3742   12.9749 C   0  0  0  0  0  0  0  0  0  0  0  0
   50.9905   17.9043   12.3101 C   0  0  0  0  0  0  0  0  0  0  0  0
   49.6794   17.6786   12.7084 C   0  0  0  0  0  0  0  0  0  0  0  0
   51.8875   16.8506   12.1745 C   0  0  0  0  0  0  0  0  0  0  0  0
   51.3980   19.1537   12.0542 F   0  0  0  0  0  0  0  0  0  0  0  0
   48.9146   11.0281   11.9827 C   0  0  0  0  0  0  0  0  0  0  0  0
   45.0126    5.4313   10.6888 C   0  0  0  0  0  0  0  0  0  0  0  0
   44.4116    3.0919   12.2068 C   0  0  0  0  0  0  0  0  0  0  0  0
   49.8934   11.3788   13.1168 C   0  0  0  0  0  0  0  0  0  0  0  0
   50.5695   12.7362   12.8962 C   0  0  0  0  0  0  0  0  0  0  0  0
   44.0900    4.4845   10.2257 C   0  0  0  0  0  0  0  0  0  0  0  0
   43.7935    3.3272   10.9759 C   0  0  0  0  0  0  0  0  0  0  0  0
   46.0345    3.3904   14.5611 H   0  0  0  0  0  0  0  0  0  0  0  0
   46.7994    7.4174   11.2246 H   0  0  0  0  0  0  0  0  0  0  0  0
   46.2515    7.9829   14.1315 H   0  0  0  0  0  0  0  0  0  0  0  0
   45.5992    8.7025   12.6746 H   0  0  0  0  0  0  0  0  0  0  0  0
   49.0069    7.0771   13.2917 H   0  0  0  0  0  0  0  0  0  0  0  0
   49.0390    6.4342   11.6562 H   0  0  0  0  0  0  0  0  0  0  0  0
   49.2735    8.5412   10.6774 H   0  0  0  0  0  0  0  0  0  0  0  0
   50.1618    8.7356   12.1820 H   0  0  0  0  0  0  0  0  0  0  0  0
   46.9229   10.4091   13.5573 H   0  0  0  0  0  0  0  0  0  0  0  0
   48.1764    9.3213   14.1520 H   0  0  0  0  0  0  0  0  0  0  0  0
   52.1938   14.7415   12.3321 H   0  0  0  0  0  0  0  0  0  0  0  0
   48.2286   16.2018   13.2883 H   0  0  0  0  0  0  0  0  0  0  0  0
   48.9943   18.5145   12.8107 H   0  0  0  0  0  0  0  0  0  0  0  0
   52.9080   17.0549   11.8642 H   0  0  0  0  0  0  0  0  0  0  0  0
   49.4357   11.0955   11.0188 H   0  0  0  0  0  0  0  0  0  0  0  0
   48.1259   11.7882   11.9329 H   0  0  0  0  0  0  0  0  0  0  0  0
   45.2277    6.3164   10.1034 H   0  0  0  0  0  0  0  0  0  0  0  0
   44.1847    2.2080   12.7899 H   0  0  0  0  0  0  0  0  0  0  0  0
   50.6814   10.6198   13.1747 H   0  0  0  0  0  0  0  0  0  0  0  0
   49.3776   11.3774   14.0838 H   0  0  0  0  0  0  0  0  0  0  0  0
   50.9637   12.7847   11.8754 H   0  0  0  0  0  0  0  0  0  0  0  0
   51.4030   12.8212   13.6035 H   0  0  0  0  0  0  0  0  0  0  0  0
   43.5913    4.6441    9.2716 H   0  0  0  0  0  0  0  0  0  0  0  0
   43.0709    2.6109   10.5899 H   0  0  0  0  0  0  0  0  0  0  0  0
  2  1  1  0
  3  1  1  0
  4  2  1  0
  5  3  1  0
  6  2  1  0
  7 14  1  0
  8  1  2  0
  9  6  1  0
 10  6  1  0
 11 26  1  0
 12 11  1  0
 13 11  2  0
 14 10  1  0
 15  9  1  0
 16 12  2  0
 17 12  1  0
 18 19  1  0
 19 17  2  0
 20 16  1  0
 21 18  1  0
 22  7  1  0
 23  4  2  0
 24  5  2  0
 25 22  1  0
 26 25  1  0
 27 23  1  0
 28 24  1  0
  5  4  1  0
 28 27  2  0
 15  7  1  0
 20 18  2  0
  3 29  1  0
  6 30  1  0
  9 31  1  0
  9 32  1  0
 10 33  1  0
 10 34  1  0
 14 35  1  0
 14 36  1  0
 15 37  1  0
 15 38  1  0
 16 39  1  0
 17 40  1  0
 19 41  1  0
 20 42  1  0
 22 43  1  0
 22 44  1  0
 23 45  1  0
 24 46  1  0
 25 47  1  0
 25 48  1  0
 26 49  1  0
 26 50  1  0
 27 51  1  0
 28 52  1  0
M  END
> <Uni-Dock RESULT> 
ENERGY=   -3.921  LOWER_BOUND=    1.396  UPPER_BOUND=    1.588
INTER + INTRA:          -3.921
INTER:                  -3.921
INTRA:                   0.000
UNBOUND:                 0.000

$$$$

     RDKit          3D

 52 55  0  0  0  0  0  0  0  0999 V2000
   46.8992    5.4836   13.8517 C   0  0  0  0  0  0  0  0  0  0  0  0
   46.4743    6.4866   12.9508 N   0  0  0  0  0  0  0  0  0  0  0  0
   45.8856    4.5144   13.8796 N   0  0  0  0  0  0  0  0  0  0  0  0
   45.1976    6.1409   12.4740 C   0  0  0  0  0  0  0  0  0  0  0  0
   44.8494    4.9178   13.0486 C   0  0  0  0  0  0  0  0  0  0  0  0
   47.1821    7.7219   12.6551 C   0  0  0  0  0  0  0  0  0  0  0  0
   48.8232    9.9383   12.5309 N   0  0  0  0  0  0  0  0  0  0  0  0
   47.9306    5.4389   14.5012 O   0  0  0  0  0  0  0  0  0  0  0  0
   47.1992    8.6742   13.8633 C   0  0  0  0  0  0  0  0  0  0  0  0
   48.6027    7.4720   12.1413 C   0  0  0  0  0  0  0  0  0  0  0  0
   51.4674   13.4205   13.7935 C   0  0  0  0  0  0  0  0  0  0  0  0
   52.1872   14.7168   13.5932 C   0  0  0  0  0  0  0  0  0  0  0  0
   50.5160   13.3814   14.5704 O   0  0  0  0  0  0  0  0  0  0  0  0
   49.2733    8.7905   11.7364 C   0  0  0  0  0  0  0  0  0  0  0  0
   48.4417    9.5693   13.8917 C   0  0  0  0  0  0  0  0  0  0  0  0
   53.3466   14.8193   12.8109 C   0  0  0  0  0  0  0  0  0  0  0  0
   51.6777   15.8657   14.2209 C   0  0  0  0  0  0  0  0  0  0  0  0
   53.4597   17.1825   13.2842 C   0  0  0  0  0  0  0  0  0  0  0  0
   52.3143   17.0989   14.0651 C   0  0  0  0  0  0  0  0  0  0  0  0
   53.9809   16.0561   12.6574 C   0  0  0  0  0  0  0  0  0  0  0  0
   54.0723   18.3634   13.1333 F   0  0  0  0  0  0  0  0  0  0  0  0
   49.7244   11.0943   12.4599 C   0  0  0  0  0  0  0  0  0  0  0  0
   44.3405    6.7911   11.6116 C   0  0  0  0  0  0  0  0  0  0  0  0
   43.6524    4.2877   12.7939 C   0  0  0  0  0  0  0  0  0  0  0  0
   51.0520   10.9667   13.2271 C   0  0  0  0  0  0  0  0  0  0  0  0
   51.9496   12.1937   13.0349 C   0  0  0  0  0  0  0  0  0  0  0  0
   43.1152    6.1715   11.3344 C   0  0  0  0  0  0  0  0  0  0  0  0
   42.7752    4.9331   11.9184 C   0  0  0  0  0  0  0  0  0  0  0  0
   45.9237    3.6870   14.4509 H   0  0  0  0  0  0  0  0  0  0  0  0
   46.6442    8.2274   11.8435 H   0  0  0  0  0  0  0  0  0  0  0  0
   47.1482    8.1247   14.8109 H   0  0  0  0  0  0  0  0  0  0  0  0
   46.2937    9.2942   13.8269 H   0  0  0  0  0  0  0  0  0  0  0  0
   49.2080    6.9886   12.9178 H   0  0  0  0  0  0  0  0  0  0  0  0
   48.5887    6.7865   11.2854 H   0  0  0  0  0  0  0  0  0  0  0  0
   49.0417    8.9970   10.6843 H   0  0  0  0  0  0  0  0  0  0  0  0
   50.3571    8.6428   11.7957 H   0  0  0  0  0  0  0  0  0  0  0  0
   48.2042   10.4587   14.4883 H   0  0  0  0  0  0  0  0  0  0  0  0
   49.2629    9.0515   14.4037 H   0  0  0  0  0  0  0  0  0  0  0  0
   53.7806   13.9562   12.3147 H   0  0  0  0  0  0  0  0  0  0  0  0
   50.7804   15.8043   14.8352 H   0  0  0  0  0  0  0  0  0  0  0  0
   51.9237   17.9892   14.5482 H   0  0  0  0  0  0  0  0  0  0  0  0
   54.8795   16.1484   12.0546 H   0  0  0  0  0  0  0  0  0  0  0  0
   49.9339   11.3106   11.4042 H   0  0  0  0  0  0  0  0  0  0  0  0
   49.1741   11.9693   12.8254 H   0  0  0  0  0  0  0  0  0  0  0  0
   44.5863    7.7432   11.1583 H   0  0  0  0  0  0  0  0  0  0  0  0
   43.3953    3.3394   13.2494 H   0  0  0  0  0  0  0  0  0  0  0  0
   51.6045   10.0907   12.8696 H   0  0  0  0  0  0  0  0  0  0  0  0
   50.8649   10.8113   14.2958 H   0  0  0  0  0  0  0  0  0  0  0  0
   52.0205   12.4291   11.9675 H   0  0  0  0  0  0  0  0  0  0  0  0
   52.9493   11.9476   13.4118 H   0  0  0  0  0  0  0  0  0  0  0  0
   42.4115    6.6537   10.6585 H   0  0  0  0  0  0  0  0  0  0  0  0
   41.8149    4.4779   11.6845 H   0  0  0  0  0  0  0  0  0  0  0  0
  2  1  1  0
  3  1  1  0
  4  2  1  0
  5  3  1  0
  6  2  1  0
  7 14  1  0
  8  1  2  0
  9  6  1  0
 10  6  1  0
 11 26  1  0
 12 11  1  0
 13 11  2  0
 14 10  1  0
 15  9  1  0
 16 12  2  0
 17 12  1  0
 18 19  1  0
 19 17  2  0
 20 16  1  0
 21 18  1  0
 22  7  1  0
 23  4  2  0
 24  5  2  0
 25 22  1  0
 26 25  1  0
 27 23  1  0
 28 24  1  0
  5  4  1  0
 28 27  2  0
 15  7  1  0
 20 18  2  0
  3 29  1  0
  6 30  1  0
  9 31  1  0
  9 32  1  0
 10 33  1  0
 10 34  1  0
 14 35  1  0
 14 36  1  0
 15 37  1  0
 15 38  1  0
 16 39  1  0
 17 40  1  0
 19 41  1  0
 20 42  1  0
 22 43  1  0
 22 44  1  0
 23 45  1  0
 24 46  1  0
 25 47  1  0
 25 48  1  0
 26 49  1  0
 26 50  1  0
 27 51  1  0
 28 52  1  0
M  END
> <Uni-Dock RESULT> 
ENERGY=   -3.814  LOWER_BOUND=    2.609  UPPER_BOUND=    2.949
INTER + INTRA:          -3.814
INTER:                  -3.814
INTRA:                   0.000
UNBOUND:                 0.000

$$$$

     RDKit          3D

 52 55  0  0  0  0  0  0  0  0999 V2000
   48.3133   12.7021   16.9319 C   0  0  0  0  0  0  0  0  0  0  0  0
   48.6773   11.3638   17.2053 N   0  0  0  0  0  0  0  0  0  0  0  0
   47.3847   13.0738   17.9153 N   0  0  0  0  0  0  0  0  0  0  0  0
   47.9413   10.9240   18.3197 C   0  0  0  0  0  0  0  0  0  0  0  0
   47.1536   11.9913   18.7532 C   0  0  0  0  0  0  0  0  0  0  0  0
   49.5711   10.5431   16.4041 C   0  0  0  0  0  0  0  0  0  0  0  0
   51.2092    9.3783   14.5117 N   0  0  0  0  0  0  0  0  0  0  0  0
   48.7009   13.4206   16.0257 O   0  0  0  0  0  0  0  0  0  0  0  0
   48.9599   10.2020   15.0340 C   0  0  0  0  0  0  0  0  0  0  0  0
   50.9546   11.1778   16.2380 C   0  0  0  0  0  0  0  0  0  0  0  0
   52.9286    8.1051   10.4950 C   0  0  0  0  0  0  0  0  0  0  0  0
   53.7805    7.2738    9.5884 C   0  0  0  0  0  0  0  0  0  0  0  0
   51.7059    8.0074   10.4187 O   0  0  0  0  0  0  0  0  0  0  0  0
   51.8985   10.2327   15.4845 C   0  0  0  0  0  0  0  0  0  0  0  0
   50.0206   10.0110   13.9458 C   0  0  0  0  0  0  0  0  0  0  0  0
   55.1756    7.4074    9.5371 C   0  0  0  0  0  0  0  0  0  0  0  0
   53.1490    6.3324    8.7588 C   0  0  0  0  0  0  0  0  0  0  0  0
   55.2816    5.6769    7.8591 C   0  0  0  0  0  0  0  0  0  0  0  0
   53.9008    5.5333    7.8946 C   0  0  0  0  0  0  0  0  0  0  0  0
   55.9245    6.6051    8.6704 C   0  0  0  0  0  0  0  0  0  0  0  0
   56.0048    4.9123    7.0314 F   0  0  0  0  0  0  0  0  0  0  0  0
   52.1025    8.7882   13.5081 C   0  0  0  0  0  0  0  0  0  0  0  0
   47.9008    9.7040   18.9607 C   0  0  0  0  0  0  0  0  0  0  0  0
   46.3037   11.9013   19.8321 C   0  0  0  0  0  0  0  0  0  0  0  0
   52.6347    9.7459   12.4279 C   0  0  0  0  0  0  0  0  0  0  0  0
   53.6099    9.0516   11.4711 C   0  0  0  0  0  0  0  0  0  0  0  0
   47.0443    9.5849   20.0627 C   0  0  0  0  0  0  0  0  0  0  0  0
   46.2552   10.6717   20.4942 C   0  0  0  0  0  0  0  0  0  0  0  0
   46.9498   13.9803   17.9545 H   0  0  0  0  0  0  0  0  0  0  0  0
   49.7265    9.5989   16.9408 H   0  0  0  0  0  0  0  0  0  0  0  0
   48.2593   10.9770   14.7006 H   0  0  0  0  0  0  0  0  0  0  0  0
   48.3650    9.2853   15.1400 H   0  0  0  0  0  0  0  0  0  0  0  0
   50.8760   12.1201   15.6823 H   0  0  0  0  0  0  0  0  0  0  0  0
   51.3847   11.4275   17.2155 H   0  0  0  0  0  0  0  0  0  0  0  0
   52.4003    9.5808   16.2100 H   0  0  0  0  0  0  0  0  0  0  0  0
   52.6794   10.8451   15.0206 H   0  0  0  0  0  0  0  0  0  0  0  0
   49.5843    9.3902   13.1536 H   0  0  0  0  0  0  0  0  0  0  0  0
   50.2685   10.9792   13.4924 H   0  0  0  0  0  0  0  0  0  0  0  0
   55.7049    8.1278   10.1537 H   0  0  0  0  0  0  0  0  0  0  0  0
   52.0662    6.2175    8.7825 H   0  0  0  0  0  0  0  0  0  0  0  0
   53.4167    4.8044    7.2519 H   0  0  0  0  0  0  0  0  0  0  0  0
   57.0053    6.6994    8.6212 H   0  0  0  0  0  0  0  0  0  0  0  0
   52.9486    8.3177   14.0257 H   0  0  0  0  0  0  0  0  0  0  0  0
   51.5661    7.9601   13.0298 H   0  0  0  0  0  0  0  0  0  0  0  0
   48.4981    8.8600   18.6391 H   0  0  0  0  0  0  0  0  0  0  0  0
   45.6968   12.7380   20.1553 H   0  0  0  0  0  0  0  0  0  0  0  0
   53.1677   10.5785   12.9002 H   0  0  0  0  0  0  0  0  0  0  0  0
   51.8060   10.1804   11.8573 H   0  0  0  0  0  0  0  0  0  0  0  0
   54.3586    8.5013   12.0509 H   0  0  0  0  0  0  0  0  0  0  0  0
   54.1156    9.8239   10.8796 H   0  0  0  0  0  0  0  0  0  0  0  0
   46.9843    8.6374   20.5949 H   0  0  0  0  0  0  0  0  0  0  0  0
   45.5983   10.5473   21.3528 H   0  0  0  0  0  0  0  0  0  0  0  0
  2  1  1  0
  3  1  1  0
  4  2  1  0
  5  3  1  0
  6  2  1  0
  7 14  1  0
  8  1  2  0
  9  6  1  0
 10  6  1  0
 11 26  1  0
 12 11  1  0
 13 11  2  0
 14 10  1  0
 15  9  1  0
 16 12  2  0
 17 12  1  0
 18 19  1  0
 19 17  2  0
 20 16  1  0
 21 18  1  0
 22  7  1  0
 23  4  2  0
 24  5  2  0
 25 22  1  0
 26 25  1  0
 27 23  1  0
 28 24  1  0
  5  4  1  0
 28 27  2  0
 15  7  1  0
 20 18  2  0
  3 29  1  0
  6 30  1  0
  9 31  1  0
  9 32  1  0
 10 33  1  0
 10 34  1  0
 14 35  1  0
 14 36  1  0
 15 37  1  0
 15 38  1  0
 16 39  1  0
 17 40  1  0
 19 41  1  0
 20 42  1  0
 22 43  1  0
 22 44  1  0
 23 45  1  0
 24 46  1  0
 25 47  1  0
 25 48  1  0
 26 49  1  0
 26 50  1  0
 27 51  1  0
 28 52  1  0
M  END
> <Uni-Dock RESULT> 
ENERGY=   -3.717  LOWER_BOUND=    6.712  UPPER_BOUND=   10.070
INTER + INTRA:          -3.717
INTER:                  -3.717
INTRA:                   0.000
UNBOUND:                 0.000

$$$$
