
     RDKit          3D

 52 55  0  0  0  0  0  0  0  0999 V2000
   45.1828    4.7053   12.7550 C   0  0  0  0  0  0  0  0  0  0  0  0
   45.5129    5.4827   11.6201 N   0  0  0  0  0  0  0  0  0  0  0  0
   44.7264    3.4688   12.2745 N   0  0  0  0  0  0  0  0  0  0  0  0
   45.2921    4.7019   10.4709 C   0  0  0  0  0  0  0  0  0  0  0  0
   44.7997    3.4648   10.8887 C   0  0  0  0  0  0  0  0  0  0  0  0
   46.1001    6.8129   11.6365 C   0  0  0  0  0  0  0  0  0  0  0  0
   47.2869    9.1720   12.9785 N   0  0  0  0  0  0  0  0  0  0  0  0
   45.2657    5.0091   13.9333 O   0  0  0  0  0  0  0  0  0  0  0  0
   45.2426    7.8171   12.4155 C   0  0  0  0  0  0  0  0  0  0  0  0
   47.5350    6.7918   12.1720 C   0  0  0  0  0  0  0  0  0  0  0  0
   48.7353    7.6929   16.9526 C   0  0  0  0  0  0  0  0  0  0  0  0
   48.3073    7.2509   18.3121 C   0  0  0  0  0  0  0  0  0  0  0  0
   49.1856    6.8596   16.1692 O   0  0  0  0  0  0  0  0  0  0  0  0
   48.1141    8.2073   12.2331 C   0  0  0  0  0  0  0  0  0  0  0  0
   45.9159    9.1888   12.4447 C   0  0  0  0  0  0  0  0  0  0  0  0
   48.1590    8.1512   19.3763 C   0  0  0  0  0  0  0  0  0  0  0  0
   48.0600    5.8849   18.5208 C   0  0  0  0  0  0  0  0  0  0  0  0
   47.5097    6.3307   20.8198 C   0  0  0  0  0  0  0  0  0  0  0  0
   47.6581    5.4255   19.7765 C   0  0  0  0  0  0  0  0  0  0  0  0
   47.7573    7.6865   20.6321 C   0  0  0  0  0  0  0  0  0  0  0  0
   47.1256    5.8923   22.0254 F   0  0  0  0  0  0  0  0  0  0  0  0
   47.3019    8.9341   14.4330 C   0  0  0  0  0  0  0  0  0  0  0  0
   45.4859    4.9743    9.1331 C   0  0  0  0  0  0  0  0  0  0  0  0
   44.4765    2.4551   10.0108 C   0  0  0  0  0  0  0  0  0  0  0  0
   48.6169    9.3988   15.0794 C   0  0  0  0  0  0  0  0  0  0  0  0
   48.6158    9.1654   16.5930 C   0  0  0  0  0  0  0  0  0  0  0  0
   45.1639    3.9641    8.2175 C   0  0  0  0  0  0  0  0  0  0  0  0
   44.6641    2.7185    8.6515 C   0  0  0  0  0  0  0  0  0  0  0  0
   44.4318    2.7158   12.8730 H   0  0  0  0  0  0  0  0  0  0  0  0
   46.1408    7.1740   10.6016 H   0  0  0  0  0  0  0  0  0  0  0  0
   44.2560    7.9038   11.9439 H   0  0  0  0  0  0  0  0  0  0  0  0
   45.0624    7.4763   13.4407 H   0  0  0  0  0  0  0  0  0  0  0  0
   47.5750    6.3232   13.1620 H   0  0  0  0  0  0  0  0  0  0  0  0
   48.1624    6.1721   11.5191 H   0  0  0  0  0  0  0  0  0  0  0  0
   48.2287    8.5834   11.2076 H   0  0  0  0  0  0  0  0  0  0  0  0
   49.1332    8.1682   12.6314 H   0  0  0  0  0  0  0  0  0  0  0  0
   45.2960    9.8937   13.0125 H   0  0  0  0  0  0  0  0  0  0  0  0
   45.9478    9.5934   11.4244 H   0  0  0  0  0  0  0  0  0  0  0  0
   48.3617    9.2116   19.2574 H   0  0  0  0  0  0  0  0  0  0  0  0
   48.1749    5.1752   17.7025 H   0  0  0  0  0  0  0  0  0  0  0  0
   47.4615    4.3711   19.9433 H   0  0  0  0  0  0  0  0  0  0  0  0
   47.6396    8.3714   21.4663 H   0  0  0  0  0  0  0  0  0  0  0  0
   47.0944    7.8872   14.6778 H   0  0  0  0  0  0  0  0  0  0  0  0
   46.4988    9.5209   14.8987 H   0  0  0  0  0  0  0  0  0  0  0  0
   45.8701    5.9241    8.7835 H   0  0  0  0  0  0  0  0  0  0  0  0
   44.0974    1.4994   10.3511 H   0  0  0  0  0  0  0  0  0  0  0  0
   48.7451   10.4725   14.8923 H   0  0  0  0  0  0  0  0  0  0  0  0
   49.4802    8.8940   14.6338 H   0  0  0  0  0  0  0  0  0  0  0  0
   47.6982    9.5829   17.0207 H   0  0  0  0  0  0  0  0  0  0  0  0
   49.4760    9.6819   17.0340 H   0  0  0  0  0  0  0  0  0  0  0  0
   45.3022    4.1410    7.1525 H   0  0  0  0  0  0  0  0  0  0  0  0
   44.4243    1.9532    7.9161 H   0  0  0  0  0  0  0  0  0  0  0  0
  2  1  1  0
  3  1  1  0
  4  2  1  0
  5  3  1  0
  6  2  1  0
  7 14  1  0
  8  1  2  0
  9  6  1  0
 10  6  1  0
 11 26  1  0
 12 11  1  0
 13 11  2  0
 14 10  1  0
 15  9  1  0
 16 12  2  0
 17 12  1  0
 18 19  1  0
 19 17  2  0
 20 16  1  0
 21 18  1  0
 22  7  1  0
 23  4  2  0
 24  5  2  0
 25 22  1  0
 26 25  1  0
 27 23  1  0
 28 24  1  0
  5  4  1  0
 28 27  2  0
 15  7  1  0
 20 18  2  0
  3 29  1  0
  6 30  1  0
  9 31  1  0
  9 32  1  0
 10 33  1  0
 10 34  1  0
 14 35  1  0
 14 36  1  0
 15 37  1  0
 15 38  1  0
 16 39  1  0
 17 40  1  0
 19 41  1  0
 20 42  1  0
 22 43  1  0
 22 44  1  0
 23 45  1  0
 24 46  1  0
 25 47  1  0
 25 48  1  0
 26 49  1  0
 26 50  1  0
 27 51  1  0
 28 52  1  0
M  END
> <Uni-Dock RESULT> 
ENERGY=   -6.063  LOWER_BOUND=    0.000  UPPER_BOUND=    0.000
INTER + INTRA:          -6.063
INTER:                  -6.063
INTRA:                   0.000
UNBOUND:                 0.000

$$$$

     RDKit          3D

 52 55  0  0  0  0  0  0  0  0999 V2000
   47.6094    5.8296   18.5764 C   0  0  0  0  0  0  0  0  0  0  0  0
   48.6678    6.7369   18.8176 N   0  0  0  0  0  0  0  0  0  0  0  0
   47.0732    5.4974   19.8294 N   0  0  0  0  0  0  0  0  0  0  0  0
   48.7378    6.9750   20.2024 C   0  0  0  0  0  0  0  0  0  0  0  0
   47.7538    6.1982   20.8151 C   0  0  0  0  0  0  0  0  0  0  0  0
   49.4653    7.4090   17.8044 C   0  0  0  0  0  0  0  0  0  0  0  0
   50.1514    8.1255   15.0132 N   0  0  0  0  0  0  0  0  0  0  0  0
   47.2081    5.3984   17.5085 O   0  0  0  0  0  0  0  0  0  0  0  0
   50.1627    6.4198   16.8632 C   0  0  0  0  0  0  0  0  0  0  0  0
   48.6352    8.4225   17.0108 C   0  0  0  0  0  0  0  0  0  0  0  0
   46.4266    7.3920   12.6328 C   0  0  0  0  0  0  0  0  0  0  0  0
   45.5486    6.3366   12.0480 C   0  0  0  0  0  0  0  0  0  0  0  0
   46.0163    8.0459   13.5894 O   0  0  0  0  0  0  0  0  0  0  0  0
   49.4787    9.0773   15.9142 C   0  0  0  0  0  0  0  0  0  0  0  0
   50.9533    7.1668   15.7897 C   0  0  0  0  0  0  0  0  0  0  0  0
   45.7530    5.8274   10.7580 C   0  0  0  0  0  0  0  0  0  0  0  0
   44.4802    5.8557   12.8213 C   0  0  0  0  0  0  0  0  0  0  0  0
   43.8511    4.3697   11.0370 C   0  0  0  0  0  0  0  0  0  0  0  0
   43.6322    4.8688   12.3149 C   0  0  0  0  0  0  0  0  0  0  0  0
   44.9008    4.8400   10.2548 C   0  0  0  0  0  0  0  0  0  0  0  0
   43.0385    3.4241   10.5487 F   0  0  0  0  0  0  0  0  0  0  0  0
   49.2158    7.4411   14.1029 C   0  0  0  0  0  0  0  0  0  0  0  0
   49.5618    7.7937   20.9456 C   0  0  0  0  0  0  0  0  0  0  0  0
   47.5464    6.1935   22.1758 C   0  0  0  0  0  0  0  0  0  0  0  0
   48.7488    8.3578   12.9607 C   0  0  0  0  0  0  0  0  0  0  0  0
   47.7923    7.6327   12.0094 C   0  0  0  0  0  0  0  0  0  0  0  0
   49.3730    7.8074   22.3337 C   0  0  0  0  0  0  0  0  0  0  0  0
   48.3767    7.0155   22.9422 C   0  0  0  0  0  0  0  0  0  0  0  0
   46.2956    4.8709   19.9514 H   0  0  0  0  0  0  0  0  0  0  0  0
   50.2597    7.9646   18.3174 H   0  0  0  0  0  0  0  0  0  0  0  0
   50.8422    5.7792   17.4387 H   0  0  0  0  0  0  0  0  0  0  0  0
   49.4412    5.7484   16.3852 H   0  0  0  0  0  0  0  0  0  0  0  0
   47.7505    7.9453   16.5739 H   0  0  0  0  0  0  0  0  0  0  0  0
   48.2564    9.1984   17.6877 H   0  0  0  0  0  0  0  0  0  0  0  0
   50.2522    9.6955   16.3895 H   0  0  0  0  0  0  0  0  0  0  0  0
   48.8614    9.7860   15.3527 H   0  0  0  0  0  0  0  0  0  0  0  0
   51.4388    6.4471   15.1190 H   0  0  0  0  0  0  0  0  0  0  0  0
   51.7772    7.7133   16.2675 H   0  0  0  0  0  0  0  0  0  0  0  0
   46.5561    6.1904   10.1234 H   0  0  0  0  0  0  0  0  0  0  0  0
   44.3093    6.2457   13.8239 H   0  0  0  0  0  0  0  0  0  0  0  0
   42.8068    4.4899   12.9093 H   0  0  0  0  0  0  0  0  0  0  0  0
   45.0455    4.4371    9.2570 H   0  0  0  0  0  0  0  0  0  0  0  0
   48.3602    7.0178   14.6393 H   0  0  0  0  0  0  0  0  0  0  0  0
   49.7313    6.5926   13.6334 H   0  0  0  0  0  0  0  0  0  0  0  0
   50.3299    8.4087   20.4943 H   0  0  0  0  0  0  0  0  0  0  0  0
   46.7766    5.5865   22.6362 H   0  0  0  0  0  0  0  0  0  0  0  0
   49.6252    8.6882   12.3890 H   0  0  0  0  0  0  0  0  0  0  0  0
   48.2636    9.2601   13.3469 H   0  0  0  0  0  0  0  0  0  0  0  0
   48.2398    6.6801   11.7066 H   0  0  0  0  0  0  0  0  0  0  0  0
   47.6415    8.2500   11.1165 H   0  0  0  0  0  0  0  0  0  0  0  0
   50.0041    8.4401   22.9550 H   0  0  0  0  0  0  0  0  0  0  0  0
   48.2537    7.0486   24.0228 H   0  0  0  0  0  0  0  0  0  0  0  0
  2  1  1  0
  3  1  1  0
  4  2  1  0
  5  3  1  0
  6  2  1  0
  7 14  1  0
  8  1  2  0
  9  6  1  0
 10  6  1  0
 11 26  1  0
 12 11  1  0
 13 11  2  0
 14 10  1  0
 15  9  1  0
 16 12  2  0
 17 12  1  0
 18 19  1  0
 19 17  2  0
 20 16  1  0
 21 18  1  0
 22  7  1  0
 23  4  2  0
 24  5  2  0
 25 22  1  0
 26 25  1  0
 27 23  1  0
 28 24  1  0
  5  4  1  0
 28 27  2  0
 15  7  1  0
 20 18  2  0
  3 29  1  0
  6 30  1  0
  9 31  1  0
  9 32  1  0
 10 33  1  0
 10 34  1  0
 14 35  1  0
 14 36  1  0
 15 37  1  0
 15 38  1  0
 16 39  1  0
 17 40  1  0
 19 41  1  0
 20 42  1  0
 22 43  1  0
 22 44  1  0
 23 45  1  0
 24 46  1  0
 25 47  1  0
 25 48  1  0
 26 49  1  0
 26 50  1  0
 27 51  1  0
 28 52  1  0
M  END
> <Uni-Dock RESULT> 
ENERGY=   -4.382  LOWER_BOUND=    3.467  UPPER_BOUND=    8.724
INTER + INTRA:          -4.382
INTER:                  -4.382
INTRA:                   0.000
UNBOUND:                 0.000

$$$$

     RDKit          3D

 52 55  0  0  0  0  0  0  0  0999 V2000
   47.6028    6.0889   18.5436 C   0  0  0  0  0  0  0  0  0  0  0  0
   48.5446    7.1435   18.5924 N   0  0  0  0  0  0  0  0  0  0  0  0
   47.1709    5.8765   19.8613 N   0  0  0  0  0  0  0  0  0  0  0  0
   48.6453    7.5839   19.9247 C   0  0  0  0  0  0  0  0  0  0  0  0
   47.7986    6.7886   20.6979 C   0  0  0  0  0  0  0  0  0  0  0  0
   49.2022    7.7559   17.4492 C   0  0  0  0  0  0  0  0  0  0  0  0
   49.6638    8.1441   14.5489 N   0  0  0  0  0  0  0  0  0  0  0  0
   47.2132    5.4637   17.5716 O   0  0  0  0  0  0  0  0  0  0  0  0
   49.9787    6.7347   16.6096 C   0  0  0  0  0  0  0  0  0  0  0  0
   48.2131    8.5368   16.5784 C   0  0  0  0  0  0  0  0  0  0  0  0
   45.9622    6.6295   12.5285 C   0  0  0  0  0  0  0  0  0  0  0  0
   45.2028    5.4022   12.1489 C   0  0  0  0  0  0  0  0  0  0  0  0
   45.5141    7.3585   13.4109 O   0  0  0  0  0  0  0  0  0  0  0  0
   48.9147    9.1259   15.3523 C   0  0  0  0  0  0  0  0  0  0  0  0
   50.6171    7.4112   15.3970 C   0  0  0  0  0  0  0  0  0  0  0  0
   45.4132    4.7426   10.9300 C   0  0  0  0  0  0  0  0  0  0  0  0
   44.2414    4.9103   13.0458 C   0  0  0  0  0  0  0  0  0  0  0  0
   43.7305    3.1190   11.5235 C   0  0  0  0  0  0  0  0  0  0  0  0
   43.5065    3.7653   12.7326 C   0  0  0  0  0  0  0  0  0  0  0  0
   44.6743    3.5970   10.6203 C   0  0  0  0  0  0  0  0  0  0  0  0
   43.0260    2.0214   11.2202 F   0  0  0  0  0  0  0  0  0  0  0  0
   48.7847    7.2277   13.8007 C   0  0  0  0  0  0  0  0  0  0  0  0
   49.3889    8.5946   20.4965 C   0  0  0  0  0  0  0  0  0  0  0  0
   47.6548    6.9533   22.0568 C   0  0  0  0  0  0  0  0  0  0  0  0
   48.1522    7.9079   12.5758 C   0  0  0  0  0  0  0  0  0  0  0  0
   47.2559    6.9431   11.7939 C   0  0  0  0  0  0  0  0  0  0  0  0
   49.2625    8.7835   21.8789 C   0  0  0  0  0  0  0  0  0  0  0  0
   48.4054    7.9713   22.6506 C   0  0  0  0  0  0  0  0  0  0  0  0
   46.4872    5.1837   20.1159 H   0  0  0  0  0  0  0  0  0  0  0  0
   49.9402    8.4717   17.8310 H   0  0  0  0  0  0  0  0  0  0  0  0
   50.7606    6.2706   17.2234 H   0  0  0  0  0  0  0  0  0  0  0  0
   49.3295    5.9190   16.2736 H   0  0  0  0  0  0  0  0  0  0  0  0
   47.3789    7.8978   16.2668 H   0  0  0  0  0  0  0  0  0  0  0  0
   47.7678    9.3495   17.1658 H   0  0  0  0  0  0  0  0  0  0  0  0
   49.6222    9.8953   15.6896 H   0  0  0  0  0  0  0  0  0  0  0  0
   48.1863    9.6664   14.7392 H   0  0  0  0  0  0  0  0  0  0  0  0
   51.1610    6.6676   14.8016 H   0  0  0  0  0  0  0  0  0  0  0  0
   51.3839    8.1167   15.7435 H   0  0  0  0  0  0  0  0  0  0  0  0
   46.1334    5.1062   10.2029 H   0  0  0  0  0  0  0  0  0  0  0  0
   44.0667    5.4159   13.9947 H   0  0  0  0  0  0  0  0  0  0  0  0
   42.7645    3.3775   13.4236 H   0  0  0  0  0  0  0  0  0  0  0  0
   44.8250    3.0762    9.6796 H   0  0  0  0  0  0  0  0  0  0  0  0
   48.0161    6.7844   14.4422 H   0  0  0  0  0  0  0  0  0  0  0  0
   49.3841    6.3900   13.4198 H   0  0  0  0  0  0  0  0  0  0  0  0
   50.0499    9.2277   19.9184 H   0  0  0  0  0  0  0  0  0  0  0  0
   46.9916    6.3291   22.6428 H   0  0  0  0  0  0  0  0  0  0  0  0
   48.9520    8.2574   11.9107 H   0  0  0  0  0  0  0  0  0  0  0  0
   47.5722    8.7903   12.8652 H   0  0  0  0  0  0  0  0  0  0  0  0
   47.8088    6.0187   11.5961 H   0  0  0  0  0  0  0  0  0  0  0  0
   46.9865    7.4035   10.8364 H   0  0  0  0  0  0  0  0  0  0  0  0
   49.8336    9.5707   22.3674 H   0  0  0  0  0  0  0  0  0  0  0  0
   48.3277    8.1435   23.7222 H   0  0  0  0  0  0  0  0  0  0  0  0
  2  1  1  0
  3  1  1  0
  4  2  1  0
  5  3  1  0
  6  2  1  0
  7 14  1  0
  8  1  2  0
  9  6  1  0
 10  6  1  0
 11 26  1  0
 12 11  1  0
 13 11  2  0
 14 10  1  0
 15  9  1  0
 16 12  2  0
 17 12  1  0
 18 19  1  0
 19 17  2  0
 20 16  1  0
 21 18  1  0
 22  7  1  0
 23  4  2  0
 24  5  2  0
 25 22  1  0
 26 25  1  0
 27 23  1  0
 28 24  1  0
  5  4  1  0
 28 27  2  0
 15  7  1  0
 20 18  2  0
  3 29  1  0
  6 30  1  0
  9 31  1  0
  9 32  1  0
 10 33  1  0
 10 34  1  0
 14 35  1  0
 14 36  1  0
 15 37  1  0
 15 38  1  0
 16 39  1  0
 17 40  1  0
 19 41  1  0
 20 42  1  0
 22 43  1  0
 22 44  1  0
 23 45  1  0
 24 46  1  0
 25 47  1  0
 25 48  1  0
 26 49  1  0
 26 50  1  0
 27 51  1  0
 28 52  1  0
M  END
> <Uni-Dock RESULT> 
ENERGY=   -4.355  LOWER_BOUND=    3.302  UPPER_BOUND=    8.681
INTER + INTRA:          -4.355
INTER:                  -4.355
INTRA:                   0.000
UNBOUND:                 0.000

$$$$

     RDKit          3D

 52 55  0  0  0  0  0  0  0  0999 V2000
   50.2517   14.0972   22.6900 C   0  0  0  0  0  0  0  0  0  0  0  0
   50.2175   14.8915   21.5197 N   0  0  0  0  0  0  0  0  0  0  0  0
   50.4328   14.9782   23.7667 N   0  0  0  0  0  0  0  0  0  0  0  0
   50.3381   16.2409   21.8986 C   0  0  0  0  0  0  0  0  0  0  0  0
   50.4780   16.2794   23.2865 C   0  0  0  0  0  0  0  0  0  0  0  0
   49.9720   14.4130   20.1688 C   0  0  0  0  0  0  0  0  0  0  0  0
   49.2852   12.3317   18.1758 N   0  0  0  0  0  0  0  0  0  0  0  0
   50.1460   12.8862   22.7886 O   0  0  0  0  0  0  0  0  0  0  0  0
   50.9789   13.3390   19.7406 C   0  0  0  0  0  0  0  0  0  0  0  0
   48.5350   13.9106   19.9984 C   0  0  0  0  0  0  0  0  0  0  0  0
   47.1906    9.1075   20.4771 C   0  0  0  0  0  0  0  0  0  0  0  0
   47.3820    7.9870   21.4439 C   0  0  0  0  0  0  0  0  0  0  0  0
   46.6190   10.1285   20.8536 O   0  0  0  0  0  0  0  0  0  0  0  0
   48.3143   13.3606   18.5873 C   0  0  0  0  0  0  0  0  0  0  0  0
   50.6592   12.8337   18.3342 C   0  0  0  0  0  0  0  0  0  0  0  0
   47.6543    6.6778   21.0233 C   0  0  0  0  0  0  0  0  0  0  0  0
   47.2713    8.2650   22.8155 C   0  0  0  0  0  0  0  0  0  0  0  0
   47.7174    5.9565   23.3245 C   0  0  0  0  0  0  0  0  0  0  0  0
   47.4420    7.2478   23.7565 C   0  0  0  0  0  0  0  0  0  0  0  0
   47.8234    5.6623   21.9691 C   0  0  0  0  0  0  0  0  0  0  0  0
   47.8802    4.9789   24.2250 F   0  0  0  0  0  0  0  0  0  0  0  0
   49.0901   11.0493   18.8757 C   0  0  0  0  0  0  0  0  0  0  0  0
   50.3300   17.4009   21.1530 C   0  0  0  0  0  0  0  0  0  0  0  0
   50.6190   17.4539   23.9901 C   0  0  0  0  0  0  0  0  0  0  0  0
   47.8777   10.2754   18.3331 C   0  0  0  0  0  0  0  0  0  0  0  0
   47.6942    8.9360   19.0528 C   0  0  0  0  0  0  0  0  0  0  0  0
   50.4729   18.6111   21.8441 C   0  0  0  0  0  0  0  0  0  0  0  0
   50.6166   18.6373   23.2471 C   0  0  0  0  0  0  0  0  0  0  0  0
   50.4840   14.6786   24.7257 H   0  0  0  0  0  0  0  0  0  0  0  0
   50.1077   15.2588   19.4838 H   0  0  0  0  0  0  0  0  0  0  0  0
   51.9932   13.7564   19.7576 H   0  0  0  0  0  0  0  0  0  0  0  0
   50.9836   12.4959   20.4398 H   0  0  0  0  0  0  0  0  0  0  0  0
   48.2989   13.1436   20.7450 H   0  0  0  0  0  0  0  0  0  0  0  0
   47.8333   14.7343   20.1796 H   0  0  0  0  0  0  0  0  0  0  0  0
   48.3816   14.1921   17.8728 H   0  0  0  0  0  0  0  0  0  0  0  0
   47.2864   12.9954   18.4942 H   0  0  0  0  0  0  0  0  0  0  0  0
   51.3816   12.0602   18.0453 H   0  0  0  0  0  0  0  0  0  0  0  0
   50.8128   13.6508   17.6170 H   0  0  0  0  0  0  0  0  0  0  0  0
   47.7261    6.4215   19.9703 H   0  0  0  0  0  0  0  0  0  0  0  0
   47.0569    9.2777   23.1545 H   0  0  0  0  0  0  0  0  0  0  0  0
   47.3617    7.4570   24.8185 H   0  0  0  0  0  0  0  0  0  0  0  0
   48.0332    4.6433   21.6585 H   0  0  0  0  0  0  0  0  0  0  0  0
   49.0155   11.1828   19.9598 H   0  0  0  0  0  0  0  0  0  0  0  0
   49.9694   10.4134   18.7067 H   0  0  0  0  0  0  0  0  0  0  0  0
   50.2191   17.3983   20.0761 H   0  0  0  0  0  0  0  0  0  0  0  0
   50.7244   17.4673   25.0679 H   0  0  0  0  0  0  0  0  0  0  0  0
   48.0306   10.0789   17.2644 H   0  0  0  0  0  0  0  0  0  0  0  0
   46.9584   10.8638   18.4190 H   0  0  0  0  0  0  0  0  0  0  0  0
   48.6464    8.3949   19.0539 H   0  0  0  0  0  0  0  0  0  0  0  0
   46.9513    8.3392   18.5114 H   0  0  0  0  0  0  0  0  0  0  0  0
   50.4722   19.5484   21.2908 H   0  0  0  0  0  0  0  0  0  0  0  0
   50.7244   19.5932   23.7555 H   0  0  0  0  0  0  0  0  0  0  0  0
  2  1  1  0
  3  1  1  0
  4  2  1  0
  5  3  1  0
  6  2  1  0
  7 14  1  0
  8  1  2  0
  9  6  1  0
 10  6  1  0
 11 26  1  0
 12 11  1  0
 13 11  2  0
 14 10  1  0
 15  9  1  0
 16 12  2  0
 17 12  1  0
 18 19  1  0
 19 17  2  0
 20 16  1  0
 21 18  1  0
 22  7  1  0
 23  4  2  0
 24  5  2  0
 25 22  1  0
 26 25  1  0
 27 23  1  0
 28 24  1  0
  5  4  1  0
 28 27  2  0
 15  7  1  0
 20 18  2  0
  3 29  1  0
  6 30  1  0
  9 31  1  0
  9 32  1  0
 10 33  1  0
 10 34  1  0
 14 35  1  0
 14 36  1  0
 15 37  1  0
 15 38  1  0
 16 39  1  0
 17 40  1  0
 19 41  1  0
 20 42  1  0
 22 43  1  0
 22 44  1  0
 23 45  1  0
 24 46  1  0
 25 47  1  0
 25 48  1  0
 26 49  1  0
 26 50  1  0
 27 51  1  0
 28 52  1  0
M  END
> <Uni-Dock RESULT> 
ENERGY=   -4.237  LOWER_BOUND=    7.369  UPPER_BOUND=   11.904
INTER + INTRA:          -4.237
INTER:                  -4.237
INTRA:                   0.000
UNBOUND:                 0.000

$$$$

     RDKit          3D

 52 55  0  0  0  0  0  0  0  0999 V2000
   50.8604    4.9317   18.0173 C   0  0  0  0  0  0  0  0  0  0  0  0
   52.2390    4.7693   18.2904 N   0  0  0  0  0  0  0  0  0  0  0  0
   50.3716    3.6667   17.6583 N   0  0  0  0  0  0  0  0  0  0  0  0
   52.5628    3.4093   18.1335 C   0  0  0  0  0  0  0  0  0  0  0  0
   51.4035    2.7420   17.7359 C   0  0  0  0  0  0  0  0  0  0  0  0
   53.1420    5.8014   18.7740 C   0  0  0  0  0  0  0  0  0  0  0  0
   53.7738    8.5177   19.7727 N   0  0  0  0  0  0  0  0  0  0  0  0
   50.1904    5.9493   18.0731 O   0  0  0  0  0  0  0  0  0  0  0  0
   53.1898    7.0161   17.8398 C   0  0  0  0  0  0  0  0  0  0  0  0
   52.7997    6.2282   20.2047 C   0  0  0  0  0  0  0  0  0  0  0  0
   49.9024   10.1618   21.3179 C   0  0  0  0  0  0  0  0  0  0  0  0
   48.5755   10.7172   20.9208 C   0  0  0  0  0  0  0  0  0  0  0  0
   49.9518    9.0468   21.8330 O   0  0  0  0  0  0  0  0  0  0  0  0
   53.7258    7.3529   20.6736 C   0  0  0  0  0  0  0  0  0  0  0  0
   54.1151    8.0926   18.4061 C   0  0  0  0  0  0  0  0  0  0  0  0
   48.3765   12.0873   20.7008 C   0  0  0  0  0  0  0  0  0  0  0  0
   47.4977    9.8290   20.7782 C   0  0  0  0  0  0  0  0  0  0  0  0
   46.0576   11.6635   20.1883 C   0  0  0  0  0  0  0  0  0  0  0  0
   46.2378   10.3037   20.4088 C   0  0  0  0  0  0  0  0  0  0  0  0
   47.1129   12.5581   20.3320 C   0  0  0  0  0  0  0  0  0  0  0  0
   44.8498   12.1214   19.8352 F   0  0  0  0  0  0  0  0  0  0  0  0
   52.5339    9.3141   19.8015 C   0  0  0  0  0  0  0  0  0  0  0  0
   53.7490    2.7288   18.3100 C   0  0  0  0  0  0  0  0  0  0  0  0
   51.3678    1.3876   17.4936 C   0  0  0  0  0  0  0  0  0  0  0  0
   52.4270   10.1683   21.0750 C   0  0  0  0  0  0  0  0  0  0  0  0
   51.1454   11.0065   21.0872 C   0  0  0  0  0  0  0  0  0  0  0  0
   53.7412    1.3488   18.0691 C   0  0  0  0  0  0  0  0  0  0  0  0
   52.5638    0.6856   17.6647 C   0  0  0  0  0  0  0  0  0  0  0  0
   49.4100    3.4909   17.4204 H   0  0  0  0  0  0  0  0  0  0  0  0
   54.1545    5.3801   18.7902 H   0  0  0  0  0  0  0  0  0  0  0  0
   53.5502    6.7072   16.8509 H   0  0  0  0  0  0  0  0  0  0  0  0
   52.1912    7.4378   17.6831 H   0  0  0  0  0  0  0  0  0  0  0  0
   51.7528    6.5446   20.2774 H   0  0  0  0  0  0  0  0  0  0  0  0
   52.9030    5.3694   20.8797 H   0  0  0  0  0  0  0  0  0  0  0  0
   54.7450    6.9533   20.7622 H   0  0  0  0  0  0  0  0  0  0  0  0
   53.4533    7.6501   21.6915 H   0  0  0  0  0  0  0  0  0  0  0  0
   54.1323    8.9582   17.7324 H   0  0  0  0  0  0  0  0  0  0  0  0
   55.1454    7.7127   18.4100 H   0  0  0  0  0  0  0  0  0  0  0  0
   49.1815   12.8062   20.8221 H   0  0  0  0  0  0  0  0  0  0  0  0
   47.6392    8.7627   20.9495 H   0  0  0  0  0  0  0  0  0  0  0  0
   45.4013    9.6217   20.2929 H   0  0  0  0  0  0  0  0  0  0  0  0
   46.9430   13.6166   20.1597 H   0  0  0  0  0  0  0  0  0  0  0  0
   51.6440    8.6891   19.6739 H   0  0  0  0  0  0  0  0  0  0  0  0
   52.5393   10.0131   18.9544 H   0  0  0  0  0  0  0  0  0  0  0  0
   54.6609    3.2223   18.6214 H   0  0  0  0  0  0  0  0  0  0  0  0
   50.4592    0.8838   17.1878 H   0  0  0  0  0  0  0  0  0  0  0  0
   53.2880   10.8470   21.1213 H   0  0  0  0  0  0  0  0  0  0  0  0
   52.4643    9.5470   21.9758 H   0  0  0  0  0  0  0  0  0  0  0  0
   51.0606   11.5478   20.1390 H   0  0  0  0  0  0  0  0  0  0  0  0
   51.2035   11.7349   21.9040 H   0  0  0  0  0  0  0  0  0  0  0  0
   54.6582    0.7765   18.1967 H   0  0  0  0  0  0  0  0  0  0  0  0
   52.5892   -0.3875   17.4864 H   0  0  0  0  0  0  0  0  0  0  0  0
  2  1  1  0
  3  1  1  0
  4  2  1  0
  5  3  1  0
  6  2  1  0
  7 14  1  0
  8  1  2  0
  9  6  1  0
 10  6  1  0
 11 26  1  0
 12 11  1  0
 13 11  2  0
 14 10  1  0
 15  9  1  0
 16 12  2  0
 17 12  1  0
 18 19  1  0
 19 17  2  0
 20 16  1  0
 21 18  1  0
 22  7  1  0
 23  4  2  0
 24  5  2  0
 25 22  1  0
 26 25  1  0
 27 23  1  0
 28 24  1  0
  5  4  1  0
 28 27  2  0
 15  7  1  0
 20 18  2  0
  3 29  1  0
  6 30  1  0
  9 31  1  0
  9 32  1  0
 10 33  1  0
 10 34  1  0
 14 35  1  0
 14 36  1  0
 15 37  1  0
 15 38  1  0
 16 39  1  0
 17 40  1  0
 19 41  1  0
 20 42  1  0
 22 43  1  0
 22 44  1  0
 23 45  1  0
 24 46  1  0
 25 47  1  0
 25 48  1  0
 26 49  1  0
 26 50  1  0
 27 51  1  0
 28 52  1  0
M  END
> <Uni-Dock RESULT> 
ENERGY=   -4.173  LOWER_BOUND=    7.200  UPPER_BOUND=    8.488
INTER + INTRA:          -4.173
INTER:                  -4.173
INTRA:                   0.000
UNBOUND:                 0.000

$$$$

     RDKit          3D

 52 55  0  0  0  0  0  0  0  0999 V2000
   49.7276    7.0839   19.1248 C   0  0  0  0  0  0  0  0  0  0  0  0
   50.0450    5.7522   19.4818 N   0  0  0  0  0  0  0  0  0  0  0  0
   50.5358    7.9140   19.9160 N   0  0  0  0  0  0  0  0  0  0  0  0
   51.0635    5.7861   20.4516 C   0  0  0  0  0  0  0  0  0  0  0  0
   51.3512    7.1258   20.7158 C   0  0  0  0  0  0  0  0  0  0  0  0
   49.5066    4.5505   18.8652 C   0  0  0  0  0  0  0  0  0  0  0  0
   47.8964    3.0980   16.8470 N   0  0  0  0  0  0  0  0  0  0  0  0
   48.9215    7.4764   18.2981 O   0  0  0  0  0  0  0  0  0  0  0  0
   47.9761    4.4955   18.9381 C   0  0  0  0  0  0  0  0  0  0  0  0
   49.9887    4.3909   17.4200 C   0  0  0  0  0  0  0  0  0  0  0  0
   47.3904    5.9530   13.4306 C   0  0  0  0  0  0  0  0  0  0  0  0
   46.6826    7.1846   12.9733 C   0  0  0  0  0  0  0  0  0  0  0  0
   48.5971    6.0088   13.6581 O   0  0  0  0  0  0  0  0  0  0  0  0
   49.3668    3.1514   16.7725 C   0  0  0  0  0  0  0  0  0  0  0  0
   47.4503    3.2408   18.2419 C   0  0  0  0  0  0  0  0  0  0  0  0
   45.4382    7.1337   12.3298 C   0  0  0  0  0  0  0  0  0  0  0  0
   47.3000    8.4265   13.1904 C   0  0  0  0  0  0  0  0  0  0  0  0
   45.4393    9.5393   12.1479 C   0  0  0  0  0  0  0  0  0  0  0  0
   46.6751    9.6054   12.7789 C   0  0  0  0  0  0  0  0  0  0  0  0
   44.8169    8.3166   11.9187 C   0  0  0  0  0  0  0  0  0  0  0  0
   44.8386   10.6684   11.7510 F   0  0  0  0  0  0  0  0  0  0  0  0
   47.2432    4.0803   15.9633 C   0  0  0  0  0  0  0  0  0  0  0  0
   51.7414    4.7734   21.0968 C   0  0  0  0  0  0  0  0  0  0  0  0
   52.3086    7.5187   21.6233 C   0  0  0  0  0  0  0  0  0  0  0  0
   47.2912    3.6499   14.4884 C   0  0  0  0  0  0  0  0  0  0  0  0
   46.5936    4.6667   13.5801 C   0  0  0  0  0  0  0  0  0  0  0  0
   52.7209    5.1453   22.0268 C   0  0  0  0  0  0  0  0  0  0  0  0
   53.0009    6.5030   22.2877 C   0  0  0  0  0  0  0  0  0  0  0  0
   50.5214    8.9184   19.8601 H   0  0  0  0  0  0  0  0  0  0  0  0
   49.8772    3.6880   19.4323 H   0  0  0  0  0  0  0  0  0  0  0  0
   47.6565    4.4927   19.9875 H   0  0  0  0  0  0  0  0  0  0  0  0
   47.5234    5.3831   18.4831 H   0  0  0  0  0  0  0  0  0  0  0  0
   49.7544    5.2843   16.8299 H   0  0  0  0  0  0  0  0  0  0  0  0
   51.0817    4.2972   17.4050 H   0  0  0  0  0  0  0  0  0  0  0  0
   49.7622    2.2582   17.2747 H   0  0  0  0  0  0  0  0  0  0  0  0
   49.7145    3.0664   15.7378 H   0  0  0  0  0  0  0  0  0  0  0  0
   46.3547    3.2197   18.2941 H   0  0  0  0  0  0  0  0  0  0  0  0
   47.7805    2.3559   18.8020 H   0  0  0  0  0  0  0  0  0  0  0  0
   44.9408    6.1900   12.1263 H   0  0  0  0  0  0  0  0  0  0  0  0
   48.2683    8.4787   13.6865 H   0  0  0  0  0  0  0  0  0  0  0  0
   47.1454   10.5691   12.9474 H   0  0  0  0  0  0  0  0  0  0  0  0
   43.8538    8.2931   11.4177 H   0  0  0  0  0  0  0  0  0  0  0  0
   47.6593    5.0850   16.0913 H   0  0  0  0  0  0  0  0  0  0  0  0
   46.1815    4.1534   16.2344 H   0  0  0  0  0  0  0  0  0  0  0  0
   51.5399    3.7268   20.9071 H   0  0  0  0  0  0  0  0  0  0  0  0
   52.5218    8.5629   21.8155 H   0  0  0  0  0  0  0  0  0  0  0  0
   46.7835    2.6828   14.3835 H   0  0  0  0  0  0  0  0  0  0  0  0
   48.3220    3.5054   14.1487 H   0  0  0  0  0  0  0  0  0  0  0  0
   45.5991    4.8860   13.9830 H   0  0  0  0  0  0  0  0  0  0  0  0
   46.4801    4.2327   12.5802 H   0  0  0  0  0  0  0  0  0  0  0  0
   53.2773    4.3749   22.5574 H   0  0  0  0  0  0  0  0  0  0  0  0
   53.7684    6.7602   23.0148 H   0  0  0  0  0  0  0  0  0  0  0  0
  2  1  1  0
  3  1  1  0
  4  2  1  0
  5  3  1  0
  6  2  1  0
  7 14  1  0
  8  1  2  0
  9  6  1  0
 10  6  1  0
 11 26  1  0
 12 11  1  0
 13 11  2  0
 14 10  1  0
 15  9  1  0
 16 12  2  0
 17 12  1  0
 18 19  1  0
 19 17  2  0
 20 16  1  0
 21 18  1  0
 22  7  1  0
 23  4  2  0
 24  5  2  0
 25 22  1  0
 26 25  1  0
 27 23  1  0
 28 24  1  0
  5  4  1  0
 28 27  2  0
 15  7  1  0
 20 18  2  0
  3 29  1  0
  6 30  1  0
  9 31  1  0
  9 32  1  0
 10 33  1  0
 10 34  1  0
 14 35  1  0
 14 36  1  0
 15 37  1  0
 15 38  1  0
 16 39  1  0
 17 40  1  0
 19 41  1  0
 20 42  1  0
 22 43  1  0
 22 44  1  0
 23 45  1  0
 24 46  1  0
 25 47  1  0
 25 48  1  0
 26 49  1  0
 26 50  1  0
 27 51  1  0
 28 52  1  0
M  END
> <Uni-Dock RESULT> 
ENERGY=   -4.157  LOWER_BOUND=    4.187  UPPER_BOUND=    9.392
INTER + INTRA:          -4.157
INTER:                  -4.157
INTRA:                   0.000
UNBOUND:                 0.000

$$$$

     RDKit          3D

 52 55  0  0  0  0  0  0  0  0999 V2000
   45.7358    8.0898   12.6698 C   0  0  0  0  0  0  0  0  0  0  0  0
   46.5580    6.9418   12.7569 N   0  0  0  0  0  0  0  0  0  0  0  0
   44.4152    7.6292   12.5603 N   0  0  0  0  0  0  0  0  0  0  0  0
   45.7307    5.8041   12.7387 C   0  0  0  0  0  0  0  0  0  0  0  0
   44.4122    6.2424   12.6092 C   0  0  0  0  0  0  0  0  0  0  0  0
   47.9979    6.9350   12.9592 C   0  0  0  0  0  0  0  0  0  0  0  0
   50.6096    8.2327   13.4793 N   0  0  0  0  0  0  0  0  0  0  0  0
   46.0670    9.2635   12.6859 O   0  0  0  0  0  0  0  0  0  0  0  0
   48.7411    7.7216   11.8731 C   0  0  0  0  0  0  0  0  0  0  0  0
   48.3761    7.4426   14.3540 C   0  0  0  0  0  0  0  0  0  0  0  0
   49.6364   12.1907   15.3407 C   0  0  0  0  0  0  0  0  0  0  0  0
   49.1133   13.5622   15.0717 C   0  0  0  0  0  0  0  0  0  0  0  0
   48.9465   11.4062   15.9884 O   0  0  0  0  0  0  0  0  0  0  0  0
   49.8965    7.4799   14.5259 C   0  0  0  0  0  0  0  0  0  0  0  0
   50.2446    7.7255   12.1471 C   0  0  0  0  0  0  0  0  0  0  0  0
   49.9538   14.6211   14.7008 C   0  0  0  0  0  0  0  0  0  0  0  0
   47.7346   13.7878   15.2098 C   0  0  0  0  0  0  0  0  0  0  0  0
   48.0454   16.0931   14.5963 C   0  0  0  0  0  0  0  0  0  0  0  0
   47.2006   15.0551   14.9690 C   0  0  0  0  0  0  0  0  0  0  0  0
   49.4146   15.8885   14.4617 C   0  0  0  0  0  0  0  0  0  0  0  0
   47.5357   17.3098   14.3660 F   0  0  0  0  0  0  0  0  0  0  0  0
   50.4049    9.6886   13.5823 C   0  0  0  0  0  0  0  0  0  0  0  0
   46.0270    4.4605   12.8290 C   0  0  0  0  0  0  0  0  0  0  0  0
   43.3405    5.3800   12.5594 C   0  0  0  0  0  0  0  0  0  0  0  0
   51.2193   10.3052   14.7310 C   0  0  0  0  0  0  0  0  0  0  0  0
   51.0154   11.8205   14.8183 C   0  0  0  0  0  0  0  0  0  0  0  0
   44.9547    3.5602   12.7799 C   0  0  0  0  0  0  0  0  0  0  0  0
   43.6262    4.0150   12.6459 C   0  0  0  0  0  0  0  0  0  0  0  0
   43.6188    8.2401   12.4920 H   0  0  0  0  0  0  0  0  0  0  0  0
   48.3421    5.8964   12.8830 H   0  0  0  0  0  0  0  0  0  0  0  0
   48.5491    7.2685   10.8927 H   0  0  0  0  0  0  0  0  0  0  0  0
   48.3784    8.7531   11.8095 H   0  0  0  0  0  0  0  0  0  0  0  0
   47.9499    8.4358   14.5364 H   0  0  0  0  0  0  0  0  0  0  0  0
   47.9419    6.7832   15.1158 H   0  0  0  0  0  0  0  0  0  0  0  0
   50.2754    6.4491   14.5168 H   0  0  0  0  0  0  0  0  0  0  0  0
   50.1422    7.8586   15.5234 H   0  0  0  0  0  0  0  0  0  0  0  0
   50.7617    8.2989   11.3678 H   0  0  0  0  0  0  0  0  0  0  0  0
   50.6284    6.7012   12.0508 H   0  0  0  0  0  0  0  0  0  0  0  0
   51.0275   14.4888   14.6046 H   0  0  0  0  0  0  0  0  0  0  0  0
   47.0719   12.9737   15.5005 H   0  0  0  0  0  0  0  0  0  0  0  0
   46.1349   15.2351   15.0702 H   0  0  0  0  0  0  0  0  0  0  0  0
   50.0530   16.7188   14.1752 H   0  0  0  0  0  0  0  0  0  0  0  0
   49.3446    9.9467   13.6722 H   0  0  0  0  0  0  0  0  0  0  0  0
   50.7570   10.1647   12.6573 H   0  0  0  0  0  0  0  0  0  0  0  0
   47.0407    4.0951   12.9338 H   0  0  0  0  0  0  0  0  0  0  0  0
   42.3225    5.7360   12.4610 H   0  0  0  0  0  0  0  0  0  0  0  0
   52.2846   10.1061   14.5584 H   0  0  0  0  0  0  0  0  0  0  0  0
   50.9628    9.8473   15.6919 H   0  0  0  0  0  0  0  0  0  0  0  0
   51.1730   12.2623   13.8287 H   0  0  0  0  0  0  0  0  0  0  0  0
   51.7529   12.2401   15.5121 H   0  0  0  0  0  0  0  0  0  0  0  0
   45.1479    2.4913   12.8473 H   0  0  0  0  0  0  0  0  0  0  0  0
   42.8144    3.2912   12.6119 H   0  0  0  0  0  0  0  0  0  0  0  0
  2  1  1  0
  3  1  1  0
  4  2  1  0
  5  3  1  0
  6  2  1  0
  7 14  1  0
  8  1  2  0
  9  6  1  0
 10  6  1  0
 11 26  1  0
 12 11  1  0
 13 11  2  0
 14 10  1  0
 15  9  1  0
 16 12  2  0
 17 12  1  0
 18 19  1  0
 19 17  2  0
 20 16  1  0
 21 18  1  0
 22  7  1  0
 23  4  2  0
 24  5  2  0
 25 22  1  0
 26 25  1  0
 27 23  1  0
 28 24  1  0
  5  4  1  0
 28 27  2  0
 15  7  1  0
 20 18  2  0
  3 29  1  0
  6 30  1  0
  9 31  1  0
  9 32  1  0
 10 33  1  0
 10 34  1  0
 14 35  1  0
 14 36  1  0
 15 37  1  0
 15 38  1  0
 16 39  1  0
 17 40  1  0
 19 41  1  0
 20 42  1  0
 22 43  1  0
 22 44  1  0
 23 45  1  0
 24 46  1  0
 25 47  1  0
 25 48  1  0
 26 49  1  0
 26 50  1  0
 27 51  1  0
 28 52  1  0
M  END
> <Uni-Dock RESULT> 
ENERGY=   -4.104  LOWER_BOUND=    4.374  UPPER_BOUND=    6.053
INTER + INTRA:          -4.104
INTER:                  -4.104
INTRA:                   0.000
UNBOUND:                 0.000

$$$$

     RDKit          3D

 52 55  0  0  0  0  0  0  0  0999 V2000
   48.5464   11.2923   20.7889 C   0  0  0  0  0  0  0  0  0  0  0  0
   48.8688   11.2879   22.1664 N   0  0  0  0  0  0  0  0  0  0  0  0
   48.7895   12.5937   20.3249 N   0  0  0  0  0  0  0  0  0  0  0  0
   49.3383   12.5677   22.5138 C   0  0  0  0  0  0  0  0  0  0  0  0
   49.2767   13.3653   21.3704 C   0  0  0  0  0  0  0  0  0  0  0  0
   48.8431   10.1308   23.0467 C   0  0  0  0  0  0  0  0  0  0  0  0
   48.5233    7.2427   23.6224 N   0  0  0  0  0  0  0  0  0  0  0  0
   48.1383   10.3708   20.1021 O   0  0  0  0  0  0  0  0  0  0  0  0
   47.4643    9.4615   23.0867 C   0  0  0  0  0  0  0  0  0  0  0  0
   49.9302    9.1160   22.6798 C   0  0  0  0  0  0  0  0  0  0  0  0
   49.1541    5.1584   19.7063 C   0  0  0  0  0  0  0  0  0  0  0  0
   48.5452    4.8658   18.3757 C   0  0  0  0  0  0  0  0  0  0  0  0
   50.1139    5.9240   19.7671 O   0  0  0  0  0  0  0  0  0  0  0  0
   49.8499    7.8822   23.5819 C   0  0  0  0  0  0  0  0  0  0  0  0
   47.4927    8.2273   23.9875 C   0  0  0  0  0  0  0  0  0  0  0  0
   47.7346    3.7431   18.1575 C   0  0  0  0  0  0  0  0  0  0  0  0
   48.8108    5.7452   17.3142 C   0  0  0  0  0  0  0  0  0  0  0  0
   47.4567    4.3974   15.8523 C   0  0  0  0  0  0  0  0  0  0  0  0
   48.2630    5.5110   16.0514 C   0  0  0  0  0  0  0  0  0  0  0  0
   47.1891    3.5122   16.8913 C   0  0  0  0  0  0  0  0  0  0  0  0
   46.9312    4.1699   14.6418 F   0  0  0  0  0  0  0  0  0  0  0  0
   48.1877    6.5424   22.3697 C   0  0  0  0  0  0  0  0  0  0  0  0
   49.8053   13.0737   23.7085 C   0  0  0  0  0  0  0  0  0  0  0  0
   49.6659   14.6855   21.3594 C   0  0  0  0  0  0  0  0  0  0  0  0
   48.9440    5.2111   22.2333 C   0  0  0  0  0  0  0  0  0  0  0  0
   48.5748    4.4816   20.9383 C   0  0  0  0  0  0  0  0  0  0  0  0
   50.2073   14.4156   23.7258 C   0  0  0  0  0  0  0  0  0  0  0  0
   50.1377   15.2129   22.5642 C   0  0  0  0  0  0  0  0  0  0  0  0
   48.6515   12.8765   19.3693 H   0  0  0  0  0  0  0  0  0  0  0  0
   49.0500   10.4802   24.0655 H   0  0  0  0  0  0  0  0  0  0  0  0
   46.7195   10.1730   23.4643 H   0  0  0  0  0  0  0  0  0  0  0  0
   47.1315    9.1744   22.0834 H   0  0  0  0  0  0  0  0  0  0  0  0
   49.8495    8.8214   21.6271 H   0  0  0  0  0  0  0  0  0  0  0  0
   50.9185    9.5800   22.7885 H   0  0  0  0  0  0  0  0  0  0  0  0
   50.1120    8.1796   24.6062 H   0  0  0  0  0  0  0  0  0  0  0  0
   50.6261    7.1666   23.2920 H   0  0  0  0  0  0  0  0  0  0  0  0
   46.5029    7.7543   23.9992 H   0  0  0  0  0  0  0  0  0  0  0  0
   47.6703    8.5447   25.0236 H   0  0  0  0  0  0  0  0  0  0  0  0
   47.5246    3.0300   18.9494 H   0  0  0  0  0  0  0  0  0  0  0  0
   49.4417    6.6193   17.4705 H   0  0  0  0  0  0  0  0  0  0  0  0
   48.4613    6.1894   15.2276 H   0  0  0  0  0  0  0  0  0  0  0  0
   46.5607    2.6462   16.7066 H   0  0  0  0  0  0  0  0  0  0  0  0
   48.3498    7.1760   21.4915 H   0  0  0  0  0  0  0  0  0  0  0  0
   47.1174    6.2961   22.3744 H   0  0  0  0  0  0  0  0  0  0  0  0
   49.8667   12.4750   24.6084 H   0  0  0  0  0  0  0  0  0  0  0  0
   49.6142   15.2908   20.4629 H   0  0  0  0  0  0  0  0  0  0  0  0
   48.6851    4.5664   23.0827 H   0  0  0  0  0  0  0  0  0  0  0  0
   50.0278    5.3630   22.2693 H   0  0  0  0  0  0  0  0  0  0  0  0
   47.4842    4.4234   20.8567 H   0  0  0  0  0  0  0  0  0  0  0  0
   48.9796    3.4637   20.9747 H   0  0  0  0  0  0  0  0  0  0  0  0
   50.5811   14.8520   24.6502 H   0  0  0  0  0  0  0  0  0  0  0  0
   50.4585   16.2517   22.6090 H   0  0  0  0  0  0  0  0  0  0  0  0
  2  1  1  0
  3  1  1  0
  4  2  1  0
  5  3  1  0
  6  2  1  0
  7 14  1  0
  8  1  2  0
  9  6  1  0
 10  6  1  0
 11 26  1  0
 12 11  1  0
 13 11  2  0
 14 10  1  0
 15  9  1  0
 16 12  2  0
 17 12  1  0
 18 19  1  0
 19 17  2  0
 20 16  1  0
 21 18  1  0
 22  7  1  0
 23  4  2  0
 24  5  2  0
 25 22  1  0
 26 25  1  0
 27 23  1  0
 28 24  1  0
  5  4  1  0
 28 27  2  0
 15  7  1  0
 20 18  2  0
  3 29  1  0
  6 30  1  0
  9 31  1  0
  9 32  1  0
 10 33  1  0
 10 34  1  0
 14 35  1  0
 14 36  1  0
 15 37  1  0
 15 38  1  0
 16 39  1  0
 17 40  1  0
 19 41  1  0
 20 42  1  0
 22 43  1  0
 22 44  1  0
 23 45  1  0
 24 46  1  0
 25 47  1  0
 25 48  1  0
 26 49  1  0
 26 50  1  0
 27 51  1  0
 28 52  1  0
M  END
> <Uni-Dock RESULT> 
ENERGY=   -4.102  LOWER_BOUND=    5.955  UPPER_BOUND=   11.134
INTER + INTRA:          -4.102
INTER:                  -4.102
INTRA:                   0.000
UNBOUND:                 0.000

$$$$

     RDKit          3D

 52 55  0  0  0  0  0  0  0  0999 V2000
   47.1903    6.7945   12.4576 C   0  0  0  0  0  0  0  0  0  0  0  0
   48.1567    7.2188   13.3998 N   0  0  0  0  0  0  0  0  0  0  0  0
   46.6201    5.6197   12.9703 N   0  0  0  0  0  0  0  0  0  0  0  0
   48.1362    6.3251   14.4860 C   0  0  0  0  0  0  0  0  0  0  0  0
   47.1895    5.3393   14.2044 C   0  0  0  0  0  0  0  0  0  0  0  0
   48.9468    8.4371   13.3242 C   0  0  0  0  0  0  0  0  0  0  0  0
   49.7130   11.0310   12.1159 N   0  0  0  0  0  0  0  0  0  0  0  0
   46.8809    7.3171   11.4000 O   0  0  0  0  0  0  0  0  0  0  0  0
   49.7703    8.5167   12.0335 C   0  0  0  0  0  0  0  0  0  0  0  0
   48.0776    9.6871   13.4931 C   0  0  0  0  0  0  0  0  0  0  0  0
   46.1875   12.3017    9.6594 C   0  0  0  0  0  0  0  0  0  0  0  0
   45.4304   12.0440    8.3995 C   0  0  0  0  0  0  0  0  0  0  0  0
   45.6765   11.9964   10.7348 O   0  0  0  0  0  0  0  0  0  0  0  0
   48.9191   10.9580   13.3548 C   0  0  0  0  0  0  0  0  0  0  0  0
   50.5505    9.8295   11.9746 C   0  0  0  0  0  0  0  0  0  0  0  0
   45.7416   12.6935    7.1967 C   0  0  0  0  0  0  0  0  0  0  0  0
   44.3672   11.1281    8.4373 C   0  0  0  0  0  0  0  0  0  0  0  0
   43.9545   11.5031    6.0971 C   0  0  0  0  0  0  0  0  0  0  0  0
   43.6304   10.8561    7.2830 C   0  0  0  0  0  0  0  0  0  0  0  0
   45.0004   12.4186    6.0438 C   0  0  0  0  0  0  0  0  0  0  0  0
   43.2485   11.2448    4.9890 F   0  0  0  0  0  0  0  0  0  0  0  0
   48.8846   11.2611   10.9188 C   0  0  0  0  0  0  0  0  0  0  0  0
   48.8509    6.3075   15.6651 C   0  0  0  0  0  0  0  0  0  0  0  0
   46.9141    4.3013   15.0654 C   0  0  0  0  0  0  0  0  0  0  0  0
   48.4025   12.7176   10.8228 C   0  0  0  0  0  0  0  0  0  0  0  0
   47.5588   12.9519    9.5664 C   0  0  0  0  0  0  0  0  0  0  0  0
   48.5911    5.2610   16.5596 C   0  0  0  0  0  0  0  0  0  0  0  0
   47.6337    4.2685   16.2626 C   0  0  0  0  0  0  0  0  0  0  0  0
   45.8915    5.1071   12.5028 H   0  0  0  0  0  0  0  0  0  0  0  0
   49.6655    8.4223   14.1526 H   0  0  0  0  0  0  0  0  0  0  0  0
   50.4701    7.6730   11.9896 H   0  0  0  0  0  0  0  0  0  0  0  0
   49.1320    8.4306   11.1476 H   0  0  0  0  0  0  0  0  0  0  0  0
   47.2587    9.6940   12.7647 H   0  0  0  0  0  0  0  0  0  0  0  0
   47.6021    9.6738   14.4818 H   0  0  0  0  0  0  0  0  0  0  0  0
   49.6138   11.0122   14.2038 H   0  0  0  0  0  0  0  0  0  0  0  0
   48.2749   11.8364   13.4651 H   0  0  0  0  0  0  0  0  0  0  0  0
   51.1272    9.8762   11.0425 H   0  0  0  0  0  0  0  0  0  0  0  0
   51.3011    9.8358   12.7761 H   0  0  0  0  0  0  0  0  0  0  0  0
   46.5434   13.4233    7.1348 H   0  0  0  0  0  0  0  0  0  0  0  0
   44.1139   10.6196    9.3666 H   0  0  0  0  0  0  0  0  0  0  0  0
   42.8097   10.1460    7.3047 H   0  0  0  0  0  0  0  0  0  0  0  0
   45.2285   12.9148    5.1053 H   0  0  0  0  0  0  0  0  0  0  0  0
   48.0405   10.5656   10.8663 H   0  0  0  0  0  0  0  0  0  0  0  0
   49.4915   11.0718   10.0233 H   0  0  0  0  0  0  0  0  0  0  0  0
   49.5877    7.0622   15.9089 H   0  0  0  0  0  0  0  0  0  0  0  0
   46.1744    3.5450   14.8333 H   0  0  0  0  0  0  0  0  0  0  0  0
   49.2768   13.3797   10.7842 H   0  0  0  0  0  0  0  0  0  0  0  0
   47.8256   13.0055   11.7077 H   0  0  0  0  0  0  0  0  0  0  0  0
   48.0981   12.5674    8.6941 H   0  0  0  0  0  0  0  0  0  0  0  0
   47.4034   14.0290    9.4370 H   0  0  0  0  0  0  0  0  0  0  0  0
   49.1354    5.2119   17.5008 H   0  0  0  0  0  0  0  0  0  0  0  0
   47.4533    3.4689   16.9782 H   0  0  0  0  0  0  0  0  0  0  0  0
  2  1  1  0
  3  1  1  0
  4  2  1  0
  5  3  1  0
  6  2  1  0
  7 14  1  0
  8  1  2  0
  9  6  1  0
 10  6  1  0
 11 26  1  0
 12 11  1  0
 13 11  2  0
 14 10  1  0
 15  9  1  0
 16 12  2  0
 17 12  1  0
 18 19  1  0
 19 17  2  0
 20 16  1  0
 21 18  1  0
 22  7  1  0
 23  4  2  0
 24  5  2  0
 25 22  1  0
 26 25  1  0
 27 23  1  0
 28 24  1  0
  5  4  1  0
 28 27  2  0
 15  7  1  0
 20 18  2  0
  3 29  1  0
  6 30  1  0
  9 31  1  0
  9 32  1  0
 10 33  1  0
 10 34  1  0
 14 35  1  0
 14 36  1  0
 15 37  1  0
 15 38  1  0
 16 39  1  0
 17 40  1  0
 19 41  1  0
 20 42  1  0
 22 43  1  0
 22 44  1  0
 23 45  1  0
 24 46  1  0
 25 47  1  0
 25 48  1  0
 26 49  1  0
 26 50  1  0
 27 51  1  0
 28 52  1  0
M  END
> <Uni-Dock RESULT> 
ENERGY=   -4.076  LOWER_BOUND=    5.285  UPPER_BOUND=    8.797
INTER + INTRA:          -4.076
INTER:                  -4.076
INTRA:                   0.000
UNBOUND:                 0.000

$$$$
