
     RDKit          3D

 52 55  0  0  0  0  0  0  0  0999 V2000
   43.5474    5.1630   12.1633 C   0  0  0  0  0  0  0  0  0  0  0  0
   44.3065    5.7984   11.1545 N   0  0  0  0  0  0  0  0  0  0  0  0
   43.4601    3.8093   11.8066 N   0  0  0  0  0  0  0  0  0  0  0  0
   44.6776    4.8319   10.2036 C   0  0  0  0  0  0  0  0  0  0  0  0
   44.1475    3.6087   10.6170 C   0  0  0  0  0  0  0  0  0  0  0  0
   44.6586    7.2082   11.1145 C   0  0  0  0  0  0  0  0  0  0  0  0
   45.1430    9.8939   11.5248 N   0  0  0  0  0  0  0  0  0  0  0  0
   43.0540    5.6598   13.1621 O   0  0  0  0  0  0  0  0  0  0  0  0
   43.4234    8.1094   11.0703 C   0  0  0  0  0  0  0  0  0  0  0  0
   45.5772    7.6051   12.2836 C   0  0  0  0  0  0  0  0  0  0  0  0
   47.1809   12.4390    9.5085 C   0  0  0  0  0  0  0  0  0  0  0  0
   47.7984   13.7964    9.3712 C   0  0  0  0  0  0  0  0  0  0  0  0
   46.3560   12.0728    8.6718 O   0  0  0  0  0  0  0  0  0  0  0  0
   45.3978    9.0673   12.7048 C   0  0  0  0  0  0  0  0  0  0  0  0
   43.8291    9.5814   10.9323 C   0  0  0  0  0  0  0  0  0  0  0  0
   48.6454   14.3496   10.3422 C   0  0  0  0  0  0  0  0  0  0  0  0
   47.5021   14.5418    8.2171 C   0  0  0  0  0  0  0  0  0  0  0  0
   48.8857   16.3443    9.0054 C   0  0  0  0  0  0  0  0  0  0  0  0
   48.0466   15.8149    8.0342 C   0  0  0  0  0  0  0  0  0  0  0  0
   49.1888   15.6251   10.1556 C   0  0  0  0  0  0  0  0  0  0  0  0
   49.4091   17.5647    8.8336 F   0  0  0  0  0  0  0  0  0  0  0  0
   45.2592   11.3346   11.7816 C   0  0  0  0  0  0  0  0  0  0  0  0
   45.4167    4.9311    9.0439 C   0  0  0  0  0  0  0  0  0  0  0  0
   44.3231    2.4420    9.9083 C   0  0  0  0  0  0  0  0  0  0  0  0
   46.7149   11.8100   11.9126 C   0  0  0  0  0  0  0  0  0  0  0  0
   47.5658   11.5424   10.6706 C   0  0  0  0  0  0  0  0  0  0  0  0
   45.6104    3.7582    8.3027 C   0  0  0  0  0  0  0  0  0  0  0  0
   45.0697    2.5273    8.7301 C   0  0  0  0  0  0  0  0  0  0  0  0
   42.9719    3.1203   12.3535 H   0  0  0  0  0  0  0  0  0  0  0  0
   45.2158    7.3894   10.1872 H   0  0  0  0  0  0  0  0  0  0  0  0
   42.8323    7.9850   11.9862 H   0  0  0  0  0  0  0  0  0  0  0  0
   42.7681    7.8270   10.2374 H   0  0  0  0  0  0  0  0  0  0  0  0
   46.6175    7.4305   11.9785 H   0  0  0  0  0  0  0  0  0  0  0  0
   45.4142    6.9713   13.1632 H   0  0  0  0  0  0  0  0  0  0  0  0
   44.5785    9.1598   13.4300 H   0  0  0  0  0  0  0  0  0  0  0  0
   46.3111    9.3724   13.2263 H   0  0  0  0  0  0  0  0  0  0  0  0
   43.8689    9.8409    9.8673 H   0  0  0  0  0  0  0  0  0  0  0  0
   43.0338   10.1915   11.3806 H   0  0  0  0  0  0  0  0  0  0  0  0
   48.8959   13.8191   11.2554 H   0  0  0  0  0  0  0  0  0  0  0  0
   46.8436   14.1316    7.4525 H   0  0  0  0  0  0  0  0  0  0  0  0
   47.8196   16.3918    7.1432 H   0  0  0  0  0  0  0  0  0  0  0  0
   49.8455   16.0630   10.9015 H   0  0  0  0  0  0  0  0  0  0  0  0
   44.8019   11.8973   10.9575 H   0  0  0  0  0  0  0  0  0  0  0  0
   44.7015   11.6094   12.6863 H   0  0  0  0  0  0  0  0  0  0  0  0
   45.8378    5.8686    8.7027 H   0  0  0  0  0  0  0  0  0  0  0  0
   43.9055    1.5001   10.2419 H   0  0  0  0  0  0  0  0  0  0  0  0
   46.7009   12.8845   12.1315 H   0  0  0  0  0  0  0  0  0  0  0  0
   47.1903   11.3315   12.7760 H   0  0  0  0  0  0  0  0  0  0  0  0
   47.4787   10.5010   10.3393 H   0  0  0  0  0  0  0  0  0  0  0  0
   48.6284   11.6743   10.8990 H   0  0  0  0  0  0  0  0  0  0  0  0
   46.1874    3.7963    7.3807 H   0  0  0  0  0  0  0  0  0  0  0  0
   45.2373    1.6339    8.1320 H   0  0  0  0  0  0  0  0  0  0  0  0
  2  1  1  0
  3  1  1  0
  4  2  1  0
  5  3  1  0
  6  2  1  0
  7 14  1  0
  8  1  2  0
  9  6  1  0
 10  6  1  0
 11 26  1  0
 12 11  1  0
 13 11  2  0
 14 10  1  0
 15  9  1  0
 16 12  2  0
 17 12  1  0
 18 19  1  0
 19 17  2  0
 20 16  1  0
 21 18  1  0
 22  7  1  0
 23  4  2  0
 24  5  2  0
 25 22  1  0
 26 25  1  0
 27 23  1  0
 28 24  1  0
  5  4  1  0
 28 27  2  0
 15  7  1  0
 20 18  2  0
  3 29  1  0
  6 30  1  0
  9 31  1  0
  9 32  1  0
 10 33  1  0
 10 34  1  0
 14 35  1  0
 14 36  1  0
 15 37  1  0
 15 38  1  0
 16 39  1  0
 17 40  1  0
 19 41  1  0
 20 42  1  0
 22 43  1  0
 22 44  1  0
 23 45  1  0
 24 46  1  0
 25 47  1  0
 25 48  1  0
 26 49  1  0
 26 50  1  0
 27 51  1  0
 28 52  1  0
M  END
> <Uni-Dock RESULT> 
ENERGY=   -5.438  LOWER_BOUND=    0.000  UPPER_BOUND=    0.000
INTER + INTRA:          -5.438
INTER:                  -5.438
INTRA:                   0.000
UNBOUND:                 0.000

$$$$

     RDKit          3D

 52 55  0  0  0  0  0  0  0  0999 V2000
   46.6920   11.0578   19.7690 C   0  0  0  0  0  0  0  0  0  0  0  0
   47.7432   10.5431   18.9769 N   0  0  0  0  0  0  0  0  0  0  0  0
   46.4053   12.3378   19.2722 N   0  0  0  0  0  0  0  0  0  0  0  0
   48.0798   11.5041   18.0077 C   0  0  0  0  0  0  0  0  0  0  0  0
   47.2477   12.6077   18.2020 C   0  0  0  0  0  0  0  0  0  0  0  0
   48.3608    9.2358   19.1269 C   0  0  0  0  0  0  0  0  0  0  0  0
   49.1406    6.6603   19.7393 N   0  0  0  0  0  0  0  0  0  0  0  0
   46.1201   10.5226   20.7042 O   0  0  0  0  0  0  0  0  0  0  0  0
   49.0056    9.0576   20.5025 C   0  0  0  0  0  0  0  0  0  0  0  0
   47.3685    8.0946   18.8418 C   0  0  0  0  0  0  0  0  0  0  0  0
   51.7363    4.3463   18.1254 C   0  0  0  0  0  0  0  0  0  0  0  0
   52.3730    2.9976   17.9916 C   0  0  0  0  0  0  0  0  0  0  0  0
   52.4361    5.3055   18.4494 O   0  0  0  0  0  0  0  0  0  0  0  0
   47.6905    6.8217   19.6315 C   0  0  0  0  0  0  0  0  0  0  0  0
   49.7288    7.7089   20.5934 C   0  0  0  0  0  0  0  0  0  0  0  0
   51.6368    1.8277   17.7559 C   0  0  0  0  0  0  0  0  0  0  0  0
   53.7703    2.9127   18.1173 C   0  0  0  0  0  0  0  0  0  0  0  0
   53.6746    0.5351   17.7674 C   0  0  0  0  0  0  0  0  0  0  0  0
   54.4205    1.6819   18.0041 C   0  0  0  0  0  0  0  0  0  0  0  0
   52.2915    0.5966   17.6433 C   0  0  0  0  0  0  0  0  0  0  0  0
   54.2945   -0.6467   17.6588 F   0  0  0  0  0  0  0  0  0  0  0  0
   49.5497    5.3302   20.2064 C   0  0  0  0  0  0  0  0  0  0  0  0
   49.0235   11.4932   17.0026 C   0  0  0  0  0  0  0  0  0  0  0  0
   47.3124   13.7376   17.4187 C   0  0  0  0  0  0  0  0  0  0  0  0
   49.4174    4.2432   19.1279 C   0  0  0  0  0  0  0  0  0  0  0  0
   50.2493    4.5137   17.8737 C   0  0  0  0  0  0  0  0  0  0  0  0
   49.1110   12.6313   16.1905 C   0  0  0  0  0  0  0  0  0  0  0  0
   48.2649   13.7412   16.3962 C   0  0  0  0  0  0  0  0  0  0  0  0
   45.6916   12.9355   19.6535 H   0  0  0  0  0  0  0  0  0  0  0  0
   49.1670    9.1579   18.3871 H   0  0  0  0  0  0  0  0  0  0  0  0
   48.2405    9.1075   21.2874 H   0  0  0  0  0  0  0  0  0  0  0  0
   49.7128    9.8707   20.7065 H   0  0  0  0  0  0  0  0  0  0  0  0
   47.3906    7.8802   17.7650 H   0  0  0  0  0  0  0  0  0  0  0  0
   46.3361    8.3868   19.0664 H   0  0  0  0  0  0  0  0  0  0  0  0
   47.2275    6.8602   20.6264 H   0  0  0  0  0  0  0  0  0  0  0  0
   47.2253    5.9824   19.1039 H   0  0  0  0  0  0  0  0  0  0  0  0
   50.7740    7.8447   20.2897 H   0  0  0  0  0  0  0  0  0  0  0  0
   49.7393    7.4049   21.6484 H   0  0  0  0  0  0  0  0  0  0  0  0
   50.5555    1.8387   17.6623 H   0  0  0  0  0  0  0  0  0  0  0  0
   54.3602    3.8092   18.3039 H   0  0  0  0  0  0  0  0  0  0  0  0
   55.4997    1.6144   18.0999 H   0  0  0  0  0  0  0  0  0  0  0  0
   51.7308   -0.3155   17.4612 H   0  0  0  0  0  0  0  0  0  0  0  0
   50.6006    5.3540   20.5228 H   0  0  0  0  0  0  0  0  0  0  0  0
   48.9701    5.0394   21.0922 H   0  0  0  0  0  0  0  0  0  0  0  0
   49.6803   10.6491   16.8326 H   0  0  0  0  0  0  0  0  0  0  0  0
   46.6598   14.5864   17.5817 H   0  0  0  0  0  0  0  0  0  0  0  0
   49.7147    3.2866   19.5742 H   0  0  0  0  0  0  0  0  0  0  0  0
   48.3675    4.1281   18.8371 H   0  0  0  0  0  0  0  0  0  0  0  0
   50.0819    5.5269   17.4900 H   0  0  0  0  0  0  0  0  0  0  0  0
   49.9388    3.8521   17.0585 H   0  0  0  0  0  0  0  0  0  0  0  0
   49.8446   12.6610   15.3871 H   0  0  0  0  0  0  0  0  0  0  0  0
   48.3577   14.6107   15.7487 H   0  0  0  0  0  0  0  0  0  0  0  0
  2  1  1  0
  3  1  1  0
  4  2  1  0
  5  3  1  0
  6  2  1  0
  7 14  1  0
  8  1  2  0
  9  6  1  0
 10  6  1  0
 11 26  1  0
 12 11  1  0
 13 11  2  0
 14 10  1  0
 15  9  1  0
 16 12  2  0
 17 12  1  0
 18 19  1  0
 19 17  2  0
 20 16  1  0
 21 18  1  0
 22  7  1  0
 23  4  2  0
 24  5  2  0
 25 22  1  0
 26 25  1  0
 27 23  1  0
 28 24  1  0
  5  4  1  0
 28 27  2  0
 15  7  1  0
 20 18  2  0
  3 29  1  0
  6 30  1  0
  9 31  1  0
  9 32  1  0
 10 33  1  0
 10 34  1  0
 14 35  1  0
 14 36  1  0
 15 37  1  0
 15 38  1  0
 16 39  1  0
 17 40  1  0
 19 41  1  0
 20 42  1  0
 22 43  1  0
 22 44  1  0
 23 45  1  0
 24 46  1  0
 25 47  1  0
 25 48  1  0
 26 49  1  0
 26 50  1  0
 27 51  1  0
 28 52  1  0
M  END
> <Uni-Dock RESULT> 
ENERGY=   -4.782  LOWER_BOUND=    9.378  UPPER_BOUND=   12.946
INTER + INTRA:          -4.782
INTER:                  -4.782
INTRA:                   0.000
UNBOUND:                 0.000

$$$$

     RDKit          3D

 52 55  0  0  0  0  0  0  0  0999 V2000
   45.2833    4.6386   12.8580 C   0  0  0  0  0  0  0  0  0  0  0  0
   45.6223    5.4419   11.7457 N   0  0  0  0  0  0  0  0  0  0  0  0
   44.8004    3.4260   12.3444 N   0  0  0  0  0  0  0  0  0  0  0  0
   45.3514    4.7141   10.5739 C   0  0  0  0  0  0  0  0  0  0  0  0
   44.8430    3.4722   10.9574 C   0  0  0  0  0  0  0  0  0  0  0  0
   46.1733    6.7859   11.8024 C   0  0  0  0  0  0  0  0  0  0  0  0
   47.2738    9.2407   12.4180 N   0  0  0  0  0  0  0  0  0  0  0  0
   45.3815    4.9105   14.0431 O   0  0  0  0  0  0  0  0  0  0  0  0
   45.2345    7.7641   12.5106 C   0  0  0  0  0  0  0  0  0  0  0  0
   47.5688    6.8087   12.4508 C   0  0  0  0  0  0  0  0  0  0  0  0
   48.6434   12.0371   10.1819 C   0  0  0  0  0  0  0  0  0  0  0  0
   49.3750   13.3337   10.0201 C   0  0  0  0  0  0  0  0  0  0  0  0
   47.4825   11.9547    9.7818 O   0  0  0  0  0  0  0  0  0  0  0  0
   47.8658    8.1310   13.1654 C   0  0  0  0  0  0  0  0  0  0  0  0
   45.8008    9.1880   12.4688 C   0  0  0  0  0  0  0  0  0  0  0  0
   50.6490   13.5621   10.5597 C   0  0  0  0  0  0  0  0  0  0  0  0
   48.7431   14.3619    9.2997 C   0  0  0  0  0  0  0  0  0  0  0  0
   50.6377   15.7998    9.6567 C   0  0  0  0  0  0  0  0  0  0  0  0
   49.3750   15.5940    9.1175 C   0  0  0  0  0  0  0  0  0  0  0  0
   51.2787   14.7975   10.3753 C   0  0  0  0  0  0  0  0  0  0  0  0
   51.2463   16.9800    9.4844 F   0  0  0  0  0  0  0  0  0  0  0  0
   47.7541   10.5597   12.8476 C   0  0  0  0  0  0  0  0  0  0  0  0
   45.5077    5.0384    9.2430 C   0  0  0  0  0  0  0  0  0  0  0  0
   44.4702    2.5065   10.0503 C   0  0  0  0  0  0  0  0  0  0  0  0
   49.1782   10.8725   12.3614 C   0  0  0  0  0  0  0  0  0  0  0  0
   49.3290   10.8541   10.8399 C   0  0  0  0  0  0  0  0  0  0  0  0
   45.1354    4.0734    8.2982 C   0  0  0  0  0  0  0  0  0  0  0  0
   44.6224    2.8214    8.6973 C   0  0  0  0  0  0  0  0  0  0  0  0
   44.4858    2.6638   12.9207 H   0  0  0  0  0  0  0  0  0  0  0  0
   46.2874    7.1462   10.7726 H   0  0  0  0  0  0  0  0  0  0  0  0
   45.0961    7.4641   13.5569 H   0  0  0  0  0  0  0  0  0  0  0  0
   44.2397    7.7482   12.0491 H   0  0  0  0  0  0  0  0  0  0  0  0
   48.3161    6.6339   11.6654 H   0  0  0  0  0  0  0  0  0  0  0  0
   47.6968    5.9921   13.1710 H   0  0  0  0  0  0  0  0  0  0  0  0
   47.4827    8.1054   14.1942 H   0  0  0  0  0  0  0  0  0  0  0  0
   48.9542    8.2253   13.2408 H   0  0  0  0  0  0  0  0  0  0  0  0
   45.4140    9.6985   11.5784 H   0  0  0  0  0  0  0  0  0  0  0  0
   45.4120    9.7290   13.3417 H   0  0  0  0  0  0  0  0  0  0  0  0
   51.1740   12.8045   11.1330 H   0  0  0  0  0  0  0  0  0  0  0  0
   47.7521   14.2060    8.8753 H   0  0  0  0  0  0  0  0  0  0  0  0
   48.8889   16.3890    8.5607 H   0  0  0  0  0  0  0  0  0  0  0  0
   52.2650   14.9848   10.7894 H   0  0  0  0  0  0  0  0  0  0  0  0
   47.0925   11.3425   12.4545 H   0  0  0  0  0  0  0  0  0  0  0  0
   47.7135   10.6454   13.9412 H   0  0  0  0  0  0  0  0  0  0  0  0
   45.8996    5.9952    8.9211 H   0  0  0  0  0  0  0  0  0  0  0  0
   44.0771    1.5471   10.3631 H   0  0  0  0  0  0  0  0  0  0  0  0
   49.4600   11.8574   12.7529 H   0  0  0  0  0  0  0  0  0  0  0  0
   49.8884   10.1600   12.7952 H   0  0  0  0  0  0  0  0  0  0  0  0
   48.9148    9.9369   10.4051 H   0  0  0  0  0  0  0  0  0  0  0  0
   50.3875   10.8418   10.5603 H   0  0  0  0  0  0  0  0  0  0  0  0
   45.2428    4.2927    7.2375 H   0  0  0  0  0  0  0  0  0  0  0  0
   44.3417    2.0930    7.9392 H   0  0  0  0  0  0  0  0  0  0  0  0
  2  1  1  0
  3  1  1  0
  4  2  1  0
  5  3  1  0
  6  2  1  0
  7 14  1  0
  8  1  2  0
  9  6  1  0
 10  6  1  0
 11 26  1  0
 12 11  1  0
 13 11  2  0
 14 10  1  0
 15  9  1  0
 16 12  2  0
 17 12  1  0
 18 19  1  0
 19 17  2  0
 20 16  1  0
 21 18  1  0
 22  7  1  0
 23  4  2  0
 24  5  2  0
 25 22  1  0
 26 25  1  0
 27 23  1  0
 28 24  1  0
  5  4  1  0
 28 27  2  0
 15  7  1  0
 20 18  2  0
  3 29  1  0
  6 30  1  0
  9 31  1  0
  9 32  1  0
 10 33  1  0
 10 34  1  0
 14 35  1  0
 14 36  1  0
 15 37  1  0
 15 38  1  0
 16 39  1  0
 17 40  1  0
 19 41  1  0
 20 42  1  0
 22 43  1  0
 22 44  1  0
 23 45  1  0
 24 46  1  0
 25 47  1  0
 25 48  1  0
 26 49  1  0
 26 50  1  0
 27 51  1  0
 28 52  1  0
M  END
> <Uni-Dock RESULT> 
ENERGY=   -4.752  LOWER_BOUND=    1.608  UPPER_BOUND=    1.888
INTER + INTRA:          -4.752
INTER:                  -4.752
INTRA:                   0.000
UNBOUND:                 0.000

$$$$

     RDKit          3D

 52 55  0  0  0  0  0  0  0  0999 V2000
   53.4816    4.3508   19.7053 C   0  0  0  0  0  0  0  0  0  0  0  0
   52.6862    3.7005   18.7348 N   0  0  0  0  0  0  0  0  0  0  0  0
   54.4804    3.4404   20.0806 N   0  0  0  0  0  0  0  0  0  0  0  0
   53.2082    2.4123   18.5243 C   0  0  0  0  0  0  0  0  0  0  0  0
   54.3145    2.2638   19.3623 C   0  0  0  0  0  0  0  0  0  0  0  0
   51.5343    4.2712   18.0564 C   0  0  0  0  0  0  0  0  0  0  0  0
   49.5025    5.8013   16.9856 N   0  0  0  0  0  0  0  0  0  0  0  0
   53.3570    5.4800   20.1496 O   0  0  0  0  0  0  0  0  0  0  0  0
   50.4247    4.6612   19.0344 C   0  0  0  0  0  0  0  0  0  0  0  0
   51.9227    5.4693   17.1721 C   0  0  0  0  0  0  0  0  0  0  0  0
   46.9370    5.0444   14.2393 C   0  0  0  0  0  0  0  0  0  0  0  0
   45.8550    5.4972   13.3083 C   0  0  0  0  0  0  0  0  0  0  0  0
   46.6883    4.1558   15.0537 O   0  0  0  0  0  0  0  0  0  0  0  0
   50.7909    6.4927   17.0347 C   0  0  0  0  0  0  0  0  0  0  0  0
   49.1900    5.1696   18.2811 C   0  0  0  0  0  0  0  0  0  0  0  0
   46.0047    6.5876   12.4395 C   0  0  0  0  0  0  0  0  0  0  0  0
   44.6377    4.7947   13.3208 C   0  0  0  0  0  0  0  0  0  0  0  0
   43.7595    6.2521   11.6210 C   0  0  0  0  0  0  0  0  0  0  0  0
   43.5910    5.1718   12.4765 C   0  0  0  0  0  0  0  0  0  0  0  0
   44.9540    6.9625   11.5954 C   0  0  0  0  0  0  0  0  0  0  0  0
   42.7580    6.6168   10.8105 F   0  0  0  0  0  0  0  0  0  0  0  0
   48.3924    6.6591   16.5532 C   0  0  0  0  0  0  0  0  0  0  0  0
   52.8081    1.3922   17.6875 C   0  0  0  0  0  0  0  0  0  0  0  0
   55.0655    1.1113   19.4090 C   0  0  0  0  0  0  0  0  0  0  0  0
   48.4005    6.9432   15.0428 C   0  0  0  0  0  0  0  0  0  0  0  0
   48.3110    5.6855   14.1776 C   0  0  0  0  0  0  0  0  0  0  0  0
   53.5549    0.2073   17.7154 C   0  0  0  0  0  0  0  0  0  0  0  0
   54.6712    0.0683   18.5667 C   0  0  0  0  0  0  0  0  0  0  0  0
   55.1912    3.6444   20.7627 H   0  0  0  0  0  0  0  0  0  0  0  0
   51.1175    3.5012   17.3957 H   0  0  0  0  0  0  0  0  0  0  0  0
   50.7788    5.4470   19.7134 H   0  0  0  0  0  0  0  0  0  0  0  0
   50.1474    3.8079   19.6651 H   0  0  0  0  0  0  0  0  0  0  0  0
   52.2031    5.0888   16.1809 H   0  0  0  0  0  0  0  0  0  0  0  0
   52.8102    5.9871   17.5545 H   0  0  0  0  0  0  0  0  0  0  0  0
   50.8178    7.2084   17.8670 H   0  0  0  0  0  0  0  0  0  0  0  0
   50.9791    7.0688   16.1225 H   0  0  0  0  0  0  0  0  0  0  0  0
   48.5166    4.3249   18.0910 H   0  0  0  0  0  0  0  0  0  0  0  0
   48.6548    5.8623   18.9440 H   0  0  0  0  0  0  0  0  0  0  0  0
   46.9205    7.1691   12.4001 H   0  0  0  0  0  0  0  0  0  0  0  0
   44.4999    3.9469   13.9906 H   0  0  0  0  0  0  0  0  0  0  0  0
   42.6505    4.6299   12.4840 H   0  0  0  0  0  0  0  0  0  0  0  0
   45.0594    7.8057   10.9191 H   0  0  0  0  0  0  0  0  0  0  0  0
   47.4354    6.1778   16.7927 H   0  0  0  0  0  0  0  0  0  0  0  0
   48.4038    7.6084   17.1043 H   0  0  0  0  0  0  0  0  0  0  0  0
   51.9534    1.4837   17.0288 H   0  0  0  0  0  0  0  0  0  0  0  0
   55.9215    1.0110   20.0648 H   0  0  0  0  0  0  0  0  0  0  0  0
   47.5592    7.6104   14.8200 H   0  0  0  0  0  0  0  0  0  0  0  0
   49.3058    7.4961   14.7691 H   0  0  0  0  0  0  0  0  0  0  0  0
   49.0499    4.9345   14.4808 H   0  0  0  0  0  0  0  0  0  0  0  0
   48.5606    5.9180   13.1373 H   0  0  0  0  0  0  0  0  0  0  0  0
   53.2694   -0.6212   17.0700 H   0  0  0  0  0  0  0  0  0  0  0  0
   55.2307   -0.8649   18.5657 H   0  0  0  0  0  0  0  0  0  0  0  0
  2  1  1  0
  3  1  1  0
  4  2  1  0
  5  3  1  0
  6  2  1  0
  7 14  1  0
  8  1  2  0
  9  6  1  0
 10  6  1  0
 11 26  1  0
 12 11  1  0
 13 11  2  0
 14 10  1  0
 15  9  1  0
 16 12  2  0
 17 12  1  0
 18 19  1  0
 19 17  2  0
 20 16  1  0
 21 18  1  0
 22  7  1  0
 23  4  2  0
 24  5  2  0
 25 22  1  0
 26 25  1  0
 27 23  1  0
 28 24  1  0
  5  4  1  0
 28 27  2  0
 15  7  1  0
 20 18  2  0
  3 29  1  0
  6 30  1  0
  9 31  1  0
  9 32  1  0
 10 33  1  0
 10 34  1  0
 14 35  1  0
 14 36  1  0
 15 37  1  0
 15 38  1  0
 16 39  1  0
 17 40  1  0
 19 41  1  0
 20 42  1  0
 22 43  1  0
 22 44  1  0
 23 45  1  0
 24 46  1  0
 25 47  1  0
 25 48  1  0
 26 49  1  0
 26 50  1  0
 27 51  1  0
 28 52  1  0
M  END
> <Uni-Dock RESULT> 
ENERGY=   -4.316  LOWER_BOUND=    8.813  UPPER_BOUND=   10.937
INTER + INTRA:          -4.316
INTER:                  -4.316
INTRA:                   0.000
UNBOUND:                 0.000

$$$$

     RDKit          3D

 52 55  0  0  0  0  0  0  0  0999 V2000
   51.7229   13.0129   14.1442 C   0  0  0  0  0  0  0  0  0  0  0  0
   50.4366   12.5318   14.4783 N   0  0  0  0  0  0  0  0  0  0  0  0
   51.9488   14.1424   14.9443 N   0  0  0  0  0  0  0  0  0  0  0  0
   49.8979   13.3624   15.4764 C   0  0  0  0  0  0  0  0  0  0  0  0
   50.8407   14.3535   15.7539 C   0  0  0  0  0  0  0  0  0  0  0  0
   49.7868   11.3667   13.9010 C   0  0  0  0  0  0  0  0  0  0  0  0
   49.0191    9.0603   12.5944 N   0  0  0  0  0  0  0  0  0  0  0  0
   52.5101   12.5594   13.3301 O   0  0  0  0  0  0  0  0  0  0  0  0
   49.5914   11.5054   12.3903 C   0  0  0  0  0  0  0  0  0  0  0  0
   50.5383   10.0654   14.2328 C   0  0  0  0  0  0  0  0  0  0  0  0
   45.8603    6.9089   12.8942 C   0  0  0  0  0  0  0  0  0  0  0  0
   45.1001    5.6603   12.5689 C   0  0  0  0  0  0  0  0  0  0  0  0
   45.3820    7.9972   12.5754 O   0  0  0  0  0  0  0  0  0  0  0  0
   50.3711    8.9949   13.1496 C   0  0  0  0  0  0  0  0  0  0  0  0
   48.8197   10.3053   11.8294 C   0  0  0  0  0  0  0  0  0  0  0  0
   45.6224    4.3753   12.7742 C   0  0  0  0  0  0  0  0  0  0  0  0
   43.8102    5.7960   12.0274 C   0  0  0  0  0  0  0  0  0  0  0  0
   43.5871    3.4038   11.9156 C   0  0  0  0  0  0  0  0  0  0  0  0
   43.0540    4.6678   11.7020 C   0  0  0  0  0  0  0  0  0  0  0  0
   44.8620    3.2476   12.4469 C   0  0  0  0  0  0  0  0  0  0  0  0
   42.8651    2.3200   11.6043 F   0  0  0  0  0  0  0  0  0  0  0  0
   48.6637    7.8943   11.7764 C   0  0  0  0  0  0  0  0  0  0  0  0
   48.6901   13.3240   16.1402 C   0  0  0  0  0  0  0  0  0  0  0  0
   50.6318   15.3403   16.6903 C   0  0  0  0  0  0  0  0  0  0  0  0
   48.3584    6.6404   12.6111 C   0  0  0  0  0  0  0  0  0  0  0  0
   47.2027    6.8209   13.5960 C   0  0  0  0  0  0  0  0  0  0  0  0
   48.4514   14.3174   17.0986 C   0  0  0  0  0  0  0  0  0  0  0  0
   49.4115   15.3145   17.3707 C   0  0  0  0  0  0  0  0  0  0  0  0
   52.7945   14.6863   14.9128 H   0  0  0  0  0  0  0  0  0  0  0  0
   48.7862   11.2860   14.3433 H   0  0  0  0  0  0  0  0  0  0  0  0
   50.5648   11.5719   11.8882 H   0  0  0  0  0  0  0  0  0  0  0  0
   49.0560   12.4327   12.1530 H   0  0  0  0  0  0  0  0  0  0  0  0
   50.1625    9.6860   15.1923 H   0  0  0  0  0  0  0  0  0  0  0  0
   51.6104   10.2405   14.3808 H   0  0  0  0  0  0  0  0  0  0  0  0
   51.1234    9.1268   12.3606 H   0  0  0  0  0  0  0  0  0  0  0  0
   50.5742    8.0242   13.6142 H   0  0  0  0  0  0  0  0  0  0  0  0
   47.7477   10.5374   11.8358 H   0  0  0  0  0  0  0  0  0  0  0  0
   49.1133   10.1796   10.7788 H   0  0  0  0  0  0  0  0  0  0  0  0
   46.6171    4.2176   13.1791 H   0  0  0  0  0  0  0  0  0  0  0  0
   43.3876    6.7852   11.8569 H   0  0  0  0  0  0  0  0  0  0  0  0
   42.0572    4.7704   11.2845 H   0  0  0  0  0  0  0  0  0  0  0  0
   45.2572    2.2479   12.6015 H   0  0  0  0  0  0  0  0  0  0  0  0
   47.7705    8.1176   11.1787 H   0  0  0  0  0  0  0  0  0  0  0  0
   49.4639    7.6706   11.0590 H   0  0  0  0  0  0  0  0  0  0  0  0
   47.9431   12.5654   15.9421 H   0  0  0  0  0  0  0  0  0  0  0  0
   51.3731   16.1030   16.8947 H   0  0  0  0  0  0  0  0  0  0  0  0
   48.1344    5.8200   11.9187 H   0  0  0  0  0  0  0  0  0  0  0  0
   49.2509    6.3322   13.1668 H   0  0  0  0  0  0  0  0  0  0  0  0
   47.3283    7.7250   14.2032 H   0  0  0  0  0  0  0  0  0  0  0  0
   47.1848    5.9995   14.3197 H   0  0  0  0  0  0  0  0  0  0  0  0
   47.5088   14.3213   17.6428 H   0  0  0  0  0  0  0  0  0  0  0  0
   49.1961   16.0728   18.1207 H   0  0  0  0  0  0  0  0  0  0  0  0
  2  1  1  0
  3  1  1  0
  4  2  1  0
  5  3  1  0
  6  2  1  0
  7 14  1  0
  8  1  2  0
  9  6  1  0
 10  6  1  0
 11 26  1  0
 12 11  1  0
 13 11  2  0
 14 10  1  0
 15  9  1  0
 16 12  2  0
 17 12  1  0
 18 19  1  0
 19 17  2  0
 20 16  1  0
 21 18  1  0
 22  7  1  0
 23  4  2  0
 24  5  2  0
 25 22  1  0
 26 25  1  0
 27 23  1  0
 28 24  1  0
  5  4  1  0
 28 27  2  0
 15  7  1  0
 20 18  2  0
  3 29  1  0
  6 30  1  0
  9 31  1  0
  9 32  1  0
 10 33  1  0
 10 34  1  0
 14 35  1  0
 14 36  1  0
 15 37  1  0
 15 38  1  0
 16 39  1  0
 17 40  1  0
 19 41  1  0
 20 42  1  0
 22 43  1  0
 22 44  1  0
 23 45  1  0
 24 46  1  0
 25 47  1  0
 25 48  1  0
 26 49  1  0
 26 50  1  0
 27 51  1  0
 28 52  1  0
M  END
> <Uni-Dock RESULT> 
ENERGY=   -4.290  LOWER_BOUND=    5.473  UPPER_BOUND=   10.690
INTER + INTRA:          -4.290
INTER:                  -4.290
INTRA:                   0.000
UNBOUND:                 0.000

$$$$

     RDKit          3D

 52 55  0  0  0  0  0  0  0  0999 V2000
   48.7835    3.0598   16.9747 C   0  0  0  0  0  0  0  0  0  0  0  0
   49.7193    4.0158   17.4306 N   0  0  0  0  0  0  0  0  0  0  0  0
   49.4533    1.8280   16.9399 N   0  0  0  0  0  0  0  0  0  0  0  0
   50.9392    3.3611   17.6742 C   0  0  0  0  0  0  0  0  0  0  0  0
   50.7620    2.0114   17.3658 C   0  0  0  0  0  0  0  0  0  0  0  0
   49.4611    5.4322   17.6302 C   0  0  0  0  0  0  0  0  0  0  0  0
   48.4727    7.9907   17.9362 N   0  0  0  0  0  0  0  0  0  0  0  0
   47.6159    3.2338   16.6673 O   0  0  0  0  0  0  0  0  0  0  0  0
   49.0380    6.1288   16.3358 C   0  0  0  0  0  0  0  0  0  0  0  0
   48.4243    5.6770   18.7409 C   0  0  0  0  0  0  0  0  0  0  0  0
   50.1136   11.2037   19.2325 C   0  0  0  0  0  0  0  0  0  0  0  0
   50.0110   12.6312   19.6735 C   0  0  0  0  0  0  0  0  0  0  0  0
   50.8450   10.9252   18.2827 O   0  0  0  0  0  0  0  0  0  0  0  0
   47.6152    6.9593   18.5205 C   0  0  0  0  0  0  0  0  0  0  0  0
   48.8667    7.6356   16.5601 C   0  0  0  0  0  0  0  0  0  0  0  0
   49.1084   13.0618   20.6563 C   0  0  0  0  0  0  0  0  0  0  0  0
   50.8571   13.5725   19.0622 C   0  0  0  0  0  0  0  0  0  0  0  0
   49.9076   15.3252   20.4079 C   0  0  0  0  0  0  0  0  0  0  0  0
   50.8057   14.9187   19.4304 C   0  0  0  0  0  0  0  0  0  0  0  0
   49.0597   14.4111   21.0224 C   0  0  0  0  0  0  0  0  0  0  0  0
   49.8551   16.6152   20.7631 F   0  0  0  0  0  0  0  0  0  0  0  0
   47.8807    9.3336   17.9690 C   0  0  0  0  0  0  0  0  0  0  0  0
   52.1523    3.8334   18.1284 C   0  0  0  0  0  0  0  0  0  0  0  0
   51.7670    1.0794   17.4915 C   0  0  0  0  0  0  0  0  0  0  0  0
   47.9090    9.9731   19.3663 C   0  0  0  0  0  0  0  0  0  0  0  0
   49.3155   10.1282   19.9458 C   0  0  0  0  0  0  0  0  0  0  0  0
   53.1930    2.9057   18.2651 C   0  0  0  0  0  0  0  0  0  0  0  0
   53.0026    1.5438   17.9502 C   0  0  0  0  0  0  0  0  0  0  0  0
   49.0201    0.9672   16.6509 H   0  0  0  0  0  0  0  0  0  0  0  0
   50.3984    5.9030   17.9510 H   0  0  0  0  0  0  0  0  0  0  0  0
   48.0903    5.7103   15.9742 H   0  0  0  0  0  0  0  0  0  0  0  0
   49.7763    5.9546   15.5437 H   0  0  0  0  0  0  0  0  0  0  0  0
   48.9548    5.7319   19.7008 H   0  0  0  0  0  0  0  0  0  0  0  0
   47.7230    4.8397   18.8354 H   0  0  0  0  0  0  0  0  0  0  0  0
   46.7495    6.7603   17.8750 H   0  0  0  0  0  0  0  0  0  0  0  0
   47.2148    7.2652   19.4929 H   0  0  0  0  0  0  0  0  0  0  0  0
   49.8167    8.1380   16.3408 H   0  0  0  0  0  0  0  0  0  0  0  0
   48.1347    8.0022   15.8283 H   0  0  0  0  0  0  0  0  0  0  0  0
   48.4267   12.3763   21.1499 H   0  0  0  0  0  0  0  0  0  0  0  0
   51.5630   13.2591   18.2942 H   0  0  0  0  0  0  0  0  0  0  0  0
   51.4589   15.6471   18.9602 H   0  0  0  0  0  0  0  0  0  0  0  0
   48.3640   14.7551   21.7821 H   0  0  0  0  0  0  0  0  0  0  0  0
   48.4306    9.9991   17.2910 H   0  0  0  0  0  0  0  0  0  0  0  0
   46.8473    9.3066   17.5996 H   0  0  0  0  0  0  0  0  0  0  0  0
   52.3140    4.8757   18.3737 H   0  0  0  0  0  0  0  0  0  0  0  0
   51.6143    0.0352   17.2482 H   0  0  0  0  0  0  0  0  0  0  0  0
   47.4225   10.9536   19.2989 H   0  0  0  0  0  0  0  0  0  0  0  0
   47.3036    9.3822   20.0624 H   0  0  0  0  0  0  0  0  0  0  0  0
   49.8810    9.1908   19.8872 H   0  0  0  0  0  0  0  0  0  0  0  0
   49.2657   10.3573   21.0152 H   0  0  0  0  0  0  0  0  0  0  0  0
   54.1660    3.2405   18.6198 H   0  0  0  0  0  0  0  0  0  0  0  0
   53.8309    0.8479   18.0666 H   0  0  0  0  0  0  0  0  0  0  0  0
  2  1  1  0
  3  1  1  0
  4  2  1  0
  5  3  1  0
  6  2  1  0
  7 14  1  0
  8  1  2  0
  9  6  1  0
 10  6  1  0
 11 26  1  0
 12 11  1  0
 13 11  2  0
 14 10  1  0
 15  9  1  0
 16 12  2  0
 17 12  1  0
 18 19  1  0
 19 17  2  0
 20 16  1  0
 21 18  1  0
 22  7  1  0
 23  4  2  0
 24  5  2  0
 25 22  1  0
 26 25  1  0
 27 23  1  0
 28 24  1  0
  5  4  1  0
 28 27  2  0
 15  7  1  0
 20 18  2  0
  3 29  1  0
  6 30  1  0
  9 31  1  0
  9 32  1  0
 10 33  1  0
 10 34  1  0
 14 35  1  0
 14 36  1  0
 15 37  1  0
 15 38  1  0
 16 39  1  0
 17 40  1  0
 19 41  1  0
 20 42  1  0
 22 43  1  0
 22 44  1  0
 23 45  1  0
 24 46  1  0
 25 47  1  0
 25 48  1  0
 26 49  1  0
 26 50  1  0
 27 51  1  0
 28 52  1  0
M  END
> <Uni-Dock RESULT> 
ENERGY=   -4.239  LOWER_BOUND=    8.589  UPPER_BOUND=    9.672
INTER + INTRA:          -4.239
INTER:                  -4.239
INTRA:                   0.000
UNBOUND:                 0.000

$$$$

     RDKit          3D

 52 55  0  0  0  0  0  0  0  0999 V2000
   39.3835   14.0971   11.7622 C   0  0  0  0  0  0  0  0  0  0  0  0
   40.2538   13.3069   12.5468 N   0  0  0  0  0  0  0  0  0  0  0  0
   38.2959   14.4309   12.5827 N   0  0  0  0  0  0  0  0  0  0  0  0
   39.6961   13.1736   13.8302 C   0  0  0  0  0  0  0  0  0  0  0  0
   38.4869   13.8706   13.8387 C   0  0  0  0  0  0  0  0  0  0  0  0
   41.5190   12.7416   12.1077 C   0  0  0  0  0  0  0  0  0  0  0  0
   43.8549   11.9709   10.8564 N   0  0  0  0  0  0  0  0  0  0  0  0
   39.5200   14.4438   10.6007 O   0  0  0  0  0  0  0  0  0  0  0  0
   41.3435   11.7830   10.9287 C   0  0  0  0  0  0  0  0  0  0  0  0
   42.5502   13.8327   11.7697 C   0  0  0  0  0  0  0  0  0  0  0  0
   46.8787    9.9892   12.1313 C   0  0  0  0  0  0  0  0  0  0  0  0
   48.2739    9.4787   11.9426 C   0  0  0  0  0  0  0  0  0  0  0  0
   45.9679    9.1807   12.3086 O   0  0  0  0  0  0  0  0  0  0  0  0
   43.5445   13.3911   10.6910 C   0  0  0  0  0  0  0  0  0  0  0  0
   42.6800   11.1327   10.5531 C   0  0  0  0  0  0  0  0  0  0  0  0
   49.3507   10.3115   11.6060 C   0  0  0  0  0  0  0  0  0  0  0  0
   48.4996    8.1011   12.1056 C   0  0  0  0  0  0  0  0  0  0  0  0
   50.8332    8.4074   11.6104 C   0  0  0  0  0  0  0  0  0  0  0  0
   49.7792    7.5662   11.9404 C   0  0  0  0  0  0  0  0  0  0  0  0
   50.6308    9.7722   11.4412 C   0  0  0  0  0  0  0  0  0  0  0  0
   52.0611    7.8981   11.4507 F   0  0  0  0  0  0  0  0  0  0  0  0
   45.0151   11.5289   10.0732 C   0  0  0  0  0  0  0  0  0  0  0  0
   40.1444   12.5139   14.9548 C   0  0  0  0  0  0  0  0  0  0  0  0
   37.6763   13.9445   14.9485 C   0  0  0  0  0  0  0  0  0  0  0  0
   46.3564   11.9848   10.6693 C   0  0  0  0  0  0  0  0  0  0  0  0
   46.6028   11.4808   12.0918 C   0  0  0  0  0  0  0  0  0  0  0  0
   39.3381   12.5725   16.0989 C   0  0  0  0  0  0  0  0  0  0  0  0
   38.1176   13.2799   16.0959 C   0  0  0  0  0  0  0  0  0  0  0  0
   37.5202   14.9935   12.2765 H   0  0  0  0  0  0  0  0  0  0  0  0
   41.9295   12.1519   12.9365 H   0  0  0  0  0  0  0  0  0  0  0  0
   40.9506   12.3231   10.0582 H   0  0  0  0  0  0  0  0  0  0  0  0
   40.6085   11.0051   11.1688 H   0  0  0  0  0  0  0  0  0  0  0  0
   43.0903   14.0927   12.6899 H   0  0  0  0  0  0  0  0  0  0  0  0
   42.0686   14.7590   11.4351 H   0  0  0  0  0  0  0  0  0  0  0  0
   43.1370   13.5872    9.6904 H   0  0  0  0  0  0  0  0  0  0  0  0
   44.4371   14.0175   10.7919 H   0  0  0  0  0  0  0  0  0  0  0  0
   42.7852   10.1913   11.1062 H   0  0  0  0  0  0  0  0  0  0  0  0
   42.6388   10.8741    9.4868 H   0  0  0  0  0  0  0  0  0  0  0  0
   49.2263   11.3797   11.4583 H   0  0  0  0  0  0  0  0  0  0  0  0
   47.6761    7.4366   12.3637 H   0  0  0  0  0  0  0  0  0  0  0  0
   49.9556    6.5027   12.0668 H   0  0  0  0  0  0  0  0  0  0  0  0
   51.4715   10.4082   11.1801 H   0  0  0  0  0  0  0  0  0  0  0  0
   45.0333   10.4325   10.0217 H   0  0  0  0  0  0  0  0  0  0  0  0
   44.9360   11.8825    9.0370 H   0  0  0  0  0  0  0  0  0  0  0  0
   41.0786   11.9664   14.9725 H   0  0  0  0  0  0  0  0  0  0  0  0
   36.7404   14.4895   14.9398 H   0  0  0  0  0  0  0  0  0  0  0  0
   47.1568   11.6363   10.0056 H   0  0  0  0  0  0  0  0  0  0  0  0
   46.4162   13.0787   10.6671 H   0  0  0  0  0  0  0  0  0  0  0  0
   45.7468   11.6851   12.7455 H   0  0  0  0  0  0  0  0  0  0  0  0
   47.4382   12.0203   12.5496 H   0  0  0  0  0  0  0  0  0  0  0  0
   39.6576   12.0632   17.0062 H   0  0  0  0  0  0  0  0  0  0  0  0
   37.5135   13.3064   17.0004 H   0  0  0  0  0  0  0  0  0  0  0  0
  2  1  1  0
  3  1  1  0
  4  2  1  0
  5  3  1  0
  6  2  1  0
  7 14  1  0
  8  1  2  0
  9  6  1  0
 10  6  1  0
 11 26  1  0
 12 11  1  0
 13 11  2  0
 14 10  1  0
 15  9  1  0
 16 12  2  0
 17 12  1  0
 18 19  1  0
 19 17  2  0
 20 16  1  0
 21 18  1  0
 22  7  1  0
 23  4  2  0
 24  5  2  0
 25 22  1  0
 26 25  1  0
 27 23  1  0
 28 24  1  0
  5  4  1  0
 28 27  2  0
 15  7  1  0
 20 18  2  0
  3 29  1  0
  6 30  1  0
  9 31  1  0
  9 32  1  0
 10 33  1  0
 10 34  1  0
 14 35  1  0
 14 36  1  0
 15 37  1  0
 15 38  1  0
 16 39  1  0
 17 40  1  0
 19 41  1  0
 20 42  1  0
 22 43  1  0
 22 44  1  0
 23 45  1  0
 24 46  1  0
 25 47  1  0
 25 48  1  0
 26 49  1  0
 26 50  1  0
 27 51  1  0
 28 52  1  0
M  END
> <Uni-Dock RESULT> 
ENERGY=   -4.206  LOWER_BOUND=    5.359  UPPER_BOUND=    8.398
INTER + INTRA:          -4.206
INTER:                  -4.206
INTRA:                   0.000
UNBOUND:                 0.000

$$$$

     RDKit          3D

 52 55  0  0  0  0  0  0  0  0999 V2000
   47.2429   12.4238   18.5688 C   0  0  0  0  0  0  0  0  0  0  0  0
   48.2904   11.7232   17.9288 N   0  0  0  0  0  0  0  0  0  0  0  0
   47.1955   13.6971   17.9827 N   0  0  0  0  0  0  0  0  0  0  0  0
   48.8623   12.5676   16.9613 C   0  0  0  0  0  0  0  0  0  0  0  0
   48.1784   13.7834   17.0059 C   0  0  0  0  0  0  0  0  0  0  0  0
   48.6972   10.3564   18.2104 C   0  0  0  0  0  0  0  0  0  0  0  0
   49.0344    7.7425   19.0290 N   0  0  0  0  0  0  0  0  0  0  0  0
   46.5033   12.0302   19.4554 O   0  0  0  0  0  0  0  0  0  0  0  0
   49.1575   10.1790   19.6583 C   0  0  0  0  0  0  0  0  0  0  0  0
   47.5904    9.3442   17.8660 C   0  0  0  0  0  0  0  0  0  0  0  0
   51.4364    5.0029   17.8370 C   0  0  0  0  0  0  0  0  0  0  0  0
   51.8870    3.5747   17.8413 C   0  0  0  0  0  0  0  0  0  0  0  0
   52.2255    5.8771   18.1947 O   0  0  0  0  0  0  0  0  0  0  0  0
   47.6419    8.0913   18.7464 C   0  0  0  0  0  0  0  0  0  0  0  0
   49.6688    8.7533   19.8955 C   0  0  0  0  0  0  0  0  0  0  0  0
   51.0228    2.5026   17.5768 C   0  0  0  0  0  0  0  0  0  0  0  0
   53.2363    3.3099   18.1319 C   0  0  0  0  0  0  0  0  0  0  0  0
   52.8441    0.9499   17.8850 C   0  0  0  0  0  0  0  0  0  0  0  0
   53.7145    1.9978   18.1526 C   0  0  0  0  0  0  0  0  0  0  0  0
   51.5052    1.1897   17.5987 C   0  0  0  0  0  0  0  0  0  0  0  0
   53.2989   -0.3094   17.9045 F   0  0  0  0  0  0  0  0  0  0  0  0
   49.1984    6.4011   19.6022 C   0  0  0  0  0  0  0  0  0  0  0  0
   49.8983   12.3665   16.0740 C   0  0  0  0  0  0  0  0  0  0  0  0
   48.4865   14.8431   16.1833 C   0  0  0  0  0  0  0  0  0  0  0  0
   49.0315    5.2768   18.5677 C   0  0  0  0  0  0  0  0  0  0  0  0
   50.0241    5.3535   17.4071 C   0  0  0  0  0  0  0  0  0  0  0  0
   50.2332   13.4294   15.2251 C   0  0  0  0  0  0  0  0  0  0  0  0
   49.5351   14.6541   15.2791 C   0  0  0  0  0  0  0  0  0  0  0  0
   46.5363   14.4084   18.2503 H   0  0  0  0  0  0  0  0  0  0  0  0
   49.5597   10.1243   17.5736 H   0  0  0  0  0  0  0  0  0  0  0  0
   48.3267   10.3808   20.3461 H   0  0  0  0  0  0  0  0  0  0  0  0
   49.9462   10.9002   19.9046 H   0  0  0  0  0  0  0  0  0  0  0  0
   47.6985    9.0620   16.8103 H   0  0  0  0  0  0  0  0  0  0  0  0
   46.5914    9.7867   17.9555 H   0  0  0  0  0  0  0  0  0  0  0  0
   47.0839    8.2541   19.6781 H   0  0  0  0  0  0  0  0  0  0  0  0
   47.1227    7.2912   18.2083 H   0  0  0  0  0  0  0  0  0  0  0  0
   50.7493    8.7274   19.7090 H   0  0  0  0  0  0  0  0  0  0  0  0
   49.5219    8.5171   20.9577 H   0  0  0  0  0  0  0  0  0  0  0  0
   49.9704    2.6537   17.3581 H   0  0  0  0  0  0  0  0  0  0  0  0
   53.9233    4.1283   18.3434 H   0  0  0  0  0  0  0  0  0  0  0  0
   54.7565    1.7914   18.3760 H   0  0  0  0  0  0  0  0  0  0  0  0
   50.8443    0.3522   17.3957 H   0  0  0  0  0  0  0  0  0  0  0  0
   50.2016    6.3025   20.0368 H   0  0  0  0  0  0  0  0  0  0  0  0
   48.4910    6.2472   20.4274 H   0  0  0  0  0  0  0  0  0  0  0  0
   50.4438   11.4325   16.0210 H   0  0  0  0  0  0  0  0  0  0  0  0
   47.9467   15.7808   16.2297 H   0  0  0  0  0  0  0  0  0  0  0  0
   49.1405    4.3185   19.0897 H   0  0  0  0  0  0  0  0  0  0  0  0
   48.0135    5.2867   18.1628 H   0  0  0  0  0  0  0  0  0  0  0  0
   50.0441    6.3541   16.9595 H   0  0  0  0  0  0  0  0  0  0  0  0
   49.7134    4.6903   16.5933 H   0  0  0  0  0  0  0  0  0  0  0  0
   51.0463   13.3095   14.5116 H   0  0  0  0  0  0  0  0  0  0  0  0
   49.8194   15.4610   14.6068 H   0  0  0  0  0  0  0  0  0  0  0  0
  2  1  1  0
  3  1  1  0
  4  2  1  0
  5  3  1  0
  6  2  1  0
  7 14  1  0
  8  1  2  0
  9  6  1  0
 10  6  1  0
 11 26  1  0
 12 11  1  0
 13 11  2  0
 14 10  1  0
 15  9  1  0
 16 12  2  0
 17 12  1  0
 18 19  1  0
 19 17  2  0
 20 16  1  0
 21 18  1  0
 22  7  1  0
 23  4  2  0
 24  5  2  0
 25 22  1  0
 26 25  1  0
 27 23  1  0
 28 24  1  0
  5  4  1  0
 28 27  2  0
 15  7  1  0
 20 18  2  0
  3 29  1  0
  6 30  1  0
  9 31  1  0
  9 32  1  0
 10 33  1  0
 10 34  1  0
 14 35  1  0
 14 36  1  0
 15 37  1  0
 15 38  1  0
 16 39  1  0
 17 40  1  0
 19 41  1  0
 20 42  1  0
 22 43  1  0
 22 44  1  0
 23 45  1  0
 24 46  1  0
 25 47  1  0
 25 48  1  0
 26 49  1  0
 26 50  1  0
 27 51  1  0
 28 52  1  0
M  END
> <Uni-Dock RESULT> 
ENERGY=   -4.179  LOWER_BOUND=    8.808  UPPER_BOUND=   12.647
INTER + INTRA:          -4.179
INTER:                  -4.179
INTRA:                   0.000
UNBOUND:                 0.000

$$$$

     RDKit          3D

 52 55  0  0  0  0  0  0  0  0999 V2000
   47.5907   16.4992   12.6510 C   0  0  0  0  0  0  0  0  0  0  0  0
   46.6237   15.5111   12.9444 N   0  0  0  0  0  0  0  0  0  0  0  0
   47.0343   17.7297   13.0298 N   0  0  0  0  0  0  0  0  0  0  0  0
   45.4985   16.1433   13.5017 C   0  0  0  0  0  0  0  0  0  0  0  0
   45.7642   17.5128   13.5473 C   0  0  0  0  0  0  0  0  0  0  0  0
   46.7724   14.0820   12.7239 C   0  0  0  0  0  0  0  0  0  0  0  0
   47.5527   11.4853   12.2095 N   0  0  0  0  0  0  0  0  0  0  0  0
   48.7007   16.3487   12.1680 O   0  0  0  0  0  0  0  0  0  0  0  0
   46.9979   13.7472   11.2484 C   0  0  0  0  0  0  0  0  0  0  0  0
   47.8901   13.4790   13.5930 C   0  0  0  0  0  0  0  0  0  0  0  0
   45.7693    8.1412   12.7868 C   0  0  0  0  0  0  0  0  0  0  0  0
   45.7873    6.6441   12.8129 C   0  0  0  0  0  0  0  0  0  0  0  0
   44.9735    8.7142   12.0432 O   0  0  0  0  0  0  0  0  0  0  0  0
   48.5542   12.2626   12.9398 C   0  0  0  0  0  0  0  0  0  0  0  0
   47.0548   12.2298   11.0378 C   0  0  0  0  0  0  0  0  0  0  0  0
   46.7425    5.9060   13.5265 C   0  0  0  0  0  0  0  0  0  0  0  0
   44.8025    5.9600   12.0796 C   0  0  0  0  0  0  0  0  0  0  0  0
   45.7220    3.8508   12.7797 C   0  0  0  0  0  0  0  0  0  0  0  0
   44.7697    4.5638   12.0642 C   0  0  0  0  0  0  0  0  0  0  0  0
   46.7065    4.5077   13.5085 C   0  0  0  0  0  0  0  0  0  0  0  0
   45.6939    2.5121   12.7667 F   0  0  0  0  0  0  0  0  0  0  0  0
   48.0218   10.1534   11.8084 C   0  0  0  0  0  0  0  0  0  0  0  0
   44.3002   15.6359   13.9571 C   0  0  0  0  0  0  0  0  0  0  0  0
   44.8651   18.4310   14.0400 C   0  0  0  0  0  0  0  0  0  0  0  0
   48.0779    9.1551   12.9756 C   0  0  0  0  0  0  0  0  0  0  0  0
   46.7290    8.9286   13.6595 C   0  0  0  0  0  0  0  0  0  0  0  0
   43.3663   16.5490   14.4636 C   0  0  0  0  0  0  0  0  0  0  0  0
   43.6455   17.9312   14.5046 C   0  0  0  0  0  0  0  0  0  0  0  0
   47.5116   18.6098   12.9316 H   0  0  0  0  0  0  0  0  0  0  0  0
   45.8339   13.5968   13.0185 H   0  0  0  0  0  0  0  0  0  0  0  0
   47.9378   14.1930   10.8994 H   0  0  0  0  0  0  0  0  0  0  0  0
   46.2018   14.1768   10.6283 H   0  0  0  0  0  0  0  0  0  0  0  0
   47.4568   13.1920   14.5604 H   0  0  0  0  0  0  0  0  0  0  0  0
   48.6698   14.2148   13.8223 H   0  0  0  0  0  0  0  0  0  0  0  0
   49.3645   12.5812   12.2707 H   0  0  0  0  0  0  0  0  0  0  0  0
   49.0219   11.6767   13.7381 H   0  0  0  0  0  0  0  0  0  0  0  0
   46.0462   11.8644   10.8094 H   0  0  0  0  0  0  0  0  0  0  0  0
   47.6729   12.0377   10.1508 H   0  0  0  0  0  0  0  0  0  0  0  0
   47.5295    6.3869   14.0988 H   0  0  0  0  0  0  0  0  0  0  0  0
   44.0535    6.5146   11.5159 H   0  0  0  0  0  0  0  0  0  0  0  0
   44.0093    4.0337   11.4992 H   0  0  0  0  0  0  0  0  0  0  0  0
   47.4418    3.9267   14.0573 H   0  0  0  0  0  0  0  0  0  0  0  0
   47.3484    9.7350   11.0492 H   0  0  0  0  0  0  0  0  0  0  0  0
   49.0107   10.2208   11.3366 H   0  0  0  0  0  0  0  0  0  0  0  0
   44.0711   14.5778   13.9318 H   0  0  0  0  0  0  0  0  0  0  0  0
   45.0855   19.4909   14.0689 H   0  0  0  0  0  0  0  0  0  0  0  0
   48.4648    8.2047   12.5889 H   0  0  0  0  0  0  0  0  0  0  0  0
   48.8013    9.4937   13.7255 H   0  0  0  0  0  0  0  0  0  0  0  0
   46.2471    9.8771   13.9239 H   0  0  0  0  0  0  0  0  0  0  0  0
   46.8661    8.4101   14.6139 H   0  0  0  0  0  0  0  0  0  0  0  0
   42.4081   16.1869   14.8314 H   0  0  0  0  0  0  0  0  0  0  0  0
   42.8993   18.6152   14.9035 H   0  0  0  0  0  0  0  0  0  0  0  0
  2  1  1  0
  3  1  1  0
  4  2  1  0
  5  3  1  0
  6  2  1  0
  7 14  1  0
  8  1  2  0
  9  6  1  0
 10  6  1  0
 11 26  1  0
 12 11  1  0
 13 11  2  0
 14 10  1  0
 15  9  1  0
 16 12  2  0
 17 12  1  0
 18 19  1  0
 19 17  2  0
 20 16  1  0
 21 18  1  0
 22  7  1  0
 23  4  2  0
 24  5  2  0
 25 22  1  0
 26 25  1  0
 27 23  1  0
 28 24  1  0
  5  4  1  0
 28 27  2  0
 15  7  1  0
 20 18  2  0
  3 29  1  0
  6 30  1  0
  9 31  1  0
  9 32  1  0
 10 33  1  0
 10 34  1  0
 14 35  1  0
 14 36  1  0
 15 37  1  0
 15 38  1  0
 16 39  1  0
 17 40  1  0
 19 41  1  0
 20 42  1  0
 22 43  1  0
 22 44  1  0
 23 45  1  0
 24 46  1  0
 25 47  1  0
 25 48  1  0
 26 49  1  0
 26 50  1  0
 27 51  1  0
 28 52  1  0
M  END
> <Uni-Dock RESULT> 
ENERGY=   -4.076  LOWER_BOUND=    5.003  UPPER_BOUND=   10.516
INTER + INTRA:          -4.076
INTER:                  -4.076
INTRA:                   0.000
UNBOUND:                 0.000

$$$$
