
     RDKit          3D

 52 55  0  0  0  0  0  0  0  0999 V2000
   46.5225   13.6154    7.8317 C   0  0  0  0  0  0  0  0  0  0  0  0
   46.0864   12.9004    6.6946 N   0  0  0  0  0  0  0  0  0  0  0  0
   47.9242   13.5741    7.8264 N   0  0  0  0  0  0  0  0  0  0  0  0
   47.2307   12.3854    6.0447 C   0  0  0  0  0  0  0  0  0  0  0  0
   48.3538   12.8193    6.7470 C   0  0  0  0  0  0  0  0  0  0  0  0
   44.7160   12.5599    6.3109 C   0  0  0  0  0  0  0  0  0  0  0  0
   42.3983   12.5337    8.1333 N   0  0  0  0  0  0  0  0  0  0  0  0
   45.8616   14.1775    8.6867 O   0  0  0  0  0  0  0  0  0  0  0  0
   44.2071   11.3029    7.0210 C   0  0  0  0  0  0  0  0  0  0  0  0
   43.7165   13.7233    6.3867 C   0  0  0  0  0  0  0  0  0  0  0  0
   40.4743   11.7662   12.1848 C   0  0  0  0  0  0  0  0  0  0  0  0
   39.7162   12.1999   13.3990 C   0  0  0  0  0  0  0  0  0  0  0  0
   41.6430   11.4071   12.3095 O   0  0  0  0  0  0  0  0  0  0  0  0
   42.9407   13.8327    7.6998 C   0  0  0  0  0  0  0  0  0  0  0  0
   43.5145   11.5971    8.3465 C   0  0  0  0  0  0  0  0  0  0  0  0
   40.4202   12.3516   14.6049 C   0  0  0  0  0  0  0  0  0  0  0  0
   38.3367   12.4504   13.3725 C   0  0  0  0  0  0  0  0  0  0  0  0
   38.3906   13.0018   15.7208 C   0  0  0  0  0  0  0  0  0  0  0  0
   37.6760   12.8530   14.5373 C   0  0  0  0  0  0  0  0  0  0  0  0
   39.7564   12.7541   15.7658 C   0  0  0  0  0  0  0  0  0  0  0  0
   37.7515   13.3871   16.8324 F   0  0  0  0  0  0  0  0  0  0  0  0
   41.6182   12.7157    9.3739 C   0  0  0  0  0  0  0  0  0  0  0  0
   47.3606   11.5831    4.9296 C   0  0  0  0  0  0  0  0  0  0  0  0
   49.6396   12.4931    6.3794 C   0  0  0  0  0  0  0  0  0  0  0  0
   40.7018   11.5150    9.6585 C   0  0  0  0  0  0  0  0  0  0  0  0
   39.7630   11.7719   10.8411 C   0  0  0  0  0  0  0  0  0  0  0  0
   48.6581   11.2358    4.5312 C   0  0  0  0  0  0  0  0  0  0  0  0
   49.7857   11.6874    5.2475 C   0  0  0  0  0  0  0  0  0  0  0  0
   48.4926   14.0022    8.5378 H   0  0  0  0  0  0  0  0  0  0  0  0
   44.7753   12.3168    5.2424 H   0  0  0  0  0  0  0  0  0  0  0  0
   45.0214   10.5861    7.1817 H   0  0  0  0  0  0  0  0  0  0  0  0
   43.4842   10.8025    6.3619 H   0  0  0  0  0  0  0  0  0  0  0  0
   44.2100   14.6770    6.1640 H   0  0  0  0  0  0  0  0  0  0  0  0
   42.9754   13.5715    5.5888 H   0  0  0  0  0  0  0  0  0  0  0  0
   42.1118   14.5317    7.5269 H   0  0  0  0  0  0  0  0  0  0  0  0
   43.5525   14.2821    8.4862 H   0  0  0  0  0  0  0  0  0  0  0  0
   43.1474   10.6410    8.7341 H   0  0  0  0  0  0  0  0  0  0  0  0
   44.2317   11.9837    9.0810 H   0  0  0  0  0  0  0  0  0  0  0  0
   41.4912   12.1574   14.6442 H   0  0  0  0  0  0  0  0  0  0  0  0
   37.7517   12.3340   12.4650 H   0  0  0  0  0  0  0  0  0  0  0  0
   36.6080   13.0495   14.5300 H   0  0  0  0  0  0  0  0  0  0  0  0
   40.2967   12.8739   16.6997 H   0  0  0  0  0  0  0  0  0  0  0  0
   40.9686   13.5936    9.2597 H   0  0  0  0  0  0  0  0  0  0  0  0
   42.2782   12.9228   10.2251 H   0  0  0  0  0  0  0  0  0  0  0  0
   46.5058   11.2241    4.3703 H   0  0  0  0  0  0  0  0  0  0  0  0
   50.5006   12.8376    6.9389 H   0  0  0  0  0  0  0  0  0  0  0  0
   41.2871   10.6087    9.8475 H   0  0  0  0  0  0  0  0  0  0  0  0
   40.0870   11.3190    8.7707 H   0  0  0  0  0  0  0  0  0  0  0  0
   39.2561   12.7325   10.6992 H   0  0  0  0  0  0  0  0  0  0  0  0
   39.0110   10.9746   10.8637 H   0  0  0  0  0  0  0  0  0  0  0  0
   48.8000   10.6058    3.6551 H   0  0  0  0  0  0  0  0  0  0  0  0
   50.7810   11.4001    4.9147 H   0  0  0  0  0  0  0  0  0  0  0  0
  2  1  1  0
  3  1  1  0
  4  2  1  0
  5  3  1  0
  6  2  1  0
  7 14  1  0
  8  1  2  0
  9  6  1  0
 10  6  1  0
 11 26  1  0
 12 11  1  0
 13 11  2  0
 14 10  1  0
 15  9  1  0
 16 12  2  0
 17 12  1  0
 18 19  1  0
 19 17  2  0
 20 16  1  0
 21 18  1  0
 22  7  1  0
 23  4  2  0
 24  5  2  0
 25 22  1  0
 26 25  1  0
 27 23  1  0
 28 24  1  0
  5  4  1  0
 28 27  2  0
 15  7  1  0
 20 18  2  0
  3 29  1  0
  6 30  1  0
  9 31  1  0
  9 32  1  0
 10 33  1  0
 10 34  1  0
 14 35  1  0
 14 36  1  0
 15 37  1  0
 15 38  1  0
 16 39  1  0
 17 40  1  0
 19 41  1  0
 20 42  1  0
 22 43  1  0
 22 44  1  0
 23 45  1  0
 24 46  1  0
 25 47  1  0
 25 48  1  0
 26 49  1  0
 26 50  1  0
 27 51  1  0
 28 52  1  0
M  END
> <Uni-Dock RESULT> 
ENERGY=   -4.885  LOWER_BOUND=    0.000  UPPER_BOUND=    0.000
INTER + INTRA:          -4.885
INTER:                  -4.885
INTRA:                   0.000
UNBOUND:                 0.000

$$$$

     RDKit          3D

 52 55  0  0  0  0  0  0  0  0999 V2000
   50.7768    5.6006   20.2703 C   0  0  0  0  0  0  0  0  0  0  0  0
   51.9427    6.2264   19.7766 N   0  0  0  0  0  0  0  0  0  0  0  0
   51.1853    4.7142   21.2772 N   0  0  0  0  0  0  0  0  0  0  0  0
   53.0506    5.6679   20.4531 C   0  0  0  0  0  0  0  0  0  0  0  0
   52.5663    4.7479   21.3815 C   0  0  0  0  0  0  0  0  0  0  0  0
   52.0651    7.1484   18.6470 C   0  0  0  0  0  0  0  0  0  0  0  0
   50.0905    7.4495   16.4781 N   0  0  0  0  0  0  0  0  0  0  0  0
   49.6178    5.7555   19.9291 O   0  0  0  0  0  0  0  0  0  0  0  0
   52.1579    6.4173   17.3052 C   0  0  0  0  0  0  0  0  0  0  0  0
   51.0328    8.2852   18.6268 C   0  0  0  0  0  0  0  0  0  0  0  0
   47.0044    5.7723   13.5852 C   0  0  0  0  0  0  0  0  0  0  0  0
   45.6282    5.7036   13.0036 C   0  0  0  0  0  0  0  0  0  0  0  0
   47.4451    4.7964   14.1884 O   0  0  0  0  0  0  0  0  0  0  0  0
   49.7743    8.0095   17.8033 C   0  0  0  0  0  0  0  0  0  0  0  0
   50.8007    6.1719   16.6564 C   0  0  0  0  0  0  0  0  0  0  0  0
   44.8247    4.5964   13.3222 C   0  0  0  0  0  0  0  0  0  0  0  0
   45.1228    6.6972   12.1527 C   0  0  0  0  0  0  0  0  0  0  0  0
   43.0468    5.4822   11.9652 C   0  0  0  0  0  0  0  0  0  0  0  0
   43.8287    6.5836   11.6352 C   0  0  0  0  0  0  0  0  0  0  0  0
   43.5329    4.4871   12.8032 C   0  0  0  0  0  0  0  0  0  0  0  0
   41.8088    5.3796   11.4657 F   0  0  0  0  0  0  0  0  0  0  0  0
   48.8411    7.2563   15.7148 C   0  0  0  0  0  0  0  0  0  0  0  0
   54.4060    5.8866   20.3155 C   0  0  0  0  0  0  0  0  0  0  0  0
   53.3870    4.0190   22.2121 C   0  0  0  0  0  0  0  0  0  0  0  0
   49.1078    7.0679   14.2130 C   0  0  0  0  0  0  0  0  0  0  0  0
   47.8135    7.0452   13.3944 C   0  0  0  0  0  0  0  0  0  0  0  0
   55.2657    5.1592   21.1489 C   0  0  0  0  0  0  0  0  0  0  0  0
   54.7614    4.2365   22.0884 C   0  0  0  0  0  0  0  0  0  0  0  0
   50.5475    4.1300   21.7915 H   0  0  0  0  0  0  0  0  0  0  0  0
   53.0277    7.6530   18.7989 H   0  0  0  0  0  0  0  0  0  0  0  0
   52.6925    5.4659   17.4129 H   0  0  0  0  0  0  0  0  0  0  0  0
   52.7586    7.0301   16.6188 H   0  0  0  0  0  0  0  0  0  0  0  0
   50.7550    8.5782   19.6464 H   0  0  0  0  0  0  0  0  0  0  0  0
   51.5210    9.1637   18.1810 H   0  0  0  0  0  0  0  0  0  0  0  0
   49.2557    8.9689   17.6765 H   0  0  0  0  0  0  0  0  0  0  0  0
   49.0793    7.3624   18.3445 H   0  0  0  0  0  0  0  0  0  0  0  0
   50.9908    5.6976   15.6879 H   0  0  0  0  0  0  0  0  0  0  0  0
   50.2112    5.4610   17.2484 H   0  0  0  0  0  0  0  0  0  0  0  0
   45.2030    3.8137   13.9783 H   0  0  0  0  0  0  0  0  0  0  0  0
   45.7138    7.5635   11.8709 H   0  0  0  0  0  0  0  0  0  0  0  0
   43.4260    7.3458   10.9748 H   0  0  0  0  0  0  0  0  0  0  0  0
   42.9080    3.6338   13.0478 H   0  0  0  0  0  0  0  0  0  0  0  0
   48.2187    8.1550   15.8187 H   0  0  0  0  0  0  0  0  0  0  0  0
   48.2575    6.4220   16.1229 H   0  0  0  0  0  0  0  0  0  0  0  0
   54.8106    6.5882   19.5967 H   0  0  0  0  0  0  0  0  0  0  0  0
   52.9927    3.3066   22.9262 H   0  0  0  0  0  0  0  0  0  0  0  0
   49.6741    6.1492   14.0256 H   0  0  0  0  0  0  0  0  0  0  0  0
   49.7242    7.9021   13.8542 H   0  0  0  0  0  0  0  0  0  0  0  0
   47.2003    7.9124   13.6622 H   0  0  0  0  0  0  0  0  0  0  0  0
   48.0762    7.1117   12.3322 H   0  0  0  0  0  0  0  0  0  0  0  0
   56.3412    5.3065   21.0704 H   0  0  0  0  0  0  0  0  0  0  0  0
   55.4538    3.6851   22.7213 H   0  0  0  0  0  0  0  0  0  0  0  0
  2  1  1  0
  3  1  1  0
  4  2  1  0
  5  3  1  0
  6  2  1  0
  7 14  1  0
  8  1  2  0
  9  6  1  0
 10  6  1  0
 11 26  1  0
 12 11  1  0
 13 11  2  0
 14 10  1  0
 15  9  1  0
 16 12  2  0
 17 12  1  0
 18 19  1  0
 19 17  2  0
 20 16  1  0
 21 18  1  0
 22  7  1  0
 23  4  2  0
 24  5  2  0
 25 22  1  0
 26 25  1  0
 27 23  1  0
 28 24  1  0
  5  4  1  0
 28 27  2  0
 15  7  1  0
 20 18  2  0
  3 29  1  0
  6 30  1  0
  9 31  1  0
  9 32  1  0
 10 33  1  0
 10 34  1  0
 14 35  1  0
 14 36  1  0
 15 37  1  0
 15 38  1  0
 16 39  1  0
 17 40  1  0
 19 41  1  0
 20 42  1  0
 22 43  1  0
 22 44  1  0
 23 45  1  0
 24 46  1  0
 25 47  1  0
 25 48  1  0
 26 49  1  0
 26 50  1  0
 27 51  1  0
 28 52  1  0
M  END
> <Uni-Dock RESULT> 
ENERGY=   -4.241  LOWER_BOUND=   12.243  UPPER_BOUND=   13.607
INTER + INTRA:          -4.241
INTER:                  -4.241
INTRA:                   0.000
UNBOUND:                 0.000

$$$$

     RDKit          3D

 52 55  0  0  0  0  0  0  0  0999 V2000
   46.8087    5.2099   13.9275 C   0  0  0  0  0  0  0  0  0  0  0  0
   46.7964    5.8218   12.6547 N   0  0  0  0  0  0  0  0  0  0  0  0
   45.8606    4.1773   13.8924 N   0  0  0  0  0  0  0  0  0  0  0  0
   45.7982    5.1873   11.8814 C   0  0  0  0  0  0  0  0  0  0  0  0
   45.2404    4.1698   12.6537 C   0  0  0  0  0  0  0  0  0  0  0  0
   47.5219    7.0150   12.2178 C   0  0  0  0  0  0  0  0  0  0  0  0
   48.6648    9.0594   14.0089 N   0  0  0  0  0  0  0  0  0  0  0  0
   47.4841    5.4808   14.9043 O   0  0  0  0  0  0  0  0  0  0  0  0
   46.7997    8.3092   12.6009 C   0  0  0  0  0  0  0  0  0  0  0  0
   49.0107    7.0392   12.5938 C   0  0  0  0  0  0  0  0  0  0  0  0
   48.5717   11.6192   17.7698 C   0  0  0  0  0  0  0  0  0  0  0  0
   49.1466   12.1000   19.0641 C   0  0  0  0  0  0  0  0  0  0  0  0
   47.5191   10.9849   17.7851 O   0  0  0  0  0  0  0  0  0  0  0  0
   49.3414    7.7553   13.9037 C   0  0  0  0  0  0  0  0  0  0  0  0
   47.2083    8.8466   13.9674 C   0  0  0  0  0  0  0  0  0  0  0  0
   48.5590   11.6556   20.2600 C   0  0  0  0  0  0  0  0  0  0  0  0
   50.2389   12.9776   19.1199 C   0  0  0  0  0  0  0  0  0  0  0  0
   50.1448   12.9433   21.5306 C   0  0  0  0  0  0  0  0  0  0  0  0
   50.7371   13.3972   20.3573 C   0  0  0  0  0  0  0  0  0  0  0  0
   49.0599   12.0771   21.4936 C   0  0  0  0  0  0  0  0  0  0  0  0
   50.6267   13.3495   22.7119 F   0  0  0  0  0  0  0  0  0  0  0  0
   49.0655    9.7214   15.2667 C   0  0  0  0  0  0  0  0  0  0  0  0
   45.3469    5.4310   10.6004 C   0  0  0  0  0  0  0  0  0  0  0  0
   44.2317    3.3511   12.1986 C   0  0  0  0  0  0  0  0  0  0  0  0
   48.7351   11.2224   15.2573 C   0  0  0  0  0  0  0  0  0  0  0  0
   49.3058   11.9477   16.4796 C   0  0  0  0  0  0  0  0  0  0  0  0
   44.3211    4.6122   10.1102 C   0  0  0  0  0  0  0  0  0  0  0  0
   43.7706    3.5821   10.9003 C   0  0  0  0  0  0  0  0  0  0  0  0
   45.6605    3.5836   14.6799 H   0  0  0  0  0  0  0  0  0  0  0  0
   47.5155    6.9624   11.1216 H   0  0  0  0  0  0  0  0  0  0  0  0
   45.7117    8.1762   12.5673 H   0  0  0  0  0  0  0  0  0  0  0  0
   47.0382    9.0737   11.8483 H   0  0  0  0  0  0  0  0  0  0  0  0
   49.4262    6.0244   12.6078 H   0  0  0  0  0  0  0  0  0  0  0  0
   49.5425    7.5738   11.7936 H   0  0  0  0  0  0  0  0  0  0  0  0
   50.4284    7.9089   13.9213 H   0  0  0  0  0  0  0  0  0  0  0  0
   49.1137    7.1267   14.7685 H   0  0  0  0  0  0  0  0  0  0  0  0
   46.6758    9.7927   14.1108 H   0  0  0  0  0  0  0  0  0  0  0  0
   46.8758    8.1706   14.7647 H   0  0  0  0  0  0  0  0  0  0  0  0
   47.7075   10.9770   20.2349 H   0  0  0  0  0  0  0  0  0  0  0  0
   50.7157   13.3551   18.2202 H   0  0  0  0  0  0  0  0  0  0  0  0
   51.5820   14.0771   20.4140 H   0  0  0  0  0  0  0  0  0  0  0  0
   48.6098   11.7351   22.4204 H   0  0  0  0  0  0  0  0  0  0  0  0
   50.1540    9.6345   15.3829 H   0  0  0  0  0  0  0  0  0  0  0  0
   48.6168    9.2208   16.1333 H   0  0  0  0  0  0  0  0  0  0  0  0
   45.7554    6.2200    9.9816 H   0  0  0  0  0  0  0  0  0  0  0  0
   43.8086    2.5667   12.8140 H   0  0  0  0  0  0  0  0  0  0  0  0
   47.6534   11.3874   15.2073 H   0  0  0  0  0  0  0  0  0  0  0  0
   49.1695   11.6762   14.3573 H   0  0  0  0  0  0  0  0  0  0  0  0
   50.3664   11.6960   16.5876 H   0  0  0  0  0  0  0  0  0  0  0  0
   49.2130   13.0273   16.3142 H   0  0  0  0  0  0  0  0  0  0  0  0
   43.9407    4.7733    9.1033 H   0  0  0  0  0  0  0  0  0  0  0  0
   42.9738    2.9632   10.4928 H   0  0  0  0  0  0  0  0  0  0  0  0
  2  1  1  0
  3  1  1  0
  4  2  1  0
  5  3  1  0
  6  2  1  0
  7 14  1  0
  8  1  2  0
  9  6  1  0
 10  6  1  0
 11 26  1  0
 12 11  1  0
 13 11  2  0
 14 10  1  0
 15  9  1  0
 16 12  2  0
 17 12  1  0
 18 19  1  0
 19 17  2  0
 20 16  1  0
 21 18  1  0
 22  7  1  0
 23  4  2  0
 24  5  2  0
 25 22  1  0
 26 25  1  0
 27 23  1  0
 28 24  1  0
  5  4  1  0
 28 27  2  0
 15  7  1  0
 20 18  2  0
  3 29  1  0
  6 30  1  0
  9 31  1  0
  9 32  1  0
 10 33  1  0
 10 34  1  0
 14 35  1  0
 14 36  1  0
 15 37  1  0
 15 38  1  0
 16 39  1  0
 17 40  1  0
 19 41  1  0
 20 42  1  0
 22 43  1  0
 22 44  1  0
 23 45  1  0
 24 46  1  0
 25 47  1  0
 25 48  1  0
 26 49  1  0
 26 50  1  0
 27 51  1  0
 28 52  1  0
M  END
> <Uni-Dock RESULT> 
ENERGY=   -4.133  LOWER_BOUND=    9.215  UPPER_BOUND=   10.613
INTER + INTRA:          -4.133
INTER:                  -4.133
INTRA:                   0.000
UNBOUND:                 0.000

$$$$

     RDKit          3D

 52 55  0  0  0  0  0  0  0  0999 V2000
   49.3483    9.0627   21.4948 C   0  0  0  0  0  0  0  0  0  0  0  0
   48.0851    9.0065   20.8657 N   0  0  0  0  0  0  0  0  0  0  0  0
   49.6067   10.4131   21.7705 N   0  0  0  0  0  0  0  0  0  0  0  0
   47.6190   10.3322   20.7166 C   0  0  0  0  0  0  0  0  0  0  0  0
   48.5614   11.1846   21.2894 C   0  0  0  0  0  0  0  0  0  0  0  0
   47.4158    7.8431   20.2830 C   0  0  0  0  0  0  0  0  0  0  0  0
   48.7509    5.3388   19.4834 N   0  0  0  0  0  0  0  0  0  0  0  0
   50.1116    8.1540   21.7694 O   0  0  0  0  0  0  0  0  0  0  0  0
   47.8909    7.5507   18.8575 C   0  0  0  0  0  0  0  0  0  0  0  0
   47.4115    6.5895   21.1701 C   0  0  0  0  0  0  0  0  0  0  0  0
   52.2671    3.0309   17.7467 C   0  0  0  0  0  0  0  0  0  0  0  0
   53.3504    2.0027   17.8256 C   0  0  0  0  0  0  0  0  0  0  0  0
   52.5773    4.2158   17.6454 O   0  0  0  0  0  0  0  0  0  0  0  0
   48.5566    5.6080   20.9184 C   0  0  0  0  0  0  0  0  0  0  0  0
   49.0818    6.6011   18.8010 C   0  0  0  0  0  0  0  0  0  0  0  0
   54.6774    2.4422   17.9620 C   0  0  0  0  0  0  0  0  0  0  0  0
   53.0853    0.6271   17.7611 C   0  0  0  0  0  0  0  0  0  0  0  0
   55.4428    0.1616   17.9778 C   0  0  0  0  0  0  0  0  0  0  0  0
   54.1359   -0.2925   17.8387 C   0  0  0  0  0  0  0  0  0  0  0  0
   55.7236    1.5203   18.0393 C   0  0  0  0  0  0  0  0  0  0  0  0
   56.4439   -0.7245   18.0510 F   0  0  0  0  0  0  0  0  0  0  0  0
   49.8315    4.3470   19.3108 C   0  0  0  0  0  0  0  0  0  0  0  0
   46.4770   10.8348   20.1273 C   0  0  0  0  0  0  0  0  0  0  0  0
   48.4162   12.5532   21.3147 C   0  0  0  0  0  0  0  0  0  0  0  0
   49.8185    3.7205   17.9075 C   0  0  0  0  0  0  0  0  0  0  0  0
   50.8193    2.5681   17.7796 C   0  0  0  0  0  0  0  0  0  0  0  0
   46.3020   12.2248   20.1392 C   0  0  0  0  0  0  0  0  0  0  0  0
   47.2606   13.0749   20.7282 C   0  0  0  0  0  0  0  0  0  0  0  0
   50.4516   10.7354   22.2119 H   0  0  0  0  0  0  0  0  0  0  0  0
   46.3599    8.1331   20.2107 H   0  0  0  0  0  0  0  0  0  0  0  0
   48.1340    8.4789   18.3267 H   0  0  0  0  0  0  0  0  0  0  0  0
   47.0606    7.0900   18.3044 H   0  0  0  0  0  0  0  0  0  0  0  0
   47.3803    6.8627   22.2316 H   0  0  0  0  0  0  0  0  0  0  0  0
   46.4758    6.0483   20.9684 H   0  0  0  0  0  0  0  0  0  0  0  0
   48.2970    4.6721   21.4305 H   0  0  0  0  0  0  0  0  0  0  0  0
   49.4851    5.9543   21.3797 H   0  0  0  0  0  0  0  0  0  0  0  0
   49.2979    6.4225   17.7425 H   0  0  0  0  0  0  0  0  0  0  0  0
   49.9735    7.0721   19.2326 H   0  0  0  0  0  0  0  0  0  0  0  0
   54.9015    3.5070   18.0097 H   0  0  0  0  0  0  0  0  0  0  0  0
   52.0759    0.2442   17.6438 H   0  0  0  0  0  0  0  0  0  0  0  0
   53.9439   -1.3602   17.7894 H   0  0  0  0  0  0  0  0  0  0  0  0
   56.7506    1.8554   18.1461 H   0  0  0  0  0  0  0  0  0  0  0  0
   49.6807    3.5289   20.0276 H   0  0  0  0  0  0  0  0  0  0  0  0
   50.8090    4.7886   19.5403 H   0  0  0  0  0  0  0  0  0  0  0  0
   45.7327   10.1971   19.6670 H   0  0  0  0  0  0  0  0  0  0  0  0
   49.1605   13.2003   21.7624 H   0  0  0  0  0  0  0  0  0  0  0  0
   50.0273    4.4720   17.1385 H   0  0  0  0  0  0  0  0  0  0  0  0
   48.8149    3.3254   17.7041 H   0  0  0  0  0  0  0  0  0  0  0  0
   50.6768    1.8705   18.6120 H   0  0  0  0  0  0  0  0  0  0  0  0
   50.6208    2.0420   16.8386 H   0  0  0  0  0  0  0  0  0  0  0  0
   45.4124   12.6577   19.6855 H   0  0  0  0  0  0  0  0  0  0  0  0
   47.0978   14.1507   20.7210 H   0  0  0  0  0  0  0  0  0  0  0  0
  2  1  1  0
  3  1  1  0
  4  2  1  0
  5  3  1  0
  6  2  1  0
  7 14  1  0
  8  1  2  0
  9  6  1  0
 10  6  1  0
 11 26  1  0
 12 11  1  0
 13 11  2  0
 14 10  1  0
 15  9  1  0
 16 12  2  0
 17 12  1  0
 18 19  1  0
 19 17  2  0
 20 16  1  0
 21 18  1  0
 22  7  1  0
 23  4  2  0
 24  5  2  0
 25 22  1  0
 26 25  1  0
 27 23  1  0
 28 24  1  0
  5  4  1  0
 28 27  2  0
 15  7  1  0
 20 18  2  0
  3 29  1  0
  6 30  1  0
  9 31  1  0
  9 32  1  0
 10 33  1  0
 10 34  1  0
 14 35  1  0
 14 36  1  0
 15 37  1  0
 15 38  1  0
 16 39  1  0
 17 40  1  0
 19 41  1  0
 20 42  1  0
 22 43  1  0
 22 44  1  0
 23 45  1  0
 24 46  1  0
 25 47  1  0
 25 48  1  0
 26 49  1  0
 26 50  1  0
 27 51  1  0
 28 52  1  0
M  END
> <Uni-Dock RESULT> 
ENERGY=   -4.124  LOWER_BOUND=   13.754  UPPER_BOUND=   16.467
INTER + INTRA:          -4.124
INTER:                  -4.124
INTRA:                   0.000
UNBOUND:                 0.000

$$$$

     RDKit          3D

 52 55  0  0  0  0  0  0  0  0999 V2000
   46.8918    5.4213   13.7807 C   0  0  0  0  0  0  0  0  0  0  0  0
   46.5223    6.4151   12.8477 N   0  0  0  0  0  0  0  0  0  0  0  0
   45.8221    4.5180   13.8591 N   0  0  0  0  0  0  0  0  0  0  0  0
   45.2074    6.1315   12.4145 C   0  0  0  0  0  0  0  0  0  0  0  0
   44.7958    4.9544   13.0371 C   0  0  0  0  0  0  0  0  0  0  0  0
   47.2444    7.6379   12.4952 C   0  0  0  0  0  0  0  0  0  0  0  0
   49.3363    8.9094   14.1387 N   0  0  0  0  0  0  0  0  0  0  0  0
   47.9205    5.3154   14.4244 O   0  0  0  0  0  0  0  0  0  0  0  0
   46.9755    8.7782   13.4805 C   0  0  0  0  0  0  0  0  0  0  0  0
   48.7417    7.4451   12.2136 C   0  0  0  0  0  0  0  0  0  0  0  0
   51.1361   10.1001   18.1447 C   0  0  0  0  0  0  0  0  0  0  0  0
   52.2314   10.0947   19.1632 C   0  0  0  0  0  0  0  0  0  0  0  0
   50.0655    9.5625   18.4191 O   0  0  0  0  0  0  0  0  0  0  0  0
   49.6654    7.6717   13.4109 C   0  0  0  0  0  0  0  0  0  0  0  0
   47.9572    8.8129   14.6459 C   0  0  0  0  0  0  0  0  0  0  0  0
   52.0589    9.3214   20.3230 C   0  0  0  0  0  0  0  0  0  0  0  0
   53.4106   10.8361   19.0008 C   0  0  0  0  0  0  0  0  0  0  0  0
   54.2163   10.0218   21.1243 C   0  0  0  0  0  0  0  0  0  0  0  0
   54.4034   10.7964   19.9848 C   0  0  0  0  0  0  0  0  0  0  0  0
   53.0530    9.2845   21.3031 C   0  0  0  0  0  0  0  0  0  0  0  0
   55.1709    9.9888   22.0626 F   0  0  0  0  0  0  0  0  0  0  0  0
   50.2940    9.0977   15.2470 C   0  0  0  0  0  0  0  0  0  0  0  0
   44.3664    6.8081   11.5549 C   0  0  0  0  0  0  0  0  0  0  0  0
   43.5551    4.3938   12.8343 C   0  0  0  0  0  0  0  0  0  0  0  0
   50.2740   10.5368   15.7862 C   0  0  0  0  0  0  0  0  0  0  0  0
   51.3848   10.7858   16.8108 C   0  0  0  0  0  0  0  0  0  0  0  0
   43.0970    6.2600   11.3285 C   0  0  0  0  0  0  0  0  0  0  0  0
   42.6963    5.0647   11.9602 C   0  0  0  0  0  0  0  0  0  0  0  0
   45.8213    3.7133   14.4632 H   0  0  0  0  0  0  0  0  0  0  0  0
   46.8204    7.9470   11.5313 H   0  0  0  0  0  0  0  0  0  0  0  0
   45.9492    8.7315   13.8642 H   0  0  0  0  0  0  0  0  0  0  0  0
   47.0564    9.7302   12.9376 H   0  0  0  0  0  0  0  0  0  0  0  0
   48.9326    6.4577   11.7764 H   0  0  0  0  0  0  0  0  0  0  0  0
   49.0280    8.1777   11.4453 H   0  0  0  0  0  0  0  0  0  0  0  0
   50.6887    7.7432   13.0193 H   0  0  0  0  0  0  0  0  0  0  0  0
   49.6617    6.8106   14.0840 H   0  0  0  0  0  0  0  0  0  0  0  0
   47.7056    9.6914   15.2493 H   0  0  0  0  0  0  0  0  0  0  0  0
   47.8242    7.9356   15.2907 H   0  0  0  0  0  0  0  0  0  0  0  0
   51.1475    8.7427   20.4670 H   0  0  0  0  0  0  0  0  0  0  0  0
   53.5801   11.4564   18.1258 H   0  0  0  0  0  0  0  0  0  0  0  0
   55.3207   11.3664   19.8712 H   0  0  0  0  0  0  0  0  0  0  0  0
   52.9245    8.6872   22.2004 H   0  0  0  0  0  0  0  0  0  0  0  0
   51.3098    8.9099   14.8747 H   0  0  0  0  0  0  0  0  0  0  0  0
   50.1143    8.3703   16.0480 H   0  0  0  0  0  0  0  0  0  0  0  0
   44.6562    7.7290   11.0646 H   0  0  0  0  0  0  0  0  0  0  0  0
   43.2515    3.4793   13.3288 H   0  0  0  0  0  0  0  0  0  0  0  0
   49.3037   10.7761   16.2346 H   0  0  0  0  0  0  0  0  0  0  0  0
   50.4193   11.2318   14.9493 H   0  0  0  0  0  0  0  0  0  0  0  0
   52.3411   10.4471   16.3977 H   0  0  0  0  0  0  0  0  0  0  0  0
   51.4431   11.8638   17.0010 H   0  0  0  0  0  0  0  0  0  0  0  0
   42.4068    6.7647   10.6551 H   0  0  0  0  0  0  0  0  0  0  0  0
   41.7036    4.6638   11.7658 H   0  0  0  0  0  0  0  0  0  0  0  0
  2  1  1  0
  3  1  1  0
  4  2  1  0
  5  3  1  0
  6  2  1  0
  7 14  1  0
  8  1  2  0
  9  6  1  0
 10  6  1  0
 11 26  1  0
 12 11  1  0
 13 11  2  0
 14 10  1  0
 15  9  1  0
 16 12  2  0
 17 12  1  0
 18 19  1  0
 19 17  2  0
 20 16  1  0
 21 18  1  0
 22  7  1  0
 23  4  2  0
 24  5  2  0
 25 22  1  0
 26 25  1  0
 27 23  1  0
 28 24  1  0
  5  4  1  0
 28 27  2  0
 15  7  1  0
 20 18  2  0
  3 29  1  0
  6 30  1  0
  9 31  1  0
  9 32  1  0
 10 33  1  0
 10 34  1  0
 14 35  1  0
 14 36  1  0
 15 37  1  0
 15 38  1  0
 16 39  1  0
 17 40  1  0
 19 41  1  0
 20 42  1  0
 22 43  1  0
 22 44  1  0
 23 45  1  0
 24 46  1  0
 25 47  1  0
 25 48  1  0
 26 49  1  0
 26 50  1  0
 27 51  1  0
 28 52  1  0
M  END
> <Uni-Dock RESULT> 
ENERGY=   -3.990  LOWER_BOUND=   10.449  UPPER_BOUND=   12.055
INTER + INTRA:          -3.990
INTER:                  -3.990
INTRA:                   0.000
UNBOUND:                 0.000

$$$$

     RDKit          3D

 52 55  0  0  0  0  0  0  0  0999 V2000
   48.7809    7.6092   16.8440 C   0  0  0  0  0  0  0  0  0  0  0  0
   48.3085    8.8975   16.5095 N   0  0  0  0  0  0  0  0  0  0  0  0
   48.7750    7.5236   18.2436 N   0  0  0  0  0  0  0  0  0  0  0  0
   48.0761    9.5973   17.7150 C   0  0  0  0  0  0  0  0  0  0  0  0
   48.3565    8.7337   18.7726 C   0  0  0  0  0  0  0  0  0  0  0  0
   48.2318    9.5174   15.1863 C   0  0  0  0  0  0  0  0  0  0  0  0
   49.7488    8.6478   12.8122 N   0  0  0  0  0  0  0  0  0  0  0  0
   49.1400    6.7071   16.1085 O   0  0  0  0  0  0  0  0  0  0  0  0
   49.5635   10.1367   14.7546 C   0  0  0  0  0  0  0  0  0  0  0  0
   47.6133    8.6327   14.0940 C   0  0  0  0  0  0  0  0  0  0  0  0
   53.4860    6.9986   10.8075 C   0  0  0  0  0  0  0  0  0  0  0  0
   54.2113    5.9918    9.9724 C   0  0  0  0  0  0  0  0  0  0  0  0
   53.7792    7.1082   11.9960 O   0  0  0  0  0  0  0  0  0  0  0  0
   48.6125    7.8264   13.2637 C   0  0  0  0  0  0  0  0  0  0  0  0
   50.4602    9.1686   13.9918 C   0  0  0  0  0  0  0  0  0  0  0  0
   55.0715    5.0875   10.6166 C   0  0  0  0  0  0  0  0  0  0  0  0
   54.0658    5.9281    8.5791 C   0  0  0  0  0  0  0  0  0  0  0  0
   55.6122    4.0778    8.5011 C   0  0  0  0  0  0  0  0  0  0  0  0
   54.7684    4.9672    7.8452 C   0  0  0  0  0  0  0  0  0  0  0  0
   55.7711    4.1293    9.8798 C   0  0  0  0  0  0  0  0  0  0  0  0
   56.2822    3.1606    7.7921 F   0  0  0  0  0  0  0  0  0  0  0  0
   50.6466    7.8274   11.9745 C   0  0  0  0  0  0  0  0  0  0  0  0
   47.6632   10.8927   17.9506 C   0  0  0  0  0  0  0  0  0  0  0  0
   48.2338    9.1019   20.0932 C   0  0  0  0  0  0  0  0  0  0  0  0
   51.6118    8.6922   11.1481 C   0  0  0  0  0  0  0  0  0  0  0  0
   52.4213    7.8608   10.1484 C   0  0  0  0  0  0  0  0  0  0  0  0
   47.5284   11.2951   19.2858 C   0  0  0  0  0  0  0  0  0  0  0  0
   47.8091   10.4086   20.3458 C   0  0  0  0  0  0  0  0  0  0  0  0
   49.0765    6.7072   18.7488 H   0  0  0  0  0  0  0  0  0  0  0  0
   47.5219   10.3459   15.3046 H   0  0  0  0  0  0  0  0  0  0  0  0
   50.1067   10.5402   15.6176 H   0  0  0  0  0  0  0  0  0  0  0  0
   49.3501   10.9927   14.0994 H   0  0  0  0  0  0  0  0  0  0  0  0
   46.8538    7.9642   14.5167 H   0  0  0  0  0  0  0  0  0  0  0  0
   47.0801    9.2959   13.3977 H   0  0  0  0  0  0  0  0  0  0  0  0
   48.0706    7.4456   12.3880 H   0  0  0  0  0  0  0  0  0  0  0  0
   48.9604    6.9444   13.8075 H   0  0  0  0  0  0  0  0  0  0  0  0
   51.3507    9.7293   13.6889 H   0  0  0  0  0  0  0  0  0  0  0  0
   50.8022    8.3586   14.6476 H   0  0  0  0  0  0  0  0  0  0  0  0
   55.1993    5.1256   11.6976 H   0  0  0  0  0  0  0  0  0  0  0  0
   53.4209    6.6152    8.0395 H   0  0  0  0  0  0  0  0  0  0  0  0
   54.6648    4.9079    6.7659 H   0  0  0  0  0  0  0  0  0  0  0  0
   56.4360    3.4276   10.3737 H   0  0  0  0  0  0  0  0  0  0  0  0
   50.0408    7.2535   11.2608 H   0  0  0  0  0  0  0  0  0  0  0  0
   51.1907    7.0953   12.5836 H   0  0  0  0  0  0  0  0  0  0  0  0
   47.4473   11.5878   17.1488 H   0  0  0  0  0  0  0  0  0  0  0  0
   48.4584    8.4177   20.9022 H   0  0  0  0  0  0  0  0  0  0  0  0
   52.2957    9.2495   11.7973 H   0  0  0  0  0  0  0  0  0  0  0  0
   51.0309    9.4335   10.5845 H   0  0  0  0  0  0  0  0  0  0  0  0
   51.7411    7.2253    9.5712 H   0  0  0  0  0  0  0  0  0  0  0  0
   52.9319    8.5472    9.4630 H   0  0  0  0  0  0  0  0  0  0  0  0
   47.2030   12.3091   19.5105 H   0  0  0  0  0  0  0  0  0  0  0  0
   47.6966   10.7502   21.3728 H   0  0  0  0  0  0  0  0  0  0  0  0
  2  1  1  0
  3  1  1  0
  4  2  1  0
  5  3  1  0
  6  2  1  0
  7 14  1  0
  8  1  2  0
  9  6  1  0
 10  6  1  0
 11 26  1  0
 12 11  1  0
 13 11  2  0
 14 10  1  0
 15  9  1  0
 16 12  2  0
 17 12  1  0
 18 19  1  0
 19 17  2  0
 20 16  1  0
 21 18  1  0
 22  7  1  0
 23  4  2  0
 24  5  2  0
 25 22  1  0
 26 25  1  0
 27 23  1  0
 28 24  1  0
  5  4  1  0
 28 27  2  0
 15  7  1  0
 20 18  2  0
  3 29  1  0
  6 30  1  0
  9 31  1  0
  9 32  1  0
 10 33  1  0
 10 34  1  0
 14 35  1  0
 14 36  1  0
 15 37  1  0
 15 38  1  0
 16 39  1  0
 17 40  1  0
 19 41  1  0
 20 42  1  0
 22 43  1  0
 22 44  1  0
 23 45  1  0
 24 46  1  0
 25 47  1  0
 25 48  1  0
 26 49  1  0
 26 50  1  0
 27 51  1  0
 28 52  1  0
M  END
> <Uni-Dock RESULT> 
ENERGY=   -3.976  LOWER_BOUND=    9.831  UPPER_BOUND=   14.093
INTER + INTRA:          -3.976
INTER:                  -3.976
INTRA:                   0.000
UNBOUND:                 0.000

$$$$

     RDKit          3D

 52 55  0  0  0  0  0  0  0  0999 V2000
   53.7533    7.2468   11.9854 C   0  0  0  0  0  0  0  0  0  0  0  0
   52.9558    7.6878   10.9066 N   0  0  0  0  0  0  0  0  0  0  0  0
   54.6148    6.2626   11.4798 N   0  0  0  0  0  0  0  0  0  0  0  0
   53.3060    6.9229    9.7712 C   0  0  0  0  0  0  0  0  0  0  0  0
   54.3366    6.0591   10.1379 C   0  0  0  0  0  0  0  0  0  0  0  0
   51.8308    8.6230   10.9367 C   0  0  0  0  0  0  0  0  0  0  0  0
   50.2840    9.3433   13.3413 N   0  0  0  0  0  0  0  0  0  0  0  0
   53.7418    7.6087   13.1485 O   0  0  0  0  0  0  0  0  0  0  0  0
   50.5190    7.9441   11.3386 C   0  0  0  0  0  0  0  0  0  0  0  0
   52.0879    9.9171   11.7226 C   0  0  0  0  0  0  0  0  0  0  0  0
   48.3564    8.3328   17.3374 C   0  0  0  0  0  0  0  0  0  0  0  0
   48.1743    8.5212   18.8100 C   0  0  0  0  0  0  0  0  0  0  0  0
   48.8211    7.2721   16.9260 O   0  0  0  0  0  0  0  0  0  0  0  0
   51.6420    9.8920   13.1849 C   0  0  0  0  0  0  0  0  0  0  0  0
   50.2680    7.9581   12.8420 C   0  0  0  0  0  0  0  0  0  0  0  0
   48.7069    7.5525   19.6764 C   0  0  0  0  0  0  0  0  0  0  0  0
   47.4890    9.6207   19.3466 C   0  0  0  0  0  0  0  0  0  0  0  0
   47.8839    8.7812   21.5738 C   0  0  0  0  0  0  0  0  0  0  0  0
   47.3463    9.7483   20.7318 C   0  0  0  0  0  0  0  0  0  0  0  0
   48.5622    7.6840   21.0592 C   0  0  0  0  0  0  0  0  0  0  0  0
   47.7432    8.9095   22.8992 F   0  0  0  0  0  0  0  0  0  0  0  0
   49.8932    9.3955   14.7645 C   0  0  0  0  0  0  0  0  0  0  0  0
   52.8012    6.9161    8.4870 C   0  0  0  0  0  0  0  0  0  0  0  0
   54.9147    5.1681    9.2623 C   0  0  0  0  0  0  0  0  0  0  0  0
   48.3768    9.2285   14.9512 C   0  0  0  0  0  0  0  0  0  0  0  0
   47.9442    9.4584   16.4023 C   0  0  0  0  0  0  0  0  0  0  0  0
   53.3713    6.0199    7.5734 C   0  0  0  0  0  0  0  0  0  0  0  0
   54.4181    5.1563    7.9566 C   0  0  0  0  0  0  0  0  0  0  0  0
   55.2873    5.7728   12.0458 H   0  0  0  0  0  0  0  0  0  0  0  0
   51.7104    8.9517    9.8965 H   0  0  0  0  0  0  0  0  0  0  0  0
   50.4813    6.9126   10.9682 H   0  0  0  0  0  0  0  0  0  0  0  0
   49.6908    8.4756   10.8495 H   0  0  0  0  0  0  0  0  0  0  0  0
   53.1429   10.2093   11.6588 H   0  0  0  0  0  0  0  0  0  0  0  0
   51.5205   10.7190   11.2286 H   0  0  0  0  0  0  0  0  0  0  0  0
   51.6569   10.9295   13.5441 H   0  0  0  0  0  0  0  0  0  0  0  0
   52.3565    9.3488   13.8088 H   0  0  0  0  0  0  0  0  0  0  0  0
   49.2871    7.4999   13.0063 H   0  0  0  0  0  0  0  0  0  0  0  0
   51.0028    7.3321   13.3632 H   0  0  0  0  0  0  0  0  0  0  0  0
   49.2386    6.6902   19.2763 H   0  0  0  0  0  0  0  0  0  0  0  0
   47.0513   10.3864   18.7131 H   0  0  0  0  0  0  0  0  0  0  0  0
   46.8173   10.5946   21.1598 H   0  0  0  0  0  0  0  0  0  0  0  0
   48.9733    6.9384   21.7326 H   0  0  0  0  0  0  0  0  0  0  0  0
   50.1586   10.3808   15.1700 H   0  0  0  0  0  0  0  0  0  0  0  0
   50.4501    8.6547   15.3512 H   0  0  0  0  0  0  0  0  0  0  0  0
   51.9952    7.5694    8.1769 H   0  0  0  0  0  0  0  0  0  0  0  0
   55.7134    4.5026    9.5659 H   0  0  0  0  0  0  0  0  0  0  0  0
   48.0466    8.2364   14.6249 H   0  0  0  0  0  0  0  0  0  0  0  0
   47.8583    9.9615   14.3199 H   0  0  0  0  0  0  0  0  0  0  0  0
   48.3649   10.4043   16.7602 H   0  0  0  0  0  0  0  0  0  0  0  0
   46.8503    9.5246   16.4295 H   0  0  0  0  0  0  0  0  0  0  0  0
   53.0004    5.9874    6.5507 H   0  0  0  0  0  0  0  0  0  0  0  0
   54.8401    4.4700    7.2252 H   0  0  0  0  0  0  0  0  0  0  0  0
  2  1  1  0
  3  1  1  0
  4  2  1  0
  5  3  1  0
  6  2  1  0
  7 14  1  0
  8  1  2  0
  9  6  1  0
 10  6  1  0
 11 26  1  0
 12 11  1  0
 13 11  2  0
 14 10  1  0
 15  9  1  0
 16 12  2  0
 17 12  1  0
 18 19  1  0
 19 17  2  0
 20 16  1  0
 21 18  1  0
 22  7  1  0
 23  4  2  0
 24  5  2  0
 25 22  1  0
 26 25  1  0
 27 23  1  0
 28 24  1  0
  5  4  1  0
 28 27  2  0
 15  7  1  0
 20 18  2  0
  3 29  1  0
  6 30  1  0
  9 31  1  0
  9 32  1  0
 10 33  1  0
 10 34  1  0
 14 35  1  0
 14 36  1  0
 15 37  1  0
 15 38  1  0
 16 39  1  0
 17 40  1  0
 19 41  1  0
 20 42  1  0
 22 43  1  0
 22 44  1  0
 23 45  1  0
 24 46  1  0
 25 47  1  0
 25 48  1  0
 26 49  1  0
 26 50  1  0
 27 51  1  0
 28 52  1  0
M  END
> <Uni-Dock RESULT> 
ENERGY=   -3.959  LOWER_BOUND=    9.088  UPPER_BOUND=   10.163
INTER + INTRA:          -3.959
INTER:                  -3.959
INTRA:                   0.000
UNBOUND:                 0.000

$$$$

     RDKit          3D

 52 55  0  0  0  0  0  0  0  0999 V2000
   48.0495   13.6767    9.7682 C   0  0  0  0  0  0  0  0  0  0  0  0
   48.9553   13.9853   10.8069 N   0  0  0  0  0  0  0  0  0  0  0  0
   47.5669   14.8965    9.2725 N   0  0  0  0  0  0  0  0  0  0  0  0
   48.9665   15.3895   10.9655 C   0  0  0  0  0  0  0  0  0  0  0  0
   48.1161   15.9358   10.0057 C   0  0  0  0  0  0  0  0  0  0  0  0
   49.6406   13.0632   11.7131 C   0  0  0  0  0  0  0  0  0  0  0  0
   48.8129   10.2858   12.2561 N   0  0  0  0  0  0  0  0  0  0  0  0
   47.7108   12.5871    9.3420 O   0  0  0  0  0  0  0  0  0  0  0  0
   48.7648   12.6537   12.9000 C   0  0  0  0  0  0  0  0  0  0  0  0
   50.3035   11.8589   11.0286 C   0  0  0  0  0  0  0  0  0  0  0  0
   45.6433    7.0798   12.8732 C   0  0  0  0  0  0  0  0  0  0  0  0
   44.9783    5.7853   12.5281 C   0  0  0  0  0  0  0  0  0  0  0  0
   45.0180    8.1277   12.7271 O   0  0  0  0  0  0  0  0  0  0  0  0
   49.4484   10.5931   10.9633 C   0  0  0  0  0  0  0  0  0  0  0  0
   47.9330   11.4046   12.6337 C   0  0  0  0  0  0  0  0  0  0  0  0
   43.7318    5.8281   11.8821 C   0  0  0  0  0  0  0  0  0  0  0  0
   45.5519    4.5425   12.8329 C   0  0  0  0  0  0  0  0  0  0  0  0
   43.6556    3.4239   11.8458 C   0  0  0  0  0  0  0  0  0  0  0  0
   44.8870    3.3614   12.4887 C   0  0  0  0  0  0  0  0  0  0  0  0
   43.0714    4.6462   11.5399 C   0  0  0  0  0  0  0  0  0  0  0  0
   43.0243    2.2892   11.5195 F   0  0  0  0  0  0  0  0  0  0  0  0
   48.0473    9.0282   12.1414 C   0  0  0  0  0  0  0  0  0  0  0  0
   49.6323   16.1990   11.8630 C   0  0  0  0  0  0  0  0  0  0  0  0
   47.8951   17.2889    9.8836 C   0  0  0  0  0  0  0  0  0  0  0  0
   47.7021    8.4373   13.5176 C   0  0  0  0  0  0  0  0  0  0  0  0
   47.0663    7.0483   13.4074 C   0  0  0  0  0  0  0  0  0  0  0  0
   49.4272   17.5812   11.7616 C   0  0  0  0  0  0  0  0  0  0  0  0
   48.5691   18.1206   10.7813 C   0  0  0  0  0  0  0  0  0  0  0  0
   46.8940   14.9629    8.5274 H   0  0  0  0  0  0  0  0  0  0  0  0
   50.4778   13.6422   12.1233 H   0  0  0  0  0  0  0  0  0  0  0  0
   48.1071   13.4766   13.2047 H   0  0  0  0  0  0  0  0  0  0  0  0
   49.4197   12.4510   13.7588 H   0  0  0  0  0  0  0  0  0  0  0  0
   50.6539   12.1250   10.0241 H   0  0  0  0  0  0  0  0  0  0  0  0
   51.2040   11.6074   11.6073 H   0  0  0  0  0  0  0  0  0  0  0  0
   50.1157    9.7676   10.6826 H   0  0  0  0  0  0  0  0  0  0  0  0
   48.7020   10.6586   10.1674 H   0  0  0  0  0  0  0  0  0  0  0  0
   47.3941   11.1764   13.5593 H   0  0  0  0  0  0  0  0  0  0  0  0
   47.1755   11.6003   11.8648 H   0  0  0  0  0  0  0  0  0  0  0  0
   43.2702    6.7848   11.6415 H   0  0  0  0  0  0  0  0  0  0  0  0
   46.5078    4.4633   13.3421 H   0  0  0  0  0  0  0  0  0  0  0  0
   45.3202    2.3929   12.7197 H   0  0  0  0  0  0  0  0  0  0  0  0
   42.1085    4.6745   11.0394 H   0  0  0  0  0  0  0  0  0  0  0  0
   48.6629    8.2838   11.6192 H   0  0  0  0  0  0  0  0  0  0  0  0
   47.1461    9.1721   11.5329 H   0  0  0  0  0  0  0  0  0  0  0  0
   50.2916   15.8016   12.6245 H   0  0  0  0  0  0  0  0  0  0  0  0
   47.2287   17.6953    9.1328 H   0  0  0  0  0  0  0  0  0  0  0  0
   47.0329    9.1016   14.0750 H   0  0  0  0  0  0  0  0  0  0  0  0
   48.6240    8.3453   14.1061 H   0  0  0  0  0  0  0  0  0  0  0  0
   47.6859    6.4165   12.7617 H   0  0  0  0  0  0  0  0  0  0  0  0
   47.0318    6.6045   14.4091 H   0  0  0  0  0  0  0  0  0  0  0  0
   49.9370   18.2515   12.4512 H   0  0  0  0  0  0  0  0  0  0  0  0
   48.4286   19.1982   10.7278 H   0  0  0  0  0  0  0  0  0  0  0  0
  2  1  1  0
  3  1  1  0
  4  2  1  0
  5  3  1  0
  6  2  1  0
  7 14  1  0
  8  1  2  0
  9  6  1  0
 10  6  1  0
 11 26  1  0
 12 11  1  0
 13 11  2  0
 14 10  1  0
 15  9  1  0
 16 12  2  0
 17 12  1  0
 18 19  1  0
 19 17  2  0
 20 16  1  0
 21 18  1  0
 22  7  1  0
 23  4  2  0
 24  5  2  0
 25 22  1  0
 26 25  1  0
 27 23  1  0
 28 24  1  0
  5  4  1  0
 28 27  2  0
 15  7  1  0
 20 18  2  0
  3 29  1  0
  6 30  1  0
  9 31  1  0
  9 32  1  0
 10 33  1  0
 10 34  1  0
 14 35  1  0
 14 36  1  0
 15 37  1  0
 15 38  1  0
 16 39  1  0
 17 40  1  0
 19 41  1  0
 20 42  1  0
 22 43  1  0
 22 44  1  0
 23 45  1  0
 24 46  1  0
 25 47  1  0
 25 48  1  0
 26 49  1  0
 26 50  1  0
 27 51  1  0
 28 52  1  0
M  END
> <Uni-Dock RESULT> 
ENERGY=   -3.864  LOWER_BOUND=    6.485  UPPER_BOUND=    8.045
INTER + INTRA:          -3.864
INTER:                  -3.864
INTRA:                   0.000
UNBOUND:                 0.000

$$$$

     RDKit          3D

 52 55  0  0  0  0  0  0  0  0999 V2000
   47.9080   13.6978    9.7409 C   0  0  0  0  0  0  0  0  0  0  0  0
   48.8069   14.0258   10.7796 N   0  0  0  0  0  0  0  0  0  0  0  0
   47.4040   14.9071    9.2409 N   0  0  0  0  0  0  0  0  0  0  0  0
   48.7926   15.4305   10.9339 C   0  0  0  0  0  0  0  0  0  0  0  0
   47.9336   15.9583    9.9715 C   0  0  0  0  0  0  0  0  0  0  0  0
   49.5076   13.1190   11.6894 C   0  0  0  0  0  0  0  0  0  0  0  0
   48.7294   10.3288   12.2401 N   0  0  0  0  0  0  0  0  0  0  0  0
   47.5893   12.6009    9.3177 O   0  0  0  0  0  0  0  0  0  0  0  0
   48.6380   12.6974   12.8766 C   0  0  0  0  0  0  0  0  0  0  0  0
   50.1929   11.9247   11.0093 C   0  0  0  0  0  0  0  0  0  0  0  0
   45.6175    7.0681   12.8636 C   0  0  0  0  0  0  0  0  0  0  0  0
   44.9762    5.7608   12.5218 C   0  0  0  0  0  0  0  0  0  0  0  0
   44.9735    8.1041   12.7137 O   0  0  0  0  0  0  0  0  0  0  0  0
   49.3608   10.6435   10.9470 C   0  0  0  0  0  0  0  0  0  0  0  0
   47.8291   11.4327   12.6133 C   0  0  0  0  0  0  0  0  0  0  0  0
   43.7299    5.7792   11.8744 C   0  0  0  0  0  0  0  0  0  0  0  0
   45.5718    4.5294   12.8311 C   0  0  0  0  0  0  0  0  0  0  0  0
   43.6971    3.3739   11.8454 C   0  0  0  0  0  0  0  0  0  0  0  0
   44.9286    3.3356   12.4898 C   0  0  0  0  0  0  0  0  0  0  0  0
   43.0912    4.5845   11.5352 C   0  0  0  0  0  0  0  0  0  0  0  0
   43.0867    2.2270   11.5219 F   0  0  0  0  0  0  0  0  0  0  0  0
   47.9867    9.0572   12.1284 C   0  0  0  0  0  0  0  0  0  0  0  0
   49.4427   16.2546   11.8296 C   0  0  0  0  0  0  0  0  0  0  0  0
   47.6884   17.3069    9.8450 C   0  0  0  0  0  0  0  0  0  0  0  0
   47.6507    8.4645   13.5061 C   0  0  0  0  0  0  0  0  0  0  0  0
   47.0402    7.0639   13.3994 C   0  0  0  0  0  0  0  0  0  0  0  0
   49.2129   17.6326   11.7238 C   0  0  0  0  0  0  0  0  0  0  0  0
   48.3463   18.1533   10.7408 C   0  0  0  0  0  0  0  0  0  0  0  0
   46.7308   14.9591    8.4949 H   0  0  0  0  0  0  0  0  0  0  0  0
   50.3338   13.7142   12.0987 H   0  0  0  0  0  0  0  0  0  0  0  0
   47.9652   13.5093   13.1780 H   0  0  0  0  0  0  0  0  0  0  0  0
   49.2955   12.5091   13.7367 H   0  0  0  0  0  0  0  0  0  0  0  0
   50.5396   12.1940   10.0044 H   0  0  0  0  0  0  0  0  0  0  0  0
   51.0971   11.6912   11.5898 H   0  0  0  0  0  0  0  0  0  0  0  0
   50.0432    9.8293   10.6696 H   0  0  0  0  0  0  0  0  0  0  0  0
   48.6142   10.6931   10.1501 H   0  0  0  0  0  0  0  0  0  0  0  0
   47.2934   11.1977   13.5390 H   0  0  0  0  0  0  0  0  0  0  0  0
   47.0691   11.6123   11.8430 H   0  0  0  0  0  0  0  0  0  0  0  0
   43.2514    6.7267   11.6304 H   0  0  0  0  0  0  0  0  0  0  0  0
   46.5284    4.4691   13.3415 H   0  0  0  0  0  0  0  0  0  0  0  0
   45.3790    2.3757   12.7243 H   0  0  0  0  0  0  0  0  0  0  0  0
   42.1286    4.5939   11.0335 H   0  0  0  0  0  0  0  0  0  0  0  0
   48.6162    8.3225   11.6092 H   0  0  0  0  0  0  0  0  0  0  0  0
   47.0838    9.1830   11.5186 H   0  0  0  0  0  0  0  0  0  0  0  0
   50.1082   15.8715   12.5930 H   0  0  0  0  0  0  0  0  0  0  0  0
   47.0156   17.6990    9.0922 H   0  0  0  0  0  0  0  0  0  0  0  0
   46.9691    9.1183   14.0607 H   0  0  0  0  0  0  0  0  0  0  0  0
   48.5734    8.3909   14.0958 H   0  0  0  0  0  0  0  0  0  0  0  0
   47.6718    6.4414   12.7564 H   0  0  0  0  0  0  0  0  0  0  0  0
   47.0125    6.6226   14.4025 H   0  0  0  0  0  0  0  0  0  0  0  0
   49.7097   18.3140   12.4118 H   0  0  0  0  0  0  0  0  0  0  0  0
   48.1864   19.2281   10.6838 H   0  0  0  0  0  0  0  0  0  0  0  0
  2  1  1  0
  3  1  1  0
  4  2  1  0
  5  3  1  0
  6  2  1  0
  7 14  1  0
  8  1  2  0
  9  6  1  0
 10  6  1  0
 11 26  1  0
 12 11  1  0
 13 11  2  0
 14 10  1  0
 15  9  1  0
 16 12  2  0
 17 12  1  0
 18 19  1  0
 19 17  2  0
 20 16  1  0
 21 18  1  0
 22  7  1  0
 23  4  2  0
 24  5  2  0
 25 22  1  0
 26 25  1  0
 27 23  1  0
 28 24  1  0
  5  4  1  0
 28 27  2  0
 15  7  1  0
 20 18  2  0
  3 29  1  0
  6 30  1  0
  9 31  1  0
  9 32  1  0
 10 33  1  0
 10 34  1  0
 14 35  1  0
 14 36  1  0
 15 37  1  0
 15 38  1  0
 16 39  1  0
 17 40  1  0
 19 41  1  0
 20 42  1  0
 22 43  1  0
 22 44  1  0
 23 45  1  0
 24 46  1  0
 25 47  1  0
 25 48  1  0
 26 49  1  0
 26 50  1  0
 27 51  1  0
 28 52  1  0
M  END
> <Uni-Dock RESULT> 
ENERGY=   -3.863  LOWER_BOUND=    6.470  UPPER_BOUND=    8.031
INTER + INTRA:          -3.863
INTER:                  -3.863
INTRA:                   0.000
UNBOUND:                 0.000

$$$$
