
     RDKit          3D

 52 55  0  0  0  0  0  0  0  0999 V2000
   42.9303   15.1597   11.2011 C   0  0  0  0  0  0  0  0  0  0  0  0
   42.9105   14.1711   10.1909 N   0  0  0  0  0  0  0  0  0  0  0  0
   42.4333   16.3357   10.6209 N   0  0  0  0  0  0  0  0  0  0  0  0
   42.4069   14.7506    9.0130 C   0  0  0  0  0  0  0  0  0  0  0  0
   42.1155   16.0868    9.2923 C   0  0  0  0  0  0  0  0  0  0  0  0
   43.3377   12.7906   10.3445 C   0  0  0  0  0  0  0  0  0  0  0  0
   44.3449   10.3284   11.1654 N   0  0  0  0  0  0  0  0  0  0  0  0
   43.3014   15.0484   12.3577 O   0  0  0  0  0  0  0  0  0  0  0  0
   42.5101   12.0473   11.3942 C   0  0  0  0  0  0  0  0  0  0  0  0
   44.8390   12.6838   10.6618 C   0  0  0  0  0  0  0  0  0  0  0  0
   44.0804    5.3408   11.2621 C   0  0  0  0  0  0  0  0  0  0  0  0
   44.6485    4.6176   10.0843 C   0  0  0  0  0  0  0  0  0  0  0  0
   43.0447    4.9263   11.7822 O   0  0  0  0  0  0  0  0  0  0  0  0
   45.1702   11.4787   11.5462 C   0  0  0  0  0  0  0  0  0  0  0  0
   42.9202   10.5713   11.4635 C   0  0  0  0  0  0  0  0  0  0  0  0
   45.6092    5.1896    9.2387 C   0  0  0  0  0  0  0  0  0  0  0  0
   44.1840    3.3187    9.8194 C   0  0  0  0  0  0  0  0  0  0  0  0
   45.6426    3.1741    7.9123 C   0  0  0  0  0  0  0  0  0  0  0  0
   44.6845    2.5956    8.7344 C   0  0  0  0  0  0  0  0  0  0  0  0
   46.1064    4.4629    8.1524 C   0  0  0  0  0  0  0  0  0  0  0  0
   46.1242    2.4830    6.8711 F   0  0  0  0  0  0  0  0  0  0  0  0
   44.8392    9.0910   11.7883 C   0  0  0  0  0  0  0  0  0  0  0  0
   42.1885   14.2228    7.7578 C   0  0  0  0  0  0  0  0  0  0  0  0
   41.6004   16.9502    8.3519 C   0  0  0  0  0  0  0  0  0  0  0  0
   44.1468    7.8398   11.2359 C   0  0  0  0  0  0  0  0  0  0  0  0
   44.7785    6.5718   11.8009 C   0  0  0  0  0  0  0  0  0  0  0  0
   41.6643   15.0801    6.7814 C   0  0  0  0  0  0  0  0  0  0  0  0
   41.3733   16.4288    7.0754 C   0  0  0  0  0  0  0  0  0  0  0  0
   42.3371   17.2044   11.1195 H   0  0  0  0  0  0  0  0  0  0  0  0
   43.1715   12.2783    9.3891 H   0  0  0  0  0  0  0  0  0  0  0  0
   42.6484   12.5065   12.3812 H   0  0  0  0  0  0  0  0  0  0  0  0
   41.4399   12.1218   11.1655 H   0  0  0  0  0  0  0  0  0  0  0  0
   45.2170   13.5862   11.1552 H   0  0  0  0  0  0  0  0  0  0  0  0
   45.3878   12.6117    9.7138 H   0  0  0  0  0  0  0  0  0  0  0  0
   45.0279   11.7283   12.6061 H   0  0  0  0  0  0  0  0  0  0  0  0
   46.2365   11.2548   11.4156 H   0  0  0  0  0  0  0  0  0  0  0  0
   42.6477   10.1973   12.4592 H   0  0  0  0  0  0  0  0  0  0  0  0
   42.3217   10.0107   10.7349 H   0  0  0  0  0  0  0  0  0  0  0  0
   45.9770    6.1999    9.3909 H   0  0  0  0  0  0  0  0  0  0  0  0
   43.4306    2.8638   10.4602 H   0  0  0  0  0  0  0  0  0  0  0  0
   44.3315    1.5899    8.5275 H   0  0  0  0  0  0  0  0  0  0  0  0
   46.8490    4.8955    7.4884 H   0  0  0  0  0  0  0  0  0  0  0  0
   44.7307    9.1325   12.8804 H   0  0  0  0  0  0  0  0  0  0  0  0
   45.9128    8.9940   11.5785 H   0  0  0  0  0  0  0  0  0  0  0  0
   42.4069   13.1902    7.5166 H   0  0  0  0  0  0  0  0  0  0  0  0
   41.3793   17.9847    8.5840 H   0  0  0  0  0  0  0  0  0  0  0  0
   44.2113    7.8324   10.1410 H   0  0  0  0  0  0  0  0  0  0  0  0
   43.0790    7.8480   11.4857 H   0  0  0  0  0  0  0  0  0  0  0  0
   45.8535    6.5276   11.5996 H   0  0  0  0  0  0  0  0  0  0  0  0
   44.6822    6.5506   12.8938 H   0  0  0  0  0  0  0  0  0  0  0  0
   41.4772   14.7007    5.7783 H   0  0  0  0  0  0  0  0  0  0  0  0
   40.9664   17.0698    6.2958 H   0  0  0  0  0  0  0  0  0  0  0  0
  2  1  1  0
  3  1  1  0
  4  2  1  0
  5  3  1  0
  6  2  1  0
  7 14  1  0
  8  1  2  0
  9  6  1  0
 10  6  1  0
 11 26  1  0
 12 11  1  0
 13 11  2  0
 14 10  1  0
 15  9  1  0
 16 12  2  0
 17 12  1  0
 18 19  1  0
 19 17  2  0
 20 16  1  0
 21 18  1  0
 22  7  1  0
 23  4  2  0
 24  5  2  0
 25 22  1  0
 26 25  1  0
 27 23  1  0
 28 24  1  0
  5  4  1  0
 28 27  2  0
 15  7  1  0
 20 18  2  0
  3 29  1  0
  6 30  1  0
  9 31  1  0
  9 32  1  0
 10 33  1  0
 10 34  1  0
 14 35  1  0
 14 36  1  0
 15 37  1  0
 15 38  1  0
 16 39  1  0
 17 40  1  0
 19 41  1  0
 20 42  1  0
 22 43  1  0
 22 44  1  0
 23 45  1  0
 24 46  1  0
 25 47  1  0
 25 48  1  0
 26 49  1  0
 26 50  1  0
 27 51  1  0
 28 52  1  0
M  END
> <Uni-Dock RESULT> 
ENERGY=   -4.667  LOWER_BOUND=    0.000  UPPER_BOUND=    0.000
INTER + INTRA:          -4.667
INTER:                  -4.667
INTRA:                   0.000
UNBOUND:                 0.000

$$$$

     RDKit          3D

 52 55  0  0  0  0  0  0  0  0999 V2000
   43.4970    5.2617   12.2473 C   0  0  0  0  0  0  0  0  0  0  0  0
   44.3211    5.8199   11.2435 N   0  0  0  0  0  0  0  0  0  0  0  0
   43.3336    3.9069   11.9243 N   0  0  0  0  0  0  0  0  0  0  0  0
   44.6480    4.8074   10.3244 C   0  0  0  0  0  0  0  0  0  0  0  0
   44.0327    3.6314   10.7566 C   0  0  0  0  0  0  0  0  0  0  0  0
   44.7563    7.2047   11.1743 C   0  0  0  0  0  0  0  0  0  0  0  0
   45.2153    9.9325   11.4889 N   0  0  0  0  0  0  0  0  0  0  0  0
   43.0056    5.8183   13.2151 O   0  0  0  0  0  0  0  0  0  0  0  0
   45.5921    7.6049   12.3910 C   0  0  0  0  0  0  0  0  0  0  0  0
   43.5749    8.1714   10.9856 C   0  0  0  0  0  0  0  0  0  0  0  0
   48.3032   13.8581   11.3868 C   0  0  0  0  0  0  0  0  0  0  0  0
   48.5530   14.4784   10.0505 C   0  0  0  0  0  0  0  0  0  0  0  0
   49.2319   13.7576   12.1883 O   0  0  0  0  0  0  0  0  0  0  0  0
   43.8143    9.5309   11.6478 C   0  0  0  0  0  0  0  0  0  0  0  0
   46.1158    9.0385   12.2423 C   0  0  0  0  0  0  0  0  0  0  0  0
   47.6662   14.3356    8.9742 C   0  0  0  0  0  0  0  0  0  0  0  0
   49.7326   15.2211    9.8768 C   0  0  0  0  0  0  0  0  0  0  0  0
   49.1197   15.6823    7.5971 C   0  0  0  0  0  0  0  0  0  0  0  0
   50.0137   15.8262    8.6499 C   0  0  0  0  0  0  0  0  0  0  0  0
   47.9523   14.9416    7.7469 C   0  0  0  0  0  0  0  0  0  0  0  0
   49.3868   16.2615    6.4195 F   0  0  0  0  0  0  0  0  0  0  0  0
   45.4067   11.3456   11.8497 C   0  0  0  0  0  0  0  0  0  0  0  0
   45.4152    4.8286    9.1786 C   0  0  0  0  0  0  0  0  0  0  0  0
   44.1486    2.4373   10.0816 C   0  0  0  0  0  0  0  0  0  0  0  0
   46.8024   11.8608   11.4803 C   0  0  0  0  0  0  0  0  0  0  0  0
   46.9179   13.3591   11.7405 C   0  0  0  0  0  0  0  0  0  0  0  0
   45.5500    3.6262    8.4720 C   0  0  0  0  0  0  0  0  0  0  0  0
   44.9237    2.4436    8.9188 C   0  0  0  0  0  0  0  0  0  0  0  0
   42.7878    3.2656   12.4750 H   0  0  0  0  0  0  0  0  0  0  0  0
   45.4046    7.3104   10.2959 H   0  0  0  0  0  0  0  0  0  0  0  0
   44.9893    7.5345   13.3052 H   0  0  0  0  0  0  0  0  0  0  0  0
   46.4359    6.9165   12.5230 H   0  0  0  0  0  0  0  0  0  0  0  0
   42.6410    7.7565   11.3809 H   0  0  0  0  0  0  0  0  0  0  0  0
   43.4078    8.3061    9.9090 H   0  0  0  0  0  0  0  0  0  0  0  0
   43.5354    9.4965   12.7094 H   0  0  0  0  0  0  0  0  0  0  0  0
   43.1436   10.2555   11.1691 H   0  0  0  0  0  0  0  0  0  0  0  0
   46.3163    9.4252   13.2502 H   0  0  0  0  0  0  0  0  0  0  0  0
   47.0769    9.0034   11.7146 H   0  0  0  0  0  0  0  0  0  0  0  0
   46.7561   13.7490    9.0563 H   0  0  0  0  0  0  0  0  0  0  0  0
   50.4369   15.3330   10.6993 H   0  0  0  0  0  0  0  0  0  0  0  0
   50.9222   16.4045    8.5116 H   0  0  0  0  0  0  0  0  0  0  0  0
   47.2747   14.8368    6.9048 H   0  0  0  0  0  0  0  0  0  0  0  0
   45.2151   11.5055   12.9193 H   0  0  0  0  0  0  0  0  0  0  0  0
   44.6746   11.9529   11.3008 H   0  0  0  0  0  0  0  0  0  0  0  0
   45.9018    5.7278    8.8226 H   0  0  0  0  0  0  0  0  0  0  0  0
   43.6652    1.5329   10.4298 H   0  0  0  0  0  0  0  0  0  0  0  0
   47.0090   11.6489   10.4242 H   0  0  0  0  0  0  0  0  0  0  0  0
   47.5725   11.3378   12.0601 H   0  0  0  0  0  0  0  0  0  0  0  0
   46.1520   13.9263   11.2021 H   0  0  0  0  0  0  0  0  0  0  0  0
   46.7532   13.5767   12.8033 H   0  0  0  0  0  0  0  0  0  0  0  0
   46.1482    3.6019    7.5628 H   0  0  0  0  0  0  0  0  0  0  0  0
   45.0476    1.5251    8.3484 H   0  0  0  0  0  0  0  0  0  0  0  0
  2  1  1  0
  3  1  1  0
  4  2  1  0
  5  3  1  0
  6  2  1  0
  7 14  1  0
  8  1  2  0
  9  6  1  0
 10  6  1  0
 11 26  1  0
 12 11  1  0
 13 11  2  0
 14 10  1  0
 15  9  1  0
 16 12  2  0
 17 12  1  0
 18 19  1  0
 19 17  2  0
 20 16  1  0
 21 18  1  0
 22  7  1  0
 23  4  2  0
 24  5  2  0
 25 22  1  0
 26 25  1  0
 27 23  1  0
 28 24  1  0
  5  4  1  0
 28 27  2  0
 15  7  1  0
 20 18  2  0
  3 29  1  0
  6 30  1  0
  9 31  1  0
  9 32  1  0
 10 33  1  0
 10 34  1  0
 14 35  1  0
 14 36  1  0
 15 37  1  0
 15 38  1  0
 16 39  1  0
 17 40  1  0
 19 41  1  0
 20 42  1  0
 22 43  1  0
 22 44  1  0
 23 45  1  0
 24 46  1  0
 25 47  1  0
 25 48  1  0
 26 49  1  0
 26 50  1  0
 27 51  1  0
 28 52  1  0
M  END
> <Uni-Dock RESULT> 
ENERGY=   -4.563  LOWER_BOUND=    4.583  UPPER_BOUND=   10.026
INTER + INTRA:          -4.563
INTER:                  -4.563
INTRA:                   0.000
UNBOUND:                 0.000

$$$$

     RDKit          3D

 52 55  0  0  0  0  0  0  0  0999 V2000
   45.1516    4.7089   12.6925 C   0  0  0  0  0  0  0  0  0  0  0  0
   45.5492    5.4226   11.5388 N   0  0  0  0  0  0  0  0  0  0  0  0
   44.6658    3.4700   12.2499 N   0  0  0  0  0  0  0  0  0  0  0  0
   45.3019    4.6181   10.4125 C   0  0  0  0  0  0  0  0  0  0  0  0
   44.7573    3.4153   10.8654 C   0  0  0  0  0  0  0  0  0  0  0  0
   46.1172    6.7601   11.5209 C   0  0  0  0  0  0  0  0  0  0  0  0
   47.0699    9.3201   12.0589 N   0  0  0  0  0  0  0  0  0  0  0  0
   45.2038    5.0686   13.8569 O   0  0  0  0  0  0  0  0  0  0  0  0
   47.4377    6.8330   12.2890 C   0  0  0  0  0  0  0  0  0  0  0  0
   45.1263    7.8141   12.0435 C   0  0  0  0  0  0  0  0  0  0  0  0
   50.3778   12.9792   11.2685 C   0  0  0  0  0  0  0  0  0  0  0  0
   50.1309   13.8607   10.0874 C   0  0  0  0  0  0  0  0  0  0  0  0
   51.5311   12.6498   11.5447 O   0  0  0  0  0  0  0  0  0  0  0  0
   45.8237    8.9787   12.7516 C   0  0  0  0  0  0  0  0  0  0  0  0
   48.0586    8.2301   12.1702 C   0  0  0  0  0  0  0  0  0  0  0  0
   48.8626   14.0108    9.5094 C   0  0  0  0  0  0  0  0  0  0  0  0
   51.2240   14.5510    9.5380 C   0  0  0  0  0  0  0  0  0  0  0  0
   49.7841   15.5363    7.8825 C   0  0  0  0  0  0  0  0  0  0  0  0
   51.0490   15.3920    8.4369 C   0  0  0  0  0  0  0  0  0  0  0  0
   48.6921   14.8525    8.4058 C   0  0  0  0  0  0  0  0  0  0  0  0
   49.6133   16.3421    6.8265 F   0  0  0  0  0  0  0  0  0  0  0  0
   47.6054   10.6056   12.5323 C   0  0  0  0  0  0  0  0  0  0  0  0
   45.5080    4.8433    9.0677 C   0  0  0  0  0  0  0  0  0  0  0  0
   44.3970    2.3933   10.0166 C   0  0  0  0  0  0  0  0  0  0  0  0
   48.7751   11.1041   11.6760 C   0  0  0  0  0  0  0  0  0  0  0  0
   49.2131   12.4993   12.1090 C   0  0  0  0  0  0  0  0  0  0  0  0
   45.1501    3.8189    8.1813 C   0  0  0  0  0  0  0  0  0  0  0  0
   44.6008    2.6073    8.6507 C   0  0  0  0  0  0  0  0  0  0  0  0
   44.3136    2.7579   12.8673 H   0  0  0  0  0  0  0  0  0  0  0  0
   46.3424    7.0163   10.4785 H   0  0  0  0  0  0  0  0  0  0  0  0
   47.2734    6.6007   13.3488 H   0  0  0  0  0  0  0  0  0  0  0  0
   48.1445    6.0828   11.9137 H   0  0  0  0  0  0  0  0  0  0  0  0
   44.3955    7.3798   12.7348 H   0  0  0  0  0  0  0  0  0  0  0  0
   44.5432    8.1911   11.1932 H   0  0  0  0  0  0  0  0  0  0  0  0
   46.0168    8.7295   13.8037 H   0  0  0  0  0  0  0  0  0  0  0  0
   45.1309    9.8295   12.7513 H   0  0  0  0  0  0  0  0  0  0  0  0
   48.7209    8.3739   13.0340 H   0  0  0  0  0  0  0  0  0  0  0  0
   48.6903    8.2535   11.2736 H   0  0  0  0  0  0  0  0  0  0  0  0
   47.9953   13.4765    9.8853 H   0  0  0  0  0  0  0  0  0  0  0  0
   52.2175   14.4373    9.9685 H   0  0  0  0  0  0  0  0  0  0  0  0
   51.8900   15.9306    8.0108 H   0  0  0  0  0  0  0  0  0  0  0  0
   47.7153   14.9757    7.9475 H   0  0  0  0  0  0  0  0  0  0  0  0
   47.9090   10.5387   13.5857 H   0  0  0  0  0  0  0  0  0  0  0  0
   46.8106   11.3614   12.4774 H   0  0  0  0  0  0  0  0  0  0  0  0
   45.9282    5.7677    8.6919 H   0  0  0  0  0  0  0  0  0  0  0  0
   43.9756    1.4654   10.3833 H   0  0  0  0  0  0  0  0  0  0  0  0
   48.4828   11.1165   10.6189 H   0  0  0  0  0  0  0  0  0  0  0  0
   49.6297   10.4214   11.7556 H   0  0  0  0  0  0  0  0  0  0  0  0
   48.3864   13.2158   12.0716 H   0  0  0  0  0  0  0  0  0  0  0  0
   49.5466   12.4884   13.1544 H   0  0  0  0  0  0  0  0  0  0  0  0
   45.2980    3.9583    7.1118 H   0  0  0  0  0  0  0  0  0  0  0  0
   44.3332    1.8302    7.9374 H   0  0  0  0  0  0  0  0  0  0  0  0
  2  1  1  0
  3  1  1  0
  4  2  1  0
  5  3  1  0
  6  2  1  0
  7 14  1  0
  8  1  2  0
  9  6  1  0
 10  6  1  0
 11 26  1  0
 12 11  1  0
 13 11  2  0
 14 10  1  0
 15  9  1  0
 16 12  2  0
 17 12  1  0
 18 19  1  0
 19 17  2  0
 20 16  1  0
 21 18  1  0
 22  7  1  0
 23  4  2  0
 24  5  2  0
 25 22  1  0
 26 25  1  0
 27 23  1  0
 28 24  1  0
  5  4  1  0
 28 27  2  0
 15  7  1  0
 20 18  2  0
  3 29  1  0
  6 30  1  0
  9 31  1  0
  9 32  1  0
 10 33  1  0
 10 34  1  0
 14 35  1  0
 14 36  1  0
 15 37  1  0
 15 38  1  0
 16 39  1  0
 17 40  1  0
 19 41  1  0
 20 42  1  0
 22 43  1  0
 22 44  1  0
 23 45  1  0
 24 46  1  0
 25 47  1  0
 25 48  1  0
 26 49  1  0
 26 50  1  0
 27 51  1  0
 28 52  1  0
M  END
> <Uni-Dock RESULT> 
ENERGY=   -4.492  LOWER_BOUND=    5.485  UPPER_BOUND=   10.360
INTER + INTRA:          -4.492
INTER:                  -4.492
INTRA:                   0.000
UNBOUND:                 0.000

$$$$

     RDKit          3D

 52 55  0  0  0  0  0  0  0  0999 V2000
   48.7924    3.2499   16.6427 C   0  0  0  0  0  0  0  0  0  0  0  0
   49.6810    4.1649   17.2522 N   0  0  0  0  0  0  0  0  0  0  0  0
   49.4290    2.0005   16.6601 N   0  0  0  0  0  0  0  0  0  0  0  0
   50.8428    3.4694   17.6308 C   0  0  0  0  0  0  0  0  0  0  0  0
   50.6741    2.1343   17.2603 C   0  0  0  0  0  0  0  0  0  0  0  0
   49.4347    5.5829   17.4533 C   0  0  0  0  0  0  0  0  0  0  0  0
   48.4861    8.1998   17.5085 N   0  0  0  0  0  0  0  0  0  0  0  0
   47.6851    3.4687   16.1800 O   0  0  0  0  0  0  0  0  0  0  0  0
   48.2176    5.8329   18.3451 C   0  0  0  0  0  0  0  0  0  0  0  0
   49.2955    6.3384   16.1208 C   0  0  0  0  0  0  0  0  0  0  0  0
   47.8253   12.5309   19.9085 C   0  0  0  0  0  0  0  0  0  0  0  0
   48.9802   13.4793   19.9079 C   0  0  0  0  0  0  0  0  0  0  0  0
   47.1401   12.4156   20.9244 O   0  0  0  0  0  0  0  0  0  0  0  0
   48.3352    7.5271   16.2147 C   0  0  0  0  0  0  0  0  0  0  0  0
   48.0421    7.3320   18.6166 C   0  0  0  0  0  0  0  0  0  0  0  0
   49.9941   13.4334   18.9410 C   0  0  0  0  0  0  0  0  0  0  0  0
   49.0455   14.4416   20.9290 C   0  0  0  0  0  0  0  0  0  0  0  0
   51.0916   15.3020   20.0024 C   0  0  0  0  0  0  0  0  0  0  0  0
   50.1005   15.3557   20.9736 C   0  0  0  0  0  0  0  0  0  0  0  0
   51.0496   14.3493   18.9903 C   0  0  0  0  0  0  0  0  0  0  0  0
   52.1044   16.1773   20.0428 F   0  0  0  0  0  0  0  0  0  0  0  0
   47.8004    9.5010   17.5136 C   0  0  0  0  0  0  0  0  0  0  0  0
   51.9978    3.8938   18.2534 C   0  0  0  0  0  0  0  0  0  0  0  0
   51.6304    1.1706   17.4874 C   0  0  0  0  0  0  0  0  0  0  0  0
   48.1263   10.3303   18.7610 C   0  0  0  0  0  0  0  0  0  0  0  0
   47.5114   11.7228   18.6670 C   0  0  0  0  0  0  0  0  0  0  0  0
   52.9880    2.9329   18.4969 C   0  0  0  0  0  0  0  0  0  0  0  0
   52.8062    1.5861   18.1183 C   0  0  0  0  0  0  0  0  0  0  0  0
   49.0180    1.1615   16.2866 H   0  0  0  0  0  0  0  0  0  0  0  0
   50.3021    6.0046   17.9755 H   0  0  0  0  0  0  0  0  0  0  0  0
   47.3099    5.4449   17.8659 H   0  0  0  0  0  0  0  0  0  0  0  0
   48.3191    5.2960   19.2962 H   0  0  0  0  0  0  0  0  0  0  0  0
   48.9517    5.6820   15.3135 H   0  0  0  0  0  0  0  0  0  0  0  0
   50.2908    6.6873   15.8163 H   0  0  0  0  0  0  0  0  0  0  0  0
   47.2985    7.1974   16.0640 H   0  0  0  0  0  0  0  0  0  0  0  0
   48.5717    8.2103   15.3893 H   0  0  0  0  0  0  0  0  0  0  0  0
   46.9862    7.5034   18.8639 H   0  0  0  0  0  0  0  0  0  0  0  0
   48.6273    7.5938   19.5067 H   0  0  0  0  0  0  0  0  0  0  0  0
   49.9972   12.6901   18.1495 H   0  0  0  0  0  0  0  0  0  0  0  0
   48.2718   14.4841   21.6936 H   0  0  0  0  0  0  0  0  0  0  0  0
   50.1537   16.1039   21.7586 H   0  0  0  0  0  0  0  0  0  0  0  0
   51.8425   14.3230   18.2486 H   0  0  0  0  0  0  0  0  0  0  0  0
   46.7140    9.3709   17.4188 H   0  0  0  0  0  0  0  0  0  0  0  0
   48.1295   10.0774   16.6387 H   0  0  0  0  0  0  0  0  0  0  0  0
   52.1525    4.9236   18.5497 H   0  0  0  0  0  0  0  0  0  0  0  0
   51.4847    0.1383   17.1942 H   0  0  0  0  0  0  0  0  0  0  0  0
   49.2137   10.4102   18.8802 H   0  0  0  0  0  0  0  0  0  0  0  0
   47.7490    9.8341   19.6633 H   0  0  0  0  0  0  0  0  0  0  0  0
   47.8380   12.2523   17.7664 H   0  0  0  0  0  0  0  0  0  0  0  0
   46.4190   11.6542   18.5887 H   0  0  0  0  0  0  0  0  0  0  0  0
   53.9141    3.2285   18.9871 H   0  0  0  0  0  0  0  0  0  0  0  0
   53.5936    0.8630   18.3215 H   0  0  0  0  0  0  0  0  0  0  0  0
  2  1  1  0
  3  1  1  0
  4  2  1  0
  5  3  1  0
  6  2  1  0
  7 14  1  0
  8  1  2  0
  9  6  1  0
 10  6  1  0
 11 26  1  0
 12 11  1  0
 13 11  2  0
 14 10  1  0
 15  9  1  0
 16 12  2  0
 17 12  1  0
 18 19  1  0
 19 17  2  0
 20 16  1  0
 21 18  1  0
 22  7  1  0
 23  4  2  0
 24  5  2  0
 25 22  1  0
 26 25  1  0
 27 23  1  0
 28 24  1  0
  5  4  1  0
 28 27  2  0
 15  7  1  0
 20 18  2  0
  3 29  1  0
  6 30  1  0
  9 31  1  0
  9 32  1  0
 10 33  1  0
 10 34  1  0
 14 35  1  0
 14 36  1  0
 15 37  1  0
 15 38  1  0
 16 39  1  0
 17 40  1  0
 19 41  1  0
 20 42  1  0
 22 43  1  0
 22 44  1  0
 23 45  1  0
 24 46  1  0
 25 47  1  0
 25 48  1  0
 26 49  1  0
 26 50  1  0
 27 51  1  0
 28 52  1  0
M  END
> <Uni-Dock RESULT> 
ENERGY=   -4.466  LOWER_BOUND=   10.059  UPPER_BOUND=   14.746
INTER + INTRA:          -4.466
INTER:                  -4.466
INTRA:                   0.000
UNBOUND:                 0.000

$$$$

     RDKit          3D

 52 55  0  0  0  0  0  0  0  0999 V2000
   44.7823   13.4388   11.7584 C   0  0  0  0  0  0  0  0  0  0  0  0
   45.1010   12.1370   11.3090 N   0  0  0  0  0  0  0  0  0  0  0  0
   43.3849   13.4962   11.8622 N   0  0  0  0  0  0  0  0  0  0  0  0
   43.9033   11.4195   11.1429 C   0  0  0  0  0  0  0  0  0  0  0  0
   42.8516   12.2698   11.4884 C   0  0  0  0  0  0  0  0  0  0  0  0
   46.4393   11.6274   11.0615 C   0  0  0  0  0  0  0  0  0  0  0  0
   49.1649   11.2095   10.6780 N   0  0  0  0  0  0  0  0  0  0  0  0
   45.5448   14.3563   12.0130 O   0  0  0  0  0  0  0  0  0  0  0  0
   47.3007   11.6395   12.3252 C   0  0  0  0  0  0  0  0  0  0  0  0
   47.1410   12.3814    9.9191 C   0  0  0  0  0  0  0  0  0  0  0  0
   53.2237    8.3319   11.1262 C   0  0  0  0  0  0  0  0  0  0  0  0
   53.4245    7.2897   10.0743 C   0  0  0  0  0  0  0  0  0  0  0  0
   53.4963    8.0676   12.2970 O   0  0  0  0  0  0  0  0  0  0  0  0
   48.6578   12.4628   10.1109 C   0  0  0  0  0  0  0  0  0  0  0  0
   48.6715   11.0078   12.0541 C   0  0  0  0  0  0  0  0  0  0  0  0
   52.8428    7.3793    8.8020 C   0  0  0  0  0  0  0  0  0  0  0  0
   54.2203    6.1762   10.3907 C   0  0  0  0  0  0  0  0  0  0  0  0
   53.8684    5.2840    8.1850 C   0  0  0  0  0  0  0  0  0  0  0  0
   54.4448    5.1747    9.4436 C   0  0  0  0  0  0  0  0  0  0  0  0
   53.0687    6.3735    7.8572 C   0  0  0  0  0  0  0  0  0  0  0  0
   54.0821    4.3251    7.2747 F   0  0  0  0  0  0  0  0  0  0  0  0
   50.6324   11.1470   10.5998 C   0  0  0  0  0  0  0  0  0  0  0  0
   43.6648   10.1259   10.7287 C   0  0  0  0  0  0  0  0  0  0  0  0
   41.5318   11.8814   11.4402 C   0  0  0  0  0  0  0  0  0  0  0  0
   51.1805    9.7641   10.9700 C   0  0  0  0  0  0  0  0  0  0  0  0
   52.6874    9.6958   10.7450 C   0  0  0  0  0  0  0  0  0  0  0  0
   42.3298    9.7045   10.6708 C   0  0  0  0  0  0  0  0  0  0  0  0
   41.2751   10.5727   11.0228 C   0  0  0  0  0  0  0  0  0  0  0  0
   42.8826   14.3145   12.1629 H   0  0  0  0  0  0  0  0  0  0  0  0
   46.3484   10.5797   10.7500 H   0  0  0  0  0  0  0  0  0  0  0  0
   47.4418   12.6689   12.6784 H   0  0  0  0  0  0  0  0  0  0  0  0
   46.8006   11.0992   13.1383 H   0  0  0  0  0  0  0  0  0  0  0  0
   46.7542   13.4002    9.8046 H   0  0  0  0  0  0  0  0  0  0  0  0
   46.9121   11.8691    8.9756 H   0  0  0  0  0  0  0  0  0  0  0  0
   48.9198   13.3159   10.7509 H   0  0  0  0  0  0  0  0  0  0  0  0
   49.1062   12.6566    9.1283 H   0  0  0  0  0  0  0  0  0  0  0  0
   49.3744   11.4081   12.7966 H   0  0  0  0  0  0  0  0  0  0  0  0
   48.5967    9.9280   12.2318 H   0  0  0  0  0  0  0  0  0  0  0  0
   52.2000    8.2089    8.5236 H   0  0  0  0  0  0  0  0  0  0  0  0
   54.6708    6.0861   11.3777 H   0  0  0  0  0  0  0  0  0  0  0  0
   55.0621    4.3139    9.6819 H   0  0  0  0  0  0  0  0  0  0  0  0
   52.6221    6.4299    6.8689 H   0  0  0  0  0  0  0  0  0  0  0  0
   51.0910   11.9179   11.2336 H   0  0  0  0  0  0  0  0  0  0  0  0
   50.9408   11.3588    9.5673 H   0  0  0  0  0  0  0  0  0  0  0  0
   44.4632    9.4478   10.4550 H   0  0  0  0  0  0  0  0  0  0  0  0
   40.7266   12.5529   11.7117 H   0  0  0  0  0  0  0  0  0  0  0  0
   50.6790    8.9935   10.3720 H   0  0  0  0  0  0  0  0  0  0  0  0
   50.9660    9.5328   12.0204 H   0  0  0  0  0  0  0  0  0  0  0  0
   52.9569    9.9444    9.7136 H   0  0  0  0  0  0  0  0  0  0  0  0
   53.2017   10.4362   11.3707 H   0  0  0  0  0  0  0  0  0  0  0  0
   42.1005    8.6900   10.3493 H   0  0  0  0  0  0  0  0  0  0  0  0
   40.2485   10.2159   10.9680 H   0  0  0  0  0  0  0  0  0  0  0  0
  2  1  1  0
  3  1  1  0
  4  2  1  0
  5  3  1  0
  6  2  1  0
  7 14  1  0
  8  1  2  0
  9  6  1  0
 10  6  1  0
 11 26  1  0
 12 11  1  0
 13 11  2  0
 14 10  1  0
 15  9  1  0
 16 12  2  0
 17 12  1  0
 18 19  1  0
 19 17  2  0
 20 16  1  0
 21 18  1  0
 22  7  1  0
 23  4  2  0
 24  5  2  0
 25 22  1  0
 26 25  1  0
 27 23  1  0
 28 24  1  0
  5  4  1  0
 28 27  2  0
 15  7  1  0
 20 18  2  0
  3 29  1  0
  6 30  1  0
  9 31  1  0
  9 32  1  0
 10 33  1  0
 10 34  1  0
 14 35  1  0
 14 36  1  0
 15 37  1  0
 15 38  1  0
 16 39  1  0
 17 40  1  0
 19 41  1  0
 20 42  1  0
 22 43  1  0
 22 44  1  0
 23 45  1  0
 24 46  1  0
 25 47  1  0
 25 48  1  0
 26 49  1  0
 26 50  1  0
 27 51  1  0
 28 52  1  0
M  END
> <Uni-Dock RESULT> 
ENERGY=   -4.409  LOWER_BOUND=    5.525  UPPER_BOUND=    6.721
INTER + INTRA:          -4.409
INTER:                  -4.409
INTRA:                   0.000
UNBOUND:                 0.000

$$$$

     RDKit          3D

 52 55  0  0  0  0  0  0  0  0999 V2000
   48.1575    3.8542   17.3258 C   0  0  0  0  0  0  0  0  0  0  0  0
   49.1986    4.5798   17.9488 N   0  0  0  0  0  0  0  0  0  0  0  0
   48.6913    2.6045   16.9796 N   0  0  0  0  0  0  0  0  0  0  0  0
   50.3488    3.7715   17.9743 C   0  0  0  0  0  0  0  0  0  0  0  0
   50.0219    2.5547   17.3735 C   0  0  0  0  0  0  0  0  0  0  0  0
   49.0965    5.9311   18.4738 C   0  0  0  0  0  0  0  0  0  0  0  0
   48.3719    8.5129   19.2220 N   0  0  0  0  0  0  0  0  0  0  0  0
   47.0112    4.2129   17.1128 O   0  0  0  0  0  0  0  0  0  0  0  0
   48.0579    6.0353   19.5917 C   0  0  0  0  0  0  0  0  0  0  0  0
   48.8074    6.9591   17.3668 C   0  0  0  0  0  0  0  0  0  0  0  0
   48.4316   12.2546   22.5313 C   0  0  0  0  0  0  0  0  0  0  0  0
   49.6412   13.1320   22.5275 C   0  0  0  0  0  0  0  0  0  0  0  0
   47.9083   11.9535   23.6038 O   0  0  0  0  0  0  0  0  0  0  0  0
   47.9678    8.1393   17.8631 C   0  0  0  0  0  0  0  0  0  0  0  0
   48.0429    7.4477   20.1889 C   0  0  0  0  0  0  0  0  0  0  0  0
   50.4836   13.2516   21.4134 C   0  0  0  0  0  0  0  0  0  0  0  0
   49.9403   13.8503   23.6971 C   0  0  0  0  0  0  0  0  0  0  0  0
   51.8746   14.8026   22.6310 C   0  0  0  0  0  0  0  0  0  0  0  0
   51.0560   14.6888   23.7469 C   0  0  0  0  0  0  0  0  0  0  0  0
   51.6007   14.0909   21.4681 C   0  0  0  0  0  0  0  0  0  0  0  0
   52.9452   15.6060   22.6760 F   0  0  0  0  0  0  0  0  0  0  0  0
   47.7974    9.8105   19.6088 C   0  0  0  0  0  0  0  0  0  0  0  0
   51.6166    4.0044   18.4644 C   0  0  0  0  0  0  0  0  0  0  0  0
   50.9254    1.5257   17.2333 C   0  0  0  0  0  0  0  0  0  0  0  0
   48.3784   10.3395   20.9251 C   0  0  0  0  0  0  0  0  0  0  0  0
   47.8649   11.7444   21.2230 C   0  0  0  0  0  0  0  0  0  0  0  0
   52.5561    2.9731   18.3348 C   0  0  0  0  0  0  0  0  0  0  0  0
   52.2142    1.7472   17.7261 C   0  0  0  0  0  0  0  0  0  0  0  0
   48.1635    1.8827   16.5184 H   0  0  0  0  0  0  0  0  0  0  0  0
   50.0651    6.1947   18.9155 H   0  0  0  0  0  0  0  0  0  0  0  0
   47.0590    5.7969   19.2050 H   0  0  0  0  0  0  0  0  0  0  0  0
   48.2666    5.3037   20.3818 H   0  0  0  0  0  0  0  0  0  0  0  0
   48.2914    6.5054   16.5132 H   0  0  0  0  0  0  0  0  0  0  0  0
   49.7661    7.3231   16.9750 H   0  0  0  0  0  0  0  0  0  0  0  0
   46.8982    7.8930   17.8270 H   0  0  0  0  0  0  0  0  0  0  0  0
   48.1230    8.9727   17.1664 H   0  0  0  0  0  0  0  0  0  0  0  0
   47.0554    7.6062   20.6420 H   0  0  0  0  0  0  0  0  0  0  0  0
   48.7793    7.4885   21.0008 H   0  0  0  0  0  0  0  0  0  0  0  0
   50.3049   12.6952   20.4983 H   0  0  0  0  0  0  0  0  0  0  0  0
   49.3022   13.7605   24.5746 H   0  0  0  0  0  0  0  0  0  0  0  0
   51.2894   15.2490   24.6472 H   0  0  0  0  0  0  0  0  0  0  0  0
   52.2624   14.1906   20.6127 H   0  0  0  0  0  0  0  0  0  0  0  0
   46.7028    9.7492   19.6759 H   0  0  0  0  0  0  0  0  0  0  0  0
   48.0277   10.5463   18.8269 H   0  0  0  0  0  0  0  0  0  0  0  0
   51.8945    4.9396   18.9337 H   0  0  0  0  0  0  0  0  0  0  0  0
   50.6565    0.5869   16.7649 H   0  0  0  0  0  0  0  0  0  0  0  0
   49.4738   10.3466   20.8713 H   0  0  0  0  0  0  0  0  0  0  0  0
   48.1111    9.6781   21.7581 H   0  0  0  0  0  0  0  0  0  0  0  0
   48.0851   12.4401   20.4072 H   0  0  0  0  0  0  0  0  0  0  0  0
   46.7718   11.7398   21.3196 H   0  0  0  0  0  0  0  0  0  0  0  0
   53.5678    3.1181   18.7099 H   0  0  0  0  0  0  0  0  0  0  0  0
   52.9660    0.9651   17.6405 H   0  0  0  0  0  0  0  0  0  0  0  0
  2  1  1  0
  3  1  1  0
  4  2  1  0
  5  3  1  0
  6  2  1  0
  7 14  1  0
  8  1  2  0
  9  6  1  0
 10  6  1  0
 11 26  1  0
 12 11  1  0
 13 11  2  0
 14 10  1  0
 15  9  1  0
 16 12  2  0
 17 12  1  0
 18 19  1  0
 19 17  2  0
 20 16  1  0
 21 18  1  0
 22  7  1  0
 23  4  2  0
 24  5  2  0
 25 22  1  0
 26 25  1  0
 27 23  1  0
 28 24  1  0
  5  4  1  0
 28 27  2  0
 15  7  1  0
 20 18  2  0
  3 29  1  0
  6 30  1  0
  9 31  1  0
  9 32  1  0
 10 33  1  0
 10 34  1  0
 14 35  1  0
 14 36  1  0
 15 37  1  0
 15 38  1  0
 16 39  1  0
 17 40  1  0
 19 41  1  0
 20 42  1  0
 22 43  1  0
 22 44  1  0
 23 45  1  0
 24 46  1  0
 25 47  1  0
 25 48  1  0
 26 49  1  0
 26 50  1  0
 27 51  1  0
 28 52  1  0
M  END
> <Uni-Dock RESULT> 
ENERGY=   -4.358  LOWER_BOUND=   11.053  UPPER_BOUND=   15.451
INTER + INTRA:          -4.358
INTER:                  -4.358
INTRA:                   0.000
UNBOUND:                 0.000

$$$$

     RDKit          3D

 52 55  0  0  0  0  0  0  0  0999 V2000
   45.9950    8.5145   12.0517 C   0  0  0  0  0  0  0  0  0  0  0  0
   46.2936    7.3441   12.7861 N   0  0  0  0  0  0  0  0  0  0  0  0
   44.7490    8.3001   11.4450 N   0  0  0  0  0  0  0  0  0  0  0  0
   45.2350    6.4338   12.6194 C   0  0  0  0  0  0  0  0  0  0  0  0
   44.2878    7.0366   11.7900 C   0  0  0  0  0  0  0  0  0  0  0  0
   47.4910    7.1205   13.5787 C   0  0  0  0  0  0  0  0  0  0  0  0
   49.9636    7.1983   14.8558 N   0  0  0  0  0  0  0  0  0  0  0  0
   46.6654    9.5277   11.9428 O   0  0  0  0  0  0  0  0  0  0  0  0
   47.6223    8.1328   14.7176 C   0  0  0  0  0  0  0  0  0  0  0  0
   48.7619    7.1102   12.7124 C   0  0  0  0  0  0  0  0  0  0  0  0
   52.8153    6.3032   18.8585 C   0  0  0  0  0  0  0  0  0  0  0  0
   53.3430    4.9131   19.0068 C   0  0  0  0  0  0  0  0  0  0  0  0
   52.4431    6.9170   19.8584 O   0  0  0  0  0  0  0  0  0  0  0  0
   49.9882    7.6423   13.4587 C   0  0  0  0  0  0  0  0  0  0  0  0
   48.8410    7.8119   15.5914 C   0  0  0  0  0  0  0  0  0  0  0  0
   53.4719    4.0348   17.9219 C   0  0  0  0  0  0  0  0  0  0  0  0
   53.7094    4.4789   20.2915 C   0  0  0  0  0  0  0  0  0  0  0  0
   54.3427    2.3370   19.3991 C   0  0  0  0  0  0  0  0  0  0  0  0
   54.2129    3.1909   20.4864 C   0  0  0  0  0  0  0  0  0  0  0  0
   53.9748    2.7454   18.1217 C   0  0  0  0  0  0  0  0  0  0  0  0
   54.8252    1.1013   19.5831 F   0  0  0  0  0  0  0  0  0  0  0  0
   51.2568    7.4413   15.5130 C   0  0  0  0  0  0  0  0  0  0  0  0
   45.0375    5.1632   13.1178 C   0  0  0  0  0  0  0  0  0  0  0  0
   43.1159    6.4155   11.4216 C   0  0  0  0  0  0  0  0  0  0  0  0
   51.3436    6.7859   16.8960 C   0  0  0  0  0  0  0  0  0  0  0  0
   52.7411    6.9403   17.4868 C   0  0  0  0  0  0  0  0  0  0  0  0
   43.8522    4.5080   12.7585 C   0  0  0  0  0  0  0  0  0  0  0  0
   42.9020    5.1274   11.9198 C   0  0  0  0  0  0  0  0  0  0  0  0
   44.2922    8.9777   10.8580 H   0  0  0  0  0  0  0  0  0  0  0  0
   47.4075    6.1303   14.0429 H   0  0  0  0  0  0  0  0  0  0  0  0
   47.7261    9.1476   14.3132 H   0  0  0  0  0  0  0  0  0  0  0  0
   46.7166    8.1374   15.3364 H   0  0  0  0  0  0  0  0  0  0  0  0
   48.6359    7.6976   11.7960 H   0  0  0  0  0  0  0  0  0  0  0  0
   48.9458    6.0797   12.3817 H   0  0  0  0  0  0  0  0  0  0  0  0
   50.0308    8.7380   13.3974 H   0  0  0  0  0  0  0  0  0  0  0  0
   50.8799    7.2630   12.9440 H   0  0  0  0  0  0  0  0  0  0  0  0
   49.1464    8.7414   16.0898 H   0  0  0  0  0  0  0  0  0  0  0  0
   48.5295    7.1132   16.3775 H   0  0  0  0  0  0  0  0  0  0  0  0
   53.1766    4.3196   16.9165 H   0  0  0  0  0  0  0  0  0  0  0  0
   53.6057    5.1449   21.1464 H   0  0  0  0  0  0  0  0  0  0  0  0
   54.5010    2.8517   21.4768 H   0  0  0  0  0  0  0  0  0  0  0  0
   54.0775    2.0546   17.2900 H   0  0  0  0  0  0  0  0  0  0  0  0
   51.4597    8.5179   15.5909 H   0  0  0  0  0  0  0  0  0  0  0  0
   52.0547    7.0111   14.8931 H   0  0  0  0  0  0  0  0  0  0  0  0
   45.7572    4.6743   13.7622 H   0  0  0  0  0  0  0  0  0  0  0  0
   42.3904    6.8964   10.7772 H   0  0  0  0  0  0  0  0  0  0  0  0
   51.0865    5.7224   16.8199 H   0  0  0  0  0  0  0  0  0  0  0  0
   50.6150    7.2348   17.5819 H   0  0  0  0  0  0  0  0  0  0  0  0
   53.5105    6.5289   16.8258 H   0  0  0  0  0  0  0  0  0  0  0  0
   52.9913    8.0022   17.6052 H   0  0  0  0  0  0  0  0  0  0  0  0
   43.6593    3.5039   13.1323 H   0  0  0  0  0  0  0  0  0  0  0  0
   41.9907    4.5929   11.6589 H   0  0  0  0  0  0  0  0  0  0  0  0
  2  1  1  0
  3  1  1  0
  4  2  1  0
  5  3  1  0
  6  2  1  0
  7 14  1  0
  8  1  2  0
  9  6  1  0
 10  6  1  0
 11 26  1  0
 12 11  1  0
 13 11  2  0
 14 10  1  0
 15  9  1  0
 16 12  2  0
 17 12  1  0
 18 19  1  0
 19 17  2  0
 20 16  1  0
 21 18  1  0
 22  7  1  0
 23  4  2  0
 24  5  2  0
 25 22  1  0
 26 25  1  0
 27 23  1  0
 28 24  1  0
  5  4  1  0
 28 27  2  0
 15  7  1  0
 20 18  2  0
  3 29  1  0
  6 30  1  0
  9 31  1  0
  9 32  1  0
 10 33  1  0
 10 34  1  0
 14 35  1  0
 14 36  1  0
 15 37  1  0
 15 38  1  0
 16 39  1  0
 17 40  1  0
 19 41  1  0
 20 42  1  0
 22 43  1  0
 22 44  1  0
 23 45  1  0
 24 46  1  0
 25 47  1  0
 25 48  1  0
 26 49  1  0
 26 50  1  0
 27 51  1  0
 28 52  1  0
M  END
> <Uni-Dock RESULT> 
ENERGY=   -4.307  LOWER_BOUND=    8.128  UPPER_BOUND=   10.605
INTER + INTRA:          -4.307
INTER:                  -4.307
INTRA:                   0.000
UNBOUND:                 0.000

$$$$

     RDKit          3D

 52 55  0  0  0  0  0  0  0  0999 V2000
   54.8123   10.0772   10.1458 C   0  0  0  0  0  0  0  0  0  0  0  0
   53.9019    9.0878    9.7091 N   0  0  0  0  0  0  0  0  0  0  0  0
   55.8526   10.1076    9.2059 N   0  0  0  0  0  0  0  0  0  0  0  0
   54.3938    8.5278    8.5169 C   0  0  0  0  0  0  0  0  0  0  0  0
   55.5980    9.1666    8.2169 C   0  0  0  0  0  0  0  0  0  0  0  0
   52.6675    8.7139   10.3789 C   0  0  0  0  0  0  0  0  0  0  0  0
   50.5006    8.3511   12.0887 N   0  0  0  0  0  0  0  0  0  0  0  0
   54.7407   10.7820   11.1388 O   0  0  0  0  0  0  0  0  0  0  0  0
   51.6887    9.8852   10.4736 C   0  0  0  0  0  0  0  0  0  0  0  0
   52.9265    8.1092   11.7692 C   0  0  0  0  0  0  0  0  0  0  0  0
   45.6086    7.6429   12.8114 C   0  0  0  0  0  0  0  0  0  0  0  0
   45.1112    6.2387   12.6937 C   0  0  0  0  0  0  0  0  0  0  0  0
   44.9215    8.5650   12.3727 O   0  0  0  0  0  0  0  0  0  0  0  0
   51.8013    8.4117   12.7624 C   0  0  0  0  0  0  0  0  0  0  0  0
   50.3619    9.4350   11.0969 C   0  0  0  0  0  0  0  0  0  0  0  0
   45.9479    5.1255   12.8541 C   0  0  0  0  0  0  0  0  0  0  0  0
   43.7520    6.0417   12.3990 C   0  0  0  0  0  0  0  0  0  0  0  0
   44.0742    3.6587   12.4534 C   0  0  0  0  0  0  0  0  0  0  0  0
   43.2330    4.7504   12.2824 C   0  0  0  0  0  0  0  0  0  0  0  0
   45.4247    3.8342   12.7348 C   0  0  0  0  0  0  0  0  0  0  0  0
   43.5792    2.4193   12.3422 F   0  0  0  0  0  0  0  0  0  0  0  0
   49.3982    8.3452   13.0623 C   0  0  0  0  0  0  0  0  0  0  0  0
   53.8909    7.5382    7.6986 C   0  0  0  0  0  0  0  0  0  0  0  0
   56.3495    8.8579    7.1057 C   0  0  0  0  0  0  0  0  0  0  0  0
   48.0420    8.0527   12.4102 C   0  0  0  0  0  0  0  0  0  0  0  0
   46.9474    7.9174   13.4636 C   0  0  0  0  0  0  0  0  0  0  0  0
   54.6361    7.2044    6.5599 C   0  0  0  0  0  0  0  0  0  0  0  0
   55.8518    7.8572    6.2667 C   0  0  0  0  0  0  0  0  0  0  0  0
   56.6431   10.7266    9.2710 H   0  0  0  0  0  0  0  0  0  0  0  0
   52.1781    7.9399    9.7753 H   0  0  0  0  0  0  0  0  0  0  0  0
   52.1182   10.6904   11.0830 H   0  0  0  0  0  0  0  0  0  0  0  0
   51.5025   10.3139    9.4812 H   0  0  0  0  0  0  0  0  0  0  0  0
   53.8694    8.4649   12.1997 H   0  0  0  0  0  0  0  0  0  0  0  0
   53.0421    7.0233   11.6572 H   0  0  0  0  0  0  0  0  0  0  0  0
   51.9541    9.3936   13.2300 H   0  0  0  0  0  0  0  0  0  0  0  0
   51.8598    7.6673   13.5664 H   0  0  0  0  0  0  0  0  0  0  0  0
   49.8823   10.3211   11.5333 H   0  0  0  0  0  0  0  0  0  0  0  0
   49.7056    9.0771   10.2941 H   0  0  0  0  0  0  0  0  0  0  0  0
   47.0094    5.2316   13.0568 H   0  0  0  0  0  0  0  0  0  0  0  0
   43.0908    6.8955   12.2611 H   0  0  0  0  0  0  0  0  0  0  0  0
   42.1824    4.5926   12.0584 H   0  0  0  0  0  0  0  0  0  0  0  0
   46.0627    2.9636   12.8544 H   0  0  0  0  0  0  0  0  0  0  0  0
   49.3568    9.2951   13.6120 H   0  0  0  0  0  0  0  0  0  0  0  0
   49.5851    7.5565   13.8033 H   0  0  0  0  0  0  0  0  0  0  0  0
   52.9599    7.0277    7.9101 H   0  0  0  0  0  0  0  0  0  0  0  0
   57.2821    9.3628    6.8862 H   0  0  0  0  0  0  0  0  0  0  0  0
   48.1055    7.1316   11.8182 H   0  0  0  0  0  0  0  0  0  0  0  0
   47.7687    8.8538   11.7129 H   0  0  0  0  0  0  0  0  0  0  0  0
   47.1854    7.1447   14.2014 H   0  0  0  0  0  0  0  0  0  0  0  0
   46.8484    8.8494   14.0344 H   0  0  0  0  0  0  0  0  0  0  0  0
   54.2721    6.4285    5.8885 H   0  0  0  0  0  0  0  0  0  0  0  0
   56.4076    7.5760    5.3744 H   0  0  0  0  0  0  0  0  0  0  0  0
  2  1  1  0
  3  1  1  0
  4  2  1  0
  5  3  1  0
  6  2  1  0
  7 14  1  0
  8  1  2  0
  9  6  1  0
 10  6  1  0
 11 26  1  0
 12 11  1  0
 13 11  2  0
 14 10  1  0
 15  9  1  0
 16 12  2  0
 17 12  1  0
 18 19  1  0
 19 17  2  0
 20 16  1  0
 21 18  1  0
 22  7  1  0
 23  4  2  0
 24  5  2  0
 25 22  1  0
 26 25  1  0
 27 23  1  0
 28 24  1  0
  5  4  1  0
 28 27  2  0
 15  7  1  0
 20 18  2  0
  3 29  1  0
  6 30  1  0
  9 31  1  0
  9 32  1  0
 10 33  1  0
 10 34  1  0
 14 35  1  0
 14 36  1  0
 15 37  1  0
 15 38  1  0
 16 39  1  0
 17 40  1  0
 19 41  1  0
 20 42  1  0
 22 43  1  0
 22 44  1  0
 23 45  1  0
 24 46  1  0
 25 47  1  0
 25 48  1  0
 26 49  1  0
 26 50  1  0
 27 51  1  0
 28 52  1  0
M  END
> <Uni-Dock RESULT> 
ENERGY=   -4.180  LOWER_BOUND=    7.280  UPPER_BOUND=    9.873
INTER + INTRA:          -4.180
INTER:                  -4.180
INTRA:                   0.000
UNBOUND:                 0.000

$$$$
