
     RDKit          3D

 52 55  0  0  0  0  0  0  0  0999 V2000
   53.2731    4.3863   20.0499 C   0  0  0  0  0  0  0  0  0  0  0  0
   53.0275    3.6409   18.8724 N   0  0  0  0  0  0  0  0  0  0  0  0
   54.2371    3.6765   20.7804 N   0  0  0  0  0  0  0  0  0  0  0  0
   53.8032    2.4676   18.9220 C   0  0  0  0  0  0  0  0  0  0  0  0
   54.5514    2.5059   20.1005 C   0  0  0  0  0  0  0  0  0  0  0  0
   52.0174    3.9545   17.8716 C   0  0  0  0  0  0  0  0  0  0  0  0
   49.7900    5.5343   16.8686 N   0  0  0  0  0  0  0  0  0  0  0  0
   52.7592    5.4377   20.3965 O   0  0  0  0  0  0  0  0  0  0  0  0
   52.1880    5.3755   17.3073 C   0  0  0  0  0  0  0  0  0  0  0  0
   50.6130    3.7277   18.4369 C   0  0  0  0  0  0  0  0  0  0  0  0
   47.5992    6.4446   13.7655 C   0  0  0  0  0  0  0  0  0  0  0  0
   46.6306    7.3139   13.0243 C   0  0  0  0  0  0  0  0  0  0  0  0
   47.3516    5.2449   13.8860 O   0  0  0  0  0  0  0  0  0  0  0  0
   49.5242    4.2242   17.4856 C   0  0  0  0  0  0  0  0  0  0  0  0
   50.9304    6.2279   17.4720 C   0  0  0  0  0  0  0  0  0  0  0  0
   46.7088    8.7147   13.0270 C   0  0  0  0  0  0  0  0  0  0  0  0
   45.5977    6.6865   12.3064 C   0  0  0  0  0  0  0  0  0  0  0  0
   44.7616    8.8313   11.6043 C   0  0  0  0  0  0  0  0  0  0  0  0
   44.6645    7.4457   11.5951 C   0  0  0  0  0  0  0  0  0  0  0  0
   45.7729    9.4713   12.3128 C   0  0  0  0  0  0  0  0  0  0  0  0
   43.8713    9.5613   10.9199 F   0  0  0  0  0  0  0  0  0  0  0  0
   48.5685    6.3504   16.8168 C   0  0  0  0  0  0  0  0  0  0  0  0
   53.8970    1.3981   18.0551 C   0  0  0  0  0  0  0  0  0  0  0  0
   55.4190    1.5003   20.4686 C   0  0  0  0  0  0  0  0  0  0  0  0
   48.6331    7.5070   15.8058 C   0  0  0  0  0  0  0  0  0  0  0  0
   48.8558    7.0489   14.3644 C   0  0  0  0  0  0  0  0  0  0  0  0
   54.7732    0.3606   18.4050 C   0  0  0  0  0  0  0  0  0  0  0  0
   55.5259    0.4111   19.5982 C   0  0  0  0  0  0  0  0  0  0  0  0
   54.5917    3.9765   21.6729 H   0  0  0  0  0  0  0  0  0  0  0  0
   52.1551    3.2662   17.0289 H   0  0  0  0  0  0  0  0  0  0  0  0
   53.0443    5.8970   17.7507 H   0  0  0  0  0  0  0  0  0  0  0  0
   52.4221    5.2971   16.2364 H   0  0  0  0  0  0  0  0  0  0  0  0
   50.4609    2.6617   18.6463 H   0  0  0  0  0  0  0  0  0  0  0  0
   50.5016    4.2401   19.4012 H   0  0  0  0  0  0  0  0  0  0  0  0
   48.5796    4.2244   18.0480 H   0  0  0  0  0  0  0  0  0  0  0  0
   49.3992    3.4968   16.6729 H   0  0  0  0  0  0  0  0  0  0  0  0
   50.7480    6.4588   18.5293 H   0  0  0  0  0  0  0  0  0  0  0  0
   51.1207    7.1809   16.9671 H   0  0  0  0  0  0  0  0  0  0  0  0
   47.4790    9.2449   13.5790 H   0  0  0  0  0  0  0  0  0  0  0  0
   45.5170    5.5997   12.2965 H   0  0  0  0  0  0  0  0  0  0  0  0
   43.8673    6.9634   11.0374 H   0  0  0  0  0  0  0  0  0  0  0  0
   45.8252   10.5564   12.3070 H   0  0  0  0  0  0  0  0  0  0  0  0
   48.3397    6.7517   17.8132 H   0  0  0  0  0  0  0  0  0  0  0  0
   47.7148    5.7197   16.5366 H   0  0  0  0  0  0  0  0  0  0  0  0
   53.3238    1.3451   17.1378 H   0  0  0  0  0  0  0  0  0  0  0  0
   55.9880    1.5427   21.3899 H   0  0  0  0  0  0  0  0  0  0  0  0
   49.4288    8.2067   16.0848 H   0  0  0  0  0  0  0  0  0  0  0  0
   47.6956    8.0733   15.8774 H   0  0  0  0  0  0  0  0  0  0  0  0
   49.6581    6.3057   14.2921 H   0  0  0  0  0  0  0  0  0  0  0  0
   49.1928    7.8869   13.7451 H   0  0  0  0  0  0  0  0  0  0  0  0
   54.8716   -0.5019   17.7477 H   0  0  0  0  0  0  0  0  0  0  0  0
   56.1914   -0.4146   19.8433 H   0  0  0  0  0  0  0  0  0  0  0  0
  2  1  1  0
  3  1  1  0
  4  2  1  0
  5  3  1  0
  6  2  1  0
  7 14  1  0
  8  1  2  0
  9  6  1  0
 10  6  1  0
 11 26  1  0
 12 11  1  0
 13 11  2  0
 14 10  1  0
 15  9  1  0
 16 12  2  0
 17 12  1  0
 18 19  1  0
 19 17  2  0
 20 16  1  0
 21 18  1  0
 22  7  1  0
 23  4  2  0
 24  5  2  0
 25 22  1  0
 26 25  1  0
 27 23  1  0
 28 24  1  0
  5  4  1  0
 28 27  2  0
 15  7  1  0
 20 18  2  0
  3 29  1  0
  6 30  1  0
  9 31  1  0
  9 32  1  0
 10 33  1  0
 10 34  1  0
 14 35  1  0
 14 36  1  0
 15 37  1  0
 15 38  1  0
 16 39  1  0
 17 40  1  0
 19 41  1  0
 20 42  1  0
 22 43  1  0
 22 44  1  0
 23 45  1  0
 24 46  1  0
 25 47  1  0
 25 48  1  0
 26 49  1  0
 26 50  1  0
 27 51  1  0
 28 52  1  0
M  END
> <Uni-Dock RESULT> 
ENERGY=   -4.436  LOWER_BOUND=    0.000  UPPER_BOUND=    0.000
INTER + INTRA:          -4.436
INTER:                  -4.436
INTRA:                   0.000
UNBOUND:                 0.000

$$$$

     RDKit          3D

 52 55  0  0  0  0  0  0  0  0999 V2000
   48.8518    5.4056   20.9141 C   0  0  0  0  0  0  0  0  0  0  0  0
   48.1617    6.4597   20.2699 N   0  0  0  0  0  0  0  0  0  0  0  0
   49.1711    5.8626   22.2010 N   0  0  0  0  0  0  0  0  0  0  0  0
   48.1122    7.5580   21.1487 C   0  0  0  0  0  0  0  0  0  0  0  0
   48.7311    7.1735   22.3399 C   0  0  0  0  0  0  0  0  0  0  0  0
   47.7336    6.4604   18.8781 C   0  0  0  0  0  0  0  0  0  0  0  0
   47.5862    5.2671   16.2291 N   0  0  0  0  0  0  0  0  0  0  0  0
   49.1371    4.3072   20.4652 O   0  0  0  0  0  0  0  0  0  0  0  0
   46.8321    5.2571   18.5527 C   0  0  0  0  0  0  0  0  0  0  0  0
   48.9440    6.5382   17.9442 C   0  0  0  0  0  0  0  0  0  0  0  0
   45.8181    5.3140   12.7464 C   0  0  0  0  0  0  0  0  0  0  0  0
   45.4534    4.7075   11.4264 C   0  0  0  0  0  0  0  0  0  0  0  0
   46.3302    6.4332   12.7667 O   0  0  0  0  0  0  0  0  0  0  0  0
   48.5513    6.3506   16.4788 C   0  0  0  0  0  0  0  0  0  0  0  0
   47.3729    4.4126   17.3996 C   0  0  0  0  0  0  0  0  0  0  0  0
   45.0781    3.3631   11.2843 C   0  0  0  0  0  0  0  0  0  0  0  0
   45.5023    5.5295   10.2873 C   0  0  0  0  0  0  0  0  0  0  0  0
   44.7970    3.6875    8.9084 C   0  0  0  0  0  0  0  0  0  0  0  0
   45.1722    5.0193    9.0288 C   0  0  0  0  0  0  0  0  0  0  0  0
   44.7475    2.8563   10.0225 C   0  0  0  0  0  0  0  0  0  0  0  0
   44.4759    3.1969    7.7042 F   0  0  0  0  0  0  0  0  0  0  0  0
   47.9364    4.5187   15.0134 C   0  0  0  0  0  0  0  0  0  0  0  0
   47.5974    8.8288   20.9933 C   0  0  0  0  0  0  0  0  0  0  0  0
   48.8642    8.0187   23.4204 C   0  0  0  0  0  0  0  0  0  0  0  0
   46.7748    3.6978   14.4295 C   0  0  0  0  0  0  0  0  0  0  0  0
   45.5664    4.5447   14.0300 C   0  0  0  0  0  0  0  0  0  0  0  0
   47.7187    9.7096   22.0777 C   0  0  0  0  0  0  0  0  0  0  0  0
   48.3449    9.3092   23.2778 C   0  0  0  0  0  0  0  0  0  0  0  0
   49.6768    5.3149   22.8767 H   0  0  0  0  0  0  0  0  0  0  0  0
   47.1254    7.3584   18.7147 H   0  0  0  0  0  0  0  0  0  0  0  0
   46.6636    4.6175   19.4271 H   0  0  0  0  0  0  0  0  0  0  0  0
   45.8374    5.6341   18.2764 H   0  0  0  0  0  0  0  0  0  0  0  0
   49.4522    7.5024   18.0687 H   0  0  0  0  0  0  0  0  0  0  0  0
   49.6842    5.7737   18.2132 H   0  0  0  0  0  0  0  0  0  0  0  0
   49.4815    6.2046   15.9114 H   0  0  0  0  0  0  0  0  0  0  0  0
   48.1051    7.2815   16.1052 H   0  0  0  0  0  0  0  0  0  0  0  0
   48.2941    3.8925   17.6919 H   0  0  0  0  0  0  0  0  0  0  0  0
   46.6252    3.6405   17.1895 H   0  0  0  0  0  0  0  0  0  0  0  0
   45.0405    2.6856   12.1320 H   0  0  0  0  0  0  0  0  0  0  0  0
   45.7966    6.5751   10.3765 H   0  0  0  0  0  0  0  0  0  0  0  0
   45.2065    5.6530    8.1475 H   0  0  0  0  0  0  0  0  0  0  0  0
   44.4542    1.8173    9.9014 H   0  0  0  0  0  0  0  0  0  0  0  0
   48.7874    3.8533   15.2113 H   0  0  0  0  0  0  0  0  0  0  0  0
   48.2672    5.2163   14.2330 H   0  0  0  0  0  0  0  0  0  0  0  0
   47.1167    9.1502   20.0776 H   0  0  0  0  0  0  0  0  0  0  0  0
   49.3528    7.7064   24.3358 H   0  0  0  0  0  0  0  0  0  0  0  0
   46.4543    2.9354   15.1483 H   0  0  0  0  0  0  0  0  0  0  0  0
   47.1518    3.1492   13.5569 H   0  0  0  0  0  0  0  0  0  0  0  0
   45.2972    5.2650   14.8109 H   0  0  0  0  0  0  0  0  0  0  0  0
   44.6793    3.9131   13.9130 H   0  0  0  0  0  0  0  0  0  0  0  0
   47.3276   10.7222   21.9915 H   0  0  0  0  0  0  0  0  0  0  0  0
   48.4289   10.0202   24.0977 H   0  0  0  0  0  0  0  0  0  0  0  0
  2  1  1  0
  3  1  1  0
  4  2  1  0
  5  3  1  0
  6  2  1  0
  7 14  1  0
  8  1  2  0
  9  6  1  0
 10  6  1  0
 11 26  1  0
 12 11  1  0
 13 11  2  0
 14 10  1  0
 15  9  1  0
 16 12  2  0
 17 12  1  0
 18 19  1  0
 19 17  2  0
 20 16  1  0
 21 18  1  0
 22  7  1  0
 23  4  2  0
 24  5  2  0
 25 22  1  0
 26 25  1  0
 27 23  1  0
 28 24  1  0
  5  4  1  0
 28 27  2  0
 15  7  1  0
 20 18  2  0
  3 29  1  0
  6 30  1  0
  9 31  1  0
  9 32  1  0
 10 33  1  0
 10 34  1  0
 14 35  1  0
 14 36  1  0
 15 37  1  0
 15 38  1  0
 16 39  1  0
 17 40  1  0
 19 41  1  0
 20 42  1  0
 22 43  1  0
 22 44  1  0
 23 45  1  0
 24 46  1  0
 25 47  1  0
 25 48  1  0
 26 49  1  0
 26 50  1  0
 27 51  1  0
 28 52  1  0
M  END
> <Uni-Dock RESULT> 
ENERGY=   -4.356  LOWER_BOUND=    4.633  UPPER_BOUND=    6.166
INTER + INTRA:          -4.356
INTER:                  -4.356
INTRA:                   0.000
UNBOUND:                 0.000

$$$$

     RDKit          3D

 52 55  0  0  0  0  0  0  0  0999 V2000
   54.2993    9.4430   16.1822 C   0  0  0  0  0  0  0  0  0  0  0  0
   54.1359    8.0828   15.8278 N   0  0  0  0  0  0  0  0  0  0  0  0
   55.6277    9.5902   16.6069 N   0  0  0  0  0  0  0  0  0  0  0  0
   55.3451    7.4103   16.0860 C   0  0  0  0  0  0  0  0  0  0  0  0
   56.2600    8.3535   16.5584 C   0  0  0  0  0  0  0  0  0  0  0  0
   52.8811    7.4602   15.4305 C   0  0  0  0  0  0  0  0  0  0  0  0
   50.0088    7.5197   14.9727 N   0  0  0  0  0  0  0  0  0  0  0  0
   53.4679   10.3356   16.1460 O   0  0  0  0  0  0  0  0  0  0  0  0
   52.2415    8.1718   14.2258 C   0  0  0  0  0  0  0  0  0  0  0  0
   51.9226    7.3765   16.6212 C   0  0  0  0  0  0  0  0  0  0  0  0
   46.9513    5.7337   13.3235 C   0  0  0  0  0  0  0  0  0  0  0  0
   45.5438    5.6956   12.8129 C   0  0  0  0  0  0  0  0  0  0  0  0
   47.3144    4.8811   14.1337 O   0  0  0  0  0  0  0  0  0  0  0  0
   50.5296    6.9044   16.2047 C   0  0  0  0  0  0  0  0  0  0  0  0
   50.8190    8.6504   14.5135 C   0  0  0  0  0  0  0  0  0  0  0  0
   44.9750    6.7414   12.0706 C   0  0  0  0  0  0  0  0  0  0  0  0
   44.7671    4.5610   13.1049 C   0  0  0  0  0  0  0  0  0  0  0  0
   42.9032    5.5114   11.9156 C   0  0  0  0  0  0  0  0  0  0  0  0
   43.4474    4.4688   12.6545 C   0  0  0  0  0  0  0  0  0  0  0  0
   43.6534    6.6449   11.6207 C   0  0  0  0  0  0  0  0  0  0  0  0
   41.6401    5.4238   11.4788 F   0  0  0  0  0  0  0  0  0  0  0  0
   48.5800    7.8385   15.1057 C   0  0  0  0  0  0  0  0  0  0  0  0
   55.6963    6.0821   15.9569 C   0  0  0  0  0  0  0  0  0  0  0  0
   57.5505    8.0292   16.9173 C   0  0  0  0  0  0  0  0  0  0  0  0
   47.8591    8.0451   13.7634 C   0  0  0  0  0  0  0  0  0  0  0  0
   47.9004    6.8193   12.8509 C   0  0  0  0  0  0  0  0  0  0  0  0
   57.0041    5.7243   16.3148 C   0  0  0  0  0  0  0  0  0  0  0  0
   57.9210    6.6869   16.7896 C   0  0  0  0  0  0  0  0  0  0  0  0
   56.0161   10.4607   16.9289 H   0  0  0  0  0  0  0  0  0  0  0  0
   53.1027    6.4362   15.1055 H   0  0  0  0  0  0  0  0  0  0  0  0
   52.8472    9.0151   13.8737 H   0  0  0  0  0  0  0  0  0  0  0  0
   52.2119    7.4673   13.3829 H   0  0  0  0  0  0  0  0  0  0  0  0
   52.3287    6.6990   17.3824 H   0  0  0  0  0  0  0  0  0  0  0  0
   51.8335    8.3553   17.1098 H   0  0  0  0  0  0  0  0  0  0  0  0
   49.8607    7.0783   17.0596 H   0  0  0  0  0  0  0  0  0  0  0  0
   50.5516    5.8182   16.0463 H   0  0  0  0  0  0  0  0  0  0  0  0
   50.8201    9.4686   15.2451 H   0  0  0  0  0  0  0  0  0  0  0  0
   50.4236    9.0611   13.5784 H   0  0  0  0  0  0  0  0  0  0  0  0
   45.5299    7.6441   11.8333 H   0  0  0  0  0  0  0  0  0  0  0  0
   45.1894    3.7405   13.6848 H   0  0  0  0  0  0  0  0  0  0  0  0
   42.8461    3.5920   12.8764 H   0  0  0  0  0  0  0  0  0  0  0  0
   43.2036    7.4482   11.0439 H   0  0  0  0  0  0  0  0  0  0  0  0
   48.4489    8.7329   15.7294 H   0  0  0  0  0  0  0  0  0  0  0  0
   48.0667    7.0214   15.6290 H   0  0  0  0  0  0  0  0  0  0  0  0
   55.0025    5.3327   15.5965 H   0  0  0  0  0  0  0  0  0  0  0  0
   58.2465    8.7725   17.2880 H   0  0  0  0  0  0  0  0  0  0  0  0
   48.2912    8.9003   13.2319 H   0  0  0  0  0  0  0  0  0  0  0  0
   46.8175    8.3179   13.9760 H   0  0  0  0  0  0  0  0  0  0  0  0
   48.9067    6.3890   12.7915 H   0  0  0  0  0  0  0  0  0  0  0  0
   47.6545    7.1010   11.8215 H   0  0  0  0  0  0  0  0  0  0  0  0
   57.3172    4.6848   16.2300 H   0  0  0  0  0  0  0  0  0  0  0  0
   58.9264    6.3741   17.0656 H   0  0  0  0  0  0  0  0  0  0  0  0
  2  1  1  0
  3  1  1  0
  4  2  1  0
  5  3  1  0
  6  2  1  0
  7 14  1  0
  8  1  2  0
  9  6  1  0
 10  6  1  0
 11 26  1  0
 12 11  1  0
 13 11  2  0
 14 10  1  0
 15  9  1  0
 16 12  2  0
 17 12  1  0
 18 19  1  0
 19 17  2  0
 20 16  1  0
 21 18  1  0
 22  7  1  0
 23  4  2  0
 24  5  2  0
 25 22  1  0
 26 25  1  0
 27 23  1  0
 28 24  1  0
  5  4  1  0
 28 27  2  0
 15  7  1  0
 20 18  2  0
  3 29  1  0
  6 30  1  0
  9 31  1  0
  9 32  1  0
 10 33  1  0
 10 34  1  0
 14 35  1  0
 14 36  1  0
 15 37  1  0
 15 38  1  0
 16 39  1  0
 17 40  1  0
 19 41  1  0
 20 42  1  0
 22 43  1  0
 22 44  1  0
 23 45  1  0
 24 46  1  0
 25 47  1  0
 25 48  1  0
 26 49  1  0
 26 50  1  0
 27 51  1  0
 28 52  1  0
M  END
> <Uni-Dock RESULT> 
ENERGY=   -4.096  LOWER_BOUND=    3.977  UPPER_BOUND=    4.683
INTER + INTRA:          -4.096
INTER:                  -4.096
INTRA:                   0.000
UNBOUND:                 0.000

$$$$

     RDKit          3D

 52 55  0  0  0  0  0  0  0  0999 V2000
   49.4540   14.8417   17.6633 C   0  0  0  0  0  0  0  0  0  0  0  0
   48.5203   13.8325   17.3282 N   0  0  0  0  0  0  0  0  0  0  0  0
   49.5076   14.8896   19.0639 N   0  0  0  0  0  0  0  0  0  0  0  0
   47.9822   13.3143   18.5211 C   0  0  0  0  0  0  0  0  0  0  0  0
   48.6060   13.9692   19.5849 C   0  0  0  0  0  0  0  0  0  0  0  0
   48.0723   13.5127   15.9802 C   0  0  0  0  0  0  0  0  0  0  0  0
   48.0065   13.9811   13.1098 N   0  0  0  0  0  0  0  0  0  0  0  0
   50.0962   15.5540   16.9086 O   0  0  0  0  0  0  0  0  0  0  0  0
   49.2477   13.1667   15.0499 C   0  0  0  0  0  0  0  0  0  0  0  0
   47.2112   14.6464   15.4175 C   0  0  0  0  0  0  0  0  0  0  0  0
   47.0776   12.5220    9.6076 C   0  0  0  0  0  0  0  0  0  0  0  0
   47.1512   12.4920    8.1119 C   0  0  0  0  0  0  0  0  0  0  0  0
   45.9728   12.5584   10.1491 O   0  0  0  0  0  0  0  0  0  0  0  0
   46.8791   14.4360   13.9403 C   0  0  0  0  0  0  0  0  0  0  0  0
   49.2932   14.0534   13.8061 C   0  0  0  0  0  0  0  0  0  0  0  0
   48.3491   12.6752    7.4051 C   0  0  0  0  0  0  0  0  0  0  0  0
   45.9595   12.2793    7.3974 C   0  0  0  0  0  0  0  0  0  0  0  0
   47.1630   12.4178    5.3179 C   0  0  0  0  0  0  0  0  0  0  0  0
   45.9663   12.2406    6.0005 C   0  0  0  0  0  0  0  0  0  0  0  0
   48.3520   12.6349    6.0062 C   0  0  0  0  0  0  0  0  0  0  0  0
   47.1733   12.3769    3.9792 F   0  0  0  0  0  0  0  0  0  0  0  0
   48.0075   14.6585   11.8052 C   0  0  0  0  0  0  0  0  0  0  0  0
   47.0147   12.3563   18.7453 C   0  0  0  0  0  0  0  0  0  0  0  0
   48.3064   13.7063   20.9042 C   0  0  0  0  0  0  0  0  0  0  0  0
   48.8369   13.9388   10.7290 C   0  0  0  0  0  0  0  0  0  0  0  0
   48.3530   12.5199   10.4298 C   0  0  0  0  0  0  0  0  0  0  0  0
   46.6905   12.0686   20.0790 C   0  0  0  0  0  0  0  0  0  0  0  0
   47.3291   12.7359   21.1465 C   0  0  0  0  0  0  0  0  0  0  0  0
   50.0884   15.5311   19.5772 H   0  0  0  0  0  0  0  0  0  0  0  0
   47.4467   12.6137   16.0390 H   0  0  0  0  0  0  0  0  0  0  0  0
   50.2130   13.2129   15.5677 H   0  0  0  0  0  0  0  0  0  0  0  0
   49.1416   12.1201   14.7321 H   0  0  0  0  0  0  0  0  0  0  0  0
   46.2825   14.7337   15.9949 H   0  0  0  0  0  0  0  0  0  0  0  0
   47.7252   15.6095   15.5314 H   0  0  0  0  0  0  0  0  0  0  0  0
   46.4545   15.3790   13.5673 H   0  0  0  0  0  0  0  0  0  0  0  0
   46.0833   13.6845   13.8552 H   0  0  0  0  0  0  0  0  0  0  0  0
   49.5511   15.0871   14.0697 H   0  0  0  0  0  0  0  0  0  0  0  0
   50.1028   13.6758   13.1727 H   0  0  0  0  0  0  0  0  0  0  0  0
   49.2919   12.8579    7.9120 H   0  0  0  0  0  0  0  0  0  0  0  0
   45.0180   12.1402    7.9284 H   0  0  0  0  0  0  0  0  0  0  0  0
   45.0475   12.0736    5.4462 H   0  0  0  0  0  0  0  0  0  0  0  0
   49.2742   12.7741    5.4491 H   0  0  0  0  0  0  0  0  0  0  0  0
   48.3711   15.6889   11.9148 H   0  0  0  0  0  0  0  0  0  0  0  0
   46.9794   14.7343   11.4279 H   0  0  0  0  0  0  0  0  0  0  0  0
   46.5150   11.8384   17.9361 H   0  0  0  0  0  0  0  0  0  0  0  0
   48.7956   14.2281   21.7183 H   0  0  0  0  0  0  0  0  0  0  0  0
   49.8902   13.9009   11.0285 H   0  0  0  0  0  0  0  0  0  0  0  0
   48.8057   14.5450    9.8146 H   0  0  0  0  0  0  0  0  0  0  0  0
   48.1649   11.9512   11.3476 H   0  0  0  0  0  0  0  0  0  0  0  0
   49.1296   11.9546    9.9036 H   0  0  0  0  0  0  0  0  0  0  0  0
   45.9291   11.3208   20.2958 H   0  0  0  0  0  0  0  0  0  0  0  0
   47.0486   12.4938   22.1699 H   0  0  0  0  0  0  0  0  0  0  0  0
  2  1  1  0
  3  1  1  0
  4  2  1  0
  5  3  1  0
  6  2  1  0
  7 14  1  0
  8  1  2  0
  9  6  1  0
 10  6  1  0
 11 26  1  0
 12 11  1  0
 13 11  2  0
 14 10  1  0
 15  9  1  0
 16 12  2  0
 17 12  1  0
 18 19  1  0
 19 17  2  0
 20 16  1  0
 21 18  1  0
 22  7  1  0
 23  4  2  0
 24  5  2  0
 25 22  1  0
 26 25  1  0
 27 23  1  0
 28 24  1  0
  5  4  1  0
 28 27  2  0
 15  7  1  0
 20 18  2  0
  3 29  1  0
  6 30  1  0
  9 31  1  0
  9 32  1  0
 10 33  1  0
 10 34  1  0
 14 35  1  0
 14 36  1  0
 15 37  1  0
 15 38  1  0
 16 39  1  0
 17 40  1  0
 19 41  1  0
 20 42  1  0
 22 43  1  0
 22 44  1  0
 23 45  1  0
 24 46  1  0
 25 47  1  0
 25 48  1  0
 26 49  1  0
 26 50  1  0
 27 51  1  0
 28 52  1  0
M  END
> <Uni-Dock RESULT> 
ENERGY=   -4.011  LOWER_BOUND=    9.462  UPPER_BOUND=   10.320
INTER + INTRA:          -4.011
INTER:                  -4.011
INTRA:                   0.000
UNBOUND:                 0.000

$$$$

     RDKit          3D

 52 55  0  0  0  0  0  0  0  0999 V2000
   46.7991    5.4542   13.6932 C   0  0  0  0  0  0  0  0  0  0  0  0
   46.4400    6.0104   12.4425 N   0  0  0  0  0  0  0  0  0  0  0  0
   46.0986    4.2449   13.8105 N   0  0  0  0  0  0  0  0  0  0  0  0
   45.4926    5.1633   11.8376 C   0  0  0  0  0  0  0  0  0  0  0  0
   45.2971    4.0733   12.6882 C   0  0  0  0  0  0  0  0  0  0  0  0
   46.8517    7.3181   11.9522 C   0  0  0  0  0  0  0  0  0  0  0  0
   48.1936    9.8801   12.2661 N   0  0  0  0  0  0  0  0  0  0  0  0
   47.5579    5.9134   14.5315 O   0  0  0  0  0  0  0  0  0  0  0  0
   48.3826    7.4681   11.9284 C   0  0  0  0  0  0  0  0  0  0  0  0
   46.1799    8.4307   12.7610 C   0  0  0  0  0  0  0  0  0  0  0  0
   49.6002   13.0455   10.4607 C   0  0  0  0  0  0  0  0  0  0  0  0
   50.4508   14.2765   10.3939 C   0  0  0  0  0  0  0  0  0  0  0  0
   48.4019   13.1341   10.1939 O   0  0  0  0  0  0  0  0  0  0  0  0
   46.7293    9.8118   12.4040 C   0  0  0  0  0  0  0  0  0  0  0  0
   48.8680    8.6690   12.7393 C   0  0  0  0  0  0  0  0  0  0  0  0
   51.7618   14.3236   10.8912 C   0  0  0  0  0  0  0  0  0  0  0  0
   49.8960   15.4304    9.8137 C   0  0  0  0  0  0  0  0  0  0  0  0
   51.9406   16.6345   10.2152 C   0  0  0  0  0  0  0  0  0  0  0  0
   50.6420   16.6085    9.7230 C   0  0  0  0  0  0  0  0  0  0  0  0
   52.5059   15.5051   10.7978 C   0  0  0  0  0  0  0  0  0  0  0  0
   52.6596   17.7610   10.1257 F   0  0  0  0  0  0  0  0  0  0  0  0
   48.7222   11.1157   12.8616 C   0  0  0  0  0  0  0  0  0  0  0  0
   44.8011    5.2697   10.6482 C   0  0  0  0  0  0  0  0  0  0  0  0
   44.4206    3.0490   12.4019 C   0  0  0  0  0  0  0  0  0  0  0  0
   50.1314   11.4903   12.3737 C   0  0  0  0  0  0  0  0  0  0  0  0
   50.2165   11.7189   10.8645 C   0  0  0  0  0  0  0  0  0  0  0  0
   43.9027    4.2406   10.3316 C   0  0  0  0  0  0  0  0  0  0  0  0
   43.7145    3.1424   11.1986 C   0  0  0  0  0  0  0  0  0  0  0  0
   46.1591    3.6421   14.6137 H   0  0  0  0  0  0  0  0  0  0  0  0
   46.5138    7.4083   10.9126 H   0  0  0  0  0  0  0  0  0  0  0  0
   48.8928    6.5618   12.2754 H   0  0  0  0  0  0  0  0  0  0  0  0
   48.7020    7.5960   10.8847 H   0  0  0  0  0  0  0  0  0  0  0  0
   45.0956    8.4118   12.5958 H   0  0  0  0  0  0  0  0  0  0  0  0
   46.3211    8.2603   13.8361 H   0  0  0  0  0  0  0  0  0  0  0  0
   46.3601   10.5130   13.1659 H   0  0  0  0  0  0  0  0  0  0  0  0
   46.2933   10.1355   11.4499 H   0  0  0  0  0  0  0  0  0  0  0  0
   48.7044    8.5101   13.8129 H   0  0  0  0  0  0  0  0  0  0  0  0
   49.9506    8.7401   12.5901 H   0  0  0  0  0  0  0  0  0  0  0  0
   52.2279   13.4631   11.3617 H   0  0  0  0  0  0  0  0  0  0  0  0
   48.8773   15.4152    9.4265 H   0  0  0  0  0  0  0  0  0  0  0  0
   50.2168   17.5006    9.2727 H   0  0  0  0  0  0  0  0  0  0  0  0
   53.5224   15.5521   11.1784 H   0  0  0  0  0  0  0  0  0  0  0  0
   48.7269   11.0354   13.9568 H   0  0  0  0  0  0  0  0  0  0  0  0
   48.0590   11.9559   12.6182 H   0  0  0  0  0  0  0  0  0  0  0  0
   44.9337    6.1075    9.9749 H   0  0  0  0  0  0  0  0  0  0  0  0
   44.2761    2.2129   13.0760 H   0  0  0  0  0  0  0  0  0  0  0  0
   50.8474   10.7110   12.6575 H   0  0  0  0  0  0  0  0  0  0  0  0
   50.4457   12.3965   12.9073 H   0  0  0  0  0  0  0  0  0  0  0  0
   49.7119   10.9245   10.3028 H   0  0  0  0  0  0  0  0  0  0  0  0
   51.2588   11.6801   10.5306 H   0  0  0  0  0  0  0  0  0  0  0  0
   43.3360    4.2910    9.4031 H   0  0  0  0  0  0  0  0  0  0  0  0
   43.0039    2.3643   10.9259 H   0  0  0  0  0  0  0  0  0  0  0  0
  2  1  1  0
  3  1  1  0
  4  2  1  0
  5  3  1  0
  6  2  1  0
  7 14  1  0
  8  1  2  0
  9  6  1  0
 10  6  1  0
 11 26  1  0
 12 11  1  0
 13 11  2  0
 14 10  1  0
 15  9  1  0
 16 12  2  0
 17 12  1  0
 18 19  1  0
 19 17  2  0
 20 16  1  0
 21 18  1  0
 22  7  1  0
 23  4  2  0
 24  5  2  0
 25 22  1  0
 26 25  1  0
 27 23  1  0
 28 24  1  0
  5  4  1  0
 28 27  2  0
 15  7  1  0
 20 18  2  0
  3 29  1  0
  6 30  1  0
  9 31  1  0
  9 32  1  0
 10 33  1  0
 10 34  1  0
 14 35  1  0
 14 36  1  0
 15 37  1  0
 15 38  1  0
 16 39  1  0
 17 40  1  0
 19 41  1  0
 20 42  1  0
 22 43  1  0
 22 44  1  0
 23 45  1  0
 24 46  1  0
 25 47  1  0
 25 48  1  0
 26 49  1  0
 26 50  1  0
 27 51  1  0
 28 52  1  0
M  END
> <Uni-Dock RESULT> 
ENERGY=   -3.925  LOWER_BOUND=    7.068  UPPER_BOUND=    9.730
INTER + INTRA:          -3.925
INTER:                  -3.925
INTRA:                   0.000
UNBOUND:                 0.000

$$$$

     RDKit          3D

 52 55  0  0  0  0  0  0  0  0999 V2000
   51.6912   13.1518   13.7908 C   0  0  0  0  0  0  0  0  0  0  0  0
   50.3339   13.2846   14.1685 N   0  0  0  0  0  0  0  0  0  0  0  0
   52.3190   14.3624   14.1180 N   0  0  0  0  0  0  0  0  0  0  0  0
   50.1404   14.5844   14.6727 C   0  0  0  0  0  0  0  0  0  0  0  0
   51.3750   15.2363   14.6439 C   0  0  0  0  0  0  0  0  0  0  0  0
   49.2887   12.3030   13.9154 C   0  0  0  0  0  0  0  0  0  0  0  0
   48.3216    9.8075   12.7751 N   0  0  0  0  0  0  0  0  0  0  0  0
   52.2382   12.1916   13.2728 O   0  0  0  0  0  0  0  0  0  0  0  0
   49.6389   10.9249   14.5026 C   0  0  0  0  0  0  0  0  0  0  0  0
   48.9763   12.2252   12.4188 C   0  0  0  0  0  0  0  0  0  0  0  0
   45.4687    7.1395   12.7635 C   0  0  0  0  0  0  0  0  0  0  0  0
   44.9090    5.7852   12.4535 C   0  0  0  0  0  0  0  0  0  0  0  0
   44.8602    8.1379   12.3789 O   0  0  0  0  0  0  0  0  0  0  0  0
   48.0229   11.0763   12.0904 C   0  0  0  0  0  0  0  0  0  0  0  0
   49.6212    9.8164   13.4508 C   0  0  0  0  0  0  0  0  0  0  0  0
   45.6331    4.5996   12.6487 C   0  0  0  0  0  0  0  0  0  0  0  0
   43.6039    5.7140   11.9364 C   0  0  0  0  0  0  0  0  0  0  0  0
   43.7582    3.3145   11.8346 C   0  0  0  0  0  0  0  0  0  0  0  0
   43.0284    4.4782   11.6288 C   0  0  0  0  0  0  0  0  0  0  0  0
   45.0530    3.3639   12.3402 C   0  0  0  0  0  0  0  0  0  0  0  0
   43.2077    2.1284   11.5449 F   0  0  0  0  0  0  0  0  0  0  0  0
   48.1399    8.6641   11.8695 C   0  0  0  0  0  0  0  0  0  0  0  0
   49.0078   15.2270   15.1290 C   0  0  0  0  0  0  0  0  0  0  0  0
   51.5433   16.5381   15.0639 C   0  0  0  0  0  0  0  0  0  0  0  0
   47.9785    7.3159   12.5910 C   0  0  0  0  0  0  0  0  0  0  0  0
   46.7728    7.2639   13.5294 C   0  0  0  0  0  0  0  0  0  0  0  0
   49.1506   16.5528   15.5631 C   0  0  0  0  0  0  0  0  0  0  0  0
   50.4042   17.2011   15.5310 C   0  0  0  0  0  0  0  0  0  0  0  0
   53.2927   14.5489   13.9462 H   0  0  0  0  0  0  0  0  0  0  0  0
   48.3807   12.6394   14.4306 H   0  0  0  0  0  0  0  0  0  0  0  0
   50.6079   10.9274   15.0153 H   0  0  0  0  0  0  0  0  0  0  0  0
   48.9022   10.6827   15.2813 H   0  0  0  0  0  0  0  0  0  0  0  0
   48.5425   13.1729   12.0767 H   0  0  0  0  0  0  0  0  0  0  0  0
   49.9007   12.0945   11.8416 H   0  0  0  0  0  0  0  0  0  0  0  0
   48.0242   10.9580   10.9975 H   0  0  0  0  0  0  0  0  0  0  0  0
   47.0014   11.3676   12.3678 H   0  0  0  0  0  0  0  0  0  0  0  0
   50.4456    9.9392   12.7367 H   0  0  0  0  0  0  0  0  0  0  0  0
   49.7951    8.8720   13.9773 H   0  0  0  0  0  0  0  0  0  0  0  0
   46.6494    4.6047   13.0309 H   0  0  0  0  0  0  0  0  0  0  0  0
   43.0273    6.6243   11.7727 H   0  0  0  0  0  0  0  0  0  0  0  0
   42.0192    4.4202   11.2318 H   0  0  0  0  0  0  0  0  0  0  0  0
   45.6043    2.4397   12.4889 H   0  0  0  0  0  0  0  0  0  0  0  0
   48.9816    8.6011   11.1668 H   0  0  0  0  0  0  0  0  0  0  0  0
   47.2408    8.8164   11.2584 H   0  0  0  0  0  0  0  0  0  0  0  0
   48.0395   14.7428   15.1569 H   0  0  0  0  0  0  0  0  0  0  0  0
   52.5074   17.0316   15.0293 H   0  0  0  0  0  0  0  0  0  0  0  0
   48.8848    7.0836   13.1613 H   0  0  0  0  0  0  0  0  0  0  0  0
   47.8931    6.5310   11.8287 H   0  0  0  0  0  0  0  0  0  0  0  0
   46.7109    8.1556   14.1635 H   0  0  0  0  0  0  0  0  0  0  0  0
   46.8698    6.4276   14.2298 H   0  0  0  0  0  0  0  0  0  0  0  0
   48.2786   17.0942   15.9269 H   0  0  0  0  0  0  0  0  0  0  0  0
   50.4787   18.2333   15.8686 H   0  0  0  0  0  0  0  0  0  0  0  0
  2  1  1  0
  3  1  1  0
  4  2  1  0
  5  3  1  0
  6  2  1  0
  7 14  1  0
  8  1  2  0
  9  6  1  0
 10  6  1  0
 11 26  1  0
 12 11  1  0
 13 11  2  0
 14 10  1  0
 15  9  1  0
 16 12  2  0
 17 12  1  0
 18 19  1  0
 19 17  2  0
 20 16  1  0
 21 18  1  0
 22  7  1  0
 23  4  2  0
 24  5  2  0
 25 22  1  0
 26 25  1  0
 27 23  1  0
 28 24  1  0
  5  4  1  0
 28 27  2  0
 15  7  1  0
 20 18  2  0
  3 29  1  0
  6 30  1  0
  9 31  1  0
  9 32  1  0
 10 33  1  0
 10 34  1  0
 14 35  1  0
 14 36  1  0
 15 37  1  0
 15 38  1  0
 16 39  1  0
 17 40  1  0
 19 41  1  0
 20 42  1  0
 22 43  1  0
 22 44  1  0
 23 45  1  0
 24 46  1  0
 25 47  1  0
 25 48  1  0
 26 49  1  0
 26 50  1  0
 27 51  1  0
 28 52  1  0
M  END
> <Uni-Dock RESULT> 
ENERGY=   -3.883  LOWER_BOUND=    7.406  UPPER_BOUND=    9.693
INTER + INTRA:          -3.883
INTER:                  -3.883
INTRA:                   0.000
UNBOUND:                 0.000

$$$$

     RDKit          3D

 52 55  0  0  0  0  0  0  0  0999 V2000
   48.3360   12.5205   16.6451 C   0  0  0  0  0  0  0  0  0  0  0  0
   48.6080   11.1321   16.6731 N   0  0  0  0  0  0  0  0  0  0  0  0
   47.6587   12.8207   17.8359 N   0  0  0  0  0  0  0  0  0  0  0  0
   48.0531   10.5964   17.8504 C   0  0  0  0  0  0  0  0  0  0  0  0
   47.4776   11.6504   18.5632 C   0  0  0  0  0  0  0  0  0  0  0  0
   49.2058   10.3682   15.5871 C   0  0  0  0  0  0  0  0  0  0  0  0
   50.2509   10.1219   12.8834 N   0  0  0  0  0  0  0  0  0  0  0  0
   48.6136   13.3247   15.7701 O   0  0  0  0  0  0  0  0  0  0  0  0
   50.5690   10.9412   15.1628 C   0  0  0  0  0  0  0  0  0  0  0  0
   48.2362   10.2636   14.4071 C   0  0  0  0  0  0  0  0  0  0  0  0
   52.3505    7.9527   10.4046 C   0  0  0  0  0  0  0  0  0  0  0  0
   53.1365    7.7481    9.1463 C   0  0  0  0  0  0  0  0  0  0  0  0
   51.4180    7.1894   10.6555 O   0  0  0  0  0  0  0  0  0  0  0  0
   48.8932    9.6348   13.1784 C   0  0  0  0  0  0  0  0  0  0  0  0
   50.6204   11.2961   13.6773 C   0  0  0  0  0  0  0  0  0  0  0  0
   54.0606    8.6876    8.6649 C   0  0  0  0  0  0  0  0  0  0  0  0
   52.9228    6.5632    8.4209 C   0  0  0  0  0  0  0  0  0  0  0  0
   54.5431    7.2557    6.7817 C   0  0  0  0  0  0  0  0  0  0  0  0
   53.6277    6.3168    7.2396 C   0  0  0  0  0  0  0  0  0  0  0  0
   54.7651    8.4368    7.4820 C   0  0  0  0  0  0  0  0  0  0  0  0
   55.2233    7.0203    5.6523 F   0  0  0  0  0  0  0  0  0  0  0  0
   50.4419   10.3083   11.4379 C   0  0  0  0  0  0  0  0  0  0  0  0
   48.0015    9.3031   18.3288 C   0  0  0  0  0  0  0  0  0  0  0  0
   46.8351   11.4746   19.7697 C   0  0  0  0  0  0  0  0  0  0  0  0
   51.9163   10.3634   11.0051 C   0  0  0  0  0  0  0  0  0  0  0  0
   52.7008    9.0949   11.3404 C   0  0  0  0  0  0  0  0  0  0  0  0
   47.3537    9.0957   19.5552 C   0  0  0  0  0  0  0  0  0  0  0  0
   46.7771   10.1693   20.2677 C   0  0  0  0  0  0  0  0  0  0  0  0
   47.3331   13.7424   18.0739 H   0  0  0  0  0  0  0  0  0  0  0  0
   49.3960    9.3529   15.9561 H   0  0  0  0  0  0  0  0  0  0  0  0
   50.8537   11.8166   15.7583 H   0  0  0  0  0  0  0  0  0  0  0  0
   51.3415   10.1879   15.3714 H   0  0  0  0  0  0  0  0  0  0  0  0
   47.3565    9.6754   14.6959 H   0  0  0  0  0  0  0  0  0  0  0  0
   47.8555   11.2567   14.1360 H   0  0  0  0  0  0  0  0  0  0  0  0
   48.2116    9.7940   12.3307 H   0  0  0  0  0  0  0  0  0  0  0  0
   48.9574    8.5483   13.3226 H   0  0  0  0  0  0  0  0  0  0  0  0
   49.9713   12.1529   13.4554 H   0  0  0  0  0  0  0  0  0  0  0  0
   51.6465   11.6099   13.4580 H   0  0  0  0  0  0  0  0  0  0  0  0
   54.2485    9.6239    9.1817 H   0  0  0  0  0  0  0  0  0  0  0  0
   52.2052    5.8236    8.7758 H   0  0  0  0  0  0  0  0  0  0  0  0
   53.4664    5.4008    6.6789 H   0  0  0  0  0  0  0  0  0  0  0  0
   55.4839    9.1568    7.1011 H   0  0  0  0  0  0  0  0  0  0  0  0
   49.9313   11.2215   11.1040 H   0  0  0  0  0  0  0  0  0  0  0  0
   49.9731    9.4782   10.8936 H   0  0  0  0  0  0  0  0  0  0  0  0
   48.4373    8.4699   17.7917 H   0  0  0  0  0  0  0  0  0  0  0  0
   46.3884   12.3027   20.3073 H   0  0  0  0  0  0  0  0  0  0  0  0
   52.4127   11.2230   11.4689 H   0  0  0  0  0  0  0  0  0  0  0  0
   51.9459   10.5463    9.9233 H   0  0  0  0  0  0  0  0  0  0  0  0
   52.5166    8.7612   12.3680 H   0  0  0  0  0  0  0  0  0  0  0  0
   53.7777    9.2893   11.2972 H   0  0  0  0  0  0  0  0  0  0  0  0
   47.2896    8.0882   19.9634 H   0  0  0  0  0  0  0  0  0  0  0  0
   46.2754    9.9724   21.2134 H   0  0  0  0  0  0  0  0  0  0  0  0
  2  1  1  0
  3  1  1  0
  4  2  1  0
  5  3  1  0
  6  2  1  0
  7 14  1  0
  8  1  2  0
  9  6  1  0
 10  6  1  0
 11 26  1  0
 12 11  1  0
 13 11  2  0
 14 10  1  0
 15  9  1  0
 16 12  2  0
 17 12  1  0
 18 19  1  0
 19 17  2  0
 20 16  1  0
 21 18  1  0
 22  7  1  0
 23  4  2  0
 24  5  2  0
 25 22  1  0
 26 25  1  0
 27 23  1  0
 28 24  1  0
  5  4  1  0
 28 27  2  0
 15  7  1  0
 20 18  2  0
  3 29  1  0
  6 30  1  0
  9 31  1  0
  9 32  1  0
 10 33  1  0
 10 34  1  0
 14 35  1  0
 14 36  1  0
 15 37  1  0
 15 38  1  0
 16 39  1  0
 17 40  1  0
 19 41  1  0
 20 42  1  0
 22 43  1  0
 22 44  1  0
 23 45  1  0
 24 46  1  0
 25 47  1  0
 25 48  1  0
 26 49  1  0
 26 50  1  0
 27 51  1  0
 28 52  1  0
M  END
> <Uni-Dock RESULT> 
ENERGY=   -3.867  LOWER_BOUND=    7.360  UPPER_BOUND=    9.236
INTER + INTRA:          -3.867
INTER:                  -3.867
INTRA:                   0.000
UNBOUND:                 0.000

$$$$

     RDKit          3D

 52 55  0  0  0  0  0  0  0  0999 V2000
   48.0135    8.5871   17.6517 C   0  0  0  0  0  0  0  0  0  0  0  0
   48.8515    7.4982   17.3134 N   0  0  0  0  0  0  0  0  0  0  0  0
   47.4989    8.3160   18.9277 N   0  0  0  0  0  0  0  0  0  0  0  0
   48.7992    6.5583   18.3597 C   0  0  0  0  0  0  0  0  0  0  0  0
   47.9677    7.0789   19.3534 C   0  0  0  0  0  0  0  0  0  0  0  0
   49.5122    7.3102   16.0295 C   0  0  0  0  0  0  0  0  0  0  0  0
   50.0584    8.0799   13.2777 N   0  0  0  0  0  0  0  0  0  0  0  0
   47.7598    9.5775   16.9851 O   0  0  0  0  0  0  0  0  0  0  0  0
   50.4004    8.5101   15.6580 C   0  0  0  0  0  0  0  0  0  0  0  0
   48.4853    6.9982   14.9379 C   0  0  0  0  0  0  0  0  0  0  0  0
   52.3995    7.6157   10.1855 C   0  0  0  0  0  0  0  0  0  0  0  0
   52.9577    8.0323    8.8596 C   0  0  0  0  0  0  0  0  0  0  0  0
   51.9432    6.4792   10.3093 O   0  0  0  0  0  0  0  0  0  0  0  0
   49.1152    6.9814   13.5451 C   0  0  0  0  0  0  0  0  0  0  0  0
   50.0280    9.1210   14.3077 C   0  0  0  0  0  0  0  0  0  0  0  0
   53.2901    9.3614    8.5575 C   0  0  0  0  0  0  0  0  0  0  0  0
   53.1431    7.0401    7.8813 C   0  0  0  0  0  0  0  0  0  0  0  0
   53.9902    8.6892    6.3468 C   0  0  0  0  0  0  0  0  0  0  0  0
   53.6610    7.3689    6.6257 C   0  0  0  0  0  0  0  0  0  0  0  0
   53.8093    9.6865    7.2992 C   0  0  0  0  0  0  0  0  0  0  0  0
   54.4909    9.0066    5.1457 F   0  0  0  0  0  0  0  0  0  0  0  0
   49.8887    8.6003   11.9135 C   0  0  0  0  0  0  0  0  0  0  0  0
   49.3906    5.3200   18.5046 C   0  0  0  0  0  0  0  0  0  0  0  0
   47.6896    6.4066   20.5239 C   0  0  0  0  0  0  0  0  0  0  0  0
   51.0948    9.4020   11.3968 C   0  0  0  0  0  0  0  0  0  0  0  0
   52.3913    8.5935   11.3459 C   0  0  0  0  0  0  0  0  0  0  0  0
   49.1249    4.6141   19.6868 C   0  0  0  0  0  0  0  0  0  0  0  0
   48.2840    5.1512   20.6853 C   0  0  0  0  0  0  0  0  0  0  0  0
   46.8600    8.9246   19.4113 H   0  0  0  0  0  0  0  0  0  0  0  0
   50.1798    6.4446   16.1193 H   0  0  0  0  0  0  0  0  0  0  0  0
   50.3866    9.2897   16.4287 H   0  0  0  0  0  0  0  0  0  0  0  0
   51.4439    8.1681   15.6137 H   0  0  0  0  0  0  0  0  0  0  0  0
   48.0079    6.0311   15.1378 H   0  0  0  0  0  0  0  0  0  0  0  0
   47.6757    7.7393   14.9516 H   0  0  0  0  0  0  0  0  0  0  0  0
   48.2908    6.9680   12.8180 H   0  0  0  0  0  0  0  0  0  0  0  0
   49.6611    6.0385   13.4099 H   0  0  0  0  0  0  0  0  0  0  0  0
   49.0475    9.6118   14.3555 H   0  0  0  0  0  0  0  0  0  0  0  0
   50.7646    9.9031   14.0955 H   0  0  0  0  0  0  0  0  0  0  0  0
   53.1504   10.1647    9.2746 H   0  0  0  0  0  0  0  0  0  0  0  0
   52.8858    6.0029    8.0951 H   0  0  0  0  0  0  0  0  0  0  0  0
   53.8078    6.6038    5.8691 H   0  0  0  0  0  0  0  0  0  0  0  0
   54.0713   10.7122    7.0553 H   0  0  0  0  0  0  0  0  0  0  0  0
   48.9869    9.2244   11.8566 H   0  0  0  0  0  0  0  0  0  0  0  0
   49.7293    7.7664   11.2175 H   0  0  0  0  0  0  0  0  0  0  0  0
   50.0357    4.8947   17.7458 H   0  0  0  0  0  0  0  0  0  0  0  0
   47.0370    6.8223   21.2827 H   0  0  0  0  0  0  0  0  0  0  0  0
   51.2517   10.2892   12.0203 H   0  0  0  0  0  0  0  0  0  0  0  0
   50.8489    9.7775   10.3953 H   0  0  0  0  0  0  0  0  0  0  0  0
   52.5547    8.0265   12.2695 H   0  0  0  0  0  0  0  0  0  0  0  0
   53.2554    9.2621   11.2704 H   0  0  0  0  0  0  0  0  0  0  0  0
   49.5708    3.6318   19.8358 H   0  0  0  0  0  0  0  0  0  0  0  0
   48.0928    4.5736   21.5879 H   0  0  0  0  0  0  0  0  0  0  0  0
  2  1  1  0
  3  1  1  0
  4  2  1  0
  5  3  1  0
  6  2  1  0
  7 14  1  0
  8  1  2  0
  9  6  1  0
 10  6  1  0
 11 26  1  0
 12 11  1  0
 13 11  2  0
 14 10  1  0
 15  9  1  0
 16 12  2  0
 17 12  1  0
 18 19  1  0
 19 17  2  0
 20 16  1  0
 21 18  1  0
 22  7  1  0
 23  4  2  0
 24  5  2  0
 25 22  1  0
 26 25  1  0
 27 23  1  0
 28 24  1  0
  5  4  1  0
 28 27  2  0
 15  7  1  0
 20 18  2  0
  3 29  1  0
  6 30  1  0
  9 31  1  0
  9 32  1  0
 10 33  1  0
 10 34  1  0
 14 35  1  0
 14 36  1  0
 15 37  1  0
 15 38  1  0
 16 39  1  0
 17 40  1  0
 19 41  1  0
 20 42  1  0
 22 43  1  0
 22 44  1  0
 23 45  1  0
 24 46  1  0
 25 47  1  0
 25 48  1  0
 26 49  1  0
 26 50  1  0
 27 51  1  0
 28 52  1  0
M  END
> <Uni-Dock RESULT> 
ENERGY=   -3.843  LOWER_BOUND=    5.414  UPPER_BOUND=    7.319
INTER + INTRA:          -3.843
INTER:                  -3.843
INTRA:                   0.000
UNBOUND:                 0.000

$$$$

     RDKit          3D

 52 55  0  0  0  0  0  0  0  0999 V2000
   45.2426    8.4254   11.9481 C   0  0  0  0  0  0  0  0  0  0  0  0
   45.8777    7.3534   12.6189 N   0  0  0  0  0  0  0  0  0  0  0  0
   44.0114    7.9371   11.4871 N   0  0  0  0  0  0  0  0  0  0  0  0
   45.0533    6.2173   12.5166 C   0  0  0  0  0  0  0  0  0  0  0  0
   43.9009    6.5932   11.8232 C   0  0  0  0  0  0  0  0  0  0  0  0
   47.2268    7.3825   13.1661 C   0  0  0  0  0  0  0  0  0  0  0  0
   49.7916    8.6760   13.6255 N   0  0  0  0  0  0  0  0  0  0  0  0
   45.6591    9.5600   11.7784 O   0  0  0  0  0  0  0  0  0  0  0  0
   47.4151    8.5309   14.1723 C   0  0  0  0  0  0  0  0  0  0  0  0
   48.2621    7.4325   12.0397 C   0  0  0  0  0  0  0  0  0  0  0  0
   53.1109    8.6536   15.6845 C   0  0  0  0  0  0  0  0  0  0  0  0
   54.3638    9.2891   16.2037 C   0  0  0  0  0  0  0  0  0  0  0  0
   53.1893    7.5743   15.0979 O   0  0  0  0  0  0  0  0  0  0  0  0
   49.6781    7.6549   12.5710 C   0  0  0  0  0  0  0  0  0  0  0  0
   48.5665    9.4613   13.7930 C   0  0  0  0  0  0  0  0  0  0  0  0
   54.4071   10.6079   16.6804 C   0  0  0  0  0  0  0  0  0  0  0  0
   55.5424    8.5230   16.1991 C   0  0  0  0  0  0  0  0  0  0  0  0
   56.7640   10.3678   17.1458 C   0  0  0  0  0  0  0  0  0  0  0  0
   56.7418    9.0623   16.6719 C   0  0  0  0  0  0  0  0  0  0  0  0
   55.6100   11.1441   17.1538 C   0  0  0  0  0  0  0  0  0  0  0  0
   57.9111   10.8858   17.6036 F   0  0  0  0  0  0  0  0  0  0  0  0
   50.9940    9.4998   13.4347 C   0  0  0  0  0  0  0  0  0  0  0  0
   45.2274    4.9208   12.9556 C   0  0  0  0  0  0  0  0  0  0  0  0
   42.8787    5.7136   11.5391 C   0  0  0  0  0  0  0  0  0  0  0  0
   51.4366   10.2597   14.6960 C   0  0  0  0  0  0  0  0  0  0  0  0
   51.7742    9.3463   15.8745 C   0  0  0  0  0  0  0  0  0  0  0  0
   44.2020    4.0046   12.6803 C   0  0  0  0  0  0  0  0  0  0  0  0
   43.0406    4.3965   11.9801 C   0  0  0  0  0  0  0  0  0  0  0  0
   43.3544    8.4899   10.9625 H   0  0  0  0  0  0  0  0  0  0  0  0
   47.3826    6.4510   13.7240 H   0  0  0  0  0  0  0  0  0  0  0  0
   46.4991    9.1181   14.3065 H   0  0  0  0  0  0  0  0  0  0  0  0
   47.6249    8.0958   15.1594 H   0  0  0  0  0  0  0  0  0  0  0  0
   48.2288    6.5029   11.4583 H   0  0  0  0  0  0  0  0  0  0  0  0
   48.0190    8.2358   11.3323 H   0  0  0  0  0  0  0  0  0  0  0  0
   50.3140    7.8919   11.7061 H   0  0  0  0  0  0  0  0  0  0  0  0
   50.0584    6.7114   12.9840 H   0  0  0  0  0  0  0  0  0  0  0  0
   48.3275   10.0332   12.8872 H   0  0  0  0  0  0  0  0  0  0  0  0
   48.6744   10.1862   14.6069 H   0  0  0  0  0  0  0  0  0  0  0  0
   53.5268   11.2435   16.6895 H   0  0  0  0  0  0  0  0  0  0  0  0
   55.5301    7.4984   15.8278 H   0  0  0  0  0  0  0  0  0  0  0  0
   57.6531    8.4716   16.6720 H   0  0  0  0  0  0  0  0  0  0  0  0
   55.6543   12.1636   17.5264 H   0  0  0  0  0  0  0  0  0  0  0  0
   50.8359   10.2154   12.6168 H   0  0  0  0  0  0  0  0  0  0  0  0
   51.8331    8.8624   13.1269 H   0  0  0  0  0  0  0  0  0  0  0  0
   46.1141    4.6057   13.4917 H   0  0  0  0  0  0  0  0  0  0  0  0
   41.9934    6.0201   10.9945 H   0  0  0  0  0  0  0  0  0  0  0  0
   50.6565   10.9651   15.0034 H   0  0  0  0  0  0  0  0  0  0  0  0
   52.3097   10.8714   14.4350 H   0  0  0  0  0  0  0  0  0  0  0  0
   51.0100    8.5752   16.0247 H   0  0  0  0  0  0  0  0  0  0  0  0
   51.7847    9.9170   16.8092 H   0  0  0  0  0  0  0  0  0  0  0  0
   44.3049    2.9712   13.0079 H   0  0  0  0  0  0  0  0  0  0  0  0
   42.2669    3.6584   11.7766 H   0  0  0  0  0  0  0  0  0  0  0  0
  2  1  1  0
  3  1  1  0
  4  2  1  0
  5  3  1  0
  6  2  1  0
  7 14  1  0
  8  1  2  0
  9  6  1  0
 10  6  1  0
 11 26  1  0
 12 11  1  0
 13 11  2  0
 14 10  1  0
 15  9  1  0
 16 12  2  0
 17 12  1  0
 18 19  1  0
 19 17  2  0
 20 16  1  0
 21 18  1  0
 22  7  1  0
 23  4  2  0
 24  5  2  0
 25 22  1  0
 26 25  1  0
 27 23  1  0
 28 24  1  0
  5  4  1  0
 28 27  2  0
 15  7  1  0
 20 18  2  0
  3 29  1  0
  6 30  1  0
  9 31  1  0
  9 32  1  0
 10 33  1  0
 10 34  1  0
 14 35  1  0
 14 36  1  0
 15 37  1  0
 15 38  1  0
 16 39  1  0
 17 40  1  0
 19 41  1  0
 20 42  1  0
 22 43  1  0
 22 44  1  0
 23 45  1  0
 24 46  1  0
 25 47  1  0
 25 48  1  0
 26 49  1  0
 26 50  1  0
 27 51  1  0
 28 52  1  0
M  END
> <Uni-Dock RESULT> 
ENERGY=   -3.698  LOWER_BOUND=    6.123  UPPER_BOUND=   10.451
INTER + INTRA:          -3.698
INTER:                  -3.698
INTRA:                   0.000
UNBOUND:                 0.000

$$$$
