
     RDKit          3D

 52 55  0  0  0  0  0  0  0  0999 V2000
   53.2133    2.6882   18.6799 C   0  0  0  0  0  0  0  0  0  0  0  0
   52.8355    3.9719   19.1366 N   0  0  0  0  0  0  0  0  0  0  0  0
   54.5197    2.4654   19.1386 N   0  0  0  0  0  0  0  0  0  0  0  0
   53.9357    4.5382   19.8083 C   0  0  0  0  0  0  0  0  0  0  0  0
   54.9621    3.5937   19.8139 C   0  0  0  0  0  0  0  0  0  0  0  0
   51.6153    4.6870   18.7900 C   0  0  0  0  0  0  0  0  0  0  0  0
   49.4162    4.6192   16.7483 N   0  0  0  0  0  0  0  0  0  0  0  0
   52.5653    1.8992   18.0137 O   0  0  0  0  0  0  0  0  0  0  0  0
   50.3375    3.8426   18.9520 C   0  0  0  0  0  0  0  0  0  0  0  0
   51.7139    5.3131   17.3936 C   0  0  0  0  0  0  0  0  0  0  0  0
   46.9622    5.3886   13.7739 C   0  0  0  0  0  0  0  0  0  0  0  0
   45.6020    5.4368   13.1522 C   0  0  0  0  0  0  0  0  0  0  0  0
   47.6751    6.3906   13.7229 O   0  0  0  0  0  0  0  0  0  0  0  0
   50.3297    5.7531   16.9280 C   0  0  0  0  0  0  0  0  0  0  0  0
   49.7146    3.4652   17.6078 C   0  0  0  0  0  0  0  0  0  0  0  0
   45.2930    6.5295   12.3246 C   0  0  0  0  0  0  0  0  0  0  0  0
   44.6309    4.4498   13.3732 C   0  0  0  0  0  0  0  0  0  0  0  0
   43.0904    5.6399   11.9476 C   0  0  0  0  0  0  0  0  0  0  0  0
   43.3750    4.5535   12.7668 C   0  0  0  0  0  0  0  0  0  0  0  0
   44.0376    6.6297   11.7211 C   0  0  0  0  0  0  0  0  0  0  0  0
   41.8854    5.7335   11.3716 F   0  0  0  0  0  0  0  0  0  0  0  0
   48.0140    5.0463   16.7829 C   0  0  0  0  0  0  0  0  0  0  0  0
   54.1077    5.7784   20.3866 C   0  0  0  0  0  0  0  0  0  0  0  0
   56.1881    3.8275   20.3937 C   0  0  0  0  0  0  0  0  0  0  0  0
   47.1017    4.1280   15.9547 C   0  0  0  0  0  0  0  0  0  0  0  0
   47.4358    4.1221   14.4624 C   0  0  0  0  0  0  0  0  0  0  0  0
   55.3463    6.0431   20.9846 C   0  0  0  0  0  0  0  0  0  0  0  0
   56.3747    5.0775   20.9895 C   0  0  0  0  0  0  0  0  0  0  0  0
   55.0404    1.6268   18.9445 H   0  0  0  0  0  0  0  0  0  0  0  0
   51.5145    5.5027   19.5171 H   0  0  0  0  0  0  0  0  0  0  0  0
   50.5224    2.9427   19.5501 H   0  0  0  0  0  0  0  0  0  0  0  0
   49.5995    4.4288   19.5166 H   0  0  0  0  0  0  0  0  0  0  0  0
   52.1464    4.6079   16.6718 H   0  0  0  0  0  0  0  0  0  0  0  0
   52.3915    6.1750   17.4223 H   0  0  0  0  0  0  0  0  0  0  0  0
   49.9291    6.4655   17.6620 H   0  0  0  0  0  0  0  0  0  0  0  0
   50.4203    6.2878   15.9755 H   0  0  0  0  0  0  0  0  0  0  0  0
   50.4026    2.8149   17.0565 H   0  0  0  0  0  0  0  0  0  0  0  0
   48.8244    2.8520   17.7875 H   0  0  0  0  0  0  0  0  0  0  0  0
   46.0336    7.3080   12.1443 H   0  0  0  0  0  0  0  0  0  0  0  0
   44.8178    3.5963   14.0174 H   0  0  0  0  0  0  0  0  0  0  0  0
   42.6162    3.7942   12.9300 H   0  0  0  0  0  0  0  0  0  0  0  0
   43.7963    7.4719   11.0805 H   0  0  0  0  0  0  0  0  0  0  0  0
   47.9150    6.0632   16.3835 H   0  0  0  0  0  0  0  0  0  0  0  0
   47.6538    5.0917   17.8184 H   0  0  0  0  0  0  0  0  0  0  0  0
   53.3284    6.5300   20.3879 H   0  0  0  0  0  0  0  0  0  0  0  0
   56.9762    3.0847   20.3875 H   0  0  0  0  0  0  0  0  0  0  0  0
   47.1599    3.1007   16.3312 H   0  0  0  0  0  0  0  0  0  0  0  0
   46.0645    4.4509   16.1050 H   0  0  0  0  0  0  0  0  0  0  0  0
   46.9897    3.2497   13.9745 H   0  0  0  0  0  0  0  0  0  0  0  0
   48.5128    4.0217   14.2852 H   0  0  0  0  0  0  0  0  0  0  0  0
   55.5214    7.0102   21.4514 H   0  0  0  0  0  0  0  0  0  0  0  0
   57.3267    5.3133   21.4609 H   0  0  0  0  0  0  0  0  0  0  0  0
  2  1  1  0
  3  1  1  0
  4  2  1  0
  5  3  1  0
  6  2  1  0
  7 14  1  0
  8  1  2  0
  9  6  1  0
 10  6  1  0
 11 26  1  0
 12 11  1  0
 13 11  2  0
 14 10  1  0
 15  9  1  0
 16 12  2  0
 17 12  1  0
 18 19  1  0
 19 17  2  0
 20 16  1  0
 21 18  1  0
 22  7  1  0
 23  4  2  0
 24  5  2  0
 25 22  1  0
 26 25  1  0
 27 23  1  0
 28 24  1  0
  5  4  1  0
 28 27  2  0
 15  7  1  0
 20 18  2  0
  3 29  1  0
  6 30  1  0
  9 31  1  0
  9 32  1  0
 10 33  1  0
 10 34  1  0
 14 35  1  0
 14 36  1  0
 15 37  1  0
 15 38  1  0
 16 39  1  0
 17 40  1  0
 19 41  1  0
 20 42  1  0
 22 43  1  0
 22 44  1  0
 23 45  1  0
 24 46  1  0
 25 47  1  0
 25 48  1  0
 26 49  1  0
 26 50  1  0
 27 51  1  0
 28 52  1  0
M  END
> <Uni-Dock RESULT> 
ENERGY=   -4.360  LOWER_BOUND=    0.000  UPPER_BOUND=    0.000
INTER + INTRA:          -4.360
INTER:                  -4.360
INTRA:                   0.000
UNBOUND:                 0.000

$$$$

     RDKit          3D

 52 55  0  0  0  0  0  0  0  0999 V2000
   48.8777   12.9938   16.1480 C   0  0  0  0  0  0  0  0  0  0  0  0
   49.6127   11.8802   16.6156 N   0  0  0  0  0  0  0  0  0  0  0  0
   49.0660   14.0224   17.0826 N   0  0  0  0  0  0  0  0  0  0  0  0
   50.1827   12.2225   17.8568 C   0  0  0  0  0  0  0  0  0  0  0  0
   49.8489   13.5499   18.1258 C   0  0  0  0  0  0  0  0  0  0  0  0
   49.6068   10.5405   16.0449 C   0  0  0  0  0  0  0  0  0  0  0  0
   47.9797    8.8501   14.1730 N   0  0  0  0  0  0  0  0  0  0  0  0
   48.1983   13.0849   15.1399 O   0  0  0  0  0  0  0  0  0  0  0  0
   49.8252   10.5179   14.5205 C   0  0  0  0  0  0  0  0  0  0  0  0
   48.3481    9.7660   16.4540 C   0  0  0  0  0  0  0  0  0  0  0  0
   45.6400    6.1305   12.5636 C   0  0  0  0  0  0  0  0  0  0  0  0
   45.2714    5.1693   11.4777 C   0  0  0  0  0  0  0  0  0  0  0  0
   45.6512    5.7352   13.7291 O   0  0  0  0  0  0  0  0  0  0  0  0
   48.2050    8.5208   15.5849 C   0  0  0  0  0  0  0  0  0  0  0  0
   48.5576   10.1353   13.7563 C   0  0  0  0  0  0  0  0  0  0  0  0
   44.7153    3.9339   11.8506 C   0  0  0  0  0  0  0  0  0  0  0  0
   45.4706    5.4473   10.1179 C   0  0  0  0  0  0  0  0  0  0  0  0
   44.5564    3.2908    9.5384 C   0  0  0  0  0  0  0  0  0  0  0  0
   45.1095    4.5054    9.1493 C   0  0  0  0  0  0  0  0  0  0  0  0
   44.3563    2.9957   10.8804 C   0  0  0  0  0  0  0  0  0  0  0  0
   44.2145    2.3931    8.6058 F   0  0  0  0  0  0  0  0  0  0  0  0
   48.3224    7.7259   13.2964 C   0  0  0  0  0  0  0  0  0  0  0  0
   50.9365   11.4848   18.7454 C   0  0  0  0  0  0  0  0  0  0  0  0
   50.2496   14.2029   19.2691 C   0  0  0  0  0  0  0  0  0  0  0  0
   47.5065    7.7293   11.9940 C   0  0  0  0  0  0  0  0  0  0  0  0
   46.0027    7.5624   12.2165 C   0  0  0  0  0  0  0  0  0  0  0  0
   51.3581   12.1252   19.9175 C   0  0  0  0  0  0  0  0  0  0  0  0
   51.0197   13.4702   20.1757 C   0  0  0  0  0  0  0  0  0  0  0  0
   48.6414   14.9308   17.0008 H   0  0  0  0  0  0  0  0  0  0  0  0
   50.4745   10.0178   16.4670 H   0  0  0  0  0  0  0  0  0  0  0  0
   50.2138   11.4755   14.1549 H   0  0  0  0  0  0  0  0  0  0  0  0
   50.6000    9.7743   14.2886 H   0  0  0  0  0  0  0  0  0  0  0  0
   47.4504   10.3916   16.3647 H   0  0  0  0  0  0  0  0  0  0  0  0
   48.4175    9.4801   17.5104 H   0  0  0  0  0  0  0  0  0  0  0  0
   49.1106    7.9106   15.7045 H   0  0  0  0  0  0  0  0  0  0  0  0
   47.3617    7.9211   15.9464 H   0  0  0  0  0  0  0  0  0  0  0  0
   47.7925   10.9042   13.9103 H   0  0  0  0  0  0  0  0  0  0  0  0
   48.7700   10.1554   12.6814 H   0  0  0  0  0  0  0  0  0  0  0  0
   44.5566    3.6987   12.9025 H   0  0  0  0  0  0  0  0  0  0  0  0
   45.9118    6.3807    9.7826 H   0  0  0  0  0  0  0  0  0  0  0  0
   45.2581    4.7109    8.0935 H   0  0  0  0  0  0  0  0  0  0  0  0
   43.9256    2.0411   11.1652 H   0  0  0  0  0  0  0  0  0  0  0  0
   48.1332    6.7732   13.8061 H   0  0  0  0  0  0  0  0  0  0  0  0
   49.3945    7.7362   13.0629 H   0  0  0  0  0  0  0  0  0  0  0  0
   51.2015   10.4513   18.5617 H   0  0  0  0  0  0  0  0  0  0  0  0
   49.9800   15.2334   19.4649 H   0  0  0  0  0  0  0  0  0  0  0  0
   47.6784    8.6614   11.4446 H   0  0  0  0  0  0  0  0  0  0  0  0
   47.8821    6.9224   11.3533 H   0  0  0  0  0  0  0  0  0  0  0  0
   45.4478    7.8769   11.3270 H   0  0  0  0  0  0  0  0  0  0  0  0
   45.6342    8.2103   13.0201 H   0  0  0  0  0  0  0  0  0  0  0  0
   51.9546   11.5771   20.6440 H   0  0  0  0  0  0  0  0  0  0  0  0
   51.3609   13.9397   21.0961 H   0  0  0  0  0  0  0  0  0  0  0  0
  2  1  1  0
  3  1  1  0
  4  2  1  0
  5  3  1  0
  6  2  1  0
  7 14  1  0
  8  1  2  0
  9  6  1  0
 10  6  1  0
 11 26  1  0
 12 11  1  0
 13 11  2  0
 14 10  1  0
 15  9  1  0
 16 12  2  0
 17 12  1  0
 18 19  1  0
 19 17  2  0
 20 16  1  0
 21 18  1  0
 22  7  1  0
 23  4  2  0
 24  5  2  0
 25 22  1  0
 26 25  1  0
 27 23  1  0
 28 24  1  0
  5  4  1  0
 28 27  2  0
 15  7  1  0
 20 18  2  0
  3 29  1  0
  6 30  1  0
  9 31  1  0
  9 32  1  0
 10 33  1  0
 10 34  1  0
 14 35  1  0
 14 36  1  0
 15 37  1  0
 15 38  1  0
 16 39  1  0
 17 40  1  0
 19 41  1  0
 20 42  1  0
 22 43  1  0
 22 44  1  0
 23 45  1  0
 24 46  1  0
 25 47  1  0
 25 48  1  0
 26 49  1  0
 26 50  1  0
 27 51  1  0
 28 52  1  0
M  END
> <Uni-Dock RESULT> 
ENERGY=   -4.295  LOWER_BOUND=    5.960  UPPER_BOUND=    7.291
INTER + INTRA:          -4.295
INTER:                  -4.295
INTRA:                   0.000
UNBOUND:                 0.000

$$$$

     RDKit          3D

 52 55  0  0  0  0  0  0  0  0999 V2000
   46.8353    5.4117   13.7385 C   0  0  0  0  0  0  0  0  0  0  0  0
   46.5030    6.0255   12.5089 N   0  0  0  0  0  0  0  0  0  0  0  0
   46.1357    4.1972   13.7849 N   0  0  0  0  0  0  0  0  0  0  0  0
   45.5584    5.2113   11.8551 C   0  0  0  0  0  0  0  0  0  0  0  0
   45.3515    4.0814   12.6464 C   0  0  0  0  0  0  0  0  0  0  0  0
   46.8831    7.3647   12.0818 C   0  0  0  0  0  0  0  0  0  0  0  0
   47.9262    9.9322   13.2349 N   0  0  0  0  0  0  0  0  0  0  0  0
   47.5757    5.8228   14.6155 O   0  0  0  0  0  0  0  0  0  0  0  0
   48.3837    7.6653   12.2549 C   0  0  0  0  0  0  0  0  0  0  0  0
   46.0056    8.4319   12.7471 C   0  0  0  0  0  0  0  0  0  0  0  0
   48.3753   13.6263   14.5049 C   0  0  0  0  0  0  0  0  0  0  0  0
   49.1671   14.8836   14.6812 C   0  0  0  0  0  0  0  0  0  0  0  0
   47.2375   13.7001   14.0413 O   0  0  0  0  0  0  0  0  0  0  0  0
   46.6331    9.8085   12.5528 C   0  0  0  0  0  0  0  0  0  0  0  0
   48.6515    8.6627   13.3822 C   0  0  0  0  0  0  0  0  0  0  0  0
   48.4957   16.1106   14.5469 C   0  0  0  0  0  0  0  0  0  0  0  0
   50.5414   14.8826   14.9591 C   0  0  0  0  0  0  0  0  0  0  0  0
   50.5444   17.2954   14.9763 C   0  0  0  0  0  0  0  0  0  0  0  0
   51.2276   16.0920   15.1083 C   0  0  0  0  0  0  0  0  0  0  0  0
   49.1844   17.3163   14.6963 C   0  0  0  0  0  0  0  0  0  0  0  0
   51.2079   18.4494   15.1190 F   0  0  0  0  0  0  0  0  0  0  0  0
   48.7306   11.0207   12.6712 C   0  0  0  0  0  0  0  0  0  0  0  0
   44.8796    5.3810   10.6666 C   0  0  0  0  0  0  0  0  0  0  0  0
   44.4805    3.0749   12.2967 C   0  0  0  0  0  0  0  0  0  0  0  0
   49.6937   11.6311   13.7015 C   0  0  0  0  0  0  0  0  0  0  0  0
   48.9830   12.2889   14.8851 C   0  0  0  0  0  0  0  0  0  0  0  0
   43.9867    4.3711   10.2862 C   0  0  0  0  0  0  0  0  0  0  0  0
   43.7906    3.2297   11.0916 C   0  0  0  0  0  0  0  0  0  0  0  0
   46.1812    3.5602   14.5623 H   0  0  0  0  0  0  0  0  0  0  0  0
   46.7042    7.4098   11.0001 H   0  0  0  0  0  0  0  0  0  0  0  0
   48.9625    6.7481   12.4147 H   0  0  0  0  0  0  0  0  0  0  0  0
   48.7644    8.0983   11.3197 H   0  0  0  0  0  0  0  0  0  0  0  0
   45.8737    8.2268   13.8176 H   0  0  0  0  0  0  0  0  0  0  0  0
   45.0016    8.4118   12.3063 H   0  0  0  0  0  0  0  0  0  0  0  0
   46.7407    9.9895   11.4747 H   0  0  0  0  0  0  0  0  0  0  0  0
   45.9536   10.5752   12.9427 H   0  0  0  0  0  0  0  0  0  0  0  0
   48.3501    8.2219   14.3389 H   0  0  0  0  0  0  0  0  0  0  0  0
   49.7325    8.8205   13.4687 H   0  0  0  0  0  0  0  0  0  0  0  0
   47.4287   16.1312   14.3274 H   0  0  0  0  0  0  0  0  0  0  0  0
   51.1058   13.9603   15.0553 H   0  0  0  0  0  0  0  0  0  0  0  0
   52.2915   16.1027   15.3249 H   0  0  0  0  0  0  0  0  0  0  0  0
   48.6684   18.2656   14.5942 H   0  0  0  0  0  0  0  0  0  0  0  0
   48.0808   11.8249   12.3046 H   0  0  0  0  0  0  0  0  0  0  0  0
   49.2951   10.6669   11.7992 H   0  0  0  0  0  0  0  0  0  0  0  0
   45.0181    6.2528   10.0398 H   0  0  0  0  0  0  0  0  0  0  0  0
   44.3288    2.2047   12.9232 H   0  0  0  0  0  0  0  0  0  0  0  0
   50.3729   10.8612   14.0841 H   0  0  0  0  0  0  0  0  0  0  0  0
   50.3234   12.3667   13.1868 H   0  0  0  0  0  0  0  0  0  0  0  0
   49.6776   12.4249   15.7200 H   0  0  0  0  0  0  0  0  0  0  0  0
   48.1841   11.6545   15.2859 H   0  0  0  0  0  0  0  0  0  0  0  0
   43.4318    4.4679    9.3552 H   0  0  0  0  0  0  0  0  0  0  0  0
   43.0889    2.4629   10.7698 H   0  0  0  0  0  0  0  0  0  0  0  0
  2  1  1  0
  3  1  1  0
  4  2  1  0
  5  3  1  0
  6  2  1  0
  7 14  1  0
  8  1  2  0
  9  6  1  0
 10  6  1  0
 11 26  1  0
 12 11  1  0
 13 11  2  0
 14 10  1  0
 15  9  1  0
 16 12  2  0
 17 12  1  0
 18 19  1  0
 19 17  2  0
 20 16  1  0
 21 18  1  0
 22  7  1  0
 23  4  2  0
 24  5  2  0
 25 22  1  0
 26 25  1  0
 27 23  1  0
 28 24  1  0
  5  4  1  0
 28 27  2  0
 15  7  1  0
 20 18  2  0
  3 29  1  0
  6 30  1  0
  9 31  1  0
  9 32  1  0
 10 33  1  0
 10 34  1  0
 14 35  1  0
 14 36  1  0
 15 37  1  0
 15 38  1  0
 16 39  1  0
 17 40  1  0
 19 41  1  0
 20 42  1  0
 22 43  1  0
 22 44  1  0
 23 45  1  0
 24 46  1  0
 25 47  1  0
 25 48  1  0
 26 49  1  0
 26 50  1  0
 27 51  1  0
 28 52  1  0
M  END
> <Uni-Dock RESULT> 
ENERGY=   -4.231  LOWER_BOUND=    7.187  UPPER_BOUND=   10.867
INTER + INTRA:          -4.231
INTER:                  -4.231
INTRA:                   0.000
UNBOUND:                 0.000

$$$$

     RDKit          3D

 52 55  0  0  0  0  0  0  0  0999 V2000
   49.0069   11.8387   17.5963 C   0  0  0  0  0  0  0  0  0  0  0  0
   49.8229   10.6971   17.7693 N   0  0  0  0  0  0  0  0  0  0  0  0
   49.2278   12.6644   18.7081 N   0  0  0  0  0  0  0  0  0  0  0  0
   50.4773   10.8116   19.0108 C   0  0  0  0  0  0  0  0  0  0  0  0
   50.1119   12.0350   19.5724 C   0  0  0  0  0  0  0  0  0  0  0  0
   49.8261    9.5037   16.9350 C   0  0  0  0  0  0  0  0  0  0  0  0
   48.1236    8.1396   14.8735 N   0  0  0  0  0  0  0  0  0  0  0  0
   48.2446   12.0941   16.6799 O   0  0  0  0  0  0  0  0  0  0  0  0
   49.9206    9.8045   15.4275 C   0  0  0  0  0  0  0  0  0  0  0  0
   48.6379    8.5913   17.2628 C   0  0  0  0  0  0  0  0  0  0  0  0
   45.7753    5.6754   12.9052 C   0  0  0  0  0  0  0  0  0  0  0  0
   45.3598    4.9360   11.6725 C   0  0  0  0  0  0  0  0  0  0  0  0
   45.8975    5.0523   13.9596 O   0  0  0  0  0  0  0  0  0  0  0  0
   48.4763    7.5431   16.1668 C   0  0  0  0  0  0  0  0  0  0  0  0
   48.6120    9.5136   14.6925 C   0  0  0  0  0  0  0  0  0  0  0  0
   44.8874    3.6208   11.8196 C   0  0  0  0  0  0  0  0  0  0  0  0
   45.4360    5.4960   10.3894 C   0  0  0  0  0  0  0  0  0  0  0  0
   44.5678    3.4540    9.4415 C   0  0  0  0  0  0  0  0  0  0  0  0
   45.0367    4.7520    9.2746 C   0  0  0  0  0  0  0  0  0  0  0  0
   44.4898    2.8808   10.7039 C   0  0  0  0  0  0  0  0  0  0  0  0
   44.1887    2.7470    8.3697 F   0  0  0  0  0  0  0  0  0  0  0  0
   48.4401    7.2389   13.7607 C   0  0  0  0  0  0  0  0  0  0  0  0
   51.3307    9.9527   19.6712 C   0  0  0  0  0  0  0  0  0  0  0  0
   50.5767   12.4634   20.7948 C   0  0  0  0  0  0  0  0  0  0  0  0
   47.5216    7.4608   12.5487 C   0  0  0  0  0  0  0  0  0  0  0  0
   46.0491    7.1663   12.8379 C   0  0  0  0  0  0  0  0  0  0  0  0
   51.8193   10.3641   20.9178 C   0  0  0  0  0  0  0  0  0  0  0  0
   51.4477   11.6066   21.4727 C   0  0  0  0  0  0  0  0  0  0  0  0
   48.7608   13.5446   18.8470 H   0  0  0  0  0  0  0  0  0  0  0  0
   50.7461    8.9564   17.1768 H   0  0  0  0  0  0  0  0  0  0  0  0
   50.2383   10.8371   15.2418 H   0  0  0  0  0  0  0  0  0  0  0  0
   50.7041    9.1693   14.9919 H   0  0  0  0  0  0  0  0  0  0  0  0
   47.7108    9.1696   17.3693 H   0  0  0  0  0  0  0  0  0  0  0  0
   48.8047    8.1007   18.2293 H   0  0  0  0  0  0  0  0  0  0  0  0
   49.4131    6.9742   16.0925 H   0  0  0  0  0  0  0  0  0  0  0  0
   47.6907    6.8351   16.4549 H   0  0  0  0  0  0  0  0  0  0  0  0
   47.8308   10.1900   15.0566 H   0  0  0  0  0  0  0  0  0  0  0  0
   48.7354    9.7643   13.6329 H   0  0  0  0  0  0  0  0  0  0  0  0
   44.8246    3.1676   12.8084 H   0  0  0  0  0  0  0  0  0  0  0  0
   45.8096    6.5018   10.2246 H   0  0  0  0  0  0  0  0  0  0  0  0
   45.0904    5.1764    8.2766 H   0  0  0  0  0  0  0  0  0  0  0  0
   44.1236    1.8652   10.8144 H   0  0  0  0  0  0  0  0  0  0  0  0
   48.3325    6.1932   14.0738 H   0  0  0  0  0  0  0  0  0  0  0  0
   49.4883    7.3579   13.4589 H   0  0  0  0  0  0  0  0  0  0  0  0
   51.6224    8.9951   19.2588 H   0  0  0  0  0  0  0  0  0  0  0  0
   50.2816   13.4152   21.2188 H   0  0  0  0  0  0  0  0  0  0  0  0
   47.6096    8.4936   12.1938 H   0  0  0  0  0  0  0  0  0  0  0  0
   47.8770    6.8241   11.7295 H   0  0  0  0  0  0  0  0  0  0  0  0
   45.4112    7.6231   12.0747 H   0  0  0  0  0  0  0  0  0  0  0  0
   45.7206    7.6149   13.7825 H   0  0  0  0  0  0  0  0  0  0  0  0
   52.4951    9.7145   21.4705 H   0  0  0  0  0  0  0  0  0  0  0  0
   51.8428   11.8976   22.4439 H   0  0  0  0  0  0  0  0  0  0  0  0
  2  1  1  0
  3  1  1  0
  4  2  1  0
  5  3  1  0
  6  2  1  0
  7 14  1  0
  8  1  2  0
  9  6  1  0
 10  6  1  0
 11 26  1  0
 12 11  1  0
 13 11  2  0
 14 10  1  0
 15  9  1  0
 16 12  2  0
 17 12  1  0
 18 19  1  0
 19 17  2  0
 20 16  1  0
 21 18  1  0
 22  7  1  0
 23  4  2  0
 24  5  2  0
 25 22  1  0
 26 25  1  0
 27 23  1  0
 28 24  1  0
  5  4  1  0
 28 27  2  0
 15  7  1  0
 20 18  2  0
  3 29  1  0
  6 30  1  0
  9 31  1  0
  9 32  1  0
 10 33  1  0
 10 34  1  0
 14 35  1  0
 14 36  1  0
 15 37  1  0
 15 38  1  0
 16 39  1  0
 17 40  1  0
 19 41  1  0
 20 42  1  0
 22 43  1  0
 22 44  1  0
 23 45  1  0
 24 46  1  0
 25 47  1  0
 25 48  1  0
 26 49  1  0
 26 50  1  0
 27 51  1  0
 28 52  1  0
M  END
> <Uni-Dock RESULT> 
ENERGY=   -4.130  LOWER_BOUND=    5.059  UPPER_BOUND=    6.292
INTER + INTRA:          -4.130
INTER:                  -4.130
INTRA:                   0.000
UNBOUND:                 0.000

$$$$

     RDKit          3D

 52 55  0  0  0  0  0  0  0  0999 V2000
   48.3054    8.1973   17.7676 C   0  0  0  0  0  0  0  0  0  0  0  0
   48.1150    9.4777   17.1988 N   0  0  0  0  0  0  0  0  0  0  0  0
   47.9812    8.3080   19.1275 N   0  0  0  0  0  0  0  0  0  0  0  0
   47.7426   10.3626   18.2288 C   0  0  0  0  0  0  0  0  0  0  0  0
   47.6507    9.6255   19.4094 C   0  0  0  0  0  0  0  0  0  0  0  0
   48.4571    9.8790   15.8415 C   0  0  0  0  0  0  0  0  0  0  0  0
   50.1231    8.9500   13.5241 N   0  0  0  0  0  0  0  0  0  0  0  0
   48.6794    7.1732   17.2221 O   0  0  0  0  0  0  0  0  0  0  0  0
   47.9381    8.9107   14.7621 C   0  0  0  0  0  0  0  0  0  0  0  0
   49.9615   10.1403   15.6999 C   0  0  0  0  0  0  0  0  0  0  0  0
   52.8499    8.5445   10.7203 C   0  0  0  0  0  0  0  0  0  0  0  0
   53.2835    8.2175    9.3260 C   0  0  0  0  0  0  0  0  0  0  0  0
   53.2251    9.6014   11.2273 O   0  0  0  0  0  0  0  0  0  0  0  0
   50.3327   10.2229   14.2229 C   0  0  0  0  0  0  0  0  0  0  0  0
   49.0648    8.1126   14.1056 C   0  0  0  0  0  0  0  0  0  0  0  0
   54.2954    9.0028    8.7483 C   0  0  0  0  0  0  0  0  0  0  0  0
   52.7144    7.1767    8.5784 C   0  0  0  0  0  0  0  0  0  0  0  0
   54.1652    7.7084    6.7252 C   0  0  0  0  0  0  0  0  0  0  0  0
   53.1597    6.9231    7.2772 C   0  0  0  0  0  0  0  0  0  0  0  0
   54.7372    8.7467    7.4485 C   0  0  0  0  0  0  0  0  0  0  0  0
   54.5855    7.4610    5.4784 F   0  0  0  0  0  0  0  0  0  0  0  0
   50.0069    9.1435   12.0754 C   0  0  0  0  0  0  0  0  0  0  0  0
   47.4965   11.7195   18.2167 C   0  0  0  0  0  0  0  0  0  0  0  0
   47.3057   10.1898   20.6163 C   0  0  0  0  0  0  0  0  0  0  0  0
   50.4727    7.9130   11.2812 C   0  0  0  0  0  0  0  0  0  0  0  0
   51.9530    7.5844   11.4793 C   0  0  0  0  0  0  0  0  0  0  0  0
   47.1428   12.3198   19.4318 C   0  0  0  0  0  0  0  0  0  0  0  0
   47.0468   11.5628   20.6184 C   0  0  0  0  0  0  0  0  0  0  0  0
   48.0407    7.5413   19.7762 H   0  0  0  0  0  0  0  0  0  0  0  0
   47.9331   10.8249   15.6544 H   0  0  0  0  0  0  0  0  0  0  0  0
   47.1761    8.2319   15.1625 H   0  0  0  0  0  0  0  0  0  0  0  0
   47.4345    9.4953   13.9799 H   0  0  0  0  0  0  0  0  0  0  0  0
   50.5491    9.3540   16.1916 H   0  0  0  0  0  0  0  0  0  0  0  0
   50.2226   11.0779   16.2053 H   0  0  0  0  0  0  0  0  0  0  0  0
   49.7391   11.0242   13.7622 H   0  0  0  0  0  0  0  0  0  0  0  0
   51.3871   10.5076   14.1292 H   0  0  0  0  0  0  0  0  0  0  0  0
   49.5341    7.4621   14.8519 H   0  0  0  0  0  0  0  0  0  0  0  0
   48.6330    7.4310   13.3641 H   0  0  0  0  0  0  0  0  0  0  0  0
   54.7468    9.8182    9.3126 H   0  0  0  0  0  0  0  0  0  0  0  0
   51.9191    6.5540    8.9762 H   0  0  0  0  0  0  0  0  0  0  0  0
   52.7269    6.1189    6.6900 H   0  0  0  0  0  0  0  0  0  0  0  0
   55.5193    9.3508    6.9999 H   0  0  0  0  0  0  0  0  0  0  0  0
   50.6157    9.9977   11.7546 H   0  0  0  0  0  0  0  0  0  0  0  0
   48.9726    9.3906   11.8045 H   0  0  0  0  0  0  0  0  0  0  0  0
   47.5689   12.3134   17.3144 H   0  0  0  0  0  0  0  0  0  0  0  0
   47.2411    9.6045   21.5252 H   0  0  0  0  0  0  0  0  0  0  0  0
   49.8782    7.0367   11.5620 H   0  0  0  0  0  0  0  0  0  0  0  0
   50.2682    8.0943   10.2191 H   0  0  0  0  0  0  0  0  0  0  0  0
   52.1620    6.5577   11.1625 H   0  0  0  0  0  0  0  0  0  0  0  0
   52.2403    7.6151   12.5366 H   0  0  0  0  0  0  0  0  0  0  0  0
   46.9408   13.3885   19.4640 H   0  0  0  0  0  0  0  0  0  0  0  0
   46.7712   12.0581   21.5472 H   0  0  0  0  0  0  0  0  0  0  0  0
  2  1  1  0
  3  1  1  0
  4  2  1  0
  5  3  1  0
  6  2  1  0
  7 14  1  0
  8  1  2  0
  9  6  1  0
 10  6  1  0
 11 26  1  0
 12 11  1  0
 13 11  2  0
 14 10  1  0
 15  9  1  0
 16 12  2  0
 17 12  1  0
 18 19  1  0
 19 17  2  0
 20 16  1  0
 21 18  1  0
 22  7  1  0
 23  4  2  0
 24  5  2  0
 25 22  1  0
 26 25  1  0
 27 23  1  0
 28 24  1  0
  5  4  1  0
 28 27  2  0
 15  7  1  0
 20 18  2  0
  3 29  1  0
  6 30  1  0
  9 31  1  0
  9 32  1  0
 10 33  1  0
 10 34  1  0
 14 35  1  0
 14 36  1  0
 15 37  1  0
 15 38  1  0
 16 39  1  0
 17 40  1  0
 19 41  1  0
 20 42  1  0
 22 43  1  0
 22 44  1  0
 23 45  1  0
 24 46  1  0
 25 47  1  0
 25 48  1  0
 26 49  1  0
 26 50  1  0
 27 51  1  0
 28 52  1  0
M  END
> <Uni-Dock RESULT> 
ENERGY=   -3.991  LOWER_BOUND=    6.994  UPPER_BOUND=    8.835
INTER + INTRA:          -3.991
INTER:                  -3.991
INTRA:                   0.000
UNBOUND:                 0.000

$$$$

     RDKit          3D

 52 55  0  0  0  0  0  0  0  0999 V2000
   48.7525   12.2847   16.7864 C   0  0  0  0  0  0  0  0  0  0  0  0
   49.0100   10.9645   17.2220 N   0  0  0  0  0  0  0  0  0  0  0  0
   47.7922   12.8171   17.6588 N   0  0  0  0  0  0  0  0  0  0  0  0
   48.1585   10.6890   18.3091 C   0  0  0  0  0  0  0  0  0  0  0  0
   47.4233   11.8439   18.5761 C   0  0  0  0  0  0  0  0  0  0  0  0
   49.8364    9.9767   16.5424 C   0  0  0  0  0  0  0  0  0  0  0  0
   51.0590    9.4691   13.8486 N   0  0  0  0  0  0  0  0  0  0  0  0
   49.2425   12.8809   15.8426 O   0  0  0  0  0  0  0  0  0  0  0  0
   51.2210   10.5096   16.1289 C   0  0  0  0  0  0  0  0  0  0  0  0
   49.0907    9.3441   15.3611 C   0  0  0  0  0  0  0  0  0  0  0  0
   51.9892    8.0576   10.2985 C   0  0  0  0  0  0  0  0  0  0  0  0
   52.9711    7.6773    9.2354 C   0  0  0  0  0  0  0  0  0  0  0  0
   51.1252    7.2454   10.6280 O   0  0  0  0  0  0  0  0  0  0  0  0
   50.0752    8.5823   14.4797 C   0  0  0  0  0  0  0  0  0  0  0  0
   51.3478   10.6887   14.6159 C   0  0  0  0  0  0  0  0  0  0  0  0
   52.7162    6.5159    8.4866 C   0  0  0  0  0  0  0  0  0  0  0  0
   54.1298    8.4213    8.9710 C   0  0  0  0  0  0  0  0  0  0  0  0
   54.7399    6.8621    7.2336 C   0  0  0  0  0  0  0  0  0  0  0  0
   55.0124    8.0114    7.9665 C   0  0  0  0  0  0  0  0  0  0  0  0
   53.6001    6.1097    7.4845 C   0  0  0  0  0  0  0  0  0  0  0  0
   55.5900    6.4747    6.2745 F   0  0  0  0  0  0  0  0  0  0  0  0
   52.2525    8.7323   13.4215 C   0  0  0  0  0  0  0  0  0  0  0  0
   47.9745    9.5415   19.0516 C   0  0  0  0  0  0  0  0  0  0  0  0
   46.4900   11.9177   19.5848 C   0  0  0  0  0  0  0  0  0  0  0  0
   52.9454    9.3883   12.2167 C   0  0  0  0  0  0  0  0  0  0  0  0
   52.0773    9.4213   10.9581 C   0  0  0  0  0  0  0  0  0  0  0  0
   47.0305    9.5888   20.0853 C   0  0  0  0  0  0  0  0  0  0  0  0
   46.2975   10.7647   20.3501 C   0  0  0  0  0  0  0  0  0  0  0  0
   47.4164   13.7461   17.5700 H   0  0  0  0  0  0  0  0  0  0  0  0
   50.0404    9.1843   17.2737 H   0  0  0  0  0  0  0  0  0  0  0  0
   51.4620   11.4472   16.6432 H   0  0  0  0  0  0  0  0  0  0  0  0
   51.9845    9.7884   16.4515 H   0  0  0  0  0  0  0  0  0  0  0  0
   48.5672   10.1055   14.7683 H   0  0  0  0  0  0  0  0  0  0  0  0
   48.3171    8.6626   15.7350 H   0  0  0  0  0  0  0  0  0  0  0  0
   50.5732    7.8217   15.0963 H   0  0  0  0  0  0  0  0  0  0  0  0
   49.5239    8.0515   13.6950 H   0  0  0  0  0  0  0  0  0  0  0  0
   50.6474   11.4612   14.2798 H   0  0  0  0  0  0  0  0  0  0  0  0
   52.3429   11.0864   14.3866 H   0  0  0  0  0  0  0  0  0  0  0  0
   51.8229    5.9231    8.6804 H   0  0  0  0  0  0  0  0  0  0  0  0
   54.3772    9.3158    9.5340 H   0  0  0  0  0  0  0  0  0  0  0  0
   55.9118    8.5808    7.7526 H   0  0  0  0  0  0  0  0  0  0  0  0
   53.4054    5.2138    6.9038 H   0  0  0  0  0  0  0  0  0  0  0  0
   51.9861    7.7073   13.1358 H   0  0  0  0  0  0  0  0  0  0  0  0
   52.9625    8.6397   14.2530 H   0  0  0  0  0  0  0  0  0  0  0  0
   48.5278    8.6313   18.8581 H   0  0  0  0  0  0  0  0  0  0  0  0
   45.9251   12.8212   19.7781 H   0  0  0  0  0  0  0  0  0  0  0  0
   53.2420   10.4133   12.4652 H   0  0  0  0  0  0  0  0  0  0  0  0
   53.8742    8.8406   12.0168 H   0  0  0  0  0  0  0  0  0  0  0  0
   52.4695   10.1510   10.2427 H   0  0  0  0  0  0  0  0  0  0  0  0
   51.0577    9.7607   11.1738 H   0  0  0  0  0  0  0  0  0  0  0  0
   46.8560    8.7039   20.6940 H   0  0  0  0  0  0  0  0  0  0  0  0
   45.5700   10.7699   21.1592 H   0  0  0  0  0  0  0  0  0  0  0  0
  2  1  1  0
  3  1  1  0
  4  2  1  0
  5  3  1  0
  6  2  1  0
  7 14  1  0
  8  1  2  0
  9  6  1  0
 10  6  1  0
 11 26  1  0
 12 11  1  0
 13 11  2  0
 14 10  1  0
 15  9  1  0
 16 12  2  0
 17 12  1  0
 18 19  1  0
 19 17  2  0
 20 16  1  0
 21 18  1  0
 22  7  1  0
 23  4  2  0
 24  5  2  0
 25 22  1  0
 26 25  1  0
 27 23  1  0
 28 24  1  0
  5  4  1  0
 28 27  2  0
 15  7  1  0
 20 18  2  0
  3 29  1  0
  6 30  1  0
  9 31  1  0
  9 32  1  0
 10 33  1  0
 10 34  1  0
 14 35  1  0
 14 36  1  0
 15 37  1  0
 15 38  1  0
 16 39  1  0
 17 40  1  0
 19 41  1  0
 20 42  1  0
 22 43  1  0
 22 44  1  0
 23 45  1  0
 24 46  1  0
 25 47  1  0
 25 48  1  0
 26 49  1  0
 26 50  1  0
 27 51  1  0
 28 52  1  0
M  END
> <Uni-Dock RESULT> 
ENERGY=   -3.844  LOWER_BOUND=    7.328  UPPER_BOUND=    9.457
INTER + INTRA:          -3.844
INTER:                  -3.844
INTRA:                   0.000
UNBOUND:                 0.000

$$$$

     RDKit          3D

 52 55  0  0  0  0  0  0  0  0999 V2000
   52.8012    2.1117   18.1956 C   0  0  0  0  0  0  0  0  0  0  0  0
   52.9468    3.3289   18.9001 N   0  0  0  0  0  0  0  0  0  0  0  0
   53.8321    1.2672   18.6324 N   0  0  0  0  0  0  0  0  0  0  0  0
   54.0986    3.2333   19.7044 C   0  0  0  0  0  0  0  0  0  0  0  0
   54.6264    1.9527   19.5399 C   0  0  0  0  0  0  0  0  0  0  0  0
   52.1872    4.5512   18.6781 C   0  0  0  0  0  0  0  0  0  0  0  0
   50.4111    5.8062   16.6094 N   0  0  0  0  0  0  0  0  0  0  0  0
   51.9628    1.8135   17.3623 O   0  0  0  0  0  0  0  0  0  0  0  0
   50.6638    4.3306   18.6260 C   0  0  0  0  0  0  0  0  0  0  0  0
   52.6979    5.3088   17.4464 C   0  0  0  0  0  0  0  0  0  0  0  0
   48.8629    8.0766   13.7970 C   0  0  0  0  0  0  0  0  0  0  0  0
   47.7290    8.8190   13.1630 C   0  0  0  0  0  0  0  0  0  0  0  0
   49.9309    8.6617   13.9754 O   0  0  0  0  0  0  0  0  0  0  0  0
   51.6888    6.3802   17.0463 C   0  0  0  0  0  0  0  0  0  0  0  0
   50.0980    4.5052   17.2165 C   0  0  0  0  0  0  0  0  0  0  0  0
   48.0032   10.0649   12.5739 C   0  0  0  0  0  0  0  0  0  0  0  0
   46.4154    8.3289   13.1469 C   0  0  0  0  0  0  0  0  0  0  0  0
   45.6894   10.3008   11.9608 C   0  0  0  0  0  0  0  0  0  0  0  0
   45.3968    9.0725   12.5423 C   0  0  0  0  0  0  0  0  0  0  0  0
   46.9834   10.8046   11.9714 C   0  0  0  0  0  0  0  0  0  0  0  0
   44.7092   11.0080   11.3851 F   0  0  0  0  0  0  0  0  0  0  0  0
   49.3233    6.7855   16.6951 C   0  0  0  0  0  0  0  0  0  0  0  0
   54.7073    4.1522   20.5333 C   0  0  0  0  0  0  0  0  0  0  0  0
   55.7625    1.5250   20.1883 C   0  0  0  0  0  0  0  0  0  0  0  0
   48.2111    6.5163   15.6692 C   0  0  0  0  0  0  0  0  0  0  0  0
   48.6800    6.6303   14.2180 C   0  0  0  0  0  0  0  0  0  0  0  0
   55.8656    3.7430   21.2062 C   0  0  0  0  0  0  0  0  0  0  0  0
   56.3866    2.4430   21.0368 C   0  0  0  0  0  0  0  0  0  0  0  0
   53.9716    0.3348   18.2813 H   0  0  0  0  0  0  0  0  0  0  0  0
   52.3554    5.1870   19.5566 H   0  0  0  0  0  0  0  0  0  0  0  0
   50.3848    3.3495   19.0277 H   0  0  0  0  0  0  0  0  0  0  0  0
   50.1804    5.0686   19.2808 H   0  0  0  0  0  0  0  0  0  0  0  0
   52.8742    4.6258   16.6051 H   0  0  0  0  0  0  0  0  0  0  0  0
   53.6662    5.7713   17.6726 H   0  0  0  0  0  0  0  0  0  0  0  0
   51.5427    7.0534   17.9020 H   0  0  0  0  0  0  0  0  0  0  0  0
   52.1032    6.9818   16.2292 H   0  0  0  0  0  0  0  0  0  0  0  0
   50.5080    3.7298   16.5600 H   0  0  0  0  0  0  0  0  0  0  0  0
   49.0187    4.3176   17.2403 H   0  0  0  0  0  0  0  0  0  0  0  0
   49.0172   10.4635   12.5800 H   0  0  0  0  0  0  0  0  0  0  0  0
   46.1523    7.3798   13.6033 H   0  0  0  0  0  0  0  0  0  0  0  0
   44.3765    8.7018   12.5230 H   0  0  0  0  0  0  0  0  0  0  0  0
   47.1922   11.7667   11.5147 H   0  0  0  0  0  0  0  0  0  0  0  0
   49.7060    7.7975   16.5144 H   0  0  0  0  0  0  0  0  0  0  0  0
   48.8996    6.7986   17.7072 H   0  0  0  0  0  0  0  0  0  0  0  0
   54.3204    5.1539   20.6709 H   0  0  0  0  0  0  0  0  0  0  0  0
   56.1617    0.5281   20.0481 H   0  0  0  0  0  0  0  0  0  0  0  0
   47.7900    5.5168   15.8242 H   0  0  0  0  0  0  0  0  0  0  0  0
   47.3952    7.2248   15.8559 H   0  0  0  0  0  0  0  0  0  0  0  0
   47.9681    6.1393   13.5470 H   0  0  0  0  0  0  0  0  0  0  0  0
   49.6281    6.1060   14.0526 H   0  0  0  0  0  0  0  0  0  0  0  0
   56.3755    4.4390   21.8693 H   0  0  0  0  0  0  0  0  0  0  0  0
   57.2890    2.1552   21.5723 H   0  0  0  0  0  0  0  0  0  0  0  0
  2  1  1  0
  3  1  1  0
  4  2  1  0
  5  3  1  0
  6  2  1  0
  7 14  1  0
  8  1  2  0
  9  6  1  0
 10  6  1  0
 11 26  1  0
 12 11  1  0
 13 11  2  0
 14 10  1  0
 15  9  1  0
 16 12  2  0
 17 12  1  0
 18 19  1  0
 19 17  2  0
 20 16  1  0
 21 18  1  0
 22  7  1  0
 23  4  2  0
 24  5  2  0
 25 22  1  0
 26 25  1  0
 27 23  1  0
 28 24  1  0
  5  4  1  0
 28 27  2  0
 15  7  1  0
 20 18  2  0
  3 29  1  0
  6 30  1  0
  9 31  1  0
  9 32  1  0
 10 33  1  0
 10 34  1  0
 14 35  1  0
 14 36  1  0
 15 37  1  0
 15 38  1  0
 16 39  1  0
 17 40  1  0
 19 41  1  0
 20 42  1  0
 22 43  1  0
 22 44  1  0
 23 45  1  0
 24 46  1  0
 25 47  1  0
 25 48  1  0
 26 49  1  0
 26 50  1  0
 27 51  1  0
 28 52  1  0
M  END
> <Uni-Dock RESULT> 
ENERGY=   -3.759  LOWER_BOUND=    2.499  UPPER_BOUND=    2.974
INTER + INTRA:          -3.759
INTER:                  -3.759
INTRA:                   0.000
UNBOUND:                 0.000

$$$$

     RDKit          3D

 52 55  0  0  0  0  0  0  0  0999 V2000
   47.8052   14.9184   15.1193 C   0  0  0  0  0  0  0  0  0  0  0  0
   48.8896   15.1789   15.9883 N   0  0  0  0  0  0  0  0  0  0  0  0
   47.5845   16.0935   14.3864 N   0  0  0  0  0  0  0  0  0  0  0  0
   49.2707   16.5240   15.8207 C   0  0  0  0  0  0  0  0  0  0  0  0
   48.4671   17.0717   14.8209 C   0  0  0  0  0  0  0  0  0  0  0  0
   49.3876   14.2982   17.0356 C   0  0  0  0  0  0  0  0  0  0  0  0
   48.5315   11.8897   18.6089 N   0  0  0  0  0  0  0  0  0  0  0  0
   47.1586   13.8917   15.0001 O   0  0  0  0  0  0  0  0  0  0  0  0
   49.6271   12.8517   16.5638 C   0  0  0  0  0  0  0  0  0  0  0  0
   48.4949   14.3532   18.2812 C   0  0  0  0  0  0  0  0  0  0  0  0
   47.3867    9.3961   21.4254 C   0  0  0  0  0  0  0  0  0  0  0  0
   47.4178    8.0710   22.1196 C   0  0  0  0  0  0  0  0  0  0  0  0
   47.5211   10.4209   22.0937 O   0  0  0  0  0  0  0  0  0  0  0  0
   48.8361   13.1928   19.2104 C   0  0  0  0  0  0  0  0  0  0  0  0
   48.6035   11.8740   17.1413 C   0  0  0  0  0  0  0  0  0  0  0  0
   47.3485    8.0595   23.5231 C   0  0  0  0  0  0  0  0  0  0  0  0
   47.5256    6.8550   21.4300 C   0  0  0  0  0  0  0  0  0  0  0  0
   47.4800    5.6578   23.5244 C   0  0  0  0  0  0  0  0  0  0  0  0
   47.5544    5.6483   22.1364 C   0  0  0  0  0  0  0  0  0  0  0  0
   47.3778    6.8525   24.2249 C   0  0  0  0  0  0  0  0  0  0  0  0
   47.5096    4.4990   24.1943 F   0  0  0  0  0  0  0  0  0  0  0  0
   49.2799   10.8087   19.2579 C   0  0  0  0  0  0  0  0  0  0  0  0
   50.2266   17.2845   16.4610 C   0  0  0  0  0  0  0  0  0  0  0  0
   48.5781   18.3796   14.4073 C   0  0  0  0  0  0  0  0  0  0  0  0
   48.5441    9.4615   19.1847 C   0  0  0  0  0  0  0  0  0  0  0  0
   47.2034    9.4585   19.9204 C   0  0  0  0  0  0  0  0  0  0  0  0
   50.3613   18.6196   16.0593 C   0  0  0  0  0  0  0  0  0  0  0  0
   49.5471   19.1607   15.0423 C   0  0  0  0  0  0  0  0  0  0  0  0
   46.8571   16.1897   13.6981 H   0  0  0  0  0  0  0  0  0  0  0  0
   50.3789   14.6764   17.3161 H   0  0  0  0  0  0  0  0  0  0  0  0
   49.6427   12.7821   15.4699 H   0  0  0  0  0  0  0  0  0  0  0  0
   50.6253   12.5355   16.8964 H   0  0  0  0  0  0  0  0  0  0  0  0
   47.4318   14.3170   18.0097 H   0  0  0  0  0  0  0  0  0  0  0  0
   48.6452   15.3069   18.8014 H   0  0  0  0  0  0  0  0  0  0  0  0
   49.9003   13.2629   19.4736 H   0  0  0  0  0  0  0  0  0  0  0  0
   48.2661   13.2938   20.1413 H   0  0  0  0  0  0  0  0  0  0  0  0
   47.6064   12.1227   16.7614 H   0  0  0  0  0  0  0  0  0  0  0  0
   48.8134   10.8698   16.7559 H   0  0  0  0  0  0  0  0  0  0  0  0
   47.2681    8.9947   24.0762 H   0  0  0  0  0  0  0  0  0  0  0  0
   47.5985    6.8147   20.3477 H   0  0  0  0  0  0  0  0  0  0  0  0
   47.6364    4.7009   21.6123 H   0  0  0  0  0  0  0  0  0  0  0  0
   47.3234    6.8403   25.3088 H   0  0  0  0  0  0  0  0  0  0  0  0
   49.4451   11.0415   20.3170 H   0  0  0  0  0  0  0  0  0  0  0  0
   50.2771   10.7120   18.8103 H   0  0  0  0  0  0  0  0  0  0  0  0
   50.8566   16.8834   17.2448 H   0  0  0  0  0  0  0  0  0  0  0  0
   47.9448   18.7912   13.6312 H   0  0  0  0  0  0  0  0  0  0  0  0
   48.3711    9.1834   18.1392 H   0  0  0  0  0  0  0  0  0  0  0  0
   49.2020    8.6897   19.6020 H   0  0  0  0  0  0  0  0  0  0  0  0
   46.5882    8.6158   19.5898 H   0  0  0  0  0  0  0  0  0  0  0  0
   46.6076   10.3485   19.6875 H   0  0  0  0  0  0  0  0  0  0  0  0
   51.1042   19.2526   16.5403 H   0  0  0  0  0  0  0  0  0  0  0  0
   49.6746   20.2019   14.7532 H   0  0  0  0  0  0  0  0  0  0  0  0
  2  1  1  0
  3  1  1  0
  4  2  1  0
  5  3  1  0
  6  2  1  0
  7 14  1  0
  8  1  2  0
  9  6  1  0
 10  6  1  0
 11 26  1  0
 12 11  1  0
 13 11  2  0
 14 10  1  0
 15  9  1  0
 16 12  2  0
 17 12  1  0
 18 19  1  0
 19 17  2  0
 20 16  1  0
 21 18  1  0
 22  7  1  0
 23  4  2  0
 24  5  2  0
 25 22  1  0
 26 25  1  0
 27 23  1  0
 28 24  1  0
  5  4  1  0
 28 27  2  0
 15  7  1  0
 20 18  2  0
  3 29  1  0
  6 30  1  0
  9 31  1  0
  9 32  1  0
 10 33  1  0
 10 34  1  0
 14 35  1  0
 14 36  1  0
 15 37  1  0
 15 38  1  0
 16 39  1  0
 17 40  1  0
 19 41  1  0
 20 42  1  0
 22 43  1  0
 22 44  1  0
 23 45  1  0
 24 46  1  0
 25 47  1  0
 25 48  1  0
 26 49  1  0
 26 50  1  0
 27 51  1  0
 28 52  1  0
M  END
> <Uni-Dock RESULT> 
ENERGY=   -3.757  LOWER_BOUND=    8.984  UPPER_BOUND=   11.753
INTER + INTRA:          -3.757
INTER:                  -3.757
INTRA:                   0.000
UNBOUND:                 0.000

$$$$

     RDKit          3D

 52 55  0  0  0  0  0  0  0  0999 V2000
   44.7100    7.8424   11.7217 C   0  0  0  0  0  0  0  0  0  0  0  0
   45.6022    6.9776   12.3963 N   0  0  0  0  0  0  0  0  0  0  0  0
   43.6109    7.0634   11.3318 N   0  0  0  0  0  0  0  0  0  0  0  0
   45.0677    5.6758   12.3508 C   0  0  0  0  0  0  0  0  0  0  0  0
   43.8339    5.7457   11.7039 C   0  0  0  0  0  0  0  0  0  0  0  0
   46.9416    7.3104   12.8608 C   0  0  0  0  0  0  0  0  0  0  0  0
   49.0610    9.3961   12.4516 N   0  0  0  0  0  0  0  0  0  0  0  0
   44.8331    9.0344   11.4975 O   0  0  0  0  0  0  0  0  0  0  0  0
   47.0070    8.6190   13.6704 C   0  0  0  0  0  0  0  0  0  0  0  0
   47.9503    7.3014   11.7058 C   0  0  0  0  0  0  0  0  0  0  0  0
   52.3243   11.3640   11.4826 C   0  0  0  0  0  0  0  0  0  0  0  0
   53.4070   12.3592   11.7588 C   0  0  0  0  0  0  0  0  0  0  0  0
   52.6363   10.2371   11.0982 O   0  0  0  0  0  0  0  0  0  0  0  0
   49.2463    7.9724   12.1492 C   0  0  0  0  0  0  0  0  0  0  0  0
   47.7070    9.7425   12.9056 C   0  0  0  0  0  0  0  0  0  0  0  0
   54.7103   12.0517   11.3328 C   0  0  0  0  0  0  0  0  0  0  0  0
   53.1742   13.5674   12.4310 C   0  0  0  0  0  0  0  0  0  0  0  0
   55.5107   14.1348   12.2301 C   0  0  0  0  0  0  0  0  0  0  0  0
   54.2294   14.4552   12.6636 C   0  0  0  0  0  0  0  0  0  0  0  0
   55.7615   12.9407   11.5672 C   0  0  0  0  0  0  0  0  0  0  0  0
   56.5165   14.9887   12.4575 F   0  0  0  0  0  0  0  0  0  0  0  0
   50.1317    9.9077   13.3127 C   0  0  0  0  0  0  0  0  0  0  0  0
   45.5646    4.4727   12.8063 C   0  0  0  0  0  0  0  0  0  0  0  0
   43.0405    4.6418   11.4892 C   0  0  0  0  0  0  0  0  0  0  0  0
   50.3881   11.4079   13.0993 C   0  0  0  0  0  0  0  0  0  0  0  0
   50.8712   11.7489   11.6890 C   0  0  0  0  0  0  0  0  0  0  0  0
   44.7771    3.3326   12.6012 C   0  0  0  0  0  0  0  0  0  0  0  0
   43.5278    3.4166   11.9512 C   0  0  0  0  0  0  0  0  0  0  0  0
   42.8261    7.4285   10.8190 H   0  0  0  0  0  0  0  0  0  0  0  0
   47.2321    6.5216   13.5663 H   0  0  0  0  0  0  0  0  0  0  0  0
   46.0108    8.9434   13.9930 H   0  0  0  0  0  0  0  0  0  0  0  0
   47.5725    8.4319   14.5936 H   0  0  0  0  0  0  0  0  0  0  0  0
   47.5463    7.8118   10.8218 H   0  0  0  0  0  0  0  0  0  0  0  0
   48.1495    6.2679   11.3975 H   0  0  0  0  0  0  0  0  0  0  0  0
   49.6316    7.4335   13.0254 H   0  0  0  0  0  0  0  0  0  0  0  0
   49.9954    7.8748   11.3550 H   0  0  0  0  0  0  0  0  0  0  0  0
   47.1194   10.0008   12.0177 H   0  0  0  0  0  0  0  0  0  0  0  0
   47.7050   10.6482   13.5224 H   0  0  0  0  0  0  0  0  0  0  0  0
   54.9110   11.1159   10.8122 H   0  0  0  0  0  0  0  0  0  0  0  0
   52.1880   13.8407   12.7931 H   0  0  0  0  0  0  0  0  0  0  0  0
   54.0600   15.3941   13.1820 H   0  0  0  0  0  0  0  0  0  0  0  0
   56.7690   12.7065   11.2385 H   0  0  0  0  0  0  0  0  0  0  0  0
   51.0701    9.3768   13.1108 H   0  0  0  0  0  0  0  0  0  0  0  0
   49.8975    9.7174   14.3677 H   0  0  0  0  0  0  0  0  0  0  0  0
   46.5226    4.3928   13.3043 H   0  0  0  0  0  0  0  0  0  0  0  0
   42.0858    4.7119   10.9827 H   0  0  0  0  0  0  0  0  0  0  0  0
   49.4759   11.9787   13.3052 H   0  0  0  0  0  0  0  0  0  0  0  0
   51.1285   11.7366   13.8385 H   0  0  0  0  0  0  0  0  0  0  0  0
   50.7420   12.8173   11.4890 H   0  0  0  0  0  0  0  0  0  0  0  0
   50.2741   11.2459   10.9198 H   0  0  0  0  0  0  0  0  0  0  0  0
   45.1342    2.3643   12.9459 H   0  0  0  0  0  0  0  0  0  0  0  0
   42.9397    2.5129   11.8054 H   0  0  0  0  0  0  0  0  0  0  0  0
  2  1  1  0
  3  1  1  0
  4  2  1  0
  5  3  1  0
  6  2  1  0
  7 14  1  0
  8  1  2  0
  9  6  1  0
 10  6  1  0
 11 26  1  0
 12 11  1  0
 13 11  2  0
 14 10  1  0
 15  9  1  0
 16 12  2  0
 17 12  1  0
 18 19  1  0
 19 17  2  0
 20 16  1  0
 21 18  1  0
 22  7  1  0
 23  4  2  0
 24  5  2  0
 25 22  1  0
 26 25  1  0
 27 23  1  0
 28 24  1  0
  5  4  1  0
 28 27  2  0
 15  7  1  0
 20 18  2  0
  3 29  1  0
  6 30  1  0
  9 31  1  0
  9 32  1  0
 10 33  1  0
 10 34  1  0
 14 35  1  0
 14 36  1  0
 15 37  1  0
 15 38  1  0
 16 39  1  0
 17 40  1  0
 19 41  1  0
 20 42  1  0
 22 43  1  0
 22 44  1  0
 23 45  1  0
 24 46  1  0
 25 47  1  0
 25 48  1  0
 26 49  1  0
 26 50  1  0
 27 51  1  0
 28 52  1  0
M  END
> <Uni-Dock RESULT> 
ENERGY=   -3.708  LOWER_BOUND=    7.735  UPPER_BOUND=   11.477
INTER + INTRA:          -3.708
INTER:                  -3.708
INTRA:                   0.000
UNBOUND:                 0.000

$$$$
