
     RDKit          3D

 52 55  0  0  0  0  0  0  0  0999 V2000
   49.9266    7.8781   12.5529 C   0  0  0  0  0  0  0  0  0  0  0  0
   49.0391    7.1398   13.3702 N   0  0  0  0  0  0  0  0  0  0  0  0
   50.9027    8.4156   13.4035 N   0  0  0  0  0  0  0  0  0  0  0  0
   49.4670    7.2563   14.7055 C   0  0  0  0  0  0  0  0  0  0  0  0
   50.6209    8.0421   14.7103 C   0  0  0  0  0  0  0  0  0  0  0  0
   47.8533    6.4660   12.8747 C   0  0  0  0  0  0  0  0  0  0  0  0
   45.5103    5.0243   12.4228 N   0  0  0  0  0  0  0  0  0  0  0  0
   49.8773    8.0430   11.3455 O   0  0  0  0  0  0  0  0  0  0  0  0
   47.8549    4.9508   13.1343 C   0  0  0  0  0  0  0  0  0  0  0  0
   46.5569    7.1243   13.3485 C   0  0  0  0  0  0  0  0  0  0  0  0
   44.3354    3.1411    9.4837 C   0  0  0  0  0  0  0  0  0  0  0  0
   45.4349    2.8464    8.5167 C   0  0  0  0  0  0  0  0  0  0  0  0
   43.6906    2.2054    9.9554 O   0  0  0  0  0  0  0  0  0  0  0  0
   45.3378    6.4611   12.6974 C   0  0  0  0  0  0  0  0  0  0  0  0
   46.4453    4.3950   13.3552 C   0  0  0  0  0  0  0  0  0  0  0  0
   45.9930    3.8325    7.6912 C   0  0  0  0  0  0  0  0  0  0  0  0
   45.9057    1.5262    8.4287 C   0  0  0  0  0  0  0  0  0  0  0  0
   47.4745    2.1895    6.7299 C   0  0  0  0  0  0  0  0  0  0  0  0
   46.9280    1.1988    7.5357 C   0  0  0  0  0  0  0  0  0  0  0  0
   47.0169    3.5007    6.7990 C   0  0  0  0  0  0  0  0  0  0  0  0
   48.4514    1.8766    5.8689 F   0  0  0  0  0  0  0  0  0  0  0  0
   44.2267    4.3074   12.3726 C   0  0  0  0  0  0  0  0  0  0  0  0
   48.9490    6.7538   15.8804 C   0  0  0  0  0  0  0  0  0  0  0  0
   51.3046    8.3597   15.8622 C   0  0  0  0  0  0  0  0  0  0  0  0
   43.3396    4.7335   11.1907 C   0  0  0  0  0  0  0  0  0  0  0  0
   44.0239    4.5877    9.8275 C   0  0  0  0  0  0  0  0  0  0  0  0
   49.6249    7.0613   17.0683 C   0  0  0  0  0  0  0  0  0  0  0  0
   50.7901    7.8555   17.0592 C   0  0  0  0  0  0  0  0  0  0  0  0
   51.6598    8.9951   13.0830 H   0  0  0  0  0  0  0  0  0  0  0  0
   47.8720    6.5888   11.7821 H   0  0  0  0  0  0  0  0  0  0  0  0
   48.4773    4.6760   13.9926 H   0  0  0  0  0  0  0  0  0  0  0  0
   48.3151    4.4541   12.2694 H   0  0  0  0  0  0  0  0  0  0  0  0
   46.5615    8.1956   13.1139 H   0  0  0  0  0  0  0  0  0  0  0  0
   46.4650    7.0484   14.4380 H   0  0  0  0  0  0  0  0  0  0  0  0
   44.4743    6.6443   13.3500 H   0  0  0  0  0  0  0  0  0  0  0  0
   45.1317    6.9678   11.7471 H   0  0  0  0  0  0  0  0  0  0  0  0
   46.4888    3.3106   13.1948 H   0  0  0  0  0  0  0  0  0  0  0  0
   46.1271    4.5495   14.3944 H   0  0  0  0  0  0  0  0  0  0  0  0
   45.6443    4.8608    7.7141 H   0  0  0  0  0  0  0  0  0  0  0  0
   45.4764    0.7477    9.0571 H   0  0  0  0  0  0  0  0  0  0  0  0
   47.2964    0.1803    7.4637 H   0  0  0  0  0  0  0  0  0  0  0  0
   47.4580    4.2559    6.1552 H   0  0  0  0  0  0  0  0  0  0  0  0
   44.4143    3.2306   12.2836 H   0  0  0  0  0  0  0  0  0  0  0  0
   43.6726    4.4428   13.3105 H   0  0  0  0  0  0  0  0  0  0  0  0
   48.0571    6.1410   15.9050 H   0  0  0  0  0  0  0  0  0  0  0  0
   52.1973    8.9725   15.8482 H   0  0  0  0  0  0  0  0  0  0  0  0
   42.4217    4.1329   11.2110 H   0  0  0  0  0  0  0  0  0  0  0  0
   43.0245    5.7759   11.3181 H   0  0  0  0  0  0  0  0  0  0  0  0
   44.9395    5.1860    9.8179 H   0  0  0  0  0  0  0  0  0  0  0  0
   43.3568    4.9733    9.0481 H   0  0  0  0  0  0  0  0  0  0  0  0
   49.2457    6.6818   18.0155 H   0  0  0  0  0  0  0  0  0  0  0  0
   51.2928    8.0779   17.9984 H   0  0  0  0  0  0  0  0  0  0  0  0
  2  1  1  0
  3  1  1  0
  4  2  1  0
  5  3  1  0
  6  2  1  0
  7 14  1  0
  8  1  2  0
  9  6  1  0
 10  6  1  0
 11 26  1  0
 12 11  1  0
 13 11  2  0
 14 10  1  0
 15  9  1  0
 16 12  2  0
 17 12  1  0
 18 19  1  0
 19 17  2  0
 20 16  1  0
 21 18  1  0
 22  7  1  0
 23  4  2  0
 24  5  2  0
 25 22  1  0
 26 25  1  0
 27 23  1  0
 28 24  1  0
  5  4  1  0
 28 27  2  0
 15  7  1  0
 20 18  2  0
  3 29  1  0
  6 30  1  0
  9 31  1  0
  9 32  1  0
 10 33  1  0
 10 34  1  0
 14 35  1  0
 14 36  1  0
 15 37  1  0
 15 38  1  0
 16 39  1  0
 17 40  1  0
 19 41  1  0
 20 42  1  0
 22 43  1  0
 22 44  1  0
 23 45  1  0
 24 46  1  0
 25 47  1  0
 25 48  1  0
 26 49  1  0
 26 50  1  0
 27 51  1  0
 28 52  1  0
M  END
> <Uni-Dock RESULT> 
ENERGY=   -7.280  LOWER_BOUND=    0.000  UPPER_BOUND=    0.000
INTER + INTRA:          -7.280
INTER:                  -7.280
INTRA:                   0.000
UNBOUND:                 0.000

$$$$

     RDKit          3D

 52 55  0  0  0  0  0  0  0  0999 V2000
   47.8519    5.6700   21.0119 C   0  0  0  0  0  0  0  0  0  0  0  0
   48.0642    6.9997   20.5784 N   0  0  0  0  0  0  0  0  0  0  0  0
   47.6254    5.7298   22.3940 N   0  0  0  0  0  0  0  0  0  0  0  0
   47.9909    7.8472   21.6990 C   0  0  0  0  0  0  0  0  0  0  0  0
   47.7146    7.0505   22.8116 C   0  0  0  0  0  0  0  0  0  0  0  0
   48.3855    7.3635   19.2109 C   0  0  0  0  0  0  0  0  0  0  0  0
   49.0033    8.5549   16.7672 N   0  0  0  0  0  0  0  0  0  0  0  0
   47.8651    4.6494   20.3444 O   0  0  0  0  0  0  0  0  0  0  0  0
   47.3633    8.3189   18.5738 C   0  0  0  0  0  0  0  0  0  0  0  0
   49.8182    7.8752   19.0556 C   0  0  0  0  0  0  0  0  0  0  0  0
   48.2031    7.5777   13.3075 C   0  0  0  0  0  0  0  0  0  0  0  0
   47.1070    6.5655   13.2383 C   0  0  0  0  0  0  0  0  0  0  0  0
   48.0667    8.6447   12.7101 O   0  0  0  0  0  0  0  0  0  0  0  0
   50.1530    8.1225   17.5802 C   0  0  0  0  0  0  0  0  0  0  0  0
   48.0066    9.2717   17.5623 C   0  0  0  0  0  0  0  0  0  0  0  0
   47.3001    5.2242   13.5975 C   0  0  0  0  0  0  0  0  0  0  0  0
   45.8469    6.9816   12.7788 C   0  0  0  0  0  0  0  0  0  0  0  0
   44.9981    4.7478   13.0567 C   0  0  0  0  0  0  0  0  0  0  0  0
   44.7914    6.0717   12.6903 C   0  0  0  0  0  0  0  0  0  0  0  0
   46.2405    4.3165   13.5081 C   0  0  0  0  0  0  0  0  0  0  0  0
   43.9886    3.8724   12.9674 F   0  0  0  0  0  0  0  0  0  0  0  0
   49.4146    9.3278   15.5850 C   0  0  0  0  0  0  0  0  0  0  0  0
   48.1438    9.2116   21.8269 C   0  0  0  0  0  0  0  0  0  0  0  0
   47.5779    7.5620   24.0823 C   0  0  0  0  0  0  0  0  0  0  0  0
   50.2082    8.4967   14.5628 C   0  0  0  0  0  0  0  0  0  0  0  0
   49.4663    7.2449   14.0830 C   0  0  0  0  0  0  0  0  0  0  0  0
   48.0097    9.7595   23.1093 C   0  0  0  0  0  0  0  0  0  0  0  0
   47.7296    8.9435   24.2248 C   0  0  0  0  0  0  0  0  0  0  0  0
   47.4519    4.9190   22.9635 H   0  0  0  0  0  0  0  0  0  0  0  0
   48.3341    6.4304   18.6313 H   0  0  0  0  0  0  0  0  0  0  0  0
   46.8266    8.9130   19.3211 H   0  0  0  0  0  0  0  0  0  0  0  0
   46.5940    7.7155   18.0734 H   0  0  0  0  0  0  0  0  0  0  0  0
   50.5309    7.1572   19.4789 H   0  0  0  0  0  0  0  0  0  0  0  0
   49.9538    8.8087   19.6136 H   0  0  0  0  0  0  0  0  0  0  0  0
   50.9683    8.8567   17.5451 H   0  0  0  0  0  0  0  0  0  0  0  0
   50.5438    7.1922   17.1510 H   0  0  0  0  0  0  0  0  0  0  0  0
   47.2059    9.6661   16.9245 H   0  0  0  0  0  0  0  0  0  0  0  0
   48.4575   10.1320   18.0740 H   0  0  0  0  0  0  0  0  0  0  0  0
   48.2636    4.8575   13.9390 H   0  0  0  0  0  0  0  0  0  0  0  0
   45.6838    8.0180   12.4882 H   0  0  0  0  0  0  0  0  0  0  0  0
   43.8151    6.3877   12.3365 H   0  0  0  0  0  0  0  0  0  0  0  0
   46.3773    3.2752   13.7845 H   0  0  0  0  0  0  0  0  0  0  0  0
   48.5247    9.7235   15.0810 H   0  0  0  0  0  0  0  0  0  0  0  0
   50.0088   10.2013   15.8832 H   0  0  0  0  0  0  0  0  0  0  0  0
   48.3569    9.8526   20.9812 H   0  0  0  0  0  0  0  0  0  0  0  0
   47.3654    6.9292   24.9350 H   0  0  0  0  0  0  0  0  0  0  0  0
   50.4477    9.1374   13.7051 H   0  0  0  0  0  0  0  0  0  0  0  0
   51.1695    8.1939   14.9947 H   0  0  0  0  0  0  0  0  0  0  0  0
   49.2280    6.6145   14.9445 H   0  0  0  0  0  0  0  0  0  0  0  0
   50.1207    6.6744   13.4140 H   0  0  0  0  0  0  0  0  0  0  0  0
   48.1234   10.8330   23.2491 H   0  0  0  0  0  0  0  0  0  0  0  0
   47.6318    9.3982   25.2086 H   0  0  0  0  0  0  0  0  0  0  0  0
  2  1  1  0
  3  1  1  0
  4  2  1  0
  5  3  1  0
  6  2  1  0
  7 14  1  0
  8  1  2  0
  9  6  1  0
 10  6  1  0
 11 26  1  0
 12 11  1  0
 13 11  2  0
 14 10  1  0
 15  9  1  0
 16 12  2  0
 17 12  1  0
 18 19  1  0
 19 17  2  0
 20 16  1  0
 21 18  1  0
 22  7  1  0
 23  4  2  0
 24  5  2  0
 25 22  1  0
 26 25  1  0
 27 23  1  0
 28 24  1  0
  5  4  1  0
 28 27  2  0
 15  7  1  0
 20 18  2  0
  3 29  1  0
  6 30  1  0
  9 31  1  0
  9 32  1  0
 10 33  1  0
 10 34  1  0
 14 35  1  0
 14 36  1  0
 15 37  1  0
 15 38  1  0
 16 39  1  0
 17 40  1  0
 19 41  1  0
 20 42  1  0
 22 43  1  0
 22 44  1  0
 23 45  1  0
 24 46  1  0
 25 47  1  0
 25 48  1  0
 26 49  1  0
 26 50  1  0
 27 51  1  0
 28 52  1  0
M  END
> <Uni-Dock RESULT> 
ENERGY=   -4.521  LOWER_BOUND=    4.766  UPPER_BOUND=    7.590
INTER + INTRA:          -4.521
INTER:                  -4.521
INTRA:                   0.000
UNBOUND:                 0.000

$$$$

     RDKit          3D

 52 55  0  0  0  0  0  0  0  0999 V2000
   43.9444    4.6376   12.7468 C   0  0  0  0  0  0  0  0  0  0  0  0
   45.0797    5.2966   12.2200 N   0  0  0  0  0  0  0  0  0  0  0  0
   43.3761    3.9111   11.6912 N   0  0  0  0  0  0  0  0  0  0  0  0
   45.1752    4.9869   10.8509 C   0  0  0  0  0  0  0  0  0  0  0  0
   44.1204    4.1270   10.5396 C   0  0  0  0  0  0  0  0  0  0  0  0
   45.9203    6.1980   12.9859 C   0  0  0  0  0  0  0  0  0  0  0  0
   47.8119    7.9701   14.0126 N   0  0  0  0  0  0  0  0  0  0  0  0
   43.5116    4.6782   13.8864 O   0  0  0  0  0  0  0  0  0  0  0  0
   47.3885    5.7493   13.0651 C   0  0  0  0  0  0  0  0  0  0  0  0
   45.7924    7.6535   12.5347 C   0  0  0  0  0  0  0  0  0  0  0  0
   49.1766    8.3807   17.4088 C   0  0  0  0  0  0  0  0  0  0  0  0
   48.9030    7.1998   18.2814 C   0  0  0  0  0  0  0  0  0  0  0  0
   50.3421    8.7328   17.2315 O   0  0  0  0  0  0  0  0  0  0  0  0
   46.5948    8.5825   13.4529 C   0  0  0  0  0  0  0  0  0  0  0  0
   48.3574    6.9328   13.1374 C   0  0  0  0  0  0  0  0  0  0  0  0
   47.6292    6.9291   18.8006 C   0  0  0  0  0  0  0  0  0  0  0  0
   49.9728    6.3475   18.5999 C   0  0  0  0  0  0  0  0  0  0  0  0
   48.4994    4.9761   19.9174 C   0  0  0  0  0  0  0  0  0  0  0  0
   49.7694    5.2336   19.4170 C   0  0  0  0  0  0  0  0  0  0  0  0
   47.4297    5.8123   19.6176 C   0  0  0  0  0  0  0  0  0  0  0  0
   48.3033    3.9114   20.7057 F   0  0  0  0  0  0  0  0  0  0  0  0
   48.8285    8.9722   14.3679 C   0  0  0  0  0  0  0  0  0  0  0  0
   46.0741    5.3823    9.8830 C   0  0  0  0  0  0  0  0  0  0  0  0
   43.9122    3.6261    9.2744 C   0  0  0  0  0  0  0  0  0  0  0  0
   48.3972    9.8907   15.5237 C   0  0  0  0  0  0  0  0  0  0  0  0
   48.0067    9.1317   16.7962 C   0  0  0  0  0  0  0  0  0  0  0  0
   45.8863    4.8875    8.5859 C   0  0  0  0  0  0  0  0  0  0  0  0
   44.8170    4.0187    8.2850 C   0  0  0  0  0  0  0  0  0  0  0  0
   42.5460    3.3511   11.7866 H   0  0  0  0  0  0  0  0  0  0  0  0
   45.5353    6.1665   14.0155 H   0  0  0  0  0  0  0  0  0  0  0  0
   47.6758    5.1136   12.2208 H   0  0  0  0  0  0  0  0  0  0  0  0
   47.5083    5.1205   13.9578 H   0  0  0  0  0  0  0  0  0  0  0  0
   44.7403    7.9629   12.5275 H   0  0  0  0  0  0  0  0  0  0  0  0
   46.1539    7.7687   11.5065 H   0  0  0  0  0  0  0  0  0  0  0  0
   46.8284    9.4904   12.8817 H   0  0  0  0  0  0  0  0  0  0  0  0
   45.9519    8.8881   14.2871 H   0  0  0  0  0  0  0  0  0  0  0  0
   49.3119    6.5553   13.5245 H   0  0  0  0  0  0  0  0  0  0  0  0
   48.5571    7.3309   12.1340 H   0  0  0  0  0  0  0  0  0  0  0  0
   46.7798    7.5737   18.5945 H   0  0  0  0  0  0  0  0  0  0  0  0
   50.9695    6.5494   18.2113 H   0  0  0  0  0  0  0  0  0  0  0  0
   50.5922    4.5709   19.6661 H   0  0  0  0  0  0  0  0  0  0  0  0
   46.4475    5.5914   20.0249 H   0  0  0  0  0  0  0  0  0  0  0  0
   49.7525    8.4632   14.6674 H   0  0  0  0  0  0  0  0  0  0  0  0
   49.0881    9.5844   13.4945 H   0  0  0  0  0  0  0  0  0  0  0  0
   46.9013    6.0466   10.0972 H   0  0  0  0  0  0  0  0  0  0  0  0
   43.0873    2.9615    9.0497 H   0  0  0  0  0  0  0  0  0  0  0  0
   49.2194   10.5832   15.7426 H   0  0  0  0  0  0  0  0  0  0  0  0
   47.5505   10.5125   15.2094 H   0  0  0  0  0  0  0  0  0  0  0  0
   47.1898    8.4411   16.5678 H   0  0  0  0  0  0  0  0  0  0  0  0
   47.6485    9.8472   17.5451 H   0  0  0  0  0  0  0  0  0  0  0  0
   46.5762    5.1775    7.7955 H   0  0  0  0  0  0  0  0  0  0  0  0
   44.6967    3.6514    7.2676 H   0  0  0  0  0  0  0  0  0  0  0  0
  2  1  1  0
  3  1  1  0
  4  2  1  0
  5  3  1  0
  6  2  1  0
  7 14  1  0
  8  1  2  0
  9  6  1  0
 10  6  1  0
 11 26  1  0
 12 11  1  0
 13 11  2  0
 14 10  1  0
 15  9  1  0
 16 12  2  0
 17 12  1  0
 18 19  1  0
 19 17  2  0
 20 16  1  0
 21 18  1  0
 22  7  1  0
 23  4  2  0
 24  5  2  0
 25 22  1  0
 26 25  1  0
 27 23  1  0
 28 24  1  0
  5  4  1  0
 28 27  2  0
 15  7  1  0
 20 18  2  0
  3 29  1  0
  6 30  1  0
  9 31  1  0
  9 32  1  0
 10 33  1  0
 10 34  1  0
 14 35  1  0
 14 36  1  0
 15 37  1  0
 15 38  1  0
 16 39  1  0
 17 40  1  0
 19 41  1  0
 20 42  1  0
 22 43  1  0
 22 44  1  0
 23 45  1  0
 24 46  1  0
 25 47  1  0
 25 48  1  0
 26 49  1  0
 26 50  1  0
 27 51  1  0
 28 52  1  0
M  END
> <Uni-Dock RESULT> 
ENERGY=   -4.450  LOWER_BOUND=    3.671  UPPER_BOUND=    9.154
INTER + INTRA:          -4.450
INTER:                  -4.450
INTRA:                   0.000
UNBOUND:                 0.000

$$$$

     RDKit          3D

 52 55  0  0  0  0  0  0  0  0999 V2000
   48.4223    5.0486   20.0401 C   0  0  0  0  0  0  0  0  0  0  0  0
   48.3142    6.4515   20.1847 N   0  0  0  0  0  0  0  0  0  0  0  0
   48.1437    4.4929   21.2965 N   0  0  0  0  0  0  0  0  0  0  0  0
   47.9983    6.7349   21.5261 C   0  0  0  0  0  0  0  0  0  0  0  0
   47.8912    5.5165   22.1993 C   0  0  0  0  0  0  0  0  0  0  0  0
   48.5798    7.3980   19.1173 C   0  0  0  0  0  0  0  0  0  0  0  0
   48.9634    9.5797   17.4245 N   0  0  0  0  0  0  0  0  0  0  0  0
   48.7080    4.4148   19.0380 O   0  0  0  0  0  0  0  0  0  0  0  0
   47.3748    8.2884   18.7728 C   0  0  0  0  0  0  0  0  0  0  0  0
   49.8464    8.2206   19.3572 C   0  0  0  0  0  0  0  0  0  0  0  0
   48.5404    9.9443   13.7840 C   0  0  0  0  0  0  0  0  0  0  0  0
   47.7302    8.8395   13.1891 C   0  0  0  0  0  0  0  0  0  0  0  0
   48.1646   11.1062   13.6327 O   0  0  0  0  0  0  0  0  0  0  0  0
   50.1573    9.1100   18.1480 C   0  0  0  0  0  0  0  0  0  0  0  0
   47.7957    9.6825   18.2994 C   0  0  0  0  0  0  0  0  0  0  0  0
   48.2362    7.5425   13.0242 C   0  0  0  0  0  0  0  0  0  0  0  0
   46.4219    9.1278   12.7681 C   0  0  0  0  0  0  0  0  0  0  0  0
   46.1412    6.8489   12.0503 C   0  0  0  0  0  0  0  0  0  0  0  0
   45.6266    8.1304   12.2002 C   0  0  0  0  0  0  0  0  0  0  0  0
   47.4363    6.5466   12.4559 C   0  0  0  0  0  0  0  0  0  0  0  0
   45.3820    5.8922   11.5010 F   0  0  0  0  0  0  0  0  0  0  0  0
   49.2094   10.8338   16.6959 C   0  0  0  0  0  0  0  0  0  0  0  0
   47.8061    7.9283   22.1894 C   0  0  0  0  0  0  0  0  0  0  0  0
   47.5918    5.4267   23.5400 C   0  0  0  0  0  0  0  0  0  0  0  0
   50.2158   10.6784   15.5433 C   0  0  0  0  0  0  0  0  0  0  0  0
   49.8210    9.6025   14.5263 C   0  0  0  0  0  0  0  0  0  0  0  0
   47.5000    7.8667   23.5550 C   0  0  0  0  0  0  0  0  0  0  0  0
   47.3938    6.6292   24.2230 C   0  0  0  0  0  0  0  0  0  0  0  0
   48.1570    3.5042   21.4813 H   0  0  0  0  0  0  0  0  0  0  0  0
   48.7785    6.7927   18.2210 H   0  0  0  0  0  0  0  0  0  0  0  0
   46.6845    8.3992   19.6158 H   0  0  0  0  0  0  0  0  0  0  0  0
   46.7944    7.7914   17.9838 H   0  0  0  0  0  0  0  0  0  0  0  0
   50.7002    7.5622   19.5583 H   0  0  0  0  0  0  0  0  0  0  0  0
   49.7299    8.8529   20.2447 H   0  0  0  0  0  0  0  0  0  0  0  0
   50.7673    9.9503   18.5042 H   0  0  0  0  0  0  0  0  0  0  0  0
   50.7790    8.5402   17.4470 H   0  0  0  0  0  0  0  0  0  0  0  0
   46.9435   10.1216   17.7661 H   0  0  0  0  0  0  0  0  0  0  0  0
   48.0040   10.3356   19.1569 H   0  0  0  0  0  0  0  0  0  0  0  0
   49.2488    7.2829   13.3185 H   0  0  0  0  0  0  0  0  0  0  0  0
   46.0179   10.1323   12.8817 H   0  0  0  0  0  0  0  0  0  0  0  0
   44.6144    8.3472   11.8734 H   0  0  0  0  0  0  0  0  0  0  0  0
   47.8166    5.5379   12.3239 H   0  0  0  0  0  0  0  0  0  0  0  0
   48.2661   11.2008   16.2739 H   0  0  0  0  0  0  0  0  0  0  0  0
   49.5600   11.6157   17.3819 H   0  0  0  0  0  0  0  0  0  0  0  0
   47.8818    8.8865   21.6917 H   0  0  0  0  0  0  0  0  0  0  0  0
   47.5145    4.4731   24.0473 H   0  0  0  0  0  0  0  0  0  0  0  0
   50.3175   11.6469   15.0379 H   0  0  0  0  0  0  0  0  0  0  0  0
   51.2076   10.4384   15.9444 H   0  0  0  0  0  0  0  0  0  0  0  0
   49.7178    8.6420   15.0393 H   0  0  0  0  0  0  0  0  0  0  0  0
   50.6169    9.5058   13.7790 H   0  0  0  0  0  0  0  0  0  0  0  0
   47.3412    8.7884   24.1118 H   0  0  0  0  0  0  0  0  0  0  0  0
   47.1554    6.6136   25.2847 H   0  0  0  0  0  0  0  0  0  0  0  0
  2  1  1  0
  3  1  1  0
  4  2  1  0
  5  3  1  0
  6  2  1  0
  7 14  1  0
  8  1  2  0
  9  6  1  0
 10  6  1  0
 11 26  1  0
 12 11  1  0
 13 11  2  0
 14 10  1  0
 15  9  1  0
 16 12  2  0
 17 12  1  0
 18 19  1  0
 19 17  2  0
 20 16  1  0
 21 18  1  0
 22  7  1  0
 23  4  2  0
 24  5  2  0
 25 22  1  0
 26 25  1  0
 27 23  1  0
 28 24  1  0
  5  4  1  0
 28 27  2  0
 15  7  1  0
 20 18  2  0
  3 29  1  0
  6 30  1  0
  9 31  1  0
  9 32  1  0
 10 33  1  0
 10 34  1  0
 14 35  1  0
 14 36  1  0
 15 37  1  0
 15 38  1  0
 16 39  1  0
 17 40  1  0
 19 41  1  0
 20 42  1  0
 22 43  1  0
 22 44  1  0
 23 45  1  0
 24 46  1  0
 25 47  1  0
 25 48  1  0
 26 49  1  0
 26 50  1  0
 27 51  1  0
 28 52  1  0
M  END
> <Uni-Dock RESULT> 
ENERGY=   -4.380  LOWER_BOUND=    4.782  UPPER_BOUND=    8.026
INTER + INTRA:          -4.380
INTER:                  -4.380
INTRA:                   0.000
UNBOUND:                 0.000

$$$$
