
     RDKit          3D

 52 55  0  0  0  0  0  0  0  0999 V2000
   43.6130    4.0234   12.2147 C   0  0  0  0  0  0  0  0  0  0  0  0
   44.2537    5.0206   11.4431 N   0  0  0  0  0  0  0  0  0  0  0  0
   43.7053    2.8300   11.4867 N   0  0  0  0  0  0  0  0  0  0  0  0
   44.7299    4.4265   10.2595 C   0  0  0  0  0  0  0  0  0  0  0  0
   44.3832    3.0742   10.3002 C   0  0  0  0  0  0  0  0  0  0  0  0
   44.3736    6.4057   11.8566 C   0  0  0  0  0  0  0  0  0  0  0  0
   45.2116    9.1854   11.5735 N   0  0  0  0  0  0  0  0  0  0  0  0
   43.0770    4.1452   13.3037 O   0  0  0  0  0  0  0  0  0  0  0  0
   43.6398    7.3784   10.9321 C   0  0  0  0  0  0  0  0  0  0  0  0
   45.8216    6.8412   12.0880 C   0  0  0  0  0  0  0  0  0  0  0  0
   46.1260   13.6095   11.1887 C   0  0  0  0  0  0  0  0  0  0  0  0
   46.0814   15.0624   11.5446 C   0  0  0  0  0  0  0  0  0  0  0  0
   45.5961   13.2373   10.1445 O   0  0  0  0  0  0  0  0  0  0  0  0
   45.8830    8.3005   12.5391 C   0  0  0  0  0  0  0  0  0  0  0  0
   43.7924    8.8139   11.4311 C   0  0  0  0  0  0  0  0  0  0  0  0
   46.7458   15.5825   12.6648 C   0  0  0  0  0  0  0  0  0  0  0  0
   45.3472   15.9287   10.7175 C   0  0  0  0  0  0  0  0  0  0  0  0
   45.9368   17.7901   12.1228 C   0  0  0  0  0  0  0  0  0  0  0  0
   45.2747   17.2929   11.0078 C   0  0  0  0  0  0  0  0  0  0  0  0
   46.6707   16.9492   12.9518 C   0  0  0  0  0  0  0  0  0  0  0  0
   45.8693   19.0975   12.4033 F   0  0  0  0  0  0  0  0  0  0  0  0
   45.3176   10.6063   11.9602 C   0  0  0  0  0  0  0  0  0  0  0  0
   45.4183    4.9446    9.1831 C   0  0  0  0  0  0  0  0  0  0  0  0
   44.6968    2.1893    9.2930 C   0  0  0  0  0  0  0  0  0  0  0  0
   46.7239   11.1784   11.7209 C   0  0  0  0  0  0  0  0  0  0  0  0
   46.8332   12.6501   12.1332 C   0  0  0  0  0  0  0  0  0  0  0  0
   45.7504    4.0665    8.1430 C   0  0  0  0  0  0  0  0  0  0  0  0
   45.3936    2.7036    8.1972 C   0  0  0  0  0  0  0  0  0  0  0  0
   43.3286    1.9531   11.8053 H   0  0  0  0  0  0  0  0  0  0  0  0
   43.8731    6.4739   12.8330 H   0  0  0  0  0  0  0  0  0  0  0  0
   42.5755    7.1172   10.8834 H   0  0  0  0  0  0  0  0  0  0  0  0
   44.0199    7.3154    9.9070 H   0  0  0  0  0  0  0  0  0  0  0  0
   46.4207    6.7237   11.1785 H   0  0  0  0  0  0  0  0  0  0  0  0
   46.2866    6.2021   12.8488 H   0  0  0  0  0  0  0  0  0  0  0  0
   45.4338    8.3995   13.5360 H   0  0  0  0  0  0  0  0  0  0  0  0
   46.9412    8.5636   12.6356 H   0  0  0  0  0  0  0  0  0  0  0  0
   43.2605    8.9367   12.3840 H   0  0  0  0  0  0  0  0  0  0  0  0
   43.3055    9.4725   10.7011 H   0  0  0  0  0  0  0  0  0  0  0  0
   47.3313   14.9520   13.3271 H   0  0  0  0  0  0  0  0  0  0  0  0
   44.8275   15.5433    9.8413 H   0  0  0  0  0  0  0  0  0  0  0  0
   44.7083   17.9655   10.3713 H   0  0  0  0  0  0  0  0  0  0  0  0
   47.1813   17.3642   13.8158 H   0  0  0  0  0  0  0  0  0  0  0  0
   45.0232   10.7436   13.0089 H   0  0  0  0  0  0  0  0  0  0  0  0
   44.6123   11.1929   11.3597 H   0  0  0  0  0  0  0  0  0  0  0  0
   45.7018    5.9879    9.1221 H   0  0  0  0  0  0  0  0  0  0  0  0
   44.4194    1.1435    9.3417 H   0  0  0  0  0  0  0  0  0  0  0  0
   47.4611   10.6215   12.3091 H   0  0  0  0  0  0  0  0  0  0  0  0
   46.9996   11.0589   10.6658 H   0  0  0  0  0  0  0  0  0  0  0  0
   47.8954   12.9218   12.1403 H   0  0  0  0  0  0  0  0  0  0  0  0
   46.4289   12.7733   13.1439 H   0  0  0  0  0  0  0  0  0  0  0  0
   46.2931    4.4427    7.2777 H   0  0  0  0  0  0  0  0  0  0  0  0
   45.6656    2.0467    7.3736 H   0  0  0  0  0  0  0  0  0  0  0  0
  2  1  1  0
  3  1  1  0
  4  2  1  0
  5  3  1  0
  6  2  1  0
  7 14  1  0
  8  1  2  0
  9  6  1  0
 10  6  1  0
 11 26  1  0
 12 11  1  0
 13 11  2  0
 14 10  1  0
 15  9  1  0
 16 12  2  0
 17 12  1  0
 18 19  1  0
 19 17  2  0
 20 16  1  0
 21 18  1  0
 22  7  1  0
 23  4  2  0
 24  5  2  0
 25 22  1  0
 26 25  1  0
 27 23  1  0
 28 24  1  0
  5  4  1  0
 28 27  2  0
 15  7  1  0
 20 18  2  0
  3 29  1  0
  6 30  1  0
  9 31  1  0
  9 32  1  0
 10 33  1  0
 10 34  1  0
 14 35  1  0
 14 36  1  0
 15 37  1  0
 15 38  1  0
 16 39  1  0
 17 40  1  0
 19 41  1  0
 20 42  1  0
 22 43  1  0
 22 44  1  0
 23 45  1  0
 24 46  1  0
 25 47  1  0
 25 48  1  0
 26 49  1  0
 26 50  1  0
 27 51  1  0
 28 52  1  0
M  END
> <Uni-Dock RESULT> 
ENERGY=   -5.299  LOWER_BOUND=    0.000  UPPER_BOUND=    0.000
INTER + INTRA:          -5.299
INTER:                  -5.299
INTRA:                   0.000
UNBOUND:                 0.000

$$$$

     RDKit          3D

 52 55  0  0  0  0  0  0  0  0999 V2000
   43.8263    3.9553   12.2256 C   0  0  0  0  0  0  0  0  0  0  0  0
   44.5065    4.9505   11.4859 N   0  0  0  0  0  0  0  0  0  0  0  0
   43.7874    2.8104   11.4191 N   0  0  0  0  0  0  0  0  0  0  0  0
   44.8757    4.4033   10.2429 C   0  0  0  0  0  0  0  0  0  0  0  0
   44.4242    3.0818   10.2159 C   0  0  0  0  0  0  0  0  0  0  0  0
   44.7568    6.2911   11.9799 C   0  0  0  0  0  0  0  0  0  0  0  0
   45.7998    9.0112   11.8300 N   0  0  0  0  0  0  0  0  0  0  0  0
   43.3552    4.0438   13.3474 O   0  0  0  0  0  0  0  0  0  0  0  0
   44.0591    7.3776   11.1600 C   0  0  0  0  0  0  0  0  0  0  0  0
   46.2445    6.5977   12.1605 C   0  0  0  0  0  0  0  0  0  0  0  0
   47.0455   13.3681   11.6796 C   0  0  0  0  0  0  0  0  0  0  0  0
   47.1346   14.7927   12.1293 C   0  0  0  0  0  0  0  0  0  0  0  0
   46.4375   13.1092   10.6437 O   0  0  0  0  0  0  0  0  0  0  0  0
   46.4442    8.0140   12.6998 C   0  0  0  0  0  0  0  0  0  0  0  0
   44.3502    8.7601   11.7406 C   0  0  0  0  0  0  0  0  0  0  0  0
   47.8921   15.1832   13.2431 C   0  0  0  0  0  0  0  0  0  0  0  0
   46.4328   15.7667   11.3997 C   0  0  0  0  0  0  0  0  0  0  0  0
   47.2370   17.4779   12.8871 C   0  0  0  0  0  0  0  0  0  0  0  0
   46.4839   17.1096   11.7799 C   0  0  0  0  0  0  0  0  0  0  0  0
   47.9406   16.5290   13.6203 C   0  0  0  0  0  0  0  0  0  0  0  0
   47.2880   18.7647   13.2537 F   0  0  0  0  0  0  0  0  0  0  0  0
   46.0377   10.3903   12.3003 C   0  0  0  0  0  0  0  0  0  0  0  0
   45.5503    4.9389    9.1664 C   0  0  0  0  0  0  0  0  0  0  0  0
   44.6168    2.2458    9.1390 C   0  0  0  0  0  0  0  0  0  0  0  0
   47.4720   10.8679   12.0228 C   0  0  0  0  0  0  0  0  0  0  0  0
   47.7187   12.2955   12.5216 C   0  0  0  0  0  0  0  0  0  0  0  0
   45.7602    4.1104    8.0561 C   0  0  0  0  0  0  0  0  0  0  0  0
   45.2986    2.7783    8.0423 C   0  0  0  0  0  0  0  0  0  0  0  0
   43.3577    1.9455   11.7009 H   0  0  0  0  0  0  0  0  0  0  0  0
   44.3113    6.3312   12.9840 H   0  0  0  0  0  0  0  0  0  0  0  0
   42.9763    7.2027   11.1519 H   0  0  0  0  0  0  0  0  0  0  0  0
   44.3828    7.3553   10.1140 H   0  0  0  0  0  0  0  0  0  0  0  0
   46.7874    6.4965   11.2145 H   0  0  0  0  0  0  0  0  0  0  0  0
   46.6932    5.8748   12.8529 H   0  0  0  0  0  0  0  0  0  0  0  0
   46.0533    8.0793   13.7237 H   0  0  0  0  0  0  0  0  0  0  0  0
   47.5235    8.1881   12.7559 H   0  0  0  0  0  0  0  0  0  0  0  0
   43.8767    8.8584   12.7266 H   0  0  0  0  0  0  0  0  0  0  0  0
   43.8827    9.5020   11.0813 H   0  0  0  0  0  0  0  0  0  0  0  0
   48.4567   14.4662   13.8315 H   0  0  0  0  0  0  0  0  0  0  0  0
   45.8421   15.4826   10.5299 H   0  0  0  0  0  0  0  0  0  0  0  0
   45.9428   17.8653   11.2189 H   0  0  0  0  0  0  0  0  0  0  0  0
   48.5240   16.8441   14.4803 H   0  0  0  0  0  0  0  0  0  0  0  0
   45.8065   10.4783   13.3699 H   0  0  0  0  0  0  0  0  0  0  0  0
   45.3534   11.0686   11.7771 H   0  0  0  0  0  0  0  0  0  0  0  0
   45.9130    5.9591    9.1569 H   0  0  0  0  0  0  0  0  0  0  0  0
   44.2593    1.2235    9.1357 H   0  0  0  0  0  0  0  0  0  0  0  0
   48.1900   10.2175   12.5338 H   0  0  0  0  0  0  0  0  0  0  0  0
   47.6858   10.7993   10.9490 H   0  0  0  0  0  0  0  0  0  0  0  0
   48.7983   12.4839   12.4890 H   0  0  0  0  0  0  0  0  0  0  0  0
   47.3750   12.3805   13.5583 H   0  0  0  0  0  0  0  0  0  0  0  0
   46.2886    4.5017    7.1887 H   0  0  0  0  0  0  0  0  0  0  0  0
   45.4768    2.1599    7.1651 H   0  0  0  0  0  0  0  0  0  0  0  0
  2  1  1  0
  3  1  1  0
  4  2  1  0
  5  3  1  0
  6  2  1  0
  7 14  1  0
  8  1  2  0
  9  6  1  0
 10  6  1  0
 11 26  1  0
 12 11  1  0
 13 11  2  0
 14 10  1  0
 15  9  1  0
 16 12  2  0
 17 12  1  0
 18 19  1  0
 19 17  2  0
 20 16  1  0
 21 18  1  0
 22  7  1  0
 23  4  2  0
 24  5  2  0
 25 22  1  0
 26 25  1  0
 27 23  1  0
 28 24  1  0
  5  4  1  0
 28 27  2  0
 15  7  1  0
 20 18  2  0
  3 29  1  0
  6 30  1  0
  9 31  1  0
  9 32  1  0
 10 33  1  0
 10 34  1  0
 14 35  1  0
 14 36  1  0
 15 37  1  0
 15 38  1  0
 16 39  1  0
 17 40  1  0
 19 41  1  0
 20 42  1  0
 22 43  1  0
 22 44  1  0
 23 45  1  0
 24 46  1  0
 25 47  1  0
 25 48  1  0
 26 49  1  0
 26 50  1  0
 27 51  1  0
 28 52  1  0
M  END
> <Uni-Dock RESULT> 
ENERGY=   -5.164  LOWER_BOUND=    0.769  UPPER_BOUND=    0.875
INTER + INTRA:          -5.164
INTER:                  -5.164
INTRA:                   0.000
UNBOUND:                 0.000

$$$$

     RDKit          3D

 52 55  0  0  0  0  0  0  0  0999 V2000
   52.6626    4.3769   21.3263 C   0  0  0  0  0  0  0  0  0  0  0  0
   52.4934    4.3065   19.9238 N   0  0  0  0  0  0  0  0  0  0  0  0
   53.7552    3.5587   21.6415 N   0  0  0  0  0  0  0  0  0  0  0  0
   53.4821    3.4521   19.4012 C   0  0  0  0  0  0  0  0  0  0  0  0
   54.2529    2.9974   20.4735 C   0  0  0  0  0  0  0  0  0  0  0  0
   51.4595    5.0218   19.2005 C   0  0  0  0  0  0  0  0  0  0  0  0
   49.9964    5.8587   16.8197 N   0  0  0  0  0  0  0  0  0  0  0  0
   52.0048    5.0156   22.1310 O   0  0  0  0  0  0  0  0  0  0  0  0
   50.4606    4.0978   18.5022 C   0  0  0  0  0  0  0  0  0  0  0  0
   52.0160    6.0714   18.2368 C   0  0  0  0  0  0  0  0  0  0  0  0
   47.3858    7.0242   13.3007 C   0  0  0  0  0  0  0  0  0  0  0  0
   46.2083    7.6210   12.5958 C   0  0  0  0  0  0  0  0  0  0  0  0
   47.5376    5.8052   13.2758 O   0  0  0  0  0  0  0  0  0  0  0  0
   50.8819    6.8035   17.5194 C   0  0  0  0  0  0  0  0  0  0  0  0
   49.3926    4.9117   17.7742 C   0  0  0  0  0  0  0  0  0  0  0  0
   46.0174    9.0066   12.4923 C   0  0  0  0  0  0  0  0  0  0  0  0
   45.2678    6.7526   12.0172 C   0  0  0  0  0  0  0  0  0  0  0  0
   43.9773    8.6358   11.2585 C   0  0  0  0  0  0  0  0  0  0  0  0
   44.1517    7.2610   11.3491 C   0  0  0  0  0  0  0  0  0  0  0  0
   44.8984    9.5114   11.8223 C   0  0  0  0  0  0  0  0  0  0  0  0
   42.9084    9.1260   10.6183 F   0  0  0  0  0  0  0  0  0  0  0  0
   48.9326    6.5528   16.0672 C   0  0  0  0  0  0  0  0  0  0  0  0
   53.7610    3.0486   18.1127 C   0  0  0  0  0  0  0  0  0  0  0  0
   55.3164    2.1364   20.3202 C   0  0  0  0  0  0  0  0  0  0  0  0
   49.4583    7.2254   14.7891 C   0  0  0  0  0  0  0  0  0  0  0  0
   48.3538    7.9536   14.0161 C   0  0  0  0  0  0  0  0  0  0  0  0
   54.8381    2.1718   17.9272 C   0  0  0  0  0  0  0  0  0  0  0  0
   55.6075    1.7205   19.0190 C   0  0  0  0  0  0  0  0  0  0  0  0
   54.0976    3.4237   22.5778 H   0  0  0  0  0  0  0  0  0  0  0  0
   50.8874    5.5747   19.9591 H   0  0  0  0  0  0  0  0  0  0  0  0
   49.9829    3.4391   19.2380 H   0  0  0  0  0  0  0  0  0  0  0  0
   50.9619    3.4428   17.7818 H   0  0  0  0  0  0  0  0  0  0  0  0
   52.6739    5.6141   17.4899 H   0  0  0  0  0  0  0  0  0  0  0  0
   52.6297    6.7952   18.7871 H   0  0  0  0  0  0  0  0  0  0  0  0
   50.3156    7.4071   18.2407 H   0  0  0  0  0  0  0  0  0  0  0  0
   51.3444    7.4985   16.8113 H   0  0  0  0  0  0  0  0  0  0  0  0
   48.7649    5.4412   18.5033 H   0  0  0  0  0  0  0  0  0  0  0  0
   48.7441    4.2060   17.2403 H   0  0  0  0  0  0  0  0  0  0  0  0
   46.7222    9.7150   12.9170 H   0  0  0  0  0  0  0  0  0  0  0  0
   45.4013    5.6738   12.0845 H   0  0  0  0  0  0  0  0  0  0  0  0
   43.4225    6.5933   10.9008 H   0  0  0  0  0  0  0  0  0  0  0  0
   44.7398   10.5822   11.7348 H   0  0  0  0  0  0  0  0  0  0  0  0
   48.4263    7.2890   16.7051 H   0  0  0  0  0  0  0  0  0  0  0  0
   48.1709    5.8221   15.7703 H   0  0  0  0  0  0  0  0  0  0  0  0
   53.1827    3.3835   17.2607 H   0  0  0  0  0  0  0  0  0  0  0  0
   55.9030    1.7941   21.1638 H   0  0  0  0  0  0  0  0  0  0  0  0
   50.2210    7.9694   15.0426 H   0  0  0  0  0  0  0  0  0  0  0  0
   49.9408    6.4782   14.1470 H   0  0  0  0  0  0  0  0  0  0  0  0
   48.8309    8.5794   13.2526 H   0  0  0  0  0  0  0  0  0  0  0  0
   47.7955    8.5977   14.7044 H   0  0  0  0  0  0  0  0  0  0  0  0
   55.0853    1.8327   16.9229 H   0  0  0  0  0  0  0  0  0  0  0  0
   56.4377    1.0397   18.8428 H   0  0  0  0  0  0  0  0  0  0  0  0
  2  1  1  0
  3  1  1  0
  4  2  1  0
  5  3  1  0
  6  2  1  0
  7 14  1  0
  8  1  2  0
  9  6  1  0
 10  6  1  0
 11 26  1  0
 12 11  1  0
 13 11  2  0
 14 10  1  0
 15  9  1  0
 16 12  2  0
 17 12  1  0
 18 19  1  0
 19 17  2  0
 20 16  1  0
 21 18  1  0
 22  7  1  0
 23  4  2  0
 24  5  2  0
 25 22  1  0
 26 25  1  0
 27 23  1  0
 28 24  1  0
  5  4  1  0
 28 27  2  0
 15  7  1  0
 20 18  2  0
  3 29  1  0
  6 30  1  0
  9 31  1  0
  9 32  1  0
 10 33  1  0
 10 34  1  0
 14 35  1  0
 14 36  1  0
 15 37  1  0
 15 38  1  0
 16 39  1  0
 17 40  1  0
 19 41  1  0
 20 42  1  0
 22 43  1  0
 22 44  1  0
 23 45  1  0
 24 46  1  0
 25 47  1  0
 25 48  1  0
 26 49  1  0
 26 50  1  0
 27 51  1  0
 28 52  1  0
M  END
> <Uni-Dock RESULT> 
ENERGY=   -4.372  LOWER_BOUND=    8.662  UPPER_BOUND=   10.509
INTER + INTRA:          -4.372
INTER:                  -4.372
INTRA:                   0.000
UNBOUND:                 0.000

$$$$

     RDKit          3D

 52 55  0  0  0  0  0  0  0  0999 V2000
   54.7555    9.1564   17.9547 C   0  0  0  0  0  0  0  0  0  0  0  0
   54.2185    8.1915   17.0709 N   0  0  0  0  0  0  0  0  0  0  0  0
   56.0811    8.7788   18.2056 N   0  0  0  0  0  0  0  0  0  0  0  0
   55.2189    7.2418   16.7916 C   0  0  0  0  0  0  0  0  0  0  0  0
   56.3628    7.6171   17.4998 C   0  0  0  0  0  0  0  0  0  0  0  0
   52.8592    8.2297   16.5664 C   0  0  0  0  0  0  0  0  0  0  0  0
   50.5964    7.2748   14.9926 N   0  0  0  0  0  0  0  0  0  0  0  0
   54.2008   10.1365   18.4236 O   0  0  0  0  0  0  0  0  0  0  0  0
   52.0153    7.0342   17.0115 C   0  0  0  0  0  0  0  0  0  0  0  0
   52.7850    8.4316   15.0520 C   0  0  0  0  0  0  0  0  0  0  0  0
   46.8637    5.7907   12.8898 C   0  0  0  0  0  0  0  0  0  0  0  0
   45.4130    5.7446   12.5252 C   0  0  0  0  0  0  0  0  0  0  0  0
   47.3493    4.8503   13.5138 O   0  0  0  0  0  0  0  0  0  0  0  0
   51.3310    8.4824   14.5827 C   0  0  0  0  0  0  0  0  0  0  0  0
   50.5949    7.1433   16.4606 C   0  0  0  0  0  0  0  0  0  0  0  0
   44.8063    6.7278   11.7300 C   0  0  0  0  0  0  0  0  0  0  0  0
   44.6407    4.6711   12.9991 C   0  0  0  0  0  0  0  0  0  0  0  0
   42.6976    5.5676   11.9000 C   0  0  0  0  0  0  0  0  0  0  0  0
   43.2823    4.5837   12.6866 C   0  0  0  0  0  0  0  0  0  0  0  0
   43.4458    6.6363   11.4194 C   0  0  0  0  0  0  0  0  0  0  0  0
   41.3956    5.4862   11.5986 F   0  0  0  0  0  0  0  0  0  0  0  0
   49.2075    7.2767   14.4918 C   0  0  0  0  0  0  0  0  0  0  0  0
   55.2204    6.1141   15.9985 C   0  0  0  0  0  0  0  0  0  0  0  0
   57.5395    6.9036   17.4555 C   0  0  0  0  0  0  0  0  0  0  0  0
   49.1245    6.9869   12.9847 C   0  0  0  0  0  0  0  0  0  0  0  0
   47.6826    7.0002   12.4664 C   0  0  0  0  0  0  0  0  0  0  0  0
   56.4049    5.3684   15.9349 C   0  0  0  0  0  0  0  0  0  0  0  0
   57.5521    5.7587   16.6556 C   0  0  0  0  0  0  0  0  0  0  0  0
   56.7019    9.2933   18.8074 H   0  0  0  0  0  0  0  0  0  0  0  0
   52.3944    9.1180   17.0174 H   0  0  0  0  0  0  0  0  0  0  0  0
   51.9823    6.9869   18.1069 H   0  0  0  0  0  0  0  0  0  0  0  0
   52.4561    6.0898   16.6752 H   0  0  0  0  0  0  0  0  0  0  0  0
   53.3037    7.6272   14.5192 H   0  0  0  0  0  0  0  0  0  0  0  0
   53.2929    9.3635   14.7743 H   0  0  0  0  0  0  0  0  0  0  0  0
   50.8461    9.3857   14.9756 H   0  0  0  0  0  0  0  0  0  0  0  0
   51.3476    8.5748   13.4920 H   0  0  0  0  0  0  0  0  0  0  0  0
   50.0776    7.9925   16.9268 H   0  0  0  0  0  0  0  0  0  0  0  0
   50.0546    6.2345   16.7536 H   0  0  0  0  0  0  0  0  0  0  0  0
   45.3658    7.5706   11.3353 H   0  0  0  0  0  0  0  0  0  0  0  0
   45.0954    3.8964   13.6150 H   0  0  0  0  0  0  0  0  0  0  0  0
   42.6820    3.7558   13.0510 H   0  0  0  0  0  0  0  0  0  0  0  0
   42.9647    7.3908   10.8041 H   0  0  0  0  0  0  0  0  0  0  0  0
   48.7148    8.2298   14.7248 H   0  0  0  0  0  0  0  0  0  0  0  0
   48.6393    6.4972   15.0131 H   0  0  0  0  0  0  0  0  0  0  0  0
   54.3504    5.7972   15.4371 H   0  0  0  0  0  0  0  0  0  0  0  0
   58.4168    7.2097   18.0119 H   0  0  0  0  0  0  0  0  0  0  0  0
   49.6772    7.7487   12.4247 H   0  0  0  0  0  0  0  0  0  0  0  0
   49.5974    6.0218   12.7649 H   0  0  0  0  0  0  0  0  0  0  0  0
   47.7167    7.0045   11.3705 H   0  0  0  0  0  0  0  0  0  0  0  0
   47.1837    7.9132   12.8093 H   0  0  0  0  0  0  0  0  0  0  0  0
   56.4405    4.4718   15.3188 H   0  0  0  0  0  0  0  0  0  0  0  0
   58.4570    5.1586   16.5860 H   0  0  0  0  0  0  0  0  0  0  0  0
  2  1  1  0
  3  1  1  0
  4  2  1  0
  5  3  1  0
  6  2  1  0
  7 14  1  0
  8  1  2  0
  9  6  1  0
 10  6  1  0
 11 26  1  0
 12 11  1  0
 13 11  2  0
 14 10  1  0
 15  9  1  0
 16 12  2  0
 17 12  1  0
 18 19  1  0
 19 17  2  0
 20 16  1  0
 21 18  1  0
 22  7  1  0
 23  4  2  0
 24  5  2  0
 25 22  1  0
 26 25  1  0
 27 23  1  0
 28 24  1  0
  5  4  1  0
 28 27  2  0
 15  7  1  0
 20 18  2  0
  3 29  1  0
  6 30  1  0
  9 31  1  0
  9 32  1  0
 10 33  1  0
 10 34  1  0
 14 35  1  0
 14 36  1  0
 15 37  1  0
 15 38  1  0
 16 39  1  0
 17 40  1  0
 19 41  1  0
 20 42  1  0
 22 43  1  0
 22 44  1  0
 23 45  1  0
 24 46  1  0
 25 47  1  0
 25 48  1  0
 26 49  1  0
 26 50  1  0
 27 51  1  0
 28 52  1  0
M  END
> <Uni-Dock RESULT> 
ENERGY=   -4.104  LOWER_BOUND=    8.222  UPPER_BOUND=   11.239
INTER + INTRA:          -4.104
INTER:                  -4.104
INTRA:                   0.000
UNBOUND:                 0.000

$$$$

     RDKit          3D

 52 55  0  0  0  0  0  0  0  0999 V2000
   51.9619    5.0471   22.4536 C   0  0  0  0  0  0  0  0  0  0  0  0
   51.9500    4.9188   21.0451 N   0  0  0  0  0  0  0  0  0  0  0  0
   53.0440    4.2880   22.9177 N   0  0  0  0  0  0  0  0  0  0  0  0
   53.0219    4.0888   20.6672 C   0  0  0  0  0  0  0  0  0  0  0  0
   53.6877    3.7064   21.8340 C   0  0  0  0  0  0  0  0  0  0  0  0
   50.9748    5.5629   20.1860 C   0  0  0  0  0  0  0  0  0  0  0  0
   49.7500    6.2501   17.6294 N   0  0  0  0  0  0  0  0  0  0  0  0
   51.1960    5.6860   23.1560 O   0  0  0  0  0  0  0  0  0  0  0  0
   50.0944    4.5726   19.4222 C   0  0  0  0  0  0  0  0  0  0  0  0
   51.5928    6.5996   19.2462 C   0  0  0  0  0  0  0  0  0  0  0  0
   47.4973    7.1755   13.8049 C   0  0  0  0  0  0  0  0  0  0  0  0
   46.3820    7.6958   12.9535 C   0  0  0  0  0  0  0  0  0  0  0  0
   47.6975    5.9639   13.8460 O   0  0  0  0  0  0  0  0  0  0  0  0
   50.5168    7.2564   18.3814 C   0  0  0  0  0  0  0  0  0  0  0  0
   49.0821    5.3135   18.5508 C   0  0  0  0  0  0  0  0  0  0  0  0
   46.1507    9.0674   12.7738 C   0  0  0  0  0  0  0  0  0  0  0  0
   45.5444    6.7679   12.3125 C   0  0  0  0  0  0  0  0  0  0  0  0
   44.2735    8.5658   11.3433 C   0  0  0  0  0  0  0  0  0  0  0  0
   44.4895    7.2038   11.5079 C   0  0  0  0  0  0  0  0  0  0  0  0
   45.0932    9.4996   11.9671 C   0  0  0  0  0  0  0  0  0  0  0  0
   43.2631    8.9866   10.5722 F   0  0  0  0  0  0  0  0  0  0  0  0
   48.7491    6.8707   16.7389 C   0  0  0  0  0  0  0  0  0  0  0  0
   53.4554    3.6511   19.4338 C   0  0  0  0  0  0  0  0  0  0  0  0
   54.7937    2.8864   21.8314 C   0  0  0  0  0  0  0  0  0  0  0  0
   49.3853    7.5183   15.4987 C   0  0  0  0  0  0  0  0  0  0  0  0
   48.3449    8.1705   14.5822 C   0  0  0  0  0  0  0  0  0  0  0  0
   54.5791    2.8148   19.4014 C   0  0  0  0  0  0  0  0  0  0  0  0
   55.2412    2.4364   20.5871 C   0  0  0  0  0  0  0  0  0  0  0  0
   53.2868    4.2016   23.8903 H   0  0  0  0  0  0  0  0  0  0  0  0
   50.3024    6.1180   20.8554 H   0  0  0  0  0  0  0  0  0  0  0  0
   49.5647    3.9213   20.1283 H   0  0  0  0  0  0  0  0  0  0  0  0
   50.6963    3.9138   18.7872 H   0  0  0  0  0  0  0  0  0  0  0  0
   52.3454    6.1439   18.5937 H   0  0  0  0  0  0  0  0  0  0  0  0
   52.1144    7.3683   19.8296 H   0  0  0  0  0  0  0  0  0  0  0  0
   49.8523    7.8612   19.0124 H   0  0  0  0  0  0  0  0  0  0  0  0
   51.0270    7.9443   17.6997 H   0  0  0  0  0  0  0  0  0  0  0  0
   48.3586    5.8419   19.1858 H   0  0  0  0  0  0  0  0  0  0  0  0
   48.5234    4.5620   17.9792 H   0  0  0  0  0  0  0  0  0  0  0  0
   46.7772    9.8200   13.2429 H   0  0  0  0  0  0  0  0  0  0  0  0
   45.7109    5.6988   12.4377 H   0  0  0  0  0  0  0  0  0  0  0  0
   43.8398    6.4899   11.0110 H   0  0  0  0  0  0  0  0  0  0  0  0
   44.9042   10.5587   11.8195 H   0  0  0  0  0  0  0  0  0  0  0  0
   48.1482    7.6073   17.2881 H   0  0  0  0  0  0  0  0  0  0  0  0
   48.0530    6.0980   16.3915 H   0  0  0  0  0  0  0  0  0  0  0  0
   52.9613    3.9301   18.5115 H   0  0  0  0  0  0  0  0  0  0  0  0
   55.2972    2.6001   22.7465 H   0  0  0  0  0  0  0  0  0  0  0  0
   50.0866    8.3027   15.8025 H   0  0  0  0  0  0  0  0  0  0  0  0
   49.9635    6.7695   14.9432 H   0  0  0  0  0  0  0  0  0  0  0  0
   48.8784    8.7879   13.8498 H   0  0  0  0  0  0  0  0  0  0  0  0
   47.6904    8.8147   15.1795 H   0  0  0  0  0  0  0  0  0  0  0  0
   54.9475    2.4503   18.4442 H   0  0  0  0  0  0  0  0  0  0  0  0
   56.1111    1.7855   20.5293 H   0  0  0  0  0  0  0  0  0  0  0  0
  2  1  1  0
  3  1  1  0
  4  2  1  0
  5  3  1  0
  6  2  1  0
  7 14  1  0
  8  1  2  0
  9  6  1  0
 10  6  1  0
 11 26  1  0
 12 11  1  0
 13 11  2  0
 14 10  1  0
 15  9  1  0
 16 12  2  0
 17 12  1  0
 18 19  1  0
 19 17  2  0
 20 16  1  0
 21 18  1  0
 22  7  1  0
 23  4  2  0
 24  5  2  0
 25 22  1  0
 26 25  1  0
 27 23  1  0
 28 24  1  0
  5  4  1  0
 28 27  2  0
 15  7  1  0
 20 18  2  0
  3 29  1  0
  6 30  1  0
  9 31  1  0
  9 32  1  0
 10 33  1  0
 10 34  1  0
 14 35  1  0
 14 36  1  0
 15 37  1  0
 15 38  1  0
 16 39  1  0
 17 40  1  0
 19 41  1  0
 20 42  1  0
 22 43  1  0
 22 44  1  0
 23 45  1  0
 24 46  1  0
 25 47  1  0
 25 48  1  0
 26 49  1  0
 26 50  1  0
 27 51  1  0
 28 52  1  0
M  END
> <Uni-Dock RESULT> 
ENERGY=   -4.102  LOWER_BOUND=    8.955  UPPER_BOUND=   10.875
INTER + INTRA:          -4.102
INTER:                  -4.102
INTRA:                   0.000
UNBOUND:                 0.000

$$$$

     RDKit          3D

 52 55  0  0  0  0  0  0  0  0999 V2000
   47.4014    8.7049   19.0698 C   0  0  0  0  0  0  0  0  0  0  0  0
   48.0365    9.3817   18.0026 N   0  0  0  0  0  0  0  0  0  0  0  0
   46.9052    9.6906   19.9330 N   0  0  0  0  0  0  0  0  0  0  0  0
   47.9188   10.7665   18.2243 C   0  0  0  0  0  0  0  0  0  0  0  0
   47.2189   10.9418   19.4202 C   0  0  0  0  0  0  0  0  0  0  0  0
   48.6796    8.7079   16.8908 C   0  0  0  0  0  0  0  0  0  0  0  0
   50.1373    8.5732   14.3677 N   0  0  0  0  0  0  0  0  0  0  0  0
   47.2892    7.5015   19.2352 O   0  0  0  0  0  0  0  0  0  0  0  0
   50.1848    8.9684   16.8149 C   0  0  0  0  0  0  0  0  0  0  0  0
   47.9985    8.9783   15.5481 C   0  0  0  0  0  0  0  0  0  0  0  0
   52.6752    8.1313   10.6366 C   0  0  0  0  0  0  0  0  0  0  0  0
   53.4873    7.4237    9.5976 C   0  0  0  0  0  0  0  0  0  0  0  0
   53.2341    8.9288   11.3858 O   0  0  0  0  0  0  0  0  0  0  0  0
   48.7074    8.2285   14.4202 C   0  0  0  0  0  0  0  0  0  0  0  0
   50.8017    8.2198   15.6350 C   0  0  0  0  0  0  0  0  0  0  0  0
   52.9099    6.5756    8.6413 C   0  0  0  0  0  0  0  0  0  0  0  0
   54.8773    7.6263    9.5866 C   0  0  0  0  0  0  0  0  0  0  0  0
   55.0901    6.1496    7.6994 C   0  0  0  0  0  0  0  0  0  0  0  0
   55.6785    6.9880    8.6373 C   0  0  0  0  0  0  0  0  0  0  0  0
   53.7158    5.9385    7.6925 C   0  0  0  0  0  0  0  0  0  0  0  0
   55.8557    5.5366    6.7880 F   0  0  0  0  0  0  0  0  0  0  0  0
   50.8248    7.9079   13.2432 C   0  0  0  0  0  0  0  0  0  0  0  0
   48.3543   11.8542   17.4976 C   0  0  0  0  0  0  0  0  0  0  0  0
   46.9245   12.1816   19.9415 C   0  0  0  0  0  0  0  0  0  0  0  0
   50.4783    8.5386   11.8850 C   0  0  0  0  0  0  0  0  0  0  0  0
   51.1850    7.8391   10.7193 C   0  0  0  0  0  0  0  0  0  0  0  0
   48.0687   13.1287   18.0050 C   0  0  0  0  0  0  0  0  0  0  0  0
   47.3616   13.2908   19.2138 C   0  0  0  0  0  0  0  0  0  0  0  0
   46.4046    9.4866   20.7816 H   0  0  0  0  0  0  0  0  0  0  0  0
   48.5639    7.6315   17.0820 H   0  0  0  0  0  0  0  0  0  0  0  0
   50.6673    8.6479   17.7464 H   0  0  0  0  0  0  0  0  0  0  0  0
   50.3981   10.0373   16.7092 H   0  0  0  0  0  0  0  0  0  0  0  0
   47.9922   10.0488   15.3157 H   0  0  0  0  0  0  0  0  0  0  0  0
   46.9479    8.6658   15.5928 H   0  0  0  0  0  0  0  0  0  0  0  0
   48.5718    7.1470   14.5517 H   0  0  0  0  0  0  0  0  0  0  0  0
   48.2075    8.5042   13.4862 H   0  0  0  0  0  0  0  0  0  0  0  0
   50.7513    7.1371   15.8120 H   0  0  0  0  0  0  0  0  0  0  0  0
   51.8636    8.4913   15.5883 H   0  0  0  0  0  0  0  0  0  0  0  0
   51.8396    6.3960    8.6071 H   0  0  0  0  0  0  0  0  0  0  0  0
   55.3429    8.2841   10.3193 H   0  0  0  0  0  0  0  0  0  0  0  0
   56.7531    7.1418    8.6255 H   0  0  0  0  0  0  0  0  0  0  0  0
   53.2808    5.2801    6.9465 H   0  0  0  0  0  0  0  0  0  0  0  0
   50.5983    6.8337   13.2338 H   0  0  0  0  0  0  0  0  0  0  0  0
   51.9084    7.9963   13.3850 H   0  0  0  0  0  0  0  0  0  0  0  0
   48.8986   11.7515   16.5671 H   0  0  0  0  0  0  0  0  0  0  0  0
   46.3807   12.2983   20.8708 H   0  0  0  0  0  0  0  0  0  0  0  0
   49.4010    8.4663   11.7012 H   0  0  0  0  0  0  0  0  0  0  0  0
   50.7304    9.6062   11.8955 H   0  0  0  0  0  0  0  0  0  0  0  0
   50.7302    8.1924    9.7864 H   0  0  0  0  0  0  0  0  0  0  0  0
   51.0322    6.7573   10.8008 H   0  0  0  0  0  0  0  0  0  0  0  0
   48.3987   14.0092   17.4568 H   0  0  0  0  0  0  0  0  0  0  0  0
   47.1554   14.2936   19.5821 H   0  0  0  0  0  0  0  0  0  0  0  0
  2  1  1  0
  3  1  1  0
  4  2  1  0
  5  3  1  0
  6  2  1  0
  7 14  1  0
  8  1  2  0
  9  6  1  0
 10  6  1  0
 11 26  1  0
 12 11  1  0
 13 11  2  0
 14 10  1  0
 15  9  1  0
 16 12  2  0
 17 12  1  0
 18 19  1  0
 19 17  2  0
 20 16  1  0
 21 18  1  0
 22  7  1  0
 23  4  2  0
 24  5  2  0
 25 22  1  0
 26 25  1  0
 27 23  1  0
 28 24  1  0
  5  4  1  0
 28 27  2  0
 15  7  1  0
 20 18  2  0
  3 29  1  0
  6 30  1  0
  9 31  1  0
  9 32  1  0
 10 33  1  0
 10 34  1  0
 14 35  1  0
 14 36  1  0
 15 37  1  0
 15 38  1  0
 16 39  1  0
 17 40  1  0
 19 41  1  0
 20 42  1  0
 22 43  1  0
 22 44  1  0
 23 45  1  0
 24 46  1  0
 25 47  1  0
 25 48  1  0
 26 49  1  0
 26 50  1  0
 27 51  1  0
 28 52  1  0
M  END
> <Uni-Dock RESULT> 
ENERGY=   -4.043  LOWER_BOUND=    7.682  UPPER_BOUND=   10.838
INTER + INTRA:          -4.043
INTER:                  -4.043
INTRA:                   0.000
UNBOUND:                 0.000

$$$$

     RDKit          3D

 52 55  0  0  0  0  0  0  0  0999 V2000
   53.0263   10.7091    9.6486 C   0  0  0  0  0  0  0  0  0  0  0  0
   52.6242    9.4713   10.2022 N   0  0  0  0  0  0  0  0  0  0  0  0
   53.5426   10.4321    8.3760 N   0  0  0  0  0  0  0  0  0  0  0  0
   52.8958    8.4579    9.2642 C   0  0  0  0  0  0  0  0  0  0  0  0
   53.4634    9.0661    8.1423 C   0  0  0  0  0  0  0  0  0  0  0  0
   52.0319    9.3324   11.5189 C   0  0  0  0  0  0  0  0  0  0  0  0
   50.8510    7.8614   13.7440 N   0  0  0  0  0  0  0  0  0  0  0  0
   52.9511   11.8172   10.1531 O   0  0  0  0  0  0  0  0  0  0  0  0
   52.8855    8.5054   12.4817 C   0  0  0  0  0  0  0  0  0  0  0  0
   50.5885    8.8275   11.4790 C   0  0  0  0  0  0  0  0  0  0  0  0
   49.3005    5.7402   17.4391 C   0  0  0  0  0  0  0  0  0  0  0  0
   48.8619    5.5936   18.8623 C   0  0  0  0  0  0  0  0  0  0  0  0
   50.3227    5.1665   17.0706 O   0  0  0  0  0  0  0  0  0  0  0  0
   50.0130    8.7197   12.8912 C   0  0  0  0  0  0  0  0  0  0  0  0
   52.2144    8.4111   13.8505 C   0  0  0  0  0  0  0  0  0  0  0  0
   47.6571    6.1326   19.3367 C   0  0  0  0  0  0  0  0  0  0  0  0
   49.6930    4.8853   19.7461 C   0  0  0  0  0  0  0  0  0  0  0  0
   48.1324    5.2645   21.5372 C   0  0  0  0  0  0  0  0  0  0  0  0
   49.3278    4.7218   21.0841 C   0  0  0  0  0  0  0  0  0  0  0  0
   47.2952    5.9665   20.6773 C   0  0  0  0  0  0  0  0  0  0  0  0
   47.7797    5.1091   22.8194 F   0  0  0  0  0  0  0  0  0  0  0  0
   50.2756    7.6932   15.0932 C   0  0  0  0  0  0  0  0  0  0  0  0
   52.6976    7.0940    9.3008 C   0  0  0  0  0  0  0  0  0  0  0  0
   53.8542    8.3623    7.0253 C   0  0  0  0  0  0  0  0  0  0  0  0
   49.0587    6.7543   15.1015 C   0  0  0  0  0  0  0  0  0  0  0  0
   48.4576    6.5904   16.5014 C   0  0  0  0  0  0  0  0  0  0  0  0
   53.0865    6.3524    8.1774 C   0  0  0  0  0  0  0  0  0  0  0  0
   53.6587    6.9796    7.0518 C   0  0  0  0  0  0  0  0  0  0  0  0
   53.9042   11.1376    7.7565 H   0  0  0  0  0  0  0  0  0  0  0  0
   51.9903   10.3469   11.9401 H   0  0  0  0  0  0  0  0  0  0  0  0
   53.8770    8.9621   12.5889 H   0  0  0  0  0  0  0  0  0  0  0  0
   53.0519    7.4940   12.0962 H   0  0  0  0  0  0  0  0  0  0  0  0
   50.5248    7.8482   10.9924 H   0  0  0  0  0  0  0  0  0  0  0  0
   49.9707    9.5097   10.8822 H   0  0  0  0  0  0  0  0  0  0  0  0
   49.9113    9.7221   13.3274 H   0  0  0  0  0  0  0  0  0  0  0  0
   49.0039    8.3060   12.7970 H   0  0  0  0  0  0  0  0  0  0  0  0
   52.1991    9.4000   14.3279 H   0  0  0  0  0  0  0  0  0  0  0  0
   52.8324    7.7577   14.4788 H   0  0  0  0  0  0  0  0  0  0  0  0
   46.9801    6.6803   18.6880 H   0  0  0  0  0  0  0  0  0  0  0  0
   50.6306    4.4568   19.3948 H   0  0  0  0  0  0  0  0  0  0  0  0
   49.9673    4.1753   21.7703 H   0  0  0  0  0  0  0  0  0  0  0  0
   46.3647    6.3784   21.0566 H   0  0  0  0  0  0  0  0  0  0  0  0
   50.0086    8.6676   15.5229 H   0  0  0  0  0  0  0  0  0  0  0  0
   51.0358    7.2596   15.7537 H   0  0  0  0  0  0  0  0  0  0  0  0
   52.2598    6.5930   10.1551 H   0  0  0  0  0  0  0  0  0  0  0  0
   54.2930    8.8511    6.1642 H   0  0  0  0  0  0  0  0  0  0  0  0
   48.2705    7.1552   14.4553 H   0  0  0  0  0  0  0  0  0  0  0  0
   49.3409    5.7760   14.6932 H   0  0  0  0  0  0  0  0  0  0  0  0
   47.4850    6.0953   16.3965 H   0  0  0  0  0  0  0  0  0  0  0  0
   48.3057    7.5794   16.9475 H   0  0  0  0  0  0  0  0  0  0  0  0
   52.9450    5.2732    8.1733 H   0  0  0  0  0  0  0  0  0  0  0  0
   53.9507    6.3764    6.1946 H   0  0  0  0  0  0  0  0  0  0  0  0
  2  1  1  0
  3  1  1  0
  4  2  1  0
  5  3  1  0
  6  2  1  0
  7 14  1  0
  8  1  2  0
  9  6  1  0
 10  6  1  0
 11 26  1  0
 12 11  1  0
 13 11  2  0
 14 10  1  0
 15  9  1  0
 16 12  2  0
 17 12  1  0
 18 19  1  0
 19 17  2  0
 20 16  1  0
 21 18  1  0
 22  7  1  0
 23  4  2  0
 24  5  2  0
 25 22  1  0
 26 25  1  0
 27 23  1  0
 28 24  1  0
  5  4  1  0
 28 27  2  0
 15  7  1  0
 20 18  2  0
  3 29  1  0
  6 30  1  0
  9 31  1  0
  9 32  1  0
 10 33  1  0
 10 34  1  0
 14 35  1  0
 14 36  1  0
 15 37  1  0
 15 38  1  0
 16 39  1  0
 17 40  1  0
 19 41  1  0
 20 42  1  0
 22 43  1  0
 22 44  1  0
 23 45  1  0
 24 46  1  0
 25 47  1  0
 25 48  1  0
 26 49  1  0
 26 50  1  0
 27 51  1  0
 28 52  1  0
M  END
> <Uni-Dock RESULT> 
ENERGY=   -3.984  LOWER_BOUND=    7.922  UPPER_BOUND=   10.895
INTER + INTRA:          -3.984
INTER:                  -3.984
INTRA:                   0.000
UNBOUND:                 0.000

$$$$

     RDKit          3D

 52 55  0  0  0  0  0  0  0  0999 V2000
   51.5556   14.8354   11.4156 C   0  0  0  0  0  0  0  0  0  0  0  0
   50.4714   14.2727   12.1285 N   0  0  0  0  0  0  0  0  0  0  0  0
   51.7097   16.1460   11.8859 N   0  0  0  0  0  0  0  0  0  0  0  0
   49.9801   15.2411   13.0237 C   0  0  0  0  0  0  0  0  0  0  0  0
   50.7539   16.3926   12.8619 C   0  0  0  0  0  0  0  0  0  0  0  0
   49.9944   12.9173   11.9308 C   0  0  0  0  0  0  0  0  0  0  0  0
   48.2697   10.6213   12.4434 N   0  0  0  0  0  0  0  0  0  0  0  0
   52.2427   14.3097   10.5555 O   0  0  0  0  0  0  0  0  0  0  0  0
   48.5610   12.8519   11.4011 C   0  0  0  0  0  0  0  0  0  0  0  0
   50.1741   12.0304   13.1641 C   0  0  0  0  0  0  0  0  0  0  0  0
   45.5019    7.0525   12.8441 C   0  0  0  0  0  0  0  0  0  0  0  0
   44.9101    5.7216   12.5007 C   0  0  0  0  0  0  0  0  0  0  0  0
   44.8096    8.0601   12.7200 O   0  0  0  0  0  0  0  0  0  0  0  0
   49.6721   10.6128   12.8899 C   0  0  0  0  0  0  0  0  0  0  0  0
   48.1268   11.4013   11.2010 C   0  0  0  0  0  0  0  0  0  0  0  0
   45.5980    4.5171   12.7083 C   0  0  0  0  0  0  0  0  0  0  0  0
   43.6163    5.6886   11.9543 C   0  0  0  0  0  0  0  0  0  0  0  0
   43.7178    3.2885   11.8268 C   0  0  0  0  0  0  0  0  0  0  0  0
   43.0209    4.4713   11.6167 C   0  0  0  0  0  0  0  0  0  0  0  0
   44.9980    3.3003   12.3690 C   0  0  0  0  0  0  0  0  0  0  0  0
   43.1493    2.1199   11.5044 F   0  0  0  0  0  0  0  0  0  0  0  0
   47.7478    9.2558   12.2363 C   0  0  0  0  0  0  0  0  0  0  0  0
   48.9499   15.2082   13.9393 C   0  0  0  0  0  0  0  0  0  0  0  0
   50.5449   17.5441   13.5872 C   0  0  0  0  0  0  0  0  0  0  0  0
   47.4696    8.5247   13.5593 C   0  0  0  0  0  0  0  0  0  0  0  0
   46.9383    7.1043   13.3407 C   0  0  0  0  0  0  0  0  0  0  0  0
   48.7143   16.3667   14.6913 C   0  0  0  0  0  0  0  0  0  0  0  0
   49.5031   17.5222   14.5173 C   0  0  0  0  0  0  0  0  0  0  0  0
   52.4138   16.7798   11.5470 H   0  0  0  0  0  0  0  0  0  0  0  0
   50.6312   12.4842   11.1463 H   0  0  0  0  0  0  0  0  0  0  0  0
   48.4892   13.3920   10.4491 H   0  0  0  0  0  0  0  0  0  0  0  0
   47.8615   13.3417   12.0869 H   0  0  0  0  0  0  0  0  0  0  0  0
   49.6365   12.4383   14.0270 H   0  0  0  0  0  0  0  0  0  0  0  0
   51.2331   11.9961   13.4481 H   0  0  0  0  0  0  0  0  0  0  0  0
   50.3158   10.1296   12.1433 H   0  0  0  0  0  0  0  0  0  0  0  0
   49.7792   10.0474   13.8211 H   0  0  0  0  0  0  0  0  0  0  0  0
   48.7073   10.9466   10.3872 H   0  0  0  0  0  0  0  0  0  0  0  0
   47.0765   11.4099   10.8842 H   0  0  0  0  0  0  0  0  0  0  0  0
   46.5961    4.4940   13.1354 H   0  0  0  0  0  0  0  0  0  0  0  0
   43.0656    6.6137   11.7891 H   0  0  0  0  0  0  0  0  0  0  0  0
   42.0214    4.4416   11.1941 H   0  0  0  0  0  0  0  0  0  0  0  0
   45.5200    2.3610   12.5256 H   0  0  0  0  0  0  0  0  0  0  0  0
   48.4369    8.6698   11.6142 H   0  0  0  0  0  0  0  0  0  0  0  0
   46.8031    9.3151   11.6831 H   0  0  0  0  0  0  0  0  0  0  0  0
   48.3325   14.3312   14.0884 H   0  0  0  0  0  0  0  0  0  0  0  0
   51.1551   18.4280   13.4480 H   0  0  0  0  0  0  0  0  0  0  0  0
   48.3927    8.4392   14.1426 H   0  0  0  0  0  0  0  0  0  0  0  0
   46.7617    9.1054   14.1635 H   0  0  0  0  0  0  0  0  0  0  0  0
   46.9708    6.5787   14.3025 H   0  0  0  0  0  0  0  0  0  0  0  0
   47.5865    6.5815   12.6289 H   0  0  0  0  0  0  0  0  0  0  0  0
   47.9082   16.3754   15.4226 H   0  0  0  0  0  0  0  0  0  0  0  0
   49.2954   18.4065   15.1162 H   0  0  0  0  0  0  0  0  0  0  0  0
  2  1  1  0
  3  1  1  0
  4  2  1  0
  5  3  1  0
  6  2  1  0
  7 14  1  0
  8  1  2  0
  9  6  1  0
 10  6  1  0
 11 26  1  0
 12 11  1  0
 13 11  2  0
 14 10  1  0
 15  9  1  0
 16 12  2  0
 17 12  1  0
 18 19  1  0
 19 17  2  0
 20 16  1  0
 21 18  1  0
 22  7  1  0
 23  4  2  0
 24  5  2  0
 25 22  1  0
 26 25  1  0
 27 23  1  0
 28 24  1  0
  5  4  1  0
 28 27  2  0
 15  7  1  0
 20 18  2  0
  3 29  1  0
  6 30  1  0
  9 31  1  0
  9 32  1  0
 10 33  1  0
 10 34  1  0
 14 35  1  0
 14 36  1  0
 15 37  1  0
 15 38  1  0
 16 39  1  0
 17 40  1  0
 19 41  1  0
 20 42  1  0
 22 43  1  0
 22 44  1  0
 23 45  1  0
 24 46  1  0
 25 47  1  0
 25 48  1  0
 26 49  1  0
 26 50  1  0
 27 51  1  0
 28 52  1  0
M  END
> <Uni-Dock RESULT> 
ENERGY=   -3.982  LOWER_BOUND=    4.925  UPPER_BOUND=   11.315
INTER + INTRA:          -3.982
INTER:                  -3.982
INTRA:                   0.000
UNBOUND:                 0.000

$$$$

     RDKit          3D

 52 55  0  0  0  0  0  0  0  0999 V2000
   48.1705   13.6844   17.4974 C   0  0  0  0  0  0  0  0  0  0  0  0
   48.5352   12.3788   17.0937 N   0  0  0  0  0  0  0  0  0  0  0  0
   47.4058   13.5463   18.6632 N   0  0  0  0  0  0  0  0  0  0  0  0
   47.9936   11.4632   18.0151 C   0  0  0  0  0  0  0  0  0  0  0  0
   47.2984   12.1985   18.9777 C   0  0  0  0  0  0  0  0  0  0  0  0
   49.3389   12.0938   15.9204 C   0  0  0  0  0  0  0  0  0  0  0  0
   50.7441   10.3674   14.0352 N   0  0  0  0  0  0  0  0  0  0  0  0
   48.4512   14.7427   16.9596 O   0  0  0  0  0  0  0  0  0  0  0  0
   48.5928   11.2843   14.8586 C   0  0  0  0  0  0  0  0  0  0  0  0
   50.6904   11.4609   16.2563 C   0  0  0  0  0  0  0  0  0  0  0  0
   52.7098    7.8579   10.8109 C   0  0  0  0  0  0  0  0  0  0  0  0
   53.3818    7.5720    9.5048 C   0  0  0  0  0  0  0  0  0  0  0  0
   51.5836    7.4088   11.0102 O   0  0  0  0  0  0  0  0  0  0  0  0
   51.4982   11.2016   14.9847 C   0  0  0  0  0  0  0  0  0  0  0  0
   49.4876   11.0325   13.6466 C   0  0  0  0  0  0  0  0  0  0  0  0
   54.7022    7.9622    9.2376 C   0  0  0  0  0  0  0  0  0  0  0  0
   52.6557    6.8838    8.5185 C   0  0  0  0  0  0  0  0  0  0  0  0
   54.5463    6.9901    7.0348 C   0  0  0  0  0  0  0  0  0  0  0  0
   53.2386    6.5939    7.2829 C   0  0  0  0  0  0  0  0  0  0  0  0
   55.2821    7.6697    7.9991 C   0  0  0  0  0  0  0  0  0  0  0  0
   55.1078    6.7132    5.8512 F   0  0  0  0  0  0  0  0  0  0  0  0
   51.5342   10.0524   12.8284 C   0  0  0  0  0  0  0  0  0  0  0  0
   48.0519   10.0876   18.0867 C   0  0  0  0  0  0  0  0  0  0  0  0
   46.6401   11.6140   20.0363 C   0  0  0  0  0  0  0  0  0  0  0  0
   52.6277    9.0062   13.0969 C   0  0  0  0  0  0  0  0  0  0  0  0
   53.4525    8.6896   11.8450 C   0  0  0  0  0  0  0  0  0  0  0  0
   47.3903    9.4658   19.1539 C   0  0  0  0  0  0  0  0  0  0  0  0
   46.6919   10.2206   20.1183 C   0  0  0  0  0  0  0  0  0  0  0  0
   47.0133   14.3239   19.1666 H   0  0  0  0  0  0  0  0  0  0  0  0
   49.5618   13.0681   15.4628 H   0  0  0  0  0  0  0  0  0  0  0  0
   47.6902   11.8225   14.5439 H   0  0  0  0  0  0  0  0  0  0  0  0
   48.2545   10.3222   15.2576 H   0  0  0  0  0  0  0  0  0  0  0  0
   50.5623   10.5164   16.7961 H   0  0  0  0  0  0  0  0  0  0  0  0
   51.2573   12.1229   16.9225 H   0  0  0  0  0  0  0  0  0  0  0  0
   51.7814   12.1572   14.5242 H   0  0  0  0  0  0  0  0  0  0  0  0
   52.4247   10.7035   15.2877 H   0  0  0  0  0  0  0  0  0  0  0  0
   49.6923   11.9799   13.1302 H   0  0  0  0  0  0  0  0  0  0  0  0
   48.9292   10.3970   12.9481 H   0  0  0  0  0  0  0  0  0  0  0  0
   55.3035    8.4886    9.9727 H   0  0  0  0  0  0  0  0  0  0  0  0
   51.6303    6.5699    8.7093 H   0  0  0  0  0  0  0  0  0  0  0  0
   52.6808    6.0625    6.5181 H   0  0  0  0  0  0  0  0  0  0  0  0
   56.3038    7.9658    7.7804 H   0  0  0  0  0  0  0  0  0  0  0  0
   51.9748   10.9653   12.4068 H   0  0  0  0  0  0  0  0  0  0  0  0
   50.8655    9.6462   12.0603 H   0  0  0  0  0  0  0  0  0  0  0  0
   48.5828    9.4895   17.3566 H   0  0  0  0  0  0  0  0  0  0  0  0
   46.1057   12.2005   20.7735 H   0  0  0  0  0  0  0  0  0  0  0  0
   53.3229    9.3764   13.8579 H   0  0  0  0  0  0  0  0  0  0  0  0
   52.1757    8.0894   13.4949 H   0  0  0  0  0  0  0  0  0  0  0  0
   54.3329    8.1148   12.1559 H   0  0  0  0  0  0  0  0  0  0  0  0
   53.7851    9.6265   11.3849 H   0  0  0  0  0  0  0  0  0  0  0  0
   47.4155    8.3811   19.2401 H   0  0  0  0  0  0  0  0  0  0  0  0
   46.1879    9.7087   20.9354 H   0  0  0  0  0  0  0  0  0  0  0  0
  2  1  1  0
  3  1  1  0
  4  2  1  0
  5  3  1  0
  6  2  1  0
  7 14  1  0
  8  1  2  0
  9  6  1  0
 10  6  1  0
 11 26  1  0
 12 11  1  0
 13 11  2  0
 14 10  1  0
 15  9  1  0
 16 12  2  0
 17 12  1  0
 18 19  1  0
 19 17  2  0
 20 16  1  0
 21 18  1  0
 22  7  1  0
 23  4  2  0
 24  5  2  0
 25 22  1  0
 26 25  1  0
 27 23  1  0
 28 24  1  0
  5  4  1  0
 28 27  2  0
 15  7  1  0
 20 18  2  0
  3 29  1  0
  6 30  1  0
  9 31  1  0
  9 32  1  0
 10 33  1  0
 10 34  1  0
 14 35  1  0
 14 36  1  0
 15 37  1  0
 15 38  1  0
 16 39  1  0
 17 40  1  0
 19 41  1  0
 20 42  1  0
 22 43  1  0
 22 44  1  0
 23 45  1  0
 24 46  1  0
 25 47  1  0
 25 48  1  0
 26 49  1  0
 26 50  1  0
 27 51  1  0
 28 52  1  0
M  END
> <Uni-Dock RESULT> 
ENERGY=   -3.860  LOWER_BOUND=    7.765  UPPER_BOUND=   11.035
INTER + INTRA:          -3.860
INTER:                  -3.860
INTRA:                   0.000
UNBOUND:                 0.000

$$$$
