
     RDKit          3D

 81 82  0  0  0  0  0  0  0  0999 V2000
   48.5132    7.5731   13.0250 O   0  0  0  0  0  0  0  0  0  0  0  0
   50.2554    9.3878   11.9432 N   0  0  0  0  0  0  0  0  0  0  0  0
   48.8237    9.4485   12.3028 C   0  0  1  0  0  0  0  0  0  0  0  0
   50.2007    8.0690   11.5837 C   0  0  0  0  0  0  0  0  0  0  0  0
   48.6583    8.0487   11.6624 C   0  0  1  0  0  0  0  0  0  0  0  0
   51.2329    9.8100   12.9503 C   0  0  2  0  0  0  0  0  0  0  0  0
   48.8553    9.5889   14.1361 S   0  0  0  0  0  0  0  0  0  0  0  0
   50.4587   10.5255   14.0768 C   0  0  0  0  0  0  0  0  0  0  0  0
   48.0639    6.9691   12.4931 N   0  0  0  0  0  0  0  0  0  0  0  0
   52.3675   10.6542   12.3751 C   0  0  0  0  0  0  0  0  0  0  0  0
   46.7324    7.0015   12.8480 C   0  0  0  0  0  0  0  0  0  0  0  0
   51.0756    7.2485   11.4260 O   0  0  0  0  0  0  0  0  0  0  0  0
   53.3028   11.1112   13.0165 O   0  0  0  0  0  0  0  0  0  0  0  0
   45.9834    7.9021   12.4786 O   0  0  0  0  0  0  0  0  0  0  0  0
   46.2849    5.8578   13.7376 C   0  0  0  0  0  0  0  0  0  0  0  0
   52.2809   10.8981   11.0531 O   0  0  0  0  0  0  0  0  0  0  0  0
   51.1494   10.3885   15.4347 C   0  0  0  0  0  0  0  0  0  0  0  0
   50.1410   11.9985   13.7850 C   0  0  0  0  0  0  0  0  0  0  0  0
   45.3015    4.9368   13.0591 C   0  0  0  0  0  0  0  0  0  0  0  0
   45.7356    3.7658   12.4212 C   0  0  0  0  0  0  0  0  0  0  0  0
   43.9345    5.2508   13.0452 C   0  0  0  0  0  0  0  0  0  0  0  0
   43.0175    4.3996   12.4263 C   0  0  0  0  0  0  0  0  0  0  0  0
   44.8162    2.9160   11.8012 C   0  0  0  0  0  0  0  0  0  0  0  0
   43.4579    3.2314   11.8061 C   0  0  0  0  0  0  0  0  0  0  0  0
   46.4655    7.8998   13.0449 C   0  0  0  0  0  0  0  0  0  0  0  0
   45.5719    6.8051   12.5790 C   0  0  0  0  0  0  0  0  0  0  0  0
   46.2674    9.0788   12.7973 O   0  0  0  0  0  0  0  0  0  0  0  0
   44.4834    7.1409   11.7657 C   0  0  0  0  0  0  0  0  0  0  0  0
   45.7681    5.4663   12.9373 C   0  0  0  0  0  0  0  0  0  0  0  0
   47.5132    7.3980   13.7452 O   0  0  0  0  0  0  0  0  0  0  0  0
   43.8425    4.8023   11.6063 C   0  0  0  0  0  0  0  0  0  0  0  0
   50.4566    9.7793   13.6012 N   0  0  0  0  0  0  0  0  0  0  0  0
   42.9055    3.8289   11.2459 N   0  0  0  0  0  0  0  0  0  0  0  0
   43.6163    6.1465   11.3007 C   0  0  0  0  0  0  0  0  0  0  0  0
   44.8938    4.4790   12.4688 C   0  0  0  0  0  0  0  0  0  0  0  0
   48.4458    8.3692   14.2616 C   0  0  0  0  0  0  0  0  0  0  0  0
   49.4572    8.7778   13.1782 C   0  0  0  0  0  0  0  0  0  0  0  0
   51.3217    9.3351   14.7023 C   0  0  0  0  0  0  0  0  0  0  0  0
   51.1876   10.2830   12.4247 C   0  0  0  0  0  0  0  0  0  0  0  0
   52.2049    8.1227   14.4244 C   0  0  0  0  0  0  0  0  0  0  0  0
   52.1196   11.4518   12.7254 C   0  0  0  0  0  0  0  0  0  0  0  0
   48.7385    8.5146   12.9855 H   0  0  0  0  0  0  0  0  0  0  0  0
   47.5880    7.5420   12.7382 H   0  0  0  0  0  0  0  0  0  0  0  0
   48.2979   10.2593   11.7898 H   0  0  0  0  0  0  0  0  0  0  0  0
   48.2034    8.0659   10.6637 H   0  0  0  0  0  0  0  0  0  0  0  0
   51.7122    8.8999   13.3399 H   0  0  0  0  0  0  0  0  0  0  0  0
   48.6424    6.1905   12.7870 H   0  0  0  0  0  0  0  0  0  0  0  0
   45.8372    6.2912   14.6413 H   0  0  0  0  0  0  0  0  0  0  0  0
   47.1499    5.2814   14.0885 H   0  0  0  0  0  0  0  0  0  0  0  0
   53.0918   11.4032   10.8376 H   0  0  0  0  0  0  0  0  0  0  0  0
   52.1021   10.9296   15.4459 H   0  0  0  0  0  0  0  0  0  0  0  0
   51.3703    9.3420   15.6768 H   0  0  0  0  0  0  0  0  0  0  0  0
   50.5348   10.7990   16.2459 H   0  0  0  0  0  0  0  0  0  0  0  0
   49.6836   12.1399   12.8003 H   0  0  0  0  0  0  0  0  0  0  0  0
   51.0499   12.6089   13.8109 H   0  0  0  0  0  0  0  0  0  0  0  0
   49.4604   12.4172   14.5344 H   0  0  0  0  0  0  0  0  0  0  0  0
   46.7907    3.5015   12.4053 H   0  0  0  0  0  0  0  0  0  0  0  0
   43.5778    6.1658   13.5153 H   0  0  0  0  0  0  0  0  0  0  0  0
   41.9600    4.6518   12.4235 H   0  0  0  0  0  0  0  0  0  0  0  0
   45.1591    2.0069   11.3130 H   0  0  0  0  0  0  0  0  0  0  0  0
   42.7426    2.5704   11.3223 H   0  0  0  0  0  0  0  0  0  0  0  0
   44.2960    8.1801   11.4999 H   0  0  0  0  0  0  0  0  0  0  0  0
   46.5843    5.1745   13.5925 H   0  0  0  0  0  0  0  0  0  0  0  0
   43.2764    2.8843   11.2312 H   0  0  0  0  0  0  0  0  0  0  0  0
   42.3864    4.0487   10.3996 H   0  0  0  0  0  0  0  0  0  0  0  0
   42.7586    6.4360   10.6982 H   0  0  0  0  0  0  0  0  0  0  0  0
   45.0419    3.4493   12.7858 H   0  0  0  0  0  0  0  0  0  0  0  0
   47.9126    9.2376   14.6669 H   0  0  0  0  0  0  0  0  0  0  0  0
   48.9500    7.8774   15.0996 H   0  0  0  0  0  0  0  0  0  0  0  0
   49.9415    7.8792   12.7747 H   0  0  0  0  0  0  0  0  0  0  0  0
   48.8806    9.1877   12.3390 H   0  0  0  0  0  0  0  0  0  0  0  0
   50.7056    9.1258   15.5839 H   0  0  0  0  0  0  0  0  0  0  0  0
   51.9584   10.1662   15.0275 H   0  0  0  0  0  0  0  0  0  0  0  0
   51.7515    9.4805   11.9320 H   0  0  0  0  0  0  0  0  0  0  0  0
   50.4579   10.6506   11.6907 H   0  0  0  0  0  0  0  0  0  0  0  0
   52.8787    8.2909   13.5794 H   0  0  0  0  0  0  0  0  0  0  0  0
   52.8263    7.9136   15.3024 H   0  0  0  0  0  0  0  0  0  0  0  0
   51.6138    7.2246   14.2244 H   0  0  0  0  0  0  0  0  0  0  0  0
   53.0006   11.1326   13.2925 H   0  0  0  0  0  0  0  0  0  0  0  0
   51.6030   12.2352   13.2907 H   0  0  0  0  0  0  0  0  0  0  0  0
   52.4757   11.8938   11.7884 H   0  0  0  0  0  0  0  0  0  0  0  0
  3  2  1  0
  4  2  1  0
  5  4  1  0
  6  2  1  0
  3  7  1  0
  8  6  1  0
  5  9  1  0
  6 10  1  0
 11  9  1  0
 12  4  2  0
 13 10  2  0
 14 11  2  0
 15 11  1  0
 16 10  1  0
 17  8  1  0
 18  8  1  0
 19 15  1  0
 20 19  2  0
 21 19  1  0
 22 21  2  0
 23 20  1  0
 24 22  1  0
  7  8  1  0
  5  3  1  0
 24 23  2  0
 26 25  1  0
 27 25  2  0
 28 26  2  0
 29 26  1  0
 30 25  1  0
 31 35  1  0
 32 37  1  0
 33 31  1  0
 34 28  1  0
 35 29  2  0
 36 30  1  0
 37 36  1  0
 38 32  1  0
 39 32  1  0
 40 38  1  0
 41 39  1  0
 31 34  2  0
  1 42  1  0
  1 43  1  0
  3 44  1  1
  5 45  1  6
  6 46  1  1
  9 47  1  0
 15 48  1  0
 15 49  1  0
 16 50  1  0
 17 51  1  0
 17 52  1  0
 17 53  1  0
 18 54  1  0
 18 55  1  0
 18 56  1  0
 20 57  1  0
 21 58  1  0
 22 59  1  0
 23 60  1  0
 24 61  1  0
 28 62  1  0
 29 63  1  0
 33 64  1  0
 33 65  1  0
 34 66  1  0
 35 67  1  0
 36 68  1  0
 36 69  1  0
 37 70  1  0
 37 71  1  0
 38 72  1  0
 38 73  1  0
 39 74  1  0
 39 75  1  0
 40 76  1  0
 40 77  1  0
 40 78  1  0
 41 79  1  0
 41 80  1  0
 41 81  1  0
M  END
> <Uni-Dock RESULT> 
ENERGY=   -5.786  LOWER_BOUND=    0.000  UPPER_BOUND=    0.000
INTER + INTRA:          -5.786
INTER:                  -5.786
INTRA:                   0.000
UNBOUND:                 0.000

$$$$

     RDKit          3D

 81 82  0  0  0  0  0  0  0  0999 V2000
   48.2631    7.4313   18.3143 O   0  0  0  0  0  0  0  0  0  0  0  0
   49.9441    5.2840   18.0649 N   0  0  0  0  0  0  0  0  0  0  0  0
   49.2912    5.9300   19.2222 C   0  0  1  0  0  0  0  0  0  0  0  0
   50.0945    6.4590   17.3806 C   0  0  0  0  0  0  0  0  0  0  0  0
   49.6771    7.2979   18.6084 C   0  0  1  0  0  0  0  0  0  0  0  0
   49.2454    4.1695   17.4185 C   0  0  2  0  0  0  0  0  0  0  0  0
   47.5477    5.3591   19.0951 S   0  0  0  0  0  0  0  0  0  0  0  0
   48.0881    3.7466   18.3470 C   0  0  0  0  0  0  0  0  0  0  0  0
   48.5934    8.2892   18.3807 N   0  0  0  0  0  0  0  0  0  0  0  0
   50.1680    3.0111   17.0475 C   0  0  0  0  0  0  0  0  0  0  0  0
   47.9632    8.9043   19.4409 C   0  0  0  0  0  0  0  0  0  0  0  0
   50.3237    6.6783   16.2131 O   0  0  0  0  0  0  0  0  0  0  0  0
   49.8180    1.9796   16.4920 O   0  0  0  0  0  0  0  0  0  0  0  0
   48.2816    8.6788   20.6056 O   0  0  0  0  0  0  0  0  0  0  0  0
   46.8458    9.8526   19.0513 C   0  0  0  0  0  0  0  0  0  0  0  0
   51.4596    3.1805   17.3908 O   0  0  0  0  0  0  0  0  0  0  0  0
   46.9093    3.1532   17.5736 C   0  0  0  0  0  0  0  0  0  0  0  0
   48.5064    2.8076   19.4867 C   0  0  0  0  0  0  0  0  0  0  0  0
   47.1561   11.2918   19.3806 C   0  0  0  0  0  0  0  0  0  0  0  0
   47.7031   12.1484   18.4145 C   0  0  0  0  0  0  0  0  0  0  0  0
   46.9134   11.7888   20.6696 C   0  0  0  0  0  0  0  0  0  0  0  0
   47.1905   13.1214   20.9796 C   0  0  0  0  0  0  0  0  0  0  0  0
   47.9810   13.4813   18.7273 C   0  0  0  0  0  0  0  0  0  0  0  0
   47.7224   13.9681   20.0082 C   0  0  0  0  0  0  0  0  0  0  0  0
   47.8403    8.2814   20.1578 C   0  0  0  0  0  0  0  0  0  0  0  0
   47.9406    9.7598   20.2925 C   0  0  0  0  0  0  0  0  0  0  0  0
   48.2010    7.5026   21.0261 O   0  0  0  0  0  0  0  0  0  0  0  0
   48.5341   10.2797   21.4486 C   0  0  0  0  0  0  0  0  0  0  0  0
   47.4502   10.6414   19.3223 C   0  0  0  0  0  0  0  0  0  0  0  0
   47.3237    7.9442   18.9498 O   0  0  0  0  0  0  0  0  0  0  0  0
   48.2197   12.5452   20.6275 C   0  0  0  0  0  0  0  0  0  0  0  0
   48.4423    4.4612   17.9637 N   0  0  0  0  0  0  0  0  0  0  0  0
   48.2257   13.9246   20.8572 N   0  0  0  0  0  0  0  0  0  0  0  0
   48.6534   11.6629   21.6200 C   0  0  0  0  0  0  0  0  0  0  0  0
   47.5724   12.0237   19.5039 C   0  0  0  0  0  0  0  0  0  0  0  0
   47.1658    6.5315   18.7068 C   0  0  0  0  0  0  0  0  0  0  0  0
   48.4911    5.9122   18.2338 C   0  0  0  0  0  0  0  0  0  0  0  0
   47.5067    4.0809   16.8967 C   0  0  0  0  0  0  0  0  0  0  0  0
   49.8092    3.9409   17.7817 C   0  0  0  0  0  0  0  0  0  0  0  0
   47.7990    4.6393   15.5074 C   0  0  0  0  0  0  0  0  0  0  0  0
   49.8871    2.4218   17.6754 C   0  0  0  0  0  0  0  0  0  0  0  0
   48.4825    6.5619   18.6816 H   0  0  0  0  0  0  0  0  0  0  0  0
   48.3326    8.0299   19.0732 H   0  0  0  0  0  0  0  0  0  0  0  0
   49.7847    5.6893   20.1684 H   0  0  0  0  0  0  0  0  0  0  0  0
   50.5440    7.7725   19.0860 H   0  0  0  0  0  0  0  0  0  0  0  0
   48.8469    4.5449   16.4646 H   0  0  0  0  0  0  0  0  0  0  0  0
   48.3275    8.5279   17.4323 H   0  0  0  0  0  0  0  0  0  0  0  0
   45.9356    9.5317   19.5745 H   0  0  0  0  0  0  0  0  0  0  0  0
   46.6160    9.7591   17.9826 H   0  0  0  0  0  0  0  0  0  0  0  0
   51.9163    2.3843   17.0491 H   0  0  0  0  0  0  0  0  0  0  0  0
   47.1834    2.1963   17.1155 H   0  0  0  0  0  0  0  0  0  0  0  0
   46.5775    3.8146   16.7643 H   0  0  0  0  0  0  0  0  0  0  0  0
   46.0487    2.9639   18.2277 H   0  0  0  0  0  0  0  0  0  0  0  0
   49.3767    3.1805   20.0369 H   0  0  0  0  0  0  0  0  0  0  0  0
   48.7664    1.8155   19.1029 H   0  0  0  0  0  0  0  0  0  0  0  0
   47.6922    2.6626   20.2052 H   0  0  0  0  0  0  0  0  0  0  0  0
   47.9130   11.7888   17.4095 H   0  0  0  0  0  0  0  0  0  0  0  0
   46.5095   11.1359   21.4415 H   0  0  0  0  0  0  0  0  0  0  0  0
   46.9965   13.4966   21.9814 H   0  0  0  0  0  0  0  0  0  0  0  0
   48.4002   14.1415   17.9718 H   0  0  0  0  0  0  0  0  0  0  0  0
   47.9399   15.0053   20.2519 H   0  0  0  0  0  0  0  0  0  0  0  0
   48.8952    9.6117   22.2290 H   0  0  0  0  0  0  0  0  0  0  0  0
   46.9558   10.2727   18.4276 H   0  0  0  0  0  0  0  0  0  0  0  0
   48.1890   14.4841   20.0112 H   0  0  0  0  0  0  0  0  0  0  0  0
   48.9598   14.2348   21.4888 H   0  0  0  0  0  0  0  0  0  0  0  0
   49.0875   12.0434   22.5417 H   0  0  0  0  0  0  0  0  0  0  0  0
   47.1546   12.6933   18.7556 H   0  0  0  0  0  0  0  0  0  0  0  0
   46.7792    6.0278   19.6010 H   0  0  0  0  0  0  0  0  0  0  0  0
   46.3985    6.4497   17.9305 H   0  0  0  0  0  0  0  0  0  0  0  0
   48.8611    6.4664   17.3614 H   0  0  0  0  0  0  0  0  0  0  0  0
   49.2322    6.0995   19.0213 H   0  0  0  0  0  0  0  0  0  0  0  0
   46.4910    4.3731   17.1858 H   0  0  0  0  0  0  0  0  0  0  0  0
   47.4489    2.9881   16.8310 H   0  0  0  0  0  0  0  0  0  0  0  0
   50.2962    4.3959   16.9097 H   0  0  0  0  0  0  0  0  0  0  0  0
   50.4092    4.2205   18.6581 H   0  0  0  0  0  0  0  0  0  0  0  0
   48.7863    4.3398   15.1442 H   0  0  0  0  0  0  0  0  0  0  0  0
   47.0583    4.2569   14.7961 H   0  0  0  0  0  0  0  0  0  0  0  0
   47.7366    5.7308   15.4849 H   0  0  0  0  0  0  0  0  0  0  0  0
   49.4882    2.0610   16.7212 H   0  0  0  0  0  0  0  0  0  0  0  0
   49.3377    1.9389   18.4908 H   0  0  0  0  0  0  0  0  0  0  0  0
   50.9318    2.0980   17.7369 H   0  0  0  0  0  0  0  0  0  0  0  0
  3  2  1  0
  4  2  1  0
  5  4  1  0
  6  2  1  0
  3  7  1  0
  8  6  1  0
  5  9  1  0
  6 10  1  0
 11  9  1  0
 12  4  2  0
 13 10  2  0
 14 11  2  0
 15 11  1  0
 16 10  1  0
 17  8  1  0
 18  8  1  0
 19 15  1  0
 20 19  2  0
 21 19  1  0
 22 21  2  0
 23 20  1  0
 24 22  1  0
  7  8  1  0
  5  3  1  0
 24 23  2  0
 26 25  1  0
 27 25  2  0
 28 26  2  0
 29 26  1  0
 30 25  1  0
 31 35  1  0
 32 37  1  0
 33 31  1  0
 34 28  1  0
 35 29  2  0
 36 30  1  0
 37 36  1  0
 38 32  1  0
 39 32  1  0
 40 38  1  0
 41 39  1  0
 31 34  2  0
  1 42  1  0
  1 43  1  0
  3 44  1  1
  5 45  1  6
  6 46  1  1
  9 47  1  0
 15 48  1  0
 15 49  1  0
 16 50  1  0
 17 51  1  0
 17 52  1  0
 17 53  1  0
 18 54  1  0
 18 55  1  0
 18 56  1  0
 20 57  1  0
 21 58  1  0
 22 59  1  0
 23 60  1  0
 24 61  1  0
 28 62  1  0
 29 63  1  0
 33 64  1  0
 33 65  1  0
 34 66  1  0
 35 67  1  0
 36 68  1  0
 36 69  1  0
 37 70  1  0
 37 71  1  0
 38 72  1  0
 38 73  1  0
 39 74  1  0
 39 75  1  0
 40 76  1  0
 40 77  1  0
 40 78  1  0
 41 79  1  0
 41 80  1  0
 41 81  1  0
M  END
> <Uni-Dock RESULT> 
ENERGY=   -5.434  LOWER_BOUND=    5.826  UPPER_BOUND=    9.109
INTER + INTRA:          -5.434
INTER:                  -5.434
INTRA:                   0.000
UNBOUND:                 0.000

$$$$

     RDKit          3D

 81 82  0  0  0  0  0  0  0  0999 V2000
   43.8273   11.3700   10.4883 O   0  0  0  0  0  0  0  0  0  0  0  0
   42.4771   12.2830    8.2877 N   0  0  0  0  0  0  0  0  0  0  0  0
   42.2854   11.1253    9.1854 C   0  0  1  0  0  0  0  0  0  0  0  0
   43.8408   12.2511    8.3919 C   0  0  0  0  0  0  0  0  0  0  0  0
   43.8140   10.8892    9.1199 C   0  0  1  0  0  0  0  0  0  0  0  0
   41.7686   13.5248    8.6107 C   0  0  2  0  0  0  0  0  0  0  0  0
   41.5670   11.8810   10.7002 S   0  0  0  0  0  0  0  0  0  0  0  0
   40.7203   13.1925    9.6928 C   0  0  0  0  0  0  0  0  0  0  0  0
   44.5635   10.8222   10.4015 N   0  0  0  0  0  0  0  0  0  0  0  0
   41.1679   14.2138    7.3879 C   0  0  0  0  0  0  0  0  0  0  0  0
   44.4013    9.7568   11.2609 C   0  0  0  0  0  0  0  0  0  0  0  0
   44.6805   13.0809    8.1275 O   0  0  0  0  0  0  0  0  0  0  0  0
   40.5426   15.2643    7.4054 O   0  0  0  0  0  0  0  0  0  0  0  0
   43.6559    8.8169   10.9971 O   0  0  0  0  0  0  0  0  0  0  0  0
   45.1947    9.8547   12.5496 C   0  0  0  0  0  0  0  0  0  0  0  0
   41.3580   13.5682    6.2209 O   0  0  0  0  0  0  0  0  0  0  0  0
   40.4256   14.3863   10.6027 C   0  0  0  0  0  0  0  0  0  0  0  0
   39.4135   12.6038    9.1437 C   0  0  0  0  0  0  0  0  0  0  0  0
   46.2708    8.8030   12.6575 C   0  0  0  0  0  0  0  0  0  0  0  0
   47.5899    9.0821   12.2724 C   0  0  0  0  0  0  0  0  0  0  0  0
   45.9592    7.5208   13.1332 C   0  0  0  0  0  0  0  0  0  0  0  0
   46.9510    6.5447   13.2434 C   0  0  0  0  0  0  0  0  0  0  0  0
   48.5808    8.1033   12.3822 C   0  0  0  0  0  0  0  0  0  0  0  0
   48.2620    6.8364   12.8698 C   0  0  0  0  0  0  0  0  0  0  0  0
   43.4837    9.4837   11.2780 C   0  0  0  0  0  0  0  0  0  0  0  0
   44.6577    8.6212   11.5810 C   0  0  0  0  0  0  0  0  0  0  0  0
   42.4430    9.0576   10.8026 O   0  0  0  0  0  0  0  0  0  0  0  0
   44.5846    7.2638   11.2477 C   0  0  0  0  0  0  0  0  0  0  0  0
   45.8143    9.1103   12.1991 C   0  0  0  0  0  0  0  0  0  0  0  0
   43.7496   10.7788   11.5808 O   0  0  0  0  0  0  0  0  0  0  0  0
   46.8426    6.9087   12.0725 C   0  0  0  0  0  0  0  0  0  0  0  0
   41.5792   13.0900    9.5065 N   0  0  0  0  0  0  0  0  0  0  0  0
   47.8674    6.0347   12.4485 N   0  0  0  0  0  0  0  0  0  0  0  0
   45.6635    6.4132   11.5107 C   0  0  0  0  0  0  0  0  0  0  0  0
   46.8876    8.2509   12.4601 C   0  0  0  0  0  0  0  0  0  0  0  0
   42.6770   11.7126   11.3409 C   0  0  0  0  0  0  0  0  0  0  0  0
   42.6497   12.1376    9.8636 C   0  0  0  0  0  0  0  0  0  0  0  0
   41.6600   14.3755   10.2130 C   0  0  0  0  0  0  0  0  0  0  0  0
   41.4877   13.2116    8.0405 C   0  0  0  0  0  0  0  0  0  0  0  0
   42.9095   15.2126    9.9576 C   0  0  0  0  0  0  0  0  0  0  0  0
   40.2969   14.0326    7.5579 C   0  0  0  0  0  0  0  0  0  0  0  0
   42.9509   11.4413   10.0813 H   0  0  0  0  0  0  0  0  0  0  0  0
   43.9358   10.4198   10.6445 H   0  0  0  0  0  0  0  0  0  0  0  0
   41.6739   10.3405    8.7303 H   0  0  0  0  0  0  0  0  0  0  0  0
   44.1107   10.0696    8.4528 H   0  0  0  0  0  0  0  0  0  0  0  0
   42.5129   14.2297    9.0091 H   0  0  0  0  0  0  0  0  0  0  0  0
   45.2151   11.5618   10.6372 H   0  0  0  0  0  0  0  0  0  0  0  0
   44.4893    9.7626   13.3856 H   0  0  0  0  0  0  0  0  0  0  0  0
   45.6405   10.8518   12.6529 H   0  0  0  0  0  0  0  0  0  0  0  0
   40.9592   14.1523    5.5434 H   0  0  0  0  0  0  0  0  0  0  0  0
   39.9222   15.1863   10.0485 H   0  0  0  0  0  0  0  0  0  0  0  0
   41.3428   14.8143   11.0247 H   0  0  0  0  0  0  0  0  0  0  0  0
   39.7691   14.1084   11.4370 H   0  0  0  0  0  0  0  0  0  0  0  0
   39.5880   11.7723    8.4530 H   0  0  0  0  0  0  0  0  0  0  0  0
   38.8392   13.3614    8.6002 H   0  0  0  0  0  0  0  0  0  0  0  0
   38.7681   12.2400    9.9506 H   0  0  0  0  0  0  0  0  0  0  0  0
   47.8598   10.0637   11.8889 H   0  0  0  0  0  0  0  0  0  0  0  0
   44.9372    7.2753   13.4174 H   0  0  0  0  0  0  0  0  0  0  0  0
   46.6986    5.5549   13.6155 H   0  0  0  0  0  0  0  0  0  0  0  0
   49.6028    8.3282   12.0867 H   0  0  0  0  0  0  0  0  0  0  0  0
   49.0332    6.0743   12.9540 H   0  0  0  0  0  0  0  0  0  0  0  0
   43.6823    6.8573   10.7933 H   0  0  0  0  0  0  0  0  0  0  0  0
   45.8925   10.1516   12.4998 H   0  0  0  0  0  0  0  0  0  0  0  0
   48.7721    6.4816   12.5570 H   0  0  0  0  0  0  0  0  0  0  0  0
   47.9225    5.1938   11.8794 H   0  0  0  0  0  0  0  0  0  0  0  0
   45.5701    5.3560   11.2735 H   0  0  0  0  0  0  0  0  0  0  0  0
   47.7640    8.6414   12.9722 H   0  0  0  0  0  0  0  0  0  0  0  0
   41.7175   11.2867   11.6582 H   0  0  0  0  0  0  0  0  0  0  0  0
   42.8821   12.5702   11.9894 H   0  0  0  0  0  0  0  0  0  0  0  0
   43.6366   12.5237    9.5775 H   0  0  0  0  0  0  0  0  0  0  0  0
   42.5216   11.2239    9.2690 H   0  0  0  0  0  0  0  0  0  0  0  0
   41.5682   14.2017   11.2910 H   0  0  0  0  0  0  0  0  0  0  0  0
   40.7772   14.9810    9.9762 H   0  0  0  0  0  0  0  0  0  0  0  0
   42.4131   13.6216    7.6159 H   0  0  0  0  0  0  0  0  0  0  0  0
   41.3641   12.2073    7.6134 H   0  0  0  0  0  0  0  0  0  0  0  0
   43.0293   15.4586    8.8987 H   0  0  0  0  0  0  0  0  0  0  0  0
   42.8355   16.1577   10.5073 H   0  0  0  0  0  0  0  0  0  0  0  0
   43.8163   14.7076   10.3020 H   0  0  0  0  0  0  0  0  0  0  0  0
   40.4300   15.1002    7.7636 H   0  0  0  0  0  0  0  0  0  0  0  0
   39.3670   13.6973    8.0302 H   0  0  0  0  0  0  0  0  0  0  0  0
   40.1822   13.9198    6.4743 H   0  0  0  0  0  0  0  0  0  0  0  0
  3  2  1  0
  4  2  1  0
  5  4  1  0
  6  2  1  0
  3  7  1  0
  8  6  1  0
  5  9  1  0
  6 10  1  0
 11  9  1  0
 12  4  2  0
 13 10  2  0
 14 11  2  0
 15 11  1  0
 16 10  1  0
 17  8  1  0
 18  8  1  0
 19 15  1  0
 20 19  2  0
 21 19  1  0
 22 21  2  0
 23 20  1  0
 24 22  1  0
  7  8  1  0
  5  3  1  0
 24 23  2  0
 26 25  1  0
 27 25  2  0
 28 26  2  0
 29 26  1  0
 30 25  1  0
 31 35  1  0
 32 37  1  0
 33 31  1  0
 34 28  1  0
 35 29  2  0
 36 30  1  0
 37 36  1  0
 38 32  1  0
 39 32  1  0
 40 38  1  0
 41 39  1  0
 31 34  2  0
  1 42  1  0
  1 43  1  0
  3 44  1  1
  5 45  1  6
  6 46  1  1
  9 47  1  0
 15 48  1  0
 15 49  1  0
 16 50  1  0
 17 51  1  0
 17 52  1  0
 17 53  1  0
 18 54  1  0
 18 55  1  0
 18 56  1  0
 20 57  1  0
 21 58  1  0
 22 59  1  0
 23 60  1  0
 24 61  1  0
 28 62  1  0
 29 63  1  0
 33 64  1  0
 33 65  1  0
 34 66  1  0
 35 67  1  0
 36 68  1  0
 36 69  1  0
 37 70  1  0
 37 71  1  0
 38 72  1  0
 38 73  1  0
 39 74  1  0
 39 75  1  0
 40 76  1  0
 40 77  1  0
 40 78  1  0
 41 79  1  0
 41 80  1  0
 41 81  1  0
M  END
> <Uni-Dock RESULT> 
ENERGY=   -5.128  LOWER_BOUND=    5.690  UPPER_BOUND=    8.116
INTER + INTRA:          -5.128
INTER:                  -5.128
INTRA:                   0.000
UNBOUND:                 0.000

$$$$

     RDKit          3D

 81 82  0  0  0  0  0  0  0  0999 V2000
   48.3402    8.6929   12.2041 O   0  0  0  0  0  0  0  0  0  0  0  0
   49.8935   10.3222   13.7635 N   0  0  0  0  0  0  0  0  0  0  0  0
   49.7465    8.8555   13.6639 C   0  0  1  0  0  0  0  0  0  0  0  0
   48.5779   10.5629   13.4760 C   0  0  0  0  0  0  0  0  0  0  0  0
   48.2142    9.0670   13.5998 C   0  0  1  0  0  0  0  0  0  0  0  0
   50.9282   10.9637   12.9473 C   0  0  2  0  0  0  0  0  0  0  0  0
   50.6524    8.4452   12.1170 S   0  0  0  0  0  0  0  0  0  0  0  0
   51.8384    9.8487   12.3919 C   0  0  0  0  0  0  0  0  0  0  0  0
   47.4780    8.4795   12.4501 N   0  0  0  0  0  0  0  0  0  0  0  0
   51.7000   12.0494   13.6933 C   0  0  0  0  0  0  0  0  0  0  0  0
   47.3290    7.1147   12.3285 C   0  0  0  0  0  0  0  0  0  0  0  0
   48.0107   11.5706   13.1201 O   0  0  0  0  0  0  0  0  0  0  0  0
   52.5999   12.7281   13.2196 O   0  0  0  0  0  0  0  0  0  0  0  0
   47.7739    6.3353   13.1671 O   0  0  0  0  0  0  0  0  0  0  0  0
   46.5980    6.6652   11.0781 C   0  0  0  0  0  0  0  0  0  0  0  0
   51.3321   12.2286   14.9768 O   0  0  0  0  0  0  0  0  0  0  0  0
   52.4633   10.2242   11.0472 C   0  0  0  0  0  0  0  0  0  0  0  0
   52.9214    9.3743   13.3706 C   0  0  0  0  0  0  0  0  0  0  0  0
   45.2659    6.0229   11.3762 C   0  0  0  0  0  0  0  0  0  0  0  0
   44.0816    6.7728   11.3371 C   0  0  0  0  0  0  0  0  0  0  0  0
   45.1977    4.6630   11.7128 C   0  0  0  0  0  0  0  0  0  0  0  0
   43.9681    4.0598   11.9822 C   0  0  0  0  0  0  0  0  0  0  0  0
   42.8521    6.1674   11.6084 C   0  0  0  0  0  0  0  0  0  0  0  0
   42.7951    4.8113   11.9281 C   0  0  0  0  0  0  0  0  0  0  0  0
   48.1301    6.6696   12.6062 C   0  0  0  0  0  0  0  0  0  0  0  0
   46.7585    6.0930   12.6257 C   0  0  0  0  0  0  0  0  0  0  0  0
   49.0048    6.3469   13.3945 O   0  0  0  0  0  0  0  0  0  0  0  0
   46.4396    5.1793   13.6369 C   0  0  0  0  0  0  0  0  0  0  0  0
   45.7909    6.4140   11.6667 C   0  0  0  0  0  0  0  0  0  0  0  0
   48.2464    7.5964   11.6227 O   0  0  0  0  0  0  0  0  0  0  0  0
   44.1751    4.9746   12.7793 C   0  0  0  0  0  0  0  0  0  0  0  0
   50.9859   10.0746   12.4642 N   0  0  0  0  0  0  0  0  0  0  0  0
   42.9433    4.3128   12.7680 N   0  0  0  0  0  0  0  0  0  0  0  0
   45.1625    4.6118   13.6985 C   0  0  0  0  0  0  0  0  0  0  0  0
   44.5166    5.8393   11.7356 C   0  0  0  0  0  0  0  0  0  0  0  0
   49.5412    8.2188   11.4966 C   0  0  0  0  0  0  0  0  0  0  0  0
   49.6878    9.3717   12.5031 C   0  0  0  0  0  0  0  0  0  0  0  0
   51.2772   10.7255   11.1797 C   0  0  0  0  0  0  0  0  0  0  0  0
   51.1072   10.9643   13.6329 C   0  0  0  0  0  0  0  0  0  0  0  0
   50.3194   11.8313   10.7470 C   0  0  0  0  0  0  0  0  0  0  0  0
   52.4828   11.6036   13.7875 C   0  0  0  0  0  0  0  0  0  0  0  0
   49.2000    8.7676   12.6445 H   0  0  0  0  0  0  0  0  0  0  0  0
   47.9643    7.8748   12.5625 H   0  0  0  0  0  0  0  0  0  0  0  0
   50.1073    8.3377   14.5576 H   0  0  0  0  0  0  0  0  0  0  0  0
   47.6947    8.8551   14.5432 H   0  0  0  0  0  0  0  0  0  0  0  0
   50.4172   11.4809   12.1220 H   0  0  0  0  0  0  0  0  0  0  0  0
   47.0656    9.0927   11.7565 H   0  0  0  0  0  0  0  0  0  0  0  0
   47.2482    5.9596   10.5448 H   0  0  0  0  0  0  0  0  0  0  0  0
   46.4565    7.5082   10.3904 H   0  0  0  0  0  0  0  0  0  0  0  0
   51.8808   12.9757   15.2929 H   0  0  0  0  0  0  0  0  0  0  0  0
   53.1742   11.0500   11.1627 H   0  0  0  0  0  0  0  0  0  0  0  0
   51.7074   10.5488   10.3221 H   0  0  0  0  0  0  0  0  0  0  0  0
   53.0135    9.3833   10.6063 H   0  0  0  0  0  0  0  0  0  0  0  0
   52.5156    9.1369   14.3595 H   0  0  0  0  0  0  0  0  0  0  0  0
   53.6882   10.1434   13.5110 H   0  0  0  0  0  0  0  0  0  0  0  0
   53.4363    8.4827   12.9963 H   0  0  0  0  0  0  0  0  0  0  0  0
   44.1037    7.8321   11.0905 H   0  0  0  0  0  0  0  0  0  0  0  0
   46.1069    4.0667   11.7705 H   0  0  0  0  0  0  0  0  0  0  0  0
   43.9267    3.0044   12.2399 H   0  0  0  0  0  0  0  0  0  0  0  0
   41.9370    6.7536   11.5712 H   0  0  0  0  0  0  0  0  0  0  0  0
   41.8381    4.3405   12.1405 H   0  0  0  0  0  0  0  0  0  0  0  0
   47.1873    4.8934   14.3751 H   0  0  0  0  0  0  0  0  0  0  0  0
   46.0144    7.0952   10.8501 H   0  0  0  0  0  0  0  0  0  0  0  0
   42.2045    4.8236   12.2955 H   0  0  0  0  0  0  0  0  0  0  0  0
   42.6493    3.9721   13.6799 H   0  0  0  0  0  0  0  0  0  0  0  0
   44.9491    3.8791   14.4732 H   0  0  0  0  0  0  0  0  0  0  0  0
   43.7892    6.0742   10.9620 H   0  0  0  0  0  0  0  0  0  0  0  0
   50.3389    7.4751   11.6127 H   0  0  0  0  0  0  0  0  0  0  0  0
   49.5908    8.5906   10.4683 H   0  0  0  0  0  0  0  0  0  0  0  0
   48.8525   10.0728   12.3778 H   0  0  0  0  0  0  0  0  0  0  0  0
   49.5484    8.9437   13.5041 H   0  0  0  0  0  0  0  0  0  0  0  0
   51.3162    9.9662   10.3907 H   0  0  0  0  0  0  0  0  0  0  0  0
   52.2961   11.1297   11.1954 H   0  0  0  0  0  0  0  0  0  0  0  0
   50.3376   11.7468   13.6199 H   0  0  0  0  0  0  0  0  0  0  0  0
   50.9377   10.3721   14.5422 H   0  0  0  0  0  0  0  0  0  0  0  0
   50.2743   12.6441   11.4774 H   0  0  0  0  0  0  0  0  0  0  0  0
   50.6614   12.2612    9.7988 H   0  0  0  0  0  0  0  0  0  0  0  0
   49.3063   11.4531   10.5846 H   0  0  0  0  0  0  0  0  0  0  0  0
   52.6611   12.3716   13.0271 H   0  0  0  0  0  0  0  0  0  0  0  0
   53.2781   10.8531   13.7218 H   0  0  0  0  0  0  0  0  0  0  0  0
   52.5594   12.0886   14.7668 H   0  0  0  0  0  0  0  0  0  0  0  0
  3  2  1  0
  4  2  1  0
  5  4  1  0
  6  2  1  0
  3  7  1  0
  8  6  1  0
  5  9  1  0
  6 10  1  0
 11  9  1  0
 12  4  2  0
 13 10  2  0
 14 11  2  0
 15 11  1  0
 16 10  1  0
 17  8  1  0
 18  8  1  0
 19 15  1  0
 20 19  2  0
 21 19  1  0
 22 21  2  0
 23 20  1  0
 24 22  1  0
  7  8  1  0
  5  3  1  0
 24 23  2  0
 26 25  1  0
 27 25  2  0
 28 26  2  0
 29 26  1  0
 30 25  1  0
 31 35  1  0
 32 37  1  0
 33 31  1  0
 34 28  1  0
 35 29  2  0
 36 30  1  0
 37 36  1  0
 38 32  1  0
 39 32  1  0
 40 38  1  0
 41 39  1  0
 31 34  2  0
  1 42  1  0
  1 43  1  0
  3 44  1  1
  5 45  1  6
  6 46  1  1
  9 47  1  0
 15 48  1  0
 15 49  1  0
 16 50  1  0
 17 51  1  0
 17 52  1  0
 17 53  1  0
 18 54  1  0
 18 55  1  0
 18 56  1  0
 20 57  1  0
 21 58  1  0
 22 59  1  0
 23 60  1  0
 24 61  1  0
 28 62  1  0
 29 63  1  0
 33 64  1  0
 33 65  1  0
 34 66  1  0
 35 67  1  0
 36 68  1  0
 36 69  1  0
 37 70  1  0
 37 71  1  0
 38 72  1  0
 38 73  1  0
 39 74  1  0
 39 75  1  0
 40 76  1  0
 40 77  1  0
 40 78  1  0
 41 79  1  0
 41 80  1  0
 41 81  1  0
M  END
> <Uni-Dock RESULT> 
ENERGY=   -4.982  LOWER_BOUND=    1.423  UPPER_BOUND=    2.741
INTER + INTRA:          -4.982
INTER:                  -4.982
INTRA:                   0.000
UNBOUND:                 0.000

$$$$

     RDKit          3D

 81 82  0  0  0  0  0  0  0  0999 V2000
   48.2744   10.2006   17.9593 O   0  0  0  0  0  0  0  0  0  0  0  0
   48.0377   10.0976   20.6855 N   0  0  0  0  0  0  0  0  0  0  0  0
   48.9017    9.3923   19.7166 C   0  0  1  0  0  0  0  0  0  0  0  0
   46.9757   10.1636   19.8256 C   0  0  0  0  0  0  0  0  0  0  0  0
   47.6542    9.2098   18.8181 C   0  0  1  0  0  0  0  0  0  0  0  0
   48.5468   11.3356   21.2825 C   0  0  2  0  0  0  0  0  0  0  0  0
   50.1480   10.6647   19.2590 S   0  0  0  0  0  0  0  0  0  0  0  0
   50.0509   11.4260   20.9510 C   0  0  0  0  0  0  0  0  0  0  0  0
   47.7304    9.6934   17.4148 N   0  0  0  0  0  0  0  0  0  0  0  0
   48.2561   11.4503   22.7769 C   0  0  0  0  0  0  0  0  0  0  0  0
   48.5313    9.0583   16.4902 C   0  0  0  0  0  0  0  0  0  0  0  0
   45.9790   10.8492   19.8405 O   0  0  0  0  0  0  0  0  0  0  0  0
   48.5723   12.3938   23.4874 O   0  0  0  0  0  0  0  0  0  0  0  0
   49.1918    8.0633   16.7773 O   0  0  0  0  0  0  0  0  0  0  0  0
   48.5424    9.6973   15.1150 C   0  0  0  0  0  0  0  0  0  0  0  0
   47.6079   10.3978   23.3125 O   0  0  0  0  0  0  0  0  0  0  0  0
   50.5401   12.8723   20.8594 C   0  0  0  0  0  0  0  0  0  0  0  0
   50.9527   10.6154   21.8919 C   0  0  0  0  0  0  0  0  0  0  0  0
   47.9215    8.8209   14.0557 C   0  0  0  0  0  0  0  0  0  0  0  0
   46.5748    8.9729   13.6956 C   0  0  0  0  0  0  0  0  0  0  0  0
   48.6849    7.8273   13.4254 C   0  0  0  0  0  0  0  0  0  0  0  0
   48.1197    7.0177   12.4387 C   0  0  0  0  0  0  0  0  0  0  0  0
   46.0107    8.1606   12.7087 C   0  0  0  0  0  0  0  0  0  0  0  0
   46.7833    7.1855   12.0789 C   0  0  0  0  0  0  0  0  0  0  0  0
   49.3507    8.7795   16.9001 C   0  0  0  0  0  0  0  0  0  0  0  0
   48.7152    8.1584   15.7065 C   0  0  0  0  0  0  0  0  0  0  0  0
   50.0402    8.1577   17.6928 O   0  0  0  0  0  0  0  0  0  0  0  0
   48.8675    6.7799   15.5183 C   0  0  0  0  0  0  0  0  0  0  0  0
   47.9934    8.8997   14.7639 C   0  0  0  0  0  0  0  0  0  0  0  0
   49.0356   10.0963   16.9800 O   0  0  0  0  0  0  0  0  0  0  0  0
   47.5153    6.8753   13.5015 C   0  0  0  0  0  0  0  0  0  0  0  0
   49.2646   11.2908   20.5683 N   0  0  0  0  0  0  0  0  0  0  0  0
   47.0438    6.2673   12.3339 N   0  0  0  0  0  0  0  0  0  0  0  0
   48.2867    6.1499   14.4126 C   0  0  0  0  0  0  0  0  0  0  0  0
   47.4179    8.2606   13.6598 C   0  0  0  0  0  0  0  0  0  0  0  0
   49.6069   10.8119   18.0942 C   0  0  0  0  0  0  0  0  0  0  0  0
   48.7610   10.6053   19.3613 C   0  0  0  0  0  0  0  0  0  0  0  0
   49.3183   12.7541   20.4485 C   0  0  0  0  0  0  0  0  0  0  0  0
   48.5376   10.8087   21.7563 C   0  0  0  0  0  0  0  0  0  0  0  0
   47.9873   13.4659   20.2274 C   0  0  0  0  0  0  0  0  0  0  0  0
   49.0999   11.3189   23.0786 C   0  0  0  0  0  0  0  0  0  0  0  0
   48.7663   10.0678   18.7834 H   0  0  0  0  0  0  0  0  0  0  0  0
   48.4562    9.3986   17.4467 H   0  0  0  0  0  0  0  0  0  0  0  0
   49.3195    8.4674   20.1252 H   0  0  0  0  0  0  0  0  0  0  0  0
   47.2181    8.2033   18.8592 H   0  0  0  0  0  0  0  0  0  0  0  0
   48.0053   12.1698   20.8129 H   0  0  0  0  0  0  0  0  0  0  0  0
   47.1720   10.4902   17.1312 H   0  0  0  0  0  0  0  0  0  0  0  0
   49.5857    9.9218   14.8577 H   0  0  0  0  0  0  0  0  0  0  0  0
   48.0323   10.6684   15.1372 H   0  0  0  0  0  0  0  0  0  0  0  0
   47.4610   10.6439   24.2490 H   0  0  0  0  0  0  0  0  0  0  0  0
   50.5020   13.3615   21.8392 H   0  0  0  0  0  0  0  0  0  0  0  0
   49.9236   13.4695   20.1769 H   0  0  0  0  0  0  0  0  0  0  0  0
   51.5791   12.9281   20.5103 H   0  0  0  0  0  0  0  0  0  0  0  0
   50.6072    9.5838   22.0156 H   0  0  0  0  0  0  0  0  0  0  0  0
   50.9873   11.0672   22.8889 H   0  0  0  0  0  0  0  0  0  0  0  0
   51.9850   10.5820   21.5267 H   0  0  0  0  0  0  0  0  0  0  0  0
   45.9543    9.7270   14.1748 H   0  0  0  0  0  0  0  0  0  0  0  0
   49.7265    7.6770   13.7047 H   0  0  0  0  0  0  0  0  0  0  0  0
   48.7214    6.2521   11.9552 H   0  0  0  0  0  0  0  0  0  0  0  0
   44.9672    8.2875   12.4306 H   0  0  0  0  0  0  0  0  0  0  0  0
   46.3437    6.5525   11.3118 H   0  0  0  0  0  0  0  0  0  0  0  0
   49.4503    6.1899   16.2241 H   0  0  0  0  0  0  0  0  0  0  0  0
   47.8821    9.9762   14.8623 H   0  0  0  0  0  0  0  0  0  0  0  0
   46.2673    6.7551   11.8989 H   0  0  0  0  0  0  0  0  0  0  0  0
   46.8629    5.2714   12.4310 H   0  0  0  0  0  0  0  0  0  0  0  0
   48.4473    5.0838   14.2699 H   0  0  0  0  0  0  0  0  0  0  0  0
   46.8902    8.8582   12.9199 H   0  0  0  0  0  0  0  0  0  0  0  0
   50.6504   10.5124   18.2500 H   0  0  0  0  0  0  0  0  0  0  0  0
   49.6122   11.8653   17.7967 H   0  0  0  0  0  0  0  0  0  0  0  0
   47.7193   10.8820   19.1527 H   0  0  0  0  0  0  0  0  0  0  0  0
   48.7319    9.5254   19.5553 H   0  0  0  0  0  0  0  0  0  0  0  0
   50.0006   13.0251   19.6351 H   0  0  0  0  0  0  0  0  0  0  0  0
   49.7999   13.1780   21.3374 H   0  0  0  0  0  0  0  0  0  0  0  0
   47.4685   11.0492   21.6943 H   0  0  0  0  0  0  0  0  0  0  0  0
   48.6118    9.7135   21.7910 H   0  0  0  0  0  0  0  0  0  0  0  0
   47.2777   13.2696   21.0363 H   0  0  0  0  0  0  0  0  0  0  0  0
   48.1527   14.5486   20.1921 H   0  0  0  0  0  0  0  0  0  0  0  0
   47.5230   13.1780   19.2801 H   0  0  0  0  0  0  0  0  0  0  0  0
   48.8877   12.3834   23.2260 H   0  0  0  0  0  0  0  0  0  0  0  0
   50.1832   11.1658   23.1339 H   0  0  0  0  0  0  0  0  0  0  0  0
   48.6414   10.7753   23.9120 H   0  0  0  0  0  0  0  0  0  0  0  0
  3  2  1  0
  4  2  1  0
  5  4  1  0
  6  2  1  0
  3  7  1  0
  8  6  1  0
  5  9  1  0
  6 10  1  0
 11  9  1  0
 12  4  2  0
 13 10  2  0
 14 11  2  0
 15 11  1  0
 16 10  1  0
 17  8  1  0
 18  8  1  0
 19 15  1  0
 20 19  2  0
 21 19  1  0
 22 21  2  0
 23 20  1  0
 24 22  1  0
  7  8  1  0
  5  3  1  0
 24 23  2  0
 26 25  1  0
 27 25  2  0
 28 26  2  0
 29 26  1  0
 30 25  1  0
 31 35  1  0
 32 37  1  0
 33 31  1  0
 34 28  1  0
 35 29  2  0
 36 30  1  0
 37 36  1  0
 38 32  1  0
 39 32  1  0
 40 38  1  0
 41 39  1  0
 31 34  2  0
  1 42  1  0
  1 43  1  0
  3 44  1  1
  5 45  1  6
  6 46  1  1
  9 47  1  0
 15 48  1  0
 15 49  1  0
 16 50  1  0
 17 51  1  0
 17 52  1  0
 17 53  1  0
 18 54  1  0
 18 55  1  0
 18 56  1  0
 20 57  1  0
 21 58  1  0
 22 59  1  0
 23 60  1  0
 24 61  1  0
 28 62  1  0
 29 63  1  0
 33 64  1  0
 33 65  1  0
 34 66  1  0
 35 67  1  0
 36 68  1  0
 36 69  1  0
 37 70  1  0
 37 71  1  0
 38 72  1  0
 38 73  1  0
 39 74  1  0
 39 75  1  0
 40 76  1  0
 40 77  1  0
 40 78  1  0
 41 79  1  0
 41 80  1  0
 41 81  1  0
M  END
> <Uni-Dock RESULT> 
ENERGY=   -4.854  LOWER_BOUND=    5.103  UPPER_BOUND=    7.146
INTER + INTRA:          -4.854
INTER:                  -4.854
INTRA:                   0.000
UNBOUND:                 0.000

$$$$

     RDKit          3D

 81 82  0  0  0  0  0  0  0  0999 V2000
   44.7812   11.8193   10.3645 O   0  0  0  0  0  0  0  0  0  0  0  0
   42.8698   12.3634    8.4806 N   0  0  0  0  0  0  0  0  0  0  0  0
   42.8439   11.6455    9.7716 C   0  0  1  0  0  0  0  0  0  0  0  0
   44.1466   11.9703    8.1861 C   0  0  0  0  0  0  0  0  0  0  0  0
   44.1734   10.9673    9.3603 C   0  0  1  0  0  0  0  0  0  0  0  0
   42.5500   13.7938    8.4859 C   0  0  2  0  0  0  0  0  0  0  0  0
   42.8853   13.0041   11.0102 S   0  0  0  0  0  0  0  0  0  0  0  0
   41.9487   14.1294    9.8665 C   0  0  0  0  0  0  0  0  0  0  0  0
   45.3293   11.0823   10.2873 N   0  0  0  0  0  0  0  0  0  0  0  0
   41.6539   14.2173    7.3246 C   0  0  0  0  0  0  0  0  0  0  0  0
   45.3311   10.4277   11.5003 C   0  0  0  0  0  0  0  0  0  0  0  0
   44.9482   12.3972    7.3869 O   0  0  0  0  0  0  0  0  0  0  0  0
   41.2633   15.3564    7.1132 O   0  0  0  0  0  0  0  0  0  0  0  0
   44.3979    9.7114   11.8534 O   0  0  0  0  0  0  0  0  0  0  0  0
   46.5568   10.6816   12.3565 C   0  0  0  0  0  0  0  0  0  0  0  0
   41.2805   13.2187    6.5010 O   0  0  0  0  0  0  0  0  0  0  0  0
   42.2197   15.5763   10.2824 C   0  0  0  0  0  0  0  0  0  0  0  0
   40.4538   13.8069    9.9973 C   0  0  0  0  0  0  0  0  0  0  0  0
   47.4055    9.4489   12.5464 C   0  0  0  0  0  0  0  0  0  0  0  0
   48.5080    9.2004   11.7163 C   0  0  0  0  0  0  0  0  0  0  0  0
   47.0906    8.5234   13.5522 C   0  0  0  0  0  0  0  0  0  0  0  0
   47.8757    7.3845   13.7392 C   0  0  0  0  0  0  0  0  0  0  0  0
   49.2917    8.0592   11.9043 C   0  0  0  0  0  0  0  0  0  0  0  0
   48.9773    7.1533   12.9167 C   0  0  0  0  0  0  0  0  0  0  0  0
   44.4565   10.4520   11.8894 C   0  0  0  0  0  0  0  0  0  0  0  0
   45.4991    9.4223   12.1474 C   0  0  0  0  0  0  0  0  0  0  0  0
   43.2586   10.2222   11.9437 O   0  0  0  0  0  0  0  0  0  0  0  0
   45.0837    8.1110   12.4062 C   0  0  0  0  0  0  0  0  0  0  0  0
   46.8669    9.7193   12.1594 C   0  0  0  0  0  0  0  0  0  0  0  0
   45.0258   11.6415   11.5720 O   0  0  0  0  0  0  0  0  0  0  0  0
   47.3946    7.3865   12.6062 C   0  0  0  0  0  0  0  0  0  0  0  0
   42.6442   13.7298    9.4930 N   0  0  0  0  0  0  0  0  0  0  0  0
   48.3270    6.4121   12.9761 N   0  0  0  0  0  0  0  0  0  0  0  0
   46.0266    7.1074   12.6524 C   0  0  0  0  0  0  0  0  0  0  0  0
   47.8024    8.7087   12.4089 C   0  0  0  0  0  0  0  0  0  0  0  0
   44.1111   12.7257   11.3117 C   0  0  0  0  0  0  0  0  0  0  0  0
   43.5982   12.6653    9.8636 C   0  0  0  0  0  0  0  0  0  0  0  0
   43.1957   15.0883    9.5860 C   0  0  0  0  0  0  0  0  0  0  0  0
   42.0273   13.4165    8.1917 C   0  0  0  0  0  0  0  0  0  0  0  0
   44.3755   15.4055    8.6723 C   0  0  0  0  0  0  0  0  0  0  0  0
   40.8947   14.3584    7.7978 C   0  0  0  0  0  0  0  0  0  0  0  0
   43.8406   12.0135   10.2370 H   0  0  0  0  0  0  0  0  0  0  0  0
   44.7831   10.9746   10.8394 H   0  0  0  0  0  0  0  0  0  0  0  0
   41.9860   10.9721    9.8581 H   0  0  0  0  0  0  0  0  0  0  0  0
   44.0573    9.9335    9.0102 H   0  0  0  0  0  0  0  0  0  0  0  0
   43.4945   14.3387    8.3422 H   0  0  0  0  0  0  0  0  0  0  0  0
   46.1336   11.6356   10.0150 H   0  0  0  0  0  0  0  0  0  0  0  0
   46.2145   11.0596   13.3286 H   0  0  0  0  0  0  0  0  0  0  0  0
   47.1658   11.4874   11.9283 H   0  0  0  0  0  0  0  0  0  0  0  0
   40.7573   13.6560    5.7980 H   0  0  0  0  0  0  0  0  0  0  0  0
   41.6831   16.2774    9.6335 H   0  0  0  0  0  0  0  0  0  0  0  0
   43.2852   15.8273   10.2167 H   0  0  0  0  0  0  0  0  0  0  0  0
   41.8909   15.7713   11.3111 H   0  0  0  0  0  0  0  0  0  0  0  0
   40.2155   12.7906    9.6669 H   0  0  0  0  0  0  0  0  0  0  0  0
   39.8496   14.4936    9.3951 H   0  0  0  0  0  0  0  0  0  0  0  0
   40.1107   13.9124   11.0323 H   0  0  0  0  0  0  0  0  0  0  0  0
   48.7703    9.8939   10.9202 H   0  0  0  0  0  0  0  0  0  0  0  0
   46.2262    8.6851   14.1943 H   0  0  0  0  0  0  0  0  0  0  0  0
   47.6237    6.6750   14.5234 H   0  0  0  0  0  0  0  0  0  0  0  0
   50.1484    7.8754   11.2603 H   0  0  0  0  0  0  0  0  0  0  0  0
   49.5867    6.2645   13.0621 H   0  0  0  0  0  0  0  0  0  0  0  0
   44.0232    7.8652   12.4309 H   0  0  0  0  0  0  0  0  0  0  0  0
   47.2226   10.7326   11.9937 H   0  0  0  0  0  0  0  0  0  0  0  0
   49.2658    6.5876   12.6328 H   0  0  0  0  0  0  0  0  0  0  0  0
   48.0242    5.4593   12.7903 H   0  0  0  0  0  0  0  0  0  0  0  0
   45.6783    6.1036   12.8842 H   0  0  0  0  0  0  0  0  0  0  0  0
   48.8585    8.9653   12.4485 H   0  0  0  0  0  0  0  0  0  0  0  0
   43.2866   12.7159   12.0347 H   0  0  0  0  0  0  0  0  0  0  0  0
   44.6837   13.6425   11.4843 H   0  0  0  0  0  0  0  0  0  0  0  0
   44.4530   12.6406    9.1753 H   0  0  0  0  0  0  0  0  0  0  0  0
   43.1070   11.6919    9.7373 H   0  0  0  0  0  0  0  0  0  0  0  0
   43.4906   15.2883   10.6222 H   0  0  0  0  0  0  0  0  0  0  0  0
   42.4013   15.8207    9.4009 H   0  0  0  0  0  0  0  0  0  0  0  0
   42.7776   13.3889    7.3910 H   0  0  0  0  0  0  0  0  0  0  0  0
   41.5885   12.4111    8.2457 H   0  0  0  0  0  0  0  0  0  0  0  0
   44.1251   15.2686    7.6164 H   0  0  0  0  0  0  0  0  0  0  0  0
   44.6708   16.4522    8.8060 H   0  0  0  0  0  0  0  0  0  0  0  0
   45.2489   14.7901    8.9052 H   0  0  0  0  0  0  0  0  0  0  0  0
   41.2690   15.3503    7.5229 H   0  0  0  0  0  0  0  0  0  0  0  0
   40.1706   14.4696    8.6123 H   0  0  0  0  0  0  0  0  0  0  0  0
   40.3625   13.9567    6.9285 H   0  0  0  0  0  0  0  0  0  0  0  0
  3  2  1  0
  4  2  1  0
  5  4  1  0
  6  2  1  0
  3  7  1  0
  8  6  1  0
  5  9  1  0
  6 10  1  0
 11  9  1  0
 12  4  2  0
 13 10  2  0
 14 11  2  0
 15 11  1  0
 16 10  1  0
 17  8  1  0
 18  8  1  0
 19 15  1  0
 20 19  2  0
 21 19  1  0
 22 21  2  0
 23 20  1  0
 24 22  1  0
  7  8  1  0
  5  3  1  0
 24 23  2  0
 26 25  1  0
 27 25  2  0
 28 26  2  0
 29 26  1  0
 30 25  1  0
 31 35  1  0
 32 37  1  0
 33 31  1  0
 34 28  1  0
 35 29  2  0
 36 30  1  0
 37 36  1  0
 38 32  1  0
 39 32  1  0
 40 38  1  0
 41 39  1  0
 31 34  2  0
  1 42  1  0
  1 43  1  0
  3 44  1  1
  5 45  1  6
  6 46  1  1
  9 47  1  0
 15 48  1  0
 15 49  1  0
 16 50  1  0
 17 51  1  0
 17 52  1  0
 17 53  1  0
 18 54  1  0
 18 55  1  0
 18 56  1  0
 20 57  1  0
 21 58  1  0
 22 59  1  0
 23 60  1  0
 24 61  1  0
 28 62  1  0
 29 63  1  0
 33 64  1  0
 33 65  1  0
 34 66  1  0
 35 67  1  0
 36 68  1  0
 36 69  1  0
 37 70  1  0
 37 71  1  0
 38 72  1  0
 38 73  1  0
 39 74  1  0
 39 75  1  0
 40 76  1  0
 40 77  1  0
 40 78  1  0
 41 79  1  0
 41 80  1  0
 41 81  1  0
M  END
> <Uni-Dock RESULT> 
ENERGY=   -4.815  LOWER_BOUND=    5.666  UPPER_BOUND=    7.901
INTER + INTRA:          -4.815
INTER:                  -4.815
INTRA:                   0.000
UNBOUND:                 0.000

$$$$

     RDKit          3D

 81 82  0  0  0  0  0  0  0  0999 V2000
   49.8615    8.4172   13.9966 O   0  0  0  0  0  0  0  0  0  0  0  0
   50.6978    9.2905   11.5397 N   0  0  0  0  0  0  0  0  0  0  0  0
   49.4102    8.7722   12.0459 C   0  0  1  0  0  0  0  0  0  0  0  0
   51.4443    8.4957   12.3658 C   0  0  0  0  0  0  0  0  0  0  0  0
   50.2071    7.6781   12.7974 C   0  0  1  0  0  0  0  0  0  0  0  0
   50.9101   10.7405   11.5658 C   0  0  2  0  0  0  0  0  0  0  0  0
   48.7309   10.1901   12.9998 S   0  0  0  0  0  0  0  0  0  0  0  0
   49.5473   11.4037   11.8542 C   0  0  0  0  0  0  0  0  0  0  0  0
   49.9947    7.5447   14.2623 N   0  0  0  0  0  0  0  0  0  0  0  0
   51.5805   11.2763   10.3031 C   0  0  0  0  0  0  0  0  0  0  0  0
   48.8023    7.0685   14.7636 C   0  0  0  0  0  0  0  0  0  0  0  0
   52.6051    8.5611   12.7004 O   0  0  0  0  0  0  0  0  0  0  0  0
   51.8682   12.4469   10.0988 O   0  0  0  0  0  0  0  0  0  0  0  0
   47.8828    6.7171   14.0291 O   0  0  0  0  0  0  0  0  0  0  0  0
   48.7181    7.0368   16.2775 C   0  0  0  0  0  0  0  0  0  0  0  0
   51.8456   10.3487    9.3628 O   0  0  0  0  0  0  0  0  0  0  0  0
   49.6937   12.7380   12.5877 C   0  0  0  0  0  0  0  0  0  0  0  0
   48.6534   11.5690   10.6175 C   0  0  0  0  0  0  0  0  0  0  0  0
   48.6392    5.6359   16.8315 C   0  0  0  0  0  0  0  0  0  0  0  0
   49.7940    4.9676   17.2632 C   0  0  0  0  0  0  0  0  0  0  0  0
   47.4041    4.9756   16.9076 C   0  0  0  0  0  0  0  0  0  0  0  0
   47.3220    3.6823   17.4264 C   0  0  0  0  0  0  0  0  0  0  0  0
   49.7097    3.6727   17.7808 C   0  0  0  0  0  0  0  0  0  0  0  0
   48.4742    3.0315   17.8648 C   0  0  0  0  0  0  0  0  0  0  0  0
   48.0697    7.4036   14.2458 C   0  0  0  0  0  0  0  0  0  0  0  0
   48.0762    6.1435   15.0372 C   0  0  0  0  0  0  0  0  0  0  0  0
   47.4035    7.5571   13.2344 O   0  0  0  0  0  0  0  0  0  0  0  0
   47.3265    5.0609   14.5629 C   0  0  0  0  0  0  0  0  0  0  0  0
   48.7832    6.0096   16.2377 C   0  0  0  0  0  0  0  0  0  0  0  0
   48.9099    8.3173   14.7927 O   0  0  0  0  0  0  0  0  0  0  0  0
   48.0548    3.6967   16.4375 C   0  0  0  0  0  0  0  0  0  0  0  0
   50.0866   10.7702   12.1558 N   0  0  0  0  0  0  0  0  0  0  0  0
   47.9292    2.5357   17.2068 N   0  0  0  0  0  0  0  0  0  0  0  0
   47.3030    3.8545   15.2707 C   0  0  0  0  0  0  0  0  0  0  0  0
   48.7517    4.7993   16.9397 C   0  0  0  0  0  0  0  0  0  0  0  0
   48.9792    9.5896   14.1173 C   0  0  0  0  0  0  0  0  0  0  0  0
   49.9474    9.5175   12.9252 C   0  0  0  0  0  0  0  0  0  0  0  0
   50.6147   11.8976   12.9358 C   0  0  0  0  0  0  0  0  0  0  0  0
   50.8172   10.5081   10.9029 C   0  0  0  0  0  0  0  0  0  0  0  0
   52.0214   11.7307   13.5021 C   0  0  0  0  0  0  0  0  0  0  0  0
   50.8607   11.6965    9.9485 C   0  0  0  0  0  0  0  0  0  0  0  0
   49.5783    8.8719   13.1893 H   0  0  0  0  0  0  0  0  0  0  0  0
   49.2443    7.6742   14.0751 H   0  0  0  0  0  0  0  0  0  0  0  0
   48.7623    8.4069   11.2436 H   0  0  0  0  0  0  0  0  0  0  0  0
   50.1836    6.6949   12.3100 H   0  0  0  0  0  0  0  0  0  0  0  0
   51.6140   10.9514   12.3842 H   0  0  0  0  0  0  0  0  0  0  0  0
   50.7437    7.7909   14.8991 H   0  0  0  0  0  0  0  0  0  0  0  0
   47.8329    7.6131   16.5763 H   0  0  0  0  0  0  0  0  0  0  0  0
   49.5721    7.5627   16.7220 H   0  0  0  0  0  0  0  0  0  0  0  0
   52.3068   10.8382    8.6508 H   0  0  0  0  0  0  0  0  0  0  0  0
   50.1706   13.4874   11.9461 H   0  0  0  0  0  0  0  0  0  0  0  0
   50.3130   12.6434   13.4877 H   0  0  0  0  0  0  0  0  0  0  0  0
   48.7200   13.1438   12.8903 H   0  0  0  0  0  0  0  0  0  0  0  0
   48.5604   10.6418   10.0426 H   0  0  0  0  0  0  0  0  0  0  0  0
   49.0554   12.3307    9.9412 H   0  0  0  0  0  0  0  0  0  0  0  0
   47.6447   11.8953   10.8935 H   0  0  0  0  0  0  0  0  0  0  0  0
   50.7677    5.4493   17.2060 H   0  0  0  0  0  0  0  0  0  0  0  0
   46.4976    5.4671   16.5579 H   0  0  0  0  0  0  0  0  0  0  0  0
   46.3590    3.1808   17.4828 H   0  0  0  0  0  0  0  0  0  0  0  0
   50.6085    3.1623   18.1187 H   0  0  0  0  0  0  0  0  0  0  0  0
   48.4091    2.0231   18.2665 H   0  0  0  0  0  0  0  0  0  0  0  0
   46.7456    5.1541   13.6467 H   0  0  0  0  0  0  0  0  0  0  0  0
   49.3499    6.8397   16.6509 H   0  0  0  0  0  0  0  0  0  0  0  0
   48.7044    2.3755   17.8419 H   0  0  0  0  0  0  0  0  0  0  0  0
   47.7000    1.7052   16.6666 H   0  0  0  0  0  0  0  0  0  0  0  0
   46.6865    3.0389   14.9000 H   0  0  0  0  0  0  0  0  0  0  0  0
   49.2790    4.7252   17.8880 H   0  0  0  0  0  0  0  0  0  0  0  0
   47.9790    9.9165   13.8082 H   0  0  0  0  0  0  0  0  0  0  0  0
   49.3367   10.3024   14.8671 H   0  0  0  0  0  0  0  0  0  0  0  0
   50.9236    9.1530   13.2706 H   0  0  0  0  0  0  0  0  0  0  0  0
   49.5744    8.7320   12.2556 H   0  0  0  0  0  0  0  0  0  0  0  0
   49.9283   12.1193   13.7606 H   0  0  0  0  0  0  0  0  0  0  0  0
   50.5867   12.8098   12.3283 H   0  0  0  0  0  0  0  0  0  0  0  0
   51.8386   10.1593   11.1024 H   0  0  0  0  0  0  0  0  0  0  0  0
   50.3080    9.6976   10.3643 H   0  0  0  0  0  0  0  0  0  0  0  0
   52.7615   11.5528   12.7167 H   0  0  0  0  0  0  0  0  0  0  0  0
   52.3152   12.6461   14.0280 H   0  0  0  0  0  0  0  0  0  0  0  0
   52.0761   10.9108   14.2237 H   0  0  0  0  0  0  0  0  0  0  0  0
   51.5230   12.4878   10.3158 H   0  0  0  0  0  0  0  0  0  0  0  0
   49.8614   12.1180    9.7948 H   0  0  0  0  0  0  0  0  0  0  0  0
   51.2432   11.3761    8.9731 H   0  0  0  0  0  0  0  0  0  0  0  0
  3  2  1  0
  4  2  1  0
  5  4  1  0
  6  2  1  0
  3  7  1  0
  8  6  1  0
  5  9  1  0
  6 10  1  0
 11  9  1  0
 12  4  2  0
 13 10  2  0
 14 11  2  0
 15 11  1  0
 16 10  1  0
 17  8  1  0
 18  8  1  0
 19 15  1  0
 20 19  2  0
 21 19  1  0
 22 21  2  0
 23 20  1  0
 24 22  1  0
  7  8  1  0
  5  3  1  0
 24 23  2  0
 26 25  1  0
 27 25  2  0
 28 26  2  0
 29 26  1  0
 30 25  1  0
 31 35  1  0
 32 37  1  0
 33 31  1  0
 34 28  1  0
 35 29  2  0
 36 30  1  0
 37 36  1  0
 38 32  1  0
 39 32  1  0
 40 38  1  0
 41 39  1  0
 31 34  2  0
  1 42  1  0
  1 43  1  0
  3 44  1  1
  5 45  1  6
  6 46  1  1
  9 47  1  0
 15 48  1  0
 15 49  1  0
 16 50  1  0
 17 51  1  0
 17 52  1  0
 17 53  1  0
 18 54  1  0
 18 55  1  0
 18 56  1  0
 20 57  1  0
 21 58  1  0
 22 59  1  0
 23 60  1  0
 24 61  1  0
 28 62  1  0
 29 63  1  0
 33 64  1  0
 33 65  1  0
 34 66  1  0
 35 67  1  0
 36 68  1  0
 36 69  1  0
 37 70  1  0
 37 71  1  0
 38 72  1  0
 38 73  1  0
 39 74  1  0
 39 75  1  0
 40 76  1  0
 40 77  1  0
 40 78  1  0
 41 79  1  0
 41 80  1  0
 41 81  1  0
M  END
> <Uni-Dock RESULT> 
ENERGY=   -4.795  LOWER_BOUND=    2.832  UPPER_BOUND=    3.997
INTER + INTRA:          -4.795
INTER:                  -4.795
INTRA:                   0.000
UNBOUND:                 0.000

$$$$

     RDKit          3D

 81 82  0  0  0  0  0  0  0  0999 V2000
   49.4092    8.1175   16.9354 O   0  0  0  0  0  0  0  0  0  0  0  0
   51.1248    7.9913   14.8047 N   0  0  0  0  0  0  0  0  0  0  0  0
   50.1055    7.0656   15.3405 C   0  0  1  0  0  0  0  0  0  0  0  0
   51.4699    8.4676   16.0398 C   0  0  0  0  0  0  0  0  0  0  0  0
   50.6442    7.3778   16.7579 C   0  0  1  0  0  0  0  0  0  0  0  0
   50.7103    8.9401   13.7673 C   0  0  2  0  0  0  0  0  0  0  0  0
   48.5203    7.8281   14.8043 S   0  0  0  0  0  0  0  0  0  0  0  0
   49.3179    8.5021   13.2677 C   0  0  0  0  0  0  0  0  0  0  0  0
   49.6782    7.8609   17.7788 N   0  0  0  0  0  0  0  0  0  0  0  0
   51.7303    9.0882   12.6409 C   0  0  0  0  0  0  0  0  0  0  0  0
   48.7136    7.0214   18.2932 C   0  0  0  0  0  0  0  0  0  0  0  0
   52.0740    9.4623   16.3707 O   0  0  0  0  0  0  0  0  0  0  0  0
   51.6116    9.8262   11.6734 O   0  0  0  0  0  0  0  0  0  0  0  0
   48.6261    5.8452   17.9503 O   0  0  0  0  0  0  0  0  0  0  0  0
   47.7714    7.6716   19.2878 C   0  0  0  0  0  0  0  0  0  0  0  0
   52.8265    8.3144   12.7613 O   0  0  0  0  0  0  0  0  0  0  0  0
   48.4825    9.6815   12.7667 C   0  0  0  0  0  0  0  0  0  0  0  0
   49.3492    7.3845   12.2162 C   0  0  0  0  0  0  0  0  0  0  0  0
   47.9195    7.1194   20.6838 C   0  0  0  0  0  0  0  0  0  0  0  0
   48.7403    7.7566   21.6255 C   0  0  0  0  0  0  0  0  0  0  0  0
   47.2456    5.9463   21.0539 C   0  0  0  0  0  0  0  0  0  0  0  0
   47.3714    5.4336   22.3461 C   0  0  0  0  0  0  0  0  0  0  0  0
   48.8659    7.2410   22.9179 C   0  0  0  0  0  0  0  0  0  0  0  0
   48.1798    6.0818   23.2786 C   0  0  0  0  0  0  0  0  0  0  0  0
   48.3707    6.4518   17.6040 C   0  0  0  0  0  0  0  0  0  0  0  0
   48.3859    6.1489   19.0607 C   0  0  0  0  0  0  0  0  0  0  0  0
   48.4356    5.5923   16.7393 O   0  0  0  0  0  0  0  0  0  0  0  0
   48.5431    4.8158   19.4573 C   0  0  0  0  0  0  0  0  0  0  0  0
   48.2310    7.1376   20.0391 C   0  0  0  0  0  0  0  0  0  0  0  0
   48.2992    7.7898   17.3935 O   0  0  0  0  0  0  0  0  0  0  0  0
   48.4720    5.4717   21.7960 C   0  0  0  0  0  0  0  0  0  0  0  0
   49.7641    8.6724   14.0126 N   0  0  0  0  0  0  0  0  0  0  0  0
   48.3686    5.1213   23.1459 N   0  0  0  0  0  0  0  0  0  0  0  0
   48.5661    4.4813   20.8154 C   0  0  0  0  0  0  0  0  0  0  0  0
   48.2531    6.7927   21.3953 C   0  0  0  0  0  0  0  0  0  0  0  0
   48.2648    8.2072   16.0135 C   0  0  0  0  0  0  0  0  0  0  0  0
   49.6858    8.2628   15.4292 C   0  0  0  0  0  0  0  0  0  0  0  0
   49.2516   10.0240   13.7500 C   0  0  0  0  0  0  0  0  0  0  0  0
   51.1239    8.4318   13.4977 C   0  0  0  0  0  0  0  0  0  0  0  0
   49.9820   11.1722   14.4395 C   0  0  0  0  0  0  0  0  0  0  0  0
   51.2679    8.6520   11.9957 C   0  0  0  0  0  0  0  0  0  0  0  0
   49.5120    7.7835   16.0316 H   0  0  0  0  0  0  0  0  0  0  0  0
   49.2053    7.3256   17.4554 H   0  0  0  0  0  0  0  0  0  0  0  0
   50.2567    6.0362   15.0021 H   0  0  0  0  0  0  0  0  0  0  0  0
   51.2884    6.5922   17.1734 H   0  0  0  0  0  0  0  0  0  0  0  0
   50.6480    9.9315   14.2395 H   0  0  0  0  0  0  0  0  0  0  0  0
   49.7419    8.8156   18.1130 H   0  0  0  0  0  0  0  0  0  0  0  0
   46.7458    7.5199   18.9269 H   0  0  0  0  0  0  0  0  0  0  0  0
   47.9173    8.7588   19.3027 H   0  0  0  0  0  0  0  0  0  0  0  0
   53.3898    8.5572   11.9977 H   0  0  0  0  0  0  0  0  0  0  0  0
   48.9168   10.1105   11.8567 H   0  0  0  0  0  0  0  0  0  0  0  0
   48.4277   10.4874   13.5084 H   0  0  0  0  0  0  0  0  0  0  0  0
   47.4565    9.3778   12.5232 H   0  0  0  0  0  0  0  0  0  0  0  0
   49.9745    6.5397   12.5232 H   0  0  0  0  0  0  0  0  0  0  0  0
   49.7460    7.7521   11.2639 H   0  0  0  0  0  0  0  0  0  0  0  0
   48.3442    7.0006   12.0100 H   0  0  0  0  0  0  0  0  0  0  0  0
   49.2847    8.6616   21.3645 H   0  0  0  0  0  0  0  0  0  0  0  0
   46.6202    5.4229   20.3324 H   0  0  0  0  0  0  0  0  0  0  0  0
   46.8427    4.5249   22.6227 H   0  0  0  0  0  0  0  0  0  0  0  0
   49.4999    7.7431   23.6447 H   0  0  0  0  0  0  0  0  0  0  0  0
   48.2788    5.6800   24.2842 H   0  0  0  0  0  0  0  0  0  0  0  0
   48.6354    4.0278   18.7115 H   0  0  0  0  0  0  0  0  0  0  0  0
   48.0754    8.1778   19.7661 H   0  0  0  0  0  0  0  0  0  0  0  0
   48.6062    5.8717   23.7865 H   0  0  0  0  0  0  0  0  0  0  0  0
   48.8397    4.2522   23.3841 H   0  0  0  0  0  0  0  0  0  0  0  0
   48.6555    3.4350   21.0982 H   0  0  0  0  0  0  0  0  0  0  0  0
   48.0966    7.5696   22.1401 H   0  0  0  0  0  0  0  0  0  0  0  0
   47.6111    7.5491   15.4283 H   0  0  0  0  0  0  0  0  0  0  0  0
   47.8059    9.2010   16.0173 H   0  0  0  0  0  0  0  0  0  0  0  0
   50.3152    8.9012   16.0627 H   0  0  0  0  0  0  0  0  0  0  0  0
   50.1138    7.2571   15.5297 H   0  0  0  0  0  0  0  0  0  0  0  0
   48.1915   10.0678   14.0235 H   0  0  0  0  0  0  0  0  0  0  0  0
   49.2444   10.2107   12.6697 H   0  0  0  0  0  0  0  0  0  0  0  0
   51.8657    9.0400   14.0311 H   0  0  0  0  0  0  0  0  0  0  0  0
   51.3871    7.3817   13.6827 H   0  0  0  0  0  0  0  0  0  0  0  0
   51.0405   11.2081   14.1664 H   0  0  0  0  0  0  0  0  0  0  0  0
   49.5332   12.1252   14.1375 H   0  0  0  0  0  0  0  0  0  0  0  0
   49.9058   11.1089   15.5285 H   0  0  0  0  0  0  0  0  0  0  0  0
   51.2221    9.7149   11.7353 H   0  0  0  0  0  0  0  0  0  0  0  0
   50.4871    8.1205   11.4408 H   0  0  0  0  0  0  0  0  0  0  0  0
   52.2380    8.2731   11.6558 H   0  0  0  0  0  0  0  0  0  0  0  0
  3  2  1  0
  4  2  1  0
  5  4  1  0
  6  2  1  0
  3  7  1  0
  8  6  1  0
  5  9  1  0
  6 10  1  0
 11  9  1  0
 12  4  2  0
 13 10  2  0
 14 11  2  0
 15 11  1  0
 16 10  1  0
 17  8  1  0
 18  8  1  0
 19 15  1  0
 20 19  2  0
 21 19  1  0
 22 21  2  0
 23 20  1  0
 24 22  1  0
  7  8  1  0
  5  3  1  0
 24 23  2  0
 26 25  1  0
 27 25  2  0
 28 26  2  0
 29 26  1  0
 30 25  1  0
 31 35  1  0
 32 37  1  0
 33 31  1  0
 34 28  1  0
 35 29  2  0
 36 30  1  0
 37 36  1  0
 38 32  1  0
 39 32  1  0
 40 38  1  0
 41 39  1  0
 31 34  2  0
  1 42  1  0
  1 43  1  0
  3 44  1  1
  5 45  1  6
  6 46  1  1
  9 47  1  0
 15 48  1  0
 15 49  1  0
 16 50  1  0
 17 51  1  0
 17 52  1  0
 17 53  1  0
 18 54  1  0
 18 55  1  0
 18 56  1  0
 20 57  1  0
 21 58  1  0
 22 59  1  0
 23 60  1  0
 24 61  1  0
 28 62  1  0
 29 63  1  0
 33 64  1  0
 33 65  1  0
 34 66  1  0
 35 67  1  0
 36 68  1  0
 36 69  1  0
 37 70  1  0
 37 71  1  0
 38 72  1  0
 38 73  1  0
 39 74  1  0
 39 75  1  0
 40 76  1  0
 40 77  1  0
 40 78  1  0
 41 79  1  0
 41 80  1  0
 41 81  1  0
M  END
> <Uni-Dock RESULT> 
ENERGY=   -4.653  LOWER_BOUND=    4.903  UPPER_BOUND=    6.723
INTER + INTRA:          -4.653
INTER:                  -4.653
INTRA:                   0.000
UNBOUND:                 0.000

$$$$

     RDKit          3D

 81 82  0  0  0  0  0  0  0  0999 V2000
   51.6128    6.0468   17.8776 O   0  0  0  0  0  0  0  0  0  0  0  0
   49.5799    7.5318   16.8000 N   0  0  0  0  0  0  0  0  0  0  0  0
   49.6147    6.2755   17.5768 C   0  0  1  0  0  0  0  0  0  0  0  0
   50.7628    7.2748   16.1628 C   0  0  0  0  0  0  0  0  0  0  0  0
   50.8042    5.8252   16.6940 C   0  0  1  0  0  0  0  0  0  0  0  0
   49.4286    8.7891   17.5379 C   0  0  2  0  0  0  0  0  0  0  0  0
   49.9481    6.8494   19.2917 S   0  0  0  0  0  0  0  0  0  0  0  0
   49.0260    8.4327   18.9840 C   0  0  0  0  0  0  0  0  0  0  0  0
   52.0610    5.4177   17.3746 N   0  0  0  0  0  0  0  0  0  0  0  0
   48.4641    9.7681   16.8729 C   0  0  0  0  0  0  0  0  0  0  0  0
   52.1218    4.2535   18.1100 C   0  0  0  0  0  0  0  0  0  0  0  0
   51.5148    8.0011   15.5539 O   0  0  0  0  0  0  0  0  0  0  0  0
   48.1856   10.8814   17.2947 O   0  0  0  0  0  0  0  0  0  0  0  0
   51.1574    3.5001   18.2147 O   0  0  0  0  0  0  0  0  0  0  0  0
   53.4555    3.9985   18.7852 C   0  0  0  0  0  0  0  0  0  0  0  0
   47.8901    9.3195   15.7397 O   0  0  0  0  0  0  0  0  0  0  0  0
   49.5052    9.4759   19.9948 C   0  0  0  0  0  0  0  0  0  0  0  0
   47.5277    8.1568   19.1704 C   0  0  0  0  0  0  0  0  0  0  0  0
   54.1732    2.7932   18.2301 C   0  0  0  0  0  0  0  0  0  0  0  0
   55.1415    2.9327   17.2255 C   0  0  0  0  0  0  0  0  0  0  0  0
   53.8675    1.5093   18.7050 C   0  0  0  0  0  0  0  0  0  0  0  0
   54.5328    0.3900   18.2020 C   0  0  0  0  0  0  0  0  0  0  0  0
   55.8053    1.8109   16.7225 C   0  0  0  0  0  0  0  0  0  0  0  0
   55.5030    0.5408   17.2123 C   0  0  0  0  0  0  0  0  0  0  0  0
   51.3041    4.1245   18.5913 C   0  0  0  0  0  0  0  0  0  0  0  0
   52.2440    3.0535   18.1628 C   0  0  0  0  0  0  0  0  0  0  0  0
   50.1012    3.9531   18.7107 O   0  0  0  0  0  0  0  0  0  0  0  0
   51.7123    1.8044   17.8223 C   0  0  0  0  0  0  0  0  0  0  0  0
   53.6297    3.2430   18.1070 C   0  0  0  0  0  0  0  0  0  0  0  0
   51.9674    5.2892   18.7994 O   0  0  0  0  0  0  0  0  0  0  0  0
   53.9329    0.9690   17.2965 C   0  0  0  0  0  0  0  0  0  0  0  0
   49.6256    8.2356   18.3638 N   0  0  0  0  0  0  0  0  0  0  0  0
   54.7826   -0.1035   17.0080 N   0  0  0  0  0  0  0  0  0  0  0  0
   52.5554    0.7665   17.4112 C   0  0  0  0  0  0  0  0  0  0  0  0
   54.4651    2.1979   17.6966 C   0  0  0  0  0  0  0  0  0  0  0  0
   51.1598    6.4027   19.2325 C   0  0  0  0  0  0  0  0  0  0  0  0
   50.4864    7.0833   18.0295 C   0  0  0  0  0  0  0  0  0  0  0  0
   50.3359    9.3472   19.0104 C   0  0  0  0  0  0  0  0  0  0  0  0
   48.8368    8.6290   17.1825 C   0  0  0  0  0  0  0  0  0  0  0  0
   51.4360   10.0166   18.1924 C   0  0  0  0  0  0  0  0  0  0  0  0
   47.7830    9.6941   17.4653 C   0  0  0  0  0  0  0  0  0  0  0  0
   50.6923    6.3218   18.0035 H   0  0  0  0  0  0  0  0  0  0  0  0
   51.5703    5.0787   17.8837 H   0  0  0  0  0  0  0  0  0  0  0  0
   48.7002    5.6865   17.4600 H   0  0  0  0  0  0  0  0  0  0  0  0
   50.5324    5.1021   15.9142 H   0  0  0  0  0  0  0  0  0  0  0  0
   50.4076    9.2903   17.5306 H   0  0  0  0  0  0  0  0  0  0  0  0
   52.8883    5.9957   17.2815 H   0  0  0  0  0  0  0  0  0  0  0  0
   53.2683    3.8672   19.8588 H   0  0  0  0  0  0  0  0  0  0  0  0
   54.1017    4.8817   18.7078 H   0  0  0  0  0  0  0  0  0  0  0  0
   47.3459   10.0688   15.4207 H   0  0  0  0  0  0  0  0  0  0  0  0
   48.9841   10.4289   19.8510 H   0  0  0  0  0  0  0  0  0  0  0  0
   50.5786    9.6774   19.8958 H   0  0  0  0  0  0  0  0  0  0  0  0
   49.3166    9.1568   21.0277 H   0  0  0  0  0  0  0  0  0  0  0  0
   47.1394    7.4449   18.4346 H   0  0  0  0  0  0  0  0  0  0  0  0
   46.9433    9.0775   19.0703 H   0  0  0  0  0  0  0  0  0  0  0  0
   47.3153    7.7574   20.1682 H   0  0  0  0  0  0  0  0  0  0  0  0
   55.3919    3.9143   16.8290 H   0  0  0  0  0  0  0  0  0  0  0  0
   53.1036    1.3753   19.4692 H   0  0  0  0  0  0  0  0  0  0  0  0
   54.2894   -0.6003   18.5789 H   0  0  0  0  0  0  0  0  0  0  0  0
   56.5588    1.9269   15.9472 H   0  0  0  0  0  0  0  0  0  0  0  0
   56.0188   -0.3323   16.8198 H   0  0  0  0  0  0  0  0  0  0  0  0
   50.6399    1.6273   17.8875 H   0  0  0  0  0  0  0  0  0  0  0  0
   54.0786    4.1899   18.3945 H   0  0  0  0  0  0  0  0  0  0  0  0
   55.6916    0.1741   16.6521 H   0  0  0  0  0  0  0  0  0  0  0  0
   54.3540   -0.8280   16.4375 H   0  0  0  0  0  0  0  0  0  0  0  0
   52.1222   -0.2048   17.1843 H   0  0  0  0  0  0  0  0  0  0  0  0
   55.5415    2.3531   17.6927 H   0  0  0  0  0  0  0  0  0  0  0  0
   50.4245    6.0780   19.9786 H   0  0  0  0  0  0  0  0  0  0  0  0
   51.8491    7.0898   19.7333 H   0  0  0  0  0  0  0  0  0  0  0  0
   51.2514    7.3596   17.2923 H   0  0  0  0  0  0  0  0  0  0  0  0
   49.8760    6.3205   17.5293 H   0  0  0  0  0  0  0  0  0  0  0  0
   50.7645    9.0001   19.9572 H   0  0  0  0  0  0  0  0  0  0  0  0
   49.6151   10.1122   19.3219 H   0  0  0  0  0  0  0  0  0  0  0  0
   49.4859    8.9626   16.3627 H   0  0  0  0  0  0  0  0  0  0  0  0
   48.2944    7.7475   16.8150 H   0  0  0  0  0  0  0  0  0  0  0  0
   51.0565   10.4262   17.2519 H   0  0  0  0  0  0  0  0  0  0  0  0
   51.8622   10.8486   18.7640 H   0  0  0  0  0  0  0  0  0  0  0  0
   52.2535    9.3264   17.9662 H   0  0  0  0  0  0  0  0  0  0  0  0
   48.2358   10.6751   17.6452 H   0  0  0  0  0  0  0  0  0  0  0  0
   47.1709    9.4253   18.3331 H   0  0  0  0  0  0  0  0  0  0  0  0
   47.1156    9.7949   16.6024 H   0  0  0  0  0  0  0  0  0  0  0  0
  3  2  1  0
  4  2  1  0
  5  4  1  0
  6  2  1  0
  3  7  1  0
  8  6  1  0
  5  9  1  0
  6 10  1  0
 11  9  1  0
 12  4  2  0
 13 10  2  0
 14 11  2  0
 15 11  1  0
 16 10  1  0
 17  8  1  0
 18  8  1  0
 19 15  1  0
 20 19  2  0
 21 19  1  0
 22 21  2  0
 23 20  1  0
 24 22  1  0
  7  8  1  0
  5  3  1  0
 24 23  2  0
 26 25  1  0
 27 25  2  0
 28 26  2  0
 29 26  1  0
 30 25  1  0
 31 35  1  0
 32 37  1  0
 33 31  1  0
 34 28  1  0
 35 29  2  0
 36 30  1  0
 37 36  1  0
 38 32  1  0
 39 32  1  0
 40 38  1  0
 41 39  1  0
 31 34  2  0
  1 42  1  0
  1 43  1  0
  3 44  1  1
  5 45  1  6
  6 46  1  1
  9 47  1  0
 15 48  1  0
 15 49  1  0
 16 50  1  0
 17 51  1  0
 17 52  1  0
 17 53  1  0
 18 54  1  0
 18 55  1  0
 18 56  1  0
 20 57  1  0
 21 58  1  0
 22 59  1  0
 23 60  1  0
 24 61  1  0
 28 62  1  0
 29 63  1  0
 33 64  1  0
 33 65  1  0
 34 66  1  0
 35 67  1  0
 36 68  1  0
 36 69  1  0
 37 70  1  0
 37 71  1  0
 38 72  1  0
 38 73  1  0
 39 74  1  0
 39 75  1  0
 40 76  1  0
 40 77  1  0
 40 78  1  0
 41 79  1  0
 41 80  1  0
 41 81  1  0
M  END
> <Uni-Dock RESULT> 
ENERGY=   -4.579  LOWER_BOUND=    5.930  UPPER_BOUND=    8.433
INTER + INTRA:          -4.579
INTER:                  -4.579
INTRA:                   0.000
UNBOUND:                 0.000

$$$$
