
     RDKit          3D

 81 82  0  0  0  0  0  0  0  0999 V2000
   44.1696    9.3797   10.1350 O   0  0  0  0  0  0  0  0  0  0  0  0
   42.8022   11.8264   10.9318 N   0  0  0  0  0  0  0  0  0  0  0  0
   44.1220   11.5178   11.5044 C   0  0  1  0  0  0  0  0  0  0  0  0
   42.3316   10.5540   11.0838 C   0  0  0  0  0  0  0  0  0  0  0  0
   43.5320   10.1601   11.9752 C   0  0  1  0  0  0  0  0  0  0  0  0
   42.7690   12.5052    9.6407 C   0  0  2  0  0  0  0  0  0  0  0  0
   45.2756   11.4954   10.0728 S   0  0  0  0  0  0  0  0  0  0  0  0
   44.0003   12.0204    8.8344 C   0  0  0  0  0  0  0  0  0  0  0  0
   44.2538    8.9224   11.5860 N   0  0  0  0  0  0  0  0  0  0  0  0
   42.7027   14.0238    9.8321 C   0  0  0  0  0  0  0  0  0  0  0  0
   45.4317    8.5649   12.2028 C   0  0  0  0  0  0  0  0  0  0  0  0
   41.3940    9.9889   10.5705 O   0  0  0  0  0  0  0  0  0  0  0  0
   42.4923   14.8405    8.9463 O   0  0  0  0  0  0  0  0  0  0  0  0
   45.9351    9.2486   13.0922 O   0  0  0  0  0  0  0  0  0  0  0  0
   46.1025    7.3178   11.6558 C   0  0  0  0  0  0  0  0  0  0  0  0
   42.9291   14.4567   11.0899 O   0  0  0  0  0  0  0  0  0  0  0  0
   44.6453   13.0686    7.9190 C   0  0  0  0  0  0  0  0  0  0  0  0
   43.6510   10.7872    7.9819 C   0  0  0  0  0  0  0  0  0  0  0  0
   45.1803    6.1284   11.5309 C   0  0  0  0  0  0  0  0  0  0  0  0
   44.6573    5.5175   12.6797 C   0  0  0  0  0  0  0  0  0  0  0  0
   44.8268    5.6264   10.2706 C   0  0  0  0  0  0  0  0  0  0  0  0
   43.9602    4.5374   10.1634 C   0  0  0  0  0  0  0  0  0  0  0  0
   43.7916    4.4290   12.5686 C   0  0  0  0  0  0  0  0  0  0  0  0
   43.4424    3.9402   11.3112 C   0  0  0  0  0  0  0  0  0  0  0  0
   44.7154    8.6253   11.8132 C   0  0  0  0  0  0  0  0  0  0  0  0
   44.4282    7.1693   11.9244 C   0  0  0  0  0  0  0  0  0  0  0  0
   45.4080    9.2414   12.6077 O   0  0  0  0  0  0  0  0  0  0  0  0
   43.6869    6.4713   10.9637 C   0  0  0  0  0  0  0  0  0  0  0  0
   44.9437    6.4748   13.0250 C   0  0  0  0  0  0  0  0  0  0  0  0
   44.1005    9.1515   10.7255 O   0  0  0  0  0  0  0  0  0  0  0  0
   43.9161    4.4154   12.2441 C   0  0  0  0  0  0  0  0  0  0  0  0
   43.6528   12.4328    8.9107 N   0  0  0  0  0  0  0  0  0  0  0  0
   43.7835    3.0270   12.3291 N   0  0  0  0  0  0  0  0  0  0  0  0
   43.4532    5.0998   11.1171 C   0  0  0  0  0  0  0  0  0  0  0  0
   44.7045    5.1042   13.1694 C   0  0  0  0  0  0  0  0  0  0  0  0
   44.3298   10.5592   10.5425 C   0  0  0  0  0  0  0  0  0  0  0  0
   43.5462   11.0156    9.3023 C   0  0  0  0  0  0  0  0  0  0  0  0
   43.1433   13.3698    9.9284 C   0  0  0  0  0  0  0  0  0  0  0  0
   45.0115   12.8338    8.5038 C   0  0  0  0  0  0  0  0  0  0  0  0
   41.6783   13.1521   10.2933 C   0  0  0  0  0  0  0  0  0  0  0  0
   45.5558   12.0537    7.3119 C   0  0  0  0  0  0  0  0  0  0  0  0
   44.0150    8.8200   10.9107 H   0  0  0  0  0  0  0  0  0  0  0  0
   43.8874   10.2610   10.4224 H   0  0  0  0  0  0  0  0  0  0  0  0
   44.4077   12.2005   12.3095 H   0  0  0  0  0  0  0  0  0  0  0  0
   43.2559   10.1353   13.0370 H   0  0  0  0  0  0  0  0  0  0  0  0
   41.8333   12.2264    9.1389 H   0  0  0  0  0  0  0  0  0  0  0  0
   43.8279    8.2730   10.9314 H   0  0  0  0  0  0  0  0  0  0  0  0
   46.5423    7.5751   10.6845 H   0  0  0  0  0  0  0  0  0  0  0  0
   46.9345    7.0490   12.3185 H   0  0  0  0  0  0  0  0  0  0  0  0
   42.8469   15.4318   11.0311 H   0  0  0  0  0  0  0  0  0  0  0  0
   45.4975   12.6530    7.3673 H   0  0  0  0  0  0  0  0  0  0  0  0
   43.9279   13.4262    7.1714 H   0  0  0  0  0  0  0  0  0  0  0  0
   45.0170   13.9367    8.4751 H   0  0  0  0  0  0  0  0  0  0  0  0
   43.2698    9.9521    8.5781 H   0  0  0  0  0  0  0  0  0  0  0  0
   44.5217   10.4199    7.4248 H   0  0  0  0  0  0  0  0  0  0  0  0
   42.8788   11.0395    7.2455 H   0  0  0  0  0  0  0  0  0  0  0  0
   44.9210    5.8872   13.6696 H   0  0  0  0  0  0  0  0  0  0  0  0
   45.2249    6.0746    9.3623 H   0  0  0  0  0  0  0  0  0  0  0  0
   43.6906    4.1510    9.1834 H   0  0  0  0  0  0  0  0  0  0  0  0
   43.3892    3.9617   13.4645 H   0  0  0  0  0  0  0  0  0  0  0  0
   42.7684    3.0915   11.2264 H   0  0  0  0  0  0  0  0  0  0  0  0
   43.2969    6.9739   10.0821 H   0  0  0  0  0  0  0  0  0  0  0  0
   45.5466    6.9924   13.7688 H   0  0  0  0  0  0  0  0  0  0  0  0
   42.9825    2.6528   11.8294 H   0  0  0  0  0  0  0  0  0  0  0  0
   43.8571    2.6594   13.2723 H   0  0  0  0  0  0  0  0  0  0  0  0
   42.9032    4.5691   10.3434 H   0  0  0  0  0  0  0  0  0  0  0  0
   45.1424    4.5791   14.0149 H   0  0  0  0  0  0  0  0  0  0  0  0
   43.9842   11.0952   11.4331 H   0  0  0  0  0  0  0  0  0  0  0  0
   45.4035   10.7250   10.4036 H   0  0  0  0  0  0  0  0  0  0  0  0
   42.4892   10.7548    9.4420 H   0  0  0  0  0  0  0  0  0  0  0  0
   43.8293   10.3780    8.4553 H   0  0  0  0  0  0  0  0  0  0  0  0
   43.2191   14.3910    9.5336 H   0  0  0  0  0  0  0  0  0  0  0  0
   43.7549   13.3418   10.8381 H   0  0  0  0  0  0  0  0  0  0  0  0
   44.9896   13.8891    8.2025 H   0  0  0  0  0  0  0  0  0  0  0  0
   45.7162   12.7640    9.3410 H   0  0  0  0  0  0  0  0  0  0  0  0
   41.0482   13.1204    9.3986 H   0  0  0  0  0  0  0  0  0  0  0  0
   41.5327   12.2270   10.8575 H   0  0  0  0  0  0  0  0  0  0  0  0
   41.3261   13.9757   10.9231 H   0  0  0  0  0  0  0  0  0  0  0  0
   45.7789   11.0148    7.5720 H   0  0  0  0  0  0  0  0  0  0  0  0
   46.4887   12.5093    6.9635 H   0  0  0  0  0  0  0  0  0  0  0  0
   44.8479   12.0620    6.4769 H   0  0  0  0  0  0  0  0  0  0  0  0
  3  2  1  0
  4  2  1  0
  5  4  1  0
  6  2  1  0
  3  7  1  0
  8  6  1  0
  5  9  1  0
  6 10  1  0
 11  9  1  0
 12  4  2  0
 13 10  2  0
 14 11  2  0
 15 11  1  0
 16 10  1  0
 17  8  1  0
 18  8  1  0
 19 15  1  0
 20 19  2  0
 21 19  1  0
 22 21  2  0
 23 20  1  0
 24 22  1  0
  7  8  1  0
  5  3  1  0
 24 23  2  0
 26 25  1  0
 27 25  2  0
 28 26  2  0
 29 26  1  0
 30 25  1  0
 31 35  1  0
 32 37  1  0
 33 31  1  0
 34 28  1  0
 35 29  2  0
 36 30  1  0
 37 36  1  0
 38 32  1  0
 39 32  1  0
 40 38  1  0
 41 39  1  0
 31 34  2  0
  1 42  1  0
  1 43  1  0
  3 44  1  1
  5 45  1  6
  6 46  1  6
  9 47  1  0
 15 48  1  0
 15 49  1  0
 16 50  1  0
 17 51  1  0
 17 52  1  0
 17 53  1  0
 18 54  1  0
 18 55  1  0
 18 56  1  0
 20 57  1  0
 21 58  1  0
 22 59  1  0
 23 60  1  0
 24 61  1  0
 28 62  1  0
 29 63  1  0
 33 64  1  0
 33 65  1  0
 34 66  1  0
 35 67  1  0
 36 68  1  0
 36 69  1  0
 37 70  1  0
 37 71  1  0
 38 72  1  0
 38 73  1  0
 39 74  1  0
 39 75  1  0
 40 76  1  0
 40 77  1  0
 40 78  1  0
 41 79  1  0
 41 80  1  0
 41 81  1  0
M  END
> <Uni-Dock RESULT> 
ENERGY=   -6.372  LOWER_BOUND=    0.000  UPPER_BOUND=    0.000
INTER + INTRA:          -6.372
INTER:                  -6.372
INTRA:                   0.000
UNBOUND:                 0.000

$$$$

     RDKit          3D

 81 82  0  0  0  0  0  0  0  0999 V2000
   49.0821    8.0724   20.2709 O   0  0  0  0  0  0  0  0  0  0  0  0
   47.3512   10.2252   19.3428 N   0  0  0  0  0  0  0  0  0  0  0  0
   46.7723    9.1166   20.1178 C   0  0  1  0  0  0  0  0  0  0  0  0
   48.1114    9.4068   18.5578 C   0  0  0  0  0  0  0  0  0  0  0  0
   47.3694    8.1471   19.0612 C   0  0  1  0  0  0  0  0  0  0  0  0
   47.9395   11.3337   20.0871 C   0  0  2  0  0  0  0  0  0  0  0  0
   47.5928    9.1968   21.7613 S   0  0  0  0  0  0  0  0  0  0  0  0
   48.5398   10.7461   21.3892 C   0  0  0  0  0  0  0  0  0  0  0  0
   48.2269    7.0378   19.5497 N   0  0  0  0  0  0  0  0  0  0  0  0
   46.9031   12.4384   20.3167 C   0  0  0  0  0  0  0  0  0  0  0  0
   47.6784    5.9387   20.1716 C   0  0  0  0  0  0  0  0  0  0  0  0
   49.0723    9.6432   17.8631 O   0  0  0  0  0  0  0  0  0  0  0  0
   47.1436   13.5546   20.7550 O   0  0  0  0  0  0  0  0  0  0  0  0
   46.4670    5.8287   20.3512 O   0  0  0  0  0  0  0  0  0  0  0  0
   48.6745    4.9165   20.6884 C   0  0  0  0  0  0  0  0  0  0  0  0
   45.6288   12.1026   20.0268 O   0  0  0  0  0  0  0  0  0  0  0  0
   48.4531   11.6516   22.6243 C   0  0  0  0  0  0  0  0  0  0  0  0
   50.0131   10.3482   21.1872 C   0  0  0  0  0  0  0  0  0  0  0  0
   49.7081    4.4963   19.6706 C   0  0  0  0  0  0  0  0  0  0  0  0
   49.3254    3.7634   18.5379 C   0  0  0  0  0  0  0  0  0  0  0  0
   51.0570    4.8400   19.8367 C   0  0  0  0  0  0  0  0  0  0  0  0
   52.0033    4.4625   18.8826 C   0  0  0  0  0  0  0  0  0  0  0  0
   50.2742    3.3876   17.5864 C   0  0  0  0  0  0  0  0  0  0  0  0
   51.6119    3.7380   17.7581 C   0  0  0  0  0  0  0  0  0  0  0  0
   48.1169    6.4938   19.7614 C   0  0  0  0  0  0  0  0  0  0  0  0
   48.9722    5.4676   19.1057 C   0  0  0  0  0  0  0  0  0  0  0  0
   46.9714    6.2858   20.1291 O   0  0  0  0  0  0  0  0  0  0  0  0
   50.3055    5.7099   18.7541 C   0  0  0  0  0  0  0  0  0  0  0  0
   48.4195    4.2061   18.8558 C   0  0  0  0  0  0  0  0  0  0  0  0
   48.7848    7.6677   19.8792 O   0  0  0  0  0  0  0  0  0  0  0  0
   50.4991    3.4634   17.8406 C   0  0  0  0  0  0  0  0  0  0  0  0
   48.3213   11.1896   21.1607 N   0  0  0  0  0  0  0  0  0  0  0  0
   51.2960    2.4282   17.3450 N   0  0  0  0  0  0  0  0  0  0  0  0
   51.0650    4.7044   18.1449 C   0  0  0  0  0  0  0  0  0  0  0  0
   49.1868    3.2079   18.2464 C   0  0  0  0  0  0  0  0  0  0  0  0
   48.0272    8.7160   20.5076 C   0  0  0  0  0  0  0  0  0  0  0  0
   48.8950    9.9836   20.5365 C   0  0  0  0  0  0  0  0  0  0  0  0
   47.1112   11.6901   20.4836 C   0  0  0  0  0  0  0  0  0  0  0  0
   48.0564   11.0405   22.6030 C   0  0  0  0  0  0  0  0  0  0  0  0
   47.3250   12.0475   19.0162 C   0  0  0  0  0  0  0  0  0  0  0  0
   49.2972   10.7210   23.4300 C   0  0  0  0  0  0  0  0  0  0  0  0
   48.8625    7.3723   19.6380 H   0  0  0  0  0  0  0  0  0  0  0  0
   48.4063    8.7491   20.1148 H   0  0  0  0  0  0  0  0  0  0  0  0
   45.6795    9.1452   20.1520 H   0  0  0  0  0  0  0  0  0  0  0  0
   46.6422    7.7847   18.3236 H   0  0  0  0  0  0  0  0  0  0  0  0
   48.7203   11.7825   19.4594 H   0  0  0  0  0  0  0  0  0  0  0  0
   49.2196    7.0332   19.3344 H   0  0  0  0  0  0  0  0  0  0  0  0
   49.1534    5.3393   21.5800 H   0  0  0  0  0  0  0  0  0  0  0  0
   48.1236    4.0265   21.0174 H   0  0  0  0  0  0  0  0  0  0  0  0
   45.1118   12.9114   20.2257 H   0  0  0  0  0  0  0  0  0  0  0  0
   48.9116   11.1810   23.5028 H   0  0  0  0  0  0  0  0  0  0  0  0
   48.9876   12.5934   22.4542 H   0  0  0  0  0  0  0  0  0  0  0  0
   47.4185   11.8925   22.8938 H   0  0  0  0  0  0  0  0  0  0  0  0
   50.1510    9.6240   20.3783 H   0  0  0  0  0  0  0  0  0  0  0  0
   50.4422    9.9082   22.0959 H   0  0  0  0  0  0  0  0  0  0  0  0
   50.6153   11.2303   20.9395 H   0  0  0  0  0  0  0  0  0  0  0  0
   48.2840    3.4813   18.3894 H   0  0  0  0  0  0  0  0  0  0  0  0
   51.3842    5.4000   20.7106 H   0  0  0  0  0  0  0  0  0  0  0  0
   53.0485    4.7302   19.0173 H   0  0  0  0  0  0  0  0  0  0  0  0
   49.9689    2.8205   16.7099 H   0  0  0  0  0  0  0  0  0  0  0  0
   52.3500    3.4437   17.0163 H   0  0  0  0  0  0  0  0  0  0  0  0
   50.7746    6.6687   18.9604 H   0  0  0  0  0  0  0  0  0  0  0  0
   47.3938    3.9875   19.1469 H   0  0  0  0  0  0  0  0  0  0  0  0
   52.0988    2.7402   16.8070 H   0  0  0  0  0  0  0  0  0  0  0  0
   50.7775    1.6931   16.8748 H   0  0  0  0  0  0  0  0  0  0  0  0
   52.1084    4.9015   17.9095 H   0  0  0  0  0  0  0  0  0  0  0  0
   48.7468    2.2256   18.0920 H   0  0  0  0  0  0  0  0  0  0  0  0
   47.1130    8.8904   19.9299 H   0  0  0  0  0  0  0  0  0  0  0  0
   47.7687    8.4016   21.5244 H   0  0  0  0  0  0  0  0  0  0  0  0
   49.2054   10.2174   19.5100 H   0  0  0  0  0  0  0  0  0  0  0  0
   49.8520    9.7417   21.0156 H   0  0  0  0  0  0  0  0  0  0  0  0
   46.7840   12.6097   20.9854 H   0  0  0  0  0  0  0  0  0  0  0  0
   46.2825   10.9772   20.5696 H   0  0  0  0  0  0  0  0  0  0  0  0
   47.6617   11.9903   22.9864 H   0  0  0  0  0  0  0  0  0  0  0  0
   47.2849   10.2845   22.7914 H   0  0  0  0  0  0  0  0  0  0  0  0
   48.1825   12.7168   18.8929 H   0  0  0  0  0  0  0  0  0  0  0  0
   47.4827   11.1584   18.3997 H   0  0  0  0  0  0  0  0  0  0  0  0
   46.4397   12.5605   18.6262 H   0  0  0  0  0  0  0  0  0  0  0  0
   49.6639    9.7079   23.2405 H   0  0  0  0  0  0  0  0  0  0  0  0
   49.0604   10.7870   24.4972 H   0  0  0  0  0  0  0  0  0  0  0  0
   50.1046   11.4308   23.2226 H   0  0  0  0  0  0  0  0  0  0  0  0
  3  2  1  0
  4  2  1  0
  5  4  1  0
  6  2  1  0
  3  7  1  0
  8  6  1  0
  5  9  1  0
  6 10  1  0
 11  9  1  0
 12  4  2  0
 13 10  2  0
 14 11  2  0
 15 11  1  0
 16 10  1  0
 17  8  1  0
 18  8  1  0
 19 15  1  0
 20 19  2  0
 21 19  1  0
 22 21  2  0
 23 20  1  0
 24 22  1  0
  7  8  1  0
  5  3  1  0
 24 23  2  0
 26 25  1  0
 27 25  2  0
 28 26  2  0
 29 26  1  0
 30 25  1  0
 31 35  1  0
 32 37  1  0
 33 31  1  0
 34 28  1  0
 35 29  2  0
 36 30  1  0
 37 36  1  0
 38 32  1  0
 39 32  1  0
 40 38  1  0
 41 39  1  0
 31 34  2  0
  1 42  1  0
  1 43  1  0
  3 44  1  1
  5 45  1  6
  6 46  1  6
  9 47  1  0
 15 48  1  0
 15 49  1  0
 16 50  1  0
 17 51  1  0
 17 52  1  0
 17 53  1  0
 18 54  1  0
 18 55  1  0
 18 56  1  0
 20 57  1  0
 21 58  1  0
 22 59  1  0
 23 60  1  0
 24 61  1  0
 28 62  1  0
 29 63  1  0
 33 64  1  0
 33 65  1  0
 34 66  1  0
 35 67  1  0
 36 68  1  0
 36 69  1  0
 37 70  1  0
 37 71  1  0
 38 72  1  0
 38 73  1  0
 39 74  1  0
 39 75  1  0
 40 76  1  0
 40 77  1  0
 40 78  1  0
 41 79  1  0
 41 80  1  0
 41 81  1  0
M  END
> <Uni-Dock RESULT> 
ENERGY=   -5.829  LOWER_BOUND=    9.328  UPPER_BOUND=   10.781
INTER + INTRA:          -5.829
INTER:                  -5.829
INTRA:                   0.000
UNBOUND:                 0.000

$$$$

     RDKit          3D

 81 82  0  0  0  0  0  0  0  0999 V2000
   48.5013    8.0302   19.4196 O   0  0  0  0  0  0  0  0  0  0  0  0
   48.9767    8.9902   22.1295 N   0  0  0  0  0  0  0  0  0  0  0  0
   50.0576    9.0720   21.1346 C   0  0  1  0  0  0  0  0  0  0  0  0
   48.6159    7.7221   21.7753 C   0  0  0  0  0  0  0  0  0  0  0  0
   49.8889    7.5434   20.9161 C   0  0  1  0  0  0  0  0  0  0  0  0
   48.0072   10.0801   22.1635 C   0  0  2  0  0  0  0  0  0  0  0  0
   49.4235   10.1956   19.8246 S   0  0  0  0  0  0  0  0  0  0  0  0
   47.8467   10.5982   20.7119 C   0  0  0  0  0  0  0  0  0  0  0  0
   49.6752    7.0647   19.5270 N   0  0  0  0  0  0  0  0  0  0  0  0
   48.4380   11.1530   23.1687 C   0  0  0  0  0  0  0  0  0  0  0  0
   50.7128    7.0267   18.6227 C   0  0  0  0  0  0  0  0  0  0  0  0
   47.6020    7.0983   21.9862 O   0  0  0  0  0  0  0  0  0  0  0  0
   47.7490   12.0930   23.5396 O   0  0  0  0  0  0  0  0  0  0  0  0
   51.8503    7.3861   18.9206 O   0  0  0  0  0  0  0  0  0  0  0  0
   50.3387    6.5885   17.2183 C   0  0  0  0  0  0  0  0  0  0  0  0
   49.6975   11.0315   23.6372 O   0  0  0  0  0  0  0  0  0  0  0  0
   47.6066   12.1067   20.5715 C   0  0  0  0  0  0  0  0  0  0  0  0
   46.7079    9.8603   19.9853 C   0  0  0  0  0  0  0  0  0  0  0  0
   49.5353    5.3108   17.1665 C   0  0  0  0  0  0  0  0  0  0  0  0
   50.1203    4.0938   17.5452 C   0  0  0  0  0  0  0  0  0  0  0  0
   48.1964    5.3238   16.7514 C   0  0  0  0  0  0  0  0  0  0  0  0
   47.4557    4.1410   16.7228 C   0  0  0  0  0  0  0  0  0  0  0  0
   49.3769    2.9135   17.5150 C   0  0  0  0  0  0  0  0  0  0  0  0
   48.0452    2.9374   17.1053 C   0  0  0  0  0  0  0  0  0  0  0  0
   50.0383    6.9335   19.0753 C   0  0  0  0  0  0  0  0  0  0  0  0
   49.6983    5.6203   18.4633 C   0  0  0  0  0  0  0  0  0  0  0  0
   51.1770    7.3651   19.1632 O   0  0  0  0  0  0  0  0  0  0  0  0
   48.3789    5.1773   18.3130 C   0  0  0  0  0  0  0  0  0  0  0  0
   50.7453    4.8139   18.0017 C   0  0  0  0  0  0  0  0  0  0  0  0
   48.9190    7.5591   19.5157 O   0  0  0  0  0  0  0  0  0  0  0  0
   49.1630    3.1015   17.3154 C   0  0  0  0  0  0  0  0  0  0  0  0
   47.8195   10.7346   21.2385 N   0  0  0  0  0  0  0  0  0  0  0  0
   48.8916    1.9205   16.6198 N   0  0  0  0  0  0  0  0  0  0  0  0
   48.1181    3.9348   17.7237 C   0  0  0  0  0  0  0  0  0  0  0  0
   50.4742    3.5737   17.4143 C   0  0  0  0  0  0  0  0  0  0  0  0
   49.1600    8.8411   20.1207 C   0  0  0  0  0  0  0  0  0  0  0  0
   47.8138    9.4062   20.5995 C   0  0  0  0  0  0  0  0  0  0  0  0
   48.6091   10.7918   22.4821 C   0  0  0  0  0  0  0  0  0  0  0  0
   48.2358   11.8235   20.3366 C   0  0  0  0  0  0  0  0  0  0  0  0
   48.1408    9.8183   23.5590 C   0  0  0  0  0  0  0  0  0  0  0  0
   47.3480   11.9816   19.1068 C   0  0  0  0  0  0  0  0  0  0  0  0
   48.9663    7.1803   19.4399 H   0  0  0  0  0  0  0  0  0  0  0  0
   48.7781    8.4678   20.2386 H   0  0  0  0  0  0  0  0  0  0  0  0
   51.0152    9.3729   21.5690 H   0  0  0  0  0  0  0  0  0  0  0  0
   50.6408    6.9313   21.4302 H   0  0  0  0  0  0  0  0  0  0  0  0
   47.0609    9.6756   22.5456 H   0  0  0  0  0  0  0  0  0  0  0  0
   48.7812    6.6617   19.2627 H   0  0  0  0  0  0  0  0  0  0  0  0
   49.7913    7.4137   16.7467 H   0  0  0  0  0  0  0  0  0  0  0  0
   51.2597    6.4479   16.6388 H   0  0  0  0  0  0  0  0  0  0  0  0
   49.8012   11.7839   24.2571 H   0  0  0  0  0  0  0  0  0  0  0  0
   47.4849   12.3999   19.5214 H   0  0  0  0  0  0  0  0  0  0  0  0
   46.6891   12.4045   21.0920 H   0  0  0  0  0  0  0  0  0  0  0  0
   48.4341   12.7008   20.9756 H   0  0  0  0  0  0  0  0  0  0  0  0
   46.8533    8.7758   19.9576 H   0  0  0  0  0  0  0  0  0  0  0  0
   46.6005   10.2018   18.9483 H   0  0  0  0  0  0  0  0  0  0  0  0
   45.7515   10.0470   20.4879 H   0  0  0  0  0  0  0  0  0  0  0  0
   51.1601    4.0583   17.8671 H   0  0  0  0  0  0  0  0  0  0  0  0
   47.7192    6.2519   16.4429 H   0  0  0  0  0  0  0  0  0  0  0  0
   46.4180    4.1565   16.3983 H   0  0  0  0  0  0  0  0  0  0  0  0
   49.8376    1.9740   17.8117 H   0  0  0  0  0  0  0  0  0  0  0  0
   47.4676    2.0167   17.0816 H   0  0  0  0  0  0  0  0  0  0  0  0
   47.5410    5.7913   18.6338 H   0  0  0  0  0  0  0  0  0  0  0  0
   51.7767    5.1518   18.0829 H   0  0  0  0  0  0  0  0  0  0  0  0
   47.9954    1.4995   16.8455 H   0  0  0  0  0  0  0  0  0  0  0  0
   49.6501    1.2462   16.6339 H   0  0  0  0  0  0  0  0  0  0  0  0
   47.0852    3.6232   17.5862 H   0  0  0  0  0  0  0  0  0  0  0  0
   51.3011    2.9792   17.0334 H   0  0  0  0  0  0  0  0  0  0  0  0
   49.8445    8.7131   20.9662 H   0  0  0  0  0  0  0  0  0  0  0  0
   49.6127    9.5023   19.3742 H   0  0  0  0  0  0  0  0  0  0  0  0
   47.3511    8.6777   21.2777 H   0  0  0  0  0  0  0  0  0  0  0  0
   47.1145    9.4081   19.7539 H   0  0  0  0  0  0  0  0  0  0  0  0
   48.5178   11.7987   22.9091 H   0  0  0  0  0  0  0  0  0  0  0  0
   49.6760   10.6333   22.2846 H   0  0  0  0  0  0  0  0  0  0  0  0
   48.1812   12.7727   20.8852 H   0  0  0  0  0  0  0  0  0  0  0  0
   49.2798   11.7053   20.0229 H   0  0  0  0  0  0  0  0  0  0  0  0
   47.0654    9.9155   23.7396 H   0  0  0  0  0  0  0  0  0  0  0  0
   48.3592    8.7808   23.2924 H   0  0  0  0  0  0  0  0  0  0  0  0
   48.6596   10.0281   24.5002 H   0  0  0  0  0  0  0  0  0  0  0  0
   47.4717   11.1516   18.4051 H   0  0  0  0  0  0  0  0  0  0  0  0
   47.6116   12.9008   18.5731 H   0  0  0  0  0  0  0  0  0  0  0  0
   46.2919   12.0494   19.3873 H   0  0  0  0  0  0  0  0  0  0  0  0
  3  2  1  0
  4  2  1  0
  5  4  1  0
  6  2  1  0
  3  7  1  0
  8  6  1  0
  5  9  1  0
  6 10  1  0
 11  9  1  0
 12  4  2  0
 13 10  2  0
 14 11  2  0
 15 11  1  0
 16 10  1  0
 17  8  1  0
 18  8  1  0
 19 15  1  0
 20 19  2  0
 21 19  1  0
 22 21  2  0
 23 20  1  0
 24 22  1  0
  7  8  1  0
  5  3  1  0
 24 23  2  0
 26 25  1  0
 27 25  2  0
 28 26  2  0
 29 26  1  0
 30 25  1  0
 31 35  1  0
 32 37  1  0
 33 31  1  0
 34 28  1  0
 35 29  2  0
 36 30  1  0
 37 36  1  0
 38 32  1  0
 39 32  1  0
 40 38  1  0
 41 39  1  0
 31 34  2  0
  1 42  1  0
  1 43  1  0
  3 44  1  1
  5 45  1  6
  6 46  1  6
  9 47  1  0
 15 48  1  0
 15 49  1  0
 16 50  1  0
 17 51  1  0
 17 52  1  0
 17 53  1  0
 18 54  1  0
 18 55  1  0
 18 56  1  0
 20 57  1  0
 21 58  1  0
 22 59  1  0
 23 60  1  0
 24 61  1  0
 28 62  1  0
 29 63  1  0
 33 64  1  0
 33 65  1  0
 34 66  1  0
 35 67  1  0
 36 68  1  0
 36 69  1  0
 37 70  1  0
 37 71  1  0
 38 72  1  0
 38 73  1  0
 39 74  1  0
 39 75  1  0
 40 76  1  0
 40 77  1  0
 40 78  1  0
 41 79  1  0
 41 80  1  0
 41 81  1  0
M  END
> <Uni-Dock RESULT> 
ENERGY=   -5.544  LOWER_BOUND=    9.127  UPPER_BOUND=   10.843
INTER + INTRA:          -5.544
INTER:                  -5.544
INTRA:                   0.000
UNBOUND:                 0.000

$$$$

     RDKit          3D

 81 82  0  0  0  0  0  0  0  0999 V2000
   49.3132    7.2213   18.7906 O   0  0  0  0  0  0  0  0  0  0  0  0
   48.1175    4.8911   17.5131 N   0  0  0  0  0  0  0  0  0  0  0  0
   48.7377    5.9328   16.6793 C   0  0  1  0  0  0  0  0  0  0  0  0
   47.4764    5.7847   18.3220 C   0  0  0  0  0  0  0  0  0  0  0  0
   47.7948    6.9581   17.3668 C   0  0  1  0  0  0  0  0  0  0  0  0
   48.9889    3.8550   18.0572 C   0  0  2  0  0  0  0  0  0  0  0  0
   50.5111    5.9468   17.1647 S   0  0  0  0  0  0  0  0  0  0  0  0
   50.3685    4.5079   18.3244 C   0  0  0  0  0  0  0  0  0  0  0  0
   48.4142    8.1551   17.9896 N   0  0  0  0  0  0  0  0  0  0  0  0
   49.0385    2.6453   17.1184 C   0  0  0  0  0  0  0  0  0  0  0  0
   48.8905    9.1902   17.2166 C   0  0  0  0  0  0  0  0  0  0  0  0
   46.9884    5.6516   19.4201 O   0  0  0  0  0  0  0  0  0  0  0  0
   49.5421    1.5630   17.3844 O   0  0  0  0  0  0  0  0  0  0  0  0
   48.8276    9.1691   15.9889 O   0  0  0  0  0  0  0  0  0  0  0  0
   49.5668   10.3158   17.9782 C   0  0  0  0  0  0  0  0  0  0  0  0
   48.4975    2.8403   15.8978 O   0  0  0  0  0  0  0  0  0  0  0  0
   51.5844    3.6020   18.0927 C   0  0  0  0  0  0  0  0  0  0  0  0
   50.4482    5.0623   19.7582 C   0  0  0  0  0  0  0  0  0  0  0  0
   48.7604   10.8424   19.1414 C   0  0  0  0  0  0  0  0  0  0  0  0
   47.5574   11.5261   18.9137 C   0  0  0  0  0  0  0  0  0  0  0  0
   49.1948   10.6472   20.4599 C   0  0  0  0  0  0  0  0  0  0  0  0
   48.4347   11.1220   21.5301 C   0  0  0  0  0  0  0  0  0  0  0  0
   46.8006   11.9997   19.9859 C   0  0  0  0  0  0  0  0  0  0  0  0
   47.2384   11.7966   21.2931 C   0  0  0  0  0  0  0  0  0  0  0  0
   48.5872    8.6847   17.7833 C   0  0  0  0  0  0  0  0  0  0  0  0
   48.0864    9.7955   18.6377 C   0  0  0  0  0  0  0  0  0  0  0  0
   48.7193    8.7686   16.5724 O   0  0  0  0  0  0  0  0  0  0  0  0
   48.0077    9.6979   20.0320 C   0  0  0  0  0  0  0  0  0  0  0  0
   47.7031   10.9890   18.0148 C   0  0  0  0  0  0  0  0  0  0  0  0
   48.8614    7.5903   18.5351 O   0  0  0  0  0  0  0  0  0  0  0  0
   47.0955   11.9494   20.1632 C   0  0  0  0  0  0  0  0  0  0  0  0
   50.1125    4.0427   18.2031 N   0  0  0  0  0  0  0  0  0  0  0  0
   46.7400   13.0633   20.9281 N   0  0  0  0  0  0  0  0  0  0  0  0
   47.5343   10.7779   20.7860 C   0  0  0  0  0  0  0  0  0  0  0  0
   47.2311   12.0626   18.7772 C   0  0  0  0  0  0  0  0  0  0  0  0
   49.3550    6.4680   17.7838 C   0  0  0  0  0  0  0  0  0  0  0  0
   49.5833    5.3018   18.7577 C   0  0  0  0  0  0  0  0  0  0  0  0
   49.2247    3.4122   17.2095 C   0  0  0  0  0  0  0  0  0  0  0  0
   51.4714    4.1665   17.6457 C   0  0  0  0  0  0  0  0  0  0  0  0
   47.8362    3.0757   17.7440 C   0  0  0  0  0  0  0  0  0  0  0  0
   52.5165    4.6208   18.6590 C   0  0  0  0  0  0  0  0  0  0  0  0
   48.6329    7.8917   18.6270 H   0  0  0  0  0  0  0  0  0  0  0  0
   49.0446    6.4750   18.2340 H   0  0  0  0  0  0  0  0  0  0  0  0
   48.5587    5.7862   15.6105 H   0  0  0  0  0  0  0  0  0  0  0  0
   46.9210    7.2375   16.7647 H   0  0  0  0  0  0  0  0  0  0  0  0
   48.5365    3.4914   18.9891 H   0  0  0  0  0  0  0  0  0  0  0  0
   48.3967    8.2665   18.9990 H   0  0  0  0  0  0  0  0  0  0  0  0
   50.5447    9.9499   18.3144 H   0  0  0  0  0  0  0  0  0  0  0  0
   49.7604   11.1418   17.2826 H   0  0  0  0  0  0  0  0  0  0  0  0
   48.6112    1.9809   15.4401 H   0  0  0  0  0  0  0  0  0  0  0  0
   52.5238    4.1220   18.3173 H   0  0  0  0  0  0  0  0  0  0  0  0
   51.5447    2.7230   18.7465 H   0  0  0  0  0  0  0  0  0  0  0  0
   51.6526    3.2514   17.0566 H   0  0  0  0  0  0  0  0  0  0  0  0
   49.6645    5.7948   19.9752 H   0  0  0  0  0  0  0  0  0  0  0  0
   51.4123    5.5489   19.9515 H   0  0  0  0  0  0  0  0  0  0  0  0
   50.3442    4.2499   20.4871 H   0  0  0  0  0  0  0  0  0  0  0  0
   47.2019   11.6935   17.8979 H   0  0  0  0  0  0  0  0  0  0  0  0
   50.1289   10.1284   20.6662 H   0  0  0  0  0  0  0  0  0  0  0  0
   48.7772   10.9694   22.5508 H   0  0  0  0  0  0  0  0  0  0  0  0
   45.8679   12.5278   19.8008 H   0  0  0  0  0  0  0  0  0  0  0  0
   46.6479   12.1669   22.1274 H   0  0  0  0  0  0  0  0  0  0  0  0
   48.3246    8.7961   20.5499 H   0  0  0  0  0  0  0  0  0  0  0  0
   47.7832   11.0961   16.9347 H   0  0  0  0  0  0  0  0  0  0  0  0
   46.3767   12.8385   21.8494 H   0  0  0  0  0  0  0  0  0  0  0  0
   46.1601   13.7366   20.4375 H   0  0  0  0  0  0  0  0  0  0  0  0
   47.5117   10.6941   21.8701 H   0  0  0  0  0  0  0  0  0  0  0  0
   46.9703   12.9910   18.2750 H   0  0  0  0  0  0  0  0  0  0  0  0
   48.6145    6.1940   17.0246 H   0  0  0  0  0  0  0  0  0  0  0  0
   50.2939    6.7555   17.2988 H   0  0  0  0  0  0  0  0  0  0  0  0
   48.6430    5.1000   19.2868 H   0  0  0  0  0  0  0  0  0  0  0  0
   50.2339    5.6474   19.5709 H   0  0  0  0  0  0  0  0  0  0  0  0
   49.6750    2.4641   16.8890 H   0  0  0  0  0  0  0  0  0  0  0  0
   49.1300    4.0315   16.3095 H   0  0  0  0  0  0  0  0  0  0  0  0
   51.7933    3.1807   17.2858 H   0  0  0  0  0  0  0  0  0  0  0  0
   51.4874    4.8352   16.7768 H   0  0  0  0  0  0  0  0  0  0  0  0
   47.8987    2.5028   18.6748 H   0  0  0  0  0  0  0  0  0  0  0  0
   47.2411    3.9748   17.9251 H   0  0  0  0  0  0  0  0  0  0  0  0
   47.2935    2.4688   17.0118 H   0  0  0  0  0  0  0  0  0  0  0  0
   52.3779    5.6671   18.9467 H   0  0  0  0  0  0  0  0  0  0  0  0
   53.5183    4.5327   18.2253 H   0  0  0  0  0  0  0  0  0  0  0  0
   52.4878    4.0020   19.5616 H   0  0  0  0  0  0  0  0  0  0  0  0
  3  2  1  0
  4  2  1  0
  5  4  1  0
  6  2  1  0
  3  7  1  0
  8  6  1  0
  5  9  1  0
  6 10  1  0
 11  9  1  0
 12  4  2  0
 13 10  2  0
 14 11  2  0
 15 11  1  0
 16 10  1  0
 17  8  1  0
 18  8  1  0
 19 15  1  0
 20 19  2  0
 21 19  1  0
 22 21  2  0
 23 20  1  0
 24 22  1  0
  7  8  1  0
  5  3  1  0
 24 23  2  0
 26 25  1  0
 27 25  2  0
 28 26  2  0
 29 26  1  0
 30 25  1  0
 31 35  1  0
 32 37  1  0
 33 31  1  0
 34 28  1  0
 35 29  2  0
 36 30  1  0
 37 36  1  0
 38 32  1  0
 39 32  1  0
 40 38  1  0
 41 39  1  0
 31 34  2  0
  1 42  1  0
  1 43  1  0
  3 44  1  1
  5 45  1  6
  6 46  1  6
  9 47  1  0
 15 48  1  0
 15 49  1  0
 16 50  1  0
 17 51  1  0
 17 52  1  0
 17 53  1  0
 18 54  1  0
 18 55  1  0
 18 56  1  0
 20 57  1  0
 21 58  1  0
 22 59  1  0
 23 60  1  0
 24 61  1  0
 28 62  1  0
 29 63  1  0
 33 64  1  0
 33 65  1  0
 34 66  1  0
 35 67  1  0
 36 68  1  0
 36 69  1  0
 37 70  1  0
 37 71  1  0
 38 72  1  0
 38 73  1  0
 39 74  1  0
 39 75  1  0
 40 76  1  0
 40 77  1  0
 40 78  1  0
 41 79  1  0
 41 80  1  0
 41 81  1  0
M  END
> <Uni-Dock RESULT> 
ENERGY=   -5.455  LOWER_BOUND=    8.313  UPPER_BOUND=   11.510
INTER + INTRA:          -5.455
INTER:                  -5.455
INTRA:                   0.000
UNBOUND:                 0.000

$$$$

     RDKit          3D

 81 82  0  0  0  0  0  0  0  0999 V2000
   49.8473    8.8040   16.7512 O   0  0  0  0  0  0  0  0  0  0  0  0
   48.8587    8.2315   14.0705 N   0  0  0  0  0  0  0  0  0  0  0  0
   48.8993    9.6244   14.5428 C   0  0  1  0  0  0  0  0  0  0  0  0
   48.3446    7.7487   15.2394 C   0  0  0  0  0  0  0  0  0  0  0  0
   48.0384    9.1739   15.7547 C   0  0  1  0  0  0  0  0  0  0  0  0
   50.0772    7.6816   13.4859 C   0  0  2  0  0  0  0  0  0  0  0  0
   50.6778    9.9795   14.8455 S   0  0  0  0  0  0  0  0  0  0  0  0
   51.2752    8.3427   14.2132 C   0  0  0  0  0  0  0  0  0  0  0  0
   48.5395    9.4964   17.1146 N   0  0  0  0  0  0  0  0  0  0  0  0
   50.0808    7.8761   11.9662 C   0  0  0  0  0  0  0  0  0  0  0  0
   48.4712   10.7795   17.6096 C   0  0  0  0  0  0  0  0  0  0  0  0
   48.3053    6.6251   15.6838 O   0  0  0  0  0  0  0  0  0  0  0  0
   50.8799    7.3717   11.1899 O   0  0  0  0  0  0  0  0  0  0  0  0
   47.9998   11.7066   16.9539 O   0  0  0  0  0  0  0  0  0  0  0  0
   49.0881   10.9833   18.9816 C   0  0  0  0  0  0  0  0  0  0  0  0
   49.1263    8.7016   11.4885 O   0  0  0  0  0  0  0  0  0  0  0  0
   52.5129    8.6035   13.3454 C   0  0  0  0  0  0  0  0  0  0  0  0
   51.7094    7.5087   15.4319 C   0  0  0  0  0  0  0  0  0  0  0  0
   48.6288    9.9842   20.0167 C   0  0  0  0  0  0  0  0  0  0  0  0
   47.2973    9.9859   20.4567 C   0  0  0  0  0  0  0  0  0  0  0  0
   49.5196    9.0381   20.5427 C   0  0  0  0  0  0  0  0  0  0  0  0
   49.0827    8.1069   21.4864 C   0  0  0  0  0  0  0  0  0  0  0  0
   46.8643    9.0538   21.4004 C   0  0  0  0  0  0  0  0  0  0  0  0
   47.7562    8.1143   21.9138 C   0  0  0  0  0  0  0  0  0  0  0  0
   48.5047    9.9755   17.4643 C   0  0  0  0  0  0  0  0  0  0  0  0
   48.0839    9.6156   18.8457 C   0  0  0  0  0  0  0  0  0  0  0  0
   48.1925   11.0183   16.9115 O   0  0  0  0  0  0  0  0  0  0  0  0
   48.5105    8.4444   19.4830 C   0  0  0  0  0  0  0  0  0  0  0  0
   47.2471   10.5011   19.5349 C   0  0  0  0  0  0  0  0  0  0  0  0
   49.2634    8.9901   16.9243 O   0  0  0  0  0  0  0  0  0  0  0  0
   47.2052    9.0127   21.4558 C   0  0  0  0  0  0  0  0  0  0  0  0
   51.1077    8.1165   13.7469 N   0  0  0  0  0  0  0  0  0  0  0  0
   46.8856    8.7842   22.7967 N   0  0  0  0  0  0  0  0  0  0  0  0
   48.0875    8.1603   20.7866 C   0  0  0  0  0  0  0  0  0  0  0  0
   46.8297   10.2080   20.8374 C   0  0  0  0  0  0  0  0  0  0  0  0
   49.7154    9.2608   15.5864 C   0  0  0  0  0  0  0  0  0  0  0  0
   50.5245    8.0490   15.0991 C   0  0  0  0  0  0  0  0  0  0  0  0
   50.1048    8.2377   12.6732 C   0  0  0  0  0  0  0  0  0  0  0  0
   52.1272    9.1698   13.5940 C   0  0  0  0  0  0  0  0  0  0  0  0
   49.0995    7.0912   12.6318 C   0  0  0  0  0  0  0  0  0  0  0  0
   53.3208    9.0161   14.5306 C   0  0  0  0  0  0  0  0  0  0  0  0
   49.0171    8.9641   17.2246 H   0  0  0  0  0  0  0  0  0  0  0  0
   49.5846    8.7833   15.8188 H   0  0  0  0  0  0  0  0  0  0  0  0
   48.4052   10.3209   13.8596 H   0  0  0  0  0  0  0  0  0  0  0  0
   46.9722    9.4167   15.6623 H   0  0  0  0  0  0  0  0  0  0  0  0
   50.0668    6.5959   13.6479 H   0  0  0  0  0  0  0  0  0  0  0  0
   48.8424    8.7494   17.7326 H   0  0  0  0  0  0  0  0  0  0  0  0
   50.1782   10.9517   18.8646 H   0  0  0  0  0  0  0  0  0  0  0  0
   48.8368   11.9923   19.3317 H   0  0  0  0  0  0  0  0  0  0  0  0
   49.2718    8.7080   10.5190 H   0  0  0  0  0  0  0  0  0  0  0  0
   53.3258    9.0552   13.9272 H   0  0  0  0  0  0  0  0  0  0  0  0
   52.9023    7.6660   12.9319 H   0  0  0  0  0  0  0  0  0  0  0  0
   52.3023    9.2811   12.5103 H   0  0  0  0  0  0  0  0  0  0  0  0
   50.9004    7.3566   16.1533 H   0  0  0  0  0  0  0  0  0  0  0  0
   52.5418    7.9796   15.9694 H   0  0  0  0  0  0  0  0  0  0  0  0
   52.0505    6.5168   15.1127 H   0  0  0  0  0  0  0  0  0  0  0  0
   46.5881   10.7140   20.0655 H   0  0  0  0  0  0  0  0  0  0  0  0
   50.5608    9.0194   20.2267 H   0  0  0  0  0  0  0  0  0  0  0  0
   49.7783    7.3764   21.8924 H   0  0  0  0  0  0  0  0  0  0  0  0
   45.8296    9.0609   21.7353 H   0  0  0  0  0  0  0  0  0  0  0  0
   47.4175    7.3893   22.6496 H   0  0  0  0  0  0  0  0  0  0  0  0
   49.1839    7.7496   18.9874 H   0  0  0  0  0  0  0  0  0  0  0  0
   46.9267   11.4308   19.0685 H   0  0  0  0  0  0  0  0  0  0  0  0
   46.9207    7.8078   23.0738 H   0  0  0  0  0  0  0  0  0  0  0  0
   46.0346    9.2433   23.1052 H   0  0  0  0  0  0  0  0  0  0  0  0
   48.4563    7.2619   21.2763 H   0  0  0  0  0  0  0  0  0  0  0  0
   46.2067   10.9260   21.3651 H   0  0  0  0  0  0  0  0  0  0  0  0
   48.8446    9.4244   14.9423 H   0  0  0  0  0  0  0  0  0  0  0  0
   50.3392   10.1608   15.6017 H   0  0  0  0  0  0  0  0  0  0  0  0
   49.8947    7.1536   15.1799 H   0  0  0  0  0  0  0  0  0  0  0  0
   51.3153    7.8393   15.8303 H   0  0  0  0  0  0  0  0  0  0  0  0
   50.6243    8.2336   11.7065 H   0  0  0  0  0  0  0  0  0  0  0  0
   49.5687    9.1923   12.7343 H   0  0  0  0  0  0  0  0  0  0  0  0
   52.5249    9.1264   12.5718 H   0  0  0  0  0  0  0  0  0  0  0  0
   51.6912   10.1685   13.7158 H   0  0  0  0  0  0  0  0  0  0  0  0
   49.6061    6.1207   12.6256 H   0  0  0  0  0  0  0  0  0  0  0  0
   48.4118    7.1223   13.4812 H   0  0  0  0  0  0  0  0  0  0  0  0
   48.4949    7.1602   11.7214 H   0  0  0  0  0  0  0  0  0  0  0  0
   53.0515    9.2196   15.5712 H   0  0  0  0  0  0  0  0  0  0  0  0
   54.1060    9.7271   14.2528 H   0  0  0  0  0  0  0  0  0  0  0  0
   53.7453    8.0089   14.4687 H   0  0  0  0  0  0  0  0  0  0  0  0
  3  2  1  0
  4  2  1  0
  5  4  1  0
  6  2  1  0
  3  7  1  0
  8  6  1  0
  5  9  1  0
  6 10  1  0
 11  9  1  0
 12  4  2  0
 13 10  2  0
 14 11  2  0
 15 11  1  0
 16 10  1  0
 17  8  1  0
 18  8  1  0
 19 15  1  0
 20 19  2  0
 21 19  1  0
 22 21  2  0
 23 20  1  0
 24 22  1  0
  7  8  1  0
  5  3  1  0
 24 23  2  0
 26 25  1  0
 27 25  2  0
 28 26  2  0
 29 26  1  0
 30 25  1  0
 31 35  1  0
 32 37  1  0
 33 31  1  0
 34 28  1  0
 35 29  2  0
 36 30  1  0
 37 36  1  0
 38 32  1  0
 39 32  1  0
 40 38  1  0
 41 39  1  0
 31 34  2  0
  1 42  1  0
  1 43  1  0
  3 44  1  1
  5 45  1  6
  6 46  1  6
  9 47  1  0
 15 48  1  0
 15 49  1  0
 16 50  1  0
 17 51  1  0
 17 52  1  0
 17 53  1  0
 18 54  1  0
 18 55  1  0
 18 56  1  0
 20 57  1  0
 21 58  1  0
 22 59  1  0
 23 60  1  0
 24 61  1  0
 28 62  1  0
 29 63  1  0
 33 64  1  0
 33 65  1  0
 34 66  1  0
 35 67  1  0
 36 68  1  0
 36 69  1  0
 37 70  1  0
 37 71  1  0
 38 72  1  0
 38 73  1  0
 39 74  1  0
 39 75  1  0
 40 76  1  0
 40 77  1  0
 40 78  1  0
 41 79  1  0
 41 80  1  0
 41 81  1  0
M  END
> <Uni-Dock RESULT> 
ENERGY=   -5.256  LOWER_BOUND=    6.883  UPPER_BOUND=    9.335
INTER + INTRA:          -5.256
INTER:                  -5.256
INTRA:                   0.000
UNBOUND:                 0.000

$$$$

     RDKit          3D

 81 82  0  0  0  0  0  0  0  0999 V2000
   50.0680    7.3528   17.1490 O   0  0  0  0  0  0  0  0  0  0  0  0
   49.5342    8.8593   14.7124 N   0  0  0  0  0  0  0  0  0  0  0  0
   48.4413    8.1099   15.3518 C   0  0  1  0  0  0  0  0  0  0  0  0
   50.4395    7.8470   14.8522 C   0  0  0  0  0  0  0  0  0  0  0  0
   49.3338    6.8425   15.2509 C   0  0  1  0  0  0  0  0  0  0  0  0
   49.8087   10.2047   15.2061 C   0  0  2  0  0  0  0  0  0  0  0  0
   48.2353    8.8777   17.0097 S   0  0  0  0  0  0  0  0  0  0  0  0
   49.4892   10.2123   16.7223 C   0  0  0  0  0  0  0  0  0  0  0  0
   49.5750    6.0681   16.4945 N   0  0  0  0  0  0  0  0  0  0  0  0
   49.0295   11.2452   14.3954 C   0  0  0  0  0  0  0  0  0  0  0  0
   48.5920    5.2692   17.0343 C   0  0  0  0  0  0  0  0  0  0  0  0
   51.6473    7.8507   14.7990 O   0  0  0  0  0  0  0  0  0  0  0  0
   49.1864   12.4563   14.4614 O   0  0  0  0  0  0  0  0  0  0  0  0
   47.4811    5.1643   16.5180 O   0  0  0  0  0  0  0  0  0  0  0  0
   48.9471    4.5944   18.3468 C   0  0  0  0  0  0  0  0  0  0  0  0
   48.0822   10.7453   13.5748 O   0  0  0  0  0  0  0  0  0  0  0  0
   48.9071   11.5221   17.2684 C   0  0  0  0  0  0  0  0  0  0  0  0
   50.7370    9.8581   17.5511 C   0  0  0  0  0  0  0  0  0  0  0  0
   50.2738    3.8731   18.3280 C   0  0  0  0  0  0  0  0  0  0  0  0
   50.4457    2.7331   17.5297 C   0  0  0  0  0  0  0  0  0  0  0  0
   51.3510    4.3364   19.0963 C   0  0  0  0  0  0  0  0  0  0  0  0
   52.5792    3.6739   19.0600 C   0  0  0  0  0  0  0  0  0  0  0  0
   51.6747    2.0733   17.4962 C   0  0  0  0  0  0  0  0  0  0  0  0
   52.7409    2.5443   18.2599 C   0  0  0  0  0  0  0  0  0  0  0  0
   49.2732    5.6449   16.7822 C   0  0  0  0  0  0  0  0  0  0  0  0
   50.1495    4.4983   17.1458 C   0  0  0  0  0  0  0  0  0  0  0  0
   48.0966    5.5279   16.4777 O   0  0  0  0  0  0  0  0  0  0  0  0
   51.4773    4.6647   17.5569 C   0  0  0  0  0  0  0  0  0  0  0  0
   49.6082    3.2085   17.0937 C   0  0  0  0  0  0  0  0  0  0  0  0
   49.9652    6.8096   16.8329 O   0  0  0  0  0  0  0  0  0  0  0  0
   51.7345    2.2563   17.7859 C   0  0  0  0  0  0  0  0  0  0  0  0
   49.5127   10.5164   16.2711 N   0  0  0  0  0  0  0  0  0  0  0  0
   52.4741    1.1606   18.2383 N   0  0  0  0  0  0  0  0  0  0  0  0
   52.2533    3.5495   17.8932 C   0  0  0  0  0  0  0  0  0  0  0  0
   50.3920    2.1003   17.4316 C   0  0  0  0  0  0  0  0  0  0  0  0
   49.1880    7.9718   16.4967 C   0  0  0  0  0  0  0  0  0  0  0  0
   50.1089    9.1999   16.5617 C   0  0  0  0  0  0  0  0  0  0  0  0
   48.9768   10.6364   14.9030 C   0  0  0  0  0  0  0  0  0  0  0  0
   48.4849   10.9285   17.2439 C   0  0  0  0  0  0  0  0  0  0  0  0
   50.0133   10.4026   13.8086 C   0  0  0  0  0  0  0  0  0  0  0  0
   48.9967   11.0353   18.6765 C   0  0  0  0  0  0  0  0  0  0  0  0
   50.1077    6.4487   16.8028 H   0  0  0  0  0  0  0  0  0  0  0  0
   49.7184    7.8715   16.4089 H   0  0  0  0  0  0  0  0  0  0  0  0
   47.5314    8.0826   14.7458 H   0  0  0  0  0  0  0  0  0  0  0  0
   49.0739    6.1762   14.4186 H   0  0  0  0  0  0  0  0  0  0  0  0
   50.8701   10.4186   15.0248 H   0  0  0  0  0  0  0  0  0  0  0  0
   50.5056    6.0403   16.9007 H   0  0  0  0  0  0  0  0  0  0  0  0
   48.9303    5.3612   19.1308 H   0  0  0  0  0  0  0  0  0  0  0  0
   48.1585    3.8725   18.5935 H   0  0  0  0  0  0  0  0  0  0  0  0
   47.6933   11.5341   13.1416 H   0  0  0  0  0  0  0  0  0  0  0  0
   48.7223   11.4625   18.3481 H   0  0  0  0  0  0  0  0  0  0  0  0
   49.6050   12.3528   17.1120 H   0  0  0  0  0  0  0  0  0  0  0  0
   47.9546   11.7854   16.7949 H   0  0  0  0  0  0  0  0  0  0  0  0
   51.1615    8.8847   17.2859 H   0  0  0  0  0  0  0  0  0  0  0  0
   50.5171    9.8365   18.6256 H   0  0  0  0  0  0  0  0  0  0  0  0
   51.5222   10.6077   17.3967 H   0  0  0  0  0  0  0  0  0  0  0  0
   49.6220    2.3521   16.9276 H   0  0  0  0  0  0  0  0  0  0  0  0
   51.2437    5.2129   19.7322 H   0  0  0  0  0  0  0  0  0  0  0  0
   53.4109    4.0365   19.6592 H   0  0  0  0  0  0  0  0  0  0  0  0
   51.8002    1.1907   16.8733 H   0  0  0  0  0  0  0  0  0  0  0  0
   53.6976    2.0287   18.2333 H   0  0  0  0  0  0  0  0  0  0  0  0
   51.9200    5.6544   17.6366 H   0  0  0  0  0  0  0  0  0  0  0  0
   48.5697    3.0591   16.8042 H   0  0  0  0  0  0  0  0  0  0  0  0
   53.4805    1.2854   18.1847 H   0  0  0  0  0  0  0  0  0  0  0  0
   52.1740    0.2698   17.8554 H   0  0  0  0  0  0  0  0  0  0  0  0
   53.2722    3.7021   18.2417 H   0  0  0  0  0  0  0  0  0  0  0  0
   49.9408    1.1112   17.4154 H   0  0  0  0  0  0  0  0  0  0  0  0
   48.7829    7.8495   15.4863 H   0  0  0  0  0  0  0  0  0  0  0  0
   48.3674    8.0658   17.2160 H   0  0  0  0  0  0  0  0  0  0  0  0
   50.9631    9.0313   15.8934 H   0  0  0  0  0  0  0  0  0  0  0  0
   50.5906    9.2242   17.5473 H   0  0  0  0  0  0  0  0  0  0  0  0
   48.5987   11.6572   14.7632 H   0  0  0  0  0  0  0  0  0  0  0  0
   48.1238    9.9649   14.7486 H   0  0  0  0  0  0  0  0  0  0  0  0
   48.1211   11.9264   16.9672 H   0  0  0  0  0  0  0  0  0  0  0  0
   47.6155   10.2610   17.2134 H   0  0  0  0  0  0  0  0  0  0  0  0
   50.9025   11.0213   13.9671 H   0  0  0  0  0  0  0  0  0  0  0  0
   50.3202    9.3545   13.7561 H   0  0  0  0  0  0  0  0  0  0  0  0
   49.5899   10.6665   12.8338 H   0  0  0  0  0  0  0  0  0  0  0  0
   49.2208   10.0535   19.1037 H   0  0  0  0  0  0  0  0  0  0  0  0
   48.2340   11.4995   19.3106 H   0  0  0  0  0  0  0  0  0  0  0  0
   49.8976   11.6550   18.7297 H   0  0  0  0  0  0  0  0  0  0  0  0
  3  2  1  0
  4  2  1  0
  5  4  1  0
  6  2  1  0
  3  7  1  0
  8  6  1  0
  5  9  1  0
  6 10  1  0
 11  9  1  0
 12  4  2  0
 13 10  2  0
 14 11  2  0
 15 11  1  0
 16 10  1  0
 17  8  1  0
 18  8  1  0
 19 15  1  0
 20 19  2  0
 21 19  1  0
 22 21  2  0
 23 20  1  0
 24 22  1  0
  7  8  1  0
  5  3  1  0
 24 23  2  0
 26 25  1  0
 27 25  2  0
 28 26  2  0
 29 26  1  0
 30 25  1  0
 31 35  1  0
 32 37  1  0
 33 31  1  0
 34 28  1  0
 35 29  2  0
 36 30  1  0
 37 36  1  0
 38 32  1  0
 39 32  1  0
 40 38  1  0
 41 39  1  0
 31 34  2  0
  1 42  1  0
  1 43  1  0
  3 44  1  1
  5 45  1  6
  6 46  1  6
  9 47  1  0
 15 48  1  0
 15 49  1  0
 16 50  1  0
 17 51  1  0
 17 52  1  0
 17 53  1  0
 18 54  1  0
 18 55  1  0
 18 56  1  0
 20 57  1  0
 21 58  1  0
 22 59  1  0
 23 60  1  0
 24 61  1  0
 28 62  1  0
 29 63  1  0
 33 64  1  0
 33 65  1  0
 34 66  1  0
 35 67  1  0
 36 68  1  0
 36 69  1  0
 37 70  1  0
 37 71  1  0
 38 72  1  0
 38 73  1  0
 39 74  1  0
 39 75  1  0
 40 76  1  0
 40 77  1  0
 40 78  1  0
 41 79  1  0
 41 80  1  0
 41 81  1  0
M  END
> <Uni-Dock RESULT> 
ENERGY=   -5.224  LOWER_BOUND=    6.948  UPPER_BOUND=    9.160
INTER + INTRA:          -5.224
INTER:                  -5.224
INTRA:                   0.000
UNBOUND:                 0.000

$$$$

     RDKit          3D

 81 82  0  0  0  0  0  0  0  0999 V2000
   51.8856    4.3546   20.3811 O   0  0  0  0  0  0  0  0  0  0  0  0
   53.7726    6.4686   21.0606 N   0  0  0  0  0  0  0  0  0  0  0  0
   52.5689    6.2825   21.8861 C   0  0  1  0  0  0  0  0  0  0  0  0
   53.1003    6.3371   19.8797 C   0  0  0  0  0  0  0  0  0  0  0  0
   51.7296    6.4366   20.5881 C   0  0  1  0  0  0  0  0  0  0  0  0
   54.9381    5.6482   21.3727 C   0  0  2  0  0  0  0  0  0  0  0  0
   52.7306    4.5964   22.6016 S   0  0  0  0  0  0  0  0  0  0  0  0
   54.4154    4.2858   21.8939 C   0  0  0  0  0  0  0  0  0  0  0  0
   50.7518    5.3662   20.2680 N   0  0  0  0  0  0  0  0  0  0  0  0
   55.8655    6.3794   22.3487 C   0  0  0  0  0  0  0  0  0  0  0  0
   49.5661    5.2591   20.9597 C   0  0  0  0  0  0  0  0  0  0  0  0
   53.4984    6.0996   18.7631 O   0  0  0  0  0  0  0  0  0  0  0  0
   56.9936    6.0209   22.6566 O   0  0  0  0  0  0  0  0  0  0  0  0
   49.2680    6.0348   21.8659 O   0  0  0  0  0  0  0  0  0  0  0  0
   48.6947    4.0750   20.5815 C   0  0  0  0  0  0  0  0  0  0  0  0
   55.3470    7.4888   22.9152 O   0  0  0  0  0  0  0  0  0  0  0  0
   55.2647    3.6269   22.9881 C   0  0  0  0  0  0  0  0  0  0  0  0
   54.2521    3.2795   20.7406 C   0  0  0  0  0  0  0  0  0  0  0  0
   48.4635    3.9316   19.0960 C   0  0  0  0  0  0  0  0  0  0  0  0
   47.7105    4.8906   18.4034 C   0  0  0  0  0  0  0  0  0  0  0  0
   49.0044    2.8486   18.3890 C   0  0  0  0  0  0  0  0  0  0  0  0
   48.8006    2.7326   17.0130 C   0  0  0  0  0  0  0  0  0  0  0  0
   47.5085    4.7712   17.0280 C   0  0  0  0  0  0  0  0  0  0  0  0
   48.0543    3.6935   16.3332 C   0  0  0  0  0  0  0  0  0  0  0  0
   50.1919    5.2558   20.4335 C   0  0  0  0  0  0  0  0  0  0  0  0
   49.3256    4.9479   19.2633 C   0  0  0  0  0  0  0  0  0  0  0  0
   49.8022    5.8490   21.4270 O   0  0  0  0  0  0  0  0  0  0  0  0
   49.7774    4.2072   18.1647 C   0  0  0  0  0  0  0  0  0  0  0  0
   48.0014    5.4014   19.2821 C   0  0  0  0  0  0  0  0  0  0  0  0
   51.4505    4.7945   20.2303 O   0  0  0  0  0  0  0  0  0  0  0  0
   47.6112    4.4434   17.0828 C   0  0  0  0  0  0  0  0  0  0  0  0
   54.8261    4.6428   21.9165 N   0  0  0  0  0  0  0  0  0  0  0  0
   46.7227    4.0729   16.0700 N   0  0  0  0  0  0  0  0  0  0  0  0
   48.9156    3.9422   17.0941 C   0  0  0  0  0  0  0  0  0  0  0  0
   47.1480    5.1315   18.2072 C   0  0  0  0  0  0  0  0  0  0  0  0
   52.3544    5.0497   21.3192 C   0  0  0  0  0  0  0  0  0  0  0  0
   53.7383    4.5068   20.9309 C   0  0  0  0  0  0  0  0  0  0  0  0
   55.1536    6.0409   22.2501 C   0  0  0  0  0  0  0  0  0  0  0  0
   54.6010    3.8772   23.1558 C   0  0  0  0  0  0  0  0  0  0  0  0
   55.5774    6.8815   21.0499 C   0  0  0  0  0  0  0  0  0  0  0  0
   54.4531    2.3753   22.9368 C   0  0  0  0  0  0  0  0  0  0  0  0
   51.1768    4.8663   19.9631 H   0  0  0  0  0  0  0  0  0  0  0  0
   52.4551    5.0282   20.7820 H   0  0  0  0  0  0  0  0  0  0  0  0
   52.4297    7.0788   22.6226 H   0  0  0  0  0  0  0  0  0  0  0  0
   51.2798    7.4293   20.4603 H   0  0  0  0  0  0  0  0  0  0  0  0
   55.5169    5.5221   20.4485 H   0  0  0  0  0  0  0  0  0  0  0  0
   50.9041    4.7661   19.4628 H   0  0  0  0  0  0  0  0  0  0  0  0
   49.1623    3.1724   20.9932 H   0  0  0  0  0  0  0  0  0  0  0  0
   47.7228    4.1829   21.0793 H   0  0  0  0  0  0  0  0  0  0  0  0
   56.0621    7.8233   23.4964 H   0  0  0  0  0  0  0  0  0  0  0  0
   54.8469    2.6605   23.2963 H   0  0  0  0  0  0  0  0  0  0  0  0
   56.2811    3.4319   22.6269 H   0  0  0  0  0  0  0  0  0  0  0  0
   55.3379    4.2458   23.8896 H   0  0  0  0  0  0  0  0  0  0  0  0
   53.5786    3.6377   19.9557 H   0  0  0  0  0  0  0  0  0  0  0  0
   53.8593    2.3182   21.0941 H   0  0  0  0  0  0  0  0  0  0  0  0
   55.2219    3.0791   20.2698 H   0  0  0  0  0  0  0  0  0  0  0  0
   47.2768    5.7383   18.9320 H   0  0  0  0  0  0  0  0  0  0  0  0
   49.5849    2.0843   18.9020 H   0  0  0  0  0  0  0  0  0  0  0  0
   49.2209    1.8896   16.4698 H   0  0  0  0  0  0  0  0  0  0  0  0
   46.9245    5.5201   16.4980 H   0  0  0  0  0  0  0  0  0  0  0  0
   47.8953    3.6015   15.2618 H   0  0  0  0  0  0  0  0  0  0  0  0
   50.7908    3.8151   18.1310 H   0  0  0  0  0  0  0  0  0  0  0  0
   47.6216    5.9544   20.1391 H   0  0  0  0  0  0  0  0  0  0  0  0
   47.1674    3.8578   15.1827 H   0  0  0  0  0  0  0  0  0  0  0  0
   45.9297    4.6973   15.9637 H   0  0  0  0  0  0  0  0  0  0  0  0
   49.2756    3.3372   16.2650 H   0  0  0  0  0  0  0  0  0  0  0  0
   46.1145    5.4653   18.2583 H   0  0  0  0  0  0  0  0  0  0  0  0
   52.4023    6.1295   21.4970 H   0  0  0  0  0  0  0  0  0  0  0  0
   51.9780    4.5430   22.2142 H   0  0  0  0  0  0  0  0  0  0  0  0
   54.0433    4.9731   19.9852 H   0  0  0  0  0  0  0  0  0  0  0  0
   53.6328    3.4532   20.6431 H   0  0  0  0  0  0  0  0  0  0  0  0
   55.9993    6.0452   22.9496 H   0  0  0  0  0  0  0  0  0  0  0  0
   54.3207    6.5334   22.7659 H   0  0  0  0  0  0  0  0  0  0  0  0
   55.4692    4.0128   23.8136 H   0  0  0  0  0  0  0  0  0  0  0  0
   53.7315    4.2553   23.7065 H   0  0  0  0  0  0  0  0  0  0  0  0
   56.3726    6.3879   20.4820 H   0  0  0  0  0  0  0  0  0  0  0  0
   54.7391    7.0821   20.3773 H   0  0  0  0  0  0  0  0  0  0  0  0
   55.9594    7.8495   21.3908 H   0  0  0  0  0  0  0  0  0  0  0  0
   53.5130    2.1269   22.4356 H   0  0  0  0  0  0  0  0  0  0  0  0
   54.4545    1.8566   23.9013 H   0  0  0  0  0  0  0  0  0  0  0  0
   55.2828    1.9784   22.3430 H   0  0  0  0  0  0  0  0  0  0  0  0
  3  2  1  0
  4  2  1  0
  5  4  1  0
  6  2  1  0
  3  7  1  0
  8  6  1  0
  5  9  1  0
  6 10  1  0
 11  9  1  0
 12  4  2  0
 13 10  2  0
 14 11  2  0
 15 11  1  0
 16 10  1  0
 17  8  1  0
 18  8  1  0
 19 15  1  0
 20 19  2  0
 21 19  1  0
 22 21  2  0
 23 20  1  0
 24 22  1  0
  7  8  1  0
  5  3  1  0
 24 23  2  0
 26 25  1  0
 27 25  2  0
 28 26  2  0
 29 26  1  0
 30 25  1  0
 31 35  1  0
 32 37  1  0
 33 31  1  0
 34 28  1  0
 35 29  2  0
 36 30  1  0
 37 36  1  0
 38 32  1  0
 39 32  1  0
 40 38  1  0
 41 39  1  0
 31 34  2  0
  1 42  1  0
  1 43  1  0
  3 44  1  1
  5 45  1  6
  6 46  1  6
  9 47  1  0
 15 48  1  0
 15 49  1  0
 16 50  1  0
 17 51  1  0
 17 52  1  0
 17 53  1  0
 18 54  1  0
 18 55  1  0
 18 56  1  0
 20 57  1  0
 21 58  1  0
 22 59  1  0
 23 60  1  0
 24 61  1  0
 28 62  1  0
 29 63  1  0
 33 64  1  0
 33 65  1  0
 34 66  1  0
 35 67  1  0
 36 68  1  0
 36 69  1  0
 37 70  1  0
 37 71  1  0
 38 72  1  0
 38 73  1  0
 39 74  1  0
 39 75  1  0
 40 76  1  0
 40 77  1  0
 40 78  1  0
 41 79  1  0
 41 80  1  0
 41 81  1  0
M  END
> <Uni-Dock RESULT> 
ENERGY=   -4.866  LOWER_BOUND=   10.737  UPPER_BOUND=   14.017
INTER + INTRA:          -4.866
INTER:                  -4.866
INTRA:                   0.000
UNBOUND:                 0.000

$$$$

     RDKit          3D

 81 82  0  0  0  0  0  0  0  0999 V2000
   42.3556   13.1221   11.3224 O   0  0  0  0  0  0  0  0  0  0  0  0
   42.5649   11.8700    8.6994 N   0  0  0  0  0  0  0  0  0  0  0  0
   42.0110   13.2287    8.8086 C   0  0  1  0  0  0  0  0  0  0  0  0
   41.8597   11.3927    9.7665 C   0  0  0  0  0  0  0  0  0  0  0  0
   40.9730   12.6584    9.8138 C   0  0  1  0  0  0  0  0  0  0  0  0
   44.0158   11.7374    8.6203 C   0  0  2  0  0  0  0  0  0  0  0  0
   43.3787   14.2544    9.4854 S   0  0  0  0  0  0  0  0  0  0  0  0
   44.6291   12.8863    9.4599 C   0  0  0  0  0  0  0  0  0  0  0  0
   40.8566   13.3230   11.1364 N   0  0  0  0  0  0  0  0  0  0  0  0
   44.4756   11.7135    7.1591 C   0  0  0  0  0  0  0  0  0  0  0  0
   40.2320   14.5434   11.2641 C   0  0  0  0  0  0  0  0  0  0  0  0
   42.0203   10.4050   10.4450 O   0  0  0  0  0  0  0  0  0  0  0  0
   45.6050   11.4416    6.7767 O   0  0  0  0  0  0  0  0  0  0  0  0
   39.7501   15.1330   10.2987 O   0  0  0  0  0  0  0  0  0  0  0  0
   40.2509   15.1434   12.6584 C   0  0  0  0  0  0  0  0  0  0  0  0
   43.5354   12.0546    6.2533 O   0  0  0  0  0  0  0  0  0  0  0  0
   45.9433   13.4679    8.9238 C   0  0  0  0  0  0  0  0  0  0  0  0
   44.8578   12.4441   10.9165 C   0  0  0  0  0  0  0  0  0  0  0  0
   39.7990   14.1939   13.7424 C   0  0  0  0  0  0  0  0  0  0  0  0
   38.4659   13.7613   13.7906 C   0  0  0  0  0  0  0  0  0  0  0  0
   40.7034   13.7248   14.7053 C   0  0  0  0  0  0  0  0  0  0  0  0
   40.2816   12.8338   15.6936 C   0  0  0  0  0  0  0  0  0  0  0  0
   38.0479   12.8710   14.7802 C   0  0  0  0  0  0  0  0  0  0  0  0
   38.9555   12.4067   15.7302 C   0  0  0  0  0  0  0  0  0  0  0  0
   40.5591   13.7974   11.3351 C   0  0  0  0  0  0  0  0  0  0  0  0
   39.8266   13.4962   12.5950 C   0  0  0  0  0  0  0  0  0  0  0  0
   40.1480   14.5661   10.4802 O   0  0  0  0  0  0  0  0  0  0  0  0
   40.3501   12.6632   13.5910 C   0  0  0  0  0  0  0  0  0  0  0  0
   38.5758   14.0926   12.7927 C   0  0  0  0  0  0  0  0  0  0  0  0
   41.7205   13.1002   11.2796 O   0  0  0  0  0  0  0  0  0  0  0  0
   38.3446   12.9669   14.9343 C   0  0  0  0  0  0  0  0  0  0  0  0
   44.7086   12.5538    9.0360 N   0  0  0  0  0  0  0  0  0  0  0  0
   37.6753   12.8185   16.1518 N   0  0  0  0  0  0  0  0  0  0  0  0
   39.6189   12.4204   14.7594 C   0  0  0  0  0  0  0  0  0  0  0  0
   37.8526   13.8434   13.9638 C   0  0  0  0  0  0  0  0  0  0  0  0
   42.4934   13.3368   10.0903 C   0  0  0  0  0  0  0  0  0  0  0  0
   43.7516   12.4572   10.1531 C   0  0  0  0  0  0  0  0  0  0  0  0
   44.1451   12.1496    7.7351 C   0  0  0  0  0  0  0  0  0  0  0  0
   45.3416   13.8790    8.9118 C   0  0  0  0  0  0  0  0  0  0  0  0
   43.6195   10.7180    7.7051 C   0  0  0  0  0  0  0  0  0  0  0  0
   46.1310   14.3055   10.1448 C   0  0  0  0  0  0  0  0  0  0  0  0
   41.4077   13.0253   11.4987 H   0  0  0  0  0  0  0  0  0  0  0  0
   42.4455   12.8806   10.3883 H   0  0  0  0  0  0  0  0  0  0  0  0
   41.5894   13.5942    7.8680 H   0  0  0  0  0  0  0  0  0  0  0  0
   39.9823   12.4743    9.3793 H   0  0  0  0  0  0  0  0  0  0  0  0
   44.2863   10.7573    9.0345 H   0  0  0  0  0  0  0  0  0  0  0  0
   41.1460   12.8314   11.9768 H   0  0  0  0  0  0  0  0  0  0  0  0
   41.2689   15.5024   12.8528 H   0  0  0  0  0  0  0  0  0  0  0  0
   39.5974   16.0247   12.6688 H   0  0  0  0  0  0  0  0  0  0  0  0
   43.9923   11.9842    5.3888 H   0  0  0  0  0  0  0  0  0  0  0  0
   46.3285   14.2623    9.5749 H   0  0  0  0  0  0  0  0  0  0  0  0
   46.7190   12.6950    8.8742 H   0  0  0  0  0  0  0  0  0  0  0  0
   45.8311   13.9007    7.9232 H   0  0  0  0  0  0  0  0  0  0  0  0
   43.9407   12.1016   11.4060 H   0  0  0  0  0  0  0  0  0  0  0  0
   45.2694   13.2574   11.5270 H   0  0  0  0  0  0  0  0  0  0  0  0
   45.5753   11.6159   10.9550 H   0  0  0  0  0  0  0  0  0  0  0  0
   37.7443   14.1155   13.0558 H   0  0  0  0  0  0  0  0  0  0  0  0
   41.7417   14.0508   14.6980 H   0  0  0  0  0  0  0  0  0  0  0  0
   40.9869   12.4745   16.4392 H   0  0  0  0  0  0  0  0  0  0  0  0
   37.0126   12.5392   14.8097 H   0  0  0  0  0  0  0  0  0  0  0  0
   38.6280   11.7136   16.5010 H   0  0  0  0  0  0  0  0  0  0  0  0
   41.3312   12.2074   13.4826 H   0  0  0  0  0  0  0  0  0  0  0  0
   38.1630   14.7659   12.0438 H   0  0  0  0  0  0  0  0  0  0  0  0
   37.9134   11.9713   16.6585 H   0  0  0  0  0  0  0  0  0  0  0  0
   36.6728   12.9667   16.0958 H   0  0  0  0  0  0  0  0  0  0  0  0
   40.0571   11.7969   15.5354 H   0  0  0  0  0  0  0  0  0  0  0  0
   36.8983   14.3435   14.1102 H   0  0  0  0  0  0  0  0  0  0  0  0
   41.8883   13.0782    9.2147 H   0  0  0  0  0  0  0  0  0  0  0  0
   42.7650   14.3971   10.0531 H   0  0  0  0  0  0  0  0  0  0  0  0
   43.4407   11.4119   10.2772 H   0  0  0  0  0  0  0  0  0  0  0  0
   44.2703   12.6556   11.0995 H   0  0  0  0  0  0  0  0  0  0  0  0
   44.9365   12.2085    6.9770 H   0  0  0  0  0  0  0  0  0  0  0  0
   43.3537   12.8367    7.4125 H   0  0  0  0  0  0  0  0  0  0  0  0
   46.0557   13.8492    8.0787 H   0  0  0  0  0  0  0  0  0  0  0  0
   44.6048   14.6518    8.6621 H   0  0  0  0  0  0  0  0  0  0  0  0
   44.3710   10.0128    8.0746 H   0  0  0  0  0  0  0  0  0  0  0  0
   42.7102   10.6058    8.3017 H   0  0  0  0  0  0  0  0  0  0  0  0
   43.3706   10.4353    6.6769 H   0  0  0  0  0  0  0  0  0  0  0  0
   45.4753   14.5325   10.9905 H   0  0  0  0  0  0  0  0  0  0  0  0
   46.7038   15.2126    9.9247 H   0  0  0  0  0  0  0  0  0  0  0  0
   46.8398   13.5286   10.4491 H   0  0  0  0  0  0  0  0  0  0  0  0
  3  2  1  0
  4  2  1  0
  5  4  1  0
  6  2  1  0
  3  7  1  0
  8  6  1  0
  5  9  1  0
  6 10  1  0
 11  9  1  0
 12  4  2  0
 13 10  2  0
 14 11  2  0
 15 11  1  0
 16 10  1  0
 17  8  1  0
 18  8  1  0
 19 15  1  0
 20 19  2  0
 21 19  1  0
 22 21  2  0
 23 20  1  0
 24 22  1  0
  7  8  1  0
  5  3  1  0
 24 23  2  0
 26 25  1  0
 27 25  2  0
 28 26  2  0
 29 26  1  0
 30 25  1  0
 31 35  1  0
 32 37  1  0
 33 31  1  0
 34 28  1  0
 35 29  2  0
 36 30  1  0
 37 36  1  0
 38 32  1  0
 39 32  1  0
 40 38  1  0
 41 39  1  0
 31 34  2  0
  1 42  1  0
  1 43  1  0
  3 44  1  1
  5 45  1  6
  6 46  1  6
  9 47  1  0
 15 48  1  0
 15 49  1  0
 16 50  1  0
 17 51  1  0
 17 52  1  0
 17 53  1  0
 18 54  1  0
 18 55  1  0
 18 56  1  0
 20 57  1  0
 21 58  1  0
 22 59  1  0
 23 60  1  0
 24 61  1  0
 28 62  1  0
 29 63  1  0
 33 64  1  0
 33 65  1  0
 34 66  1  0
 35 67  1  0
 36 68  1  0
 36 69  1  0
 37 70  1  0
 37 71  1  0
 38 72  1  0
 38 73  1  0
 39 74  1  0
 39 75  1  0
 40 76  1  0
 40 77  1  0
 40 78  1  0
 41 79  1  0
 41 80  1  0
 41 81  1  0
M  END
> <Uni-Dock RESULT> 
ENERGY=   -4.769  LOWER_BOUND=    4.484  UPPER_BOUND=    6.875
INTER + INTRA:          -4.769
INTER:                  -4.769
INTRA:                   0.000
UNBOUND:                 0.000

$$$$

     RDKit          3D

 81 82  0  0  0  0  0  0  0  0999 V2000
   48.0834   12.5656   13.9361 O   0  0  0  0  0  0  0  0  0  0  0  0
   49.7877   13.7655   15.9725 N   0  0  0  0  0  0  0  0  0  0  0  0
   50.3088   13.5876   14.6081 C   0  0  1  0  0  0  0  0  0  0  0  0
   49.2241   12.5231   16.0228 C   0  0  0  0  0  0  0  0  0  0  0  0
   49.9604   12.0794   14.7376 C   0  0  1  0  0  0  0  0  0  0  0  0
   49.0104   14.9697   16.2460 C   0  0  2  0  0  0  0  0  0  0  0  0
   49.2286   14.6235   13.5401 S   0  0  0  0  0  0  0  0  0  0  0  0
   48.2489   15.3308   14.9457 C   0  0  0  0  0  0  0  0  0  0  0  0
   49.1144   11.4735   13.6786 N   0  0  0  0  0  0  0  0  0  0  0  0
   49.9161   16.0870   16.7736 C   0  0  0  0  0  0  0  0  0  0  0  0
   49.6299   11.1939   12.4328 C   0  0  0  0  0  0  0  0  0  0  0  0
   48.3748   12.0668   16.7523 O   0  0  0  0  0  0  0  0  0  0  0  0
   49.5305   17.1462   17.2481 O   0  0  0  0  0  0  0  0  0  0  0  0
   50.8006   11.4332   12.1433 O   0  0  0  0  0  0  0  0  0  0  0  0
   48.6367   10.6472   11.4233 C   0  0  0  0  0  0  0  0  0  0  0  0
   51.2409   15.8569   16.6608 O   0  0  0  0  0  0  0  0  0  0  0  0
   48.0705   16.8308   14.6792 C   0  0  0  0  0  0  0  0  0  0  0  0
   46.8595   14.6689   14.9179 C   0  0  0  0  0  0  0  0  0  0  0  0
   47.8141    9.4888   11.9355 C   0  0  0  0  0  0  0  0  0  0  0  0
   48.4259    8.2584   12.2153 C   0  0  0  0  0  0  0  0  0  0  0  0
   46.4355    9.6289   12.1479 C   0  0  0  0  0  0  0  0  0  0  0  0
   45.6855    8.5584   12.6379 C   0  0  0  0  0  0  0  0  0  0  0  0
   47.6729    7.1906   12.7046 C   0  0  0  0  0  0  0  0  0  0  0  0
   46.3039    7.3410   12.9169 C   0  0  0  0  0  0  0  0  0  0  0  0
   49.2262   11.2438   13.1422 C   0  0  0  0  0  0  0  0  0  0  0  0
   48.5624    9.9241   12.9625 C   0  0  0  0  0  0  0  0  0  0  0  0
   50.3084   11.5294   12.6544 O   0  0  0  0  0  0  0  0  0  0  0  0
   47.2905    9.6436   13.4755 C   0  0  0  0  0  0  0  0  0  0  0  0
   49.2350    8.9387   12.2303 C   0  0  0  0  0  0  0  0  0  0  0  0
   48.4678   12.0582   13.9166 O   0  0  0  0  0  0  0  0  0  0  0  0
   47.4049    7.3804   12.5902 C   0  0  0  0  0  0  0  0  0  0  0  0
   48.4703   15.5303   15.4016 N   0  0  0  0  0  0  0  0  0  0  0  0
   46.7733    6.1720   12.2851 N   0  0  0  0  0  0  0  0  0  0  0  0
   46.7120    8.3857   13.2699 C   0  0  0  0  0  0  0  0  0  0  0  0
   48.6485    7.6847   12.0305 C   0  0  0  0  0  0  0  0  0  0  0  0
   49.0383   13.3595   14.1382 C   0  0  0  0  0  0  0  0  0  0  0  0
   48.0912   14.1485   15.0552 C   0  0  0  0  0  0  0  0  0  0  0  0
   49.7364   15.6286   16.1502 C   0  0  0  0  0  0  0  0  0  0  0  0
   48.5070   16.4419   14.2439 C   0  0  0  0  0  0  0  0  0  0  0  0
   49.7395   14.8580   17.4666 C   0  0  0  0  0  0  0  0  0  0  0  0
   47.1736   16.5701   13.5151 C   0  0  0  0  0  0  0  0  0  0  0  0
   48.4512   11.6702   13.8908 H   0  0  0  0  0  0  0  0  0  0  0  0
   48.7267   13.0559   14.4696 H   0  0  0  0  0  0  0  0  0  0  0  0
   51.3768   13.8089   14.5273 H   0  0  0  0  0  0  0  0  0  0  0  0
   50.8213   11.4383   14.9660 H   0  0  0  0  0  0  0  0  0  0  0  0
   48.3127   14.7406   17.0620 H   0  0  0  0  0  0  0  0  0  0  0  0
   48.1727   11.1632   13.8991 H   0  0  0  0  0  0  0  0  0  0  0  0
   47.9910   11.4762   11.1089 H   0  0  0  0  0  0  0  0  0  0  0  0
   49.1875   10.3200   10.5326 H   0  0  0  0  0  0  0  0  0  0  0  0
   51.6610   16.6565   17.0418 H   0  0  0  0  0  0  0  0  0  0  0  0
   47.5092   17.0125   13.7543 H   0  0  0  0  0  0  0  0  0  0  0  0
   47.5064   17.3054   15.4905 H   0  0  0  0  0  0  0  0  0  0  0  0
   49.0282   17.3543   14.5803 H   0  0  0  0  0  0  0  0  0  0  0  0
   46.9057   13.5790   15.0073 H   0  0  0  0  0  0  0  0  0  0  0  0
   46.3201   14.8977   13.9904 H   0  0  0  0  0  0  0  0  0  0  0  0
   46.2455   15.0370   15.7483 H   0  0  0  0  0  0  0  0  0  0  0  0
   49.4947    8.1246   12.0542 H   0  0  0  0  0  0  0  0  0  0  0  0
   45.9324   10.5691   11.9306 H   0  0  0  0  0  0  0  0  0  0  0  0
   44.6161    8.6719   12.7991 H   0  0  0  0  0  0  0  0  0  0  0  0
   48.1553    6.2400   12.9205 H   0  0  0  0  0  0  0  0  0  0  0  0
   45.7185    6.5078   13.2975 H   0  0  0  0  0  0  0  0  0  0  0  0
   46.7283   10.3956   14.0235 H   0  0  0  0  0  0  0  0  0  0  0  0
   50.2125    9.1454   11.7985 H   0  0  0  0  0  0  0  0  0  0  0  0
   46.0488    5.9017   12.9434 H   0  0  0  0  0  0  0  0  0  0  0  0
   47.4113    5.4102   12.0779 H   0  0  0  0  0  0  0  0  0  0  0  0
   45.7096    8.1985   13.6481 H   0  0  0  0  0  0  0  0  0  0  0  0
   49.1751    6.9462   11.4308 H   0  0  0  0  0  0  0  0  0  0  0  0
   50.0198   13.2426   14.6102 H   0  0  0  0  0  0  0  0  0  0  0  0
   49.1494   13.8634   13.1722 H   0  0  0  0  0  0  0  0  0  0  0  0
   47.9361   13.5716   15.9760 H   0  0  0  0  0  0  0  0  0  0  0  0
   47.0882   14.1433   14.6101 H   0  0  0  0  0  0  0  0  0  0  0  0
   49.9128   16.6818   16.4036 H   0  0  0  0  0  0  0  0  0  0  0  0
   50.5878   15.3093   15.5374 H   0  0  0  0  0  0  0  0  0  0  0  0
   48.7669   17.4477   14.5984 H   0  0  0  0  0  0  0  0  0  0  0  0
   49.2884   16.1517   13.5316 H   0  0  0  0  0  0  0  0  0  0  0  0
   48.8689   15.1159   18.0782 H   0  0  0  0  0  0  0  0  0  0  0  0
   49.7465   13.7766   17.3050 H   0  0  0  0  0  0  0  0  0  0  0  0
   50.6385   15.1066   18.0403 H   0  0  0  0  0  0  0  0  0  0  0  0
   46.9142   15.6546   12.9754 H   0  0  0  0  0  0  0  0  0  0  0  0
   47.2286   17.3779   12.7776 H   0  0  0  0  0  0  0  0  0  0  0  0
   46.3632   16.8084   14.2115 H   0  0  0  0  0  0  0  0  0  0  0  0
  3  2  1  0
  4  2  1  0
  5  4  1  0
  6  2  1  0
  3  7  1  0
  8  6  1  0
  5  9  1  0
  6 10  1  0
 11  9  1  0
 12  4  2  0
 13 10  2  0
 14 11  2  0
 15 11  1  0
 16 10  1  0
 17  8  1  0
 18  8  1  0
 19 15  1  0
 20 19  2  0
 21 19  1  0
 22 21  2  0
 23 20  1  0
 24 22  1  0
  7  8  1  0
  5  3  1  0
 24 23  2  0
 26 25  1  0
 27 25  2  0
 28 26  2  0
 29 26  1  0
 30 25  1  0
 31 35  1  0
 32 37  1  0
 33 31  1  0
 34 28  1  0
 35 29  2  0
 36 30  1  0
 37 36  1  0
 38 32  1  0
 39 32  1  0
 40 38  1  0
 41 39  1  0
 31 34  2  0
  1 42  1  0
  1 43  1  0
  3 44  1  1
  5 45  1  6
  6 46  1  6
  9 47  1  0
 15 48  1  0
 15 49  1  0
 16 50  1  0
 17 51  1  0
 17 52  1  0
 17 53  1  0
 18 54  1  0
 18 55  1  0
 18 56  1  0
 20 57  1  0
 21 58  1  0
 22 59  1  0
 23 60  1  0
 24 61  1  0
 28 62  1  0
 29 63  1  0
 33 64  1  0
 33 65  1  0
 34 66  1  0
 35 67  1  0
 36 68  1  0
 36 69  1  0
 37 70  1  0
 37 71  1  0
 38 72  1  0
 38 73  1  0
 39 74  1  0
 39 75  1  0
 40 76  1  0
 40 77  1  0
 40 78  1  0
 41 79  1  0
 41 80  1  0
 41 81  1  0
M  END
> <Uni-Dock RESULT> 
ENERGY=   -4.693  LOWER_BOUND=    5.735  UPPER_BOUND=    7.105
INTER + INTRA:          -4.693
INTER:                  -4.693
INTRA:                   0.000
UNBOUND:                 0.000

$$$$
