
     RDKit          3D

 81 82  0  0  0  0  0  0  0  0999 V2000
   48.5286    8.0542   12.1129 O   0  0  0  0  0  0  0  0  0  0  0  0
   50.9571    9.1194   12.1864 N   0  0  0  0  0  0  0  0  0  0  0  0
   49.7901    8.8260   11.3335 C   0  0  1  0  0  0  0  0  0  0  0  0
   50.6782    8.1147   13.0708 C   0  0  0  0  0  0  0  0  0  0  0  0
   49.5748    7.5324   12.1583 C   0  0  1  0  0  0  0  0  0  0  0  0
   51.1208   10.4864   12.6848 C   0  0  2  0  0  0  0  0  0  0  0  0
   48.6634   10.2474   11.6480 S   0  0  0  0  0  0  0  0  0  0  0  0
   50.1070   11.3797   11.9355 C   0  0  0  0  0  0  0  0  0  0  0  0
   48.2291    7.3440   12.7697 N   0  0  0  0  0  0  0  0  0  0  0  0
   52.5532   11.0004   12.5739 C   0  0  0  0  0  0  0  0  0  0  0  0
   47.1589    6.9806   11.9769 C   0  0  0  0  0  0  0  0  0  0  0  0
   51.0995    7.8972   14.1845 O   0  0  0  0  0  0  0  0  0  0  0  0
   52.9441   12.0915   12.9654 O   0  0  0  0  0  0  0  0  0  0  0  0
   47.3067    6.6876   10.7918 O   0  0  0  0  0  0  0  0  0  0  0  0
   45.8142    7.0154   12.6835 C   0  0  0  0  0  0  0  0  0  0  0  0
   53.4068   10.1647   11.9503 O   0  0  0  0  0  0  0  0  0  0  0  0
   49.6291   12.5542   12.7934 C   0  0  0  0  0  0  0  0  0  0  0  0
   50.5912   11.8811   10.5672 C   0  0  0  0  0  0  0  0  0  0  0  0
   44.9525    5.8121   12.3916 C   0  0  0  0  0  0  0  0  0  0  0  0
   44.0030    5.8497   11.3604 C   0  0  0  0  0  0  0  0  0  0  0  0
   45.1079    4.6298   13.1289 C   0  0  0  0  0  0  0  0  0  0  0  0
   44.3193    3.5125   12.8497 C   0  0  0  0  0  0  0  0  0  0  0  0
   43.2154    4.7304   11.0847 C   0  0  0  0  0  0  0  0  0  0  0  0
   43.3712    3.5638   11.8308 C   0  0  0  0  0  0  0  0  0  0  0  0
   46.9412    8.1480   13.4094 C   0  0  0  0  0  0  0  0  0  0  0  0
   46.3578    6.8914   12.8612 C   0  0  0  0  0  0  0  0  0  0  0  0
   47.3679    8.2452   14.5503 O   0  0  0  0  0  0  0  0  0  0  0  0
   45.8407    6.8042   11.5625 C   0  0  0  0  0  0  0  0  0  0  0  0
   46.3722    5.7475   13.6675 C   0  0  0  0  0  0  0  0  0  0  0  0
   46.9641    9.1084   12.4526 O   0  0  0  0  0  0  0  0  0  0  0  0
   45.3175    4.4538   11.9039 C   0  0  0  0  0  0  0  0  0  0  0  0
   49.9690   10.3457   11.9022 N   0  0  0  0  0  0  0  0  0  0  0  0
   44.9561    3.2113   11.3761 N   0  0  0  0  0  0  0  0  0  0  0  0
   45.3485    5.5854   11.0846 C   0  0  0  0  0  0  0  0  0  0  0  0
   45.8760    4.5351   13.1811 C   0  0  0  0  0  0  0  0  0  0  0  0
   47.5955   10.3518   12.8069 C   0  0  0  0  0  0  0  0  0  0  0  0
   48.5689   10.7935   11.6945 C   0  0  0  0  0  0  0  0  0  0  0  0
   50.1155    8.9079   11.6070 C   0  0  0  0  0  0  0  0  0  0  0  0
   50.9021   11.1481   11.0866 C   0  0  0  0  0  0  0  0  0  0  0  0
   51.3748    8.3076   12.2287 C   0  0  0  0  0  0  0  0  0  0  0  0
   51.1701   12.5177   11.7037 C   0  0  0  0  0  0  0  0  0  0  0  0
   48.7236    9.0023   12.1518 H   0  0  0  0  0  0  0  0  0  0  0  0
   47.5632    8.0109   12.1829 H   0  0  0  0  0  0  0  0  0  0  0  0
   50.0609    8.6753   10.2841 H   0  0  0  0  0  0  0  0  0  0  0  0
   49.9107    6.6164   11.6566 H   0  0  0  0  0  0  0  0  0  0  0  0
   50.8964   10.4718   13.7609 H   0  0  0  0  0  0  0  0  0  0  0  0
   48.0512    7.7083   13.7007 H   0  0  0  0  0  0  0  0  0  0  0  0
   45.3017    7.9349   12.3755 H   0  0  0  0  0  0  0  0  0  0  0  0
   45.9538    7.0962   13.7685 H   0  0  0  0  0  0  0  0  0  0  0  0
   54.2679   10.6316   11.9647 H   0  0  0  0  0  0  0  0  0  0  0  0
   50.4537   13.2420   13.0111 H   0  0  0  0  0  0  0  0  0  0  0  0
   49.2232   12.2159   13.7546 H   0  0  0  0  0  0  0  0  0  0  0  0
   48.8498   13.1356   12.2855 H   0  0  0  0  0  0  0  0  0  0  0  0
   51.3973   12.6139   10.6793 H   0  0  0  0  0  0  0  0  0  0  0  0
   49.7887   12.3835   10.0137 H   0  0  0  0  0  0  0  0  0  0  0  0
   50.9741   11.0690    9.9389 H   0  0  0  0  0  0  0  0  0  0  0  0
   43.8803    6.7487   10.7597 H   0  0  0  0  0  0  0  0  0  0  0  0
   45.8463    4.5663   13.9248 H   0  0  0  0  0  0  0  0  0  0  0  0
   44.4492    2.5992   13.4236 H   0  0  0  0  0  0  0  0  0  0  0  0
   42.4850    4.7666   10.2808 H   0  0  0  0  0  0  0  0  0  0  0  0
   42.7597    2.6920   11.6150 H   0  0  0  0  0  0  0  0  0  0  0  0
   45.8375    7.6676   10.9015 H   0  0  0  0  0  0  0  0  0  0  0  0
   46.8022    5.7860   14.6681 H   0  0  0  0  0  0  0  0  0  0  0  0
   44.6579    2.5400   12.0782 H   0  0  0  0  0  0  0  0  0  0  0  0
   44.3065    3.2640   10.5973 H   0  0  0  0  0  0  0  0  0  0  0  0
   44.9912    5.5245   10.0606 H   0  0  0  0  0  0  0  0  0  0  0  0
   45.9402    3.6501   13.8089 H   0  0  0  0  0  0  0  0  0  0  0  0
   48.1003   10.3245   13.7802 H   0  0  0  0  0  0  0  0  0  0  0  0
   46.7892   11.0920   12.8794 H   0  0  0  0  0  0  0  0  0  0  0  0
   48.2044   10.4682   10.7103 H   0  0  0  0  0  0  0  0  0  0  0  0
   48.5427   11.8885   11.6998 H   0  0  0  0  0  0  0  0  0  0  0  0
   49.2847    8.3446   12.0312 H   0  0  0  0  0  0  0  0  0  0  0  0
   50.1001    8.7248   10.5248 H   0  0  0  0  0  0  0  0  0  0  0  0
   50.5355   11.2611   10.0587 H   0  0  0  0  0  0  0  0  0  0  0  0
   51.8775   10.6560   11.0151 H   0  0  0  0  0  0  0  0  0  0  0  0
   52.2859    8.6658   11.7481 H   0  0  0  0  0  0  0  0  0  0  0  0
   51.4345    8.5325   13.2989 H   0  0  0  0  0  0  0  0  0  0  0  0
   51.3584    7.2191   12.1213 H   0  0  0  0  0  0  0  0  0  0  0  0
   51.9461   13.0425   11.1350 H   0  0  0  0  0  0  0  0  0  0  0  0
   50.2829   13.1563   11.7056 H   0  0  0  0  0  0  0  0  0  0  0  0
   51.5242   12.4170   12.7363 H   0  0  0  0  0  0  0  0  0  0  0  0
  3  2  1  0
  4  2  1  0
  5  4  1  0
  6  2  1  0
  3  7  1  0
  8  6  1  0
  5  9  1  0
  6 10  1  0
 11  9  1  0
 12  4  2  0
 13 10  2  0
 14 11  2  0
 15 11  1  0
 16 10  1  0
 17  8  1  0
 18  8  1  0
 19 15  1  0
 20 19  2  0
 21 19  1  0
 22 21  2  0
 23 20  1  0
 24 22  1  0
  7  8  1  0
  5  3  1  0
 24 23  2  0
 26 25  1  0
 27 25  2  0
 28 26  2  0
 29 26  1  0
 30 25  1  0
 31 35  1  0
 32 37  1  0
 33 31  1  0
 34 28  1  0
 35 29  2  0
 36 30  1  0
 37 36  1  0
 38 32  1  0
 39 32  1  0
 40 38  1  0
 41 39  1  0
 31 34  2  0
  1 42  1  0
  1 43  1  0
  3 44  1  6
  5 45  1  6
  6 46  1  1
  9 47  1  0
 15 48  1  0
 15 49  1  0
 16 50  1  0
 17 51  1  0
 17 52  1  0
 17 53  1  0
 18 54  1  0
 18 55  1  0
 18 56  1  0
 20 57  1  0
 21 58  1  0
 22 59  1  0
 23 60  1  0
 24 61  1  0
 28 62  1  0
 29 63  1  0
 33 64  1  0
 33 65  1  0
 34 66  1  0
 35 67  1  0
 36 68  1  0
 36 69  1  0
 37 70  1  0
 37 71  1  0
 38 72  1  0
 38 73  1  0
 39 74  1  0
 39 75  1  0
 40 76  1  0
 40 77  1  0
 40 78  1  0
 41 79  1  0
 41 80  1  0
 41 81  1  0
M  END
> <Uni-Dock RESULT> 
ENERGY=   -5.627  LOWER_BOUND=    0.000  UPPER_BOUND=    0.000
INTER + INTRA:          -5.627
INTER:                  -5.627
INTRA:                   0.000
UNBOUND:                 0.000

$$$$

     RDKit          3D

 81 82  0  0  0  0  0  0  0  0999 V2000
   43.5841   12.3030    9.5321 O   0  0  0  0  0  0  0  0  0  0  0  0
   45.3147   12.6311    7.5484 N   0  0  0  0  0  0  0  0  0  0  0  0
   44.6109   13.2945    8.6620 C   0  0  1  0  0  0  0  0  0  0  0  0
   44.3638   11.6589    7.4063 C   0  0  0  0  0  0  0  0  0  0  0  0
   43.3981   12.3731    8.3792 C   0  0  1  0  0  0  0  0  0  0  0  0
   46.7117   12.2417    7.7498 C   0  0  2  0  0  0  0  0  0  0  0  0
   45.6644   12.9104   10.1220 S   0  0  0  0  0  0  0  0  0  0  0  0
   47.1918   12.8938    9.0657 C   0  0  0  0  0  0  0  0  0  0  0  0
   42.8852   11.5702    9.5248 N   0  0  0  0  0  0  0  0  0  0  0  0
   47.6087   12.5809    6.5630 C   0  0  0  0  0  0  0  0  0  0  0  0
   42.1490   12.1835   10.5188 C   0  0  0  0  0  0  0  0  0  0  0  0
   44.3891   10.6039    6.8136 O   0  0  0  0  0  0  0  0  0  0  0  0
   48.7992   12.3126    6.4783 O   0  0  0  0  0  0  0  0  0  0  0  0
   41.7975   13.3584   10.4267 O   0  0  0  0  0  0  0  0  0  0  0  0
   41.8580   11.2999   11.7201 C   0  0  0  0  0  0  0  0  0  0  0  0
   47.0022   13.2670    5.5743 O   0  0  0  0  0  0  0  0  0  0  0  0
   48.2532   12.0483    9.7744 C   0  0  0  0  0  0  0  0  0  0  0  0
   47.6765   14.3433    8.9170 C   0  0  0  0  0  0  0  0  0  0  0  0
   40.4329   11.3977   12.2049 C   0  0  0  0  0  0  0  0  0  0  0  0
   40.0901   12.2871   13.2334 C   0  0  0  0  0  0  0  0  0  0  0  0
   39.4258   10.6209   11.6150 C   0  0  0  0  0  0  0  0  0  0  0  0
   38.1049   10.7213   12.0551 C   0  0  0  0  0  0  0  0  0  0  0  0
   38.7680   12.3841   13.6715 C   0  0  0  0  0  0  0  0  0  0  0  0
   37.7768   11.5996   13.0850 C   0  0  0  0  0  0  0  0  0  0  0  0
   43.3360   10.8059   10.9129 C   0  0  0  0  0  0  0  0  0  0  0  0
   41.9164   11.1926   11.1478 C   0  0  0  0  0  0  0  0  0  0  0  0
   43.6649    9.7432   10.4072 O   0  0  0  0  0  0  0  0  0  0  0  0
   41.5552   12.3993   11.7603 C   0  0  0  0  0  0  0  0  0  0  0  0
   40.9113   10.3302   10.6951 C   0  0  0  0  0  0  0  0  0  0  0  0
   44.1627   11.8114   11.2922 O   0  0  0  0  0  0  0  0  0  0  0  0
   39.1997   11.8507   11.5046 C   0  0  0  0  0  0  0  0  0  0  0  0
   46.1645   12.8466    8.8872 N   0  0  0  0  0  0  0  0  0  0  0  0
   37.8605   12.2489   11.5313 N   0  0  0  0  0  0  0  0  0  0  0  0
   40.2052   12.7314   11.9121 C   0  0  0  0  0  0  0  0  0  0  0  0
   39.5653   10.6706   10.8537 C   0  0  0  0  0  0  0  0  0  0  0  0
   45.5648   11.6223   11.0303 C   0  0  0  0  0  0  0  0  0  0  0  0
   46.1608   12.8834   10.3713 C   0  0  0  0  0  0  0  0  0  0  0  0
   44.8107   13.0742    8.3475 C   0  0  0  0  0  0  0  0  0  0  0  0
   47.1209   13.8299    8.3412 C   0  0  0  0  0  0  0  0  0  0  0  0
   44.6688   12.5996    6.9026 C   0  0  0  0  0  0  0  0  0  0  0  0
   48.5625   13.3379    8.4310 C   0  0  0  0  0  0  0  0  0  0  0  0
   44.5469   12.3474    9.6301 H   0  0  0  0  0  0  0  0  0  0  0  0
   43.2675   12.0968   10.4243 H   0  0  0  0  0  0  0  0  0  0  0  0
   44.4441   14.3607    8.4811 H   0  0  0  0  0  0  0  0  0  0  0  0
   42.5758   12.8618    7.8420 H   0  0  0  0  0  0  0  0  0  0  0  0
   46.7375   11.1458    7.8337 H   0  0  0  0  0  0  0  0  0  0  0  0
   43.2708   10.6466    9.6962 H   0  0  0  0  0  0  0  0  0  0  0  0
   42.5527   11.5872   12.5188 H   0  0  0  0  0  0  0  0  0  0  0  0
   42.0819   10.2516   11.4875 H   0  0  0  0  0  0  0  0  0  0  0  0
   47.6996   13.4001    4.8992 H   0  0  0  0  0  0  0  0  0  0  0  0
   49.1699   11.9884    9.1774 H   0  0  0  0  0  0  0  0  0  0  0  0
   47.9068   11.0218    9.9453 H   0  0  0  0  0  0  0  0  0  0  0  0
   48.5287   12.4762   10.7463 H   0  0  0  0  0  0  0  0  0  0  0  0
   48.6202   14.3878    8.3632 H   0  0  0  0  0  0  0  0  0  0  0  0
   47.8656   14.8082    9.8921 H   0  0  0  0  0  0  0  0  0  0  0  0
   46.9545   14.9699    8.3814 H   0  0  0  0  0  0  0  0  0  0  0  0
   40.8506   12.9167   13.6907 H   0  0  0  0  0  0  0  0  0  0  0  0
   39.6591    9.9333   10.8055 H   0  0  0  0  0  0  0  0  0  0  0  0
   37.3303   10.1184   11.5896 H   0  0  0  0  0  0  0  0  0  0  0  0
   38.5103   13.0792   14.4661 H   0  0  0  0  0  0  0  0  0  0  0  0
   36.7476   11.6765   13.4246 H   0  0  0  0  0  0  0  0  0  0  0  0
   42.3110   13.1030   12.1008 H   0  0  0  0  0  0  0  0  0  0  0  0
   41.1716    9.4033   10.1846 H   0  0  0  0  0  0  0  0  0  0  0  0
   37.2033   11.4739   11.5293 H   0  0  0  0  0  0  0  0  0  0  0  0
   37.6445   12.9315   12.2515 H   0  0  0  0  0  0  0  0  0  0  0  0
   39.9425   13.6904   12.3497 H   0  0  0  0  0  0  0  0  0  0  0  0
   38.8036   10.0069   10.4527 H   0  0  0  0  0  0  0  0  0  0  0  0
   45.7816   10.7288   10.4324 H   0  0  0  0  0  0  0  0  0  0  0  0
   46.0403   11.4819   12.0089 H   0  0  0  0  0  0  0  0  0  0  0  0
   45.6485   13.7864   10.7310 H   0  0  0  0  0  0  0  0  0  0  0  0
   47.1953   12.9389   10.7269 H   0  0  0  0  0  0  0  0  0  0  0  0
   44.0734   12.5060    8.9140 H   0  0  0  0  0  0  0  0  0  0  0  0
   44.5262   14.1311    8.4313 H   0  0  0  0  0  0  0  0  0  0  0  0
   47.0207   14.8017    8.8406 H   0  0  0  0  0  0  0  0  0  0  0  0
   46.9310   14.0075    7.2776 H   0  0  0  0  0  0  0  0  0  0  0  0
   45.2289   13.2226    6.2044 H   0  0  0  0  0  0  0  0  0  0  0  0
   45.0048   11.5633    6.7909 H   0  0  0  0  0  0  0  0  0  0  0  0
   43.6179   12.6394    6.6011 H   0  0  0  0  0  0  0  0  0  0  0  0
   49.2330   14.0389    7.9212 H   0  0  0  0  0  0  0  0  0  0  0  0
   48.9108   13.2500    9.4635 H   0  0  0  0  0  0  0  0  0  0  0  0
   48.6713   12.3605    7.9465 H   0  0  0  0  0  0  0  0  0  0  0  0
  3  2  1  0
  4  2  1  0
  5  4  1  0
  6  2  1  0
  3  7  1  0
  8  6  1  0
  5  9  1  0
  6 10  1  0
 11  9  1  0
 12  4  2  0
 13 10  2  0
 14 11  2  0
 15 11  1  0
 16 10  1  0
 17  8  1  0
 18  8  1  0
 19 15  1  0
 20 19  2  0
 21 19  1  0
 22 21  2  0
 23 20  1  0
 24 22  1  0
  7  8  1  0
  5  3  1  0
 24 23  2  0
 26 25  1  0
 27 25  2  0
 28 26  2  0
 29 26  1  0
 30 25  1  0
 31 35  1  0
 32 37  1  0
 33 31  1  0
 34 28  1  0
 35 29  2  0
 36 30  1  0
 37 36  1  0
 38 32  1  0
 39 32  1  0
 40 38  1  0
 41 39  1  0
 31 34  2  0
  1 42  1  0
  1 43  1  0
  3 44  1  6
  5 45  1  6
  6 46  1  1
  9 47  1  0
 15 48  1  0
 15 49  1  0
 16 50  1  0
 17 51  1  0
 17 52  1  0
 17 53  1  0
 18 54  1  0
 18 55  1  0
 18 56  1  0
 20 57  1  0
 21 58  1  0
 22 59  1  0
 23 60  1  0
 24 61  1  0
 28 62  1  0
 29 63  1  0
 33 64  1  0
 33 65  1  0
 34 66  1  0
 35 67  1  0
 36 68  1  0
 36 69  1  0
 37 70  1  0
 37 71  1  0
 38 72  1  0
 38 73  1  0
 39 74  1  0
 39 75  1  0
 40 76  1  0
 40 77  1  0
 40 78  1  0
 41 79  1  0
 41 80  1  0
 41 81  1  0
M  END
> <Uni-Dock RESULT> 
ENERGY=   -5.302  LOWER_BOUND=    6.213  UPPER_BOUND=    7.485
INTER + INTRA:          -5.302
INTER:                  -5.302
INTRA:                   0.000
UNBOUND:                 0.000

$$$$

     RDKit          3D

 81 82  0  0  0  0  0  0  0  0999 V2000
   47.6642    9.0478   12.8134 O   0  0  0  0  0  0  0  0  0  0  0  0
   48.9468   11.3700   12.7953 N   0  0  0  0  0  0  0  0  0  0  0  0
   47.9681   10.5341   13.5156 C   0  0  1  0  0  0  0  0  0  0  0  0
   48.7157   10.7635   11.5917 C   0  0  0  0  0  0  0  0  0  0  0  0
   47.4953    9.9920   12.1436 C   0  0  1  0  0  0  0  0  0  0  0  0
   50.3145   11.4326   13.3140 C   0  0  2  0  0  0  0  0  0  0  0  0
   49.0234    9.4430   14.5572 S   0  0  0  0  0  0  0  0  0  0  0  0
   50.3140   10.7697   14.7096 C   0  0  0  0  0  0  0  0  0  0  0  0
   47.5026    8.5123   11.9693 N   0  0  0  0  0  0  0  0  0  0  0  0
   50.8869   12.8469   13.3341 C   0  0  0  0  0  0  0  0  0  0  0  0
   46.5281    7.7442   12.5746 C   0  0  0  0  0  0  0  0  0  0  0  0
   49.3457   10.7836   10.5584 O   0  0  0  0  0  0  0  0  0  0  0  0
   52.0219   13.1444   13.6801 O   0  0  0  0  0  0  0  0  0  0  0  0
   45.5757    8.2575   13.1593 O   0  0  0  0  0  0  0  0  0  0  0  0
   46.7628    6.2458   12.4826 C   0  0  0  0  0  0  0  0  0  0  0  0
   50.0196   13.8127   12.9723 O   0  0  0  0  0  0  0  0  0  0  0  0
   51.6525   10.0990   15.0299 C   0  0  0  0  0  0  0  0  0  0  0  0
   49.8969   11.7021   15.8562 C   0  0  0  0  0  0  0  0  0  0  0  0
   45.5225    5.4657   12.1241 C   0  0  0  0  0  0  0  0  0  0  0  0
   44.7154    4.9110   13.1278 C   0  0  0  0  0  0  0  0  0  0  0  0
   45.1438    5.3079   10.7834 C   0  0  0  0  0  0  0  0  0  0  0  0
   43.9889    4.5971   10.4529 C   0  0  0  0  0  0  0  0  0  0  0  0
   43.5614    4.1999   12.7931 C   0  0  0  0  0  0  0  0  0  0  0  0
   43.2002    4.0403   11.4567 C   0  0  0  0  0  0  0  0  0  0  0  0
   48.2775    7.1299   12.4197 C   0  0  0  0  0  0  0  0  0  0  0  0
   46.8835    6.6936   12.1257 C   0  0  0  0  0  0  0  0  0  0  0  0
   49.1603    7.1627   11.5754 O   0  0  0  0  0  0  0  0  0  0  0  0
   45.8905    6.6279   13.1112 C   0  0  0  0  0  0  0  0  0  0  0  0
   46.5522    6.3821   10.8021 C   0  0  0  0  0  0  0  0  0  0  0  0
   48.3825    7.5163   13.7151 O   0  0  0  0  0  0  0  0  0  0  0  0
   44.2643    5.8987   11.4565 C   0  0  0  0  0  0  0  0  0  0  0  0
   49.4975   10.5960   14.0831 N   0  0  0  0  0  0  0  0  0  0  0  0
   42.9344    5.6658   11.0960 N   0  0  0  0  0  0  0  0  0  0  0  0
   44.5865    6.2566   12.7683 C   0  0  0  0  0  0  0  0  0  0  0  0
   45.2467    6.0101   10.4705 C   0  0  0  0  0  0  0  0  0  0  0  0
   49.6508    8.0609   14.1212 C   0  0  0  0  0  0  0  0  0  0  0  0
   49.4427    9.3675   14.9147 C   0  0  0  0  0  0  0  0  0  0  0  0
   48.2640   10.7554   13.2902 C   0  0  0  0  0  0  0  0  0  0  0  0
   49.7412   11.7861   14.9221 C   0  0  0  0  0  0  0  0  0  0  0  0
   48.4455   11.7072   12.1095 C   0  0  0  0  0  0  0  0  0  0  0  0
   51.2062   11.9083   15.3314 C   0  0  0  0  0  0  0  0  0  0  0  0
   48.4307    9.2688   13.3631 H   0  0  0  0  0  0  0  0  0  0  0  0
   47.5011    8.1121   13.0049 H   0  0  0  0  0  0  0  0  0  0  0  0
   47.2313   11.1262   14.0669 H   0  0  0  0  0  0  0  0  0  0  0  0
   46.5522   10.4253   11.7880 H   0  0  0  0  0  0  0  0  0  0  0  0
   50.9539   10.8668   12.6213 H   0  0  0  0  0  0  0  0  0  0  0  0
   48.3393    8.0578   11.6164 H   0  0  0  0  0  0  0  0  0  0  0  0
   47.1564    5.9121   13.4505 H   0  0  0  0  0  0  0  0  0  0  0  0
   47.5451    6.0254   11.7461 H   0  0  0  0  0  0  0  0  0  0  0  0
   50.5333   14.6446   13.0333 H   0  0  0  0  0  0  0  0  0  0  0  0
   52.4546   10.8414   15.1072 H   0  0  0  0  0  0  0  0  0  0  0  0
   51.9439    9.3828   14.2521 H   0  0  0  0  0  0  0  0  0  0  0  0
   51.6173    9.5615   15.9856 H   0  0  0  0  0  0  0  0  0  0  0  0
   50.6613   12.4640   16.0417 H   0  0  0  0  0  0  0  0  0  0  0  0
   49.7695   11.1535   16.7973 H   0  0  0  0  0  0  0  0  0  0  0  0
   48.9584   12.2268   15.6445 H   0  0  0  0  0  0  0  0  0  0  0  0
   44.9767    5.0399   14.1761 H   0  0  0  0  0  0  0  0  0  0  0  0
   45.7420    5.7395    9.9844 H   0  0  0  0  0  0  0  0  0  0  0  0
   43.7010    4.4831    9.4116 H   0  0  0  0  0  0  0  0  0  0  0  0
   42.9392    3.7770   13.5774 H   0  0  0  0  0  0  0  0  0  0  0  0
   42.3011    3.4887   11.1964 H   0  0  0  0  0  0  0  0  0  0  0  0
   46.1085    6.8875   14.1444 H   0  0  0  0  0  0  0  0  0  0  0  0
   47.3017    6.4610   10.0149 H   0  0  0  0  0  0  0  0  0  0  0  0
   42.8309    5.1187   10.2460 H   0  0  0  0  0  0  0  0  0  0  0  0
   42.3552    5.3118   11.8514 H   0  0  0  0  0  0  0  0  0  0  0  0
   43.8185    6.2528   13.5365 H   0  0  0  0  0  0  0  0  0  0  0  0
   45.0025    5.8179    9.4288 H   0  0  0  0  0  0  0  0  0  0  0  0
   50.3474    8.2158   13.2884 H   0  0  0  0  0  0  0  0  0  0  0  0
   50.1018    7.3156   14.7880 H   0  0  0  0  0  0  0  0  0  0  0  0
   48.5021    9.3299   15.4814 H   0  0  0  0  0  0  0  0  0  0  0  0
   50.2567    9.3986   15.6469 H   0  0  0  0  0  0  0  0  0  0  0  0
   47.9657    9.8030   12.8527 H   0  0  0  0  0  0  0  0  0  0  0  0
   47.4299   11.0867   13.9222 H   0  0  0  0  0  0  0  0  0  0  0  0
   49.0985   11.7840   15.8114 H   0  0  0  0  0  0  0  0  0  0  0  0
   49.5064   12.7036   14.3727 H   0  0  0  0  0  0  0  0  0  0  0  0
   48.5695   12.7432   12.4271 H   0  0  0  0  0  0  0  0  0  0  0  0
   49.3110   11.4239   11.5012 H   0  0  0  0  0  0  0  0  0  0  0  0
   47.5630   11.6697   11.4642 H   0  0  0  0  0  0  0  0  0  0  0  0
   51.3731   12.8545   15.8585 H   0  0  0  0  0  0  0  0  0  0  0  0
   51.5214   11.1045   16.0020 H   0  0  0  0  0  0  0  0  0  0  0  0
   51.8587   11.8978   14.4506 H   0  0  0  0  0  0  0  0  0  0  0  0
  3  2  1  0
  4  2  1  0
  5  4  1  0
  6  2  1  0
  3  7  1  0
  8  6  1  0
  5  9  1  0
  6 10  1  0
 11  9  1  0
 12  4  2  0
 13 10  2  0
 14 11  2  0
 15 11  1  0
 16 10  1  0
 17  8  1  0
 18  8  1  0
 19 15  1  0
 20 19  2  0
 21 19  1  0
 22 21  2  0
 23 20  1  0
 24 22  1  0
  7  8  1  0
  5  3  1  0
 24 23  2  0
 26 25  1  0
 27 25  2  0
 28 26  2  0
 29 26  1  0
 30 25  1  0
 31 35  1  0
 32 37  1  0
 33 31  1  0
 34 28  1  0
 35 29  2  0
 36 30  1  0
 37 36  1  0
 38 32  1  0
 39 32  1  0
 40 38  1  0
 41 39  1  0
 31 34  2  0
  1 42  1  0
  1 43  1  0
  3 44  1  6
  5 45  1  6
  6 46  1  1
  9 47  1  0
 15 48  1  0
 15 49  1  0
 16 50  1  0
 17 51  1  0
 17 52  1  0
 17 53  1  0
 18 54  1  0
 18 55  1  0
 18 56  1  0
 20 57  1  0
 21 58  1  0
 22 59  1  0
 23 60  1  0
 24 61  1  0
 28 62  1  0
 29 63  1  0
 33 64  1  0
 33 65  1  0
 34 66  1  0
 35 67  1  0
 36 68  1  0
 36 69  1  0
 37 70  1  0
 37 71  1  0
 38 72  1  0
 38 73  1  0
 39 74  1  0
 39 75  1  0
 40 76  1  0
 40 77  1  0
 40 78  1  0
 41 79  1  0
 41 80  1  0
 41 81  1  0
M  END
> <Uni-Dock RESULT> 
ENERGY=   -4.932  LOWER_BOUND=    1.730  UPPER_BOUND=    2.957
INTER + INTRA:          -4.932
INTER:                  -4.932
INTRA:                   0.000
UNBOUND:                 0.000

$$$$

     RDKit          3D

 81 82  0  0  0  0  0  0  0  0999 V2000
   48.4037    8.1742   14.0798 O   0  0  0  0  0  0  0  0  0  0  0  0
   49.8528    9.8737   15.5114 N   0  0  0  0  0  0  0  0  0  0  0  0
   49.4794    8.4587   15.3273 C   0  0  1  0  0  0  0  0  0  0  0  0
   48.7054   10.3458   14.9369 C   0  0  0  0  0  0  0  0  0  0  0  0
   48.0692    8.9375   14.9008 C   0  0  1  0  0  0  0  0  0  0  0  0
   51.1480   10.3183   14.9930 C   0  0  2  0  0  0  0  0  0  0  0  0
   50.6295    7.8816   14.0107 S   0  0  0  0  0  0  0  0  0  0  0  0
   51.9451    9.0580   14.5886 C   0  0  0  0  0  0  0  0  0  0  0  0
   47.5707    8.4606   13.5802 N   0  0  0  0  0  0  0  0  0  0  0  0
   51.9119   11.2112   15.9663 C   0  0  0  0  0  0  0  0  0  0  0  0
   47.1378    7.1573   13.4390 C   0  0  0  0  0  0  0  0  0  0  0  0
   48.4164   11.4487   14.5304 O   0  0  0  0  0  0  0  0  0  0  0  0
   52.9915   11.7403   15.7404 O   0  0  0  0  0  0  0  0  0  0  0  0
   47.0366    6.4049   14.4065 O   0  0  0  0  0  0  0  0  0  0  0  0
   46.8444    6.7452   12.0062 C   0  0  0  0  0  0  0  0  0  0  0  0
   51.3277   11.3634   17.1711 O   0  0  0  0  0  0  0  0  0  0  0  0
   52.8933    9.3269   13.4171 C   0  0  0  0  0  0  0  0  0  0  0  0
   52.7019    8.3866   15.7439 C   0  0  0  0  0  0  0  0  0  0  0  0
   45.5607    5.9671   11.8573 C   0  0  0  0  0  0  0  0  0  0  0  0
   45.5719    4.5649   11.8748 C   0  0  0  0  0  0  0  0  0  0  0  0
   44.3348    6.6349   11.7272 C   0  0  0  0  0  0  0  0  0  0  0  0
   43.1458    5.9144   11.6025 C   0  0  0  0  0  0  0  0  0  0  0  0
   44.3806    3.8478   11.7489 C   0  0  0  0  0  0  0  0  0  0  0  0
   43.1690    4.5219   11.6097 C   0  0  0  0  0  0  0  0  0  0  0  0
   48.0467    8.0222   12.0651 C   0  0  0  0  0  0  0  0  0  0  0  0
   46.7934    7.2505   12.2969 C   0  0  0  0  0  0  0  0  0  0  0  0
   48.0620    9.1417   11.5754 O   0  0  0  0  0  0  0  0  0  0  0  0
   46.7935    5.9542   12.8270 C   0  0  0  0  0  0  0  0  0  0  0  0
   45.5715    7.8707   12.0124 C   0  0  0  0  0  0  0  0  0  0  0  0
   49.1164    7.3225   12.5173 O   0  0  0  0  0  0  0  0  0  0  0  0
   44.3639    5.8935   12.7396 C   0  0  0  0  0  0  0  0  0  0  0  0
   50.9168    8.9615   14.7389 N   0  0  0  0  0  0  0  0  0  0  0  0
   43.1600    5.2889   13.1112 N   0  0  0  0  0  0  0  0  0  0  0  0
   45.5835    5.2954   13.0676 C   0  0  0  0  0  0  0  0  0  0  0  0
   44.3681    7.2028   12.2544 C   0  0  0  0  0  0  0  0  0  0  0  0
   50.3911    7.9866   12.4530 C   0  0  0  0  0  0  0  0  0  0  0  0
   51.1398    7.8386   13.7938 C   0  0  0  0  0  0  0  0  0  0  0  0
   49.5789    8.8791   15.3545 C   0  0  0  0  0  0  0  0  0  0  0  0
   51.9706    8.9933   15.7725 C   0  0  0  0  0  0  0  0  0  0  0  0
   49.1272   10.2091   15.9543 C   0  0  0  0  0  0  0  0  0  0  0  0
   53.2704    9.5958   15.2471 C   0  0  0  0  0  0  0  0  0  0  0  0
   49.3573    8.3158   13.9846 H   0  0  0  0  0  0  0  0  0  0  0  0
   48.1852    7.5623   13.3609 H   0  0  0  0  0  0  0  0  0  0  0  0
   49.5202    7.8862   16.2589 H   0  0  0  0  0  0  0  0  0  0  0  0
   47.3009    8.8242   15.6756 H   0  0  0  0  0  0  0  0  0  0  0  0
   50.9503   10.9456   14.1121 H   0  0  0  0  0  0  0  0  0  0  0  0
   47.7704    9.0062   12.7474 H   0  0  0  0  0  0  0  0  0  0  0  0
   47.6944    6.1492   11.6522 H   0  0  0  0  0  0  0  0  0  0  0  0
   46.8016    7.6270   11.3553 H   0  0  0  0  0  0  0  0  0  0  0  0
   51.9302   11.9556   17.6672 H   0  0  0  0  0  0  0  0  0  0  0  0
   53.6776   10.0368   13.7022 H   0  0  0  0  0  0  0  0  0  0  0  0
   52.3640    9.7530   12.5562 H   0  0  0  0  0  0  0  0  0  0  0  0
   53.3942    8.4097   13.0833 H   0  0  0  0  0  0  0  0  0  0  0  0
   53.5411    9.0062   16.0773 H   0  0  0  0  0  0  0  0  0  0  0  0
   53.1278    7.4222   15.4416 H   0  0  0  0  0  0  0  0  0  0  0  0
   52.0601    8.2113   16.6146 H   0  0  0  0  0  0  0  0  0  0  0  0
   46.5085    4.0250   11.9976 H   0  0  0  0  0  0  0  0  0  0  0  0
   44.2935    7.7216   11.7251 H   0  0  0  0  0  0  0  0  0  0  0  0
   42.2001    6.4402   11.5060 H   0  0  0  0  0  0  0  0  0  0  0  0
   44.3978    2.7613   11.7680 H   0  0  0  0  0  0  0  0  0  0  0  0
   42.2416    3.9639   11.5138 H   0  0  0  0  0  0  0  0  0  0  0  0
   47.7243    5.4533   13.0825 H   0  0  0  0  0  0  0  0  0  0  0  0
   45.5489    8.8918   11.6324 H   0  0  0  0  0  0  0  0  0  0  0  0
   42.3591    5.6082   12.5736 H   0  0  0  0  0  0  0  0  0  0  0  0
   43.2039    4.2758   13.1668 H   0  0  0  0  0  0  0  0  0  0  0  0
   45.5999    4.3077   13.5195 H   0  0  0  0  0  0  0  0  0  0  0  0
   43.4313    7.7220   12.0691 H   0  0  0  0  0  0  0  0  0  0  0  0
   50.3209    9.0408   12.1586 H   0  0  0  0  0  0  0  0  0  0  0  0
   50.9644    7.4690   11.6741 H   0  0  0  0  0  0  0  0  0  0  0  0
   50.8916    6.8806   14.2713 H   0  0  0  0  0  0  0  0  0  0  0  0
   52.2030    7.8006   13.5332 H   0  0  0  0  0  0  0  0  0  0  0  0
   48.8286    8.6283   14.6050 H   0  0  0  0  0  0  0  0  0  0  0  0
   49.5429    8.0868   16.1135 H   0  0  0  0  0  0  0  0  0  0  0  0
   52.1556    7.9927   16.1826 H   0  0  0  0  0  0  0  0  0  0  0  0
   51.6685    9.6226   16.6161 H   0  0  0  0  0  0  0  0  0  0  0  0
   49.6987   10.4788   16.8432 H   0  0  0  0  0  0  0  0  0  0  0  0
   49.2131   11.0222   15.2257 H   0  0  0  0  0  0  0  0  0  0  0  0
   48.0766   10.1436   16.2522 H   0  0  0  0  0  0  0  0  0  0  0  0
   53.9929    9.7049   16.0638 H   0  0  0  0  0  0  0  0  0  0  0  0
   53.7399    8.9734   14.4808 H   0  0  0  0  0  0  0  0  0  0  0  0
   53.0946   10.5910   14.8224 H   0  0  0  0  0  0  0  0  0  0  0  0
  3  2  1  0
  4  2  1  0
  5  4  1  0
  6  2  1  0
  3  7  1  0
  8  6  1  0
  5  9  1  0
  6 10  1  0
 11  9  1  0
 12  4  2  0
 13 10  2  0
 14 11  2  0
 15 11  1  0
 16 10  1  0
 17  8  1  0
 18  8  1  0
 19 15  1  0
 20 19  2  0
 21 19  1  0
 22 21  2  0
 23 20  1  0
 24 22  1  0
  7  8  1  0
  5  3  1  0
 24 23  2  0
 26 25  1  0
 27 25  2  0
 28 26  2  0
 29 26  1  0
 30 25  1  0
 31 35  1  0
 32 37  1  0
 33 31  1  0
 34 28  1  0
 35 29  2  0
 36 30  1  0
 37 36  1  0
 38 32  1  0
 39 32  1  0
 40 38  1  0
 41 39  1  0
 31 34  2  0
  1 42  1  0
  1 43  1  0
  3 44  1  6
  5 45  1  6
  6 46  1  1
  9 47  1  0
 15 48  1  0
 15 49  1  0
 16 50  1  0
 17 51  1  0
 17 52  1  0
 17 53  1  0
 18 54  1  0
 18 55  1  0
 18 56  1  0
 20 57  1  0
 21 58  1  0
 22 59  1  0
 23 60  1  0
 24 61  1  0
 28 62  1  0
 29 63  1  0
 33 64  1  0
 33 65  1  0
 34 66  1  0
 35 67  1  0
 36 68  1  0
 36 69  1  0
 37 70  1  0
 37 71  1  0
 38 72  1  0
 38 73  1  0
 39 74  1  0
 39 75  1  0
 40 76  1  0
 40 77  1  0
 40 78  1  0
 41 79  1  0
 41 80  1  0
 41 81  1  0
M  END
> <Uni-Dock RESULT> 
ENERGY=   -4.927  LOWER_BOUND=    2.215  UPPER_BOUND=    3.385
INTER + INTRA:          -4.927
INTER:                  -4.927
INTRA:                   0.000
UNBOUND:                 0.000

$$$$

     RDKit          3D

 81 82  0  0  0  0  0  0  0  0999 V2000
   48.2347    8.9710   19.4728 O   0  0  0  0  0  0  0  0  0  0  0  0
   47.7022   11.5216   19.9714 N   0  0  0  0  0  0  0  0  0  0  0  0
   47.5936   10.1413   20.4798 C   0  0  1  0  0  0  0  0  0  0  0  0
   47.7680   11.1314   18.6626 C   0  0  0  0  0  0  0  0  0  0  0  0
   47.4145    9.6686   19.0154 C   0  0  1  0  0  0  0  0  0  0  0  0
   48.7582   12.3765   20.5171 C   0  0  2  0  0  0  0  0  0  0  0  0
   49.2235    9.8539   21.2859 S   0  0  0  0  0  0  0  0  0  0  0  0
   49.3604   11.6494   21.7402 C   0  0  0  0  0  0  0  0  0  0  0  0
   48.3522    8.6167   18.5314 N   0  0  0  0  0  0  0  0  0  0  0  0
   48.2804   13.7875   20.8473 C   0  0  0  0  0  0  0  0  0  0  0  0
   48.1886    7.3087   18.9418 C   0  0  0  0  0  0  0  0  0  0  0  0
   48.1003   11.7375   17.6689 O   0  0  0  0  0  0  0  0  0  0  0  0
   48.9878   14.6917   21.2697 O   0  0  0  0  0  0  0  0  0  0  0  0
   47.2130    6.9598   19.6042 O   0  0  0  0  0  0  0  0  0  0  0  0
   49.3202    6.3783   18.5386 C   0  0  0  0  0  0  0  0  0  0  0  0
   46.9583   13.9894   20.6824 O   0  0  0  0  0  0  0  0  0  0  0  0
   50.8422   11.9807   21.9359 C   0  0  0  0  0  0  0  0  0  0  0  0
   48.5885   11.8631   23.0504 C   0  0  0  0  0  0  0  0  0  0  0  0
   48.8430    5.0526   17.9997 C   0  0  0  0  0  0  0  0  0  0  0  0
   48.7181    3.9427   18.8477 C   0  0  0  0  0  0  0  0  0  0  0  0
   48.4910    4.9186   16.6493 C   0  0  0  0  0  0  0  0  0  0  0  0
   48.0371    3.6951   16.1540 C   0  0  0  0  0  0  0  0  0  0  0  0
   48.2646    2.7203   18.3484 C   0  0  0  0  0  0  0  0  0  0  0  0
   47.9274    2.5958   17.0020 C   0  0  0  0  0  0  0  0  0  0  0  0
   49.8844    8.0330   18.6929 C   0  0  0  0  0  0  0  0  0  0  0  0
   49.0777    6.8478   18.2871 C   0  0  0  0  0  0  0  0  0  0  0  0
   50.4228    8.7818   17.8914 O   0  0  0  0  0  0  0  0  0  0  0  0
   48.4951    5.9781   19.2175 C   0  0  0  0  0  0  0  0  0  0  0  0
   48.8626    6.6290   16.9216 C   0  0  0  0  0  0  0  0  0  0  0  0
   49.8770    8.1629   20.0425 O   0  0  0  0  0  0  0  0  0  0  0  0
   47.5314    4.6592   17.4157 C   0  0  0  0  0  0  0  0  0  0  0  0
   48.7781   11.0934   21.0759 N   0  0  0  0  0  0  0  0  0  0  0  0
   46.6336    3.6769   16.9892 N   0  0  0  0  0  0  0  0  0  0  0  0
   47.7082    4.9081   18.7794 C   0  0  0  0  0  0  0  0  0  0  0  0
   48.0765    5.5556   16.4943 C   0  0  0  0  0  0  0  0  0  0  0  0
   50.5331    9.3258   20.5785 C   0  0  0  0  0  0  0  0  0  0  0  0
   49.6333   10.0122   21.6270 C   0  0  0  0  0  0  0  0  0  0  0  0
   47.6457   10.5368   20.3119 C   0  0  0  0  0  0  0  0  0  0  0  0
   48.2998   11.9831   22.1526 C   0  0  0  0  0  0  0  0  0  0  0  0
   47.0207   11.5580   19.3635 C   0  0  0  0  0  0  0  0  0  0  0  0
   49.3769   12.9644   22.6058 C   0  0  0  0  0  0  0  0  0  0  0  0
   48.7391    9.5421   20.0711 H   0  0  0  0  0  0  0  0  0  0  0  0
   48.7391    8.1438   19.4584 H   0  0  0  0  0  0  0  0  0  0  0  0
   46.7255    9.9975   21.1302 H   0  0  0  0  0  0  0  0  0  0  0  0
   46.3794    9.4287   18.7422 H   0  0  0  0  0  0  0  0  0  0  0  0
   49.5182   12.4998   19.7323 H   0  0  0  0  0  0  0  0  0  0  0  0
   49.2318    8.8931   18.1059 H   0  0  0  0  0  0  0  0  0  0  0  0
   49.9536    6.2252   19.4209 H   0  0  0  0  0  0  0  0  0  0  0  0
   49.9598    6.8567   17.7868 H   0  0  0  0  0  0  0  0  0  0  0  0
   46.8168   14.9272   20.9280 H   0  0  0  0  0  0  0  0  0  0  0  0
   50.9780   13.0392   22.1839 H   0  0  0  0  0  0  0  0  0  0  0  0
   51.4261   11.7797   21.0295 H   0  0  0  0  0  0  0  0  0  0  0  0
   51.2822   11.3986   22.7551 H   0  0  0  0  0  0  0  0  0  0  0  0
   48.6969   12.8927   23.4075 H   0  0  0  0  0  0  0  0  0  0  0  0
   48.9643   11.2148   23.8512 H   0  0  0  0  0  0  0  0  0  0  0  0
   47.5161   11.6686   22.9373 H   0  0  0  0  0  0  0  0  0  0  0  0
   48.9636    4.0288   19.9042 H   0  0  0  0  0  0  0  0  0  0  0  0
   48.5635    5.7657   15.9712 H   0  0  0  0  0  0  0  0  0  0  0  0
   47.7628    3.6014   15.1070 H   0  0  0  0  0  0  0  0  0  0  0  0
   48.1665    1.8664   19.0134 H   0  0  0  0  0  0  0  0  0  0  0  0
   47.5724    1.6450   16.6139 H   0  0  0  0  0  0  0  0  0  0  0  0
   48.6217    6.1341   20.2862 H   0  0  0  0  0  0  0  0  0  0  0  0
   49.2781    7.3144   16.1832 H   0  0  0  0  0  0  0  0  0  0  0  0
   46.8017    3.3533   16.0408 H   0  0  0  0  0  0  0  0  0  0  0  0
   46.5199    2.9068   17.6414 H   0  0  0  0  0  0  0  0  0  0  0  0
   47.2280    4.2689   19.5148 H   0  0  0  0  0  0  0  0  0  0  0  0
   47.8856    5.4332   15.4312 H   0  0  0  0  0  0  0  0  0  0  0  0
   50.8539   10.0401   19.8106 H   0  0  0  0  0  0  0  0  0  0  0  0
   51.4373    8.9600   21.0805 H   0  0  0  0  0  0  0  0  0  0  0  0
   49.0194    9.2696   22.1551 H   0  0  0  0  0  0  0  0  0  0  0  0
   50.3189   10.4437   22.3642 H   0  0  0  0  0  0  0  0  0  0  0  0
   47.9800    9.7167   19.6769 H   0  0  0  0  0  0  0  0  0  0  0  0
   46.8825   10.1238   20.9841 H   0  0  0  0  0  0  0  0  0  0  0  0
   47.9282   11.4067   23.0091 H   0  0  0  0  0  0  0  0  0  0  0  0
   47.4623   12.5972   21.8059 H   0  0  0  0  0  0  0  0  0  0  0  0
   46.4861   12.3456   19.8958 H   0  0  0  0  0  0  0  0  0  0  0  0
   47.7796   12.0228   18.7253 H   0  0  0  0  0  0  0  0  0  0  0  0
   46.2985   11.0619   18.7085 H   0  0  0  0  0  0  0  0  0  0  0  0
   48.9589   13.6782   23.3246 H   0  0  0  0  0  0  0  0  0  0  0  0
   50.2170   12.4659   23.0965 H   0  0  0  0  0  0  0  0  0  0  0  0
   49.7652   13.5366   21.7552 H   0  0  0  0  0  0  0  0  0  0  0  0
  3  2  1  0
  4  2  1  0
  5  4  1  0
  6  2  1  0
  3  7  1  0
  8  6  1  0
  5  9  1  0
  6 10  1  0
 11  9  1  0
 12  4  2  0
 13 10  2  0
 14 11  2  0
 15 11  1  0
 16 10  1  0
 17  8  1  0
 18  8  1  0
 19 15  1  0
 20 19  2  0
 21 19  1  0
 22 21  2  0
 23 20  1  0
 24 22  1  0
  7  8  1  0
  5  3  1  0
 24 23  2  0
 26 25  1  0
 27 25  2  0
 28 26  2  0
 29 26  1  0
 30 25  1  0
 31 35  1  0
 32 37  1  0
 33 31  1  0
 34 28  1  0
 35 29  2  0
 36 30  1  0
 37 36  1  0
 38 32  1  0
 39 32  1  0
 40 38  1  0
 41 39  1  0
 31 34  2  0
  1 42  1  0
  1 43  1  0
  3 44  1  6
  5 45  1  6
  6 46  1  1
  9 47  1  0
 15 48  1  0
 15 49  1  0
 16 50  1  0
 17 51  1  0
 17 52  1  0
 17 53  1  0
 18 54  1  0
 18 55  1  0
 18 56  1  0
 20 57  1  0
 21 58  1  0
 22 59  1  0
 23 60  1  0
 24 61  1  0
 28 62  1  0
 29 63  1  0
 33 64  1  0
 33 65  1  0
 34 66  1  0
 35 67  1  0
 36 68  1  0
 36 69  1  0
 37 70  1  0
 37 71  1  0
 38 72  1  0
 38 73  1  0
 39 74  1  0
 39 75  1  0
 40 76  1  0
 40 77  1  0
 40 78  1  0
 41 79  1  0
 41 80  1  0
 41 81  1  0
M  END
> <Uni-Dock RESULT> 
ENERGY=   -4.902  LOWER_BOUND=    6.859  UPPER_BOUND=    8.228
INTER + INTRA:          -4.902
INTER:                  -4.902
INTRA:                   0.000
UNBOUND:                 0.000

$$$$

     RDKit          3D

 81 82  0  0  0  0  0  0  0  0999 V2000
   41.3572   13.1659    9.9364 O   0  0  0  0  0  0  0  0  0  0  0  0
   42.0210   13.8845    7.4705 N   0  0  0  0  0  0  0  0  0  0  0  0
   42.4318   13.8998    8.8870 C   0  0  1  0  0  0  0  0  0  0  0  0
   40.6897   13.7768    7.7632 C   0  0  0  0  0  0  0  0  0  0  0  0
   40.9358   14.0288    9.2682 C   0  0  1  0  0  0  0  0  0  0  0  0
   42.6407   12.8982    6.5833 C   0  0  2  0  0  0  0  0  0  0  0  0
   43.2420   12.2625    9.1142 S   0  0  0  0  0  0  0  0  0  0  0  0
   43.8204   12.2591    7.3494 C   0  0  0  0  0  0  0  0  0  0  0  0
   40.3958   13.0131   10.2152 N   0  0  0  0  0  0  0  0  0  0  0  0
   43.0592   13.4791    5.2358 C   0  0  0  0  0  0  0  0  0  0  0  0
   40.7129   13.0874   11.5569 C   0  0  0  0  0  0  0  0  0  0  0  0
   39.7453   13.4778    7.0676 O   0  0  0  0  0  0  0  0  0  0  0  0
   43.5537   12.8427    4.3156 O   0  0  0  0  0  0  0  0  0  0  0  0
   41.3343   14.0428   12.0188 O   0  0  0  0  0  0  0  0  0  0  0  0
   40.2648   11.8880   12.3750 C   0  0  0  0  0  0  0  0  0  0  0  0
   42.8877   14.8104    5.1166 O   0  0  0  0  0  0  0  0  0  0  0  0
   44.0618   10.8069    6.9289 C   0  0  0  0  0  0  0  0  0  0  0  0
   45.1298   13.0584    7.2821 C   0  0  0  0  0  0  0  0  0  0  0  0
   39.6289   12.2634   13.6903 C   0  0  0  0  0  0  0  0  0  0  0  0
   40.3966   12.3180   14.8625 C   0  0  0  0  0  0  0  0  0  0  0  0
   38.2670   12.5902   13.7546 C   0  0  0  0  0  0  0  0  0  0  0  0
   37.6819   12.9502   14.9697 C   0  0  0  0  0  0  0  0  0  0  0  0
   39.8076   12.6777   16.0761 C   0  0  0  0  0  0  0  0  0  0  0  0
   38.4507   12.9904   16.1303 C   0  0  0  0  0  0  0  0  0  0  0  0
   40.5410   11.4451   10.6994 C   0  0  0  0  0  0  0  0  0  0  0  0
   40.0423   12.1606   11.9074 C   0  0  0  0  0  0  0  0  0  0  0  0
   39.8014   10.9527    9.8606 O   0  0  0  0  0  0  0  0  0  0  0  0
   40.9015   12.6898   12.8785 C   0  0  0  0  0  0  0  0  0  0  0  0
   38.6617   12.3447   12.0454 C   0  0  0  0  0  0  0  0  0  0  0  0
   41.8961   11.4765   10.6644 O   0  0  0  0  0  0  0  0  0  0  0  0
   38.9985   13.5372   14.1336 C   0  0  0  0  0  0  0  0  0  0  0  0
   43.1104   12.7929    7.8975 N   0  0  0  0  0  0  0  0  0  0  0  0
   38.4916   14.3578   15.1447 N   0  0  0  0  0  0  0  0  0  0  0  0
   40.3787   13.3935   13.9683 C   0  0  0  0  0  0  0  0  0  0  0  0
   38.1495   13.0474   13.1392 C   0  0  0  0  0  0  0  0  0  0  0  0
   42.5209   10.9109    9.4982 C   0  0  0  0  0  0  0  0  0  0  0  0
   43.5995   11.8688    8.9514 C   0  0  0  0  0  0  0  0  0  0  0  0
   42.2923   13.8743    8.4780 C   0  0  0  0  0  0  0  0  0  0  0  0
   44.2379   13.3452    7.1207 C   0  0  0  0  0  0  0  0  0  0  0  0
   41.4064   14.5602    7.4400 C   0  0  0  0  0  0  0  0  0  0  0  0
   44.7743   12.3459    6.0998 C   0  0  0  0  0  0  0  0  0  0  0  0
   42.0011   12.7101    9.3742 H   0  0  0  0  0  0  0  0  0  0  0  0
   41.2942   12.6036   10.7230 H   0  0  0  0  0  0  0  0  0  0  0  0
   43.0570   14.7625    9.1364 H   0  0  0  0  0  0  0  0  0  0  0  0
   40.6305   15.0411    9.5609 H   0  0  0  0  0  0  0  0  0  0  0  0
   41.8783   12.1405    6.3525 H   0  0  0  0  0  0  0  0  0  0  0  0
   40.0042   12.1509    9.8487 H   0  0  0  0  0  0  0  0  0  0  0  0
   41.1444   11.2549   12.5440 H   0  0  0  0  0  0  0  0  0  0  0  0
   39.5578   11.2760   11.8016 H   0  0  0  0  0  0  0  0  0  0  0  0
   43.1947   15.0211    4.2104 H   0  0  0  0  0  0  0  0  0  0  0  0
   44.3838   10.7497    5.8832 H   0  0  0  0  0  0  0  0  0  0  0  0
   43.1530   10.2003    7.0247 H   0  0  0  0  0  0  0  0  0  0  0  0
   44.8459   10.3354    7.5341 H   0  0  0  0  0  0  0  0  0  0  0  0
   45.5583   13.0277    6.2748 H   0  0  0  0  0  0  0  0  0  0  0  0
   45.8901   12.6461    7.9565 H   0  0  0  0  0  0  0  0  0  0  0  0
   44.9867   14.1130    7.5434 H   0  0  0  0  0  0  0  0  0  0  0  0
   41.4604   12.0908   14.8330 H   0  0  0  0  0  0  0  0  0  0  0  0
   37.6498   12.5710   12.8594 H   0  0  0  0  0  0  0  0  0  0  0  0
   36.6267   13.2056   15.0095 H   0  0  0  0  0  0  0  0  0  0  0  0
   40.4109   12.7218   16.9790 H   0  0  0  0  0  0  0  0  0  0  0  0
   37.9927   13.2723   17.0744 H   0  0  0  0  0  0  0  0  0  0  0  0
   41.9803   12.5863   12.7886 H   0  0  0  0  0  0  0  0  0  0  0  0
   37.9787   11.9711   11.2827 H   0  0  0  0  0  0  0  0  0  0  0  0
   37.5260   14.1567   15.3889 H   0  0  0  0  0  0  0  0  0  0  0  0
   39.0876   14.4233   15.9644 H   0  0  0  0  0  0  0  0  0  0  0  0
   41.0609   13.8348   14.6892 H   0  0  0  0  0  0  0  0  0  0  0  0
   37.0776   13.2175   13.2006 H   0  0  0  0  0  0  0  0  0  0  0  0
   41.8089   10.6335    8.7115 H   0  0  0  0  0  0  0  0  0  0  0  0
   43.0108    9.9884    9.8334 H   0  0  0  0  0  0  0  0  0  0  0  0
   44.0658   12.4338    9.7704 H   0  0  0  0  0  0  0  0  0  0  0  0
   44.3754   11.2238    8.5250 H   0  0  0  0  0  0  0  0  0  0  0  0
   41.6080   13.4754    9.2264 H   0  0  0  0  0  0  0  0  0  0  0  0
   42.9224   14.6133    8.9896 H   0  0  0  0  0  0  0  0  0  0  0  0
   45.0468   13.6840    7.7800 H   0  0  0  0  0  0  0  0  0  0  0  0
   43.9209   14.2206    6.5445 H   0  0  0  0  0  0  0  0  0  0  0  0
   41.9829   15.1554    6.7309 H   0  0  0  0  0  0  0  0  0  0  0  0
   40.8135   13.8295    6.8797 H   0  0  0  0  0  0  0  0  0  0  0  0
   40.7075   15.2379    7.9391 H   0  0  0  0  0  0  0  0  0  0  0  0
   45.5336   12.8216    5.4689 H   0  0  0  0  0  0  0  0  0  0  0  0
   45.2429   11.4777    6.5708 H   0  0  0  0  0  0  0  0  0  0  0  0
   43.9711   11.9902    5.4440 H   0  0  0  0  0  0  0  0  0  0  0  0
  3  2  1  0
  4  2  1  0
  5  4  1  0
  6  2  1  0
  3  7  1  0
  8  6  1  0
  5  9  1  0
  6 10  1  0
 11  9  1  0
 12  4  2  0
 13 10  2  0
 14 11  2  0
 15 11  1  0
 16 10  1  0
 17  8  1  0
 18  8  1  0
 19 15  1  0
 20 19  2  0
 21 19  1  0
 22 21  2  0
 23 20  1  0
 24 22  1  0
  7  8  1  0
  5  3  1  0
 24 23  2  0
 26 25  1  0
 27 25  2  0
 28 26  2  0
 29 26  1  0
 30 25  1  0
 31 35  1  0
 32 37  1  0
 33 31  1  0
 34 28  1  0
 35 29  2  0
 36 30  1  0
 37 36  1  0
 38 32  1  0
 39 32  1  0
 40 38  1  0
 41 39  1  0
 31 34  2  0
  1 42  1  0
  1 43  1  0
  3 44  1  6
  5 45  1  6
  6 46  1  1
  9 47  1  0
 15 48  1  0
 15 49  1  0
 16 50  1  0
 17 51  1  0
 17 52  1  0
 17 53  1  0
 18 54  1  0
 18 55  1  0
 18 56  1  0
 20 57  1  0
 21 58  1  0
 22 59  1  0
 23 60  1  0
 24 61  1  0
 28 62  1  0
 29 63  1  0
 33 64  1  0
 33 65  1  0
 34 66  1  0
 35 67  1  0
 36 68  1  0
 36 69  1  0
 37 70  1  0
 37 71  1  0
 38 72  1  0
 38 73  1  0
 39 74  1  0
 39 75  1  0
 40 76  1  0
 40 77  1  0
 40 78  1  0
 41 79  1  0
 41 80  1  0
 41 81  1  0
M  END
> <Uni-Dock RESULT> 
ENERGY=   -4.846  LOWER_BOUND=    8.250  UPPER_BOUND=    9.919
INTER + INTRA:          -4.846
INTER:                  -4.846
INTRA:                   0.000
UNBOUND:                 0.000

$$$$

     RDKit          3D

 81 82  0  0  0  0  0  0  0  0999 V2000
   49.1095    8.9891   19.5548 O   0  0  0  0  0  0  0  0  0  0  0  0
   50.1637   11.1686   20.6393 N   0  0  0  0  0  0  0  0  0  0  0  0
   49.7479   10.5241   19.3795 C   0  0  1  0  0  0  0  0  0  0  0  0
   50.3517    9.9813   21.2910 C   0  0  0  0  0  0  0  0  0  0  0  0
   50.1815    9.1671   19.9881 C   0  0  1  0  0  0  0  0  0  0  0  0
   49.2752   12.1738   21.2258 C   0  0  2  0  0  0  0  0  0  0  0  0
   47.9465   10.8916   19.2863 S   0  0  0  0  0  0  0  0  0  0  0  0
   48.1883   12.5026   20.1780 C   0  0  0  0  0  0  0  0  0  0  0  0
   49.1598    8.0827   20.0036 N   0  0  0  0  0  0  0  0  0  0  0  0
   50.0126   13.4153   21.7188 C   0  0  0  0  0  0  0  0  0  0  0  0
   48.8412    7.4220   18.8340 C   0  0  0  0  0  0  0  0  0  0  0  0
   50.4809    9.7335   22.4687 O   0  0  0  0  0  0  0  0  0  0  0  0
   49.4928   14.3671   22.2847 O   0  0  0  0  0  0  0  0  0  0  0  0
   49.4659    7.6193   17.7933 O   0  0  0  0  0  0  0  0  0  0  0  0
   47.6519    6.4831   18.9476 C   0  0  0  0  0  0  0  0  0  0  0  0
   51.3326   13.4334   21.4478 O   0  0  0  0  0  0  0  0  0  0  0  0
   46.8587   12.8921   20.8293 C   0  0  0  0  0  0  0  0  0  0  0  0
   48.6031   13.5565   19.1410 C   0  0  0  0  0  0  0  0  0  0  0  0
   47.8757    5.1490   18.2802 C   0  0  0  0  0  0  0  0  0  0  0  0
   47.4568    4.9346   16.9592 C   0  0  0  0  0  0  0  0  0  0  0  0
   48.5306    4.1134   18.9616 C   0  0  0  0  0  0  0  0  0  0  0  0
   48.7489    2.8833   18.3390 C   0  0  0  0  0  0  0  0  0  0  0  0
   47.6762    3.7026   16.3401 C   0  0  0  0  0  0  0  0  0  0  0  0
   48.3189    2.6768   17.0305 C   0  0  0  0  0  0  0  0  0  0  0  0
   47.5425    7.7890   20.1149 C   0  0  0  0  0  0  0  0  0  0  0  0
   48.0725    6.6451   19.3209 C   0  0  0  0  0  0  0  0  0  0  0  0
   47.4684    7.7794   21.3346 O   0  0  0  0  0  0  0  0  0  0  0  0
   48.1193    6.6564   17.9213 C   0  0  0  0  0  0  0  0  0  0  0  0
   48.5820    5.5393   20.0112 C   0  0  0  0  0  0  0  0  0  0  0  0
   47.2183    8.8175   19.2930 O   0  0  0  0  0  0  0  0  0  0  0  0
   49.1368    4.4475   17.9144 C   0  0  0  0  0  0  0  0  0  0  0  0
   48.7538   11.6357   20.0437 N   0  0  0  0  0  0  0  0  0  0  0  0
   49.8121    3.4345   17.2283 N   0  0  0  0  0  0  0  0  0  0  0  0
   48.6714    5.5733   17.2298 C   0  0  0  0  0  0  0  0  0  0  0  0
   49.1295    4.4612   19.3107 C   0  0  0  0  0  0  0  0  0  0  0  0
   46.7857   10.0340   19.9277 C   0  0  0  0  0  0  0  0  0  0  0  0
   47.5191   11.2462   19.3171 C   0  0  0  0  0  0  0  0  0  0  0  0
   49.8537   10.6937   19.7634 C   0  0  0  0  0  0  0  0  0  0  0  0
   49.1462   13.0183   19.7060 C   0  0  0  0  0  0  0  0  0  0  0  0
   50.9675   10.7670   20.8060 C   0  0  0  0  0  0  0  0  0  0  0  0
   48.2980   14.0508   20.4428 C   0  0  0  0  0  0  0  0  0  0  0  0
   48.6380    9.8204   19.7129 H   0  0  0  0  0  0  0  0  0  0  0  0
   48.4216    8.3877   19.2325 H   0  0  0  0  0  0  0  0  0  0  0  0
   50.3329   10.8622   18.5188 H   0  0  0  0  0  0  0  0  0  0  0  0
   51.1451    8.7945   19.6190 H   0  0  0  0  0  0  0  0  0  0  0  0
   48.8209   11.7268   22.1217 H   0  0  0  0  0  0  0  0  0  0  0  0
   48.5395    7.9962   20.8029 H   0  0  0  0  0  0  0  0  0  0  0  0
   46.7860    6.9902   18.5049 H   0  0  0  0  0  0  0  0  0  0  0  0
   47.3970    6.3139   20.0010 H   0  0  0  0  0  0  0  0  0  0  0  0
   51.6531   14.2784   21.8260 H   0  0  0  0  0  0  0  0  0  0  0  0
   46.9558   13.8286   21.3896 H   0  0  0  0  0  0  0  0  0  0  0  0
   46.5111   12.1252   21.5322 H   0  0  0  0  0  0  0  0  0  0  0  0
   46.0708   13.0441   20.0812 H   0  0  0  0  0  0  0  0  0  0  0  0
   48.6880   14.5475   19.5994 H   0  0  0  0  0  0  0  0  0  0  0  0
   47.8614   13.6474   18.3382 H   0  0  0  0  0  0  0  0  0  0  0  0
   49.5701   13.3270   18.6794 H   0  0  0  0  0  0  0  0  0  0  0  0
   46.9669    5.7309   16.4026 H   0  0  0  0  0  0  0  0  0  0  0  0
   48.8798    4.2554   19.9816 H   0  0  0  0  0  0  0  0  0  0  0  0
   49.2607    2.0877   18.8732 H   0  0  0  0  0  0  0  0  0  0  0  0
   47.3523    3.5463   15.3146 H   0  0  0  0  0  0  0  0  0  0  0  0
   48.4915    1.7186   16.5480 H   0  0  0  0  0  0  0  0  0  0  0  0
   47.7550    7.5104   17.3553 H   0  0  0  0  0  0  0  0  0  0  0  0
   48.5868    5.5263   21.1009 H   0  0  0  0  0  0  0  0  0  0  0  0
   49.8260    2.5460   17.7209 H   0  0  0  0  0  0  0  0  0  0  0  0
   49.5290    3.3297   16.2586 H   0  0  0  0  0  0  0  0  0  0  0  0
   48.7397    5.6168   16.1466 H   0  0  0  0  0  0  0  0  0  0  0  0
   49.5609    3.6347   19.8695 H   0  0  0  0  0  0  0  0  0  0  0  0
   46.8939   10.0206   21.0191 H   0  0  0  0  0  0  0  0  0  0  0  0
   45.7150   10.1270   19.7082 H   0  0  0  0  0  0  0  0  0  0  0  0
   47.7387   11.0703   18.2550 H   0  0  0  0  0  0  0  0  0  0  0  0
   46.8044   12.0750   19.3634 H   0  0  0  0  0  0  0  0  0  0  0  0
   49.4932    9.6658   19.7947 H   0  0  0  0  0  0  0  0  0  0  0  0
   50.2622   10.8537   18.7572 H   0  0  0  0  0  0  0  0  0  0  0  0
   49.0987   13.1920   18.6237 H   0  0  0  0  0  0  0  0  0  0  0  0
   50.1813   13.2126   20.0055 H   0  0  0  0  0  0  0  0  0  0  0  0
   51.5318   11.6983   20.7454 H   0  0  0  0  0  0  0  0  0  0  0  0
   50.5679   10.6677   21.8208 H   0  0  0  0  0  0  0  0  0  0  0  0
   51.6760    9.9481   20.6496 H   0  0  0  0  0  0  0  0  0  0  0  0
   48.6839   15.0592   20.2556 H   0  0  0  0  0  0  0  0  0  0  0  0
   47.2531   14.0396   20.1216 H   0  0  0  0  0  0  0  0  0  0  0  0
   48.3274   13.8782   21.5250 H   0  0  0  0  0  0  0  0  0  0  0  0
  3  2  1  0
  4  2  1  0
  5  4  1  0
  6  2  1  0
  3  7  1  0
  8  6  1  0
  5  9  1  0
  6 10  1  0
 11  9  1  0
 12  4  2  0
 13 10  2  0
 14 11  2  0
 15 11  1  0
 16 10  1  0
 17  8  1  0
 18  8  1  0
 19 15  1  0
 20 19  2  0
 21 19  1  0
 22 21  2  0
 23 20  1  0
 24 22  1  0
  7  8  1  0
  5  3  1  0
 24 23  2  0
 26 25  1  0
 27 25  2  0
 28 26  2  0
 29 26  1  0
 30 25  1  0
 31 35  1  0
 32 37  1  0
 33 31  1  0
 34 28  1  0
 35 29  2  0
 36 30  1  0
 37 36  1  0
 38 32  1  0
 39 32  1  0
 40 38  1  0
 41 39  1  0
 31 34  2  0
  1 42  1  0
  1 43  1  0
  3 44  1  6
  5 45  1  6
  6 46  1  1
  9 47  1  0
 15 48  1  0
 15 49  1  0
 16 50  1  0
 17 51  1  0
 17 52  1  0
 17 53  1  0
 18 54  1  0
 18 55  1  0
 18 56  1  0
 20 57  1  0
 21 58  1  0
 22 59  1  0
 23 60  1  0
 24 61  1  0
 28 62  1  0
 29 63  1  0
 33 64  1  0
 33 65  1  0
 34 66  1  0
 35 67  1  0
 36 68  1  0
 36 69  1  0
 37 70  1  0
 37 71  1  0
 38 72  1  0
 38 73  1  0
 39 74  1  0
 39 75  1  0
 40 76  1  0
 40 77  1  0
 40 78  1  0
 41 79  1  0
 41 80  1  0
 41 81  1  0
M  END
> <Uni-Dock RESULT> 
ENERGY=   -4.731  LOWER_BOUND=    6.826  UPPER_BOUND=    7.872
INTER + INTRA:          -4.731
INTER:                  -4.731
INTRA:                   0.000
UNBOUND:                 0.000

$$$$

     RDKit          3D

 81 82  0  0  0  0  0  0  0  0999 V2000
   49.0605   11.3362   20.1578 O   0  0  0  0  0  0  0  0  0  0  0  0
   50.1114   13.6913   19.5356 N   0  0  0  0  0  0  0  0  0  0  0  0
   50.1526   12.2405   19.2724 C   0  0  1  0  0  0  0  0  0  0  0  0
   49.5897   13.5410   20.7905 C   0  0  0  0  0  0  0  0  0  0  0  0
   49.8007   12.0100   20.7633 C   0  0  1  0  0  0  0  0  0  0  0  0
   49.4191   14.5478   18.5707 C   0  0  2  0  0  0  0  0  0  0  0  0
   48.8221   11.9953   18.0239 S   0  0  0  0  0  0  0  0  0  0  0  0
   49.1125   13.6902   17.3227 C   0  0  0  0  0  0  0  0  0  0  0  0
   48.6078   11.1635   21.0470 N   0  0  0  0  0  0  0  0  0  0  0  0
   50.1891   15.8217   18.2352 C   0  0  0  0  0  0  0  0  0  0  0  0
   48.6822    9.7946   20.8842 C   0  0  0  0  0  0  0  0  0  0  0  0
   49.0693   14.3408   21.5352 O   0  0  0  0  0  0  0  0  0  0  0  0
   49.7946   16.7104   17.4930 O   0  0  0  0  0  0  0  0  0  0  0  0
   49.7462    9.2346   20.6260 O   0  0  0  0  0  0  0  0  0  0  0  0
   47.3508    9.0739   21.0135 C   0  0  0  0  0  0  0  0  0  0  0  0
   51.4126   15.9061   18.7938 O   0  0  0  0  0  0  0  0  0  0  0  0
   47.8318   14.1398   16.6146 C   0  0  0  0  0  0  0  0  0  0  0  0
   50.2704   13.5918   16.3189 C   0  0  0  0  0  0  0  0  0  0  0  0
   47.4278    7.8171   21.8443 C   0  0  0  0  0  0  0  0  0  0  0  0
   47.6301    6.5712   21.2334 C   0  0  0  0  0  0  0  0  0  0  0  0
   47.3259    7.8802   23.2411 C   0  0  0  0  0  0  0  0  0  0  0  0
   47.4103    6.7184   24.0103 C   0  0  0  0  0  0  0  0  0  0  0  0
   47.7131    5.4113   22.0061 C   0  0  0  0  0  0  0  0  0  0  0  0
   47.6001    5.4845   23.3931 C   0  0  0  0  0  0  0  0  0  0  0  0
   47.1264   10.7283   20.4725 C   0  0  0  0  0  0  0  0  0  0  0  0
   47.5754    9.5509   21.2676 C   0  0  0  0  0  0  0  0  0  0  0  0
   46.4932   11.6570   20.9517 O   0  0  0  0  0  0  0  0  0  0  0  0
   48.2705    8.4770   20.6975 C   0  0  0  0  0  0  0  0  0  0  0  0
   47.3271    9.5482   22.6450 C   0  0  0  0  0  0  0  0  0  0  0  0
   47.5650   10.6229   19.1938 O   0  0  0  0  0  0  0  0  0  0  0  0
   48.4206    7.3917   22.8688 C   0  0  0  0  0  0  0  0  0  0  0  0
   49.3702   13.1975   18.2060 N   0  0  0  0  0  0  0  0  0  0  0  0
   48.9806    6.4068   23.6868 N   0  0  0  0  0  0  0  0  0  0  0  0
   48.7090    7.4201   21.5017 C   0  0  0  0  0  0  0  0  0  0  0  0
   47.7676    8.4862   23.4392 C   0  0  0  0  0  0  0  0  0  0  0  0
   47.2936   11.7399   18.3285 C   0  0  0  0  0  0  0  0  0  0  0  0
   48.5659   12.1356   17.5507 C   0  0  0  0  0  0  0  0  0  0  0  0
   50.1143   12.6623   19.3617 C   0  0  0  0  0  0  0  0  0  0  0  0
   50.2868   13.8326   17.2384 C   0  0  0  0  0  0  0  0  0  0  0  0
   50.5720   13.7583   20.3220 C   0  0  0  0  0  0  0  0  0  0  0  0
   49.5663   14.8311   16.3371 C   0  0  0  0  0  0  0  0  0  0  0  0
   48.8582   11.8467   19.3597 H   0  0  0  0  0  0  0  0  0  0  0  0
   48.4530   10.5826   20.1136 H   0  0  0  0  0  0  0  0  0  0  0  0
   51.1440   11.8951   18.9640 H   0  0  0  0  0  0  0  0  0  0  0  0
   50.6525   11.7111   21.3868 H   0  0  0  0  0  0  0  0  0  0  0  0
   48.4852   14.8849   19.0428 H   0  0  0  0  0  0  0  0  0  0  0  0
   47.6949   11.6015   21.1239 H   0  0  0  0  0  0  0  0  0  0  0  0
   47.0007    8.8403   20.0006 H   0  0  0  0  0  0  0  0  0  0  0  0
   46.5956    9.7401   21.4481 H   0  0  0  0  0  0  0  0  0  0  0  0
   51.7668   16.7672   18.4891 H   0  0  0  0  0  0  0  0  0  0  0  0
   47.9451   15.1484   16.2019 H   0  0  0  0  0  0  0  0  0  0  0  0
   46.9755   14.1613   17.2996 H   0  0  0  0  0  0  0  0  0  0  0  0
   47.5771   13.4761   15.7790 H   0  0  0  0  0  0  0  0  0  0  0  0
   50.4383   14.5503   15.8165 H   0  0  0  0  0  0  0  0  0  0  0  0
   50.0602   12.8595   15.5299 H   0  0  0  0  0  0  0  0  0  0  0  0
   51.2131   13.3058   16.7988 H   0  0  0  0  0  0  0  0  0  0  0  0
   47.7350    6.5002   20.1527 H   0  0  0  0  0  0  0  0  0  0  0  0
   47.1836    8.8340   23.7437 H   0  0  0  0  0  0  0  0  0  0  0  0
   47.3341    6.7771   25.0924 H   0  0  0  0  0  0  0  0  0  0  0  0
   47.8745    4.4503   21.5249 H   0  0  0  0  0  0  0  0  0  0  0  0
   47.6667    4.5821   23.9946 H   0  0  0  0  0  0  0  0  0  0  0  0
   48.5016    8.4598   19.6351 H   0  0  0  0  0  0  0  0  0  0  0  0
   46.8188   10.3907   23.1133 H   0  0  0  0  0  0  0  0  0  0  0  0
   48.4830    6.2709   24.5623 H   0  0  0  0  0  0  0  0  0  0  0  0
   49.1658    5.5284   23.2119 H   0  0  0  0  0  0  0  0  0  0  0  0
   49.2844    6.6164   21.0513 H   0  0  0  0  0  0  0  0  0  0  0  0
   47.6039    8.5285   24.5129 H   0  0  0  0  0  0  0  0  0  0  0  0
   46.8698   12.6057   18.8516 H   0  0  0  0  0  0  0  0  0  0  0  0
   46.5399   11.3924   17.6112 H   0  0  0  0  0  0  0  0  0  0  0  0
   49.1875   11.2519   17.3513 H   0  0  0  0  0  0  0  0  0  0  0  0
   48.2138   12.5050   16.5815 H   0  0  0  0  0  0  0  0  0  0  0  0
   49.4786   12.0041   19.9534 H   0  0  0  0  0  0  0  0  0  0  0  0
   50.9717   12.0606   19.0335 H   0  0  0  0  0  0  0  0  0  0  0  0
   50.8070   13.0812   16.6312 H   0  0  0  0  0  0  0  0  0  0  0  0
   51.0640   14.4038   17.7566 H   0  0  0  0  0  0  0  0  0  0  0  0
   51.3596   14.3809   19.8960 H   0  0  0  0  0  0  0  0  0  0  0  0
   49.7371   14.4044   20.6132 H   0  0  0  0  0  0  0  0  0  0  0  0
   50.9733   13.3076   21.2345 H   0  0  0  0  0  0  0  0  0  0  0  0
   50.2897   15.3619   15.7079 H   0  0  0  0  0  0  0  0  0  0  0  0
   48.8487   14.3486   15.6683 H   0  0  0  0  0  0  0  0  0  0  0  0
   49.0316   15.5792   16.9340 H   0  0  0  0  0  0  0  0  0  0  0  0
  3  2  1  0
  4  2  1  0
  5  4  1  0
  6  2  1  0
  3  7  1  0
  8  6  1  0
  5  9  1  0
  6 10  1  0
 11  9  1  0
 12  4  2  0
 13 10  2  0
 14 11  2  0
 15 11  1  0
 16 10  1  0
 17  8  1  0
 18  8  1  0
 19 15  1  0
 20 19  2  0
 21 19  1  0
 22 21  2  0
 23 20  1  0
 24 22  1  0
  7  8  1  0
  5  3  1  0
 24 23  2  0
 26 25  1  0
 27 25  2  0
 28 26  2  0
 29 26  1  0
 30 25  1  0
 31 35  1  0
 32 37  1  0
 33 31  1  0
 34 28  1  0
 35 29  2  0
 36 30  1  0
 37 36  1  0
 38 32  1  0
 39 32  1  0
 40 38  1  0
 41 39  1  0
 31 34  2  0
  1 42  1  0
  1 43  1  0
  3 44  1  6
  5 45  1  6
  6 46  1  1
  9 47  1  0
 15 48  1  0
 15 49  1  0
 16 50  1  0
 17 51  1  0
 17 52  1  0
 17 53  1  0
 18 54  1  0
 18 55  1  0
 18 56  1  0
 20 57  1  0
 21 58  1  0
 22 59  1  0
 23 60  1  0
 24 61  1  0
 28 62  1  0
 29 63  1  0
 33 64  1  0
 33 65  1  0
 34 66  1  0
 35 67  1  0
 36 68  1  0
 36 69  1  0
 37 70  1  0
 37 71  1  0
 38 72  1  0
 38 73  1  0
 39 74  1  0
 39 75  1  0
 40 76  1  0
 40 77  1  0
 40 78  1  0
 41 79  1  0
 41 80  1  0
 41 81  1  0
M  END
> <Uni-Dock RESULT> 
ENERGY=   -4.672  LOWER_BOUND=    7.676  UPPER_BOUND=    9.071
INTER + INTRA:          -4.672
INTER:                  -4.672
INTRA:                   0.000
UNBOUND:                 0.000

$$$$

     RDKit          3D

 81 82  0  0  0  0  0  0  0  0999 V2000
   47.8579   13.2712   18.1137 O   0  0  0  0  0  0  0  0  0  0  0  0
   47.9840   12.5934   20.6755 N   0  0  0  0  0  0  0  0  0  0  0  0
   47.1360   12.6100   19.4688 C   0  0  1  0  0  0  0  0  0  0  0  0
   48.7569   13.6412   20.2577 C   0  0  0  0  0  0  0  0  0  0  0  0
   47.8152   13.9439   19.0699 C   0  0  1  0  0  0  0  0  0  0  0  0
   48.6287   11.3327   21.0480 C   0  0  2  0  0  0  0  0  0  0  0  0
   47.6397   11.0833   18.5720 S   0  0  0  0  0  0  0  0  0  0  0  0
   48.0132   10.2184   20.1725 C   0  0  0  0  0  0  0  0  0  0  0  0
   48.4384   14.0003   17.7177 N   0  0  0  0  0  0  0  0  0  0  0  0
   48.5371   11.0273   22.5402 C   0  0  0  0  0  0  0  0  0  0  0  0
   47.6395   14.1068   16.5967 C   0  0  0  0  0  0  0  0  0  0  0  0
   49.8269   14.0460   20.6531 O   0  0  0  0  0  0  0  0  0  0  0  0
   49.0382   10.0589   23.0948 O   0  0  0  0  0  0  0  0  0  0  0  0
   46.4253   14.2795   16.6866 O   0  0  0  0  0  0  0  0  0  0  0  0
   48.3823   13.9551   15.2800 C   0  0  0  0  0  0  0  0  0  0  0  0
   47.7999   11.9026   23.2519 O   0  0  0  0  0  0  0  0  0  0  0  0
   49.0110    9.0932   19.8856 C   0  0  0  0  0  0  0  0  0  0  0  0
   46.6974    9.6395   20.7124 C   0  0  0  0  0  0  0  0  0  0  0  0
   47.9804   14.9754   14.2441 C   0  0  0  0  0  0  0  0  0  0  0  0
   46.9865   14.6784   13.3004 C   0  0  0  0  0  0  0  0  0  0  0  0
   48.5751   16.2449   14.2276 C   0  0  0  0  0  0  0  0  0  0  0  0
   48.1935   17.1931   13.2770 C   0  0  0  0  0  0  0  0  0  0  0  0
   46.6082   15.6293   12.3506 C   0  0  0  0  0  0  0  0  0  0  0  0
   47.2134   16.8844   12.3369 C   0  0  0  0  0  0  0  0  0  0  0  0
   49.1999   13.0937   16.5720 C   0  0  0  0  0  0  0  0  0  0  0  0
   48.5298   14.1780   15.8006 C   0  0  0  0  0  0  0  0  0  0  0  0
   50.3323   13.1933   17.0203 O   0  0  0  0  0  0  0  0  0  0  0  0
   47.2443   14.0368   15.2628 C   0  0  0  0  0  0  0  0  0  0  0  0
   49.2013   15.3969   15.6511 C   0  0  0  0  0  0  0  0  0  0  0  0
   48.3573   12.0431   16.7292 O   0  0  0  0  0  0  0  0  0  0  0  0
   47.3327   16.3072   14.3956 C   0  0  0  0  0  0  0  0  0  0  0  0
   47.8674   11.2097   19.8801 N   0  0  0  0  0  0  0  0  0  0  0  0
   46.6784   17.4129   13.8460 N   0  0  0  0  0  0  0  0  0  0  0  0
   46.6457   15.1056   14.5880 C   0  0  0  0  0  0  0  0  0  0  0  0
   48.5951   16.4578   14.9731 C   0  0  0  0  0  0  0  0  0  0  0  0
   48.8320   10.9565   17.5441 C   0  0  0  0  0  0  0  0  0  0  0  0
   47.7501   10.5383   18.5613 C   0  0  0  0  0  0  0  0  0  0  0  0
   47.4079   12.6094   19.8056 C   0  0  0  0  0  0  0  0  0  0  0  0
   47.1220   10.4656   20.9148 C   0  0  0  0  0  0  0  0  0  0  0  0
   47.9230   13.4575   20.9667 C   0  0  0  0  0  0  0  0  0  0  0  0
   47.8820    9.2314   21.3922 C   0  0  0  0  0  0  0  0  0  0  0  0
   47.9981   12.3733   18.4495 H   0  0  0  0  0  0  0  0  0  0  0  0
   47.9492   13.1787   17.1535 H   0  0  0  0  0  0  0  0  0  0  0  0
   46.0692   12.6768   19.7030 H   0  0  0  0  0  0  0  0  0  0  0  0
   47.2044   14.8354   19.2590 H   0  0  0  0  0  0  0  0  0  0  0  0
   49.7022   11.4382   20.8352 H   0  0  0  0  0  0  0  0  0  0  0  0
   49.4091   13.7237   17.6062 H   0  0  0  0  0  0  0  0  0  0  0  0
   48.1941   12.9404   14.9084 H   0  0  0  0  0  0  0  0  0  0  0  0
   49.4652   14.0218   15.4414 H   0  0  0  0  0  0  0  0  0  0  0  0
   47.8432   11.5733   24.1736 H   0  0  0  0  0  0  0  0  0  0  0  0
   49.2820    8.5651   20.8065 H   0  0  0  0  0  0  0  0  0  0  0  0
   49.9386    9.4764   19.4434 H   0  0  0  0  0  0  0  0  0  0  0  0
   48.5935    8.3479   19.1973 H   0  0  0  0  0  0  0  0  0  0  0  0
   46.8692    9.0522   21.6206 H   0  0  0  0  0  0  0  0  0  0  0  0
   46.2264    8.9631   19.9889 H   0  0  0  0  0  0  0  0  0  0  0  0
   45.9711   10.4212   20.9622 H   0  0  0  0  0  0  0  0  0  0  0  0
   46.4946   13.7079   13.3081 H   0  0  0  0  0  0  0  0  0  0  0  0
   49.3380   16.5088   14.9562 H   0  0  0  0  0  0  0  0  0  0  0  0
   48.6569   18.1757   13.2740 H   0  0  0  0  0  0  0  0  0  0  0  0
   45.8340   15.3924   11.6257 H   0  0  0  0  0  0  0  0  0  0  0  0
   46.9176   17.6251   11.5991 H   0  0  0  0  0  0  0  0  0  0  0  0
   46.6853   13.1118   15.3827 H   0  0  0  0  0  0  0  0  0  0  0  0
   50.1876   15.5385   16.0923 H   0  0  0  0  0  0  0  0  0  0  0  0
   47.3082   18.1093   13.4575 H   0  0  0  0  0  0  0  0  0  0  0  0
   45.9286   17.1748   13.2037 H   0  0  0  0  0  0  0  0  0  0  0  0
   45.6316   14.9941   14.2150 H   0  0  0  0  0  0  0  0  0  0  0  0
   49.1171   17.4092   14.9101 H   0  0  0  0  0  0  0  0  0  0  0  0
   49.7817   11.1707   18.0490 H   0  0  0  0  0  0  0  0  0  0  0  0
   49.0097   10.1183   16.8591 H   0  0  0  0  0  0  0  0  0  0  0  0
   46.7459   10.6900   18.1418 H   0  0  0  0  0  0  0  0  0  0  0  0
   47.8796    9.4595   18.7001 H   0  0  0  0  0  0  0  0  0  0  0  0
   47.7887   13.0886   18.9040 H   0  0  0  0  0  0  0  0  0  0  0  0
   46.3128   12.6618   19.7516 H   0  0  0  0  0  0  0  0  0  0  0  0
   46.1239   10.1814   20.5588 H   0  0  0  0  0  0  0  0  0  0  0  0
   46.9686   11.0852   21.8043 H   0  0  0  0  0  0  0  0  0  0  0  0
   47.4610   13.1852   21.9163 H   0  0  0  0  0  0  0  0  0  0  0  0
   49.0096   13.3693   21.0706 H   0  0  0  0  0  0  0  0  0  0  0  0
   47.6941   14.5118   20.7856 H   0  0  0  0  0  0  0  0  0  0  0  0
   47.3550    8.7652   22.2323 H   0  0  0  0  0  0  0  0  0  0  0  0
   47.9804    8.4729   20.6112 H   0  0  0  0  0  0  0  0  0  0  0  0
   48.8865    9.5022   21.7378 H   0  0  0  0  0  0  0  0  0  0  0  0
  3  2  1  0
  4  2  1  0
  5  4  1  0
  6  2  1  0
  3  7  1  0
  8  6  1  0
  5  9  1  0
  6 10  1  0
 11  9  1  0
 12  4  2  0
 13 10  2  0
 14 11  2  0
 15 11  1  0
 16 10  1  0
 17  8  1  0
 18  8  1  0
 19 15  1  0
 20 19  2  0
 21 19  1  0
 22 21  2  0
 23 20  1  0
 24 22  1  0
  7  8  1  0
  5  3  1  0
 24 23  2  0
 26 25  1  0
 27 25  2  0
 28 26  2  0
 29 26  1  0
 30 25  1  0
 31 35  1  0
 32 37  1  0
 33 31  1  0
 34 28  1  0
 35 29  2  0
 36 30  1  0
 37 36  1  0
 38 32  1  0
 39 32  1  0
 40 38  1  0
 41 39  1  0
 31 34  2  0
  1 42  1  0
  1 43  1  0
  3 44  1  6
  5 45  1  6
  6 46  1  1
  9 47  1  0
 15 48  1  0
 15 49  1  0
 16 50  1  0
 17 51  1  0
 17 52  1  0
 17 53  1  0
 18 54  1  0
 18 55  1  0
 18 56  1  0
 20 57  1  0
 21 58  1  0
 22 59  1  0
 23 60  1  0
 24 61  1  0
 28 62  1  0
 29 63  1  0
 33 64  1  0
 33 65  1  0
 34 66  1  0
 35 67  1  0
 36 68  1  0
 36 69  1  0
 37 70  1  0
 37 71  1  0
 38 72  1  0
 38 73  1  0
 39 74  1  0
 39 75  1  0
 40 76  1  0
 40 77  1  0
 40 78  1  0
 41 79  1  0
 41 80  1  0
 41 81  1  0
M  END
> <Uni-Dock RESULT> 
ENERGY=   -4.661  LOWER_BOUND=    7.147  UPPER_BOUND=    9.857
INTER + INTRA:          -4.661
INTER:                  -4.661
INTRA:                   0.000
UNBOUND:                 0.000

$$$$
