
     RDKit          3D

 81 82  0  0  0  0  0  0  0  0999 V2000
   48.4543    4.9906   15.9203 O   0  0  0  0  0  0  0  0  0  0  0  0
   50.7413    6.2153   17.4565 N   0  0  0  0  0  0  0  0  0  0  0  0
   49.3725    6.6051   17.0607 C   0  0  1  0  0  0  0  0  0  0  0  0
   51.3007    6.6583   16.2893 C   0  0  0  0  0  0  0  0  0  0  0  0
   49.9917    7.3536   15.8549 C   0  0  1  0  0  0  0  0  0  0  0  0
   50.9631    4.8293   17.8703 C   0  0  2  0  0  0  0  0  0  0  0  0
   48.5452    4.9909   16.7536 S   0  0  0  0  0  0  0  0  0  0  0  0
   49.5861    4.1613   18.0480 C   0  0  0  0  0  0  0  0  0  0  0  0
   49.4835    7.0075   14.5002 N   0  0  0  0  0  0  0  0  0  0  0  0
   51.8327    4.7851   19.1189 C   0  0  0  0  0  0  0  0  0  0  0  0
   48.2809    7.5111   14.0532 C   0  0  0  0  0  0  0  0  0  0  0  0
   52.3751    6.4239   15.7853 O   0  0  0  0  0  0  0  0  0  0  0  0
   51.9681    5.6594   19.9600 O   0  0  0  0  0  0  0  0  0  0  0  0
   47.6259    8.3153   14.7119 O   0  0  0  0  0  0  0  0  0  0  0  0
   47.8440    6.9985   12.6937 C   0  0  0  0  0  0  0  0  0  0  0  0
   52.4662    3.6023   19.2679 O   0  0  0  0  0  0  0  0  0  0  0  0
   48.9318    4.4045   19.4150 C   0  0  0  0  0  0  0  0  0  0  0  0
   49.6302    2.6617   17.7447 C   0  0  0  0  0  0  0  0  0  0  0  0
   46.6512    6.0803   12.7777 C   0  0  0  0  0  0  0  0  0  0  0  0
   46.8184    4.7143   13.0479 C   0  0  0  0  0  0  0  0  0  0  0  0
   45.3539    6.5877   12.6152 C   0  0  0  0  0  0  0  0  0  0  0  0
   44.2466    5.7424   12.7022 C   0  0  0  0  0  0  0  0  0  0  0  0
   45.7091    3.8715   13.1383 C   0  0  0  0  0  0  0  0  0  0  0  0
   44.4246    4.3845   12.9621 C   0  0  0  0  0  0  0  0  0  0  0  0
   47.2966    5.3276   15.3318 C   0  0  0  0  0  0  0  0  0  0  0  0
   46.8201    5.5082   13.9334 C   0  0  0  0  0  0  0  0  0  0  0  0
   47.0624    4.3341   16.0019 O   0  0  0  0  0  0  0  0  0  0  0  0
   47.1005    6.6566   13.1833 C   0  0  0  0  0  0  0  0  0  0  0  0
   46.0792    4.4754   13.3473 C   0  0  0  0  0  0  0  0  0  0  0  0
   48.0153    6.4042   15.7347 O   0  0  0  0  0  0  0  0  0  0  0  0
   45.8357    5.7682   11.3044 C   0  0  0  0  0  0  0  0  0  0  0  0
   50.5317    5.5716   18.4265 N   0  0  0  0  0  0  0  0  0  0  0  0
   45.4671    5.8383    9.9571 N   0  0  0  0  0  0  0  0  0  0  0  0
   46.6259    6.7718   11.8714 C   0  0  0  0  0  0  0  0  0  0  0  0
   45.6108    4.5989   12.0350 C   0  0  0  0  0  0  0  0  0  0  0  0
   48.5210    6.3426   17.0820 C   0  0  0  0  0  0  0  0  0  0  0  0
   49.8074    5.4991   17.1424 C   0  0  0  0  0  0  0  0  0  0  0  0
   49.7245    5.1355   19.5812 C   0  0  0  0  0  0  0  0  0  0  0  0
   51.8150    4.8496   18.3721 C   0  0  0  0  0  0  0  0  0  0  0  0
   49.1959    3.7038   19.5433 C   0  0  0  0  0  0  0  0  0  0  0  0
   52.8548    5.5542   17.5045 C   0  0  0  0  0  0  0  0  0  0  0  0
   49.0943    5.4275   16.5019 H   0  0  0  0  0  0  0  0  0  0  0  0
   48.2578    5.6576   15.2453 H   0  0  0  0  0  0  0  0  0  0  0  0
   48.8848    7.2407   17.8057 H   0  0  0  0  0  0  0  0  0  0  0  0
   50.0538    8.4410   15.9862 H   0  0  0  0  0  0  0  0  0  0  0  0
   51.5301    4.3350   17.0689 H   0  0  0  0  0  0  0  0  0  0  0  0
   49.9487    6.2866   13.9608 H   0  0  0  0  0  0  0  0  0  0  0  0
   48.6707    6.4805   12.1921 H   0  0  0  0  0  0  0  0  0  0  0  0
   47.6185    7.8686   12.0643 H   0  0  0  0  0  0  0  0  0  0  0  0
   53.0020    3.7222   20.0817 H   0  0  0  0  0  0  0  0  0  0  0  0
   48.8953    5.4678   19.6777 H   0  0  0  0  0  0  0  0  0  0  0  0
   49.4833    3.8915   20.2112 H   0  0  0  0  0  0  0  0  0  0  0  0
   47.9057    4.0165   19.4416 H   0  0  0  0  0  0  0  0  0  0  0  0
   50.0465    2.4576   16.7517 H   0  0  0  0  0  0  0  0  0  0  0  0
   50.2538    2.1341   18.4744 H   0  0  0  0  0  0  0  0  0  0  0  0
   48.6319    2.2114   17.7896 H   0  0  0  0  0  0  0  0  0  0  0  0
   47.8112    4.2957   13.1973 H   0  0  0  0  0  0  0  0  0  0  0  0
   45.1987    7.6487   12.4270 H   0  0  0  0  0  0  0  0  0  0  0  0
   43.2450    6.1463   12.5756 H   0  0  0  0  0  0  0  0  0  0  0  0
   45.8458    2.8145   13.3521 H   0  0  0  0  0  0  0  0  0  0  0  0
   43.5620    3.7272   13.0358 H   0  0  0  0  0  0  0  0  0  0  0  0
   47.6960    7.4662   13.5972 H   0  0  0  0  0  0  0  0  0  0  0  0
   45.8726    3.5628   13.9031 H   0  0  0  0  0  0  0  0  0  0  0  0
   45.3774    6.7853    9.6012 H   0  0  0  0  0  0  0  0  0  0  0  0
   44.6684    5.2596    9.7160 H   0  0  0  0  0  0  0  0  0  0  0  0
   46.8797    7.6581   11.2949 H   0  0  0  0  0  0  0  0  0  0  0  0
   45.0649    3.7707   11.5897 H   0  0  0  0  0  0  0  0  0  0  0  0
   47.7413    5.9716   17.7572 H   0  0  0  0  0  0  0  0  0  0  0  0
   48.7402    7.3749   17.3773 H   0  0  0  0  0  0  0  0  0  0  0  0
   49.5880    4.4592   16.8720 H   0  0  0  0  0  0  0  0  0  0  0  0
   50.4508    5.8729   16.3368 H   0  0  0  0  0  0  0  0  0  0  0  0
   50.3195    5.2615   20.4952 H   0  0  0  0  0  0  0  0  0  0  0  0
   48.8805    5.8221   19.7134 H   0  0  0  0  0  0  0  0  0  0  0  0
   51.6823    3.8187   18.0222 H   0  0  0  0  0  0  0  0  0  0  0  0
   52.2426    4.7904   19.3809 H   0  0  0  0  0  0  0  0  0  0  0  0
   48.6537    3.4875   20.4701 H   0  0  0  0  0  0  0  0  0  0  0  0
   48.4978    3.5503   18.7155 H   0  0  0  0  0  0  0  0  0  0  0  0
   50.0059    2.9735   19.4589 H   0  0  0  0  0  0  0  0  0  0  0  0
   52.9614    6.6060   17.7891 H   0  0  0  0  0  0  0  0  0  0  0  0
   52.6037    5.5053   16.4416 H   0  0  0  0  0  0  0  0  0  0  0  0
   53.8306    5.0729   17.6307 H   0  0  0  0  0  0  0  0  0  0  0  0
  3  2  1  0
  4  2  1  0
  5  4  1  0
  6  2  1  0
  3  7  1  0
  8  6  1  0
  5  9  1  0
  6 10  1  0
 11  9  1  0
 12  4  2  0
 13 10  2  0
 14 11  2  0
 15 11  1  0
 16 10  1  0
 17  8  1  0
 18  8  1  0
 19 15  1  0
 20 19  2  0
 21 19  1  0
 22 21  2  0
 23 20  1  0
 24 22  1  0
  7  8  1  0
  5  3  1  0
 24 23  2  0
 26 25  1  0
 27 25  2  0
 28 26  2  0
 29 26  1  0
 30 25  1  0
 31 35  1  0
 32 37  1  0
 33 31  1  0
 34 28  1  0
 35 29  2  0
 36 30  1  0
 37 36  1  0
 38 32  1  0
 39 32  1  0
 40 38  1  0
 41 39  1  0
 31 34  2  0
  1 42  1  0
  1 43  1  0
  3 44  1  1
  5 45  1  1
  6 46  1  6
  9 47  1  0
 15 48  1  0
 15 49  1  0
 16 50  1  0
 17 51  1  0
 17 52  1  0
 17 53  1  0
 18 54  1  0
 18 55  1  0
 18 56  1  0
 20 57  1  0
 21 58  1  0
 22 59  1  0
 23 60  1  0
 24 61  1  0
 28 62  1  0
 29 63  1  0
 33 64  1  0
 33 65  1  0
 34 66  1  0
 35 67  1  0
 36 68  1  0
 36 69  1  0
 37 70  1  0
 37 71  1  0
 38 72  1  0
 38 73  1  0
 39 74  1  0
 39 75  1  0
 40 76  1  0
 40 77  1  0
 40 78  1  0
 41 79  1  0
 41 80  1  0
 41 81  1  0
M  END
> <Uni-Dock RESULT> 
ENERGY=   -5.910  LOWER_BOUND=    0.000  UPPER_BOUND=    0.000
INTER + INTRA:          -5.910
INTER:                  -5.910
INTRA:                   0.000
UNBOUND:                 0.000

$$$$

     RDKit          3D

 81 82  0  0  0  0  0  0  0  0999 V2000
   48.3211    7.8781   17.8861 O   0  0  0  0  0  0  0  0  0  0  0  0
   48.7620    5.3905   16.2404 N   0  0  0  0  0  0  0  0  0  0  0  0
   49.5661    6.5435   16.6946 C   0  0  1  0  0  0  0  0  0  0  0  0
   48.3038    6.0360   15.1245 C   0  0  0  0  0  0  0  0  0  0  0  0
   49.2895    7.2084   15.3237 C   0  0  1  0  0  0  0  0  0  0  0  0
   47.7953    4.8208   17.1796 C   0  0  2  0  0  0  0  0  0  0  0  0
   48.6393    7.1534   18.1622 S   0  0  0  0  0  0  0  0  0  0  0  0
   48.0627    5.4356   18.5668 C   0  0  0  0  0  0  0  0  0  0  0  0
   48.6941    8.5717   15.3320 N   0  0  0  0  0  0  0  0  0  0  0  0
   47.8717    3.3006   17.1566 C   0  0  0  0  0  0  0  0  0  0  0  0
   49.4776    9.6769   15.5849 C   0  0  0  0  0  0  0  0  0  0  0  0
   47.3708    5.7927   14.3941 O   0  0  0  0  0  0  0  0  0  0  0  0
   48.8246    2.6105   16.8311 O   0  0  0  0  0  0  0  0  0  0  0  0
   50.6942    9.5929   15.7349 O   0  0  0  0  0  0  0  0  0  0  0  0
   48.7199   10.9895   15.6557 C   0  0  0  0  0  0  0  0  0  0  0  0
   46.7352    2.7177   17.5939 O   0  0  0  0  0  0  0  0  0  0  0  0
   49.1686    4.7376   19.3704 C   0  0  0  0  0  0  0  0  0  0  0  0
   46.7872    5.5391   19.4064 C   0  0  0  0  0  0  0  0  0  0  0  0
   48.6673   11.5524   17.0533 C   0  0  0  0  0  0  0  0  0  0  0  0
   47.6802   11.1319   17.9564 C   0  0  0  0  0  0  0  0  0  0  0  0
   49.6253   12.4845   17.4780 C   0  0  0  0  0  0  0  0  0  0  0  0
   49.5856   13.0004   18.7744 C   0  0  0  0  0  0  0  0  0  0  0  0
   47.6449   11.6463   19.2538 C   0  0  0  0  0  0  0  0  0  0  0  0
   48.5946   12.5823   19.6613 C   0  0  0  0  0  0  0  0  0  0  0  0
   48.8958    9.0582   18.1637 C   0  0  0  0  0  0  0  0  0  0  0  0
   48.6593   10.4784   17.7867 C   0  0  0  0  0  0  0  0  0  0  0  0
   48.5627    8.5798   19.2366 O   0  0  0  0  0  0  0  0  0  0  0  0
   49.0502   11.0058   16.5501 C   0  0  0  0  0  0  0  0  0  0  0  0
   48.0023   11.3068   18.7039 C   0  0  0  0  0  0  0  0  0  0  0  0
   49.5168    8.3938   17.1582 O   0  0  0  0  0  0  0  0  0  0  0  0
   48.1994   13.1944   17.1868 C   0  0  0  0  0  0  0  0  0  0  0  0
   48.8089    4.6831   17.1872 N   0  0  0  0  0  0  0  0  0  0  0  0
   47.8486   14.5017   16.8346 N   0  0  0  0  0  0  0  0  0  0  0  0
   48.8015   12.3503   16.2498 C   0  0  0  0  0  0  0  0  0  0  0  0
   47.7566   12.6485   18.3940 C   0  0  0  0  0  0  0  0  0  0  0  0
   49.8054    7.0066   17.4176 C   0  0  0  0  0  0  0  0  0  0  0  0
   48.5570    6.1375   17.1804 C   0  0  0  0  0  0  0  0  0  0  0  0
   49.3908    4.1938   18.4509 C   0  0  0  0  0  0  0  0  0  0  0  0
   47.6028    3.9175   16.8259 C   0  0  0  0  0  0  0  0  0  0  0  0
   48.5685    4.4253   19.7162 C   0  0  0  0  0  0  0  0  0  0  0  0
   47.2305    4.0594   15.3522 C   0  0  0  0  0  0  0  0  0  0  0  0
   48.5811    7.0669   17.4242 H   0  0  0  0  0  0  0  0  0  0  0  0
   48.6236    8.5883   17.3003 H   0  0  0  0  0  0  0  0  0  0  0  0
   50.6104    6.2787   16.8841 H   0  0  0  0  0  0  0  0  0  0  0  0
   50.1287    7.1493   14.6196 H   0  0  0  0  0  0  0  0  0  0  0  0
   46.7922    5.0952   16.8239 H   0  0  0  0  0  0  0  0  0  0  0  0
   47.6869    8.6777   15.2955 H   0  0  0  0  0  0  0  0  0  0  0  0
   47.6999   10.8681   15.2708 H   0  0  0  0  0  0  0  0  0  0  0  0
   49.2088   11.6957   14.9727 H   0  0  0  0  0  0  0  0  0  0  0  0
   46.9116    1.7565   17.5005 H   0  0  0  0  0  0  0  0  0  0  0  0
   50.0965    4.6288   18.7975 H   0  0  0  0  0  0  0  0  0  0  0  0
   48.8564    3.7328   19.6775 H   0  0  0  0  0  0  0  0  0  0  0  0
   49.4039    5.2893   20.2893 H   0  0  0  0  0  0  0  0  0  0  0  0
   45.9929    6.0787   18.8782 H   0  0  0  0  0  0  0  0  0  0  0  0
   46.3990    4.5444   19.6507 H   0  0  0  0  0  0  0  0  0  0  0  0
   46.9699    6.0550   20.3560 H   0  0  0  0  0  0  0  0  0  0  0  0
   46.9354   10.3960   17.6614 H   0  0  0  0  0  0  0  0  0  0  0  0
   50.4141   12.8085   16.8014 H   0  0  0  0  0  0  0  0  0  0  0  0
   50.3338   13.7218   19.0939 H   0  0  0  0  0  0  0  0  0  0  0  0
   46.8795   11.3128   19.9499 H   0  0  0  0  0  0  0  0  0  0  0  0
   48.5673   12.9795   20.6728 H   0  0  0  0  0  0  0  0  0  0  0  0
   49.5380   10.3846   15.8035 H   0  0  0  0  0  0  0  0  0  0  0  0
   47.6660   10.9105   19.6602 H   0  0  0  0  0  0  0  0  0  0  0  0
   48.4461   14.9136   16.1243 H   0  0  0  0  0  0  0  0  0  0  0  0
   47.7106   15.1209   17.6275 H   0  0  0  0  0  0  0  0  0  0  0  0
   49.0855   12.7334   15.2726 H   0  0  0  0  0  0  0  0  0  0  0  0
   47.2164   13.2646   19.1089 H   0  0  0  0  0  0  0  0  0  0  0  0
   50.2129    6.8925   18.4286 H   0  0  0  0  0  0  0  0  0  0  0  0
   50.5963    6.7190   16.7157 H   0  0  0  0  0  0  0  0  0  0  0  0
   47.7714    6.4045   17.8976 H   0  0  0  0  0  0  0  0  0  0  0  0
   48.1629    6.4369   16.2020 H   0  0  0  0  0  0  0  0  0  0  0  0
   49.5859    3.1177   18.3561 H   0  0  0  0  0  0  0  0  0  0  0  0
   50.3844    4.6359   18.5875 H   0  0  0  0  0  0  0  0  0  0  0  0
   46.7458    4.1983   17.4500 H   0  0  0  0  0  0  0  0  0  0  0  0
   47.7847    2.8491   16.9977 H   0  0  0  0  0  0  0  0  0  0  0  0
   49.0827    3.9808   20.5752 H   0  0  0  0  0  0  0  0  0  0  0  0
   48.4421    5.4905   19.9293 H   0  0  0  0  0  0  0  0  0  0  0  0
   47.5801    3.9614   19.6492 H   0  0  0  0  0  0  0  0  0  0  0  0
   48.0877    3.8480   14.7047 H   0  0  0  0  0  0  0  0  0  0  0  0
   46.8559    5.0593   15.1179 H   0  0  0  0  0  0  0  0  0  0  0  0
   46.4372    3.3475   15.1001 H   0  0  0  0  0  0  0  0  0  0  0  0
  3  2  1  0
  4  2  1  0
  5  4  1  0
  6  2  1  0
  3  7  1  0
  8  6  1  0
  5  9  1  0
  6 10  1  0
 11  9  1  0
 12  4  2  0
 13 10  2  0
 14 11  2  0
 15 11  1  0
 16 10  1  0
 17  8  1  0
 18  8  1  0
 19 15  1  0
 20 19  2  0
 21 19  1  0
 22 21  2  0
 23 20  1  0
 24 22  1  0
  7  8  1  0
  5  3  1  0
 24 23  2  0
 26 25  1  0
 27 25  2  0
 28 26  2  0
 29 26  1  0
 30 25  1  0
 31 35  1  0
 32 37  1  0
 33 31  1  0
 34 28  1  0
 35 29  2  0
 36 30  1  0
 37 36  1  0
 38 32  1  0
 39 32  1  0
 40 38  1  0
 41 39  1  0
 31 34  2  0
  1 42  1  0
  1 43  1  0
  3 44  1  1
  5 45  1  1
  6 46  1  6
  9 47  1  0
 15 48  1  0
 15 49  1  0
 16 50  1  0
 17 51  1  0
 17 52  1  0
 17 53  1  0
 18 54  1  0
 18 55  1  0
 18 56  1  0
 20 57  1  0
 21 58  1  0
 22 59  1  0
 23 60  1  0
 24 61  1  0
 28 62  1  0
 29 63  1  0
 33 64  1  0
 33 65  1  0
 34 66  1  0
 35 67  1  0
 36 68  1  0
 36 69  1  0
 37 70  1  0
 37 71  1  0
 38 72  1  0
 38 73  1  0
 39 74  1  0
 39 75  1  0
 40 76  1  0
 40 77  1  0
 40 78  1  0
 41 79  1  0
 41 80  1  0
 41 81  1  0
M  END
> <Uni-Dock RESULT> 
ENERGY=   -5.910  LOWER_BOUND=    3.664  UPPER_BOUND=    5.965
INTER + INTRA:          -5.910
INTER:                  -5.910
INTRA:                   0.000
UNBOUND:                 0.000

$$$$

     RDKit          3D

 81 82  0  0  0  0  0  0  0  0999 V2000
   50.9795    3.3060   18.2158 O   0  0  0  0  0  0  0  0  0  0  0  0
   49.6906    5.7497   19.4231 N   0  0  0  0  0  0  0  0  0  0  0  0
   50.9055    5.4425   18.6410 C   0  0  1  0  0  0  0  0  0  0  0  0
   50.2888    5.4834   20.6244 C   0  0  0  0  0  0  0  0  0  0  0  0
   51.6879    5.3918   19.9764 C   0  0  1  0  0  0  0  0  0  0  0  0
   48.4569    5.0458   19.0716 C   0  0  2  0  0  0  0  0  0  0  0  0
   50.4861    3.8528   17.8154 S   0  0  0  0  0  0  0  0  0  0  0  0
   48.6907    4.3183   17.7336 C   0  0  0  0  0  0  0  0  0  0  0  0
   52.4659    4.1576   20.2673 N   0  0  0  0  0  0  0  0  0  0  0  0
   47.2852    6.0173   19.0457 C   0  0  0  0  0  0  0  0  0  0  0  0
   53.6897    3.9438   19.6706 C   0  0  0  0  0  0  0  0  0  0  0  0
   49.8148    5.2654   21.7158 O   0  0  0  0  0  0  0  0  0  0  0  0
   47.3255    7.2233   18.8612 O   0  0  0  0  0  0  0  0  0  0  0  0
   54.2170    4.7842   18.9458 O   0  0  0  0  0  0  0  0  0  0  0  0
   54.3240    2.6021   19.9859 C   0  0  0  0  0  0  0  0  0  0  0  0
   46.0964    5.4005   19.2151 O   0  0  0  0  0  0  0  0  0  0  0  0
   48.4798    5.1911   16.4888 C   0  0  0  0  0  0  0  0  0  0  0  0
   47.8632    3.0354   17.6236 C   0  0  0  0  0  0  0  0  0  0  0  0
   54.3454    1.6782   18.7947 C   0  0  0  0  0  0  0  0  0  0  0  0
   53.2309    0.8850   18.4855 C   0  0  0  0  0  0  0  0  0  0  0  0
   55.4724    1.6221   17.9620 C   0  0  0  0  0  0  0  0  0  0  0  0
   55.4920    0.7752   16.8526 C   0  0  0  0  0  0  0  0  0  0  0  0
   53.2514    0.0417   17.3730 C   0  0  0  0  0  0  0  0  0  0  0  0
   54.3822   -0.0158   16.5594 C   0  0  0  0  0  0  0  0  0  0  0  0
   52.1467    2.8920   17.6998 C   0  0  0  0  0  0  0  0  0  0  0  0
   53.2693    2.0260   18.1523 C   0  0  0  0  0  0  0  0  0  0  0  0
   51.2799    2.5229   16.9229 O   0  0  0  0  0  0  0  0  0  0  0  0
   54.2529    2.4706   19.0440 C   0  0  0  0  0  0  0  0  0  0  0  0
   53.3248    0.7108   17.6768 C   0  0  0  0  0  0  0  0  0  0  0  0
   52.2291    4.1189   18.2709 O   0  0  0  0  0  0  0  0  0  0  0  0
   55.3775    0.3170   18.9157 C   0  0  0  0  0  0  0  0  0  0  0  0
   48.8758    5.8326   18.5697 N   0  0  0  0  0  0  0  0  0  0  0  0
   56.3427   -0.5710   19.4017 N   0  0  0  0  0  0  0  0  0  0  0  0
   55.2864    1.6112   19.4352 C   0  0  0  0  0  0  0  0  0  0  0  0
   54.3605   -0.1411   18.0748 C   0  0  0  0  0  0  0  0  0  0  0  0
   51.1941    5.0477   17.8957 C   0  0  0  0  0  0  0  0  0  0  0  0
   49.9113    4.7896   18.7067 C   0  0  0  0  0  0  0  0  0  0  0  0
   48.4252    6.0336   17.1800 C   0  0  0  0  0  0  0  0  0  0  0  0
   47.7338    5.5910   19.4691 C   0  0  0  0  0  0  0  0  0  0  0  0
   47.8154    4.8228   16.4779 C   0  0  0  0  0  0  0  0  0  0  0  0
   48.0764    5.8268   20.9379 C   0  0  0  0  0  0  0  0  0  0  0  0
   50.5986    4.1546   18.4876 H   0  0  0  0  0  0  0  0  0  0  0  0
   51.8759    3.3231   18.5835 H   0  0  0  0  0  0  0  0  0  0  0  0
   51.1864    6.2551   17.9646 H   0  0  0  0  0  0  0  0  0  0  0  0
   52.2832    6.2902   20.1813 H   0  0  0  0  0  0  0  0  0  0  0  0
   48.2532    4.3216   19.8729 H   0  0  0  0  0  0  0  0  0  0  0  0
   52.0332    3.4056   20.7911 H   0  0  0  0  0  0  0  0  0  0  0  0
   53.8027    2.1144   20.8187 H   0  0  0  0  0  0  0  0  0  0  0  0
   55.3428    2.7900   20.3476 H   0  0  0  0  0  0  0  0  0  0  0  0
   45.4454    6.1352   19.2051 H   0  0  0  0  0  0  0  0  0  0  0  0
   49.0440    6.1294   16.5357 H   0  0  0  0  0  0  0  0  0  0  0  0
   47.4225    5.4531   16.3673 H   0  0  0  0  0  0  0  0  0  0  0  0
   48.7809    4.6634   15.5750 H   0  0  0  0  0  0  0  0  0  0  0  0
   48.0312    2.3664   18.4751 H   0  0  0  0  0  0  0  0  0  0  0  0
   46.7922    3.2631   17.5940 H   0  0  0  0  0  0  0  0  0  0  0  0
   48.0993    2.4803   16.7084 H   0  0  0  0  0  0  0  0  0  0  0  0
   52.3355    0.9214   19.1021 H   0  0  0  0  0  0  0  0  0  0  0  0
   56.3404    2.2454   18.1697 H   0  0  0  0  0  0  0  0  0  0  0  0
   56.3705    0.7402   16.2128 H   0  0  0  0  0  0  0  0  0  0  0  0
   52.3824   -0.5673   17.1369 H   0  0  0  0  0  0  0  0  0  0  0  0
   54.3950   -0.6708   15.6920 H   0  0  0  0  0  0  0  0  0  0  0  0
   54.2256    3.4767   19.4544 H   0  0  0  0  0  0  0  0  0  0  0  0
   52.5557    0.3364   17.0039 H   0  0  0  0  0  0  0  0  0  0  0  0
   57.1905   -0.1204   19.7327 H   0  0  0  0  0  0  0  0  0  0  0  0
   56.5384   -1.3499   18.7805 H   0  0  0  0  0  0  0  0  0  0  0  0
   56.0235    1.9652   20.1518 H   0  0  0  0  0  0  0  0  0  0  0  0
   54.3653   -1.1682   17.7178 H   0  0  0  0  0  0  0  0  0  0  0  0
   51.0254    5.0022   16.8137 H   0  0  0  0  0  0  0  0  0  0  0  0
   51.5803    6.0482   18.1210 H   0  0  0  0  0  0  0  0  0  0  0  0
   49.5070    3.7991   18.4655 H   0  0  0  0  0  0  0  0  0  0  0  0
   50.2262    4.7209   19.7549 H   0  0  0  0  0  0  0  0  0  0  0  0
   47.6922    6.8507   17.1614 H   0  0  0  0  0  0  0  0  0  0  0  0
   49.2611    6.4089   16.5785 H   0  0  0  0  0  0  0  0  0  0  0  0
   47.3300    4.5790   19.3439 H   0  0  0  0  0  0  0  0  0  0  0  0
   46.9235    6.2893   19.2244 H   0  0  0  0  0  0  0  0  0  0  0  0
   47.4816    5.1092   15.4747 H   0  0  0  0  0  0  0  0  0  0  0  0
   48.5415    4.0135   16.3596 H   0  0  0  0  0  0  0  0  0  0  0  0
   46.9447    4.4368   17.0158 H   0  0  0  0  0  0  0  0  0  0  0  0
   48.5428    6.8065   21.0838 H   0  0  0  0  0  0  0  0  0  0  0  0
   48.7488    5.0596   21.3309 H   0  0  0  0  0  0  0  0  0  0  0  0
   47.1625    5.7982   21.5410 H   0  0  0  0  0  0  0  0  0  0  0  0
  3  2  1  0
  4  2  1  0
  5  4  1  0
  6  2  1  0
  3  7  1  0
  8  6  1  0
  5  9  1  0
  6 10  1  0
 11  9  1  0
 12  4  2  0
 13 10  2  0
 14 11  2  0
 15 11  1  0
 16 10  1  0
 17  8  1  0
 18  8  1  0
 19 15  1  0
 20 19  2  0
 21 19  1  0
 22 21  2  0
 23 20  1  0
 24 22  1  0
  7  8  1  0
  5  3  1  0
 24 23  2  0
 26 25  1  0
 27 25  2  0
 28 26  2  0
 29 26  1  0
 30 25  1  0
 31 35  1  0
 32 37  1  0
 33 31  1  0
 34 28  1  0
 35 29  2  0
 36 30  1  0
 37 36  1  0
 38 32  1  0
 39 32  1  0
 40 38  1  0
 41 39  1  0
 31 34  2  0
  1 42  1  0
  1 43  1  0
  3 44  1  1
  5 45  1  1
  6 46  1  6
  9 47  1  0
 15 48  1  0
 15 49  1  0
 16 50  1  0
 17 51  1  0
 17 52  1  0
 17 53  1  0
 18 54  1  0
 18 55  1  0
 18 56  1  0
 20 57  1  0
 21 58  1  0
 22 59  1  0
 23 60  1  0
 24 61  1  0
 28 62  1  0
 29 63  1  0
 33 64  1  0
 33 65  1  0
 34 66  1  0
 35 67  1  0
 36 68  1  0
 36 69  1  0
 37 70  1  0
 37 71  1  0
 38 72  1  0
 38 73  1  0
 39 74  1  0
 39 75  1  0
 40 76  1  0
 40 77  1  0
 40 78  1  0
 41 79  1  0
 41 80  1  0
 41 81  1  0
M  END
> <Uni-Dock RESULT> 
ENERGY=   -5.667  LOWER_BOUND=    3.460  UPPER_BOUND=    7.725
INTER + INTRA:          -5.667
INTER:                  -5.667
INTRA:                   0.000
UNBOUND:                 0.000

$$$$

     RDKit          3D

 81 82  0  0  0  0  0  0  0  0999 V2000
   46.3375    5.0950   14.5246 O   0  0  0  0  0  0  0  0  0  0  0  0
   45.4118    6.4064   11.9725 N   0  0  0  0  0  0  0  0  0  0  0  0
   46.6669    5.8341   12.5008 C   0  0  1  0  0  0  0  0  0  0  0  0
   45.6436    7.6420   12.5120 C   0  0  0  0  0  0  0  0  0  0  0  0
   47.0926    7.2696   12.8958 C   0  0  1  0  0  0  0  0  0  0  0  0
   44.1610    5.7158   12.2885 C   0  0  2  0  0  0  0  0  0  0  0  0
   46.0884    4.6997   13.8287 S   0  0  0  0  0  0  0  0  0  0  0  0
   44.5165    4.3491   12.9049 C   0  0  0  0  0  0  0  0  0  0  0  0
   47.4764    7.5038   14.3140 N   0  0  0  0  0  0  0  0  0  0  0  0
   43.2839    5.6204   11.0480 C   0  0  0  0  0  0  0  0  0  0  0  0
   48.7196    7.1276   14.7748 C   0  0  0  0  0  0  0  0  0  0  0  0
   44.8974    8.5725   12.7139 O   0  0  0  0  0  0  0  0  0  0  0  0
   43.6437    5.6424    9.8817 O   0  0  0  0  0  0  0  0  0  0  0  0
   49.5777    6.6619   14.0288 O   0  0  0  0  0  0  0  0  0  0  0  0
   48.9369    7.3405   16.2612 C   0  0  0  0  0  0  0  0  0  0  0  0
   41.9779    5.4566   11.3477 O   0  0  0  0  0  0  0  0  0  0  0  0
   44.8016    3.2429   11.8798 C   0  0  0  0  0  0  0  0  0  0  0  0
   43.4611    3.8779   13.9082 C   0  0  0  0  0  0  0  0  0  0  0  0
   49.0127    6.0436   17.0262 C   0  0  0  0  0  0  0  0  0  0  0  0
   47.8444    5.4026   17.4636 C   0  0  0  0  0  0  0  0  0  0  0  0
   50.2544    5.4455   17.2853 C   0  0  0  0  0  0  0  0  0  0  0  0
   50.3278    4.2398   17.9847 C   0  0  0  0  0  0  0  0  0  0  0  0
   47.9202    4.1946   18.1595 C   0  0  0  0  0  0  0  0  0  0  0  0
   49.1609    3.6157   18.4229 C   0  0  0  0  0  0  0  0  0  0  0  0
   47.4625    4.7541   15.1713 C   0  0  0  0  0  0  0  0  0  0  0  0
   48.2210    5.2699   16.3433 C   0  0  0  0  0  0  0  0  0  0  0  0
   46.7330    3.7760   15.2165 O   0  0  0  0  0  0  0  0  0  0  0  0
   49.0525    6.3939   16.2685 C   0  0  0  0  0  0  0  0  0  0  0  0
   48.0761    4.6099   17.5690 C   0  0  0  0  0  0  0  0  0  0  0  0
   47.6958    5.5191   14.0766 O   0  0  0  0  0  0  0  0  0  0  0  0
   49.6458    6.1419   18.6144 C   0  0  0  0  0  0  0  0  0  0  0  0
   44.8535    5.4364   11.5894 N   0  0  0  0  0  0  0  0  0  0  0  0
   50.2426    6.6563   19.7700 N   0  0  0  0  0  0  0  0  0  0  0  0
   49.7421    6.8342   17.4043 C   0  0  0  0  0  0  0  0  0  0  0  0
   48.7680    5.0585   18.6990 C   0  0  0  0  0  0  0  0  0  0  0  0
   47.0172    5.1051   12.8754 C   0  0  0  0  0  0  0  0  0  0  0  0
   45.5601    5.6018   12.8748 C   0  0  0  0  0  0  0  0  0  0  0  0
   44.7888    4.0363   11.1309 C   0  0  0  0  0  0  0  0  0  0  0  0
   43.5135    6.0485   11.6192 C   0  0  0  0  0  0  0  0  0  0  0  0
   44.0902    3.0455   12.0587 C   0  0  0  0  0  0  0  0  0  0  0  0
   43.5594    7.5742   11.6389 C   0  0  0  0  0  0  0  0  0  0  0  0
   46.1125    5.4204   13.6401 H   0  0  0  0  0  0  0  0  0  0  0  0
   47.1061    5.6265   14.7812 H   0  0  0  0  0  0  0  0  0  0  0  0
   47.2744    5.3634   11.7223 H   0  0  0  0  0  0  0  0  0  0  0  0
   47.8178    7.7264   12.2110 H   0  0  0  0  0  0  0  0  0  0  0  0
   43.6188    6.3365   13.0157 H   0  0  0  0  0  0  0  0  0  0  0  0
   46.7739    7.8072   14.9785 H   0  0  0  0  0  0  0  0  0  0  0  0
   48.1419    7.9683   16.6819 H   0  0  0  0  0  0  0  0  0  0  0  0
   49.8623    7.9170   16.3852 H   0  0  0  0  0  0  0  0  0  0  0  0
   41.5349    5.4390   10.4719 H   0  0  0  0  0  0  0  0  0  0  0  0
   45.5425    3.5471   11.1316 H   0  0  0  0  0  0  0  0  0  0  0  0
   43.8898    2.9635   11.3396 H   0  0  0  0  0  0  0  0  0  0  0  0
   45.1711    2.3318   12.3672 H   0  0  0  0  0  0  0  0  0  0  0  0
   43.2718    4.6277   14.6847 H   0  0  0  0  0  0  0  0  0  0  0  0
   42.5075    3.6794   13.4072 H   0  0  0  0  0  0  0  0  0  0  0  0
   43.7630    2.9486   14.4048 H   0  0  0  0  0  0  0  0  0  0  0  0
   46.8662    5.8329   17.2608 H   0  0  0  0  0  0  0  0  0  0  0  0
   51.1731    5.9136   16.9359 H   0  0  0  0  0  0  0  0  0  0  0  0
   51.2957    3.7841   18.1793 H   0  0  0  0  0  0  0  0  0  0  0  0
   47.0104    3.7012   18.4919 H   0  0  0  0  0  0  0  0  0  0  0  0
   49.2176    2.6736   18.9623 H   0  0  0  0  0  0  0  0  0  0  0  0
   49.1671    6.9468   15.3397 H   0  0  0  0  0  0  0  0  0  0  0  0
   47.4142    3.7504   17.6559 H   0  0  0  0  0  0  0  0  0  0  0  0
   51.0741    7.2122   19.5942 H   0  0  0  0  0  0  0  0  0  0  0  0
   50.3878    5.9680   20.5022 H   0  0  0  0  0  0  0  0  0  0  0  0
   50.3592    7.7267   17.3333 H   0  0  0  0  0  0  0  0  0  0  0  0
   48.6151    4.5495   19.6476 H   0  0  0  0  0  0  0  0  0  0  0  0
   47.0922    4.0177   12.7597 H   0  0  0  0  0  0  0  0  0  0  0  0
   47.5636    5.5576   12.0402 H   0  0  0  0  0  0  0  0  0  0  0  0
   45.0025    5.1319   13.6940 H   0  0  0  0  0  0  0  0  0  0  0  0
   45.6045    6.6662   13.1347 H   0  0  0  0  0  0  0  0  0  0  0  0
   44.2893    4.0079   10.1537 H   0  0  0  0  0  0  0  0  0  0  0  0
   45.8029    3.6751   10.9247 H   0  0  0  0  0  0  0  0  0  0  0  0
   42.9250    5.6877   12.4714 H   0  0  0  0  0  0  0  0  0  0  0  0
   42.9644    5.7671   10.7117 H   0  0  0  0  0  0  0  0  0  0  0  0
   44.0681    2.0557   11.5899 H   0  0  0  0  0  0  0  0  0  0  0  0
   44.6160    2.9413   13.0119 H   0  0  0  0  0  0  0  0  0  0  0  0
   43.0550    3.3367   12.2592 H   0  0  0  0  0  0  0  0  0  0  0  0
   44.1949    7.9621   10.8361 H   0  0  0  0  0  0  0  0  0  0  0  0
   43.9284    7.9616   12.5923 H   0  0  0  0  0  0  0  0  0  0  0  0
   42.5517    7.9774   11.4922 H   0  0  0  0  0  0  0  0  0  0  0  0
  3  2  1  0
  4  2  1  0
  5  4  1  0
  6  2  1  0
  3  7  1  0
  8  6  1  0
  5  9  1  0
  6 10  1  0
 11  9  1  0
 12  4  2  0
 13 10  2  0
 14 11  2  0
 15 11  1  0
 16 10  1  0
 17  8  1  0
 18  8  1  0
 19 15  1  0
 20 19  2  0
 21 19  1  0
 22 21  2  0
 23 20  1  0
 24 22  1  0
  7  8  1  0
  5  3  1  0
 24 23  2  0
 26 25  1  0
 27 25  2  0
 28 26  2  0
 29 26  1  0
 30 25  1  0
 31 35  1  0
 32 37  1  0
 33 31  1  0
 34 28  1  0
 35 29  2  0
 36 30  1  0
 37 36  1  0
 38 32  1  0
 39 32  1  0
 40 38  1  0
 41 39  1  0
 31 34  2  0
  1 42  1  0
  1 43  1  0
  3 44  1  1
  5 45  1  1
  6 46  1  6
  9 47  1  0
 15 48  1  0
 15 49  1  0
 16 50  1  0
 17 51  1  0
 17 52  1  0
 17 53  1  0
 18 54  1  0
 18 55  1  0
 18 56  1  0
 20 57  1  0
 21 58  1  0
 22 59  1  0
 23 60  1  0
 24 61  1  0
 28 62  1  0
 29 63  1  0
 33 64  1  0
 33 65  1  0
 34 66  1  0
 35 67  1  0
 36 68  1  0
 36 69  1  0
 37 70  1  0
 37 71  1  0
 38 72  1  0
 38 73  1  0
 39 74  1  0
 39 75  1  0
 40 76  1  0
 40 77  1  0
 40 78  1  0
 41 79  1  0
 41 80  1  0
 41 81  1  0
M  END
> <Uni-Dock RESULT> 
ENERGY=   -5.611  LOWER_BOUND=    2.149  UPPER_BOUND=    7.233
INTER + INTRA:          -5.611
INTER:                  -5.611
INTRA:                   0.000
UNBOUND:                 0.000

$$$$

     RDKit          3D

 81 82  0  0  0  0  0  0  0  0999 V2000
   52.1675    4.0671   20.1842 O   0  0  0  0  0  0  0  0  0  0  0  0
   52.8073    2.5948   17.6321 N   0  0  0  0  0  0  0  0  0  0  0  0
   52.2119    3.8922   18.0121 C   0  0  1  0  0  0  0  0  0  0  0  0
   51.6168    1.9251   17.7088 C   0  0  0  0  0  0  0  0  0  0  0  0
   50.8173    3.2389   17.8512 C   0  0  1  0  0  0  0  0  0  0  0  0
   53.9464    2.1120   18.4134 C   0  0  2  0  0  0  0  0  0  0  0  0
   52.8537    4.1697   19.7138 S   0  0  0  0  0  0  0  0  0  0  0  0
   54.4256    3.2653   19.3158 C   0  0  0  0  0  0  0  0  0  0  0  0
   49.8867    3.3181   19.0093 N   0  0  0  0  0  0  0  0  0  0  0  0
   55.0259    1.5665   17.4891 C   0  0  0  0  0  0  0  0  0  0  0  0
   49.1902    4.4784   19.2703 C   0  0  0  0  0  0  0  0  0  0  0  0
   51.3753    0.7421   17.7837 O   0  0  0  0  0  0  0  0  0  0  0  0
   55.2204    1.8613   16.3206 O   0  0  0  0  0  0  0  0  0  0  0  0
   49.2475    5.4544   18.5262 O   0  0  0  0  0  0  0  0  0  0  0  0
   48.3533    4.4454   20.5354 C   0  0  0  0  0  0  0  0  0  0  0  0
   55.8463    0.6920   18.1094 O   0  0  0  0  0  0  0  0  0  0  0  0
   55.3843    4.2513   18.6341 C   0  0  0  0  0  0  0  0  0  0  0  0
   55.0355    2.7573   20.6244 C   0  0  0  0  0  0  0  0  0  0  0  0
   48.9051    5.3386   21.6174 C   0  0  0  0  0  0  0  0  0  0  0  0
   49.9132    4.8799   22.4778 C   0  0  0  0  0  0  0  0  0  0  0  0
   48.4363    6.6528   21.7586 C   0  0  0  0  0  0  0  0  0  0  0  0
   48.9518    7.4858   22.7529 C   0  0  0  0  0  0  0  0  0  0  0  0
   50.4301    5.7163   23.4690 C   0  0  0  0  0  0  0  0  0  0  0  0
   49.9473    7.0168   23.6086 C   0  0  0  0  0  0  0  0  0  0  0  0
   51.4518    5.1092   20.6336 C   0  0  0  0  0  0  0  0  0  0  0  0
   50.1855    5.2887   21.3947 C   0  0  0  0  0  0  0  0  0  0  0  0
   52.5608    5.2158   21.1333 O   0  0  0  0  0  0  0  0  0  0  0  0
   48.9240    5.1619   20.8007 C   0  0  0  0  0  0  0  0  0  0  0  0
   50.2692    5.5768   22.7618 C   0  0  0  0  0  0  0  0  0  0  0  0
   51.1920    4.8123   19.3365 O   0  0  0  0  0  0  0  0  0  0  0  0
   47.8470    5.6881   22.9179 C   0  0  0  0  0  0  0  0  0  0  0  0
   53.9630    2.8389   17.6939 N   0  0  0  0  0  0  0  0  0  0  0  0
   46.6894    5.7488   23.7005 N   0  0  0  0  0  0  0  0  0  0  0  0
   47.7660    5.3418   21.5664 C   0  0  0  0  0  0  0  0  0  0  0  0
   49.1064    5.7530   23.5190 C   0  0  0  0  0  0  0  0  0  0  0  0
   52.3495    4.6255   18.4998 C   0  0  0  0  0  0  0  0  0  0  0  0
   52.9262    3.2092   18.6771 C   0  0  0  0  0  0  0  0  0  0  0  0
   55.1305    3.7399   17.7043 C   0  0  0  0  0  0  0  0  0  0  0  0
   54.3761    1.4319   17.8383 C   0  0  0  0  0  0  0  0  0  0  0  0
   55.8992    3.8465   19.0190 C   0  0  0  0  0  0  0  0  0  0  0  0
   53.2986    0.4489   17.3877 C   0  0  0  0  0  0  0  0  0  0  0  0
   52.4171    3.7143   19.3170 H   0  0  0  0  0  0  0  0  0  0  0  0
   51.2261    4.2764   20.0898 H   0  0  0  0  0  0  0  0  0  0  0  0
   52.4423    4.6861   17.2956 H   0  0  0  0  0  0  0  0  0  0  0  0
   50.3056    3.4991   16.9163 H   0  0  0  0  0  0  0  0  0  0  0  0
   53.5919    1.2686   19.0226 H   0  0  0  0  0  0  0  0  0  0  0  0
   49.8728    2.5691   19.6917 H   0  0  0  0  0  0  0  0  0  0  0  0
   48.2672    3.4200   20.9151 H   0  0  0  0  0  0  0  0  0  0  0  0
   47.3321    4.7462   20.2694 H   0  0  0  0  0  0  0  0  0  0  0  0
   56.4637    0.4049   17.4022 H   0  0  0  0  0  0  0  0  0  0  0  0
   54.9906    4.6271   17.6828 H   0  0  0  0  0  0  0  0  0  0  0  0
   56.3496    3.7775   18.4220 H   0  0  0  0  0  0  0  0  0  0  0  0
   55.5919    5.1161   19.2769 H   0  0  0  0  0  0  0  0  0  0  0  0
   54.3528    2.0891   21.1613 H   0  0  0  0  0  0  0  0  0  0  0  0
   55.9573    2.1971   20.4337 H   0  0  0  0  0  0  0  0  0  0  0  0
   55.2947    3.5836   21.2963 H   0  0  0  0  0  0  0  0  0  0  0  0
   50.3098    3.8717   22.3801 H   0  0  0  0  0  0  0  0  0  0  0  0
   47.6702    7.0377   21.0877 H   0  0  0  0  0  0  0  0  0  0  0  0
   48.5821    8.5035   22.8530 H   0  0  0  0  0  0  0  0  0  0  0  0
   51.2142    5.3555   24.1296 H   0  0  0  0  0  0  0  0  0  0  0  0
   50.3532    7.6675   24.3790 H   0  0  0  0  0  0  0  0  0  0  0  0
   48.8214    4.9121   19.7479 H   0  0  0  0  0  0  0  0  0  0  0  0
   51.2393    5.6533   23.2493 H   0  0  0  0  0  0  0  0  0  0  0  0
   45.8533    6.0041   23.1837 H   0  0  0  0  0  0  0  0  0  0  0  0
   46.7945    6.2894   24.5535 H   0  0  0  0  0  0  0  0  0  0  0  0
   46.7957    5.2094   21.0938 H   0  0  0  0  0  0  0  0  0  0  0  0
   49.1955    5.9444   24.5857 H   0  0  0  0  0  0  0  0  0  0  0  0
   53.0877    5.4099   18.7027 H   0  0  0  0  0  0  0  0  0  0  0  0
   52.0093    4.7608   17.4670 H   0  0  0  0  0  0  0  0  0  0  0  0
   53.2913    3.0777   19.7029 H   0  0  0  0  0  0  0  0  0  0  0  0
   52.0748    2.5238   18.5880 H   0  0  0  0  0  0  0  0  0  0  0  0
   55.8287    3.4215   16.9191 H   0  0  0  0  0  0  0  0  0  0  0  0
   54.8169    4.7432   17.3941 H   0  0  0  0  0  0  0  0  0  0  0  0
   54.6738    1.2035   18.8689 H   0  0  0  0  0  0  0  0  0  0  0  0
   55.2520    1.2427   17.2050 H   0  0  0  0  0  0  0  0  0  0  0  0
   56.7636    4.5062   18.8869 H   0  0  0  0  0  0  0  0  0  0  0  0
   55.2839    4.2736   19.8158 H   0  0  0  0  0  0  0  0  0  0  0  0
   56.2759    2.8742   19.3497 H   0  0  0  0  0  0  0  0  0  0  0  0
   52.9345    0.6925   16.3842 H   0  0  0  0  0  0  0  0  0  0  0  0
   52.4464    0.4317   18.0722 H   0  0  0  0  0  0  0  0  0  0  0  0
   53.7114   -0.5652   17.3567 H   0  0  0  0  0  0  0  0  0  0  0  0
  3  2  1  0
  4  2  1  0
  5  4  1  0
  6  2  1  0
  3  7  1  0
  8  6  1  0
  5  9  1  0
  6 10  1  0
 11  9  1  0
 12  4  2  0
 13 10  2  0
 14 11  2  0
 15 11  1  0
 16 10  1  0
 17  8  1  0
 18  8  1  0
 19 15  1  0
 20 19  2  0
 21 19  1  0
 22 21  2  0
 23 20  1  0
 24 22  1  0
  7  8  1  0
  5  3  1  0
 24 23  2  0
 26 25  1  0
 27 25  2  0
 28 26  2  0
 29 26  1  0
 30 25  1  0
 31 35  1  0
 32 37  1  0
 33 31  1  0
 34 28  1  0
 35 29  2  0
 36 30  1  0
 37 36  1  0
 38 32  1  0
 39 32  1  0
 40 38  1  0
 41 39  1  0
 31 34  2  0
  1 42  1  0
  1 43  1  0
  3 44  1  1
  5 45  1  1
  6 46  1  6
  9 47  1  0
 15 48  1  0
 15 49  1  0
 16 50  1  0
 17 51  1  0
 17 52  1  0
 17 53  1  0
 18 54  1  0
 18 55  1  0
 18 56  1  0
 20 57  1  0
 21 58  1  0
 22 59  1  0
 23 60  1  0
 24 61  1  0
 28 62  1  0
 29 63  1  0
 33 64  1  0
 33 65  1  0
 34 66  1  0
 35 67  1  0
 36 68  1  0
 36 69  1  0
 37 70  1  0
 37 71  1  0
 38 72  1  0
 38 73  1  0
 39 74  1  0
 39 75  1  0
 40 76  1  0
 40 77  1  0
 40 78  1  0
 41 79  1  0
 41 80  1  0
 41 81  1  0
M  END
> <Uni-Dock RESULT> 
ENERGY=   -5.473  LOWER_BOUND=    5.176  UPPER_BOUND=    7.575
INTER + INTRA:          -5.473
INTER:                  -5.473
INTRA:                   0.000
UNBOUND:                 0.000

$$$$

     RDKit          3D

 81 82  0  0  0  0  0  0  0  0999 V2000
   42.5290   13.7622   12.6201 O   0  0  0  0  0  0  0  0  0  0  0  0
   45.4328   14.2081   11.9423 N   0  0  0  0  0  0  0  0  0  0  0  0
   44.1420   14.2094   11.2241 C   0  0  1  0  0  0  0  0  0  0  0  0
   45.6152   12.8603   11.7944 C   0  0  0  0  0  0  0  0  0  0  0  0
   44.4341   12.7475   10.8054 C   0  0  1  0  0  0  0  0  0  0  0  0
   45.4666   14.7870   13.2858 C   0  0  2  0  0  0  0  0  0  0  0  0
   42.9140   14.5045   12.5619 S   0  0  0  0  0  0  0  0  0  0  0  0
   44.1348   15.5265   13.5171 C   0  0  0  0  0  0  0  0  0  0  0  0
   43.4036   11.7242   11.1283 N   0  0  0  0  0  0  0  0  0  0  0  0
   46.6956   15.6705   13.4479 C   0  0  0  0  0  0  0  0  0  0  0  0
   42.2703   11.6024   10.3535 C   0  0  0  0  0  0  0  0  0  0  0  0
   46.3488   12.0908   12.3715 O   0  0  0  0  0  0  0  0  0  0  0  0
   47.3234   16.2369   12.5675 O   0  0  0  0  0  0  0  0  0  0  0  0
   42.1021   12.2693    9.3355 O   0  0  0  0  0  0  0  0  0  0  0  0
   41.2645   10.5836   10.8558 C   0  0  0  0  0  0  0  0  0  0  0  0
   47.0515   15.8317   14.7402 O   0  0  0  0  0  0  0  0  0  0  0  0
   44.0963   16.9575   12.9635 C   0  0  0  0  0  0  0  0  0  0  0  0
   43.7215   15.5207   14.9908 C   0  0  0  0  0  0  0  0  0  0  0  0
   40.0077   11.2250   11.3872 C   0  0  0  0  0  0  0  0  0  0  0  0
   39.9446   11.6848   12.7107 C   0  0  0  0  0  0  0  0  0  0  0  0
   38.8931   11.3966   10.5535 C   0  0  0  0  0  0  0  0  0  0  0  0
   37.7314   11.9989   11.0392 C   0  0  0  0  0  0  0  0  0  0  0  0
   38.7829   12.2904   13.1930 C   0  0  0  0  0  0  0  0  0  0  0  0
   37.6761   12.4441   12.3590 C   0  0  0  0  0  0  0  0  0  0  0  0
   41.3467   13.5269   12.0312 C   0  0  0  0  0  0  0  0  0  0  0  0
   40.4495   12.3512   11.8648 C   0  0  0  0  0  0  0  0  0  0  0  0
   41.1516   14.4152   12.8459 O   0  0  0  0  0  0  0  0  0  0  0  0
   40.6927   11.3439   10.9233 C   0  0  0  0  0  0  0  0  0  0  0  0
   39.3312   12.2475   12.7001 C   0  0  0  0  0  0  0  0  0  0  0  0
   42.3884   13.4595   11.1661 O   0  0  0  0  0  0  0  0  0  0  0  0
   38.6645   10.1847   11.6028 C   0  0  0  0  0  0  0  0  0  0  0  0
   45.4488   15.2986   12.4001 N   0  0  0  0  0  0  0  0  0  0  0  0
   37.8580    9.0426   11.5671 N   0  0  0  0  0  0  0  0  0  0  0  0
   39.8137   10.2602   10.8112 C   0  0  0  0  0  0  0  0  0  0  0  0
   38.4595   11.1599   12.5818 C   0  0  0  0  0  0  0  0  0  0  0  0
   43.3206   14.5556   11.2324 C   0  0  0  0  0  0  0  0  0  0  0  0
   44.3115   14.3577   12.3938 C   0  0  0  0  0  0  0  0  0  0  0  0
   45.0398   16.7136   12.4728 C   0  0  0  0  0  0  0  0  0  0  0  0
   46.4230   14.9720   13.4563 C   0  0  0  0  0  0  0  0  0  0  0  0
   44.2212   17.1261   13.6937 C   0  0  0  0  0  0  0  0  0  0  0  0
   47.2078   13.6957   13.1642 C   0  0  0  0  0  0  0  0  0  0  0  0
   43.4184   14.0093   12.3253 H   0  0  0  0  0  0  0  0  0  0  0  0
   42.2588   13.0719   11.9960 H   0  0  0  0  0  0  0  0  0  0  0  0
   44.1176   14.9347   10.4055 H   0  0  0  0  0  0  0  0  0  0  0  0
   44.7866   12.6392    9.7722 H   0  0  0  0  0  0  0  0  0  0  0  0
   45.5744   13.9566   13.9977 H   0  0  0  0  0  0  0  0  0  0  0  0
   43.4629   11.2131   12.0014 H   0  0  0  0  0  0  0  0  0  0  0  0
   41.7103    9.9514   11.6335 H   0  0  0  0  0  0  0  0  0  0  0  0
   41.0310    9.9058   10.0251 H   0  0  0  0  0  0  0  0  0  0  0  0
   47.8585   16.3887   14.6953 H   0  0  0  0  0  0  0  0  0  0  0  0
   44.4019   17.0074   11.9123 H   0  0  0  0  0  0  0  0  0  0  0  0
   44.7664   17.6154   13.5286 H   0  0  0  0  0  0  0  0  0  0  0  0
   43.0905   17.3894   13.0417 H   0  0  0  0  0  0  0  0  0  0  0  0
   43.6900   14.5056   15.4026 H   0  0  0  0  0  0  0  0  0  0  0  0
   44.4292   16.0966   15.5969 H   0  0  0  0  0  0  0  0  0  0  0  0
   42.7333   15.9725   15.1345 H   0  0  0  0  0  0  0  0  0  0  0  0
   40.7998   11.5825   13.3750 H   0  0  0  0  0  0  0  0  0  0  0  0
   38.9272   11.0677    9.5163 H   0  0  0  0  0  0  0  0  0  0  0  0
   36.8732   12.1280   10.3841 H   0  0  0  0  0  0  0  0  0  0  0  0
   38.7424   12.6482   14.2186 H   0  0  0  0  0  0  0  0  0  0  0  0
   36.7735   12.9187   12.7356 H   0  0  0  0  0  0  0  0  0  0  0  0
   41.5661   11.3781   10.2771 H   0  0  0  0  0  0  0  0  0  0  0  0
   39.1379   13.0055   13.4569 H   0  0  0  0  0  0  0  0  0  0  0  0
   37.8642    8.5592   10.6740 H   0  0  0  0  0  0  0  0  0  0  0  0
   36.9167    9.1897   11.9183 H   0  0  0  0  0  0  0  0  0  0  0  0
   40.0361    9.4730   10.0948 H   0  0  0  0  0  0  0  0  0  0  0  0
   37.6152   11.0842   13.2628 H   0  0  0  0  0  0  0  0  0  0  0  0
   42.7770   15.5050   11.2988 H   0  0  0  0  0  0  0  0  0  0  0  0
   43.8619   14.5589   10.2796 H   0  0  0  0  0  0  0  0  0  0  0  0
   43.7773   14.3791   13.3514 H   0  0  0  0  0  0  0  0  0  0  0  0
   44.6853   13.3311   12.2994 H   0  0  0  0  0  0  0  0  0  0  0  0
   45.9380   17.3432   12.4287 H   0  0  0  0  0  0  0  0  0  0  0  0
   44.4825   16.9769   11.5664 H   0  0  0  0  0  0  0  0  0  0  0  0
   45.9402   14.8899   14.4377 H   0  0  0  0  0  0  0  0  0  0  0  0
   47.1622   15.7794   13.5322 H   0  0  0  0  0  0  0  0  0  0  0  0
   44.0189   18.2019   13.6542 H   0  0  0  0  0  0  0  0  0  0  0  0
   43.2548   16.6151   13.7264 H   0  0  0  0  0  0  0  0  0  0  0  0
   44.7551   16.9266   14.6273 H   0  0  0  0  0  0  0  0  0  0  0  0
   47.6481   13.7218   12.1621 H   0  0  0  0  0  0  0  0  0  0  0  0
   46.5837   12.8020   13.2467 H   0  0  0  0  0  0  0  0  0  0  0  0
   48.0249   13.5895   13.8859 H   0  0  0  0  0  0  0  0  0  0  0  0
  3  2  1  0
  4  2  1  0
  5  4  1  0
  6  2  1  0
  3  7  1  0
  8  6  1  0
  5  9  1  0
  6 10  1  0
 11  9  1  0
 12  4  2  0
 13 10  2  0
 14 11  2  0
 15 11  1  0
 16 10  1  0
 17  8  1  0
 18  8  1  0
 19 15  1  0
 20 19  2  0
 21 19  1  0
 22 21  2  0
 23 20  1  0
 24 22  1  0
  7  8  1  0
  5  3  1  0
 24 23  2  0
 26 25  1  0
 27 25  2  0
 28 26  2  0
 29 26  1  0
 30 25  1  0
 31 35  1  0
 32 37  1  0
 33 31  1  0
 34 28  1  0
 35 29  2  0
 36 30  1  0
 37 36  1  0
 38 32  1  0
 39 32  1  0
 40 38  1  0
 41 39  1  0
 31 34  2  0
  1 42  1  0
  1 43  1  0
  3 44  1  1
  5 45  1  1
  6 46  1  6
  9 47  1  0
 15 48  1  0
 15 49  1  0
 16 50  1  0
 17 51  1  0
 17 52  1  0
 17 53  1  0
 18 54  1  0
 18 55  1  0
 18 56  1  0
 20 57  1  0
 21 58  1  0
 22 59  1  0
 23 60  1  0
 24 61  1  0
 28 62  1  0
 29 63  1  0
 33 64  1  0
 33 65  1  0
 34 66  1  0
 35 67  1  0
 36 68  1  0
 36 69  1  0
 37 70  1  0
 37 71  1  0
 38 72  1  0
 38 73  1  0
 39 74  1  0
 39 75  1  0
 40 76  1  0
 40 77  1  0
 40 78  1  0
 41 79  1  0
 41 80  1  0
 41 81  1  0
M  END
> <Uni-Dock RESULT> 
ENERGY=   -5.283  LOWER_BOUND=    9.084  UPPER_BOUND=   11.009
INTER + INTRA:          -5.283
INTER:                  -5.283
INTRA:                   0.000
UNBOUND:                 0.000

$$$$

     RDKit          3D

 81 82  0  0  0  0  0  0  0  0999 V2000
   42.6869   13.6814   12.5364 O   0  0  0  0  0  0  0  0  0  0  0  0
   45.6022   13.9007   11.7995 N   0  0  0  0  0  0  0  0  0  0  0  0
   44.3030   13.9461   11.0980 C   0  0  1  0  0  0  0  0  0  0  0  0
   45.6957   12.5378   11.7248 C   0  0  0  0  0  0  0  0  0  0  0  0
   44.4945   12.4476   10.7581 C   0  0  1  0  0  0  0  0  0  0  0  0
   45.6941   14.5491   13.1081 C   0  0  2  0  0  0  0  0  0  0  0  0
   43.1176   14.3930   12.4322 S   0  0  0  0  0  0  0  0  0  0  0  0
   44.4161   15.3847   13.3140 C   0  0  0  0  0  0  0  0  0  0  0  0
   43.4059   11.5124   11.1500 N   0  0  0  0  0  0  0  0  0  0  0  0
   46.9795   15.3587   13.2057 C   0  0  0  0  0  0  0  0  0  0  0  0
   42.2550   11.4219   10.3971 C   0  0  0  0  0  0  0  0  0  0  0  0
   46.3876   11.7553   12.3350 O   0  0  0  0  0  0  0  0  0  0  0  0
   47.6283   15.8342   12.2875 O   0  0  0  0  0  0  0  0  0  0  0  0
   42.1138   12.0414    9.3455 O   0  0  0  0  0  0  0  0  0  0  0  0
   41.1942   10.4993   10.9676 C   0  0  0  0  0  0  0  0  0  0  0  0
   47.3652   15.5672   14.4825 O   0  0  0  0  0  0  0  0  0  0  0  0
   44.4604   16.7827   12.6819 C   0  0  0  0  0  0  0  0  0  0  0  0
   44.0265   15.4866   14.7907 C   0  0  0  0  0  0  0  0  0  0  0  0
   39.9895   11.2489   11.4776 C   0  0  0  0  0  0  0  0  0  0  0  0
   39.9767   11.7837   12.7741 C   0  0  0  0  0  0  0  0  0  0  0  0
   38.8752   11.4462   10.6493 C   0  0  0  0  0  0  0  0  0  0  0  0
   37.7621   12.1482   11.1148 C   0  0  0  0  0  0  0  0  0  0  0  0
   38.8638   12.4888   13.2360 C   0  0  0  0  0  0  0  0  0  0  0  0
   37.7561   12.6678   12.4083 C   0  0  0  0  0  0  0  0  0  0  0  0
   41.4828   13.4912   11.9759 C   0  0  0  0  0  0  0  0  0  0  0  0
   40.5098   12.3686   11.8863 C   0  0  0  0  0  0  0  0  0  0  0  0
   41.3577   14.4337   12.7422 O   0  0  0  0  0  0  0  0  0  0  0  0
   40.6733   11.2976   10.9995 C   0  0  0  0  0  0  0  0  0  0  0  0
   39.4005   12.3836   12.7396 C   0  0  0  0  0  0  0  0  0  0  0  0
   42.5044   13.3092   11.1034 O   0  0  0  0  0  0  0  0  0  0  0  0
   38.5861   10.3111   11.7673 C   0  0  0  0  0  0  0  0  0  0  0  0
   45.6951   15.0114   12.1955 N   0  0  0  0  0  0  0  0  0  0  0  0
   37.7077    9.2233   11.8051 N   0  0  0  0  0  0  0  0  0  0  0  0
   39.7251   10.2686   10.9587 C   0  0  0  0  0  0  0  0  0  0  0  0
   38.4593   11.3498   12.6928 C   0  0  0  0  0  0  0  0  0  0  0  0
   43.5057   14.3446   11.0970 C   0  0  0  0  0  0  0  0  0  0  0  0
   44.5000   14.1471   12.2556 C   0  0  0  0  0  0  0  0  0  0  0  0
   45.3786   16.4517   12.1941 C   0  0  0  0  0  0  0  0  0  0  0  0
   46.6629   14.6809   13.2564 C   0  0  0  0  0  0  0  0  0  0  0  0
   44.6074   16.9826   13.4000 C   0  0  0  0  0  0  0  0  0  0  0  0
   47.3599   13.3423   13.0263 C   0  0  0  0  0  0  0  0  0  0  0  0
   43.5855   13.8539   12.2175 H   0  0  0  0  0  0  0  0  0  0  0  0
   42.3633   12.9769   11.9550 H   0  0  0  0  0  0  0  0  0  0  0  0
   44.3121   14.6254   10.2406 H   0  0  0  0  0  0  0  0  0  0  0  0
   44.8230   12.2602    9.7283 H   0  0  0  0  0  0  0  0  0  0  0  0
   45.7598   13.7537   13.8638 H   0  0  0  0  0  0  0  0  0  0  0  0
   43.4461   11.0472   12.0494 H   0  0  0  0  0  0  0  0  0  0  0  0
   41.6108    9.8832   11.7738 H   0  0  0  0  0  0  0  0  0  0  0  0
   40.9048    9.7935   10.1789 H   0  0  0  0  0  0  0  0  0  0  0  0
   48.2054   16.0676   14.3968 H   0  0  0  0  0  0  0  0  0  0  0  0
   44.7521   16.7549   11.6259 H   0  0  0  0  0  0  0  0  0  0  0  0
   45.1801   17.4259   13.2012 H   0  0  0  0  0  0  0  0  0  0  0  0
   43.4857   17.2824   12.7482 H   0  0  0  0  0  0  0  0  0  0  0  0
   43.9366   14.4998   15.2587 H   0  0  0  0  0  0  0  0  0  0  0  0
   44.7791   16.0478   15.3550 H   0  0  0  0  0  0  0  0  0  0  0  0
   43.0716   16.0086   14.9209 H   0  0  0  0  0  0  0  0  0  0  0  0
   40.8340   11.6629   13.4327 H   0  0  0  0  0  0  0  0  0  0  0  0
   38.8718   11.0594    9.6318 H   0  0  0  0  0  0  0  0  0  0  0  0
   36.9037   12.2964   10.4639 H   0  0  0  0  0  0  0  0  0  0  0  0
   38.8624   12.9042   14.2405 H   0  0  0  0  0  0  0  0  0  0  0  0
   36.8918   13.2197   12.7687 H   0  0  0  0  0  0  0  0  0  0  0  0
   41.5368   11.2397   10.3419 H   0  0  0  0  0  0  0  0  0  0  0  0
   39.2680   13.1928   13.4553 H   0  0  0  0  0  0  0  0  0  0  0  0
   37.6690    8.6923   10.9404 H   0  0  0  0  0  0  0  0  0  0  0  0
   36.7834    9.4501   12.1590 H   0  0  0  0  0  0  0  0  0  0  0  0
   39.8855    9.4304   10.2848 H   0  0  0  0  0  0  0  0  0  0  0  0
   37.6227   11.3663   13.3872 H   0  0  0  0  0  0  0  0  0  0  0  0
   43.0250   15.3294   11.1170 H   0  0  0  0  0  0  0  0  0  0  0  0
   44.0310   14.2606   10.1390 H   0  0  0  0  0  0  0  0  0  0  0  0
   43.9834   14.2555   13.2169 H   0  0  0  0  0  0  0  0  0  0  0  0
   44.8059   13.0949   12.2140 H   0  0  0  0  0  0  0  0  0  0  0  0
   46.3144   17.0185   12.1041 H   0  0  0  0  0  0  0  0  0  0  0  0
   44.8251   16.7004   11.2814 H   0  0  0  0  0  0  0  0  0  0  0  0
   46.1914   14.6841   14.2466 H   0  0  0  0  0  0  0  0  0  0  0  0
   47.4534   15.4417   13.2781 H   0  0  0  0  0  0  0  0  0  0  0  0
   44.4736   18.0655   13.3030 H   0  0  0  0  0  0  0  0  0  0  0  0
   43.6109   16.5378   13.4729 H   0  0  0  0  0  0  0  0  0  0  0  0
   45.1420   16.8006   14.3368 H   0  0  0  0  0  0  0  0  0  0  0  0
   47.7851   13.2848   12.0190 H   0  0  0  0  0  0  0  0  0  0  0  0
   46.6812   12.4967   13.1661 H   0  0  0  0  0  0  0  0  0  0  0  0
   48.1798   13.2233   13.7428 H   0  0  0  0  0  0  0  0  0  0  0  0
  3  2  1  0
  4  2  1  0
  5  4  1  0
  6  2  1  0
  3  7  1  0
  8  6  1  0
  5  9  1  0
  6 10  1  0
 11  9  1  0
 12  4  2  0
 13 10  2  0
 14 11  2  0
 15 11  1  0
 16 10  1  0
 17  8  1  0
 18  8  1  0
 19 15  1  0
 20 19  2  0
 21 19  1  0
 22 21  2  0
 23 20  1  0
 24 22  1  0
  7  8  1  0
  5  3  1  0
 24 23  2  0
 26 25  1  0
 27 25  2  0
 28 26  2  0
 29 26  1  0
 30 25  1  0
 31 35  1  0
 32 37  1  0
 33 31  1  0
 34 28  1  0
 35 29  2  0
 36 30  1  0
 37 36  1  0
 38 32  1  0
 39 32  1  0
 40 38  1  0
 41 39  1  0
 31 34  2  0
  1 42  1  0
  1 43  1  0
  3 44  1  1
  5 45  1  1
  6 46  1  6
  9 47  1  0
 15 48  1  0
 15 49  1  0
 16 50  1  0
 17 51  1  0
 17 52  1  0
 17 53  1  0
 18 54  1  0
 18 55  1  0
 18 56  1  0
 20 57  1  0
 21 58  1  0
 22 59  1  0
 23 60  1  0
 24 61  1  0
 28 62  1  0
 29 63  1  0
 33 64  1  0
 33 65  1  0
 34 66  1  0
 35 67  1  0
 36 68  1  0
 36 69  1  0
 37 70  1  0
 37 71  1  0
 38 72  1  0
 38 73  1  0
 39 74  1  0
 39 75  1  0
 40 76  1  0
 40 77  1  0
 40 78  1  0
 41 79  1  0
 41 80  1  0
 41 81  1  0
M  END
> <Uni-Dock RESULT> 
ENERGY=   -5.151  LOWER_BOUND=    8.864  UPPER_BOUND=   10.905
INTER + INTRA:          -5.151
INTER:                  -5.151
INTRA:                   0.000
UNBOUND:                 0.000

$$$$

     RDKit          3D

 81 82  0  0  0  0  0  0  0  0999 V2000
   44.2696   10.9675   11.7868 O   0  0  0  0  0  0  0  0  0  0  0  0
   43.6474   13.8654   11.2343 N   0  0  0  0  0  0  0  0  0  0  0  0
   44.5268   12.8213   10.6697 C   0  0  1  0  0  0  0  0  0  0  0  0
   44.5612   14.2512   12.1765 C   0  0  0  0  0  0  0  0  0  0  0  0
   45.6762   13.3983   11.5322 C   0  0  1  0  0  0  0  0  0  0  0  0
   42.3065   13.4682   11.6649 C   0  0  2  0  0  0  0  0  0  0  0  0
   43.7287   11.2560   11.2151 S   0  0  0  0  0  0  0  0  0  0  0  0
   42.0467   12.0395   11.1501 C   0  0  0  0  0  0  0  0  0  0  0  0
   46.3898   12.4587   12.4384 N   0  0  0  0  0  0  0  0  0  0  0  0
   41.2784   14.4872   11.1935 C   0  0  0  0  0  0  0  0  0  0  0  0
   47.3436   11.5960   11.9431 C   0  0  0  0  0  0  0  0  0  0  0  0
   44.4307   14.8981   13.1903 O   0  0  0  0  0  0  0  0  0  0  0  0
   41.3697   15.2477   10.2430 O   0  0  0  0  0  0  0  0  0  0  0  0
   47.6950   11.6191   10.7660 O   0  0  0  0  0  0  0  0  0  0  0  0
   47.9189   10.6319   12.9638 C   0  0  0  0  0  0  0  0  0  0  0  0
   40.1493   14.4649   11.9332 O   0  0  0  0  0  0  0  0  0  0  0  0
   41.5414   11.9661    9.7026 C   0  0  0  0  0  0  0  0  0  0  0  0
   41.1122   11.2553   12.0744 C   0  0  0  0  0  0  0  0  0  0  0  0
   47.4856    9.2081   12.7229 C   0  0  0  0  0  0  0  0  0  0  0  0
   46.2625    8.7389   13.2237 C   0  0  0  0  0  0  0  0  0  0  0  0
   48.2891    8.3413   11.9681 C   0  0  0  0  0  0  0  0  0  0  0  0
   47.8866    7.0253   11.7348 C   0  0  0  0  0  0  0  0  0  0  0  0
   45.8602    7.4234   12.9856 C   0  0  0  0  0  0  0  0  0  0  0  0
   46.6731    6.5664   12.2449 C   0  0  0  0  0  0  0  0  0  0  0  0
   45.1766   10.0232   11.4939 C   0  0  0  0  0  0  0  0  0  0  0  0
   46.3001    9.3600   12.2101 C   0  0  0  0  0  0  0  0  0  0  0  0
   44.0819    9.5076   11.3304 O   0  0  0  0  0  0  0  0  0  0  0  0
   47.5478    9.9703   12.3858 C   0  0  0  0  0  0  0  0  0  0  0  0
   46.0850    8.0834   12.7421 C   0  0  0  0  0  0  0  0  0  0  0  0
   45.5437   11.2564   11.0666 O   0  0  0  0  0  0  0  0  0  0  0  0
   48.3755    8.0002   13.5487 C   0  0  0  0  0  0  0  0  0  0  0  0
   42.6194   13.6201   10.7029 N   0  0  0  0  0  0  0  0  0  0  0  0
   49.3582    7.3847   14.3308 N   0  0  0  0  0  0  0  0  0  0  0  0
   48.5684    9.2983   13.0686 C   0  0  0  0  0  0  0  0  0  0  0  0
   47.1105    7.4205   13.4245 C   0  0  0  0  0  0  0  0  0  0  0  0
   44.5329   11.9898   10.3488 C   0  0  0  0  0  0  0  0  0  0  0  0
   43.5465   12.6550   11.3258 C   0  0  0  0  0  0  0  0  0  0  0  0
   41.7808   13.0289    9.6436 C   0  0  0  0  0  0  0  0  0  0  0  0
   41.7952   14.3137   11.7084 C   0  0  0  0  0  0  0  0  0  0  0  0
   40.8756   11.8708   10.0558 C   0  0  0  0  0  0  0  0  0  0  0  0
   42.5959   15.3044   12.5496 C   0  0  0  0  0  0  0  0  0  0  0  0
   44.0710   11.8640   11.4773 H   0  0  0  0  0  0  0  0  0  0  0  0
   45.2335   10.9626   11.8871 H   0  0  0  0  0  0  0  0  0  0  0  0
   44.6574   12.9218    9.5883 H   0  0  0  0  0  0  0  0  0  0  0  0
   46.3853   14.0224   10.9743 H   0  0  0  0  0  0  0  0  0  0  0  0
   42.2957   13.4892   12.7638 H   0  0  0  0  0  0  0  0  0  0  0  0
   46.0738   12.3498   13.3951 H   0  0  0  0  0  0  0  0  0  0  0  0
   47.6389   10.9332   13.9806 H   0  0  0  0  0  0  0  0  0  0  0  0
   49.0123   10.7152   12.9240 H   0  0  0  0  0  0  0  0  0  0  0  0
   39.5974   15.1769   11.5433 H   0  0  0  0  0  0  0  0  0  0  0  0
   42.1757   12.5300    9.0093 H   0  0  0  0  0  0  0  0  0  0  0  0
   40.5271   12.3731    9.6196 H   0  0  0  0  0  0  0  0  0  0  0  0
   41.4950   10.9288    9.3475 H   0  0  0  0  0  0  0  0  0  0  0  0
   41.4738   11.2461   13.1089 H   0  0  0  0  0  0  0  0  0  0  0  0
   40.1103   11.6979   12.0831 H   0  0  0  0  0  0  0  0  0  0  0  0
   41.0014   10.2150   11.7479 H   0  0  0  0  0  0  0  0  0  0  0  0
   45.6095    9.3937   13.7964 H   0  0  0  0  0  0  0  0  0  0  0  0
   49.2320    8.6902   11.5506 H   0  0  0  0  0  0  0  0  0  0  0  0
   48.5166    6.3617   11.1473 H   0  0  0  0  0  0  0  0  0  0  0  0
   44.9090    7.0676   13.3733 H   0  0  0  0  0  0  0  0  0  0  0  0
   46.3567    5.5433   12.0581 H   0  0  0  0  0  0  0  0  0  0  0  0
   47.7410   10.9717   12.0098 H   0  0  0  0  0  0  0  0  0  0  0  0
   45.1144    7.6015   12.6404 H   0  0  0  0  0  0  0  0  0  0  0  0
   50.3043    7.6887   14.1216 H   0  0  0  0  0  0  0  0  0  0  0  0
   49.2797    6.3733   14.3733 H   0  0  0  0  0  0  0  0  0  0  0  0
   49.5205    9.8011   13.2210 H   0  0  0  0  0  0  0  0  0  0  0  0
   46.9105    6.4430   13.8568 H   0  0  0  0  0  0  0  0  0  0  0  0
   44.0339   11.3311    9.6287 H   0  0  0  0  0  0  0  0  0  0  0  0
   45.0597   12.7588    9.7727 H   0  0  0  0  0  0  0  0  0  0  0  0
   42.9985   11.8883   11.8868 H   0  0  0  0  0  0  0  0  0  0  0  0
   44.1629   13.1685   12.0733 H   0  0  0  0  0  0  0  0  0  0  0  0
   41.1562   13.8187    9.2063 H   0  0  0  0  0  0  0  0  0  0  0  0
   42.4199   12.7024    8.8153 H   0  0  0  0  0  0  0  0  0  0  0  0
   41.2817   13.6032   12.3674 H   0  0  0  0  0  0  0  0  0  0  0  0
   41.0163   14.8970   11.2012 H   0  0  0  0  0  0  0  0  0  0  0  0
   40.2750   11.5503    9.1976 H   0  0  0  0  0  0  0  0  0  0  0  0
   41.4520   11.0038   10.3905 H   0  0  0  0  0  0  0  0  0  0  0  0
   40.1828   12.1597   10.8516 H   0  0  0  0  0  0  0  0  0  0  0  0
   43.1721   15.9870   11.9164 H   0  0  0  0  0  0  0  0  0  0  0  0
   43.2839   14.8002   13.2335 H   0  0  0  0  0  0  0  0  0  0  0  0
   41.9152   15.9081   13.1594 H   0  0  0  0  0  0  0  0  0  0  0  0
  3  2  1  0
  4  2  1  0
  5  4  1  0
  6  2  1  0
  3  7  1  0
  8  6  1  0
  5  9  1  0
  6 10  1  0
 11  9  1  0
 12  4  2  0
 13 10  2  0
 14 11  2  0
 15 11  1  0
 16 10  1  0
 17  8  1  0
 18  8  1  0
 19 15  1  0
 20 19  2  0
 21 19  1  0
 22 21  2  0
 23 20  1  0
 24 22  1  0
  7  8  1  0
  5  3  1  0
 24 23  2  0
 26 25  1  0
 27 25  2  0
 28 26  2  0
 29 26  1  0
 30 25  1  0
 31 35  1  0
 32 37  1  0
 33 31  1  0
 34 28  1  0
 35 29  2  0
 36 30  1  0
 37 36  1  0
 38 32  1  0
 39 32  1  0
 40 38  1  0
 41 39  1  0
 31 34  2  0
  1 42  1  0
  1 43  1  0
  3 44  1  1
  5 45  1  1
  6 46  1  6
  9 47  1  0
 15 48  1  0
 15 49  1  0
 16 50  1  0
 17 51  1  0
 17 52  1  0
 17 53  1  0
 18 54  1  0
 18 55  1  0
 18 56  1  0
 20 57  1  0
 21 58  1  0
 22 59  1  0
 23 60  1  0
 24 61  1  0
 28 62  1  0
 29 63  1  0
 33 64  1  0
 33 65  1  0
 34 66  1  0
 35 67  1  0
 36 68  1  0
 36 69  1  0
 37 70  1  0
 37 71  1  0
 38 72  1  0
 38 73  1  0
 39 74  1  0
 39 75  1  0
 40 76  1  0
 40 77  1  0
 40 78  1  0
 41 79  1  0
 41 80  1  0
 41 81  1  0
M  END
> <Uni-Dock RESULT> 
ENERGY=   -5.144  LOWER_BOUND=    6.049  UPPER_BOUND=   10.057
INTER + INTRA:          -5.144
INTER:                  -5.144
INTRA:                   0.000
UNBOUND:                 0.000

$$$$

     RDKit          3D

 81 82  0  0  0  0  0  0  0  0999 V2000
   50.5517    7.1392   14.7255 O   0  0  0  0  0  0  0  0  0  0  0  0
   47.6098    6.4814   14.6721 N   0  0  0  0  0  0  0  0  0  0  0  0
   48.5390    7.2110   15.5589 C   0  0  1  0  0  0  0  0  0  0  0  0
   47.8601    5.2707   15.2581 C   0  0  0  0  0  0  0  0  0  0  0  0
   48.6478    5.9249   16.4145 C   0  0  1  0  0  0  0  0  0  0  0  0
   47.7928    6.6233   13.2272 C   0  0  2  0  0  0  0  0  0  0  0  0
   49.9393    7.6379   14.4446 S   0  0  0  0  0  0  0  0  0  0  0  0
   48.7973    7.7665   12.9865 C   0  0  0  0  0  0  0  0  0  0  0  0
   50.0106    5.3847   16.6679 N   0  0  0  0  0  0  0  0  0  0  0  0
   46.4486    6.8330   12.5442 C   0  0  0  0  0  0  0  0  0  0  0  0
   50.8242    5.9556   17.6227 C   0  0  0  0  0  0  0  0  0  0  0  0
   47.6445    4.1439   14.8747 O   0  0  0  0  0  0  0  0  0  0  0  0
   45.4292    7.2893   13.0369 O   0  0  0  0  0  0  0  0  0  0  0  0
   50.4372    6.8696   18.3468 O   0  0  0  0  0  0  0  0  0  0  0  0
   52.2183    5.3626   17.7056 C   0  0  0  0  0  0  0  0  0  0  0  0
   46.4712    6.4895   11.2388 O   0  0  0  0  0  0  0  0  0  0  0  0
   48.1769    9.1705   12.9881 C   0  0  0  0  0  0  0  0  0  0  0  0
   49.6162    7.5543   11.7109 C   0  0  0  0  0  0  0  0  0  0  0  0
   53.2808    6.3114   17.2117 C   0  0  0  0  0  0  0  0  0  0  0  0
   53.5843    6.3956   15.8450 C   0  0  0  0  0  0  0  0  0  0  0  0
   53.9602    7.1448   18.1120 C   0  0  0  0  0  0  0  0  0  0  0  0
   54.9375    8.0315   17.6571 C   0  0  0  0  0  0  0  0  0  0  0  0
   54.5595    7.2861   15.3920 C   0  0  0  0  0  0  0  0  0  0  0  0
   55.2379    8.1007   16.2976 C   0  0  0  0  0  0  0  0  0  0  0  0
   51.5041    7.5839   15.5593 C   0  0  0  0  0  0  0  0  0  0  0  0
   52.6510    6.9816   16.2921 C   0  0  0  0  0  0  0  0  0  0  0  0
   51.6245    8.2279   14.5289 O   0  0  0  0  0  0  0  0  0  0  0  0
   52.4895    6.2467   17.4729 C   0  0  0  0  0  0  0  0  0  0  0  0
   53.9359    7.1457   15.7619 C   0  0  0  0  0  0  0  0  0  0  0  0
   50.3363    7.3110   16.1916 O   0  0  0  0  0  0  0  0  0  0  0  0
   54.8950    5.9156   17.6249 C   0  0  0  0  0  0  0  0  0  0  0  0
   47.3649    7.3047   13.8589 N   0  0  0  0  0  0  0  0  0  0  0  0
   55.9895    5.2707   18.2098 N   0  0  0  0  0  0  0  0  0  0  0  0
   53.6054    5.7029   18.1197 C   0  0  0  0  0  0  0  0  0  0  0  0
   55.0447    6.5969   16.4145 C   0  0  0  0  0  0  0  0  0  0  0  0
   49.1549    7.8552   15.5729 C   0  0  0  0  0  0  0  0  0  0  0  0
   48.6944    6.9662   14.4035 C   0  0  0  0  0  0  0  0  0  0  0  0
   47.2705    8.6886   13.3580 C   0  0  0  0  0  0  0  0  0  0  0  0
   46.9309    6.3380   12.8350 C   0  0  0  0  0  0  0  0  0  0  0  0
   48.2311    9.0758   12.2363 C   0  0  0  0  0  0  0  0  0  0  0  0
   46.5768    4.9735   13.4208 C   0  0  0  0  0  0  0  0  0  0  0  0
   49.5866    7.0564   14.7495 H   0  0  0  0  0  0  0  0  0  0  0  0
   50.8363    6.8138   15.5928 H   0  0  0  0  0  0  0  0  0  0  0  0
   48.0649    8.0636   16.0538 H   0  0  0  0  0  0  0  0  0  0  0  0
   48.0559    5.9496   17.3379 H   0  0  0  0  0  0  0  0  0  0  0  0
   48.1958    5.6717   12.8530 H   0  0  0  0  0  0  0  0  0  0  0  0
   50.3976    4.6896   16.0402 H   0  0  0  0  0  0  0  0  0  0  0  0
   52.2733    4.4242   17.1402 H   0  0  0  0  0  0  0  0  0  0  0  0
   52.4030    5.0860   18.7513 H   0  0  0  0  0  0  0  0  0  0  0  0
   45.5502    6.6463   10.9373 H   0  0  0  0  0  0  0  0  0  0  0  0
   47.5675    9.3571   13.8797 H   0  0  0  0  0  0  0  0  0  0  0  0
   47.5295    9.3148   12.1156 H   0  0  0  0  0  0  0  0  0  0  0  0
   48.9490    9.9487   12.9401 H   0  0  0  0  0  0  0  0  0  0  0  0
   50.1145    6.5783   11.7028 H   0  0  0  0  0  0  0  0  0  0  0  0
   48.9757    7.6009   10.8236 H   0  0  0  0  0  0  0  0  0  0  0  0
   50.3860    8.3256   11.5927 H   0  0  0  0  0  0  0  0  0  0  0  0
   53.0606    5.7754   15.1210 H   0  0  0  0  0  0  0  0  0  0  0  0
   53.7254    7.1126   19.1745 H   0  0  0  0  0  0  0  0  0  0  0  0
   55.4576    8.6740   18.3636 H   0  0  0  0  0  0  0  0  0  0  0  0
   54.7867    7.3491   14.3309 H   0  0  0  0  0  0  0  0  0  0  0  0
   55.9947    8.7955   15.9426 H   0  0  0  0  0  0  0  0  0  0  0  0
   51.5038    6.0764   17.8980 H   0  0  0  0  0  0  0  0  0  0  0  0
   54.0812    7.6904   14.8309 H   0  0  0  0  0  0  0  0  0  0  0  0
   55.8759    5.0785   19.2005 H   0  0  0  0  0  0  0  0  0  0  0  0
   56.8842    5.7036   18.0022 H   0  0  0  0  0  0  0  0  0  0  0  0
   53.4564    5.1098   19.0189 H   0  0  0  0  0  0  0  0  0  0  0  0
   56.0293    6.7099   15.9671 H   0  0  0  0  0  0  0  0  0  0  0  0
   49.3365    8.8923   15.2684 H   0  0  0  0  0  0  0  0  0  0  0  0
   48.3816    7.8768   16.3491 H   0  0  0  0  0  0  0  0  0  0  0  0
   49.4544    6.9618   13.6128 H   0  0  0  0  0  0  0  0  0  0  0  0
   48.6816    5.9406   14.7914 H   0  0  0  0  0  0  0  0  0  0  0  0
   46.2440    8.8698   13.0135 H   0  0  0  0  0  0  0  0  0  0  0  0
   47.4007    9.3861   14.1933 H   0  0  0  0  0  0  0  0  0  0  0  0
   47.6875    6.2158   12.0505 H   0  0  0  0  0  0  0  0  0  0  0  0
   46.0221    6.7098   12.3452 H   0  0  0  0  0  0  0  0  0  0  0  0
   48.0338   10.1067   11.9230 H   0  0  0  0  0  0  0  0  0  0  0  0
   49.2744    9.0292   12.5608 H   0  0  0  0  0  0  0  0  0  0  0  0
   48.1084    8.4364   11.3572 H   0  0  0  0  0  0  0  0  0  0  0  0
   45.8707    5.0702   14.2520 H   0  0  0  0  0  0  0  0  0  0  0  0
   47.4608    4.4374   13.7761 H   0  0  0  0  0  0  0  0  0  0  0  0
   46.1058    4.3511   12.6524 H   0  0  0  0  0  0  0  0  0  0  0  0
  3  2  1  0
  4  2  1  0
  5  4  1  0
  6  2  1  0
  3  7  1  0
  8  6  1  0
  5  9  1  0
  6 10  1  0
 11  9  1  0
 12  4  2  0
 13 10  2  0
 14 11  2  0
 15 11  1  0
 16 10  1  0
 17  8  1  0
 18  8  1  0
 19 15  1  0
 20 19  2  0
 21 19  1  0
 22 21  2  0
 23 20  1  0
 24 22  1  0
  7  8  1  0
  5  3  1  0
 24 23  2  0
 26 25  1  0
 27 25  2  0
 28 26  2  0
 29 26  1  0
 30 25  1  0
 31 35  1  0
 32 37  1  0
 33 31  1  0
 34 28  1  0
 35 29  2  0
 36 30  1  0
 37 36  1  0
 38 32  1  0
 39 32  1  0
 40 38  1  0
 41 39  1  0
 31 34  2  0
  1 42  1  0
  1 43  1  0
  3 44  1  1
  5 45  1  1
  6 46  1  6
  9 47  1  0
 15 48  1  0
 15 49  1  0
 16 50  1  0
 17 51  1  0
 17 52  1  0
 17 53  1  0
 18 54  1  0
 18 55  1  0
 18 56  1  0
 20 57  1  0
 21 58  1  0
 22 59  1  0
 23 60  1  0
 24 61  1  0
 28 62  1  0
 29 63  1  0
 33 64  1  0
 33 65  1  0
 34 66  1  0
 35 67  1  0
 36 68  1  0
 36 69  1  0
 37 70  1  0
 37 71  1  0
 38 72  1  0
 38 73  1  0
 39 74  1  0
 39 75  1  0
 40 76  1  0
 40 77  1  0
 40 78  1  0
 41 79  1  0
 41 80  1  0
 41 81  1  0
M  END
> <Uni-Dock RESULT> 
ENERGY=   -4.981  LOWER_BOUND=    2.179  UPPER_BOUND=    7.511
INTER + INTRA:          -4.981
INTER:                  -4.981
INTRA:                   0.000
UNBOUND:                 0.000

$$$$
