
     RDKit          3D

 81 82  0  0  0  0  0  0  0  0999 V2000
   48.6323    7.9997   12.7035 O   0  0  0  0  0  0  0  0  0  0  0  0
   49.7595   10.4086   14.1796 N   0  0  0  0  0  0  0  0  0  0  0  0
   49.6161    8.9419   14.2011 C   0  0  1  0  0  0  0  0  0  0  0  0
   48.5284   10.6125   13.6278 C   0  0  0  0  0  0  0  0  0  0  0  0
   48.1033    9.1534   13.9162 C   0  0  1  0  0  0  0  0  0  0  0  0
   50.9718   10.9484   13.5771 C   0  0  2  0  0  0  0  0  0  0  0  0
   50.6637    8.3386   12.8112 S   0  0  0  0  0  0  0  0  0  0  0  0
   51.3969    9.9981   12.4348 C   0  0  0  0  0  0  0  0  0  0  0  0
   47.4994    8.4134   12.7771 N   0  0  0  0  0  0  0  0  0  0  0  0
   52.0089   11.0951   14.6878 C   0  0  0  0  0  0  0  0  0  0  0  0
   47.3023    7.0509   12.8520 C   0  0  0  0  0  0  0  0  0  0  0  0
   48.0672   11.5608   13.0369 O   0  0  0  0  0  0  0  0  0  0  0  0
   52.0941   10.4434   15.7172 O   0  0  0  0  0  0  0  0  0  0  0  0
   47.6055    6.4060   13.8536 O   0  0  0  0  0  0  0  0  0  0  0  0
   46.6981    6.4248   11.6074 C   0  0  0  0  0  0  0  0  0  0  0  0
   52.9132   12.0660   14.4290 O   0  0  0  0  0  0  0  0  0  0  0  0
   52.9113    9.8184   12.2700 C   0  0  0  0  0  0  0  0  0  0  0  0
   50.8145   10.4646   11.0894 C   0  0  0  0  0  0  0  0  0  0  0  0
   45.3626    5.7766   11.8747 C   0  0  0  0  0  0  0  0  0  0  0  0
   44.1680    6.4724   11.6422 C   0  0  0  0  0  0  0  0  0  0  0  0
   45.3015    4.4747   12.3925 C   0  0  0  0  0  0  0  0  0  0  0  0
   44.0695    3.8750   12.6600 C   0  0  0  0  0  0  0  0  0  0  0  0
   42.9362    5.8699   11.9105 C   0  0  0  0  0  0  0  0  0  0  0  0
   42.8873    4.5720   12.4167 C   0  0  0  0  0  0  0  0  0  0  0  0
   47.7739    6.9957   13.9854 C   0  0  0  0  0  0  0  0  0  0  0  0
   46.5159    6.7995   13.2129 C   0  0  0  0  0  0  0  0  0  0  0  0
   48.3095    6.1145   14.6384 O   0  0  0  0  0  0  0  0  0  0  0  0
   45.9229    5.5313   13.2191 C   0  0  0  0  0  0  0  0  0  0  0  0
   45.9239    7.8251   12.4661 C   0  0  0  0  0  0  0  0  0  0  0  0
   48.2253    8.2657   13.8485 O   0  0  0  0  0  0  0  0  0  0  0  0
   44.1269    6.3302   11.7900 C   0  0  0  0  0  0  0  0  0  0  0  0
   51.1668    9.0305   12.6527 N   0  0  0  0  0  0  0  0  0  0  0  0
   43.0303    6.0603   10.9675 N   0  0  0  0  0  0  0  0  0  0  0  0
   44.7499    5.2970   12.4932 C   0  0  0  0  0  0  0  0  0  0  0  0
   44.7485    7.5818   11.7460 C   0  0  0  0  0  0  0  0  0  0  0  0
   49.4564    8.5656   14.5299 C   0  0  0  0  0  0  0  0  0  0  0  0
   50.6826    8.1270   13.7126 C   0  0  0  0  0  0  0  0  0  0  0  0
   51.7675   10.2623   13.1633 C   0  0  0  0  0  0  0  0  0  0  0  0
   50.2575    9.1734   11.5120 C   0  0  0  0  0  0  0  0  0  0  0  0
   52.6735   10.9402   12.1405 C   0  0  0  0  0  0  0  0  0  0  0  0
   49.2516   10.3212   11.5497 C   0  0  0  0  0  0  0  0  0  0  0  0
   48.9594    8.8988   12.5475 H   0  0  0  0  0  0  0  0  0  0  0  0
   47.6733    8.0795   12.5926 H   0  0  0  0  0  0  0  0  0  0  0  0
   49.8488    8.5045   15.1763 H   0  0  0  0  0  0  0  0  0  0  0  0
   47.4659    9.0867   14.8071 H   0  0  0  0  0  0  0  0  0  0  0  0
   50.7445   11.9551   13.2041 H   0  0  0  0  0  0  0  0  0  0  0  0
   47.2073    8.9193   11.9490 H   0  0  0  0  0  0  0  0  0  0  0  0
   46.5923    7.1728   10.8110 H   0  0  0  0  0  0  0  0  0  0  0  0
   47.4100    5.6827   11.2235 H   0  0  0  0  0  0  0  0  0  0  0  0
   53.5008   12.0600   15.2149 H   0  0  0  0  0  0  0  0  0  0  0  0
   53.3822    9.3950   13.1642 H   0  0  0  0  0  0  0  0  0  0  0  0
   53.3955   10.7787   12.0589 H   0  0  0  0  0  0  0  0  0  0  0  0
   53.1490    9.1511   11.4331 H   0  0  0  0  0  0  0  0  0  0  0  0
   49.7248   10.5725   11.1140 H   0  0  0  0  0  0  0  0  0  0  0  0
   51.2314   11.4403   10.8114 H   0  0  0  0  0  0  0  0  0  0  0  0
   51.0569    9.7672   10.2782 H   0  0  0  0  0  0  0  0  0  0  0  0
   44.1839    7.4883   11.2560 H   0  0  0  0  0  0  0  0  0  0  0  0
   46.2182    3.9264   12.6050 H   0  0  0  0  0  0  0  0  0  0  0  0
   44.0343    2.8667   13.0657 H   0  0  0  0  0  0  0  0  0  0  0  0
   42.0140    6.4170   11.7303 H   0  0  0  0  0  0  0  0  0  0  0  0
   41.9285    4.1060   12.6303 H   0  0  0  0  0  0  0  0  0  0  0  0
   46.3793    4.7122   13.7724 H   0  0  0  0  0  0  0  0  0  0  0  0
   46.3699    8.8161   12.4221 H   0  0  0  0  0  0  0  0  0  0  0  0
   42.4715    6.8728   10.7329 H   0  0  0  0  0  0  0  0  0  0  0  0
   42.4637    5.2736   11.2691 H   0  0  0  0  0  0  0  0  0  0  0  0
   44.3301    4.2942   12.4790 H   0  0  0  0  0  0  0  0  0  0  0  0
   44.3232    8.3819   11.1456 H   0  0  0  0  0  0  0  0  0  0  0  0
   49.4652    8.0791   15.5132 H   0  0  0  0  0  0  0  0  0  0  0  0
   49.4715    9.6422   14.7280 H   0  0  0  0  0  0  0  0  0  0  0  0
   50.4967    7.1449   13.2623 H   0  0  0  0  0  0  0  0  0  0  0  0
   51.5125    7.9694   14.4139 H   0  0  0  0  0  0  0  0  0  0  0  0
   51.0093   10.9692   13.5169 H   0  0  0  0  0  0  0  0  0  0  0  0
   52.3970   10.0281   14.0308 H   0  0  0  0  0  0  0  0  0  0  0  0
   49.7192    8.2323   11.3435 H   0  0  0  0  0  0  0  0  0  0  0  0
   50.8700    9.3011   10.6110 H   0  0  0  0  0  0  0  0  0  0  0  0
   52.1193   11.2872   11.2624 H   0  0  0  0  0  0  0  0  0  0  0  0
   53.1580   11.8133   12.5904 H   0  0  0  0  0  0  0  0  0  0  0  0
   53.4617   10.2585   11.8021 H   0  0  0  0  0  0  0  0  0  0  0  0
   48.5855   10.2544   10.6817 H   0  0  0  0  0  0  0  0  0  0  0  0
   49.7467   11.2958   11.5010 H   0  0  0  0  0  0  0  0  0  0  0  0
   48.6282   10.3003   12.4436 H   0  0  0  0  0  0  0  0  0  0  0  0
  3  2  1  0
  4  2  1  0
  5  4  1  0
  6  2  1  0
  3  7  1  0
  8  6  1  0
  5  9  1  0
  6 10  1  0
 11  9  1  0
 12  4  2  0
 13 10  2  0
 14 11  2  0
 15 11  1  0
 16 10  1  0
 17  8  1  0
 18  8  1  0
 19 15  1  0
 20 19  2  0
 21 19  1  0
 22 21  2  0
 23 20  1  0
 24 22  1  0
  7  8  1  0
  5  3  1  0
 24 23  2  0
 26 25  1  0
 27 25  2  0
 28 26  2  0
 29 26  1  0
 30 25  1  0
 31 35  1  0
 32 37  1  0
 33 31  1  0
 34 28  1  0
 35 29  2  0
 36 30  1  0
 37 36  1  0
 38 32  1  0
 39 32  1  0
 40 38  1  0
 41 39  1  0
 31 34  2  0
  1 42  1  0
  1 43  1  0
  3 44  1  1
  5 45  1  1
  6 46  1  6
  9 47  1  0
 15 48  1  0
 15 49  1  0
 16 50  1  0
 17 51  1  0
 17 52  1  0
 17 53  1  0
 18 54  1  0
 18 55  1  0
 18 56  1  0
 20 57  1  0
 21 58  1  0
 22 59  1  0
 23 60  1  0
 24 61  1  0
 28 62  1  0
 29 63  1  0
 33 64  1  0
 33 65  1  0
 34 66  1  0
 35 67  1  0
 36 68  1  0
 36 69  1  0
 37 70  1  0
 37 71  1  0
 38 72  1  0
 38 73  1  0
 39 74  1  0
 39 75  1  0
 40 76  1  0
 40 77  1  0
 40 78  1  0
 41 79  1  0
 41 80  1  0
 41 81  1  0
M  END
> <Uni-Dock RESULT> 
ENERGY=   -5.672  LOWER_BOUND=    0.000  UPPER_BOUND=    0.000
INTER + INTRA:          -5.672
INTER:                  -5.672
INTRA:                   0.000
UNBOUND:                 0.000

$$$$

     RDKit          3D

 81 82  0  0  0  0  0  0  0  0999 V2000
   47.8824    8.0351   13.9716 O   0  0  0  0  0  0  0  0  0  0  0  0
   50.6974    8.3253   15.0869 N   0  0  0  0  0  0  0  0  0  0  0  0
   49.8305    8.5835   13.9233 C   0  0  1  0  0  0  0  0  0  0  0  0
   50.0909    7.1416   15.3915 C   0  0  0  0  0  0  0  0  0  0  0  0
   49.3691    7.1032   14.0238 C   0  0  1  0  0  0  0  0  0  0  0  0
   50.8302    9.3963   16.0665 C   0  0  2  0  0  0  0  0  0  0  0  0
   48.6484    9.8795   14.4858 S   0  0  0  0  0  0  0  0  0  0  0  0
   49.4913   10.1669   16.1106 C   0  0  0  0  0  0  0  0  0  0  0  0
   47.9085    6.8307   14.0654 N   0  0  0  0  0  0  0  0  0  0  0  0
   52.0290   10.2473   15.6547 C   0  0  0  0  0  0  0  0  0  0  0  0
   47.1307    7.0043   12.9403 C   0  0  0  0  0  0  0  0  0  0  0  0
   50.0691    6.4974   16.4140 O   0  0  0  0  0  0  0  0  0  0  0  0
   52.4743   10.4103   14.5292 O   0  0  0  0  0  0  0  0  0  0  0  0
   47.6104    7.3769   11.8716 O   0  0  0  0  0  0  0  0  0  0  0  0
   45.6536    6.7104   13.1347 C   0  0  0  0  0  0  0  0  0  0  0  0
   52.6057   10.8744   16.7041 O   0  0  0  0  0  0  0  0  0  0  0  0
   49.6210   11.6818   16.3134 C   0  0  0  0  0  0  0  0  0  0  0  0
   48.5735    9.6070   17.2111 C   0  0  0  0  0  0  0  0  0  0  0  0
   45.1672    5.5818   12.2601 C   0  0  0  0  0  0  0  0  0  0  0  0
   45.1032    4.2702   12.7507 C   0  0  0  0  0  0  0  0  0  0  0  0
   44.8023    5.8282   10.9286 C   0  0  0  0  0  0  0  0  0  0  0  0
   44.3689    4.7857   10.1074 C   0  0  0  0  0  0  0  0  0  0  0  0
   44.6689    3.2285   11.9270 C   0  0  0  0  0  0  0  0  0  0  0  0
   44.3002    3.4866   10.6077 C   0  0  0  0  0  0  0  0  0  0  0  0
   48.0949    7.3661   12.2699 C   0  0  0  0  0  0  0  0  0  0  0  0
   47.0784    6.2856   12.3993 C   0  0  0  0  0  0  0  0  0  0  0  0
   48.2217    8.0577   11.2723 O   0  0  0  0  0  0  0  0  0  0  0  0
   46.2070    6.0606   11.3268 C   0  0  0  0  0  0  0  0  0  0  0  0
   46.9486    5.5095   13.5573 C   0  0  0  0  0  0  0  0  0  0  0  0
   48.8316    7.4670   13.4025 O   0  0  0  0  0  0  0  0  0  0  0  0
   45.1262    4.2556   12.5434 C   0  0  0  0  0  0  0  0  0  0  0  0
   49.0458   10.1886   15.1953 N   0  0  0  0  0  0  0  0  0  0  0  0
   44.0665    3.3543   12.6725 N   0  0  0  0  0  0  0  0  0  0  0  0
   45.2251    5.0676   11.4115 C   0  0  0  0  0  0  0  0  0  0  0  0
   45.9654    4.5160   13.6310 C   0  0  0  0  0  0  0  0  0  0  0  0
   49.8307    8.5021   13.4050 C   0  0  0  0  0  0  0  0  0  0  0  0
   49.2330    9.8715   13.7675 C   0  0  0  0  0  0  0  0  0  0  0  0
   50.3008   10.3829   15.9208 C   0  0  0  0  0  0  0  0  0  0  0  0
   48.0221    9.3842   15.8686 C   0  0  0  0  0  0  0  0  0  0  0  0
   50.1128   11.1618   17.2186 C   0  0  0  0  0  0  0  0  0  0  0  0
   48.4755    8.1059   16.5691 C   0  0  0  0  0  0  0  0  0  0  0  0
   48.3597    8.1191   14.8112 H   0  0  0  0  0  0  0  0  0  0  0  0
   47.6128    7.1049   13.9504 H   0  0  0  0  0  0  0  0  0  0  0  0
   50.3931    8.8349   13.0194 H   0  0  0  0  0  0  0  0  0  0  0  0
   49.8725    6.4281   13.3200 H   0  0  0  0  0  0  0  0  0  0  0  0
   51.0681    8.9401   17.0358 H   0  0  0  0  0  0  0  0  0  0  0  0
   47.4861    6.4904   14.9214 H   0  0  0  0  0  0  0  0  0  0  0  0
   45.4407    6.4799   14.1866 H   0  0  0  0  0  0  0  0  0  0  0  0
   45.0949    7.6291   12.9142 H   0  0  0  0  0  0  0  0  0  0  0  0
   53.3554   11.3663   16.3053 H   0  0  0  0  0  0  0  0  0  0  0  0
   50.1854   12.1649   15.5081 H   0  0  0  0  0  0  0  0  0  0  0  0
   50.1283   11.9048   17.2589 H   0  0  0  0  0  0  0  0  0  0  0  0
   48.6391   12.1679   16.3563 H   0  0  0  0  0  0  0  0  0  0  0  0
   48.3946    8.5314   17.1070 H   0  0  0  0  0  0  0  0  0  0  0  0
   49.0215    9.7676   18.1994 H   0  0  0  0  0  0  0  0  0  0  0  0
   47.5954   10.1033   17.2158 H   0  0  0  0  0  0  0  0  0  0  0  0
   45.3942    4.0457   13.7737 H   0  0  0  0  0  0  0  0  0  0  0  0
   44.8697    6.8355   10.5199 H   0  0  0  0  0  0  0  0  0  0  0  0
   44.0929    4.9878    9.0752 H   0  0  0  0  0  0  0  0  0  0  0  0
   44.6247    2.2133   12.3139 H   0  0  0  0  0  0  0  0  0  0  0  0
   43.9676    2.6745    9.9658 H   0  0  0  0  0  0  0  0  0  0  0  0
   46.2731    6.6688   10.4262 H   0  0  0  0  0  0  0  0  0  0  0  0
   47.5948    5.6722   14.4169 H   0  0  0  0  0  0  0  0  0  0  0  0
   44.2206    2.6204   13.3545 H   0  0  0  0  0  0  0  0  0  0  0  0
   43.7106    2.9968   11.7914 H   0  0  0  0  0  0  0  0  0  0  0  0
   44.5329    4.9385   10.5830 H   0  0  0  0  0  0  0  0  0  0  0  0
   45.8590    3.9471   14.5512 H   0  0  0  0  0  0  0  0  0  0  0  0
   50.3176    8.5515   12.4231 H   0  0  0  0  0  0  0  0  0  0  0  0
   50.6121    8.2064   14.1125 H   0  0  0  0  0  0  0  0  0  0  0  0
   48.2689   10.0013   13.2621 H   0  0  0  0  0  0  0  0  0  0  0  0
   49.8869   10.6444   13.3427 H   0  0  0  0  0  0  0  0  0  0  0  0
   50.8043    9.4321   16.1257 H   0  0  0  0  0  0  0  0  0  0  0  0
   50.9918   10.9692   15.3025 H   0  0  0  0  0  0  0  0  0  0  0  0
   47.2170    9.1392   15.1645 H   0  0  0  0  0  0  0  0  0  0  0  0
   47.5402   10.0198   16.6216 H   0  0  0  0  0  0  0  0  0  0  0  0
   49.4968   10.6181   17.9422 H   0  0  0  0  0  0  0  0  0  0  0  0
   51.0849   11.3476   17.6877 H   0  0  0  0  0  0  0  0  0  0  0  0
   49.6428   12.1331   17.0285 H   0  0  0  0  0  0  0  0  0  0  0  0
   47.6010    7.5661   16.9505 H   0  0  0  0  0  0  0  0  0  0  0  0
   49.1203    8.3205   17.4268 H   0  0  0  0  0  0  0  0  0  0  0  0
   49.0110    7.4314   15.9009 H   0  0  0  0  0  0  0  0  0  0  0  0
  3  2  1  0
  4  2  1  0
  5  4  1  0
  6  2  1  0
  3  7  1  0
  8  6  1  0
  5  9  1  0
  6 10  1  0
 11  9  1  0
 12  4  2  0
 13 10  2  0
 14 11  2  0
 15 11  1  0
 16 10  1  0
 17  8  1  0
 18  8  1  0
 19 15  1  0
 20 19  2  0
 21 19  1  0
 22 21  2  0
 23 20  1  0
 24 22  1  0
  7  8  1  0
  5  3  1  0
 24 23  2  0
 26 25  1  0
 27 25  2  0
 28 26  2  0
 29 26  1  0
 30 25  1  0
 31 35  1  0
 32 37  1  0
 33 31  1  0
 34 28  1  0
 35 29  2  0
 36 30  1  0
 37 36  1  0
 38 32  1  0
 39 32  1  0
 40 38  1  0
 41 39  1  0
 31 34  2  0
  1 42  1  0
  1 43  1  0
  3 44  1  1
  5 45  1  1
  6 46  1  6
  9 47  1  0
 15 48  1  0
 15 49  1  0
 16 50  1  0
 17 51  1  0
 17 52  1  0
 17 53  1  0
 18 54  1  0
 18 55  1  0
 18 56  1  0
 20 57  1  0
 21 58  1  0
 22 59  1  0
 23 60  1  0
 24 61  1  0
 28 62  1  0
 29 63  1  0
 33 64  1  0
 33 65  1  0
 34 66  1  0
 35 67  1  0
 36 68  1  0
 36 69  1  0
 37 70  1  0
 37 71  1  0
 38 72  1  0
 38 73  1  0
 39 74  1  0
 39 75  1  0
 40 76  1  0
 40 77  1  0
 40 78  1  0
 41 79  1  0
 41 80  1  0
 41 81  1  0
M  END
> <Uni-Dock RESULT> 
ENERGY=   -5.624  LOWER_BOUND=    1.905  UPPER_BOUND=    3.204
INTER + INTRA:          -5.624
INTER:                  -5.624
INTRA:                   0.000
UNBOUND:                 0.000

$$$$

     RDKit          3D

 81 82  0  0  0  0  0  0  0  0999 V2000
   49.8608    6.8753   18.4751 O   0  0  0  0  0  0  0  0  0  0  0  0
   49.3548    3.8799   18.3215 N   0  0  0  0  0  0  0  0  0  0  0  0
   49.4550    5.1259   17.5407 C   0  0  1  0  0  0  0  0  0  0  0  0
   48.7823    4.4926   19.3978 C   0  0  0  0  0  0  0  0  0  0  0  0
   48.4979    5.7739   18.5791 C   0  0  1  0  0  0  0  0  0  0  0  0
   50.5639    3.0759   18.4468 C   0  0  2  0  0  0  0  0  0  0  0  0
   51.2341    5.5973   17.6186 S   0  0  0  0  0  0  0  0  0  0  0  0
   51.7733    4.0380   18.4618 C   0  0  0  0  0  0  0  0  0  0  0  0
   48.9162    7.0546   19.2071 N   0  0  0  0  0  0  0  0  0  0  0  0
   50.5721    2.0781   17.2913 C   0  0  0  0  0  0  0  0  0  0  0  0
   48.9261    8.2236   18.4759 C   0  0  0  0  0  0  0  0  0  0  0  0
   48.6907    4.1510   20.5537 O   0  0  0  0  0  0  0  0  0  0  0  0
   50.0531    2.2069   16.1932 O   0  0  0  0  0  0  0  0  0  0  0  0
   48.5848    8.2527   17.2953 O   0  0  0  0  0  0  0  0  0  0  0  0
   49.3968    9.4490   19.2392 C   0  0  0  0  0  0  0  0  0  0  0  0
   51.2629    0.9530   17.5815 O   0  0  0  0  0  0  0  0  0  0  0  0
   53.0238    3.5196   17.7402 C   0  0  0  0  0  0  0  0  0  0  0  0
   52.1628    4.4052   19.9041 C   0  0  0  0  0  0  0  0  0  0  0  0
   48.3345   10.5157   19.3347 C   0  0  0  0  0  0  0  0  0  0  0  0
   47.5043   10.6027   20.4609 C   0  0  0  0  0  0  0  0  0  0  0  0
   48.1430   11.4170   18.2775 C   0  0  0  0  0  0  0  0  0  0  0  0
   47.1495   12.3952   18.3507 C   0  0  0  0  0  0  0  0  0  0  0  0
   46.5109   11.5827   20.5319 C   0  0  0  0  0  0  0  0  0  0  0  0
   46.3354   12.4790   19.4789 C   0  0  0  0  0  0  0  0  0  0  0  0
   48.5333    7.6502   17.4624 C   0  0  0  0  0  0  0  0  0  0  0  0
   48.1467    8.6756   18.4708 C   0  0  0  0  0  0  0  0  0  0  0  0
   48.6286    7.8807   16.2676 O   0  0  0  0  0  0  0  0  0  0  0  0
   47.8963    9.9805   18.0297 C   0  0  0  0  0  0  0  0  0  0  0  0
   48.0501    8.3879   19.8375 C   0  0  0  0  0  0  0  0  0  0  0  0
   48.7655    6.4566   18.0598 O   0  0  0  0  0  0  0  0  0  0  0  0
   47.3979   10.6858   20.3013 C   0  0  0  0  0  0  0  0  0  0  0  0
   51.6053    4.8538   17.8762 N   0  0  0  0  0  0  0  0  0  0  0  0
   47.1741   11.7114   21.2233 N   0  0  0  0  0  0  0  0  0  0  0  0
   47.5472   10.9801   18.9443 C   0  0  0  0  0  0  0  0  0  0  0  0
   47.6967    9.3938   20.7443 C   0  0  0  0  0  0  0  0  0  0  0  0
   49.1769    5.3919   17.1842 C   0  0  0  0  0  0  0  0  0  0  0  0
   50.6847    5.4464   16.8885 C   0  0  0  0  0  0  0  0  0  0  0  0
   51.5256    3.3952   17.9486 C   0  0  0  0  0  0  0  0  0  0  0  0
   51.6674    5.5670   19.1552 C   0  0  0  0  0  0  0  0  0  0  0  0
   52.7659    2.7713   18.5800 C   0  0  0  0  0  0  0  0  0  0  0  0
   50.7301    5.1052   20.2681 C   0  0  0  0  0  0  0  0  0  0  0  0
   50.0697    6.0473   18.9338 H   0  0  0  0  0  0  0  0  0  0  0  0
   49.2161    7.3058   19.0561 H   0  0  0  0  0  0  0  0  0  0  0  0
   49.0482    5.0300   16.5298 H   0  0  0  0  0  0  0  0  0  0  0  0
   47.4506    5.8219   18.2545 H   0  0  0  0  0  0  0  0  0  0  0  0
   50.4918    2.5000   19.3782 H   0  0  0  0  0  0  0  0  0  0  0  0
   49.1720    7.0724   20.1875 H   0  0  0  0  0  0  0  0  0  0  0  0
   49.7324    9.1714   20.2467 H   0  0  0  0  0  0  0  0  0  0  0  0
   50.2854    9.8432   18.7295 H   0  0  0  0  0  0  0  0  0  0  0  0
   51.1776    0.4054   16.7717 H   0  0  0  0  0  0  0  0  0  0  0  0
   52.8436    3.3272   16.6767 H   0  0  0  0  0  0  0  0  0  0  0  0
   53.3755    2.5865   18.1949 H   0  0  0  0  0  0  0  0  0  0  0  0
   53.8512    4.2363   17.8032 H   0  0  0  0  0  0  0  0  0  0  0  0
   51.3283    4.8281   20.4737 H   0  0  0  0  0  0  0  0  0  0  0  0
   52.5069    3.5148   20.4445 H   0  0  0  0  0  0  0  0  0  0  0  0
   52.9813    5.1350   19.9306 H   0  0  0  0  0  0  0  0  0  0  0  0
   47.6186    9.9082   21.2893 H   0  0  0  0  0  0  0  0  0  0  0  0
   48.7597   11.3501   17.3824 H   0  0  0  0  0  0  0  0  0  0  0  0
   47.0070   13.0858   17.5230 H   0  0  0  0  0  0  0  0  0  0  0  0
   45.8690   11.6420   21.4075 H   0  0  0  0  0  0  0  0  0  0  0  0
   45.5585   13.2377   19.5326 H   0  0  0  0  0  0  0  0  0  0  0  0
   47.9899   10.2332   16.9747 H   0  0  0  0  0  0  0  0  0  0  0  0
   48.2588    7.3900   20.2166 H   0  0  0  0  0  0  0  0  0  0  0  0
   46.7958   11.4021   22.1114 H   0  0  0  0  0  0  0  0  0  0  0  0
   46.6759   12.5120   20.8470 H   0  0  0  0  0  0  0  0  0  0  0  0
   47.3979   11.9952   18.5846 H   0  0  0  0  0  0  0  0  0  0  0  0
   47.6600    9.1581   21.8049 H   0  0  0  0  0  0  0  0  0  0  0  0
   48.6073    5.4394   16.2477 H   0  0  0  0  0  0  0  0  0  0  0  0
   48.8958    4.4459   17.6582 H   0  0  0  0  0  0  0  0  0  0  0  0
   50.9924    6.4848   16.7185 H   0  0  0  0  0  0  0  0  0  0  0  0
   50.8563    4.9353   15.9320 H   0  0  0  0  0  0  0  0  0  0  0  0
   50.6281    3.0622   18.4807 H   0  0  0  0  0  0  0  0  0  0  0  0
   51.4515    2.9837   16.9343 H   0  0  0  0  0  0  0  0  0  0  0  0
   51.5236    6.6422   18.9905 H   0  0  0  0  0  0  0  0  0  0  0  0
   52.6939    5.4851   19.5333 H   0  0  0  0  0  0  0  0  0  0  0  0
   52.8856    3.0594   19.6294 H   0  0  0  0  0  0  0  0  0  0  0  0
   52.6946    1.6789   18.5445 H   0  0  0  0  0  0  0  0  0  0  0  0
   53.6717    3.0644   18.0377 H   0  0  0  0  0  0  0  0  0  0  0  0
   50.8227    5.7774   21.1289 H   0  0  0  0  0  0  0  0  0  0  0  0
   50.9805    4.0988   20.6174 H   0  0  0  0  0  0  0  0  0  0  0  0
   49.6843    5.1085   19.9609 H   0  0  0  0  0  0  0  0  0  0  0  0
  3  2  1  0
  4  2  1  0
  5  4  1  0
  6  2  1  0
  3  7  1  0
  8  6  1  0
  5  9  1  0
  6 10  1  0
 11  9  1  0
 12  4  2  0
 13 10  2  0
 14 11  2  0
 15 11  1  0
 16 10  1  0
 17  8  1  0
 18  8  1  0
 19 15  1  0
 20 19  2  0
 21 19  1  0
 22 21  2  0
 23 20  1  0
 24 22  1  0
  7  8  1  0
  5  3  1  0
 24 23  2  0
 26 25  1  0
 27 25  2  0
 28 26  2  0
 29 26  1  0
 30 25  1  0
 31 35  1  0
 32 37  1  0
 33 31  1  0
 34 28  1  0
 35 29  2  0
 36 30  1  0
 37 36  1  0
 38 32  1  0
 39 32  1  0
 40 38  1  0
 41 39  1  0
 31 34  2  0
  1 42  1  0
  1 43  1  0
  3 44  1  1
  5 45  1  1
  6 46  1  6
  9 47  1  0
 15 48  1  0
 15 49  1  0
 16 50  1  0
 17 51  1  0
 17 52  1  0
 17 53  1  0
 18 54  1  0
 18 55  1  0
 18 56  1  0
 20 57  1  0
 21 58  1  0
 22 59  1  0
 23 60  1  0
 24 61  1  0
 28 62  1  0
 29 63  1  0
 33 64  1  0
 33 65  1  0
 34 66  1  0
 35 67  1  0
 36 68  1  0
 36 69  1  0
 37 70  1  0
 37 71  1  0
 38 72  1  0
 38 73  1  0
 39 74  1  0
 39 75  1  0
 40 76  1  0
 40 77  1  0
 40 78  1  0
 41 79  1  0
 41 80  1  0
 41 81  1  0
M  END
> <Uni-Dock RESULT> 
ENERGY=   -5.257  LOWER_BOUND=    5.910  UPPER_BOUND=    8.370
INTER + INTRA:          -5.257
INTER:                  -5.257
INTRA:                   0.000
UNBOUND:                 0.000

$$$$

     RDKit          3D

 81 82  0  0  0  0  0  0  0  0999 V2000
   48.9784    8.5492   19.9519 O   0  0  0  0  0  0  0  0  0  0  0  0
   48.4955    9.8597   22.6542 N   0  0  0  0  0  0  0  0  0  0  0  0
   49.5013    9.2153   21.7907 C   0  0  1  0  0  0  0  0  0  0  0  0
   47.4812    9.0504   22.2321 C   0  0  0  0  0  0  0  0  0  0  0  0
   48.4748    8.0709   21.5641 C   0  0  1  0  0  0  0  0  0  0  0  0
   48.3983   11.3124   22.5899 C   0  0  2  0  0  0  0  0  0  0  0  0
   49.7705   10.3986   20.4049 S   0  0  0  0  0  0  0  0  0  0  0  0
   48.7379   11.7468   21.1462 C   0  0  0  0  0  0  0  0  0  0  0  0
   48.1641    7.6819   20.1635 N   0  0  0  0  0  0  0  0  0  0  0  0
   49.3361   11.8814   23.6518 C   0  0  0  0  0  0  0  0  0  0  0  0
   49.0942    7.0086   19.4002 C   0  0  0  0  0  0  0  0  0  0  0  0
   46.2810    9.1849   22.2826 O   0  0  0  0  0  0  0  0  0  0  0  0
   50.3522   11.3711   24.0978 O   0  0  0  0  0  0  0  0  0  0  0  0
   50.1976    6.7001   19.8457 O   0  0  0  0  0  0  0  0  0  0  0  0
   48.6492    6.6956   17.9825 C   0  0  0  0  0  0  0  0  0  0  0  0
   48.9439   13.0973   24.0934 O   0  0  0  0  0  0  0  0  0  0  0  0
   49.5230   13.0596   21.0313 C   0  0  0  0  0  0  0  0  0  0  0  0
   47.4612   11.8692   20.2967 C   0  0  0  0  0  0  0  0  0  0  0  0
   48.6021    5.2140   17.7036 C   0  0  0  0  0  0  0  0  0  0  0  0
   47.4039    4.4975   17.8320 C   0  0  0  0  0  0  0  0  0  0  0  0
   49.7699    4.5267   17.3424 C   0  0  0  0  0  0  0  0  0  0  0  0
   49.7379    3.1520   17.1009 C   0  0  0  0  0  0  0  0  0  0  0  0
   47.3744    3.1218   17.5895 C   0  0  0  0  0  0  0  0  0  0  0  0
   48.5397    2.4506   17.2223 C   0  0  0  0  0  0  0  0  0  0  0  0
   49.9153    7.0069   20.3145 C   0  0  0  0  0  0  0  0  0  0  0  0
   49.0710    6.1111   19.4764 C   0  0  0  0  0  0  0  0  0  0  0  0
   51.1332    6.9391   20.3595 O   0  0  0  0  0  0  0  0  0  0  0  0
   49.7070    5.1499   18.6816 C   0  0  0  0  0  0  0  0  0  0  0  0
   47.6752    6.2128   19.4370 C   0  0  0  0  0  0  0  0  0  0  0  0
   49.1456    7.8908   20.9940 O   0  0  0  0  0  0  0  0  0  0  0  0
   47.5592    4.3609   17.8628 C   0  0  0  0  0  0  0  0  0  0  0  0
   49.4350   11.1332   20.7288 N   0  0  0  0  0  0  0  0  0  0  0  0
   46.8224    3.5971   16.9541 N   0  0  0  0  0  0  0  0  0  0  0  0
   48.9544    4.2987   17.8652 C   0  0  0  0  0  0  0  0  0  0  0  0
   46.9307    5.3543   18.6198 C   0  0  0  0  0  0  0  0  0  0  0  0
   49.8572    8.8309   21.8183 C   0  0  0  0  0  0  0  0  0  0  0  0
   50.3724   10.0286   21.0035 C   0  0  0  0  0  0  0  0  0  0  0  0
   49.0809   11.9091   21.9169 C   0  0  0  0  0  0  0  0  0  0  0  0
   48.3342   10.7869   19.8250 C   0  0  0  0  0  0  0  0  0  0  0  0
   48.5300   13.2891   21.5727 C   0  0  0  0  0  0  0  0  0  0  0  0
   47.0312   10.2989   20.4530 C   0  0  0  0  0  0  0  0  0  0  0  0
   48.4082    9.2020   20.3862 H   0  0  0  0  0  0  0  0  0  0  0  0
   48.4010    7.7807   19.8319 H   0  0  0  0  0  0  0  0  0  0  0  0
   50.4069    8.9271   22.3323 H   0  0  0  0  0  0  0  0  0  0  0  0
   48.6480    7.1838   22.1867 H   0  0  0  0  0  0  0  0  0  0  0  0
   47.3753   11.5953   22.8689 H   0  0  0  0  0  0  0  0  0  0  0  0
   47.2517    7.8913   19.7756 H   0  0  0  0  0  0  0  0  0  0  0  0
   47.6668    7.1408   17.7787 H   0  0  0  0  0  0  0  0  0  0  0  0
   49.3464    7.1894   17.2933 H   0  0  0  0  0  0  0  0  0  0  0  0
   49.6163   13.3343   24.7678 H   0  0  0  0  0  0  0  0  0  0  0  0
   50.4945   13.0117   21.5357 H   0  0  0  0  0  0  0  0  0  0  0  0
   48.9578   13.8895   21.4706 H   0  0  0  0  0  0  0  0  0  0  0  0
   49.7151   13.3237   19.9847 H   0  0  0  0  0  0  0  0  0  0  0  0
   46.8660   10.9497   20.2913 H   0  0  0  0  0  0  0  0  0  0  0  0
   46.8195   12.6692   20.6860 H   0  0  0  0  0  0  0  0  0  0  0  0
   47.6898   12.1180   19.2532 H   0  0  0  0  0  0  0  0  0  0  0  0
   46.4859    4.9999   18.1256 H   0  0  0  0  0  0  0  0  0  0  0  0
   50.7164    5.0596   17.2627 H   0  0  0  0  0  0  0  0  0  0  0  0
   50.6506    2.6287   16.8259 H   0  0  0  0  0  0  0  0  0  0  0  0
   46.4419    2.5724   17.6939 H   0  0  0  0  0  0  0  0  0  0  0  0
   48.5168    1.3791   17.0392 H   0  0  0  0  0  0  0  0  0  0  0  0
   50.7928    5.0695   18.6770 H   0  0  0  0  0  0  0  0  0  0  0  0
   47.1507    6.9622   20.0253 H   0  0  0  0  0  0  0  0  0  0  0  0
   45.8470    3.4757   17.2019 H   0  0  0  0  0  0  0  0  0  0  0  0
   47.2655    2.7247   16.6836 H   0  0  0  0  0  0  0  0  0  0  0  0
   49.4718    3.5880   17.2255 H   0  0  0  0  0  0  0  0  0  0  0  0
   45.8508    5.4715   18.5778 H   0  0  0  0  0  0  0  0  0  0  0  0
   50.6938    8.3278   22.3189 H   0  0  0  0  0  0  0  0  0  0  0  0
   49.1794    9.1512   22.6161 H   0  0  0  0  0  0  0  0  0  0  0  0
   50.7759    9.6801   20.0457 H   0  0  0  0  0  0  0  0  0  0  0  0
   51.2313   10.4530   21.5401 H   0  0  0  0  0  0  0  0  0  0  0  0
   48.3720   11.3732   22.5571 H   0  0  0  0  0  0  0  0  0  0  0  0
   49.9791   12.0746   22.5248 H   0  0  0  0  0  0  0  0  0  0  0  0
   48.6742   10.0482   19.0884 H   0  0  0  0  0  0  0  0  0  0  0  0
   48.0998   11.6772   19.2285 H   0  0  0  0  0  0  0  0  0  0  0  0
   47.5813   13.2323   21.0293 H   0  0  0  0  0  0  0  0  0  0  0  0
   48.3503   13.8597   22.4901 H   0  0  0  0  0  0  0  0  0  0  0  0
   49.2425   13.8546   20.9620 H   0  0  0  0  0  0  0  0  0  0  0  0
   46.3335    9.9967   19.6634 H   0  0  0  0  0  0  0  0  0  0  0  0
   46.5401   11.0871   21.0318 H   0  0  0  0  0  0  0  0  0  0  0  0
   47.1793    9.4389   21.1062 H   0  0  0  0  0  0  0  0  0  0  0  0
  3  2  1  0
  4  2  1  0
  5  4  1  0
  6  2  1  0
  3  7  1  0
  8  6  1  0
  5  9  1  0
  6 10  1  0
 11  9  1  0
 12  4  2  0
 13 10  2  0
 14 11  2  0
 15 11  1  0
 16 10  1  0
 17  8  1  0
 18  8  1  0
 19 15  1  0
 20 19  2  0
 21 19  1  0
 22 21  2  0
 23 20  1  0
 24 22  1  0
  7  8  1  0
  5  3  1  0
 24 23  2  0
 26 25  1  0
 27 25  2  0
 28 26  2  0
 29 26  1  0
 30 25  1  0
 31 35  1  0
 32 37  1  0
 33 31  1  0
 34 28  1  0
 35 29  2  0
 36 30  1  0
 37 36  1  0
 38 32  1  0
 39 32  1  0
 40 38  1  0
 41 39  1  0
 31 34  2  0
  1 42  1  0
  1 43  1  0
  3 44  1  1
  5 45  1  1
  6 46  1  6
  9 47  1  0
 15 48  1  0
 15 49  1  0
 16 50  1  0
 17 51  1  0
 17 52  1  0
 17 53  1  0
 18 54  1  0
 18 55  1  0
 18 56  1  0
 20 57  1  0
 21 58  1  0
 22 59  1  0
 23 60  1  0
 24 61  1  0
 28 62  1  0
 29 63  1  0
 33 64  1  0
 33 65  1  0
 34 66  1  0
 35 67  1  0
 36 68  1  0
 36 69  1  0
 37 70  1  0
 37 71  1  0
 38 72  1  0
 38 73  1  0
 39 74  1  0
 39 75  1  0
 40 76  1  0
 40 77  1  0
 40 78  1  0
 41 79  1  0
 41 80  1  0
 41 81  1  0
M  END
> <Uni-Dock RESULT> 
ENERGY=   -4.992  LOWER_BOUND=    6.638  UPPER_BOUND=    8.056
INTER + INTRA:          -4.992
INTER:                  -4.992
INTRA:                   0.000
UNBOUND:                 0.000

$$$$

     RDKit          3D

 81 82  0  0  0  0  0  0  0  0999 V2000
   50.3631    6.5527   18.8248 O   0  0  0  0  0  0  0  0  0  0  0  0
   47.9237    7.7025   20.2317 N   0  0  0  0  0  0  0  0  0  0  0  0
   49.3781    7.4843   20.3281 C   0  0  1  0  0  0  0  0  0  0  0  0
   47.6968    6.5213   19.5876 C   0  0  0  0  0  0  0  0  0  0  0  0
   49.1143    6.0056   19.9305 C   0  0  1  0  0  0  0  0  0  0  0  0
   47.4785    8.9767   19.6818 C   0  0  2  0  0  0  0  0  0  0  0  0
   50.1130    8.5875   19.0490 S   0  0  0  0  0  0  0  0  0  0  0  0
   48.5153    9.4260   18.6275 C   0  0  0  0  0  0  0  0  0  0  0  0
   49.8935    5.4397   18.7981 N   0  0  0  0  0  0  0  0  0  0  0  0
   47.3126    9.9463   20.8494 C   0  0  0  0  0  0  0  0  0  0  0  0
   51.2383    5.1698   18.9380 C   0  0  0  0  0  0  0  0  0  0  0  0
   46.7659    6.1474   18.9132 O   0  0  0  0  0  0  0  0  0  0  0  0
   47.9037    9.9322   21.9181 O   0  0  0  0  0  0  0  0  0  0  0  0
   51.8344    5.3751   19.9933 O   0  0  0  0  0  0  0  0  0  0  0  0
   51.9103    4.6162   17.6939 C   0  0  0  0  0  0  0  0  0  0  0  0
   46.4024   10.9131   20.5964 O   0  0  0  0  0  0  0  0  0  0  0  0
   48.7749   10.9369   18.5755 C   0  0  0  0  0  0  0  0  0  0  0  0
   48.1051    8.9556   17.2213 C   0  0  0  0  0  0  0  0  0  0  0  0
   52.4784    3.2353   17.9078 C   0  0  0  0  0  0  0  0  0  0  0  0
   51.7433    2.0947   17.5558 C   0  0  0  0  0  0  0  0  0  0  0  0
   53.7420    3.0755   18.4947 C   0  0  0  0  0  0  0  0  0  0  0  0
   54.2665    1.8002   18.7130 C   0  0  0  0  0  0  0  0  0  0  0  0
   52.2704    0.8194   17.7751 C   0  0  0  0  0  0  0  0  0  0  0  0
   53.5314    0.6728   18.3510 C   0  0  0  0  0  0  0  0  0  0  0  0
   51.2462    5.5642   20.1019 C   0  0  0  0  0  0  0  0  0  0  0  0
   51.4304    4.3502   19.2592 C   0  0  0  0  0  0  0  0  0  0  0  0
   52.1098    6.0116   20.8392 O   0  0  0  0  0  0  0  0  0  0  0  0
   52.6670    3.6949   19.2988 C   0  0  0  0  0  0  0  0  0  0  0  0
   50.4258    3.8599   18.4163 C   0  0  0  0  0  0  0  0  0  0  0  0
   50.0092    6.0869   19.9226 O   0  0  0  0  0  0  0  0  0  0  0  0
   51.8741    2.0371   17.7085 C   0  0  0  0  0  0  0  0  0  0  0  0
   49.4561    9.1339   18.8849 N   0  0  0  0  0  0  0  0  0  0  0  0
   52.1425    0.9834   16.8311 N   0  0  0  0  0  0  0  0  0  0  0  0
   52.8904    2.5608   18.5105 C   0  0  0  0  0  0  0  0  0  0  0  0
   50.6577    2.7225   17.6342 C   0  0  0  0  0  0  0  0  0  0  0  0
   49.7258    7.2851   20.6666 C   0  0  0  0  0  0  0  0  0  0  0  0
   50.2699    8.5376   19.9603 C   0  0  0  0  0  0  0  0  0  0  0  0
   48.2247    9.7618   19.3628 C   0  0  0  0  0  0  0  0  0  0  0  0
   49.3409    8.3082   17.6794 C   0  0  0  0  0  0  0  0  0  0  0  0
   47.6532   10.7647   18.3658 C   0  0  0  0  0  0  0  0  0  0  0  0
   48.1475    7.3611   17.5831 C   0  0  0  0  0  0  0  0  0  0  0  0
   49.4913    6.9340   18.6394 H   0  0  0  0  0  0  0  0  0  0  0  0
   50.2458    5.6081   18.6452 H   0  0  0  0  0  0  0  0  0  0  0  0
   49.7656    7.6316   21.3404 H   0  0  0  0  0  0  0  0  0  0  0  0
   49.0969    5.3096   20.7790 H   0  0  0  0  0  0  0  0  0  0  0  0
   46.4869    8.8249   19.2369 H   0  0  0  0  0  0  0  0  0  0  0  0
   49.4260    5.2274   17.9244 H   0  0  0  0  0  0  0  0  0  0  0  0
   51.2081    4.5996   16.8504 H   0  0  0  0  0  0  0  0  0  0  0  0
   52.7067    5.3130   17.4022 H   0  0  0  0  0  0  0  0  0  0  0  0
   46.3877   11.4479   21.4190 H   0  0  0  0  0  0  0  0  0  0  0  0
   49.1644   11.3274   19.5223 H   0  0  0  0  0  0  0  0  0  0  0  0
   47.8527   11.4813   18.3423 H   0  0  0  0  0  0  0  0  0  0  0  0
   49.5023   11.1940   17.7964 H   0  0  0  0  0  0  0  0  0  0  0  0
   47.9455    7.8734   17.1664 H   0  0  0  0  0  0  0  0  0  0  0  0
   47.1685    9.4381   16.9161 H   0  0  0  0  0  0  0  0  0  0  0  0
   48.8611    9.2142   16.4698 H   0  0  0  0  0  0  0  0  0  0  0  0
   50.7546    2.1865   17.1136 H   0  0  0  0  0  0  0  0  0  0  0  0
   54.3183    3.9479   18.7996 H   0  0  0  0  0  0  0  0  0  0  0  0
   55.2454    1.6883   19.1729 H   0  0  0  0  0  0  0  0  0  0  0  0
   51.6931   -0.0606   17.5021 H   0  0  0  0  0  0  0  0  0  0  0  0
   53.9384   -0.3201   18.5262 H   0  0  0  0  0  0  0  0  0  0  0  0
   53.4712    4.0730   19.9279 H   0  0  0  0  0  0  0  0  0  0  0  0
   49.4611    4.3571   18.3453 H   0  0  0  0  0  0  0  0  0  0  0  0
   51.3206    0.4825   16.5130 H   0  0  0  0  0  0  0  0  0  0  0  0
   52.8821    0.3597   17.1389 H   0  0  0  0  0  0  0  0  0  0  0  0
   53.8716    2.0927   18.5260 H   0  0  0  0  0  0  0  0  0  0  0  0
   49.8768    2.3775   16.9614 H   0  0  0  0  0  0  0  0  0  0  0  0
   50.1514    7.2062   21.6748 H   0  0  0  0  0  0  0  0  0  0  0  0
   48.6410    7.3416   20.8028 H   0  0  0  0  0  0  0  0  0  0  0  0
   51.2679    8.3319   19.5560 H   0  0  0  0  0  0  0  0  0  0  0  0
   50.4228    9.3118   20.7238 H   0  0  0  0  0  0  0  0  0  0  0  0
   47.4632    9.0189   19.6232 H   0  0  0  0  0  0  0  0  0  0  0  0
   48.4346   10.3217   20.2827 H   0  0  0  0  0  0  0  0  0  0  0  0
   50.2645    7.7352   17.5297 H   0  0  0  0  0  0  0  0  0  0  0  0
   49.2970    8.9830   16.8157 H   0  0  0  0  0  0  0  0  0  0  0  0
   47.3350   10.2863   17.4338 H   0  0  0  0  0  0  0  0  0  0  0  0
   46.7777   11.2626   18.7960 H   0  0  0  0  0  0  0  0  0  0  0  0
   48.3901   11.5377   18.1210 H   0  0  0  0  0  0  0  0  0  0  0  0
   48.2360    6.7497   16.6776 H   0  0  0  0  0  0  0  0  0  0  0  0
   47.2017    7.9067   17.5116 H   0  0  0  0  0  0  0  0  0  0  0  0
   48.0849    6.6811   18.4327 H   0  0  0  0  0  0  0  0  0  0  0  0
  3  2  1  0
  4  2  1  0
  5  4  1  0
  6  2  1  0
  3  7  1  0
  8  6  1  0
  5  9  1  0
  6 10  1  0
 11  9  1  0
 12  4  2  0
 13 10  2  0
 14 11  2  0
 15 11  1  0
 16 10  1  0
 17  8  1  0
 18  8  1  0
 19 15  1  0
 20 19  2  0
 21 19  1  0
 22 21  2  0
 23 20  1  0
 24 22  1  0
  7  8  1  0
  5  3  1  0
 24 23  2  0
 26 25  1  0
 27 25  2  0
 28 26  2  0
 29 26  1  0
 30 25  1  0
 31 35  1  0
 32 37  1  0
 33 31  1  0
 34 28  1  0
 35 29  2  0
 36 30  1  0
 37 36  1  0
 38 32  1  0
 39 32  1  0
 40 38  1  0
 41 39  1  0
 31 34  2  0
  1 42  1  0
  1 43  1  0
  3 44  1  1
  5 45  1  1
  6 46  1  6
  9 47  1  0
 15 48  1  0
 15 49  1  0
 16 50  1  0
 17 51  1  0
 17 52  1  0
 17 53  1  0
 18 54  1  0
 18 55  1  0
 18 56  1  0
 20 57  1  0
 21 58  1  0
 22 59  1  0
 23 60  1  0
 24 61  1  0
 28 62  1  0
 29 63  1  0
 33 64  1  0
 33 65  1  0
 34 66  1  0
 35 67  1  0
 36 68  1  0
 36 69  1  0
 37 70  1  0
 37 71  1  0
 38 72  1  0
 38 73  1  0
 39 74  1  0
 39 75  1  0
 40 76  1  0
 40 77  1  0
 40 78  1  0
 41 79  1  0
 41 80  1  0
 41 81  1  0
M  END
> <Uni-Dock RESULT> 
ENERGY=   -4.903  LOWER_BOUND=    6.380  UPPER_BOUND=    8.405
INTER + INTRA:          -4.903
INTER:                  -4.903
INTRA:                   0.000
UNBOUND:                 0.000

$$$$

     RDKit          3D

 81 82  0  0  0  0  0  0  0  0999 V2000
   48.5139   10.9834   19.9655 O   0  0  0  0  0  0  0  0  0  0  0  0
   47.9906   11.9567   17.1316 N   0  0  0  0  0  0  0  0  0  0  0  0
   47.4629   11.9143   18.5071 C   0  0  1  0  0  0  0  0  0  0  0  0
   48.5388   10.7094   17.2058 C   0  0  0  0  0  0  0  0  0  0  0  0
   47.7540   10.3880   18.4995 C   0  0  1  0  0  0  0  0  0  0  0  0
   48.7805   13.1236   16.7593 C   0  0  2  0  0  0  0  0  0  0  0  0
   48.5947   12.9878   19.4869 S   0  0  0  0  0  0  0  0  0  0  0  0
   49.5408   13.6021   18.0169 C   0  0  0  0  0  0  0  0  0  0  0  0
   48.5501    9.8256   19.6218 N   0  0  0  0  0  0  0  0  0  0  0  0
   47.8216   14.1585   16.1760 C   0  0  0  0  0  0  0  0  0  0  0  0
   48.0062    9.7230   20.8846 C   0  0  0  0  0  0  0  0  0  0  0  0
   49.4038   10.1789   16.5490 O   0  0  0  0  0  0  0  0  0  0  0  0
   46.6344   14.2977   16.4270 O   0  0  0  0  0  0  0  0  0  0  0  0
   46.8546   10.0790   21.1254 O   0  0  0  0  0  0  0  0  0  0  0  0
   48.9404    9.1515   21.9366 C   0  0  0  0  0  0  0  0  0  0  0  0
   48.4266   14.9917   15.3003 O   0  0  0  0  0  0  0  0  0  0  0  0
   49.6828   15.1236   18.1495 C   0  0  0  0  0  0  0  0  0  0  0  0
   50.9450   12.9766   18.0786 C   0  0  0  0  0  0  0  0  0  0  0  0
   48.4241    7.8661   22.5335 C   0  0  0  0  0  0  0  0  0  0  0  0
   48.8423    6.6245   22.0346 C   0  0  0  0  0  0  0  0  0  0  0  0
   47.4895    7.8990   23.5786 C   0  0  0  0  0  0  0  0  0  0  0  0
   46.9929    6.7136   24.1236 C   0  0  0  0  0  0  0  0  0  0  0  0
   48.3440    5.4394   22.5819 C   0  0  0  0  0  0  0  0  0  0  0  0
   47.4222    5.4842   23.6266 C   0  0  0  0  0  0  0  0  0  0  0  0
   46.9384   10.2078   20.5173 C   0  0  0  0  0  0  0  0  0  0  0  0
   47.5558    8.9590   21.0439 C   0  0  0  0  0  0  0  0  0  0  0  0
   46.0406   10.8085   21.0853 O   0  0  0  0  0  0  0  0  0  0  0  0
   47.0959    8.4543   22.2661 C   0  0  0  0  0  0  0  0  0  0  0  0
   48.5895    8.2913   20.3763 C   0  0  0  0  0  0  0  0  0  0  0  0
   47.5170   10.5699   19.3469 O   0  0  0  0  0  0  0  0  0  0  0  0
   48.6535    6.5946   22.1194 C   0  0  0  0  0  0  0  0  0  0  0  0
   48.9970   13.4408   18.8625 N   0  0  0  0  0  0  0  0  0  0  0  0
   49.2977    5.5114   22.7225 N   0  0  0  0  0  0  0  0  0  0  0  0
   47.6591    7.2935   22.8072 C   0  0  0  0  0  0  0  0  0  0  0  0
   49.1440    7.1286   20.9240 C   0  0  0  0  0  0  0  0  0  0  0  0
   47.0200   11.7838   18.7562 C   0  0  0  0  0  0  0  0  0  0  0  0
   47.6765   13.0295   19.3736 C   0  0  0  0  0  0  0  0  0  0  0  0
   48.9594   13.9605   17.4959 C   0  0  0  0  0  0  0  0  0  0  0  0
   50.0875   12.5132   19.1768 C   0  0  0  0  0  0  0  0  0  0  0  0
   50.1813   14.8083   17.1576 C   0  0  0  0  0  0  0  0  0  0  0  0
   50.4131   11.4315   18.1500 C   0  0  0  0  0  0  0  0  0  0  0  0
   48.9793   11.2467   19.1569 H   0  0  0  0  0  0  0  0  0  0  0  0
   48.6144   10.0202   19.9876 H   0  0  0  0  0  0  0  0  0  0  0  0
   46.4048   12.1856   18.5669 H   0  0  0  0  0  0  0  0  0  0  0  0
   46.8741    9.7649   18.2941 H   0  0  0  0  0  0  0  0  0  0  0  0
   49.4685   12.8244   15.9584 H   0  0  0  0  0  0  0  0  0  0  0  0
   49.4915    9.4919   19.4508 H   0  0  0  0  0  0  0  0  0  0  0  0
   49.9411    8.9873   21.5164 H   0  0  0  0  0  0  0  0  0  0  0  0
   49.0694    9.9089   22.7205 H   0  0  0  0  0  0  0  0  0  0  0  0
   47.7058   15.5857   14.9994 H   0  0  0  0  0  0  0  0  0  0  0  0
   48.7134   15.6307   18.2095 H   0  0  0  0  0  0  0  0  0  0  0  0
   50.2259   15.5389   17.2929 H   0  0  0  0  0  0  0  0  0  0  0  0
   50.2473   15.3986   19.0483 H   0  0  0  0  0  0  0  0  0  0  0  0
   50.9237   11.8823   18.0357 H   0  0  0  0  0  0  0  0  0  0  0  0
   51.5541   13.3231   17.2347 H   0  0  0  0  0  0  0  0  0  0  0  0
   51.4753   13.2585   18.9965 H   0  0  0  0  0  0  0  0  0  0  0  0
   49.5537    6.5672   21.2148 H   0  0  0  0  0  0  0  0  0  0  0  0
   47.1317    8.8531   23.9631 H   0  0  0  0  0  0  0  0  0  0  0  0
   46.2652    6.7513   24.9307 H   0  0  0  0  0  0  0  0  0  0  0  0
   48.6710    4.4802   22.1877 H   0  0  0  0  0  0  0  0  0  0  0  0
   47.0309    4.5616   24.0481 H   0  0  0  0  0  0  0  0  0  0  0  0
   46.3104    8.9709   22.8152 H   0  0  0  0  0  0  0  0  0  0  0  0
   48.9849    8.6679   19.4357 H   0  0  0  0  0  0  0  0  0  0  0  0
   49.7785    4.8962   22.0761 H   0  0  0  0  0  0  0  0  0  0  0  0
   48.7265    5.0029   23.3903 H   0  0  0  0  0  0  0  0  0  0  0  0
   47.3150    6.9432   23.7772 H   0  0  0  0  0  0  0  0  0  0  0  0
   49.9683    6.6439   20.4071 H   0  0  0  0  0  0  0  0  0  0  0  0
   45.9303   11.8351   18.8729 H   0  0  0  0  0  0  0  0  0  0  0  0
   47.2037   11.7270   17.6784 H   0  0  0  0  0  0  0  0  0  0  0  0
   47.7565   12.9071   20.4600 H   0  0  0  0  0  0  0  0  0  0  0  0
   46.9908   13.8748   19.2290 H   0  0  0  0  0  0  0  0  0  0  0  0
   48.8454   13.1589   16.7583 H   0  0  0  0  0  0  0  0  0  0  0  0
   48.0851   14.6126   17.3782 H   0  0  0  0  0  0  0  0  0  0  0  0
   49.9056   12.0391   20.1494 H   0  0  0  0  0  0  0  0  0  0  0  0
   50.9970   13.1071   19.3300 H   0  0  0  0  0  0  0  0  0  0  0  0
   51.1068   14.2236   17.1686 H   0  0  0  0  0  0  0  0  0  0  0  0
   50.0740   15.2361   16.1551 H   0  0  0  0  0  0  0  0  0  0  0  0
   50.2908   15.6382   17.8646 H   0  0  0  0  0  0  0  0  0  0  0  0
   51.1836   10.7635   18.5521 H   0  0  0  0  0  0  0  0  0  0  0  0
   50.8091   11.8583   17.2234 H   0  0  0  0  0  0  0  0  0  0  0  0
   49.5467   10.8193   17.8999 H   0  0  0  0  0  0  0  0  0  0  0  0
  3  2  1  0
  4  2  1  0
  5  4  1  0
  6  2  1  0
  3  7  1  0
  8  6  1  0
  5  9  1  0
  6 10  1  0
 11  9  1  0
 12  4  2  0
 13 10  2  0
 14 11  2  0
 15 11  1  0
 16 10  1  0
 17  8  1  0
 18  8  1  0
 19 15  1  0
 20 19  2  0
 21 19  1  0
 22 21  2  0
 23 20  1  0
 24 22  1  0
  7  8  1  0
  5  3  1  0
 24 23  2  0
 26 25  1  0
 27 25  2  0
 28 26  2  0
 29 26  1  0
 30 25  1  0
 31 35  1  0
 32 37  1  0
 33 31  1  0
 34 28  1  0
 35 29  2  0
 36 30  1  0
 37 36  1  0
 38 32  1  0
 39 32  1  0
 40 38  1  0
 41 39  1  0
 31 34  2  0
  1 42  1  0
  1 43  1  0
  3 44  1  1
  5 45  1  1
  6 46  1  6
  9 47  1  0
 15 48  1  0
 15 49  1  0
 16 50  1  0
 17 51  1  0
 17 52  1  0
 17 53  1  0
 18 54  1  0
 18 55  1  0
 18 56  1  0
 20 57  1  0
 21 58  1  0
 22 59  1  0
 23 60  1  0
 24 61  1  0
 28 62  1  0
 29 63  1  0
 33 64  1  0
 33 65  1  0
 34 66  1  0
 35 67  1  0
 36 68  1  0
 36 69  1  0
 37 70  1  0
 37 71  1  0
 38 72  1  0
 38 73  1  0
 39 74  1  0
 39 75  1  0
 40 76  1  0
 40 77  1  0
 40 78  1  0
 41 79  1  0
 41 80  1  0
 41 81  1  0
M  END
> <Uni-Dock RESULT> 
ENERGY=   -4.833  LOWER_BOUND=    6.552  UPPER_BOUND=    8.488
INTER + INTRA:          -4.833
INTER:                  -4.833
INTRA:                   0.000
UNBOUND:                 0.000

$$$$

     RDKit          3D

 81 82  0  0  0  0  0  0  0  0999 V2000
   49.1877    7.8757   18.9175 O   0  0  0  0  0  0  0  0  0  0  0  0
   49.4697   10.8449   18.3201 N   0  0  0  0  0  0  0  0  0  0  0  0
   48.9103    9.5680   17.8416 C   0  0  1  0  0  0  0  0  0  0  0  0
   50.5929   10.2654   18.8343 C   0  0  0  0  0  0  0  0  0  0  0  0
   50.3102    8.9402   18.0879 C   0  0  1  0  0  0  0  0  0  0  0  0
   48.5999   11.6889   19.1295 C   0  0  2  0  0  0  0  0  0  0  0  0
   47.5732    9.1531   19.0389 S   0  0  0  0  0  0  0  0  0  0  0  0
   47.6708   10.7645   19.9485 C   0  0  0  0  0  0  0  0  0  0  0  0
   50.3835    7.7024   18.9076 N   0  0  0  0  0  0  0  0  0  0  0  0
   47.8654   12.6327   18.1805 C   0  0  0  0  0  0  0  0  0  0  0  0
   49.9252    6.5021   18.4071 C   0  0  0  0  0  0  0  0  0  0  0  0
   51.3851   10.6566   19.6591 O   0  0  0  0  0  0  0  0  0  0  0  0
   47.5847   12.4388   17.0077 O   0  0  0  0  0  0  0  0  0  0  0  0
   49.4536    6.4091   17.2758 O   0  0  0  0  0  0  0  0  0  0  0  0
   50.0420    5.3271   19.3620 C   0  0  0  0  0  0  0  0  0  0  0  0
   47.5014   13.7897   18.7772 O   0  0  0  0  0  0  0  0  0  0  0  0
   46.2408   11.2858   20.1392 C   0  0  0  0  0  0  0  0  0  0  0  0
   48.2706   10.4750   21.3353 C   0  0  0  0  0  0  0  0  0  0  0  0
   50.9367    4.2351   18.8306 C   0  0  0  0  0  0  0  0  0  0  0  0
   52.2893    4.1753   19.1943 C   0  0  0  0  0  0  0  0  0  0  0  0
   50.4303    3.2812   17.9359 C   0  0  0  0  0  0  0  0  0  0  0  0
   51.2569    2.2787   17.4252 C   0  0  0  0  0  0  0  0  0  0  0  0
   53.1145    3.1708   18.6820 C   0  0  0  0  0  0  0  0  0  0  0  0
   52.5981    2.2226   17.8003 C   0  0  0  0  0  0  0  0  0  0  0  0
   49.5949    7.0167   17.3412 C   0  0  0  0  0  0  0  0  0  0  0  0
   50.5329    6.0275   17.9408 C   0  0  0  0  0  0  0  0  0  0  0  0
   48.7748    6.7349   16.4824 O   0  0  0  0  0  0  0  0  0  0  0  0
   50.4598    4.6971   17.5112 C   0  0  0  0  0  0  0  0  0  0  0  0
   51.4611    6.3744   18.9298 C   0  0  0  0  0  0  0  0  0  0  0  0
   49.7805    8.2427   17.8873 O   0  0  0  0  0  0  0  0  0  0  0  0
   52.2730    4.0819   19.0079 C   0  0  0  0  0  0  0  0  0  0  0  0
   47.4404    9.9182   19.4313 N   0  0  0  0  0  0  0  0  0  0  0  0
   53.0299    3.0933   19.6418 N   0  0  0  0  0  0  0  0  0  0  0  0
   51.3097    3.7305   18.0598 C   0  0  0  0  0  0  0  0  0  0  0  0
   52.3095    5.4010   19.4700 C   0  0  0  0  0  0  0  0  0  0  0  0
   48.9060    9.2780   17.4045 C   0  0  0  0  0  0  0  0  0  0  0  0
   47.5447    9.2543   18.1188 C   0  0  0  0  0  0  0  0  0  0  0  0
   47.5396   11.3756   19.3592 C   0  0  0  0  0  0  0  0  0  0  0  0
   48.1955    9.2663   20.5051 C   0  0  0  0  0  0  0  0  0  0  0  0
   46.9629   12.0639   20.5921 C   0  0  0  0  0  0  0  0  0  0  0  0
   49.6203    9.7506   20.7618 C   0  0  0  0  0  0  0  0  0  0  0  0
   49.3068    8.7296   19.3607 H   0  0  0  0  0  0  0  0  0  0  0  0
   50.0564    7.4535   18.9908 H   0  0  0  0  0  0  0  0  0  0  0  0
   48.5953    9.6056   16.7948 H   0  0  0  0  0  0  0  0  0  0  0  0
   50.9248    8.8468   17.1835 H   0  0  0  0  0  0  0  0  0  0  0  0
   49.2352   12.3043   19.7790 H   0  0  0  0  0  0  0  0  0  0  0  0
   50.7969    7.7369   19.8321 H   0  0  0  0  0  0  0  0  0  0  0  0
   50.4084    5.6601   20.3416 H   0  0  0  0  0  0  0  0  0  0  0  0
   49.0320    4.9364   19.5411 H   0  0  0  0  0  0  0  0  0  0  0  0
   47.0586   14.2971   18.0634 H   0  0  0  0  0  0  0  0  0  0  0  0
   45.7155   11.4241   19.1877 H   0  0  0  0  0  0  0  0  0  0  0  0
   46.2454   12.2487   20.6627 H   0  0  0  0  0  0  0  0  0  0  0  0
   45.6385   10.5974   20.7437 H   0  0  0  0  0  0  0  0  0  0  0  0
   49.2804   10.0542   21.2807 H   0  0  0  0  0  0  0  0  0  0  0  0
   48.3350   11.3989   21.9231 H   0  0  0  0  0  0  0  0  0  0  0  0
   47.6526    9.7716   21.9065 H   0  0  0  0  0  0  0  0  0  0  0  0
   52.7141    4.9099   19.8735 H   0  0  0  0  0  0  0  0  0  0  0  0
   49.3890    3.3253   17.6200 H   0  0  0  0  0  0  0  0  0  0  0  0
   50.8545    1.5471   16.7287 H   0  0  0  0  0  0  0  0  0  0  0  0
   54.1632    3.1327   18.9665 H   0  0  0  0  0  0  0  0  0  0  0  0
   53.2423    1.4446   17.3980 H   0  0  0  0  0  0  0  0  0  0  0  0
   49.7287    4.3994   16.7614 H   0  0  0  0  0  0  0  0  0  0  0  0
   51.5297    7.3942   19.3017 H   0  0  0  0  0  0  0  0  0  0  0  0
   53.8786    3.4316   20.0808 H   0  0  0  0  0  0  0  0  0  0  0  0
   53.1879    2.2620   19.0807 H   0  0  0  0  0  0  0  0  0  0  0  0
   51.2071    2.6961   17.7411 H   0  0  0  0  0  0  0  0  0  0  0  0
   52.9999    5.6836   20.2606 H   0  0  0  0  0  0  0  0  0  0  0  0
   48.7653    9.1710   16.3217 H   0  0  0  0  0  0  0  0  0  0  0  0
   49.4164   10.2359   17.5472 H   0  0  0  0  0  0  0  0  0  0  0  0
   47.2041    8.2188   18.2345 H   0  0  0  0  0  0  0  0  0  0  0  0
   46.8099    9.7261   17.4531 H   0  0  0  0  0  0  0  0  0  0  0  0
   48.5709   11.7061   19.1953 H   0  0  0  0  0  0  0  0  0  0  0  0
   46.9610   11.7380   18.5004 H   0  0  0  0  0  0  0  0  0  0  0  0
   48.2108    8.1809   20.3450 H   0  0  0  0  0  0  0  0  0  0  0  0
   47.6304    9.3954   21.4364 H   0  0  0  0  0  0  0  0  0  0  0  0
   47.5272   11.8276   21.5000 H   0  0  0  0  0  0  0  0  0  0  0  0
   46.9902   13.1509   20.4609 H   0  0  0  0  0  0  0  0  0  0  0  0
   45.9186   11.7730   20.7511 H   0  0  0  0  0  0  0  0  0  0  0  0
   50.0900    9.1214   21.5267 H   0  0  0  0  0  0  0  0  0  0  0  0
   49.6376   10.7788   21.1361 H   0  0  0  0  0  0  0  0  0  0  0  0
   50.2444    9.7026   19.8695 H   0  0  0  0  0  0  0  0  0  0  0  0
  3  2  1  0
  4  2  1  0
  5  4  1  0
  6  2  1  0
  3  7  1  0
  8  6  1  0
  5  9  1  0
  6 10  1  0
 11  9  1  0
 12  4  2  0
 13 10  2  0
 14 11  2  0
 15 11  1  0
 16 10  1  0
 17  8  1  0
 18  8  1  0
 19 15  1  0
 20 19  2  0
 21 19  1  0
 22 21  2  0
 23 20  1  0
 24 22  1  0
  7  8  1  0
  5  3  1  0
 24 23  2  0
 26 25  1  0
 27 25  2  0
 28 26  2  0
 29 26  1  0
 30 25  1  0
 31 35  1  0
 32 37  1  0
 33 31  1  0
 34 28  1  0
 35 29  2  0
 36 30  1  0
 37 36  1  0
 38 32  1  0
 39 32  1  0
 40 38  1  0
 41 39  1  0
 31 34  2  0
  1 42  1  0
  1 43  1  0
  3 44  1  1
  5 45  1  1
  6 46  1  6
  9 47  1  0
 15 48  1  0
 15 49  1  0
 16 50  1  0
 17 51  1  0
 17 52  1  0
 17 53  1  0
 18 54  1  0
 18 55  1  0
 18 56  1  0
 20 57  1  0
 21 58  1  0
 22 59  1  0
 23 60  1  0
 24 61  1  0
 28 62  1  0
 29 63  1  0
 33 64  1  0
 33 65  1  0
 34 66  1  0
 35 67  1  0
 36 68  1  0
 36 69  1  0
 37 70  1  0
 37 71  1  0
 38 72  1  0
 38 73  1  0
 39 74  1  0
 39 75  1  0
 40 76  1  0
 40 77  1  0
 40 78  1  0
 41 79  1  0
 41 80  1  0
 41 81  1  0
M  END
> <Uni-Dock RESULT> 
ENERGY=   -4.713  LOWER_BOUND=    5.897  UPPER_BOUND=    7.961
INTER + INTRA:          -4.713
INTER:                  -4.713
INTRA:                   0.000
UNBOUND:                 0.000

$$$$

     RDKit          3D

 81 82  0  0  0  0  0  0  0  0999 V2000
   43.6080   12.0006   11.3291 O   0  0  0  0  0  0  0  0  0  0  0  0
   41.2110   11.2293    9.6226 N   0  0  0  0  0  0  0  0  0  0  0  0
   42.0110   10.8711   10.8075 C   0  0  1  0  0  0  0  0  0  0  0  0
   42.2913   11.6643    8.9114 C   0  0  0  0  0  0  0  0  0  0  0  0
   43.2744   11.0161    9.9146 C   0  0  1  0  0  0  0  0  0  0  0  0
   40.0429   12.0731    9.8406 C   0  0  2  0  0  0  0  0  0  0  0  0
   41.6797   12.2083   12.0303 S   0  0  0  0  0  0  0  0  0  0  0  0
   40.3568   13.0217   11.0197 C   0  0  0  0  0  0  0  0  0  0  0  0
   44.3756   11.8870   10.4029 N   0  0  0  0  0  0  0  0  0  0  0  0
   38.8501   11.1506   10.0799 C   0  0  0  0  0  0  0  0  0  0  0  0
   45.1623   11.4935   11.4646 C   0  0  0  0  0  0  0  0  0  0  0  0
   42.3713   12.3901    7.9482 O   0  0  0  0  0  0  0  0  0  0  0  0
   38.8643   10.0208   10.5437 O   0  0  0  0  0  0  0  0  0  0  0  0
   44.9915   10.4177   12.0343 O   0  0  0  0  0  0  0  0  0  0  0  0
   46.2329   12.4915   11.8691 C   0  0  0  0  0  0  0  0  0  0  0  0
   37.6751   11.7195    9.7292 O   0  0  0  0  0  0  0  0  0  0  0  0
   39.1712   13.3194   11.9463 C   0  0  0  0  0  0  0  0  0  0  0  0
   40.9224   14.3588   10.5108 C   0  0  0  0  0  0  0  0  0  0  0  0
   47.6275   11.9344   11.7280 C   0  0  0  0  0  0  0  0  0  0  0  0
   48.3812   12.1719   10.5701 C   0  0  0  0  0  0  0  0  0  0  0  0
   48.1765   11.1410   12.7458 C   0  0  0  0  0  0  0  0  0  0  0  0
   49.4594   10.6064   12.6143 C   0  0  0  0  0  0  0  0  0  0  0  0
   49.6651   11.6359   10.4409 C   0  0  0  0  0  0  0  0  0  0  0  0
   50.2041   10.8560   11.4629 C   0  0  0  0  0  0  0  0  0  0  0  0
   44.5453   10.4387   11.5939 C   0  0  0  0  0  0  0  0  0  0  0  0
   45.8804   10.9968   11.2424 C   0  0  0  0  0  0  0  0  0  0  0  0
   44.3570    9.6762   12.5282 O   0  0  0  0  0  0  0  0  0  0  0  0
   46.9784   10.6440   12.0362 C   0  0  0  0  0  0  0  0  0  0  0  0
   46.0697   11.8752   10.1688 C   0  0  0  0  0  0  0  0  0  0  0  0
   43.5956   10.9018   10.7459 O   0  0  0  0  0  0  0  0  0  0  0  0
   48.4517   11.9928   10.6519 C   0  0  0  0  0  0  0  0  0  0  0  0
   40.9586   12.5721   11.7070 N   0  0  0  0  0  0  0  0  0  0  0  0
   49.6927   12.6021   10.4504 N   0  0  0  0  0  0  0  0  0  0  0  0
   48.2483   11.1586   11.7533 C   0  0  0  0  0  0  0  0  0  0  0  0
   47.3447   12.3819    9.8916 C   0  0  0  0  0  0  0  0  0  0  0  0
   42.2545   10.4516   11.0073 C   0  0  0  0  0  0  0  0  0  0  0  0
   41.5735   11.2910   12.1006 C   0  0  0  0  0  0  0  0  0  0  0  0
   39.7630   12.4171   10.8790 C   0  0  0  0  0  0  0  0  0  0  0  0
   41.9131   13.6018   11.2864 C   0  0  0  0  0  0  0  0  0  0  0  0
   38.8821   13.6622   10.8830 C   0  0  0  0  0  0  0  0  0  0  0  0
   42.2381   13.6984    9.7979 C   0  0  0  0  0  0  0  0  0  0  0  0
   42.9416   12.3867   10.7404 H   0  0  0  0  0  0  0  0  0  0  0  0
   44.4195   12.0132   10.8003 H   0  0  0  0  0  0  0  0  0  0  0  0
   41.8101    9.8579   11.1677 H   0  0  0  0  0  0  0  0  0  0  0  0
   43.6679   10.0638    9.5367 H   0  0  0  0  0  0  0  0  0  0  0  0
   39.8490   12.6279    8.9139 H   0  0  0  0  0  0  0  0  0  0  0  0
   44.5651   12.7656    9.9348 H   0  0  0  0  0  0  0  0  0  0  0  0
   46.1430   13.4141   11.2813 H   0  0  0  0  0  0  0  0  0  0  0  0
   46.0450   12.7845   12.9101 H   0  0  0  0  0  0  0  0  0  0  0  0
   37.0079   11.0257    9.9204 H   0  0  0  0  0  0  0  0  0  0  0  0
   38.7757   12.4157   12.4233 H   0  0  0  0  0  0  0  0  0  0  0  0
   38.3527   13.7906   11.3902 H   0  0  0  0  0  0  0  0  0  0  0  0
   39.4513   14.0120   12.7487 H   0  0  0  0  0  0  0  0  0  0  0  0
   41.8051   14.2309    9.8750 H   0  0  0  0  0  0  0  0  0  0  0  0
   40.1686   14.8903    9.9171 H   0  0  0  0  0  0  0  0  0  0  0  0
   41.2071   15.0206   11.3379 H   0  0  0  0  0  0  0  0  0  0  0  0
   47.9765   12.7700    9.7577 H   0  0  0  0  0  0  0  0  0  0  0  0
   47.5977   10.9226   13.6421 H   0  0  0  0  0  0  0  0  0  0  0  0
   49.8731    9.9888   13.4080 H   0  0  0  0  0  0  0  0  0  0  0  0
   50.2425   11.8221    9.5386 H   0  0  0  0  0  0  0  0  0  0  0  0
   51.2011   10.4349   11.3592 H   0  0  0  0  0  0  0  0  0  0  0  0
   46.8503    9.9824   12.8914 H   0  0  0  0  0  0  0  0  0  0  0  0
   45.2349   12.1867    9.5451 H   0  0  0  0  0  0  0  0  0  0  0  0
   49.8454   12.9416    9.5075 H   0  0  0  0  0  0  0  0  0  0  0  0
   50.4827   12.0716   10.8044 H   0  0  0  0  0  0  0  0  0  0  0  0
   49.0783   10.9039   12.4078 H   0  0  0  0  0  0  0  0  0  0  0  0
   47.4647   13.0887    9.0745 H   0  0  0  0  0  0  0  0  0  0  0  0
   42.2674    9.3936   11.2977 H   0  0  0  0  0  0  0  0  0  0  0  0
   41.7003   10.4968   10.0643 H   0  0  0  0  0  0  0  0  0  0  0  0
   42.2835   11.4907   12.9117 H   0  0  0  0  0  0  0  0  0  0  0  0
   40.7858   10.6743   12.5532 H   0  0  0  0  0  0  0  0  0  0  0  0
   40.0135   12.1403    9.8494 H   0  0  0  0  0  0  0  0  0  0  0  0
   39.1487   11.5993   11.2759 H   0  0  0  0  0  0  0  0  0  0  0  0
   42.8486   13.4963   11.8500 H   0  0  0  0  0  0  0  0  0  0  0  0
   41.5148   14.5743   11.6009 H   0  0  0  0  0  0  0  0  0  0  0  0
   39.3813   14.5239   10.4281 H   0  0  0  0  0  0  0  0  0  0  0  0
   37.9657   13.4741   10.3134 H   0  0  0  0  0  0  0  0  0  0  0  0
   38.5908   13.9333   11.9038 H   0  0  0  0  0  0  0  0  0  0  0  0
   43.0237   14.4467    9.6413 H   0  0  0  0  0  0  0  0  0  0  0  0
   41.3696   14.0167    9.2132 H   0  0  0  0  0  0  0  0  0  0  0  0
   42.5977   12.7550    9.3873 H   0  0  0  0  0  0  0  0  0  0  0  0
  3  2  1  0
  4  2  1  0
  5  4  1  0
  6  2  1  0
  3  7  1  0
  8  6  1  0
  5  9  1  0
  6 10  1  0
 11  9  1  0
 12  4  2  0
 13 10  2  0
 14 11  2  0
 15 11  1  0
 16 10  1  0
 17  8  1  0
 18  8  1  0
 19 15  1  0
 20 19  2  0
 21 19  1  0
 22 21  2  0
 23 20  1  0
 24 22  1  0
  7  8  1  0
  5  3  1  0
 24 23  2  0
 26 25  1  0
 27 25  2  0
 28 26  2  0
 29 26  1  0
 30 25  1  0
 31 35  1  0
 32 37  1  0
 33 31  1  0
 34 28  1  0
 35 29  2  0
 36 30  1  0
 37 36  1  0
 38 32  1  0
 39 32  1  0
 40 38  1  0
 41 39  1  0
 31 34  2  0
  1 42  1  0
  1 43  1  0
  3 44  1  1
  5 45  1  1
  6 46  1  6
  9 47  1  0
 15 48  1  0
 15 49  1  0
 16 50  1  0
 17 51  1  0
 17 52  1  0
 17 53  1  0
 18 54  1  0
 18 55  1  0
 18 56  1  0
 20 57  1  0
 21 58  1  0
 22 59  1  0
 23 60  1  0
 24 61  1  0
 28 62  1  0
 29 63  1  0
 33 64  1  0
 33 65  1  0
 34 66  1  0
 35 67  1  0
 36 68  1  0
 36 69  1  0
 37 70  1  0
 37 71  1  0
 38 72  1  0
 38 73  1  0
 39 74  1  0
 39 75  1  0
 40 76  1  0
 40 77  1  0
 40 78  1  0
 41 79  1  0
 41 80  1  0
 41 81  1  0
M  END
> <Uni-Dock RESULT> 
ENERGY=   -4.695  LOWER_BOUND=    5.541  UPPER_BOUND=    9.100
INTER + INTRA:          -4.695
INTER:                  -4.695
INTRA:                   0.000
UNBOUND:                 0.000

$$$$

     RDKit          3D

 81 82  0  0  0  0  0  0  0  0999 V2000
   49.6037    7.9691   17.6765 O   0  0  0  0  0  0  0  0  0  0  0  0
   50.2151   10.6281   16.3316 N   0  0  0  0  0  0  0  0  0  0  0  0
   49.4133    9.3941   16.2511 C   0  0  1  0  0  0  0  0  0  0  0  0
   51.3080    9.9932   16.8457 C   0  0  0  0  0  0  0  0  0  0  0  0
   50.7298    8.6036   16.4887 C   0  0  1  0  0  0  0  0  0  0  0  0
   49.6065   11.7730   16.9970 C   0  0  2  0  0  0  0  0  0  0  0  0
   48.2255    9.5031   17.6549 S   0  0  0  0  0  0  0  0  0  0  0  0
   48.6881   11.2365   18.1183 C   0  0  0  0  0  0  0  0  0  0  0  0
   50.7471    7.5914   17.5772 N   0  0  0  0  0  0  0  0  0  0  0  0
   48.8809   12.5898   15.9307 C   0  0  0  0  0  0  0  0  0  0  0  0
   50.0519    6.4081   17.4453 C   0  0  0  0  0  0  0  0  0  0  0  0
   52.2628   10.4169   17.4540 O   0  0  0  0  0  0  0  0  0  0  0  0
   48.4026   12.1864   14.8818 O   0  0  0  0  0  0  0  0  0  0  0  0
   49.4075    6.1442   16.4323 O   0  0  0  0  0  0  0  0  0  0  0  0
   50.1410    5.4793   18.6433 C   0  0  0  0  0  0  0  0  0  0  0  0
   48.7800   13.8976   16.2575 O   0  0  0  0  0  0  0  0  0  0  0  0
   47.3926   12.0297   18.3310 C   0  0  0  0  0  0  0  0  0  0  0  0
   49.4415   11.1697   19.4579 C   0  0  0  0  0  0  0  0  0  0  0  0
   50.7802    4.1557   18.3043 C   0  0  0  0  0  0  0  0  0  0  0  0
   52.1493    3.9443   18.5188 C   0  0  0  0  0  0  0  0  0  0  0  0
   50.0140    3.1272   17.7371 C   0  0  0  0  0  0  0  0  0  0  0  0
   50.6024    1.9059   17.4033 C   0  0  0  0  0  0  0  0  0  0  0  0
   52.7359    2.7210   18.1841 C   0  0  0  0  0  0  0  0  0  0  0  0
   51.9626    1.7026   17.6291 C   0  0  0  0  0  0  0  0  0  0  0  0
   49.6425    6.7164   16.3283 C   0  0  0  0  0  0  0  0  0  0  0  0
   50.5083    5.7410   17.0471 C   0  0  0  0  0  0  0  0  0  0  0  0
   48.6710    6.3947   15.6632 O   0  0  0  0  0  0  0  0  0  0  0  0
   50.1819    4.3816   16.9729 C   0  0  0  0  0  0  0  0  0  0  0  0
   51.6145    6.1357   17.8092 C   0  0  0  0  0  0  0  0  0  0  0  0
   50.0816    7.9826   16.5280 O   0  0  0  0  0  0  0  0  0  0  0  0
   52.0921    3.8152   18.3645 C   0  0  0  0  0  0  0  0  0  0  0  0
   48.2640   10.3486   17.8568 N   0  0  0  0  0  0  0  0  0  0  0  0
   52.7860    2.8799   19.1363 N   0  0  0  0  0  0  0  0  0  0  0  0
   50.9572    3.4317   17.6468 C   0  0  0  0  0  0  0  0  0  0  0  0
   52.3860    5.1775   18.4769 C   0  0  0  0  0  0  0  0  0  0  0  0
   49.3019    9.0176   15.9032 C   0  0  0  0  0  0  0  0  0  0  0  0
   48.0740    9.3958   16.7476 C   0  0  0  0  0  0  0  0  0  0  0  0
   48.5590   11.7108   17.4138 C   0  0  0  0  0  0  0  0  0  0  0  0
   49.0704    9.8361   18.9683 C   0  0  0  0  0  0  0  0  0  0  0  0
   48.2783   12.7516   18.4929 C   0  0  0  0  0  0  0  0  0  0  0  0
   50.5721   10.1089   18.9364 C   0  0  0  0  0  0  0  0  0  0  0  0
   49.9089    8.8671   17.8772 H   0  0  0  0  0  0  0  0  0  0  0  0
   50.4040    7.4292   17.7555 H   0  0  0  0  0  0  0  0  0  0  0  0
   48.9534    9.2471   15.2695 H   0  0  0  0  0  0  0  0  0  0  0  0
   51.1819    8.2006   15.5734 H   0  0  0  0  0  0  0  0  0  0  0  0
   50.4136   12.3990   17.3983 H   0  0  0  0  0  0  0  0  0  0  0  0
   51.2952    7.7624   18.4122 H   0  0  0  0  0  0  0  0  0  0  0  0
   50.6941    5.9570   19.4623 H   0  0  0  0  0  0  0  0  0  0  0  0
   49.1239    5.3227   19.0252 H   0  0  0  0  0  0  0  0  0  0  0  0
   48.3124   14.2988   15.4937 H   0  0  0  0  0  0  0  0  0  0  0  0
   46.7557   12.0377   17.4395 H   0  0  0  0  0  0  0  0  0  0  0  0
   47.6134   13.0703   18.5946 H   0  0  0  0  0  0  0  0  0  0  0  0
   46.7954   11.6133   19.1508 H   0  0  0  0  0  0  0  0  0  0  0  0
   50.3609   10.5773   19.3979 H   0  0  0  0  0  0  0  0  0  0  0  0
   49.7250   12.1771   19.7865 H   0  0  0  0  0  0  0  0  0  0  0  0
   48.8219   10.7340   20.2512 H   0  0  0  0  0  0  0  0  0  0  0  0
   52.7720    4.7281   18.9424 H   0  0  0  0  0  0  0  0  0  0  0  0
   48.9542    3.2799   17.5379 H   0  0  0  0  0  0  0  0  0  0  0  0
   49.9994    1.1171   16.9599 H   0  0  0  0  0  0  0  0  0  0  0  0
   53.7990    2.5656   18.3509 H   0  0  0  0  0  0  0  0  0  0  0  0
   52.4210    0.7530   17.3640 H   0  0  0  0  0  0  0  0  0  0  0  0
   49.3115    4.0539   16.4068 H   0  0  0  0  0  0  0  0  0  0  0  0
   51.8834    7.1852   17.9056 H   0  0  0  0  0  0  0  0  0  0  0  0
   53.7306    3.1552   19.3802 H   0  0  0  0  0  0  0  0  0  0  0  0
   52.7373    1.9284   18.7857 H   0  0  0  0  0  0  0  0  0  0  0  0
   50.6608    2.3863   17.6089 H   0  0  0  0  0  0  0  0  0  0  0  0
   53.2205    5.5073   19.0905 H   0  0  0  0  0  0  0  0  0  0  0  0
   48.9865    8.6934   14.9036 H   0  0  0  0  0  0  0  0  0  0  0  0
   49.9599    9.8782   15.7454 H   0  0  0  0  0  0  0  0  0  0  0  0
   47.6099    8.4898   17.1545 H   0  0  0  0  0  0  0  0  0  0  0  0
   47.3229    9.8249   16.0714 H   0  0  0  0  0  0  0  0  0  0  0  0
   49.5905   11.8095   17.0593 H   0  0  0  0  0  0  0  0  0  0  0  0
   47.9160   11.9639   16.5617 H   0  0  0  0  0  0  0  0  0  0  0  0
   48.9059    8.7573   19.0826 H   0  0  0  0  0  0  0  0  0  0  0  0
   48.6758   10.2706   19.8950 H   0  0  0  0  0  0  0  0  0  0  0  0
   48.9327   12.6329   19.3626 H   0  0  0  0  0  0  0  0  0  0  0  0
   48.4410   13.7582   18.0932 H   0  0  0  0  0  0  0  0  0  0  0  0
   47.2389   12.6920   18.8343 H   0  0  0  0  0  0  0  0  0  0  0  0
   51.0561    9.5979   19.7767 H   0  0  0  0  0  0  0  0  0  0  0  0
   50.7924   11.1759   19.0388 H   0  0  0  0  0  0  0  0  0  0  0  0
   51.0419    9.7507   18.0205 H   0  0  0  0  0  0  0  0  0  0  0  0
  3  2  1  0
  4  2  1  0
  5  4  1  0
  6  2  1  0
  3  7  1  0
  8  6  1  0
  5  9  1  0
  6 10  1  0
 11  9  1  0
 12  4  2  0
 13 10  2  0
 14 11  2  0
 15 11  1  0
 16 10  1  0
 17  8  1  0
 18  8  1  0
 19 15  1  0
 20 19  2  0
 21 19  1  0
 22 21  2  0
 23 20  1  0
 24 22  1  0
  7  8  1  0
  5  3  1  0
 24 23  2  0
 26 25  1  0
 27 25  2  0
 28 26  2  0
 29 26  1  0
 30 25  1  0
 31 35  1  0
 32 37  1  0
 33 31  1  0
 34 28  1  0
 35 29  2  0
 36 30  1  0
 37 36  1  0
 38 32  1  0
 39 32  1  0
 40 38  1  0
 41 39  1  0
 31 34  2  0
  1 42  1  0
  1 43  1  0
  3 44  1  1
  5 45  1  1
  6 46  1  6
  9 47  1  0
 15 48  1  0
 15 49  1  0
 16 50  1  0
 17 51  1  0
 17 52  1  0
 17 53  1  0
 18 54  1  0
 18 55  1  0
 18 56  1  0
 20 57  1  0
 21 58  1  0
 22 59  1  0
 23 60  1  0
 24 61  1  0
 28 62  1  0
 29 63  1  0
 33 64  1  0
 33 65  1  0
 34 66  1  0
 35 67  1  0
 36 68  1  0
 36 69  1  0
 37 70  1  0
 37 71  1  0
 38 72  1  0
 38 73  1  0
 39 74  1  0
 39 75  1  0
 40 76  1  0
 40 77  1  0
 40 78  1  0
 41 79  1  0
 41 80  1  0
 41 81  1  0
M  END
> <Uni-Dock RESULT> 
ENERGY=   -4.591  LOWER_BOUND=    4.867  UPPER_BOUND=    6.948
INTER + INTRA:          -4.591
INTER:                  -4.591
INTRA:                   0.000
UNBOUND:                 0.000

$$$$
