
     RDKit          3D

 81 82  0  0  0  0  0  0  0  0999 V2000
   48.7217    7.5538   12.8070 O   0  0  0  0  0  0  0  0  0  0  0  0
   50.5846    9.2887   12.2432 N   0  0  0  0  0  0  0  0  0  0  0  0
   49.1863    9.3773   12.7130 C   0  0  1  0  0  0  0  0  0  0  0  0
   50.3915    8.0861   11.6196 C   0  0  0  0  0  0  0  0  0  0  0  0
   48.8597    8.1688   11.8014 C   0  0  1  0  0  0  0  0  0  0  0  0
   51.6470    9.4084   13.2432 C   0  0  2  0  0  0  0  0  0  0  0  0
   49.3310    9.1006   14.5269 S   0  0  0  0  0  0  0  0  0  0  0  0
   51.0081    9.8970   14.5562 C   0  0  0  0  0  0  0  0  0  0  0  0
   48.2144    6.9827   12.4229 N   0  0  0  0  0  0  0  0  0  0  0  0
   52.7594   10.3091   12.7255 C   0  0  0  0  0  0  0  0  0  0  0  0
   46.9045    7.0373   12.8519 C   0  0  0  0  0  0  0  0  0  0  0  0
   51.1818    7.2532   11.2377 O   0  0  0  0  0  0  0  0  0  0  0  0
   52.6729   11.1795   11.8744 O   0  0  0  0  0  0  0  0  0  0  0  0
   46.2229    8.0515   12.7271 O   0  0  0  0  0  0  0  0  0  0  0  0
   46.3980    5.7660   13.5103 C   0  0  0  0  0  0  0  0  0  0  0  0
   53.9394   10.0829   13.3416 O   0  0  0  0  0  0  0  0  0  0  0  0
   50.8170   11.4181   14.6425 C   0  0  0  0  0  0  0  0  0  0  0  0
   51.7629    9.3907   15.7877 C   0  0  0  0  0  0  0  0  0  0  0  0
   45.2344    5.1468   12.7777 C   0  0  0  0  0  0  0  0  0  0  0  0
   45.4287    4.0719   11.8984 C   0  0  0  0  0  0  0  0  0  0  0  0
   43.9391    5.6525   12.9568 C   0  0  0  0  0  0  0  0  0  0  0  0
   42.8568    5.0836   12.2837 C   0  0  0  0  0  0  0  0  0  0  0  0
   44.3434    3.5037   11.2261 C   0  0  0  0  0  0  0  0  0  0  0  0
   43.0581    4.0078   11.4212 C   0  0  0  0  0  0  0  0  0  0  0  0
   47.5505    7.3690   12.1268 C   0  0  0  0  0  0  0  0  0  0  0  0
   46.2337    6.6771   12.1759 C   0  0  0  0  0  0  0  0  0  0  0  0
   47.7098    8.4841   11.6570 O   0  0  0  0  0  0  0  0  0  0  0  0
   45.1117    7.3495   11.6768 C   0  0  0  0  0  0  0  0  0  0  0  0
   46.0818    5.3802   12.6803 C   0  0  0  0  0  0  0  0  0  0  0  0
   48.5162    6.5958   12.6814 O   0  0  0  0  0  0  0  0  0  0  0  0
   43.6876    5.4677   12.2564 C   0  0  0  0  0  0  0  0  0  0  0  0
   51.3951    8.5709   14.1156 N   0  0  0  0  0  0  0  0  0  0  0  0
   42.4550    4.8146   12.1643 N   0  0  0  0  0  0  0  0  0  0  0  0
   43.8542    6.7376   11.6996 C   0  0  0  0  0  0  0  0  0  0  0  0
   44.8187    4.7772   12.6990 C   0  0  0  0  0  0  0  0  0  0  0  0
   49.8407    7.1629   12.6873 C   0  0  0  0  0  0  0  0  0  0  0  0
   50.0089    8.1266   13.8717 C   0  0  0  0  0  0  0  0  0  0  0  0
   51.5294    9.2129   15.4348 C   0  0  0  0  0  0  0  0  0  0  0  0
   51.9257    9.4129   13.0327 C   0  0  0  0  0  0  0  0  0  0  0  0
   50.7168   10.4871   15.6558 C   0  0  0  0  0  0  0  0  0  0  0  0
   52.8602    8.6085   12.1363 C   0  0  0  0  0  0  0  0  0  0  0  0
   49.0766    8.2228   13.4116 H   0  0  0  0  0  0  0  0  0  0  0  0
   47.7851    7.4933   13.0479 H   0  0  0  0  0  0  0  0  0  0  0  0
   48.7086   10.3195   12.4278 H   0  0  0  0  0  0  0  0  0  0  0  0
   48.3563    8.4385   10.8639 H   0  0  0  0  0  0  0  0  0  0  0  0
   52.0837    8.4084   13.3765 H   0  0  0  0  0  0  0  0  0  0  0  0
   48.7611    6.1436   12.5870 H   0  0  0  0  0  0  0  0  0  0  0  0
   46.1058    6.0153   14.5385 H   0  0  0  0  0  0  0  0  0  0  0  0
   47.2078    5.0318   13.6050 H   0  0  0  0  0  0  0  0  0  0  0  0
   54.5620   10.6943   12.8930 H   0  0  0  0  0  0  0  0  0  0  0  0
   51.7837   11.9294   14.7207 H   0  0  0  0  0  0  0  0  0  0  0  0
   50.2372   11.6999   15.5297 H   0  0  0  0  0  0  0  0  0  0  0  0
   50.3048   11.8269   13.7644 H   0  0  0  0  0  0  0  0  0  0  0  0
   51.8775    8.3013   15.7786 H   0  0  0  0  0  0  0  0  0  0  0  0
   51.2506    9.6671   16.7161 H   0  0  0  0  0  0  0  0  0  0  0  0
   52.7680    9.8233   15.8331 H   0  0  0  0  0  0  0  0  0  0  0  0
   46.4231    3.6645   11.7303 H   0  0  0  0  0  0  0  0  0  0  0  0
   43.7682    6.5024   13.6162 H   0  0  0  0  0  0  0  0  0  0  0  0
   41.8570    5.4852   12.4289 H   0  0  0  0  0  0  0  0  0  0  0  0
   44.5001    2.6673   10.5495 H   0  0  0  0  0  0  0  0  0  0  0  0
   42.2136    3.5661   10.8971 H   0  0  0  0  0  0  0  0  0  0  0  0
   45.2107    8.3481   11.2547 H   0  0  0  0  0  0  0  0  0  0  0  0
   46.9362    4.8172   13.0479 H   0  0  0  0  0  0  0  0  0  0  0  0
   42.3281    4.0685   12.8415 H   0  0  0  0  0  0  0  0  0  0  0  0
   41.6551    5.4382   12.1239 H   0  0  0  0  0  0  0  0  0  0  0  0
   43.0039    7.2649   11.2754 H   0  0  0  0  0  0  0  0  0  0  0  0
   44.7279    3.7575   13.0631 H   0  0  0  0  0  0  0  0  0  0  0  0
   50.0471    7.6454   11.7258 H   0  0  0  0  0  0  0  0  0  0  0  0
   50.5355    6.3221   12.7871 H   0  0  0  0  0  0  0  0  0  0  0  0
   49.6401    7.5991   14.7619 H   0  0  0  0  0  0  0  0  0  0  0  0
   49.3383    8.9841   13.7397 H   0  0  0  0  0  0  0  0  0  0  0  0
   52.5899    9.4335   15.6134 H   0  0  0  0  0  0  0  0  0  0  0  0
   51.2593    8.4860   16.2115 H   0  0  0  0  0  0  0  0  0  0  0  0
   52.5197   10.2445   13.4330 H   0  0  0  0  0  0  0  0  0  0  0  0
   51.1260    9.8718   12.4384 H   0  0  0  0  0  0  0  0  0  0  0  0
   50.9557   11.2564   14.9154 H   0  0  0  0  0  0  0  0  0  0  0  0
   50.9401   10.8991   16.6459 H   0  0  0  0  0  0  0  0  0  0  0  0
   49.6408   10.2926   15.6192 H   0  0  0  0  0  0  0  0  0  0  0  0
   53.7072    8.2135   12.7079 H   0  0  0  0  0  0  0  0  0  0  0  0
   52.3557    7.7661   11.6563 H   0  0  0  0  0  0  0  0  0  0  0  0
   53.2628    9.2499   11.3457 H   0  0  0  0  0  0  0  0  0  0  0  0
  3  2  1  0
  4  2  1  0
  5  4  1  0
  6  2  1  0
  3  7  1  0
  8  6  1  0
  5  9  1  0
  6 10  1  0
 11  9  1  0
 12  4  2  0
 13 10  2  0
 14 11  2  0
 15 11  1  0
 16 10  1  0
 17  8  1  0
 18  8  1  0
 19 15  1  0
 20 19  2  0
 21 19  1  0
 22 21  2  0
 23 20  1  0
 24 22  1  0
  7  8  1  0
  5  3  1  0
 24 23  2  0
 26 25  1  0
 27 25  2  0
 28 26  2  0
 29 26  1  0
 30 25  1  0
 31 35  1  0
 32 37  1  0
 33 31  1  0
 34 28  1  0
 35 29  2  0
 36 30  1  0
 37 36  1  0
 38 32  1  0
 39 32  1  0
 40 38  1  0
 41 39  1  0
 31 34  2  0
  1 42  1  0
  1 43  1  0
  3 44  1  6
  5 45  1  6
  6 46  1  1
  9 47  1  0
 15 48  1  0
 15 49  1  0
 16 50  1  0
 17 51  1  0
 17 52  1  0
 17 53  1  0
 18 54  1  0
 18 55  1  0
 18 56  1  0
 20 57  1  0
 21 58  1  0
 22 59  1  0
 23 60  1  0
 24 61  1  0
 28 62  1  0
 29 63  1  0
 33 64  1  0
 33 65  1  0
 34 66  1  0
 35 67  1  0
 36 68  1  0
 36 69  1  0
 37 70  1  0
 37 71  1  0
 38 72  1  0
 38 73  1  0
 39 74  1  0
 39 75  1  0
 40 76  1  0
 40 77  1  0
 40 78  1  0
 41 79  1  0
 41 80  1  0
 41 81  1  0
M  END
> <Uni-Dock RESULT> 
ENERGY=   -5.647  LOWER_BOUND=    0.000  UPPER_BOUND=    0.000
INTER + INTRA:          -5.647
INTER:                  -5.647
INTRA:                   0.000
UNBOUND:                 0.000

$$$$

     RDKit          3D

 81 82  0  0  0  0  0  0  0  0999 V2000
   48.2183    7.7285   13.9121 O   0  0  0  0  0  0  0  0  0  0  0  0
   49.9549    8.4845   15.7040 N   0  0  0  0  0  0  0  0  0  0  0  0
   49.8351    7.3275   14.7924 C   0  0  1  0  0  0  0  0  0  0  0  0
   48.6039    8.6960   15.7551 C   0  0  0  0  0  0  0  0  0  0  0  0
   48.3063    7.3610   15.0372 C   0  0  1  0  0  0  0  0  0  0  0  0
   50.8315    9.5837   15.2963 C   0  0  2  0  0  0  0  0  0  0  0  0
   50.4879    7.9755   13.1982 S   0  0  0  0  0  0  0  0  0  0  0  0
   51.6607    9.1052   14.0903 C   0  0  0  0  0  0  0  0  0  0  0  0
   47.4135    7.4459   13.8517 N   0  0  0  0  0  0  0  0  0  0  0  0
   51.6715   10.0533   16.4756 C   0  0  0  0  0  0  0  0  0  0  0  0
   47.2724    6.3719   12.9976 C   0  0  0  0  0  0  0  0  0  0  0  0
   47.9635    9.6617   16.1036 O   0  0  0  0  0  0  0  0  0  0  0  0
   51.9785    9.4136   17.4685 O   0  0  0  0  0  0  0  0  0  0  0  0
   47.8613    5.3107   13.1873 O   0  0  0  0  0  0  0  0  0  0  0  0
   46.3665    6.6231   11.8050 C   0  0  0  0  0  0  0  0  0  0  0  0
   52.1158   11.3194   16.3247 O   0  0  0  0  0  0  0  0  0  0  0  0
   52.9154    8.3012   14.4605 C   0  0  0  0  0  0  0  0  0  0  0  0
   52.0313   10.2567   13.1525 C   0  0  0  0  0  0  0  0  0  0  0  0
   45.1667    5.7101   11.7743 C   0  0  0  0  0  0  0  0  0  0  0  0
   43.9179    6.1487   12.2374 C   0  0  0  0  0  0  0  0  0  0  0  0
   45.2909    4.3990   11.2938 C   0  0  0  0  0  0  0  0  0  0  0  0
   44.1846    3.5485   11.2605 C   0  0  0  0  0  0  0  0  0  0  0  0
   42.8117    5.2956   12.2025 C   0  0  0  0  0  0  0  0  0  0  0  0
   42.9450    3.9974   11.7116 C   0  0  0  0  0  0  0  0  0  0  0  0
   47.4034    6.6331   13.9814 C   0  0  0  0  0  0  0  0  0  0  0  0
   46.4604    5.7907   13.1964 C   0  0  0  0  0  0  0  0  0  0  0  0
   48.1641    6.1873   14.8253 O   0  0  0  0  0  0  0  0  0  0  0  0
   46.4604    4.4088   13.4211 C   0  0  0  0  0  0  0  0  0  0  0  0
   45.5661    6.3289   12.2638 C   0  0  0  0  0  0  0  0  0  0  0  0
   47.2991    7.9340   13.6146 O   0  0  0  0  0  0  0  0  0  0  0  0
   44.7375    4.1034   11.7347 C   0  0  0  0  0  0  0  0  0  0  0  0
   50.4623    9.9179   14.1659 N   0  0  0  0  0  0  0  0  0  0  0  0
   43.7861    3.2867   11.1165 N   0  0  0  0  0  0  0  0  0  0  0  0
   45.5893    3.5781   12.7088 C   0  0  0  0  0  0  0  0  0  0  0  0
   44.6990    5.4886   11.5558 C   0  0  0  0  0  0  0  0  0  0  0  0
   48.1656    8.8491   14.3128 C   0  0  0  0  0  0  0  0  0  0  0  0
   49.5697    8.8432   13.6898 C   0  0  0  0  0  0  0  0  0  0  0  0
   51.6502   10.0509   13.3048 C   0  0  0  0  0  0  0  0  0  0  0  0
   50.8198    9.7787   15.5858 C   0  0  0  0  0  0  0  0  0  0  0  0
   52.5780    8.8397   13.2358 C   0  0  0  0  0  0  0  0  0  0  0  0
   50.0070   10.7443   16.4408 C   0  0  0  0  0  0  0  0  0  0  0  0
   49.1622    7.8844   13.7580 H   0  0  0  0  0  0  0  0  0  0  0  0
   48.0037    6.9888   13.3240 H   0  0  0  0  0  0  0  0  0  0  0  0
   50.3493    6.4401   15.1738 H   0  0  0  0  0  0  0  0  0  0  0  0
   47.9485    6.5966   15.7391 H   0  0  0  0  0  0  0  0  0  0  0  0
   50.1864   10.4264   15.0098 H   0  0  0  0  0  0  0  0  0  0  0  0
   46.9496    8.3223   13.6359 H   0  0  0  0  0  0  0  0  0  0  0  0
   46.9657    6.4880   10.8954 H   0  0  0  0  0  0  0  0  0  0  0  0
   46.0354    7.6690   11.7858 H   0  0  0  0  0  0  0  0  0  0  0  0
   52.6018   11.5008   17.1575 H   0  0  0  0  0  0  0  0  0  0  0  0
   53.6636    8.9434   14.9400 H   0  0  0  0  0  0  0  0  0  0  0  0
   53.3917    7.8692   13.5721 H   0  0  0  0  0  0  0  0  0  0  0  0
   52.6988    7.4823   15.1555 H   0  0  0  0  0  0  0  0  0  0  0  0
   51.1505   10.8247   12.8336 H   0  0  0  0  0  0  0  0  0  0  0  0
   52.5420    9.8953   12.2529 H   0  0  0  0  0  0  0  0  0  0  0  0
   52.7097   10.9592   13.6480 H   0  0  0  0  0  0  0  0  0  0  0  0
   43.7924    7.1568   12.6260 H   0  0  0  0  0  0  0  0  0  0  0  0
   46.2566    4.0291   10.9517 H   0  0  0  0  0  0  0  0  0  0  0  0
   44.2931    2.5331   10.8874 H   0  0  0  0  0  0  0  0  0  0  0  0
   41.8451    5.6434   12.5584 H   0  0  0  0  0  0  0  0  0  0  0  0
   42.0841    3.3331   11.6854 H   0  0  0  0  0  0  0  0  0  0  0  0
   47.1280    3.9711   14.1613 H   0  0  0  0  0  0  0  0  0  0  0  0
   45.5178    7.4005   12.0860 H   0  0  0  0  0  0  0  0  0  0  0  0
   43.4395    3.6477   10.2328 H   0  0  0  0  0  0  0  0  0  0  0  0
   44.0530    2.3092   11.0553 H   0  0  0  0  0  0  0  0  0  0  0  0
   45.5827    2.5129   12.9245 H   0  0  0  0  0  0  0  0  0  0  0  0
   43.9891    5.9297   10.8614 H   0  0  0  0  0  0  0  0  0  0  0  0
   48.1836    8.6084   15.3814 H   0  0  0  0  0  0  0  0  0  0  0  0
   47.7140    9.8415   14.2086 H   0  0  0  0  0  0  0  0  0  0  0  0
   49.4334    8.9455   12.6046 H   0  0  0  0  0  0  0  0  0  0  0  0
   50.0275    7.8576   13.8366 H   0  0  0  0  0  0  0  0  0  0  0  0
   52.2296   10.9229   13.6352 H   0  0  0  0  0  0  0  0  0  0  0  0
   51.3236   10.3004   12.2870 H   0  0  0  0  0  0  0  0  0  0  0  0
   51.8752   10.0284   15.7544 H   0  0  0  0  0  0  0  0  0  0  0  0
   50.6920    8.7498   15.9437 H   0  0  0  0  0  0  0  0  0  0  0  0
   52.9478    8.5527   14.2248 H   0  0  0  0  0  0  0  0  0  0  0  0
   53.4474    9.0768   12.6129 H   0  0  0  0  0  0  0  0  0  0  0  0
   52.0818    7.9745   12.7865 H   0  0  0  0  0  0  0  0  0  0  0  0
   50.1915   11.7821   16.1425 H   0  0  0  0  0  0  0  0  0  0  0  0
   48.9319   10.5599   16.3715 H   0  0  0  0  0  0  0  0  0  0  0  0
   50.2947   10.6445   17.4924 H   0  0  0  0  0  0  0  0  0  0  0  0
  3  2  1  0
  4  2  1  0
  5  4  1  0
  6  2  1  0
  3  7  1  0
  8  6  1  0
  5  9  1  0
  6 10  1  0
 11  9  1  0
 12  4  2  0
 13 10  2  0
 14 11  2  0
 15 11  1  0
 16 10  1  0
 17  8  1  0
 18  8  1  0
 19 15  1  0
 20 19  2  0
 21 19  1  0
 22 21  2  0
 23 20  1  0
 24 22  1  0
  7  8  1  0
  5  3  1  0
 24 23  2  0
 26 25  1  0
 27 25  2  0
 28 26  2  0
 29 26  1  0
 30 25  1  0
 31 35  1  0
 32 37  1  0
 33 31  1  0
 34 28  1  0
 35 29  2  0
 36 30  1  0
 37 36  1  0
 38 32  1  0
 39 32  1  0
 40 38  1  0
 41 39  1  0
 31 34  2  0
  1 42  1  0
  1 43  1  0
  3 44  1  6
  5 45  1  6
  6 46  1  1
  9 47  1  0
 15 48  1  0
 15 49  1  0
 16 50  1  0
 17 51  1  0
 17 52  1  0
 17 53  1  0
 18 54  1  0
 18 55  1  0
 18 56  1  0
 20 57  1  0
 21 58  1  0
 22 59  1  0
 23 60  1  0
 24 61  1  0
 28 62  1  0
 29 63  1  0
 33 64  1  0
 33 65  1  0
 34 66  1  0
 35 67  1  0
 36 68  1  0
 36 69  1  0
 37 70  1  0
 37 71  1  0
 38 72  1  0
 38 73  1  0
 39 74  1  0
 39 75  1  0
 40 76  1  0
 40 77  1  0
 40 78  1  0
 41 79  1  0
 41 80  1  0
 41 81  1  0
M  END
> <Uni-Dock RESULT> 
ENERGY=   -5.550  LOWER_BOUND=    1.698  UPPER_BOUND=    2.997
INTER + INTRA:          -5.550
INTER:                  -5.550
INTRA:                   0.000
UNBOUND:                 0.000

$$$$

     RDKit          3D

 81 82  0  0  0  0  0  0  0  0999 V2000
   43.7957    9.9181   10.7607 O   0  0  0  0  0  0  0  0  0  0  0  0
   42.5158   12.1851   10.6182 N   0  0  0  0  0  0  0  0  0  0  0  0
   43.9320   11.7971   10.7841 C   0  0  1  0  0  0  0  0  0  0  0  0
   42.0422   11.0288   11.1761 C   0  0  0  0  0  0  0  0  0  0  0  0
   43.4497   10.6132   11.6582 C   0  0  1  0  0  0  0  0  0  0  0  0
   42.0666   12.5631    9.2772 C   0  0  2  0  0  0  0  0  0  0  0  0
   44.4817   11.4552    9.0612 S   0  0  0  0  0  0  0  0  0  0  0  0
   43.3143   12.7342    8.3911 C   0  0  0  0  0  0  0  0  0  0  0  0
   43.8883    9.2444   11.2791 N   0  0  0  0  0  0  0  0  0  0  0  0
   41.1840   13.8013    9.3462 C   0  0  0  0  0  0  0  0  0  0  0  0
   45.2015    8.8548   11.4425 C   0  0  0  0  0  0  0  0  0  0  0  0
   40.9477   10.5149   11.1308 O   0  0  0  0  0  0  0  0  0  0  0  0
   41.1741   14.6570   10.2162 O   0  0  0  0  0  0  0  0  0  0  0  0
   46.0479    9.6096   11.9143 O   0  0  0  0  0  0  0  0  0  0  0  0
   45.5104    7.4465   10.9658 C   0  0  0  0  0  0  0  0  0  0  0  0
   40.3656   13.9154    8.2783 O   0  0  0  0  0  0  0  0  0  0  0  0
   43.9900   14.1085    8.5036 C   0  0  0  0  0  0  0  0  0  0  0  0
   43.0282   12.4070    6.9236 C   0  0  0  0  0  0  0  0  0  0  0  0
   46.0012    6.5452   12.0707 C   0  0  0  0  0  0  0  0  0  0  0  0
   45.1304    5.6492   12.7074 C   0  0  0  0  0  0  0  0  0  0  0  0
   47.3386    6.6046   12.4871 C   0  0  0  0  0  0  0  0  0  0  0  0
   47.8008    5.7724   13.5078 C   0  0  0  0  0  0  0  0  0  0  0  0
   45.5957    4.8167   13.7287 C   0  0  0  0  0  0  0  0  0  0  0  0
   46.9307    4.8766   14.1262 C   0  0  0  0  0  0  0  0  0  0  0  0
   44.4511    9.4220   11.8530 C   0  0  0  0  0  0  0  0  0  0  0  0
   45.3771    8.3498   12.3089 C   0  0  0  0  0  0  0  0  0  0  0  0
   44.4681   10.5603   12.2928 O   0  0  0  0  0  0  0  0  0  0  0  0
   46.3350    8.6683   13.2790 C   0  0  0  0  0  0  0  0  0  0  0  0
   45.3114    7.0392   11.8215 C   0  0  0  0  0  0  0  0  0  0  0  0
   43.6181    8.9551   10.8907 O   0  0  0  0  0  0  0  0  0  0  0  0
   47.2017    6.3990   13.2130 C   0  0  0  0  0  0  0  0  0  0  0  0
   42.3843   11.6307    8.5317 N   0  0  0  0  0  0  0  0  0  0  0  0
   48.0089    5.3996   13.7644 N   0  0  0  0  0  0  0  0  0  0  0  0
   47.2244    7.6922   13.7398 C   0  0  0  0  0  0  0  0  0  0  0  0
   46.2067    6.0700   12.2889 C   0  0  0  0  0  0  0  0  0  0  0  0
   42.6695    9.9078   10.3727 C   0  0  0  0  0  0  0  0  0  0  0  0
   43.3242   10.7913    9.3000 C   0  0  0  0  0  0  0  0  0  0  0  0
   43.0236   12.1897    7.3279 C   0  0  0  0  0  0  0  0  0  0  0  0
   41.7425   12.6695    9.3515 C   0  0  0  0  0  0  0  0  0  0  0  0
   44.2081   13.1254    7.5603 C   0  0  0  0  0  0  0  0  0  0  0  0
   40.3184   12.2635    9.7138 C   0  0  0  0  0  0  0  0  0  0  0  0
   43.9562   10.6212   10.1135 H   0  0  0  0  0  0  0  0  0  0  0  0
   44.6760    9.5498   10.9299 H   0  0  0  0  0  0  0  0  0  0  0  0
   44.5150   12.5588   11.3107 H   0  0  0  0  0  0  0  0  0  0  0  0
   43.5706   10.7752   12.7372 H   0  0  0  0  0  0  0  0  0  0  0  0
   41.4369   11.7443    8.9011 H   0  0  0  0  0  0  0  0  0  0  0  0
   43.2281    8.6105   10.8408 H   0  0  0  0  0  0  0  0  0  0  0  0
   46.2683    7.5197   10.1752 H   0  0  0  0  0  0  0  0  0  0  0  0
   44.6299    6.9993   10.4879 H   0  0  0  0  0  0  0  0  0  0  0  0
   39.8387   14.7208    8.4686 H   0  0  0  0  0  0  0  0  0  0  0  0
   43.3592   14.8910    8.0657 H   0  0  0  0  0  0  0  0  0  0  0  0
   44.9441   14.1318    7.9633 H   0  0  0  0  0  0  0  0  0  0  0  0
   44.1869   14.3953    9.5426 H   0  0  0  0  0  0  0  0  0  0  0  0
   42.5852   11.4121    6.8047 H   0  0  0  0  0  0  0  0  0  0  0  0
   43.9402   12.4436    6.3173 H   0  0  0  0  0  0  0  0  0  0  0  0
   42.3262   13.1293    6.4936 H   0  0  0  0  0  0  0  0  0  0  0  0
   44.0848    5.5877   12.4140 H   0  0  0  0  0  0  0  0  0  0  0  0
   48.0268    7.3101   12.0233 H   0  0  0  0  0  0  0  0  0  0  0  0
   48.8395    5.8284   13.8237 H   0  0  0  0  0  0  0  0  0  0  0  0
   44.9166    4.1207   14.2149 H   0  0  0  0  0  0  0  0  0  0  0  0
   47.2925    4.2292   14.9219 H   0  0  0  0  0  0  0  0  0  0  0  0
   46.3868    9.6741   13.6924 H   0  0  0  0  0  0  0  0  0  0  0  0
   44.5607    6.7493   11.0903 H   0  0  0  0  0  0  0  0  0  0  0  0
   48.1668    4.6065   13.1500 H   0  0  0  0  0  0  0  0  0  0  0  0
   48.8691    5.7415   14.1809 H   0  0  0  0  0  0  0  0  0  0  0  0
   47.9367    7.9535   14.5179 H   0  0  0  0  0  0  0  0  0  0  0  0
   46.1169    5.0509   11.9230 H   0  0  0  0  0  0  0  0  0  0  0  0
   42.2420   10.4960   11.1920 H   0  0  0  0  0  0  0  0  0  0  0  0
   41.8557    9.3232    9.9305 H   0  0  0  0  0  0  0  0  0  0  0  0
   43.8461   10.1144    8.6098 H   0  0  0  0  0  0  0  0  0  0  0  0
   44.1092   11.4016    9.7624 H   0  0  0  0  0  0  0  0  0  0  0  0
   42.2637   12.7194    6.7386 H   0  0  0  0  0  0  0  0  0  0  0  0
   43.3513   11.3629    6.6847 H   0  0  0  0  0  0  0  0  0  0  0  0
   41.6644   13.6159    8.8011 H   0  0  0  0  0  0  0  0  0  0  0  0
   42.3188   12.8938   10.2574 H   0  0  0  0  0  0  0  0  0  0  0  0
   43.9355   13.9801    8.1867 H   0  0  0  0  0  0  0  0  0  0  0  0
   44.5616   13.5173    6.6004 H   0  0  0  0  0  0  0  0  0  0  0  0
   45.0487   12.6057    8.0293 H   0  0  0  0  0  0  0  0  0  0  0  0
   39.7122   12.1162    8.8133 H   0  0  0  0  0  0  0  0  0  0  0  0
   40.2833   11.3405   10.2982 H   0  0  0  0  0  0  0  0  0  0  0  0
   39.8452   13.0519   10.3079 H   0  0  0  0  0  0  0  0  0  0  0  0
  3  2  1  0
  4  2  1  0
  5  4  1  0
  6  2  1  0
  3  7  1  0
  8  6  1  0
  5  9  1  0
  6 10  1  0
 11  9  1  0
 12  4  2  0
 13 10  2  0
 14 11  2  0
 15 11  1  0
 16 10  1  0
 17  8  1  0
 18  8  1  0
 19 15  1  0
 20 19  2  0
 21 19  1  0
 22 21  2  0
 23 20  1  0
 24 22  1  0
  7  8  1  0
  5  3  1  0
 24 23  2  0
 26 25  1  0
 27 25  2  0
 28 26  2  0
 29 26  1  0
 30 25  1  0
 31 35  1  0
 32 37  1  0
 33 31  1  0
 34 28  1  0
 35 29  2  0
 36 30  1  0
 37 36  1  0
 38 32  1  0
 39 32  1  0
 40 38  1  0
 41 39  1  0
 31 34  2  0
  1 42  1  0
  1 43  1  0
  3 44  1  6
  5 45  1  6
  6 46  1  1
  9 47  1  0
 15 48  1  0
 15 49  1  0
 16 50  1  0
 17 51  1  0
 17 52  1  0
 17 53  1  0
 18 54  1  0
 18 55  1  0
 18 56  1  0
 20 57  1  0
 21 58  1  0
 22 59  1  0
 23 60  1  0
 24 61  1  0
 28 62  1  0
 29 63  1  0
 33 64  1  0
 33 65  1  0
 34 66  1  0
 35 67  1  0
 36 68  1  0
 36 69  1  0
 37 70  1  0
 37 71  1  0
 38 72  1  0
 38 73  1  0
 39 74  1  0
 39 75  1  0
 40 76  1  0
 40 77  1  0
 40 78  1  0
 41 79  1  0
 41 80  1  0
 41 81  1  0
M  END
> <Uni-Dock RESULT> 
ENERGY=   -5.515  LOWER_BOUND=    4.934  UPPER_BOUND=    7.864
INTER + INTRA:          -5.515
INTER:                  -5.515
INTRA:                   0.000
UNBOUND:                 0.000

$$$$

     RDKit          3D

 81 82  0  0  0  0  0  0  0  0999 V2000
   48.2523    8.1856   12.3745 O   0  0  0  0  0  0  0  0  0  0  0  0
   50.0777    9.5186   13.6742 N   0  0  0  0  0  0  0  0  0  0  0  0
   49.8384    8.0890   13.3868 C   0  0  1  0  0  0  0  0  0  0  0  0
   48.7528    9.8490   13.5845 C   0  0  0  0  0  0  0  0  0  0  0  0
   48.3231    8.3657   13.5454 C   0  0  1  0  0  0  0  0  0  0  0  0
   51.0455   10.2283   12.8359 C   0  0  2  0  0  0  0  0  0  0  0  0
   50.5241    7.8775   11.6920 S   0  0  0  0  0  0  0  0  0  0  0  0
   51.8090    9.1809   12.0047 C   0  0  0  0  0  0  0  0  0  0  0  0
   47.4242    7.9791   12.4263 N   0  0  0  0  0  0  0  0  0  0  0  0
   51.9426   11.1077   13.6953 C   0  0  0  0  0  0  0  0  0  0  0  0
   47.1723    6.6510   12.1517 C   0  0  0  0  0  0  0  0  0  0  0  0
   48.2092   10.9198   13.4363 O   0  0  0  0  0  0  0  0  0  0  0  0
   52.2043   10.9671   14.8790 O   0  0  0  0  0  0  0  0  0  0  0  0
   47.6638    5.7458   12.8209 O   0  0  0  0  0  0  0  0  0  0  0  0
   46.2756    6.4096   10.9501 C   0  0  0  0  0  0  0  0  0  0  0  0
   52.4991   12.1206   12.9970 O   0  0  0  0  0  0  0  0  0  0  0  0
   52.9899    8.5267   12.7363 C   0  0  0  0  0  0  0  0  0  0  0  0
   52.2698    9.7397   10.6563 C   0  0  0  0  0  0  0  0  0  0  0  0
   44.9966    5.6935   11.3043 C   0  0  0  0  0  0  0  0  0  0  0  0
   43.8004    6.4038   11.4807 C   0  0  0  0  0  0  0  0  0  0  0  0
   44.9925    4.3023   11.4777 C   0  0  0  0  0  0  0  0  0  0  0  0
   43.8124    3.6321   11.8038 C   0  0  0  0  0  0  0  0  0  0  0  0
   42.6201    5.7305   11.8065 C   0  0  0  0  0  0  0  0  0  0  0  0
   42.6261    4.3452   11.9650 C   0  0  0  0  0  0  0  0  0  0  0  0
   47.3414    7.3195   12.9118 C   0  0  0  0  0  0  0  0  0  0  0  0
   46.3133    6.2990   12.5700 C   0  0  0  0  0  0  0  0  0  0  0  0
   48.0704    7.2424   13.8875 O   0  0  0  0  0  0  0  0  0  0  0  0
   46.1896    5.1780   13.3995 C   0  0  0  0  0  0  0  0  0  0  0  0
   45.4584    6.4293   11.4694 C   0  0  0  0  0  0  0  0  0  0  0  0
   47.3516    8.3132   11.9897 O   0  0  0  0  0  0  0  0  0  0  0  0
   44.4210    4.2908   11.9888 C   0  0  0  0  0  0  0  0  0  0  0  0
   50.6917   10.0412   11.6672 N   0  0  0  0  0  0  0  0  0  0  0  0
   43.3894    3.3699   11.7835 N   0  0  0  0  0  0  0  0  0  0  0  0
   45.2353    4.1946   13.1192 C   0  0  0  0  0  0  0  0  0  0  0  0
   44.5072    5.4390   11.1974 C   0  0  0  0  0  0  0  0  0  0  0  0
   48.3089    9.3653   12.2190 C   0  0  0  0  0  0  0  0  0  0  0  0
   49.6971    8.9515   11.7077 C   0  0  0  0  0  0  0  0  0  0  0  0
   51.8738    9.6608   10.8746 C   0  0  0  0  0  0  0  0  0  0  0  0
   51.0560   10.5341   13.0042 C   0  0  0  0  0  0  0  0  0  0  0  0
   52.6852    8.4747   11.3917 C   0  0  0  0  0  0  0  0  0  0  0  0
   50.3483   11.8511   13.3018 C   0  0  0  0  0  0  0  0  0  0  0  0
   49.2042    8.1697   12.1934 H   0  0  0  0  0  0  0  0  0  0  0  0
   47.9619    7.2814   12.1821 H   0  0  0  0  0  0  0  0  0  0  0  0
   50.2746    7.4316   14.1452 H   0  0  0  0  0  0  0  0  0  0  0  0
   47.9070    8.0408   14.5079 H   0  0  0  0  0  0  0  0  0  0  0  0
   50.4763   10.9009   12.1786 H   0  0  0  0  0  0  0  0  0  0  0  0
   47.0396    8.6978   11.8218 H   0  0  0  0  0  0  0  0  0  0  0  0
   46.8462    5.8218   10.2196 H   0  0  0  0  0  0  0  0  0  0  0  0
   46.0417    7.3562   10.4471 H   0  0  0  0  0  0  0  0  0  0  0  0
   53.0121   12.6180   13.6693 H   0  0  0  0  0  0  0  0  0  0  0  0
   53.8010    9.2479   12.8918 H   0  0  0  0  0  0  0  0  0  0  0  0
   53.4111    7.6968   12.1564 H   0  0  0  0  0  0  0  0  0  0  0  0
   52.7094    8.1380   13.7216 H   0  0  0  0  0  0  0  0  0  0  0  0
   51.4403   10.1753   10.0885 H   0  0  0  0  0  0  0  0  0  0  0  0
   52.7317    8.9641   10.0352 H   0  0  0  0  0  0  0  0  0  0  0  0
   53.0173   10.5278   10.7966 H   0  0  0  0  0  0  0  0  0  0  0  0
   43.7739    7.4848   11.3636 H   0  0  0  0  0  0  0  0  0  0  0  0
   45.9149    3.7332   11.3695 H   0  0  0  0  0  0  0  0  0  0  0  0
   43.8215    2.5532   11.9375 H   0  0  0  0  0  0  0  0  0  0  0  0
   41.6950    6.2864   11.9370 H   0  0  0  0  0  0  0  0  0  0  0  0
   41.7076    3.8213   12.2196 H   0  0  0  0  0  0  0  0  0  0  0  0
   46.8252    5.0690   14.2766 H   0  0  0  0  0  0  0  0  0  0  0  0
   45.5061    7.3013   10.8216 H   0  0  0  0  0  0  0  0  0  0  0  0
   43.0643    3.3170   10.8228 H   0  0  0  0  0  0  0  0  0  0  0  0
   43.5643    2.4528   12.1820 H   0  0  0  0  0  0  0  0  0  0  0  0
   45.1341    3.3505   13.7962 H   0  0  0  0  0  0  0  0  0  0  0  0
   43.8306    5.5757   10.3583 H   0  0  0  0  0  0  0  0  0  0  0  0
   48.3206    9.6381   13.2798 H   0  0  0  0  0  0  0  0  0  0  0  0
   47.9489   10.2365   11.6612 H   0  0  0  0  0  0  0  0  0  0  0  0
   49.5545    8.5590   10.6916 H   0  0  0  0  0  0  0  0  0  0  0  0
   50.0645    8.1052   12.3004 H   0  0  0  0  0  0  0  0  0  0  0  0
   52.5358   10.5323   10.7880 H   0  0  0  0  0  0  0  0  0  0  0  0
   51.5564    9.4463    9.8460 H   0  0  0  0  0  0  0  0  0  0  0  0
   52.1323   10.7386   13.0708 H   0  0  0  0  0  0  0  0  0  0  0  0
   50.8396    9.7976   13.7878 H   0  0  0  0  0  0  0  0  0  0  0  0
   53.0417    8.6390   12.4130 H   0  0  0  0  0  0  0  0  0  0  0  0
   53.5633    8.3234   10.7544 H   0  0  0  0  0  0  0  0  0  0  0  0
   52.1048    7.5476   11.3719 H   0  0  0  0  0  0  0  0  0  0  0  0
   50.6230   12.6176   12.5688 H   0  0  0  0  0  0  0  0  0  0  0  0
   49.2599   11.7515   13.2932 H   0  0  0  0  0  0  0  0  0  0  0  0
   50.6413   12.2171   14.2912 H   0  0  0  0  0  0  0  0  0  0  0  0
  3  2  1  0
  4  2  1  0
  5  4  1  0
  6  2  1  0
  3  7  1  0
  8  6  1  0
  5  9  1  0
  6 10  1  0
 11  9  1  0
 12  4  2  0
 13 10  2  0
 14 11  2  0
 15 11  1  0
 16 10  1  0
 17  8  1  0
 18  8  1  0
 19 15  1  0
 20 19  2  0
 21 19  1  0
 22 21  2  0
 23 20  1  0
 24 22  1  0
  7  8  1  0
  5  3  1  0
 24 23  2  0
 26 25  1  0
 27 25  2  0
 28 26  2  0
 29 26  1  0
 30 25  1  0
 31 35  1  0
 32 37  1  0
 33 31  1  0
 34 28  1  0
 35 29  2  0
 36 30  1  0
 37 36  1  0
 38 32  1  0
 39 32  1  0
 40 38  1  0
 41 39  1  0
 31 34  2  0
  1 42  1  0
  1 43  1  0
  3 44  1  6
  5 45  1  6
  6 46  1  1
  9 47  1  0
 15 48  1  0
 15 49  1  0
 16 50  1  0
 17 51  1  0
 17 52  1  0
 17 53  1  0
 18 54  1  0
 18 55  1  0
 18 56  1  0
 20 57  1  0
 21 58  1  0
 22 59  1  0
 23 60  1  0
 24 61  1  0
 28 62  1  0
 29 63  1  0
 33 64  1  0
 33 65  1  0
 34 66  1  0
 35 67  1  0
 36 68  1  0
 36 69  1  0
 37 70  1  0
 37 71  1  0
 38 72  1  0
 38 73  1  0
 39 74  1  0
 39 75  1  0
 40 76  1  0
 40 77  1  0
 40 78  1  0
 41 79  1  0
 41 80  1  0
 41 81  1  0
M  END
> <Uni-Dock RESULT> 
ENERGY=   -5.489  LOWER_BOUND=    1.478  UPPER_BOUND=    2.719
INTER + INTRA:          -5.489
INTER:                  -5.489
INTRA:                   0.000
UNBOUND:                 0.000

$$$$

     RDKit          3D

 81 82  0  0  0  0  0  0  0  0999 V2000
   48.5735    8.3588   16.7376 O   0  0  0  0  0  0  0  0  0  0  0  0
   49.7828    9.4663   14.7105 N   0  0  0  0  0  0  0  0  0  0  0  0
   49.8082    8.1266   15.3336 C   0  0  1  0  0  0  0  0  0  0  0  0
   49.4180   10.0952   15.8698 C   0  0  0  0  0  0  0  0  0  0  0  0
   49.6656    8.8226   16.7096 C   0  0  1  0  0  0  0  0  0  0  0  0
   48.9572    9.6449   13.5149 C   0  0  2  0  0  0  0  0  0  0  0  0
   48.3352    7.2946   14.6086 S   0  0  0  0  0  0  0  0  0  0  0  0
   48.5223    8.2504   13.0277 C   0  0  0  0  0  0  0  0  0  0  0  0
   48.5465    8.3983   17.5913 N   0  0  0  0  0  0  0  0  0  0  0  0
   49.7104   10.4564   12.4704 C   0  0  0  0  0  0  0  0  0  0  0  0
   48.5583    7.1594   18.1979 C   0  0  0  0  0  0  0  0  0  0  0  0
   48.9405   11.1900   16.0635 O   0  0  0  0  0  0  0  0  0  0  0  0
   50.9194   10.5763   12.3551 O   0  0  0  0  0  0  0  0  0  0  0  0
   49.4887    6.3720   18.0463 O   0  0  0  0  0  0  0  0  0  0  0  0
   47.3261    6.8469   19.0287 C   0  0  0  0  0  0  0  0  0  0  0  0
   48.8853   11.0614   11.5892 O   0  0  0  0  0  0  0  0  0  0  0  0
   49.5579    7.5320   12.1508 C   0  0  0  0  0  0  0  0  0  0  0  0
   47.1659    8.2846   12.3193 C   0  0  0  0  0  0  0  0  0  0  0  0
   47.6414    6.6135   20.4847 C   0  0  0  0  0  0  0  0  0  0  0  0
   47.4618    7.6325   21.4312 C   0  0  0  0  0  0  0  0  0  0  0  0
   48.1356    5.3719   20.9087 C   0  0  0  0  0  0  0  0  0  0  0  0
   48.4280    5.1476   22.2549 C   0  0  0  0  0  0  0  0  0  0  0  0
   47.7546    7.4052   22.7785 C   0  0  0  0  0  0  0  0  0  0  0  0
   48.2347    6.1625   23.1899 C   0  0  0  0  0  0  0  0  0  0  0  0
   49.1556    7.9393   17.9011 C   0  0  0  0  0  0  0  0  0  0  0  0
   48.9128    7.1708   19.1522 C   0  0  0  0  0  0  0  0  0  0  0  0
   50.2208    7.9398   17.3054 O   0  0  0  0  0  0  0  0  0  0  0  0
   49.9549    6.3876   19.6628 C   0  0  0  0  0  0  0  0  0  0  0  0
   47.6960    7.2190   19.8426 C   0  0  0  0  0  0  0  0  0  0  0  0
   48.0375    8.6094   17.5286 O   0  0  0  0  0  0  0  0  0  0  0  0
   48.5423    5.6485   21.4969 C   0  0  0  0  0  0  0  0  0  0  0  0
   47.8260    9.2494   13.8149 N   0  0  0  0  0  0  0  0  0  0  0  0
   48.4064    5.0099   22.7330 N   0  0  0  0  0  0  0  0  0  0  0  0
   49.7735    5.6506   20.8376 C   0  0  0  0  0  0  0  0  0  0  0  0
   47.5247    6.4770   21.0171 C   0  0  0  0  0  0  0  0  0  0  0  0
   48.1542    9.3955   16.3269 C   0  0  0  0  0  0  0  0  0  0  0  0
   47.9715    8.5108   15.0844 C   0  0  0  0  0  0  0  0  0  0  0  0
   47.3341    8.3739   12.7370 C   0  0  0  0  0  0  0  0  0  0  0  0
   49.0482    9.9708   13.4287 C   0  0  0  0  0  0  0  0  0  0  0  0
   48.2334    7.2014   12.3507 C   0  0  0  0  0  0  0  0  0  0  0  0
   48.9156   11.4569   13.7419 C   0  0  0  0  0  0  0  0  0  0  0  0
   48.5476    8.0461   15.8208 H   0  0  0  0  0  0  0  0  0  0  0  0
   48.5582    7.5450   17.2635 H   0  0  0  0  0  0  0  0  0  0  0  0
   50.7574    7.6074   15.1695 H   0  0  0  0  0  0  0  0  0  0  0  0
   50.6031    8.8896   17.2767 H   0  0  0  0  0  0  0  0  0  0  0  0
   48.0812   10.2402   13.8092 H   0  0  0  0  0  0  0  0  0  0  0  0
   47.7383    9.0022   17.7004 H   0  0  0  0  0  0  0  0  0  0  0  0
   46.8501    5.9561   18.5991 H   0  0  0  0  0  0  0  0  0  0  0  0
   46.5844    7.6500   18.9354 H   0  0  0  0  0  0  0  0  0  0  0  0
   49.4908   11.5691   11.0078 H   0  0  0  0  0  0  0  0  0  0  0  0
   49.6598    8.0298   11.1792 H   0  0  0  0  0  0  0  0  0  0  0  0
   49.2610    6.4963   11.9462 H   0  0  0  0  0  0  0  0  0  0  0  0
   50.5529    7.5104   12.6092 H   0  0  0  0  0  0  0  0  0  0  0  0
   46.3924    8.7526   12.9381 H   0  0  0  0  0  0  0  0  0  0  0  0
   46.8229    7.2775   12.0569 H   0  0  0  0  0  0  0  0  0  0  0  0
   47.2278    8.8570   11.3877 H   0  0  0  0  0  0  0  0  0  0  0  0
   47.0901    8.6097   21.1315 H   0  0  0  0  0  0  0  0  0  0  0  0
   48.3059    4.5739   20.1872 H   0  0  0  0  0  0  0  0  0  0  0  0
   48.8125    4.1813   22.5718 H   0  0  0  0  0  0  0  0  0  0  0  0
   47.6085    8.1978   23.5081 H   0  0  0  0  0  0  0  0  0  0  0  0
   48.4636    5.9861   24.2385 H   0  0  0  0  0  0  0  0  0  0  0  0
   50.9188    6.3563   19.1578 H   0  0  0  0  0  0  0  0  0  0  0  0
   46.8756    7.8402   19.4914 H   0  0  0  0  0  0  0  0  0  0  0  0
   47.4475    4.7873   22.9829 H   0  0  0  0  0  0  0  0  0  0  0  0
   49.0319    4.2214   22.8656 H   0  0  0  0  0  0  0  0  0  0  0  0
   50.6072    5.0771   21.2339 H   0  0  0  0  0  0  0  0  0  0  0  0
   46.5845    6.5549   21.5561 H   0  0  0  0  0  0  0  0  0  0  0  0
   49.1098    9.9309   16.3193 H   0  0  0  0  0  0  0  0  0  0  0  0
   47.3586   10.1469   16.3716 H   0  0  0  0  0  0  0  0  0  0  0  0
   47.0672    7.9107   15.2551 H   0  0  0  0  0  0  0  0  0  0  0  0
   48.7959    7.7898   15.0281 H   0  0  0  0  0  0  0  0  0  0  0  0
   47.1455    8.9849   11.8446 H   0  0  0  0  0  0  0  0  0  0  0  0
   46.3494    7.9812   13.0214 H   0  0  0  0  0  0  0  0  0  0  0  0
   49.2268    9.8965   12.3484 H   0  0  0  0  0  0  0  0  0  0  0  0
   49.9413    9.5559   13.9117 H   0  0  0  0  0  0  0  0  0  0  0  0
   49.2289    7.5354   12.0432 H   0  0  0  0  0  0  0  0  0  0  0  0
   47.7904    6.6597   11.5079 H   0  0  0  0  0  0  0  0  0  0  0  0
   48.3453    6.4888   13.1732 H   0  0  0  0  0  0  0  0  0  0  0  0
   48.0727   11.8979   13.1986 H   0  0  0  0  0  0  0  0  0  0  0  0
   48.7660   11.6472   14.8078 H   0  0  0  0  0  0  0  0  0  0  0  0
   49.8233   11.9857   13.4335 H   0  0  0  0  0  0  0  0  0  0  0  0
  3  2  1  0
  4  2  1  0
  5  4  1  0
  6  2  1  0
  3  7  1  0
  8  6  1  0
  5  9  1  0
  6 10  1  0
 11  9  1  0
 12  4  2  0
 13 10  2  0
 14 11  2  0
 15 11  1  0
 16 10  1  0
 17  8  1  0
 18  8  1  0
 19 15  1  0
 20 19  2  0
 21 19  1  0
 22 21  2  0
 23 20  1  0
 24 22  1  0
  7  8  1  0
  5  3  1  0
 24 23  2  0
 26 25  1  0
 27 25  2  0
 28 26  2  0
 29 26  1  0
 30 25  1  0
 31 35  1  0
 32 37  1  0
 33 31  1  0
 34 28  1  0
 35 29  2  0
 36 30  1  0
 37 36  1  0
 38 32  1  0
 39 32  1  0
 40 38  1  0
 41 39  1  0
 31 34  2  0
  1 42  1  0
  1 43  1  0
  3 44  1  6
  5 45  1  6
  6 46  1  1
  9 47  1  0
 15 48  1  0
 15 49  1  0
 16 50  1  0
 17 51  1  0
 17 52  1  0
 17 53  1  0
 18 54  1  0
 18 55  1  0
 18 56  1  0
 20 57  1  0
 21 58  1  0
 22 59  1  0
 23 60  1  0
 24 61  1  0
 28 62  1  0
 29 63  1  0
 33 64  1  0
 33 65  1  0
 34 66  1  0
 35 67  1  0
 36 68  1  0
 36 69  1  0
 37 70  1  0
 37 71  1  0
 38 72  1  0
 38 73  1  0
 39 74  1  0
 39 75  1  0
 40 76  1  0
 40 77  1  0
 40 78  1  0
 41 79  1  0
 41 80  1  0
 41 81  1  0
M  END
> <Uni-Dock RESULT> 
ENERGY=   -5.204  LOWER_BOUND=    4.880  UPPER_BOUND=    6.959
INTER + INTRA:          -5.204
INTER:                  -5.204
INTRA:                   0.000
UNBOUND:                 0.000

$$$$

     RDKit          3D

 81 82  0  0  0  0  0  0  0  0999 V2000
   49.0678    7.7229   16.4082 O   0  0  0  0  0  0  0  0  0  0  0  0
   50.0910    7.5669   14.0151 N   0  0  0  0  0  0  0  0  0  0  0  0
   49.0961    6.7825   14.7758 C   0  0  1  0  0  0  0  0  0  0  0  0
   50.7398    7.9996   15.1396 C   0  0  0  0  0  0  0  0  0  0  0  0
   49.9539    7.0232   16.0425 C   0  0  1  0  0  0  0  0  0  0  0  0
   49.5906    8.5555   13.0585 C   0  0  2  0  0  0  0  0  0  0  0  0
   47.5441    7.7489   14.5645 S   0  0  0  0  0  0  0  0  0  0  0  0
   48.0795    8.3187   12.8803 C   0  0  0  0  0  0  0  0  0  0  0  0
   49.2902    7.6261   17.2281 N   0  0  0  0  0  0  0  0  0  0  0  0
   50.3839    8.4829   11.7616 C   0  0  0  0  0  0  0  0  0  0  0  0
   48.3720    6.9058   17.9637 C   0  0  0  0  0  0  0  0  0  0  0  0
   51.5116    8.9160   15.3086 O   0  0  0  0  0  0  0  0  0  0  0  0
   51.0064    7.5279   11.3258 O   0  0  0  0  0  0  0  0  0  0  0  0
   48.0793    5.7471   17.6799 O   0  0  0  0  0  0  0  0  0  0  0  0
   47.7414    7.6688   19.1153 C   0  0  0  0  0  0  0  0  0  0  0  0
   50.3245    9.6301   11.0519 O   0  0  0  0  0  0  0  0  0  0  0  0
   47.7233    7.2225   11.8657 C   0  0  0  0  0  0  0  0  0  0  0  0
   47.3294    9.6100   12.5450 C   0  0  0  0  0  0  0  0  0  0  0  0
   48.0252    7.0466   20.4593 C   0  0  0  0  0  0  0  0  0  0  0  0
   49.0433    7.5482   21.2829 C   0  0  0  0  0  0  0  0  0  0  0  0
   47.2798    5.9426   20.8965 C   0  0  0  0  0  0  0  0  0  0  0  0
   47.5353    5.3623   22.1399 C   0  0  0  0  0  0  0  0  0  0  0  0
   49.2968    6.9660   22.5276 C   0  0  0  0  0  0  0  0  0  0  0  0
   48.5411    5.8756   22.9566 C   0  0  0  0  0  0  0  0  0  0  0  0
   49.2434    6.8286   17.4271 C   0  0  0  0  0  0  0  0  0  0  0  0
   48.7663    6.4527   18.7858 C   0  0  0  0  0  0  0  0  0  0  0  0
   49.5853    6.0160   16.5832 O   0  0  0  0  0  0  0  0  0  0  0  0
   48.6833    5.0927   19.1073 C   0  0  0  0  0  0  0  0  0  0  0  0
   48.4201    7.4034   19.7531 C   0  0  0  0  0  0  0  0  0  0  0  0
   49.2271    8.1753   17.2718 O   0  0  0  0  0  0  0  0  0  0  0  0
   47.8399    5.6355   21.3208 C   0  0  0  0  0  0  0  0  0  0  0  0
   48.8095    9.2779   13.6863 N   0  0  0  0  0  0  0  0  0  0  0  0
   47.5194    5.2348   22.6211 N   0  0  0  0  0  0  0  0  0  0  0  0
   48.2432    4.6923   20.3731 C   0  0  0  0  0  0  0  0  0  0  0  0
   47.9801    6.9921   21.0167 C   0  0  0  0  0  0  0  0  0  0  0  0
   49.6739    8.6596   15.9905 C   0  0  0  0  0  0  0  0  0  0  0  0
   48.5380    8.5820   14.9592 C   0  0  0  0  0  0  0  0  0  0  0  0
   47.5805    9.4422   12.8907 C   0  0  0  0  0  0  0  0  0  0  0  0
   49.8919    8.6526   12.9112 C   0  0  0  0  0  0  0  0  0  0  0  0
   46.8872    8.1585   12.4389 C   0  0  0  0  0  0  0  0  0  0  0  0
   51.1844    9.4479   13.0566 C   0  0  0  0  0  0  0  0  0  0  0  0
   48.5716    7.7403   15.5760 H   0  0  0  0  0  0  0  0  0  0  0  0
   48.4842    7.2486   17.0194 H   0  0  0  0  0  0  0  0  0  0  0  0
   49.0398    5.7422   14.4412 H   0  0  0  0  0  0  0  0  0  0  0  0
   50.5686    6.1627   16.3369 H   0  0  0  0  0  0  0  0  0  0  0  0
   49.7761    9.5496   13.4895 H   0  0  0  0  0  0  0  0  0  0  0  0
   49.4703    8.5967   17.4632 H   0  0  0  0  0  0  0  0  0  0  0  0
   46.6587    7.7061   18.9389 H   0  0  0  0  0  0  0  0  0  0  0  0
   48.0753    8.7139   19.1142 H   0  0  0  0  0  0  0  0  0  0  0  0
   50.8984    9.4581   10.2750 H   0  0  0  0  0  0  0  0  0  0  0  0
   47.9694    7.5397   10.8455 H   0  0  0  0  0  0  0  0  0  0  0  0
   46.6498    6.9987   11.8774 H   0  0  0  0  0  0  0  0  0  0  0  0
   48.2622    6.2870   12.0526 H   0  0  0  0  0  0  0  0  0  0  0  0
   47.5280   10.4007   13.2768 H   0  0  0  0  0  0  0  0  0  0  0  0
   46.2461    9.4491   12.5094 H   0  0  0  0  0  0  0  0  0  0  0  0
   47.6311    9.9916   11.5637 H   0  0  0  0  0  0  0  0  0  0  0  0
   49.6459    8.3968   20.9668 H   0  0  0  0  0  0  0  0  0  0  0  0
   46.5005    5.5211   20.2629 H   0  0  0  0  0  0  0  0  0  0  0  0
   46.9522    4.5054   22.4678 H   0  0  0  0  0  0  0  0  0  0  0  0
   50.0842    7.3628   23.1635 H   0  0  0  0  0  0  0  0  0  0  0  0
   48.7391    5.4218   23.9250 H   0  0  0  0  0  0  0  0  0  0  0  0
   48.9734    4.3361   18.3802 H   0  0  0  0  0  0  0  0  0  0  0  0
   48.5013    8.4681   19.5481 H   0  0  0  0  0  0  0  0  0  0  0  0
   46.9532    5.9035   23.1347 H   0  0  0  0  0  0  0  0  0  0  0  0
   47.1548    4.2898   22.6879 H   0  0  0  0  0  0  0  0  0  0  0  0
   48.2197    3.6323   20.6119 H   0  0  0  0  0  0  0  0  0  0  0  0
   47.7488    7.7458   21.7643 H   0  0  0  0  0  0  0  0  0  0  0  0
   50.5648    8.1085   15.6702 H   0  0  0  0  0  0  0  0  0  0  0  0
   49.9714    9.7027   16.1419 H   0  0  0  0  0  0  0  0  0  0  0  0
   47.6530    9.0307   15.4308 H   0  0  0  0  0  0  0  0  0  0  0  0
   48.2770    7.5312   14.7854 H   0  0  0  0  0  0  0  0  0  0  0  0
   47.8113   10.0504   12.0064 H   0  0  0  0  0  0  0  0  0  0  0  0
   46.8643   10.0434   13.4656 H   0  0  0  0  0  0  0  0  0  0  0  0
   49.6548    8.6397   11.8397 H   0  0  0  0  0  0  0  0  0  0  0  0
   50.0521    7.6060   13.1978 H   0  0  0  0  0  0  0  0  0  0  0  0
   47.5523    7.5229   11.8466 H   0  0  0  0  0  0  0  0  0  0  0  0
   46.0228    8.4073   11.8138 H   0  0  0  0  0  0  0  0  0  0  0  0
   46.5179    7.5771   13.2888 H   0  0  0  0  0  0  0  0  0  0  0  0
   51.0553   10.4743   12.6961 H   0  0  0  0  0  0  0  0  0  0  0  0
   51.5310    9.4956   14.0920 H   0  0  0  0  0  0  0  0  0  0  0  0
   51.9772    8.9837   12.4612 H   0  0  0  0  0  0  0  0  0  0  0  0
  3  2  1  0
  4  2  1  0
  5  4  1  0
  6  2  1  0
  3  7  1  0
  8  6  1  0
  5  9  1  0
  6 10  1  0
 11  9  1  0
 12  4  2  0
 13 10  2  0
 14 11  2  0
 15 11  1  0
 16 10  1  0
 17  8  1  0
 18  8  1  0
 19 15  1  0
 20 19  2  0
 21 19  1  0
 22 21  2  0
 23 20  1  0
 24 22  1  0
  7  8  1  0
  5  3  1  0
 24 23  2  0
 26 25  1  0
 27 25  2  0
 28 26  2  0
 29 26  1  0
 30 25  1  0
 31 35  1  0
 32 37  1  0
 33 31  1  0
 34 28  1  0
 35 29  2  0
 36 30  1  0
 37 36  1  0
 38 32  1  0
 39 32  1  0
 40 38  1  0
 41 39  1  0
 31 34  2  0
  1 42  1  0
  1 43  1  0
  3 44  1  6
  5 45  1  6
  6 46  1  1
  9 47  1  0
 15 48  1  0
 15 49  1  0
 16 50  1  0
 17 51  1  0
 17 52  1  0
 17 53  1  0
 18 54  1  0
 18 55  1  0
 18 56  1  0
 20 57  1  0
 21 58  1  0
 22 59  1  0
 23 60  1  0
 24 61  1  0
 28 62  1  0
 29 63  1  0
 33 64  1  0
 33 65  1  0
 34 66  1  0
 35 67  1  0
 36 68  1  0
 36 69  1  0
 37 70  1  0
 37 71  1  0
 38 72  1  0
 38 73  1  0
 39 74  1  0
 39 75  1  0
 40 76  1  0
 40 77  1  0
 40 78  1  0
 41 79  1  0
 41 80  1  0
 41 81  1  0
M  END
> <Uni-Dock RESULT> 
ENERGY=   -5.146  LOWER_BOUND=    4.719  UPPER_BOUND=    6.668
INTER + INTRA:          -5.146
INTER:                  -5.146
INTRA:                   0.000
UNBOUND:                 0.000

$$$$

     RDKit          3D

 81 82  0  0  0  0  0  0  0  0999 V2000
   43.2946   12.0493    8.6302 O   0  0  0  0  0  0  0  0  0  0  0  0
   44.5680   13.0616    6.5926 N   0  0  0  0  0  0  0  0  0  0  0  0
   44.0043   13.6078    7.8446 C   0  0  1  0  0  0  0  0  0  0  0  0
   43.6890   12.0136    6.5506 C   0  0  0  0  0  0  0  0  0  0  0  0
   42.8322   12.6076    7.6905 C   0  0  1  0  0  0  0  0  0  0  0  0
   46.0052   12.7857    6.5572 C   0  0  2  0  0  0  0  0  0  0  0  0
   45.3121   13.2496    9.0892 S   0  0  0  0  0  0  0  0  0  0  0  0
   46.6409   13.4269    7.8044 C   0  0  0  0  0  0  0  0  0  0  0  0
   42.5417   11.6954    8.8277 N   0  0  0  0  0  0  0  0  0  0  0  0
   46.6025   13.2678    5.2428 C   0  0  0  0  0  0  0  0  0  0  0  0
   41.9985   12.1807    9.9992 C   0  0  0  0  0  0  0  0  0  0  0  0
   43.7231   10.9722    5.9355 O   0  0  0  0  0  0  0  0  0  0  0  0
   46.1678   14.1384    4.5062 O   0  0  0  0  0  0  0  0  0  0  0  0
   41.7240   13.3693   10.1431 O   0  0  0  0  0  0  0  0  0  0  0  0
   41.8034   11.1403   11.0880 C   0  0  0  0  0  0  0  0  0  0  0  0
   47.7560   12.6373    4.9346 O   0  0  0  0  0  0  0  0  0  0  0  0
   46.9691   14.9194    7.6544 C   0  0  0  0  0  0  0  0  0  0  0  0
   47.8783   12.6611    8.2789 C   0  0  0  0  0  0  0  0  0  0  0  0
   40.3600   10.9739   11.4916 C   0  0  0  0  0  0  0  0  0  0  0  0
   39.5876    9.9211   10.9803 C   0  0  0  0  0  0  0  0  0  0  0  0
   39.7659   11.8850   12.3762 C   0  0  0  0  0  0  0  0  0  0  0  0
   38.4310   11.7366   12.7559 C   0  0  0  0  0  0  0  0  0  0  0  0
   38.2516    9.7743   11.3624 C   0  0  0  0  0  0  0  0  0  0  0  0
   37.6750   10.6801   12.2518 C   0  0  0  0  0  0  0  0  0  0  0  0
   41.9954   12.2923    8.9790 C   0  0  0  0  0  0  0  0  0  0  0  0
   40.9860   12.0886   10.0535 C   0  0  0  0  0  0  0  0  0  0  0  0
   42.0554   13.2990    8.2916 O   0  0  0  0  0  0  0  0  0  0  0  0
   40.0687   13.1158   10.3057 C   0  0  0  0  0  0  0  0  0  0  0  0
   40.9083   10.9077   10.8010 C   0  0  0  0  0  0  0  0  0  0  0  0
   42.8232   11.2222    8.8935 O   0  0  0  0  0  0  0  0  0  0  0  0
   39.0570   11.8158   12.0922 C   0  0  0  0  0  0  0  0  0  0  0  0
   46.2410   12.0606    7.5291 N   0  0  0  0  0  0  0  0  0  0  0  0
   38.0129   11.6236   13.0018 N   0  0  0  0  0  0  0  0  0  0  0  0
   39.1002   12.9677   11.3039 C   0  0  0  0  0  0  0  0  0  0  0  0
   39.9356   10.7699   11.7981 C   0  0  0  0  0  0  0  0  0  0  0  0
   43.8444   11.3044    7.8805 C   0  0  0  0  0  0  0  0  0  0  0  0
   45.0424   12.1211    8.3882 C   0  0  0  0  0  0  0  0  0  0  0  0
   47.4290   12.5829    8.2265 C   0  0  0  0  0  0  0  0  0  0  0  0
   46.0405   12.7009    6.2202 C   0  0  0  0  0  0  0  0  0  0  0  0
   47.3803   14.0510    8.6446 C   0  0  0  0  0  0  0  0  0  0  0  0
   45.8125   11.6510    5.1387 C   0  0  0  0  0  0  0  0  0  0  0  0
   44.1287   12.5411    8.6690 H   0  0  0  0  0  0  0  0  0  0  0  0
   42.8338   12.3046    9.4435 H   0  0  0  0  0  0  0  0  0  0  0  0
   43.7316   14.6637    7.7544 H   0  0  0  0  0  0  0  0  0  0  0  0
   41.9072   13.0576    7.3072 H   0  0  0  0  0  0  0  0  0  0  0  0
   46.1284   11.6935    6.5807 H   0  0  0  0  0  0  0  0  0  0  0  0
   42.8007   10.7163    8.7631 H   0  0  0  0  0  0  0  0  0  0  0  0
   42.4036   11.4464   11.9545 H   0  0  0  0  0  0  0  0  0  0  0  0
   42.2132   10.1722   10.7741 H   0  0  0  0  0  0  0  0  0  0  0  0
   48.0054   13.0122    4.0630 H   0  0  0  0  0  0  0  0  0  0  0  0
   47.7920   15.0691    6.9455 H   0  0  0  0  0  0  0  0  0  0  0  0
   47.2888   15.3576    8.6075 H   0  0  0  0  0  0  0  0  0  0  0  0
   46.1163   15.5016    7.2879 H   0  0  0  0  0  0  0  0  0  0  0  0
   47.6658   11.5983    8.4384 H   0  0  0  0  0  0  0  0  0  0  0  0
   48.2702   13.0701    9.2169 H   0  0  0  0  0  0  0  0  0  0  0  0
   48.6828   12.7246    7.5386 H   0  0  0  0  0  0  0  0  0  0  0  0
   40.0172    9.2044   10.2838 H   0  0  0  0  0  0  0  0  0  0  0  0
   40.3399   12.7242   12.7668 H   0  0  0  0  0  0  0  0  0  0  0  0
   37.9803   12.4502   13.4410 H   0  0  0  0  0  0  0  0  0  0  0  0
   37.6596    8.9530   10.9662 H   0  0  0  0  0  0  0  0  0  0  0  0
   36.6348   10.5663   12.5484 H   0  0  0  0  0  0  0  0  0  0  0  0
   40.0927   14.0322    9.7184 H   0  0  0  0  0  0  0  0  0  0  0  0
   41.5849   10.0779   10.6115 H   0  0  0  0  0  0  0  0  0  0  0  0
   38.2163   10.9472   13.7315 H   0  0  0  0  0  0  0  0  0  0  0  0
   37.6195   12.4830   13.3720 H   0  0  0  0  0  0  0  0  0  0  0  0
   38.3770   13.7640   11.4587 H   0  0  0  0  0  0  0  0  0  0  0  0
   39.8704    9.8325   12.3436 H   0  0  0  0  0  0  0  0  0  0  0  0
   43.4240   11.7137    6.9554 H   0  0  0  0  0  0  0  0  0  0  0  0
   44.1548   10.2751    7.6714 H   0  0  0  0  0  0  0  0  0  0  0  0
   45.2940   11.7267    9.3822 H   0  0  0  0  0  0  0  0  0  0  0  0
   44.7295   13.1588    8.5547 H   0  0  0  0  0  0  0  0  0  0  0  0
   48.3095   12.4247    7.5902 H   0  0  0  0  0  0  0  0  0  0  0  0
   47.6137   11.9706    9.1185 H   0  0  0  0  0  0  0  0  0  0  0  0
   46.9291   13.2696    5.9177 H   0  0  0  0  0  0  0  0  0  0  0  0
   45.2126   13.4202    6.2361 H   0  0  0  0  0  0  0  0  0  0  0  0
   47.2118   14.7129    7.7898 H   0  0  0  0  0  0  0  0  0  0  0  0
   48.3345   14.3357    9.1013 H   0  0  0  0  0  0  0  0  0  0  0  0
   46.5969   14.2352    9.3857 H   0  0  0  0  0  0  0  0  0  0  0  0
   46.6720   10.9761    5.0606 H   0  0  0  0  0  0  0  0  0  0  0  0
   44.9235   11.0437    5.3271 H   0  0  0  0  0  0  0  0  0  0  0  0
   45.6830   12.1382    4.1669 H   0  0  0  0  0  0  0  0  0  0  0  0
  3  2  1  0
  4  2  1  0
  5  4  1  0
  6  2  1  0
  3  7  1  0
  8  6  1  0
  5  9  1  0
  6 10  1  0
 11  9  1  0
 12  4  2  0
 13 10  2  0
 14 11  2  0
 15 11  1  0
 16 10  1  0
 17  8  1  0
 18  8  1  0
 19 15  1  0
 20 19  2  0
 21 19  1  0
 22 21  2  0
 23 20  1  0
 24 22  1  0
  7  8  1  0
  5  3  1  0
 24 23  2  0
 26 25  1  0
 27 25  2  0
 28 26  2  0
 29 26  1  0
 30 25  1  0
 31 35  1  0
 32 37  1  0
 33 31  1  0
 34 28  1  0
 35 29  2  0
 36 30  1  0
 37 36  1  0
 38 32  1  0
 39 32  1  0
 40 38  1  0
 41 39  1  0
 31 34  2  0
  1 42  1  0
  1 43  1  0
  3 44  1  6
  5 45  1  6
  6 46  1  1
  9 47  1  0
 15 48  1  0
 15 49  1  0
 16 50  1  0
 17 51  1  0
 17 52  1  0
 17 53  1  0
 18 54  1  0
 18 55  1  0
 18 56  1  0
 20 57  1  0
 21 58  1  0
 22 59  1  0
 23 60  1  0
 24 61  1  0
 28 62  1  0
 29 63  1  0
 33 64  1  0
 33 65  1  0
 34 66  1  0
 35 67  1  0
 36 68  1  0
 36 69  1  0
 37 70  1  0
 37 71  1  0
 38 72  1  0
 38 73  1  0
 39 74  1  0
 39 75  1  0
 40 76  1  0
 40 77  1  0
 40 78  1  0
 41 79  1  0
 41 80  1  0
 41 81  1  0
M  END
> <Uni-Dock RESULT> 
ENERGY=   -5.027  LOWER_BOUND=    7.345  UPPER_BOUND=    8.605
INTER + INTRA:          -5.027
INTER:                  -5.027
INTRA:                   0.000
UNBOUND:                 0.000

$$$$

     RDKit          3D

 81 82  0  0  0  0  0  0  0  0999 V2000
   41.7620   13.6488   11.9633 O   0  0  0  0  0  0  0  0  0  0  0  0
   40.1822   15.2426   13.2906 N   0  0  0  0  0  0  0  0  0  0  0  0
   39.9901   14.2303   12.2313 C   0  0  1  0  0  0  0  0  0  0  0  0
   41.4706   15.5152   12.9188 C   0  0  0  0  0  0  0  0  0  0  0  0
   41.3314   14.6985   11.6150 C   0  0  1  0  0  0  0  0  0  0  0  0
   39.9108   14.8415   14.6721 C   0  0  2  0  0  0  0  0  0  0  0  0
   39.9535   12.6439   13.1637 S   0  0  0  0  0  0  0  0  0  0  0  0
   39.1929   13.4797   14.6370 C   0  0  0  0  0  0  0  0  0  0  0  0
   42.3818   13.6744   11.3748 N   0  0  0  0  0  0  0  0  0  0  0  0
   39.1318   15.9315   15.3943 C   0  0  0  0  0  0  0  0  0  0  0  0
   42.2318   12.7313   10.3793 C   0  0  0  0  0  0  0  0  0  0  0  0
   42.3702   16.0635   13.5139 O   0  0  0  0  0  0  0  0  0  0  0  0
   38.4192   16.7877   14.8958 O   0  0  0  0  0  0  0  0  0  0  0  0
   41.2425   12.7083    9.6517 O   0  0  0  0  0  0  0  0  0  0  0  0
   43.3621   11.7216   10.2851 C   0  0  0  0  0  0  0  0  0  0  0  0
   39.2690   15.8653   16.7360 O   0  0  0  0  0  0  0  0  0  0  0  0
   37.6765   13.5663   14.4115 C   0  0  0  0  0  0  0  0  0  0  0  0
   39.4930   12.6379   15.8795 C   0  0  0  0  0  0  0  0  0  0  0  0
   44.0778   11.7610    8.9583 C   0  0  0  0  0  0  0  0  0  0  0  0
   45.2910   12.4498    8.8164 C   0  0  0  0  0  0  0  0  0  0  0  0
   43.5266   11.1185    7.8408 C   0  0  0  0  0  0  0  0  0  0  0  0
   44.1839   11.1490    6.6098 C   0  0  0  0  0  0  0  0  0  0  0  0
   45.9475   12.4783    7.5832 C   0  0  0  0  0  0  0  0  0  0  0  0
   45.3952   11.8258    6.4817 C   0  0  0  0  0  0  0  0  0  0  0  0
   42.0408   13.7089   10.6264 C   0  0  0  0  0  0  0  0  0  0  0  0
   42.6911   12.9780    9.5048 C   0  0  0  0  0  0  0  0  0  0  0  0
   41.0259   14.3748   10.4994 O   0  0  0  0  0  0  0  0  0  0  0  0
   42.0951   13.0383    8.2394 C   0  0  0  0  0  0  0  0  0  0  0  0
   43.8792   12.2553    9.6642 C   0  0  0  0  0  0  0  0  0  0  0  0
   42.7236   13.5149   11.7813 O   0  0  0  0  0  0  0  0  0  0  0  0
   43.8246   11.5984    7.3222 C   0  0  0  0  0  0  0  0  0  0  0  0
   40.5815   13.8238   14.8735 N   0  0  0  0  0  0  0  0  0  0  0  0
   44.4625   11.0355    6.2129 N   0  0  0  0  0  0  0  0  0  0  0  0
   42.6723   12.3696    7.1550 C   0  0  0  0  0  0  0  0  0  0  0  0
   44.4482   11.5891    8.5725 C   0  0  0  0  0  0  0  0  0  0  0  0
   42.1870   14.1803   12.9411 C   0  0  0  0  0  0  0  0  0  0  0  0
   41.0371   13.3620   13.5478 C   0  0  0  0  0  0  0  0  0  0  0  0
   39.7247   12.8194   15.5273 C   0  0  0  0  0  0  0  0  0  0  0  0
   39.9473   15.1502   14.8312 C   0  0  0  0  0  0  0  0  0  0  0  0
   38.4178   12.4751   14.8160 C   0  0  0  0  0  0  0  0  0  0  0  0
   40.9098   16.2213   15.3315 C   0  0  0  0  0  0  0  0  0  0  0  0
   41.0053   13.3773   12.5043 H   0  0  0  0  0  0  0  0  0  0  0  0
   41.7641   13.0166   11.2289 H   0  0  0  0  0  0  0  0  0  0  0  0
   39.1028   14.4266   11.6217 H   0  0  0  0  0  0  0  0  0  0  0  0
   41.2182   15.3516   10.7400 H   0  0  0  0  0  0  0  0  0  0  0  0
   40.8805   14.7524   15.1823 H   0  0  0  0  0  0  0  0  0  0  0  0
   43.1895   13.6322   11.9877 H   0  0  0  0  0  0  0  0  0  0  0  0
   42.9348   10.7245   10.4528 H   0  0  0  0  0  0  0  0  0  0  0  0
   44.0829   11.8727   11.0983 H   0  0  0  0  0  0  0  0  0  0  0  0
   38.7547   16.6333   17.0649 H   0  0  0  0  0  0  0  0  0  0  0  0
   37.1761   14.0023   15.2842 H   0  0  0  0  0  0  0  0  0  0  0  0
   37.2366   12.5736   14.2575 H   0  0  0  0  0  0  0  0  0  0  0  0
   37.4160   14.1857   13.5461 H   0  0  0  0  0  0  0  0  0  0  0  0
   40.5697   12.5196   16.0438 H   0  0  0  0  0  0  0  0  0  0  0  0
   39.0524   11.6374   15.8045 H   0  0  0  0  0  0  0  0  0  0  0  0
   39.0765   13.1070   16.7772 H   0  0  0  0  0  0  0  0  0  0  0  0
   45.7382   12.9670    9.6623 H   0  0  0  0  0  0  0  0  0  0  0  0
   42.5732   10.5981    7.9219 H   0  0  0  0  0  0  0  0  0  0  0  0
   43.7462   10.6487    5.7496 H   0  0  0  0  0  0  0  0  0  0  0  0
   46.8902   13.0099    7.4811 H   0  0  0  0  0  0  0  0  0  0  0  0
   45.9058   11.8489    5.5216 H   0  0  0  0  0  0  0  0  0  0  0  0
   41.1858   13.6168    8.0858 H   0  0  0  0  0  0  0  0  0  0  0  0
   44.3853   12.2122   10.6256 H   0  0  0  0  0  0  0  0  0  0  0  0
   45.0788   10.2600    6.4368 H   0  0  0  0  0  0  0  0  0  0  0  0
   43.8413   10.8227    5.4387 H   0  0  0  0  0  0  0  0  0  0  0  0
   42.2112   12.4587    6.1749 H   0  0  0  0  0  0  0  0  0  0  0  0
   45.3885   11.0621    8.7096 H   0  0  0  0  0  0  0  0  0  0  0  0
   41.8804   15.1994   12.6814 H   0  0  0  0  0  0  0  0  0  0  0  0
   43.0099   14.2594   13.6595 H   0  0  0  0  0  0  0  0  0  0  0  0
   41.3974   12.3277   13.6333 H   0  0  0  0  0  0  0  0  0  0  0  0
   40.2036   13.3247   12.8362 H   0  0  0  0  0  0  0  0  0  0  0  0
   39.4951   13.1604   16.5452 H   0  0  0  0  0  0  0  0  0  0  0  0
   40.3026   11.8963   15.6643 H   0  0  0  0  0  0  0  0  0  0  0  0
   39.0697   15.1903   15.4891 H   0  0  0  0  0  0  0  0  0  0  0  0
   39.5837   15.4010   13.8272 H   0  0  0  0  0  0  0  0  0  0  0  0
   37.7913   13.3592   14.6641 H   0  0  0  0  0  0  0  0  0  0  0  0
   37.8456   11.7634   15.4212 H   0  0  0  0  0  0  0  0  0  0  0  0
   38.5970   12.0059   13.8442 H   0  0  0  0  0  0  0  0  0  0  0  0
   41.2152   16.0217   16.3644 H   0  0  0  0  0  0  0  0  0  0  0  0
   41.8133   16.2892   14.7202 H   0  0  0  0  0  0  0  0  0  0  0  0
   40.4208   17.2007   15.3127 H   0  0  0  0  0  0  0  0  0  0  0  0
  3  2  1  0
  4  2  1  0
  5  4  1  0
  6  2  1  0
  3  7  1  0
  8  6  1  0
  5  9  1  0
  6 10  1  0
 11  9  1  0
 12  4  2  0
 13 10  2  0
 14 11  2  0
 15 11  1  0
 16 10  1  0
 17  8  1  0
 18  8  1  0
 19 15  1  0
 20 19  2  0
 21 19  1  0
 22 21  2  0
 23 20  1  0
 24 22  1  0
  7  8  1  0
  5  3  1  0
 24 23  2  0
 26 25  1  0
 27 25  2  0
 28 26  2  0
 29 26  1  0
 30 25  1  0
 31 35  1  0
 32 37  1  0
 33 31  1  0
 34 28  1  0
 35 29  2  0
 36 30  1  0
 37 36  1  0
 38 32  1  0
 39 32  1  0
 40 38  1  0
 41 39  1  0
 31 34  2  0
  1 42  1  0
  1 43  1  0
  3 44  1  6
  5 45  1  6
  6 46  1  1
  9 47  1  0
 15 48  1  0
 15 49  1  0
 16 50  1  0
 17 51  1  0
 17 52  1  0
 17 53  1  0
 18 54  1  0
 18 55  1  0
 18 56  1  0
 20 57  1  0
 21 58  1  0
 22 59  1  0
 23 60  1  0
 24 61  1  0
 28 62  1  0
 29 63  1  0
 33 64  1  0
 33 65  1  0
 34 66  1  0
 35 67  1  0
 36 68  1  0
 36 69  1  0
 37 70  1  0
 37 71  1  0
 38 72  1  0
 38 73  1  0
 39 74  1  0
 39 75  1  0
 40 76  1  0
 40 77  1  0
 40 78  1  0
 41 79  1  0
 41 80  1  0
 41 81  1  0
M  END
> <Uni-Dock RESULT> 
ENERGY=   -5.000  LOWER_BOUND=    8.175  UPPER_BOUND=   10.659
INTER + INTRA:          -5.000
INTER:                  -5.000
INTRA:                   0.000
UNBOUND:                 0.000

$$$$

     RDKit          3D

 81 82  0  0  0  0  0  0  0  0999 V2000
   48.1744   10.0554   19.9039 O   0  0  0  0  0  0  0  0  0  0  0  0
   48.7729    7.6666   20.7602 N   0  0  0  0  0  0  0  0  0  0  0  0
   49.3923    9.0027   20.8828 C   0  0  1  0  0  0  0  0  0  0  0  0
   48.1563    7.9642   19.5754 C   0  0  0  0  0  0  0  0  0  0  0  0
   48.9424    9.2858   19.4283 C   0  0  1  0  0  0  0  0  0  0  0  0
   47.9637    7.1865   21.8817 C   0  0  2  0  0  0  0  0  0  0  0  0
   48.4545    9.7788   22.2633 S   0  0  0  0  0  0  0  0  0  0  0  0
   48.2043    8.1282   23.0760 C   0  0  0  0  0  0  0  0  0  0  0  0
   48.1264   10.5025   19.1766 N   0  0  0  0  0  0  0  0  0  0  0  0
   48.2802    5.7265   22.1732 C   0  0  0  0  0  0  0  0  0  0  0  0
   48.6884   11.7590   19.2674 C   0  0  0  0  0  0  0  0  0  0  0  0
   47.2369    7.4265   19.0012 O   0  0  0  0  0  0  0  0  0  0  0  0
   49.3077    5.1235   21.9085 O   0  0  0  0  0  0  0  0  0  0  0  0
   49.8743   11.9205   19.5435 O   0  0  0  0  0  0  0  0  0  0  0  0
   47.7214   12.9061   19.0324 C   0  0  0  0  0  0  0  0  0  0  0  0
   47.2779    5.0982   22.8242 O   0  0  0  0  0  0  0  0  0  0  0  0
   49.4586    7.8023   23.8996 C   0  0  0  0  0  0  0  0  0  0  0  0
   46.9821    8.2202   23.9926 C   0  0  0  0  0  0  0  0  0  0  0  0
   48.0973   13.7597   17.8475 C   0  0  0  0  0  0  0  0  0  0  0  0
   47.4726   13.5794   16.6050 C   0  0  0  0  0  0  0  0  0  0  0  0
   49.0930   14.7388   17.9716 C   0  0  0  0  0  0  0  0  0  0  0  0
   49.4452   15.5340   16.8800 C   0  0  0  0  0  0  0  0  0  0  0  0
   47.8265   14.3773   15.5137 C   0  0  0  0  0  0  0  0  0  0  0  0
   48.8102   15.3556   15.6525 C   0  0  0  0  0  0  0  0  0  0  0  0
   48.8744   10.7893   18.9873 C   0  0  0  0  0  0  0  0  0  0  0  0
   48.9931   12.1401   18.3739 C   0  0  0  0  0  0  0  0  0  0  0  0
   49.8305   10.0670   19.2189 O   0  0  0  0  0  0  0  0  0  0  0  0
   50.2721   12.6188   18.0654 C   0  0  0  0  0  0  0  0  0  0  0  0
   47.8791   12.9341   18.0774 C   0  0  0  0  0  0  0  0  0  0  0  0
   47.5773   10.4993   19.2541 O   0  0  0  0  0  0  0  0  0  0  0  0
   49.3280   14.7014   17.2427 C   0  0  0  0  0  0  0  0  0  0  0  0
   47.1281    8.0682   22.1061 N   0  0  0  0  0  0  0  0  0  0  0  0
   49.4841   15.9067   16.5519 N   0  0  0  0  0  0  0  0  0  0  0  0
   50.4321   13.8813   17.4851 C   0  0  0  0  0  0  0  0  0  0  0  0
   48.0504   14.1964   17.4972 C   0  0  0  0  0  0  0  0  0  0  0  0
   47.3375    9.2093   19.8494 C   0  0  0  0  0  0  0  0  0  0  0  0
   47.5803    9.2620   21.3654 C   0  0  0  0  0  0  0  0  0  0  0  0
   47.0892    8.3189   23.5573 C   0  0  0  0  0  0  0  0  0  0  0  0
   47.8994    6.8610   21.7727 C   0  0  0  0  0  0  0  0  0  0  0  0
   48.4218    8.6526   24.2248 C   0  0  0  0  0  0  0  0  0  0  0  0
   47.1118    5.9668   20.8218 C   0  0  0  0  0  0  0  0  0  0  0  0
   48.2983    9.7985   20.8300 H   0  0  0  0  0  0  0  0  0  0  0  0
   48.5221   10.9590   19.8626 H   0  0  0  0  0  0  0  0  0  0  0  0
   50.4746    8.9492   21.0344 H   0  0  0  0  0  0  0  0  0  0  0  0
   49.7461    9.1964   18.6858 H   0  0  0  0  0  0  0  0  0  0  0  0
   46.9116    7.2268   21.5656 H   0  0  0  0  0  0  0  0  0  0  0  0
   47.1323   10.4099   18.9945 H   0  0  0  0  0  0  0  0  0  0  0  0
   47.6989   13.5167   19.9442 H   0  0  0  0  0  0  0  0  0  0  0  0
   46.6989   12.5288   18.9064 H   0  0  0  0  0  0  0  0  0  0  0  0
   47.5954    4.1741   22.9127 H   0  0  0  0  0  0  0  0  0  0  0  0
   49.3333    6.8600   24.4459 H   0  0  0  0  0  0  0  0  0  0  0  0
   49.6595    8.5779   24.6484 H   0  0  0  0  0  0  0  0  0  0  0  0
   50.3541    7.6987   23.2768 H   0  0  0  0  0  0  0  0  0  0  0  0
   46.0763    8.4952   23.4411 H   0  0  0  0  0  0  0  0  0  0  0  0
   47.1293    8.9599   24.7875 H   0  0  0  0  0  0  0  0  0  0  0  0
   46.7873    7.2586   24.4792 H   0  0  0  0  0  0  0  0  0  0  0  0
   46.7042   12.8208   16.4745 H   0  0  0  0  0  0  0  0  0  0  0  0
   49.6085   14.8797   18.9207 H   0  0  0  0  0  0  0  0  0  0  0  0
   50.2200   16.2890   16.9874 H   0  0  0  0  0  0  0  0  0  0  0  0
   47.3350   14.2358   14.5544 H   0  0  0  0  0  0  0  0  0  0  0  0
   49.0863   15.9759   14.8027 H   0  0  0  0  0  0  0  0  0  0  0  0
   51.1512   12.0075   18.2618 H   0  0  0  0  0  0  0  0  0  0  0  0
   46.8698   12.5815   18.2754 H   0  0  0  0  0  0  0  0  0  0  0  0
   48.7253   16.5671   16.6911 H   0  0  0  0  0  0  0  0  0  0  0  0
   50.3959   16.3378   16.6670 H   0  0  0  0  0  0  0  0  0  0  0  0
   51.4317   14.2178   17.2228 H   0  0  0  0  0  0  0  0  0  0  0  0
   47.1713   14.7826   17.2438 H   0  0  0  0  0  0  0  0  0  0  0  0
   47.9513    8.4479   19.3560 H   0  0  0  0  0  0  0  0  0  0  0  0
   46.2891    8.9662   19.6464 H   0  0  0  0  0  0  0  0  0  0  0  0
   47.0402   10.1420   21.7406 H   0  0  0  0  0  0  0  0  0  0  0  0
   48.6409    9.4651   21.5560 H   0  0  0  0  0  0  0  0  0  0  0  0
   46.6530    7.4430   24.0551 H   0  0  0  0  0  0  0  0  0  0  0  0
   46.3834    9.1354   23.7568 H   0  0  0  0  0  0  0  0  0  0  0  0
   48.1003    6.2598   22.6687 H   0  0  0  0  0  0  0  0  0  0  0  0
   48.8802    7.1038   21.3458 H   0  0  0  0  0  0  0  0  0  0  0  0
   49.1638    7.8634   24.0706 H   0  0  0  0  0  0  0  0  0  0  0  0
   48.2751    8.7632   25.3048 H   0  0  0  0  0  0  0  0  0  0  0  0
   48.8356    9.5950   23.8542 H   0  0  0  0  0  0  0  0  0  0  0  0
   46.1647    5.6527   21.2739 H   0  0  0  0  0  0  0  0  0  0  0  0
   46.8850    6.4622   19.8744 H   0  0  0  0  0  0  0  0  0  0  0  0
   47.6879    5.0636   20.5957 H   0  0  0  0  0  0  0  0  0  0  0  0
  3  2  1  0
  4  2  1  0
  5  4  1  0
  6  2  1  0
  3  7  1  0
  8  6  1  0
  5  9  1  0
  6 10  1  0
 11  9  1  0
 12  4  2  0
 13 10  2  0
 14 11  2  0
 15 11  1  0
 16 10  1  0
 17  8  1  0
 18  8  1  0
 19 15  1  0
 20 19  2  0
 21 19  1  0
 22 21  2  0
 23 20  1  0
 24 22  1  0
  7  8  1  0
  5  3  1  0
 24 23  2  0
 26 25  1  0
 27 25  2  0
 28 26  2  0
 29 26  1  0
 30 25  1  0
 31 35  1  0
 32 37  1  0
 33 31  1  0
 34 28  1  0
 35 29  2  0
 36 30  1  0
 37 36  1  0
 38 32  1  0
 39 32  1  0
 40 38  1  0
 41 39  1  0
 31 34  2  0
  1 42  1  0
  1 43  1  0
  3 44  1  6
  5 45  1  6
  6 46  1  1
  9 47  1  0
 15 48  1  0
 15 49  1  0
 16 50  1  0
 17 51  1  0
 17 52  1  0
 17 53  1  0
 18 54  1  0
 18 55  1  0
 18 56  1  0
 20 57  1  0
 21 58  1  0
 22 59  1  0
 23 60  1  0
 24 61  1  0
 28 62  1  0
 29 63  1  0
 33 64  1  0
 33 65  1  0
 34 66  1  0
 35 67  1  0
 36 68  1  0
 36 69  1  0
 37 70  1  0
 37 71  1  0
 38 72  1  0
 38 73  1  0
 39 74  1  0
 39 75  1  0
 40 76  1  0
 40 77  1  0
 40 78  1  0
 41 79  1  0
 41 80  1  0
 41 81  1  0
M  END
> <Uni-Dock RESULT> 
ENERGY=   -4.943  LOWER_BOUND=    7.428  UPPER_BOUND=    9.922
INTER + INTRA:          -4.943
INTER:                  -4.943
INTRA:                   0.000
UNBOUND:                 0.000

$$$$
