
     RDKit          3D

 81 82  0  0  0  0  0  0  0  0999 V2000
   48.7164    7.6070   14.2616 O   0  0  0  0  0  0  0  0  0  0  0  0
   49.7882    9.3396   16.1784 N   0  0  0  0  0  0  0  0  0  0  0  0
   49.4713    7.9462   15.8179 C   0  0  1  0  0  0  0  0  0  0  0  0
   48.7349    9.8586   15.4837 C   0  0  0  0  0  0  0  0  0  0  0  0
   48.0983    8.4609   15.2990 C   0  0  1  0  0  0  0  0  0  0  0  0
   51.1562    9.7902   15.9535 C   0  0  2  0  0  0  0  0  0  0  0  0
   50.7318    7.4794   14.5588 S   0  0  0  0  0  0  0  0  0  0  0  0
   51.6957    9.0532   14.7078 C   0  0  0  0  0  0  0  0  0  0  0  0
   47.7049    8.1066   13.9084 N   0  0  0  0  0  0  0  0  0  0  0  0
   51.9434    9.5144   17.2323 C   0  0  0  0  0  0  0  0  0  0  0  0
   47.3865    6.8069   13.5776 C   0  0  0  0  0  0  0  0  0  0  0  0
   48.5190   10.9797   15.0847 O   0  0  0  0  0  0  0  0  0  0  0  0
   51.7229    8.6540   18.0698 O   0  0  0  0  0  0  0  0  0  0  0  0
   47.3575    5.9126   14.4194 O   0  0  0  0  0  0  0  0  0  0  0  0
   47.1039    6.5796   12.1035 C   0  0  0  0  0  0  0  0  0  0  0  0
   53.0009   10.3416   17.3819 O   0  0  0  0  0  0  0  0  0  0  0  0
   53.1861    8.6933   14.7621 C   0  0  0  0  0  0  0  0  0  0  0  0
   51.4379    9.8698   13.4303 C   0  0  0  0  0  0  0  0  0  0  0  0
   45.7205    6.0371   11.8465 C   0  0  0  0  0  0  0  0  0  0  0  0
   44.6507    6.9023   11.5758 C   0  0  0  0  0  0  0  0  0  0  0  0
   45.4812    4.6567   11.9011 C   0  0  0  0  0  0  0  0  0  0  0  0
   44.2018    4.1490   11.6717 C   0  0  0  0  0  0  0  0  0  0  0  0
   43.3709    6.3924   11.3470 C   0  0  0  0  0  0  0  0  0  0  0  0
   43.1479    5.0167   11.3919 C   0  0  0  0  0  0  0  0  0  0  0  0
   47.5602    8.5613   12.2390 C   0  0  0  0  0  0  0  0  0  0  0  0
   46.4888    7.5556   12.4729 C   0  0  0  0  0  0  0  0  0  0  0  0
   47.3493    9.6871   11.8188 O   0  0  0  0  0  0  0  0  0  0  0  0
   45.1827    7.8723   12.0828 C   0  0  0  0  0  0  0  0  0  0  0  0
   46.7352    6.3256   13.0945 C   0  0  0  0  0  0  0  0  0  0  0  0
   48.7698    8.0402   12.5465 O   0  0  0  0  0  0  0  0  0  0  0  0
   44.3961    5.7043   12.8506 C   0  0  0  0  0  0  0  0  0  0  0  0
   50.7439    8.2367   14.7406 N   0  0  0  0  0  0  0  0  0  0  0  0
   43.3372    4.8481   13.1655 N   0  0  0  0  0  0  0  0  0  0  0  0
   44.1438    6.9584   12.2891 C   0  0  0  0  0  0  0  0  0  0  0  0
   45.6889    5.4177   13.2961 C   0  0  0  0  0  0  0  0  0  0  0  0
   49.8730    8.9520   12.4417 C   0  0  0  0  0  0  0  0  0  0  0  0
   51.0414    8.4409   13.3041 C   0  0  0  0  0  0  0  0  0  0  0  0
   50.2029    9.4275   15.4138 C   0  0  0  0  0  0  0  0  0  0  0  0
   51.9110    7.6429   15.4140 C   0  0  0  0  0  0  0  0  0  0  0  0
   51.1255   10.6410   15.4847 C   0  0  0  0  0  0  0  0  0  0  0  0
   51.6318    7.1765   16.8393 C   0  0  0  0  0  0  0  0  0  0  0  0
   47.9360    7.6284   13.6872 H   0  0  0  0  0  0  0  0  0  0  0  0
   49.2148    8.3991   14.0105 H   0  0  0  0  0  0  0  0  0  0  0  0
   49.4227    7.2817   16.6851 H   0  0  0  0  0  0  0  0  0  0  0  0
   47.2648    8.2996   15.9944 H   0  0  0  0  0  0  0  0  0  0  0  0
   51.1353   10.8763   15.8032 H   0  0  0  0  0  0  0  0  0  0  0  0
   47.7674    8.8071   13.1774 H   0  0  0  0  0  0  0  0  0  0  0  0
   47.8621    5.8847   11.7211 H   0  0  0  0  0  0  0  0  0  0  0  0
   47.2423    7.5072   11.5347 H   0  0  0  0  0  0  0  0  0  0  0  0
   53.3982   10.0664   18.2360 H   0  0  0  0  0  0  0  0  0  0  0  0
   53.5123    8.1847   13.8462 H   0  0  0  0  0  0  0  0  0  0  0  0
   53.4264    8.0312   15.6015 H   0  0  0  0  0  0  0  0  0  0  0  0
   53.7999    9.5952   14.8610 H   0  0  0  0  0  0  0  0  0  0  0  0
   51.9571   10.8335   13.4824 H   0  0  0  0  0  0  0  0  0  0  0  0
   51.8098    9.3513   12.5378 H   0  0  0  0  0  0  0  0  0  0  0  0
   50.3754   10.0800   13.2680 H   0  0  0  0  0  0  0  0  0  0  0  0
   44.8035    7.9795   11.5409 H   0  0  0  0  0  0  0  0  0  0  0  0
   46.2912    3.9685   12.1375 H   0  0  0  0  0  0  0  0  0  0  0  0
   44.0283    3.0766   11.7204 H   0  0  0  0  0  0  0  0  0  0  0  0
   42.5450    7.0665   11.1359 H   0  0  0  0  0  0  0  0  0  0  0  0
   42.1505    4.6221   11.2171 H   0  0  0  0  0  0  0  0  0  0  0  0
   44.9641    8.8373   11.6290 H   0  0  0  0  0  0  0  0  0  0  0  0
   47.7320    6.0675   13.4466 H   0  0  0  0  0  0  0  0  0  0  0  0
   43.6081    3.8737   13.2598 H   0  0  0  0  0  0  0  0  0  0  0  0
   42.5177    4.9674   12.5775 H   0  0  0  0  0  0  0  0  0  0  0  0
   43.1331    7.2385   12.0051 H   0  0  0  0  0  0  0  0  0  0  0  0
   45.8954    4.4822   13.8102 H   0  0  0  0  0  0  0  0  0  0  0  0
   50.1901    8.9792   11.3922 H   0  0  0  0  0  0  0  0  0  0  0  0
   49.5901    9.9679   12.7403 H   0  0  0  0  0  0  0  0  0  0  0  0
   51.3352    7.4685   12.8864 H   0  0  0  0  0  0  0  0  0  0  0  0
   51.8978    9.1146   13.1770 H   0  0  0  0  0  0  0  0  0  0  0  0
   49.8896    9.1649   16.4318 H   0  0  0  0  0  0  0  0  0  0  0  0
   49.2648    9.7276   14.9301 H   0  0  0  0  0  0  0  0  0  0  0  0
   52.7674    8.3280   15.4116 H   0  0  0  0  0  0  0  0  0  0  0  0
   52.2259    6.7534   14.8528 H   0  0  0  0  0  0  0  0  0  0  0  0
   52.0468   10.4208   16.0319 H   0  0  0  0  0  0  0  0  0  0  0  0
   50.6198   11.4553   16.0132 H   0  0  0  0  0  0  0  0  0  0  0  0
   51.3872   11.0094   14.4887 H   0  0  0  0  0  0  0  0  0  0  0  0
   52.5018    6.6362   17.2281 H   0  0  0  0  0  0  0  0  0  0  0  0
   50.7752    6.4966   16.8701 H   0  0  0  0  0  0  0  0  0  0  0  0
   51.4391    8.0130   17.5158 H   0  0  0  0  0  0  0  0  0  0  0  0
  3  2  1  0
  4  2  1  0
  5  4  1  0
  6  2  1  0
  3  7  1  0
  8  6  1  0
  5  9  1  0
  6 10  1  0
 11  9  1  0
 12  4  2  0
 13 10  2  0
 14 11  2  0
 15 11  1  0
 16 10  1  0
 17  8  1  0
 18  8  1  0
 19 15  1  0
 20 19  2  0
 21 19  1  0
 22 21  2  0
 23 20  1  0
 24 22  1  0
  7  8  1  0
  5  3  1  0
 24 23  2  0
 26 25  1  0
 27 25  2  0
 28 26  2  0
 29 26  1  0
 30 25  1  0
 31 35  1  0
 32 37  1  0
 33 31  1  0
 34 28  1  0
 35 29  2  0
 36 30  1  0
 37 36  1  0
 38 32  1  0
 39 32  1  0
 40 38  1  0
 41 39  1  0
 31 34  2  0
  1 42  1  0
  1 43  1  0
  3 44  1  1
  5 45  1  1
  6 46  1  1
  9 47  1  0
 15 48  1  0
 15 49  1  0
 16 50  1  0
 17 51  1  0
 17 52  1  0
 17 53  1  0
 18 54  1  0
 18 55  1  0
 18 56  1  0
 20 57  1  0
 21 58  1  0
 22 59  1  0
 23 60  1  0
 24 61  1  0
 28 62  1  0
 29 63  1  0
 33 64  1  0
 33 65  1  0
 34 66  1  0
 35 67  1  0
 36 68  1  0
 36 69  1  0
 37 70  1  0
 37 71  1  0
 38 72  1  0
 38 73  1  0
 39 74  1  0
 39 75  1  0
 40 76  1  0
 40 77  1  0
 40 78  1  0
 41 79  1  0
 41 80  1  0
 41 81  1  0
M  END
> <Uni-Dock RESULT> 
ENERGY=   -5.016  LOWER_BOUND=    0.000  UPPER_BOUND=    0.000
INTER + INTRA:          -5.016
INTER:                  -5.016
INTRA:                   0.000
UNBOUND:                 0.000

$$$$

     RDKit          3D

 81 82  0  0  0  0  0  0  0  0999 V2000
   48.7182    7.6052   14.2622 O   0  0  0  0  0  0  0  0  0  0  0  0
   49.7914    9.3370   16.1790 N   0  0  0  0  0  0  0  0  0  0  0  0
   49.4724    7.9440   15.8190 C   0  0  1  0  0  0  0  0  0  0  0  0
   48.7395    9.8574   15.4831 C   0  0  0  0  0  0  0  0  0  0  0  0
   48.1007    8.4607   15.2986 C   0  0  1  0  0  0  0  0  0  0  0  0
   51.1603    9.7851   15.9550 C   0  0  2  0  0  0  0  0  0  0  0  0
   50.7331    7.4743   14.5613 S   0  0  0  0  0  0  0  0  0  0  0  0
   51.6997    9.0465   14.7103 C   0  0  0  0  0  0  0  0  0  0  0  0
   47.7080    8.1063   13.9078 N   0  0  0  0  0  0  0  0  0  0  0  0
   51.9459    9.5087   17.2347 C   0  0  0  0  0  0  0  0  0  0  0  0
   47.3875    6.8070   13.5775 C   0  0  0  0  0  0  0  0  0  0  0  0
   48.5259   10.9787   15.0833 O   0  0  0  0  0  0  0  0  0  0  0  0
   51.7232    8.6491   18.0725 O   0  0  0  0  0  0  0  0  0  0  0  0
   47.3563    5.9133   14.4197 O   0  0  0  0  0  0  0  0  0  0  0  0
   47.1059    6.5794   12.1032 C   0  0  0  0  0  0  0  0  0  0  0  0
   53.0046   10.3341   17.3848 O   0  0  0  0  0  0  0  0  0  0  0  0
   53.1894    8.6840   14.7661 C   0  0  0  0  0  0  0  0  0  0  0  0
   51.4444    9.8628   13.4321 C   0  0  0  0  0  0  0  0  0  0  0  0
   45.7217    6.0392   11.8453 C   0  0  0  0  0  0  0  0  0  0  0  0
   44.6537    6.9061   11.5732 C   0  0  0  0  0  0  0  0  0  0  0  0
   45.4800    4.6592   11.9005 C   0  0  0  0  0  0  0  0  0  0  0  0
   44.1999    4.1535   11.6702 C   0  0  0  0  0  0  0  0  0  0  0  0
   43.3732    6.3982   11.3436 C   0  0  0  0  0  0  0  0  0  0  0  0
   43.1478    5.0229   11.3890 C   0  0  0  0  0  0  0  0  0  0  0  0
   47.5655    8.5604   12.2380 C   0  0  0  0  0  0  0  0  0  0  0  0
   46.4921    7.5567   12.4715 C   0  0  0  0  0  0  0  0  0  0  0  0
   47.3569    9.6863   11.8170 O   0  0  0  0  0  0  0  0  0  0  0  0
   45.1869    7.8754   12.0801 C   0  0  0  0  0  0  0  0  0  0  0  0
   46.7359    6.3265   13.0940 C   0  0  0  0  0  0  0  0  0  0  0  0
   48.7739    8.0374   12.5469 O   0  0  0  0  0  0  0  0  0  0  0  0
   44.3959    5.7092   12.8484 C   0  0  0  0  0  0  0  0  0  0  0  0
   50.7464    8.2317   14.7426 N   0  0  0  0  0  0  0  0  0  0  0  0
   43.3352    4.8549   13.1628 N   0  0  0  0  0  0  0  0  0  0  0  0
   44.1462    6.9634   12.2860 C   0  0  0  0  0  0  0  0  0  0  0  0
   45.6878    5.4206   13.2952 C   0  0  0  0  0  0  0  0  0  0  0  0
   49.8787    8.9472   12.4426 C   0  0  0  0  0  0  0  0  0  0  0  0
   51.0455    8.4345   13.3063 C   0  0  0  0  0  0  0  0  0  0  0  0
   50.2068    9.4238   15.4147 C   0  0  0  0  0  0  0  0  0  0  0  0
   51.9119    7.6362   15.4174 C   0  0  0  0  0  0  0  0  0  0  0  0
   51.1314   10.6357   15.4858 C   0  0  0  0  0  0  0  0  0  0  0  0
   51.6306    7.1710   16.8427 C   0  0  0  0  0  0  0  0  0  0  0  0
   47.9384    7.6276   13.6871 H   0  0  0  0  0  0  0  0  0  0  0  0
   49.2182    8.3963   14.0111 H   0  0  0  0  0  0  0  0  0  0  0  0
   49.4218    7.2800   16.6865 H   0  0  0  0  0  0  0  0  0  0  0  0
   47.2663    8.3013   15.9933 H   0  0  0  0  0  0  0  0  0  0  0  0
   51.1414   10.8712   15.8041 H   0  0  0  0  0  0  0  0  0  0  0  0
   47.7723    8.8064   13.1765 H   0  0  0  0  0  0  0  0  0  0  0  0
   47.8632    5.8829   11.7219 H   0  0  0  0  0  0  0  0  0  0  0  0
   47.2464    7.5064   11.5340 H   0  0  0  0  0  0  0  0  0  0  0  0
   53.4007   10.0587   18.2394 H   0  0  0  0  0  0  0  0  0  0  0  0
   53.5154    8.1744   13.8507 H   0  0  0  0  0  0  0  0  0  0  0  0
   53.4277    8.0220   15.6061 H   0  0  0  0  0  0  0  0  0  0  0  0
   53.8046    9.5850   14.8650 H   0  0  0  0  0  0  0  0  0  0  0  0
   51.9652   10.8257   13.4841 H   0  0  0  0  0  0  0  0  0  0  0  0
   51.8162    9.3432   12.5402 H   0  0  0  0  0  0  0  0  0  0  0  0
   50.3824   10.0748   13.2687 H   0  0  0  0  0  0  0  0  0  0  0  0
   44.8084    7.9830   11.5378 H   0  0  0  0  0  0  0  0  0  0  0  0
   46.2886    3.9697   12.1379 H   0  0  0  0  0  0  0  0  0  0  0  0
   44.0246    3.0815   11.7194 H   0  0  0  0  0  0  0  0  0  0  0  0
   42.5487    7.0736   11.1313 H   0  0  0  0  0  0  0  0  0  0  0  0
   42.1498    4.6300   11.2136 H   0  0  0  0  0  0  0  0  0  0  0  0
   44.9704    8.8405   11.6256 H   0  0  0  0  0  0  0  0  0  0  0  0
   47.7318    6.0670   13.4471 H   0  0  0  0  0  0  0  0  0  0  0  0
   43.6043    3.8802   13.2579 H   0  0  0  0  0  0  0  0  0  0  0  0
   42.5165    4.9754   12.5740 H   0  0  0  0  0  0  0  0  0  0  0  0
   43.1363    7.2451   12.0010 H   0  0  0  0  0  0  0  0  0  0  0  0
   45.8922    4.4850   13.8101 H   0  0  0  0  0  0  0  0  0  0  0  0
   50.1968    8.9733   11.3933 H   0  0  0  0  0  0  0  0  0  0  0  0
   49.5974    9.9637   12.7404 H   0  0  0  0  0  0  0  0  0  0  0  0
   51.3380    7.4614   12.8894 H   0  0  0  0  0  0  0  0  0  0  0  0
   51.9032    9.1067   13.1796 H   0  0  0  0  0  0  0  0  0  0  0  0
   49.8922    9.1623   16.4326 H   0  0  0  0  0  0  0  0  0  0  0  0
   49.2697    9.7252   14.9300 H   0  0  0  0  0  0  0  0  0  0  0  0
   52.7695    8.3198   15.4154 H   0  0  0  0  0  0  0  0  0  0  0  0
   52.2258    6.7459   14.8570 H   0  0  0  0  0  0  0  0  0  0  0  0
   52.0519   10.4142   16.0339 H   0  0  0  0  0  0  0  0  0  0  0  0
   50.6267   11.4512   16.0134 H   0  0  0  0  0  0  0  0  0  0  0  0
   51.3947   11.0031   14.4898 H   0  0  0  0  0  0  0  0  0  0  0  0
   52.4993    6.6295   17.2325 H   0  0  0  0  0  0  0  0  0  0  0  0
   50.7728    6.4927   16.8732 H   0  0  0  0  0  0  0  0  0  0  0  0
   51.4388    8.0083   17.5185 H   0  0  0  0  0  0  0  0  0  0  0  0
  3  2  1  0
  4  2  1  0
  5  4  1  0
  6  2  1  0
  3  7  1  0
  8  6  1  0
  5  9  1  0
  6 10  1  0
 11  9  1  0
 12  4  2  0
 13 10  2  0
 14 11  2  0
 15 11  1  0
 16 10  1  0
 17  8  1  0
 18  8  1  0
 19 15  1  0
 20 19  2  0
 21 19  1  0
 22 21  2  0
 23 20  1  0
 24 22  1  0
  7  8  1  0
  5  3  1  0
 24 23  2  0
 26 25  1  0
 27 25  2  0
 28 26  2  0
 29 26  1  0
 30 25  1  0
 31 35  1  0
 32 37  1  0
 33 31  1  0
 34 28  1  0
 35 29  2  0
 36 30  1  0
 37 36  1  0
 38 32  1  0
 39 32  1  0
 40 38  1  0
 41 39  1  0
 31 34  2  0
  1 42  1  0
  1 43  1  0
  3 44  1  1
  5 45  1  1
  6 46  1  1
  9 47  1  0
 15 48  1  0
 15 49  1  0
 16 50  1  0
 17 51  1  0
 17 52  1  0
 17 53  1  0
 18 54  1  0
 18 55  1  0
 18 56  1  0
 20 57  1  0
 21 58  1  0
 22 59  1  0
 23 60  1  0
 24 61  1  0
 28 62  1  0
 29 63  1  0
 33 64  1  0
 33 65  1  0
 34 66  1  0
 35 67  1  0
 36 68  1  0
 36 69  1  0
 37 70  1  0
 37 71  1  0
 38 72  1  0
 38 73  1  0
 39 74  1  0
 39 75  1  0
 40 76  1  0
 40 77  1  0
 40 78  1  0
 41 79  1  0
 41 80  1  0
 41 81  1  0
M  END
> <Uni-Dock RESULT> 
ENERGY=   -5.014  LOWER_BOUND=    0.006  UPPER_BOUND=    0.006
INTER + INTRA:          -5.014
INTER:                  -5.014
INTRA:                   0.000
UNBOUND:                 0.000

$$$$

     RDKit          3D

 81 82  0  0  0  0  0  0  0  0999 V2000
   47.7872    8.4733   12.4561 O   0  0  0  0  0  0  0  0  0  0  0  0
   50.3643    9.4332   11.9442 N   0  0  0  0  0  0  0  0  0  0  0  0
   48.9400    9.4673   11.5673 C   0  0  1  0  0  0  0  0  0  0  0  0
   50.3238    8.1305   12.3478 C   0  0  0  0  0  0  0  0  0  0  0  0
   48.9333    7.9180   11.7042 C   0  0  1  0  0  0  0  0  0  0  0  0
   50.8467   10.4956   12.8181 C   0  0  2  0  0  0  0  0  0  0  0  0
   48.1163   10.4388   12.8976 S   0  0  0  0  0  0  0  0  0  0  0  0
   49.6899   10.8898   13.7627 C   0  0  0  0  0  0  0  0  0  0  0  0
   47.9003    7.3033   12.5812 N   0  0  0  0  0  0  0  0  0  0  0  0
   51.3393   11.6321   11.9254 C   0  0  0  0  0  0  0  0  0  0  0  0
   46.5711    7.3155   12.2166 C   0  0  0  0  0  0  0  0  0  0  0  0
   51.0691    7.4924   13.0550 O   0  0  0  0  0  0  0  0  0  0  0  0
   50.9661   11.9048   10.7954 O   0  0  0  0  0  0  0  0  0  0  0  0
   46.1988    7.7753   11.1399 O   0  0  0  0  0  0  0  0  0  0  0  0
   45.6240    6.7428   13.2556 C   0  0  0  0  0  0  0  0  0  0  0  0
   52.2817   12.3933   12.5231 O   0  0  0  0  0  0  0  0  0  0  0  0
   49.6242   12.3802   14.1206 C   0  0  0  0  0  0  0  0  0  0  0  0
   49.7432   10.0773   15.0674 C   0  0  0  0  0  0  0  0  0  0  0  0
   44.8281    5.5691   12.7427 C   0  0  0  0  0  0  0  0  0  0  0  0
   45.2884    4.2571   12.9248 C   0  0  0  0  0  0  0  0  0  0  0  0
   43.6260    5.7780   12.0518 C   0  0  0  0  0  0  0  0  0  0  0  0
   42.8888    4.6965   11.5681 C   0  0  0  0  0  0  0  0  0  0  0  0
   44.5494    3.1761   12.4395 C   0  0  0  0  0  0  0  0  0  0  0  0
   43.3492    3.3960   11.7647 C   0  0  0  0  0  0  0  0  0  0  0  0
   47.4690    6.6018   14.1098 C   0  0  0  0  0  0  0  0  0  0  0  0
   46.5548    5.9806   13.1136 C   0  0  0  0  0  0  0  0  0  0  0  0
   48.2089    5.9614   14.8385 O   0  0  0  0  0  0  0  0  0  0  0  0
   46.4488    4.5855   13.0874 C   0  0  0  0  0  0  0  0  0  0  0  0
   45.8269    6.7371   12.1873 C   0  0  0  0  0  0  0  0  0  0  0  0
   47.3445    7.9483   14.0872 O   0  0  0  0  0  0  0  0  0  0  0  0
   44.8287    4.7130   11.2798 C   0  0  0  0  0  0  0  0  0  0  0  0
   48.8601   10.2696   13.0554 N   0  0  0  0  0  0  0  0  0  0  0  0
   44.0844    4.0795   10.2807 N   0  0  0  0  0  0  0  0  0  0  0  0
   45.6054    3.9596   12.1633 C   0  0  0  0  0  0  0  0  0  0  0  0
   44.9854    6.1013   11.2669 C   0  0  0  0  0  0  0  0  0  0  0  0
   48.2444    8.6603   14.9490 C   0  0  0  0  0  0  0  0  0  0  0  0
   48.3893   10.1097   14.4505 C   0  0  0  0  0  0  0  0  0  0  0  0
   50.1335    9.5896   12.7728 C   0  0  0  0  0  0  0  0  0  0  0  0
   48.8423   11.6937   12.6813 C   0  0  0  0  0  0  0  0  0  0  0  0
   51.3521   10.0906   13.5427 C   0  0  0  0  0  0  0  0  0  0  0  0
   49.0837   11.9463   11.1964 C   0  0  0  0  0  0  0  0  0  0  0  0
   47.4146    7.6018   12.6586 H   0  0  0  0  0  0  0  0  0  0  0  0
   48.4243    8.6280   13.1695 H   0  0  0  0  0  0  0  0  0  0  0  0
   48.7756    9.8466   10.5548 H   0  0  0  0  0  0  0  0  0  0  0  0
   49.0058    7.3812   10.7498 H   0  0  0  0  0  0  0  0  0  0  0  0
   51.7101   10.1114   13.3746 H   0  0  0  0  0  0  0  0  0  0  0  0
   48.1634    6.9611   13.4992 H   0  0  0  0  0  0  0  0  0  0  0  0
   44.9509    7.5486   13.5746 H   0  0  0  0  0  0  0  0  0  0  0  0
   46.1725    6.4442   14.1573 H   0  0  0  0  0  0  0  0  0  0  0  0
   52.5131   13.0617   11.8429 H   0  0  0  0  0  0  0  0  0  0  0  0
   48.7920   12.5953   14.8026 H   0  0  0  0  0  0  0  0  0  0  0  0
   49.4910   13.0168   13.2387 H   0  0  0  0  0  0  0  0  0  0  0  0
   50.5415   12.6985   14.6277 H   0  0  0  0  0  0  0  0  0  0  0  0
   50.6776   10.2781   15.6038 H   0  0  0  0  0  0  0  0  0  0  0  0
   48.9206   10.3434   15.7427 H   0  0  0  0  0  0  0  0  0  0  0  0
   49.6906    8.9967   14.8971 H   0  0  0  0  0  0  0  0  0  0  0  0
   46.2250    4.0649   13.4450 H   0  0  0  0  0  0  0  0  0  0  0  0
   43.2641    6.7895   11.8743 H   0  0  0  0  0  0  0  0  0  0  0  0
   41.9598    4.8719   11.0306 H   0  0  0  0  0  0  0  0  0  0  0  0
   44.9090    2.1608   12.5844 H   0  0  0  0  0  0  0  0  0  0  0  0
   42.7774    2.5535   11.3847 H   0  0  0  0  0  0  0  0  0  0  0  0
   47.0324    3.9776   13.7764 H   0  0  0  0  0  0  0  0  0  0  0  0
   45.9198    7.8208   12.1551 H   0  0  0  0  0  0  0  0  0  0  0  0
   43.3274    4.6451    9.9082 H   0  0  0  0  0  0  0  0  0  0  0  0
   43.7841    3.1391   10.5197 H   0  0  0  0  0  0  0  0  0  0  0  0
   45.5622    2.8740   12.1422 H   0  0  0  0  0  0  0  0  0  0  0  0
   44.4545    6.7048   10.5347 H   0  0  0  0  0  0  0  0  0  0  0  0
   47.8097    8.6716   15.9559 H   0  0  0  0  0  0  0  0  0  0  0  0
   49.2244    8.1728   15.0047 H   0  0  0  0  0  0  0  0  0  0  0  0
   47.3911   10.5632   14.5162 H   0  0  0  0  0  0  0  0  0  0  0  0
   49.0364   10.6607   15.1442 H   0  0  0  0  0  0  0  0  0  0  0  0
   50.3501    9.6443   11.6988 H   0  0  0  0  0  0  0  0  0  0  0  0
   50.0222    8.5131   12.9537 H   0  0  0  0  0  0  0  0  0  0  0  0
   49.5592   12.2736   13.2750 H   0  0  0  0  0  0  0  0  0  0  0  0
   47.8499   12.1046   12.9083 H   0  0  0  0  0  0  0  0  0  0  0  0
   51.5605   11.1442   13.3347 H   0  0  0  0  0  0  0  0  0  0  0  0
   52.2357    9.5186   13.2425 H   0  0  0  0  0  0  0  0  0  0  0  0
   51.2298    9.9625   14.6221 H   0  0  0  0  0  0  0  0  0  0  0  0
   48.9318   13.0078   10.9730 H   0  0  0  0  0  0  0  0  0  0  0  0
   48.3850   11.3720   10.5809 H   0  0  0  0  0  0  0  0  0  0  0  0
   50.1038   11.6933   10.8964 H   0  0  0  0  0  0  0  0  0  0  0  0
  3  2  1  0
  4  2  1  0
  5  4  1  0
  6  2  1  0
  3  7  1  0
  8  6  1  0
  5  9  1  0
  6 10  1  0
 11  9  1  0
 12  4  2  0
 13 10  2  0
 14 11  2  0
 15 11  1  0
 16 10  1  0
 17  8  1  0
 18  8  1  0
 19 15  1  0
 20 19  2  0
 21 19  1  0
 22 21  2  0
 23 20  1  0
 24 22  1  0
  7  8  1  0
  5  3  1  0
 24 23  2  0
 26 25  1  0
 27 25  2  0
 28 26  2  0
 29 26  1  0
 30 25  1  0
 31 35  1  0
 32 37  1  0
 33 31  1  0
 34 28  1  0
 35 29  2  0
 36 30  1  0
 37 36  1  0
 38 32  1  0
 39 32  1  0
 40 38  1  0
 41 39  1  0
 31 34  2  0
  1 42  1  0
  1 43  1  0
  3 44  1  1
  5 45  1  1
  6 46  1  1
  9 47  1  0
 15 48  1  0
 15 49  1  0
 16 50  1  0
 17 51  1  0
 17 52  1  0
 17 53  1  0
 18 54  1  0
 18 55  1  0
 18 56  1  0
 20 57  1  0
 21 58  1  0
 22 59  1  0
 23 60  1  0
 24 61  1  0
 28 62  1  0
 29 63  1  0
 33 64  1  0
 33 65  1  0
 34 66  1  0
 35 67  1  0
 36 68  1  0
 36 69  1  0
 37 70  1  0
 37 71  1  0
 38 72  1  0
 38 73  1  0
 39 74  1  0
 39 75  1  0
 40 76  1  0
 40 77  1  0
 40 78  1  0
 41 79  1  0
 41 80  1  0
 41 81  1  0
M  END
> <Uni-Dock RESULT> 
ENERGY=   -4.761  LOWER_BOUND=    2.172  UPPER_BOUND=    3.721
INTER + INTRA:          -4.761
INTER:                  -4.761
INTRA:                   0.000
UNBOUND:                 0.000

$$$$

     RDKit          3D

 81 82  0  0  0  0  0  0  0  0999 V2000
   48.3427    9.3076   19.1415 O   0  0  0  0  0  0  0  0  0  0  0  0
   49.8911   11.6154   19.4593 N   0  0  0  0  0  0  0  0  0  0  0  0
   48.9968   10.8442   18.5777 C   0  0  1  0  0  0  0  0  0  0  0  0
   50.4135   10.5059   20.0574 C   0  0  0  0  0  0  0  0  0  0  0  0
   49.7901    9.5724   18.9931 C   0  0  1  0  0  0  0  0  0  0  0  0
   49.2928   12.6972   20.2318 C   0  0  2  0  0  0  0  0  0  0  0  0
   47.3139   11.0640   19.2930 S   0  0  0  0  0  0  0  0  0  0  0  0
   47.8468   12.2820   20.5817 C   0  0  0  0  0  0  0  0  0  0  0  0
   49.0183    8.4141   19.5192 N   0  0  0  0  0  0  0  0  0  0  0  0
   49.3918   13.9674   19.3904 C   0  0  0  0  0  0  0  0  0  0  0  0
   48.1998    7.6794   18.6884 C   0  0  0  0  0  0  0  0  0  0  0  0
   51.0128   10.3704   21.0992 O   0  0  0  0  0  0  0  0  0  0  0  0
   49.4386   14.0509   18.1734 O   0  0  0  0  0  0  0  0  0  0  0  0
   48.1220    7.9117   17.4846 O   0  0  0  0  0  0  0  0  0  0  0  0
   47.4000    6.5937   19.3858 C   0  0  0  0  0  0  0  0  0  0  0  0
   49.4071   15.0901   20.1415 O   0  0  0  0  0  0  0  0  0  0  0  0
   46.8288   13.4296   20.5996 C   0  0  0  0  0  0  0  0  0  0  0  0
   47.7939   11.5626   21.9400 C   0  0  0  0  0  0  0  0  0  0  0  0
   47.6834    5.2149   18.8447 C   0  0  0  0  0  0  0  0  0  0  0  0
   48.6652    4.4033   19.4308 C   0  0  0  0  0  0  0  0  0  0  0  0
   46.9835    4.7361   17.7281 C   0  0  0  0  0  0  0  0  0  0  0  0
   47.2463    3.4641   17.2180 C   0  0  0  0  0  0  0  0  0  0  0  0
   48.9272    3.1308   18.9186 C   0  0  0  0  0  0  0  0  0  0  0  0
   48.2159    2.6609   17.8152 C   0  0  0  0  0  0  0  0  0  0  0  0
   48.4606    7.4887   20.8783 C   0  0  0  0  0  0  0  0  0  0  0  0
   48.5533    6.5236   19.7496 C   0  0  0  0  0  0  0  0  0  0  0  0
   49.0483    7.3467   21.9380 O   0  0  0  0  0  0  0  0  0  0  0  0
   49.2571    5.3309   19.9505 C   0  0  0  0  0  0  0  0  0  0  0  0
   47.9921    6.7806   18.4930 C   0  0  0  0  0  0  0  0  0  0  0  0
   47.6369    8.5118   20.5560 O   0  0  0  0  0  0  0  0  0  0  0  0
   48.7613    4.6212   17.6791 C   0  0  0  0  0  0  0  0  0  0  0  0
   47.8806   11.3465   19.7466 N   0  0  0  0  0  0  0  0  0  0  0  0
   48.9852    3.7446   16.6137 N   0  0  0  0  0  0  0  0  0  0  0  0
   49.3740    4.3979   18.9146 C   0  0  0  0  0  0  0  0  0  0  0  0
   48.1142    5.8404   17.4630 C   0  0  0  0  0  0  0  0  0  0  0  0
   47.5392    9.5516   21.5402 C   0  0  0  0  0  0  0  0  0  0  0  0
   47.0508   10.8473   20.8672 C   0  0  0  0  0  0  0  0  0  0  0  0
   49.2949   11.5513   20.0955 C   0  0  0  0  0  0  0  0  0  0  0  0
   47.2369   12.5187   19.1305 C   0  0  0  0  0  0  0  0  0  0  0  0
   49.5825   12.6108   21.1555 C   0  0  0  0  0  0  0  0  0  0  0  0
   47.8867   12.9666   17.8251 C   0  0  0  0  0  0  0  0  0  0  0  0
   48.4699    8.3698   19.3511 H   0  0  0  0  0  0  0  0  0  0  0  0
   48.4235    9.7529   19.9983 H   0  0  0  0  0  0  0  0  0  0  0  0
   49.0873   11.1272   17.5252 H   0  0  0  0  0  0  0  0  0  0  0  0
   50.5336    9.2445   18.2556 H   0  0  0  0  0  0  0  0  0  0  0  0
   49.8998   12.8467   21.1329 H   0  0  0  0  0  0  0  0  0  0  0  0
   49.0178    8.2250   20.5158 H   0  0  0  0  0  0  0  0  0  0  0  0
   46.3361    6.8362   19.2707 H   0  0  0  0  0  0  0  0  0  0  0  0
   47.5889    6.6064   20.4661 H   0  0  0  0  0  0  0  0  0  0  0  0
   49.4873   15.8142   19.4840 H   0  0  0  0  0  0  0  0  0  0  0  0
   45.8254   13.0751   20.8666 H   0  0  0  0  0  0  0  0  0  0  0  0
   46.7460   13.9306   19.6286 H   0  0  0  0  0  0  0  0  0  0  0  0
   47.1078   14.1844   21.3429 H   0  0  0  0  0  0  0  0  0  0  0  0
   48.1379   12.2298   22.7386 H   0  0  0  0  0  0  0  0  0  0  0  0
   46.7720   11.2554   22.1947 H   0  0  0  0  0  0  0  0  0  0  0  0
   48.4225   10.6662   21.9705 H   0  0  0  0  0  0  0  0  0  0  0  0
   49.2344    4.7536   20.2900 H   0  0  0  0  0  0  0  0  0  0  0  0
   46.2367    5.3603   17.2398 H   0  0  0  0  0  0  0  0  0  0  0  0
   46.6992    3.1057   16.3493 H   0  0  0  0  0  0  0  0  0  0  0  0
   49.6879    2.5044   19.3771 H   0  0  0  0  0  0  0  0  0  0  0  0
   48.4239    1.6717   17.4159 H   0  0  0  0  0  0  0  0  0  0  0  0
   49.7301    5.1275   20.9095 H   0  0  0  0  0  0  0  0  0  0  0  0
   47.4748    7.7168   18.2932 H   0  0  0  0  0  0  0  0  0  0  0  0
   48.2791    3.7914   15.8851 H   0  0  0  0  0  0  0  0  0  0  0  0
   49.1877    2.7904   16.8965 H   0  0  0  0  0  0  0  0  0  0  0  0
   49.9504    3.4927   19.0850 H   0  0  0  0  0  0  0  0  0  0  0  0
   47.6997    6.0738   16.4853 H   0  0  0  0  0  0  0  0  0  0  0  0
   46.8016    9.2393   22.2894 H   0  0  0  0  0  0  0  0  0  0  0  0
   48.4949    9.7196   22.0499 H   0  0  0  0  0  0  0  0  0  0  0  0
   46.0505   10.6330   20.4673 H   0  0  0  0  0  0  0  0  0  0  0  0
   46.9284   11.6217   21.6346 H   0  0  0  0  0  0  0  0  0  0  0  0
   49.8660   11.7956   19.1912 H   0  0  0  0  0  0  0  0  0  0  0  0
   49.7334   10.6000   20.4221 H   0  0  0  0  0  0  0  0  0  0  0  0
   47.1904   13.3640   19.8279 H   0  0  0  0  0  0  0  0  0  0  0  0
   46.1975   12.2620   18.8874 H   0  0  0  0  0  0  0  0  0  0  0  0
   49.2382   13.6016   20.8450 H   0  0  0  0  0  0  0  0  0  0  0  0
   50.6621   12.6789   21.3220 H   0  0  0  0  0  0  0  0  0  0  0  0
   49.1181   12.3612   22.1139 H   0  0  0  0  0  0  0  0  0  0  0  0
   47.2834   13.7562   17.3643 H   0  0  0  0  0  0  0  0  0  0  0  0
   47.9521   12.1380   17.1137 H   0  0  0  0  0  0  0  0  0  0  0  0
   48.8890   13.3727   17.9824 H   0  0  0  0  0  0  0  0  0  0  0  0
  3  2  1  0
  4  2  1  0
  5  4  1  0
  6  2  1  0
  3  7  1  0
  8  6  1  0
  5  9  1  0
  6 10  1  0
 11  9  1  0
 12  4  2  0
 13 10  2  0
 14 11  2  0
 15 11  1  0
 16 10  1  0
 17  8  1  0
 18  8  1  0
 19 15  1  0
 20 19  2  0
 21 19  1  0
 22 21  2  0
 23 20  1  0
 24 22  1  0
  7  8  1  0
  5  3  1  0
 24 23  2  0
 26 25  1  0
 27 25  2  0
 28 26  2  0
 29 26  1  0
 30 25  1  0
 31 35  1  0
 32 37  1  0
 33 31  1  0
 34 28  1  0
 35 29  2  0
 36 30  1  0
 37 36  1  0
 38 32  1  0
 39 32  1  0
 40 38  1  0
 41 39  1  0
 31 34  2  0
  1 42  1  0
  1 43  1  0
  3 44  1  1
  5 45  1  1
  6 46  1  1
  9 47  1  0
 15 48  1  0
 15 49  1  0
 16 50  1  0
 17 51  1  0
 17 52  1  0
 17 53  1  0
 18 54  1  0
 18 55  1  0
 18 56  1  0
 20 57  1  0
 21 58  1  0
 22 59  1  0
 23 60  1  0
 24 61  1  0
 28 62  1  0
 29 63  1  0
 33 64  1  0
 33 65  1  0
 34 66  1  0
 35 67  1  0
 36 68  1  0
 36 69  1  0
 37 70  1  0
 37 71  1  0
 38 72  1  0
 38 73  1  0
 39 74  1  0
 39 75  1  0
 40 76  1  0
 40 77  1  0
 40 78  1  0
 41 79  1  0
 41 80  1  0
 41 81  1  0
M  END
> <Uni-Dock RESULT> 
ENERGY=   -4.712  LOWER_BOUND=    5.173  UPPER_BOUND=    7.138
INTER + INTRA:          -4.712
INTER:                  -4.712
INTRA:                   0.000
UNBOUND:                 0.000

$$$$

     RDKit          3D

 81 82  0  0  0  0  0  0  0  0999 V2000
   44.0806   10.5466   11.6005 O   0  0  0  0  0  0  0  0  0  0  0  0
   42.1559   10.8615    9.5952 N   0  0  0  0  0  0  0  0  0  0  0  0
   42.4847   10.2711   10.9048 C   0  0  1  0  0  0  0  0  0  0  0  0
   43.4369   10.7825    9.1321 C   0  0  0  0  0  0  0  0  0  0  0  0
   43.8619    9.8678   10.3049 C   0  0  1  0  0  0  0  0  0  0  0  0
   41.4142   12.1165    9.5987 C   0  0  2  0  0  0  0  0  0  0  0  0
   42.4564   11.6831   12.0869 S   0  0  0  0  0  0  0  0  0  0  0  0
   41.8482   12.9163   10.8469 C   0  0  0  0  0  0  0  0  0  0  0  0
   45.0873   10.2833   11.0396 N   0  0  0  0  0  0  0  0  0  0  0  0
   39.9281   11.7681    9.5655 C   0  0  0  0  0  0  0  0  0  0  0  0
   45.4059    9.7137   12.2537 C   0  0  0  0  0  0  0  0  0  0  0  0
   43.9898   11.3506    8.2187 O   0  0  0  0  0  0  0  0  0  0  0  0
   39.3936   10.7516    9.9795 O   0  0  0  0  0  0  0  0  0  0  0  0
   44.7318    8.8103   12.7423 O   0  0  0  0  0  0  0  0  0  0  0  0
   46.6273   10.3083   12.9313 C   0  0  0  0  0  0  0  0  0  0  0  0
   39.1753   12.7476    9.0189 O   0  0  0  0  0  0  0  0  0  0  0  0
   40.7367   13.7432   11.5060 C   0  0  0  0  0  0  0  0  0  0  0  0
   43.0233   13.8529   10.5195 C   0  0  0  0  0  0  0  0  0  0  0  0
   47.7130    9.2925   13.1835 C   0  0  0  0  0  0  0  0  0  0  0  0
   48.7403    9.0953   12.2496 C   0  0  0  0  0  0  0  0  0  0  0  0
   47.6937    8.5116   14.3478 C   0  0  0  0  0  0  0  0  0  0  0  0
   48.6913    7.5647   14.5834 C   0  0  0  0  0  0  0  0  0  0  0  0
   49.7375    8.1469   12.4869 C   0  0  0  0  0  0  0  0  0  0  0  0
   49.7143    7.3848   13.6543 C   0  0  0  0  0  0  0  0  0  0  0  0
   46.4245   11.3779   11.2084 C   0  0  0  0  0  0  0  0  0  0  0  0
   46.8950   10.0834   11.7715 C   0  0  0  0  0  0  0  0  0  0  0  0
   46.9896   11.9640   10.2997 O   0  0  0  0  0  0  0  0  0  0  0  0
   48.1131    9.5645   11.3183 C   0  0  0  0  0  0  0  0  0  0  0  0
   46.1508    9.3566   12.7084 C   0  0  0  0  0  0  0  0  0  0  0  0
   45.3105   11.7940   11.8526 O   0  0  0  0  0  0  0  0  0  0  0  0
   47.8823    7.6505   12.7988 C   0  0  0  0  0  0  0  0  0  0  0  0
   42.3989   11.9038   11.3421 N   0  0  0  0  0  0  0  0  0  0  0  0
   48.3024    6.3795   13.2008 N   0  0  0  0  0  0  0  0  0  0  0  0
   48.5904    8.3476   11.8168 C   0  0  0  0  0  0  0  0  0  0  0  0
   46.6373    8.1400   13.2014 C   0  0  0  0  0  0  0  0  0  0  0  0
   44.7161   12.9929   11.3341 C   0  0  0  0  0  0  0  0  0  0  0  0
   43.2367   13.0529   11.7562 C   0  0  0  0  0  0  0  0  0  0  0  0
   42.4218   11.6384    9.8954 C   0  0  0  0  0  0  0  0  0  0  0  0
   41.0463   12.0411   11.9075 C   0  0  0  0  0  0  0  0  0  0  0  0
   41.8597   12.7374    8.9982 C   0  0  0  0  0  0  0  0  0  0  0  0
   40.1760   10.7998   11.7377 C   0  0  0  0  0  0  0  0  0  0  0  0
   45.0336   10.3698   11.6059 H   0  0  0  0  0  0  0  0  0  0  0  0
   43.9975   11.3716   11.0991 H   0  0  0  0  0  0  0  0  0  0  0  0
   41.8305    9.4366   11.1729 H   0  0  0  0  0  0  0  0  0  0  0  0
   43.9284    8.8168    9.9962 H   0  0  0  0  0  0  0  0  0  0  0  0
   41.6511   12.6532    8.6721 H   0  0  0  0  0  0  0  0  0  0  0  0
   45.6387   11.0608   10.6926 H   0  0  0  0  0  0  0  0  0  0  0  0
   46.2994   10.7573   13.8772 H   0  0  0  0  0  0  0  0  0  0  0  0
   47.0346   11.1366   12.3387 H   0  0  0  0  0  0  0  0  0  0  0  0
   38.2623   12.3890    9.0479 H   0  0  0  0  0  0  0  0  0  0  0  0
   41.1083   14.2975   12.3769 H   0  0  0  0  0  0  0  0  0  0  0  0
   39.9020   13.1226   11.8509 H   0  0  0  0  0  0  0  0  0  0  0  0
   40.3360   14.4835   10.8050 H   0  0  0  0  0  0  0  0  0  0  0  0
   42.7281   14.5832    9.7576 H   0  0  0  0  0  0  0  0  0  0  0  0
   43.3455   14.4200   11.4017 H   0  0  0  0  0  0  0  0  0  0  0  0
   43.8988   13.3178   10.1366 H   0  0  0  0  0  0  0  0  0  0  0  0
   48.7735    9.6771   11.3302 H   0  0  0  0  0  0  0  0  0  0  0  0
   46.8900    8.6281   15.0731 H   0  0  0  0  0  0  0  0  0  0  0  0
   48.6631    6.9627   15.4885 H   0  0  0  0  0  0  0  0  0  0  0  0
   50.5327    7.9985   11.7611 H   0  0  0  0  0  0  0  0  0  0  0  0
   50.4892    6.6447   13.8354 H   0  0  0  0  0  0  0  0  0  0  0  0
   48.6903   10.0973   10.5648 H   0  0  0  0  0  0  0  0  0  0  0  0
   45.1808    9.7130   13.0491 H   0  0  0  0  0  0  0  0  0  0  0  0
   47.9437    6.0935   14.1070 H   0  0  0  0  0  0  0  0  0  0  0  0
   49.3025    6.2258   13.1137 H   0  0  0  0  0  0  0  0  0  0  0  0
   49.5240    7.9502   11.4279 H   0  0  0  0  0  0  0  0  0  0  0  0
   46.0286    7.5753   13.9034 H   0  0  0  0  0  0  0  0  0  0  0  0
   45.2460   13.8484   11.7701 H   0  0  0  0  0  0  0  0  0  0  0  0
   44.8077   13.0529   10.2436 H   0  0  0  0  0  0  0  0  0  0  0  0
   43.2268   13.0900   12.8539 H   0  0  0  0  0  0  0  0  0  0  0  0
   42.8042   13.9965   11.4011 H   0  0  0  0  0  0  0  0  0  0  0  0
   41.8866   10.7045    9.6835 H   0  0  0  0  0  0  0  0  0  0  0  0
   43.4492   11.4184    9.5792 H   0  0  0  0  0  0  0  0  0  0  0  0
   40.5262   12.9148   11.4965 H   0  0  0  0  0  0  0  0  0  0  0  0
   41.1327   12.2137   12.9883 H   0  0  0  0  0  0  0  0  0  0  0  0
   40.8071   12.9419    9.2152 H   0  0  0  0  0  0  0  0  0  0  0  0
   41.9209   12.4229    7.9515 H   0  0  0  0  0  0  0  0  0  0  0  0
   42.4261   13.6681    9.0945 H   0  0  0  0  0  0  0  0  0  0  0  0
   39.2379   10.9285   12.2884 H   0  0  0  0  0  0  0  0  0  0  0  0
   40.6765    9.9111   12.1335 H   0  0  0  0  0  0  0  0  0  0  0  0
   39.9170   10.6187   10.6915 H   0  0  0  0  0  0  0  0  0  0  0  0
  3  2  1  0
  4  2  1  0
  5  4  1  0
  6  2  1  0
  3  7  1  0
  8  6  1  0
  5  9  1  0
  6 10  1  0
 11  9  1  0
 12  4  2  0
 13 10  2  0
 14 11  2  0
 15 11  1  0
 16 10  1  0
 17  8  1  0
 18  8  1  0
 19 15  1  0
 20 19  2  0
 21 19  1  0
 22 21  2  0
 23 20  1  0
 24 22  1  0
  7  8  1  0
  5  3  1  0
 24 23  2  0
 26 25  1  0
 27 25  2  0
 28 26  2  0
 29 26  1  0
 30 25  1  0
 31 35  1  0
 32 37  1  0
 33 31  1  0
 34 28  1  0
 35 29  2  0
 36 30  1  0
 37 36  1  0
 38 32  1  0
 39 32  1  0
 40 38  1  0
 41 39  1  0
 31 34  2  0
  1 42  1  0
  1 43  1  0
  3 44  1  1
  5 45  1  1
  6 46  1  1
  9 47  1  0
 15 48  1  0
 15 49  1  0
 16 50  1  0
 17 51  1  0
 17 52  1  0
 17 53  1  0
 18 54  1  0
 18 55  1  0
 18 56  1  0
 20 57  1  0
 21 58  1  0
 22 59  1  0
 23 60  1  0
 24 61  1  0
 28 62  1  0
 29 63  1  0
 33 64  1  0
 33 65  1  0
 34 66  1  0
 35 67  1  0
 36 68  1  0
 36 69  1  0
 37 70  1  0
 37 71  1  0
 38 72  1  0
 38 73  1  0
 39 74  1  0
 39 75  1  0
 40 76  1  0
 40 77  1  0
 40 78  1  0
 41 79  1  0
 41 80  1  0
 41 81  1  0
M  END
> <Uni-Dock RESULT> 
ENERGY=   -4.587  LOWER_BOUND=    4.746  UPPER_BOUND=    8.457
INTER + INTRA:          -4.587
INTER:                  -4.587
INTRA:                   0.000
UNBOUND:                 0.000

$$$$

     RDKit          3D

 81 82  0  0  0  0  0  0  0  0999 V2000
   44.0435   12.9661   10.8936 O   0  0  0  0  0  0  0  0  0  0  0  0
   45.9484   13.7043    8.9828 N   0  0  0  0  0  0  0  0  0  0  0  0
   45.0039   14.1577   10.0192 C   0  0  1  0  0  0  0  0  0  0  0  0
   45.1884   12.6287    8.6267 C   0  0  0  0  0  0  0  0  0  0  0  0
   43.9738   13.1532    9.4282 C   0  0  1  0  0  0  0  0  0  0  0  0
   47.3463   13.5647    9.3721 C   0  0  2  0  0  0  0  0  0  0  0  0
   45.7994   13.7123   11.6194 S   0  0  0  0  0  0  0  0  0  0  0  0
   47.3811   13.1291   10.8537 C   0  0  0  0  0  0  0  0  0  0  0  0
   43.3419   12.1792   10.3589 N   0  0  0  0  0  0  0  0  0  0  0  0
   48.0319   14.9010    9.0976 C   0  0  0  0  0  0  0  0  0  0  0  0
   42.4410   12.6015   11.3128 C   0  0  0  0  0  0  0  0  0  0  0  0
   45.4702   11.6195    8.0226 O   0  0  0  0  0  0  0  0  0  0  0  0
   47.5199   16.0091    9.0790 O   0  0  0  0  0  0  0  0  0  0  0  0
   42.0839   13.7742   11.3926 O   0  0  0  0  0  0  0  0  0  0  0  0
   41.9577   11.5125   12.2536 C   0  0  0  0  0  0  0  0  0  0  0  0
   49.3581   14.7704    8.8759 O   0  0  0  0  0  0  0  0  0  0  0  0
   48.5445   13.7044   11.6717 C   0  0  0  0  0  0  0  0  0  0  0  0
   47.4102   11.5963   10.9763 C   0  0  0  0  0  0  0  0  0  0  0  0
   40.4621   11.3230   12.2151 C   0  0  0  0  0  0  0  0  0  0  0  0
   39.8818   10.3769   11.3581 C   0  0  0  0  0  0  0  0  0  0  0  0
   39.6287   12.1122   13.0204 C   0  0  0  0  0  0  0  0  0  0  0  0
   38.2435   11.9469   12.9838 C   0  0  0  0  0  0  0  0  0  0  0  0
   38.4953   10.2133   11.3225 C   0  0  0  0  0  0  0  0  0  0  0  0
   37.6777   10.9957   12.1372 C   0  0  0  0  0  0  0  0  0  0  0  0
   43.2729   10.5722   11.0127 C   0  0  0  0  0  0  0  0  0  0  0  0
   41.8871   11.1045   11.1152 C   0  0  0  0  0  0  0  0  0  0  0  0
   43.5593    9.5448   10.4204 O   0  0  0  0  0  0  0  0  0  0  0  0
   40.8380   10.3303   10.6070 C   0  0  0  0  0  0  0  0  0  0  0  0
   41.6027   12.3582   11.6695 C   0  0  0  0  0  0  0  0  0  0  0  0
   44.1365   11.3787   11.6707 O   0  0  0  0  0  0  0  0  0  0  0  0
   39.2248   12.0165   11.2871 C   0  0  0  0  0  0  0  0  0  0  0  0
   46.1695   13.4198   10.9996 N   0  0  0  0  0  0  0  0  0  0  0  0
   37.9251   12.5288   11.2438 N   0  0  0  0  0  0  0  0  0  0  0  0
   39.5203   10.7949   10.6773 C   0  0  0  0  0  0  0  0  0  0  0  0
   40.2807   12.8140   11.7356 C   0  0  0  0  0  0  0  0  0  0  0  0
   45.5192   11.0091   11.5659 C   0  0  0  0  0  0  0  0  0  0  0  0
   46.3996   12.2372   11.8610 C   0  0  0  0  0  0  0  0  0  0  0  0
   46.2888   13.1426    9.5598 C   0  0  0  0  0  0  0  0  0  0  0  0
   46.9946   14.5468   11.4658 C   0  0  0  0  0  0  0  0  0  0  0  0
   47.6636   12.6974    9.0694 C   0  0  0  0  0  0  0  0  0  0  0  0
   46.6608   15.8763   10.7965 C   0  0  0  0  0  0  0  0  0  0  0  0
   43.3106   12.3322   10.9126 H   0  0  0  0  0  0  0  0  0  0  0  0
   44.8227   12.4190   10.7131 H   0  0  0  0  0  0  0  0  0  0  0  0
   44.7357   15.2133    9.9196 H   0  0  0  0  0  0  0  0  0  0  0  0
   43.2226   13.6117    8.7727 H   0  0  0  0  0  0  0  0  0  0  0  0
   47.8070   12.8138    8.7190 H   0  0  0  0  0  0  0  0  0  0  0  0
   43.6507   11.2129   10.3564 H   0  0  0  0  0  0  0  0  0  0  0  0
   42.2813   11.7788   13.2676 H   0  0  0  0  0  0  0  0  0  0  0  0
   42.4510   10.5590   12.0289 H   0  0  0  0  0  0  0  0  0  0  0  0
   49.6608   15.6875    8.7019 H   0  0  0  0  0  0  0  0  0  0  0  0
   48.5226   13.3495   12.7097 H   0  0  0  0  0  0  0  0  0  0  0  0
   48.5312   14.7996   11.7051 H   0  0  0  0  0  0  0  0  0  0  0  0
   49.5065   13.3941   11.2496 H   0  0  0  0  0  0  0  0  0  0  0  0
   48.3124   11.1929   10.5024 H   0  0  0  0  0  0  0  0  0  0  0  0
   47.4265   11.2754   12.0253 H   0  0  0  0  0  0  0  0  0  0  0  0
   46.5490   11.1157   10.5002 H   0  0  0  0  0  0  0  0  0  0  0  0
   40.5026    9.7596   10.7113 H   0  0  0  0  0  0  0  0  0  0  0  0
   40.0559   12.8724   13.6724 H   0  0  0  0  0  0  0  0  0  0  0  0
   37.6077   12.5678   13.6106 H   0  0  0  0  0  0  0  0  0  0  0  0
   38.0499    9.4776   10.6581 H   0  0  0  0  0  0  0  0  0  0  0  0
   36.5987   10.8693   12.1053 H   0  0  0  0  0  0  0  0  0  0  0  0
   41.0418    9.3678   10.1411 H   0  0  0  0  0  0  0  0  0  0  0  0
   42.4006   13.0013   12.0352 H   0  0  0  0  0  0  0  0  0  0  0  0
   37.7318   13.2255   11.9572 H   0  0  0  0  0  0  0  0  0  0  0  0
   37.2007   11.8191   11.1887 H   0  0  0  0  0  0  0  0  0  0  0  0
   38.7259   10.1895   10.2493 H   0  0  0  0  0  0  0  0  0  0  0  0
   40.0848   13.8042   12.1396 H   0  0  0  0  0  0  0  0  0  0  0  0
   45.7204   10.2373   12.3186 H   0  0  0  0  0  0  0  0  0  0  0  0
   45.7552   10.5948   10.5791 H   0  0  0  0  0  0  0  0  0  0  0  0
   46.1825   12.5351   12.8956 H   0  0  0  0  0  0  0  0  0  0  0  0
   47.4535   11.9340   11.8307 H   0  0  0  0  0  0  0  0  0  0  0  0
   45.9814   14.0267    8.9876 H   0  0  0  0  0  0  0  0  0  0  0  0
   45.5503   12.3846    9.2701 H   0  0  0  0  0  0  0  0  0  0  0  0
   48.0646   14.3352   11.3516 H   0  0  0  0  0  0  0  0  0  0  0  0
   46.8212   14.6886   12.5406 H   0  0  0  0  0  0  0  0  0  0  0  0
   48.4290   13.4555    9.2593 H   0  0  0  0  0  0  0  0  0  0  0  0
   47.6308   12.5318    7.9879 H   0  0  0  0  0  0  0  0  0  0  0  0
   47.9752   11.7582    9.5355 H   0  0  0  0  0  0  0  0  0  0  0  0
   47.2217   16.6838   11.2795 H   0  0  0  0  0  0  0  0  0  0  0  0
   45.5955   16.1073   10.8897 H   0  0  0  0  0  0  0  0  0  0  0  0
   46.9288   15.8824    9.7370 H   0  0  0  0  0  0  0  0  0  0  0  0
  3  2  1  0
  4  2  1  0
  5  4  1  0
  6  2  1  0
  3  7  1  0
  8  6  1  0
  5  9  1  0
  6 10  1  0
 11  9  1  0
 12  4  2  0
 13 10  2  0
 14 11  2  0
 15 11  1  0
 16 10  1  0
 17  8  1  0
 18  8  1  0
 19 15  1  0
 20 19  2  0
 21 19  1  0
 22 21  2  0
 23 20  1  0
 24 22  1  0
  7  8  1  0
  5  3  1  0
 24 23  2  0
 26 25  1  0
 27 25  2  0
 28 26  2  0
 29 26  1  0
 30 25  1  0
 31 35  1  0
 32 37  1  0
 33 31  1  0
 34 28  1  0
 35 29  2  0
 36 30  1  0
 37 36  1  0
 38 32  1  0
 39 32  1  0
 40 38  1  0
 41 39  1  0
 31 34  2  0
  1 42  1  0
  1 43  1  0
  3 44  1  1
  5 45  1  1
  6 46  1  1
  9 47  1  0
 15 48  1  0
 15 49  1  0
 16 50  1  0
 17 51  1  0
 17 52  1  0
 17 53  1  0
 18 54  1  0
 18 55  1  0
 18 56  1  0
 20 57  1  0
 21 58  1  0
 22 59  1  0
 23 60  1  0
 24 61  1  0
 28 62  1  0
 29 63  1  0
 33 64  1  0
 33 65  1  0
 34 66  1  0
 35 67  1  0
 36 68  1  0
 36 69  1  0
 37 70  1  0
 37 71  1  0
 38 72  1  0
 38 73  1  0
 39 74  1  0
 39 75  1  0
 40 76  1  0
 40 77  1  0
 40 78  1  0
 41 79  1  0
 41 80  1  0
 41 81  1  0
M  END
> <Uni-Dock RESULT> 
ENERGY=   -4.484  LOWER_BOUND=    6.188  UPPER_BOUND=    8.093
INTER + INTRA:          -4.484
INTER:                  -4.484
INTRA:                   0.000
UNBOUND:                 0.000

$$$$

     RDKit          3D

 81 82  0  0  0  0  0  0  0  0999 V2000
   49.0823   10.6211   19.1482 O   0  0  0  0  0  0  0  0  0  0  0  0
   50.7582   12.7615   18.4887 N   0  0  0  0  0  0  0  0  0  0  0  0
   50.4167   11.3472   18.2542 C   0  0  1  0  0  0  0  0  0  0  0  0
   50.3757   12.7349   19.7981 C   0  0  0  0  0  0  0  0  0  0  0  0
   50.2836   11.1908   19.7960 C   0  0  1  0  0  0  0  0  0  0  0  0
   50.2229   13.7396   17.5496 C   0  0  2  0  0  0  0  0  0  0  0  0
   48.8608   11.3877   17.2695 S   0  0  0  0  0  0  0  0  0  0  0  0
   48.8459   13.2286   17.0717 C   0  0  0  0  0  0  0  0  0  0  0  0
   49.0186   10.6162   20.3286 N   0  0  0  0  0  0  0  0  0  0  0  0
   51.2493   13.9078   16.4318 C   0  0  0  0  0  0  0  0  0  0  0  0
   48.7110    9.2876   20.1283 C   0  0  0  0  0  0  0  0  0  0  0  0
   50.1014   13.6283   20.5658 O   0  0  0  0  0  0  0  0  0  0  0  0
   52.0698   13.0899   16.0469 O   0  0  0  0  0  0  0  0  0  0  0  0
   49.4862    8.5214   19.5615 O   0  0  0  0  0  0  0  0  0  0  0  0
   47.3441    8.8698   20.6399 C   0  0  0  0  0  0  0  0  0  0  0  0
   51.1730   15.1157   15.8318 O   0  0  0  0  0  0  0  0  0  0  0  0
   48.5083   13.5459   15.6091 C   0  0  0  0  0  0  0  0  0  0  0  0
   47.7168   13.7747   17.9618 C   0  0  0  0  0  0  0  0  0  0  0  0
   47.4125    7.7722   21.6718 C   0  0  0  0  0  0  0  0  0  0  0  0
   47.4619    8.0772   23.0396 C   0  0  0  0  0  0  0  0  0  0  0  0
   47.4537    6.4287   21.2730 C   0  0  0  0  0  0  0  0  0  0  0  0
   47.5246    5.4087   22.2228 C   0  0  0  0  0  0  0  0  0  0  0  0
   47.5333    7.0551   23.9886 C   0  0  0  0  0  0  0  0  0  0  0  0
   47.5614    5.7222   23.5801 C   0  0  0  0  0  0  0  0  0  0  0  0
   47.4636   10.8601   21.0616 C   0  0  0  0  0  0  0  0  0  0  0  0
   47.9050    9.5092   21.5024 C   0  0  0  0  0  0  0  0  0  0  0  0
   47.1679   11.7585   21.8323 O   0  0  0  0  0  0  0  0  0  0  0  0
   47.8696    9.2110   22.8692 C   0  0  0  0  0  0  0  0  0  0  0  0
   48.3813    8.5446   20.6064 C   0  0  0  0  0  0  0  0  0  0  0  0
   47.4327   10.9276   19.7112 O   0  0  0  0  0  0  0  0  0  0  0  0
   48.6964    6.9676   22.4314 C   0  0  0  0  0  0  0  0  0  0  0  0
   49.0727   12.0870   17.5395 N   0  0  0  0  0  0  0  0  0  0  0  0
   49.2207    5.7618   22.9055 N   0  0  0  0  0  0  0  0  0  0  0  0
   48.2810    7.9550   23.3280 C   0  0  0  0  0  0  0  0  0  0  0  0
   48.7902    7.2906   21.0754 C   0  0  0  0  0  0  0  0  0  0  0  0
   47.1034   12.2155   19.1707 C   0  0  0  0  0  0  0  0  0  0  0  0
   47.6199   12.3089   17.7233 C   0  0  0  0  0  0  0  0  0  0  0  0
   49.9199   12.9707   18.3550 C   0  0  0  0  0  0  0  0  0  0  0  0
   49.4024   12.0934   16.1044 C   0  0  0  0  0  0  0  0  0  0  0  0
   49.8211   14.4642   18.0576 C   0  0  0  0  0  0  0  0  0  0  0  0
   50.8263   11.6422   15.7948 C   0  0  0  0  0  0  0  0  0  0  0  0
   48.7224   10.2703   19.9770 H   0  0  0  0  0  0  0  0  0  0  0  0
   48.7561   11.5329   19.1177 H   0  0  0  0  0  0  0  0  0  0  0  0
   51.2332   10.7813   17.7969 H   0  0  0  0  0  0  0  0  0  0  0  0
   51.1555   10.7317   20.2791 H   0  0  0  0  0  0  0  0  0  0  0  0
   50.1388   14.7004   18.0716 H   0  0  0  0  0  0  0  0  0  0  0  0
   48.3322   11.2290   20.7557 H   0  0  0  0  0  0  0  0  0  0  0  0
   46.7496    8.5442   19.7771 H   0  0  0  0  0  0  0  0  0  0  0  0
   46.8074    9.7299   21.0586 H   0  0  0  0  0  0  0  0  0  0  0  0
   51.8858   15.0910   15.1577 H   0  0  0  0  0  0  0  0  0  0  0  0
   47.5151   13.1700   15.3333 H   0  0  0  0  0  0  0  0  0  0  0  0
   49.2261   13.1041   14.9088 H   0  0  0  0  0  0  0  0  0  0  0  0
   48.4975   14.6279   15.4391 H   0  0  0  0  0  0  0  0  0  0  0  0
   47.6874   14.8691   17.9120 H   0  0  0  0  0  0  0  0  0  0  0  0
   46.7342   13.4110   17.6362 H   0  0  0  0  0  0  0  0  0  0  0  0
   47.8354   13.4991   19.0150 H   0  0  0  0  0  0  0  0  0  0  0  0
   47.4456    9.1115   23.3784 H   0  0  0  0  0  0  0  0  0  0  0  0
   47.4449    6.1699   20.2154 H   0  0  0  0  0  0  0  0  0  0  0  0
   47.5597    4.3707   21.9005 H   0  0  0  0  0  0  0  0  0  0  0  0
   47.5698    7.2959   25.0477 H   0  0  0  0  0  0  0  0  0  0  0  0
   47.6206    4.9284   24.3200 H   0  0  0  0  0  0  0  0  0  0  0  0
   47.5350    9.9591   23.5857 H   0  0  0  0  0  0  0  0  0  0  0  0
   48.4601    8.7608   19.5429 H   0  0  0  0  0  0  0  0  0  0  0  0
   49.1942    5.0053   22.2283 H   0  0  0  0  0  0  0  0  0  0  0  0
   48.8624    5.4818   23.8137 H   0  0  0  0  0  0  0  0  0  0  0  0
   48.2727    7.7570   24.3963 H   0  0  0  0  0  0  0  0  0  0  0  0
   49.1878    6.5677   20.3672 H   0  0  0  0  0  0  0  0  0  0  0  0
   46.0108   12.3105   19.1659 H   0  0  0  0  0  0  0  0  0  0  0  0
   47.5151   13.0288   19.7792 H   0  0  0  0  0  0  0  0  0  0  0  0
   47.0925   11.5321   17.1533 H   0  0  0  0  0  0  0  0  0  0  0  0
   47.3182   13.2752   17.3003 H   0  0  0  0  0  0  0  0  0  0  0  0
   50.9690   12.6632   18.2631 H   0  0  0  0  0  0  0  0  0  0  0  0
   49.7015   12.8093   19.4181 H   0  0  0  0  0  0  0  0  0  0  0  0
   49.2219   13.0776   15.6555 H   0  0  0  0  0  0  0  0  0  0  0  0
   48.7353   11.3915   15.5871 H   0  0  0  0  0  0  0  0  0  0  0  0
   50.1094   14.6944   17.0277 H   0  0  0  0  0  0  0  0  0  0  0  0
   50.5003   15.0146   18.7163 H   0  0  0  0  0  0  0  0  0  0  0  0
   48.8117   14.8463   18.2343 H   0  0  0  0  0  0  0  0  0  0  0  0
   50.9576   11.5520   14.7111 H   0  0  0  0  0  0  0  0  0  0  0  0
   51.0346   10.6643   16.2391 H   0  0  0  0  0  0  0  0  0  0  0  0
   51.5716   12.3559   16.1547 H   0  0  0  0  0  0  0  0  0  0  0  0
  3  2  1  0
  4  2  1  0
  5  4  1  0
  6  2  1  0
  3  7  1  0
  8  6  1  0
  5  9  1  0
  6 10  1  0
 11  9  1  0
 12  4  2  0
 13 10  2  0
 14 11  2  0
 15 11  1  0
 16 10  1  0
 17  8  1  0
 18  8  1  0
 19 15  1  0
 20 19  2  0
 21 19  1  0
 22 21  2  0
 23 20  1  0
 24 22  1  0
  7  8  1  0
  5  3  1  0
 24 23  2  0
 26 25  1  0
 27 25  2  0
 28 26  2  0
 29 26  1  0
 30 25  1  0
 31 35  1  0
 32 37  1  0
 33 31  1  0
 34 28  1  0
 35 29  2  0
 36 30  1  0
 37 36  1  0
 38 32  1  0
 39 32  1  0
 40 38  1  0
 41 39  1  0
 31 34  2  0
  1 42  1  0
  1 43  1  0
  3 44  1  1
  5 45  1  1
  6 46  1  1
  9 47  1  0
 15 48  1  0
 15 49  1  0
 16 50  1  0
 17 51  1  0
 17 52  1  0
 17 53  1  0
 18 54  1  0
 18 55  1  0
 18 56  1  0
 20 57  1  0
 21 58  1  0
 22 59  1  0
 23 60  1  0
 24 61  1  0
 28 62  1  0
 29 63  1  0
 33 64  1  0
 33 65  1  0
 34 66  1  0
 35 67  1  0
 36 68  1  0
 36 69  1  0
 37 70  1  0
 37 71  1  0
 38 72  1  0
 38 73  1  0
 39 74  1  0
 39 75  1  0
 40 76  1  0
 40 77  1  0
 40 78  1  0
 41 79  1  0
 41 80  1  0
 41 81  1  0
M  END
> <Uni-Dock RESULT> 
ENERGY=   -4.438  LOWER_BOUND=    6.194  UPPER_BOUND=    8.039
INTER + INTRA:          -4.438
INTER:                  -4.438
INTRA:                   0.000
UNBOUND:                 0.000

$$$$

     RDKit          3D

 81 82  0  0  0  0  0  0  0  0999 V2000
   49.5239    7.2737   15.4705 O   0  0  0  0  0  0  0  0  0  0  0  0
   50.3947    7.9185   18.0495 N   0  0  0  0  0  0  0  0  0  0  0  0
   49.9978    6.8505   17.1148 C   0  0  1  0  0  0  0  0  0  0  0  0
   49.5608    8.8446   17.4940 C   0  0  0  0  0  0  0  0  0  0  0  0
   48.8179    7.7634   16.6743 C   0  0  1  0  0  0  0  0  0  0  0  0
   51.8224    8.1654   18.2098 C   0  0  2  0  0  0  0  0  0  0  0  0
   51.4165    6.6802   15.9528 S   0  0  0  0  0  0  0  0  0  0  0  0
   52.5053    7.8754   16.8550 C   0  0  0  0  0  0  0  0  0  0  0  0
   48.6628    8.0443   15.2213 N   0  0  0  0  0  0  0  0  0  0  0  0
   52.3116    7.2849   19.3572 C   0  0  0  0  0  0  0  0  0  0  0  0
   48.2692    7.0501   14.3514 C   0  0  0  0  0  0  0  0  0  0  0  0
   49.5543   10.0521   17.5612 O   0  0  0  0  0  0  0  0  0  0  0  0
   51.8377    6.2251   19.7349 O   0  0  0  0  0  0  0  0  0  0  0  0
   47.9773    5.9234   14.7445 O   0  0  0  0  0  0  0  0  0  0  0  0
   48.2527    7.4580   12.8893 C   0  0  0  0  0  0  0  0  0  0  0  0
   53.4070    7.7863   19.9684 O   0  0  0  0  0  0  0  0  0  0  0  0
   53.9067    7.2590   16.9539 C   0  0  0  0  0  0  0  0  0  0  0  0
   52.5929    9.1499   15.9986 C   0  0  0  0  0  0  0  0  0  0  0  0
   46.8925    7.3146   12.2539 C   0  0  0  0  0  0  0  0  0  0  0  0
   46.0000    8.3956   12.2205 C   0  0  0  0  0  0  0  0  0  0  0  0
   46.4925    6.0858   11.7099 C   0  0  0  0  0  0  0  0  0  0  0  0
   45.2324    5.9445   11.1273 C   0  0  0  0  0  0  0  0  0  0  0  0
   44.7391    8.2521   11.6375 C   0  0  0  0  0  0  0  0  0  0  0  0
   44.3574    7.0284   11.0888 C   0  0  0  0  0  0  0  0  0  0  0  0
   48.8954    9.1199   13.8784 C   0  0  0  0  0  0  0  0  0  0  0  0
   47.6922    8.3128   13.5393 C   0  0  0  0  0  0  0  0  0  0  0  0
   48.8983   10.3389   13.9290 O   0  0  0  0  0  0  0  0  0  0  0  0
   46.5304    8.9850   13.1435 C   0  0  0  0  0  0  0  0  0  0  0  0
   47.6733    6.9161   13.6330 C   0  0  0  0  0  0  0  0  0  0  0  0
   49.9560    8.3115   14.1037 O   0  0  0  0  0  0  0  0  0  0  0  0
   45.3702    6.8690   12.8515 C   0  0  0  0  0  0  0  0  0  0  0  0
   51.4789    7.2950   16.4269 N   0  0  0  0  0  0  0  0  0  0  0  0
   44.1805    6.1642   12.6482 N   0  0  0  0  0  0  0  0  0  0  0  0
   45.3746    8.2657   12.8212 C   0  0  0  0  0  0  0  0  0  0  0  0
   46.5119    6.2054   13.3079 C   0  0  0  0  0  0  0  0  0  0  0  0
   51.1547    8.9785   14.5254 C   0  0  0  0  0  0  0  0  0  0  0  0
   52.0692    7.9747   15.2508 C   0  0  0  0  0  0  0  0  0  0  0  0
   50.9563    8.2151   17.4488 C   0  0  0  0  0  0  0  0  0  0  0  0
   52.4192    6.2886   16.9476 C   0  0  0  0  0  0  0  0  0  0  0  0
   51.9791    9.1211   18.1283 C   0  0  0  0  0  0  0  0  0  0  0  0
   51.8192    5.3722   18.0093 C   0  0  0  0  0  0  0  0  0  0  0  0
   48.8766    7.6535   14.8572 H   0  0  0  0  0  0  0  0  0  0  0  0
   50.1478    7.9974   15.6316 H   0  0  0  0  0  0  0  0  0  0  0  0
   49.7078    5.9259   17.6217 H   0  0  0  0  0  0  0  0  0  0  0  0
   47.8531    7.5024   17.1274 H   0  0  0  0  0  0  0  0  0  0  0  0
   51.9539    9.2111   18.5132 H   0  0  0  0  0  0  0  0  0  0  0  0
   48.9441    8.9470   14.8540 H   0  0  0  0  0  0  0  0  0  0  0  0
   48.9867    6.8370   12.3607 H   0  0  0  0  0  0  0  0  0  0  0  0
   48.6023    8.4909   12.7709 H   0  0  0  0  0  0  0  0  0  0  0  0
   53.5982    7.1390   20.6807 H   0  0  0  0  0  0  0  0  0  0  0  0
   54.3438    7.0888   15.9620 H   0  0  0  0  0  0  0  0  0  0  0  0
   53.9039    6.2949   17.4748 H   0  0  0  0  0  0  0  0  0  0  0  0
   54.5879    7.9278   17.4912 H   0  0  0  0  0  0  0  0  0  0  0  0
   53.1980    9.9097   16.5064 H   0  0  0  0  0  0  0  0  0  0  0  0
   53.0690    8.9535   15.0299 H   0  0  0  0  0  0  0  0  0  0  0  0
   51.6125    9.5946   15.7975 H   0  0  0  0  0  0  0  0  0  0  0  0
   46.2775    9.3576   12.6474 H   0  0  0  0  0  0  0  0  0  0  0  0
   47.1586    5.2253   11.7502 H   0  0  0  0  0  0  0  0  0  0  0  0
   44.9326    4.9852   10.7121 H   0  0  0  0  0  0  0  0  0  0  0  0
   44.0511    9.0931   11.6122 H   0  0  0  0  0  0  0  0  0  0  0  0
   43.3743    6.9178   10.6388 H   0  0  0  0  0  0  0  0  0  0  0  0
   46.5141   10.0724   13.0974 H   0  0  0  0  0  0  0  0  0  0  0  0
   48.5476    6.3675   13.9776 H   0  0  0  0  0  0  0  0  0  0  0  0
   44.3161    5.1960   12.3725 H   0  0  0  0  0  0  0  0  0  0  0  0
   43.5088    6.6450   12.0573 H   0  0  0  0  0  0  0  0  0  0  0  0
   44.4760    8.8108   12.5454 H   0  0  0  0  0  0  0  0  0  0  0  0
   46.5080    5.1239   13.4191 H   0  0  0  0  0  0  0  0  0  0  0  0
   51.6694    9.3465   13.6296 H   0  0  0  0  0  0  0  0  0  0  0  0
   50.9362    9.8364   15.1715 H   0  0  0  0  0  0  0  0  0  0  0  0
   52.3262    7.1996   14.5161 H   0  0  0  0  0  0  0  0  0  0  0  0
   53.0047    8.4790   15.5229 H   0  0  0  0  0  0  0  0  0  0  0  0
   50.4248    7.6451   18.2208 H   0  0  0  0  0  0  0  0  0  0  0  0
   50.1693    8.8414   17.0101 H   0  0  0  0  0  0  0  0  0  0  0  0
   53.3319    6.7556   17.3371 H   0  0  0  0  0  0  0  0  0  0  0  0
   52.7338    5.6397   16.1198 H   0  0  0  0  0  0  0  0  0  0  0  0
   52.7466    8.5460   18.6547 H   0  0  0  0  0  0  0  0  0  0  0  0
   51.4764    9.7488   18.8708 H   0  0  0  0  0  0  0  0  0  0  0  0
   52.4682    9.7880   17.4124 H   0  0  0  0  0  0  0  0  0  0  0  0
   52.5310    4.5768   18.2554 H   0  0  0  0  0  0  0  0  0  0  0  0
   50.9015    4.8991   17.6476 H   0  0  0  0  0  0  0  0  0  0  0  0
   51.5955    5.9070   18.9358 H   0  0  0  0  0  0  0  0  0  0  0  0
  3  2  1  0
  4  2  1  0
  5  4  1  0
  6  2  1  0
  3  7  1  0
  8  6  1  0
  5  9  1  0
  6 10  1  0
 11  9  1  0
 12  4  2  0
 13 10  2  0
 14 11  2  0
 15 11  1  0
 16 10  1  0
 17  8  1  0
 18  8  1  0
 19 15  1  0
 20 19  2  0
 21 19  1  0
 22 21  2  0
 23 20  1  0
 24 22  1  0
  7  8  1  0
  5  3  1  0
 24 23  2  0
 26 25  1  0
 27 25  2  0
 28 26  2  0
 29 26  1  0
 30 25  1  0
 31 35  1  0
 32 37  1  0
 33 31  1  0
 34 28  1  0
 35 29  2  0
 36 30  1  0
 37 36  1  0
 38 32  1  0
 39 32  1  0
 40 38  1  0
 41 39  1  0
 31 34  2  0
  1 42  1  0
  1 43  1  0
  3 44  1  1
  5 45  1  1
  6 46  1  1
  9 47  1  0
 15 48  1  0
 15 49  1  0
 16 50  1  0
 17 51  1  0
 17 52  1  0
 17 53  1  0
 18 54  1  0
 18 55  1  0
 18 56  1  0
 20 57  1  0
 21 58  1  0
 22 59  1  0
 23 60  1  0
 24 61  1  0
 28 62  1  0
 29 63  1  0
 33 64  1  0
 33 65  1  0
 34 66  1  0
 35 67  1  0
 36 68  1  0
 36 69  1  0
 37 70  1  0
 37 71  1  0
 38 72  1  0
 38 73  1  0
 39 74  1  0
 39 75  1  0
 40 76  1  0
 40 77  1  0
 40 78  1  0
 41 79  1  0
 41 80  1  0
 41 81  1  0
M  END
> <Uni-Dock RESULT> 
ENERGY=   -4.404  LOWER_BOUND=    1.570  UPPER_BOUND=    2.221
INTER + INTRA:          -4.404
INTER:                  -4.404
INTRA:                   0.000
UNBOUND:                 0.000

$$$$

     RDKit          3D

 81 82  0  0  0  0  0  0  0  0999 V2000
   41.5854   12.5560    9.0576 O   0  0  0  0  0  0  0  0  0  0  0  0
   40.4921   13.9287   11.2359 N   0  0  0  0  0  0  0  0  0  0  0  0
   40.4041   13.6373    9.7940 C   0  0  1  0  0  0  0  0  0  0  0  0
   41.8514   13.8168   11.2719 C   0  0  0  0  0  0  0  0  0  0  0  0
   41.9469   13.8237    9.7280 C   0  0  1  0  0  0  0  0  0  0  0  0
   39.6320   13.1566   12.1243 C   0  0  2  0  0  0  0  0  0  0  0  0
   39.7537   11.9172    9.6925 S   0  0  0  0  0  0  0  0  0  0  0  0
   39.4693   11.7470   11.5141 C   0  0  0  0  0  0  0  0  0  0  0  0
   42.7530   12.7288    9.1235 N   0  0  0  0  0  0  0  0  0  0  0  0
   38.3226   13.9273   12.2748 C   0  0  0  0  0  0  0  0  0  0  0  0
   42.6872   12.4720    7.7708 C   0  0  0  0  0  0  0  0  0  0  0  0
   42.6121   13.6450   12.1963 O   0  0  0  0  0  0  0  0  0  0  0  0
   37.8220   14.7048   11.4777 O   0  0  0  0  0  0  0  0  0  0  0  0
   42.0152   13.1657    7.0116 O   0  0  0  0  0  0  0  0  0  0  0  0
   43.4853   11.2634    7.3161 C   0  0  0  0  0  0  0  0  0  0  0  0
   37.6896   13.6572   13.4372 O   0  0  0  0  0  0  0  0  0  0  0  0
   38.0909   11.1059   11.7212 C   0  0  0  0  0  0  0  0  0  0  0  0
   40.5403   10.7855   12.0560 C   0  0  0  0  0  0  0  0  0  0  0  0
   44.5368   11.6048    6.2904 C   0  0  0  0  0  0  0  0  0  0  0  0
   45.8489   11.9061    6.6827 C   0  0  0  0  0  0  0  0  0  0  0  0
   44.2071   11.6506    4.9284 C   0  0  0  0  0  0  0  0  0  0  0  0
   45.1737   11.9732    3.9750 C   0  0  0  0  0  0  0  0  0  0  0  0
   46.8147   12.2292    5.7271 C   0  0  0  0  0  0  0  0  0  0  0  0
   46.4776   12.2595    4.3744 C   0  0  0  0  0  0  0  0  0  0  0  0
   43.7720   11.3386    9.3324 C   0  0  0  0  0  0  0  0  0  0  0  0
   44.1828   11.9432    8.0364 C   0  0  0  0  0  0  0  0  0  0  0  0
   44.5396   11.1460   10.2610 O   0  0  0  0  0  0  0  0  0  0  0  0
   45.5419   12.1994    7.8231 C   0  0  0  0  0  0  0  0  0  0  0  0
   43.2594   12.2915    7.0433 C   0  0  0  0  0  0  0  0  0  0  0  0
   42.4541   11.0354    9.3134 O   0  0  0  0  0  0  0  0  0  0  0  0
   45.0610   13.0624    5.6022 C   0  0  0  0  0  0  0  0  0  0  0  0
   39.9392   12.1339   10.4173 N   0  0  0  0  0  0  0  0  0  0  0  0
   45.4803   13.7455    4.4571 N   0  0  0  0  0  0  0  0  0  0  0  0
   45.9715   12.7722    6.6212 C   0  0  0  0  0  0  0  0  0  0  0  0
   43.6994   12.8639    5.8440 C   0  0  0  0  0  0  0  0  0  0  0  0
   41.9262   10.5245   10.5462 C   0  0  0  0  0  0  0  0  0  0  0  0
   40.4015   10.7357   10.5751 C   0  0  0  0  0  0  0  0  0  0  0  0
   40.5203   13.0691   11.3929 C   0  0  0  0  0  0  0  0  0  0  0  0
   38.4687   12.1704   10.3507 C   0  0  0  0  0  0  0  0  0  0  0  0
   40.1731   12.8191   12.8577 C   0  0  0  0  0  0  0  0  0  0  0  0
   37.9009   13.5299    9.9549 C   0  0  0  0  0  0  0  0  0  0  0  0
   42.4867   12.3910    8.7414 H   0  0  0  0  0  0  0  0  0  0  0  0
   41.5750   12.1734    9.9477 H   0  0  0  0  0  0  0  0  0  0  0  0
   39.8206   14.3804    9.2434 H   0  0  0  0  0  0  0  0  0  0  0  0
   42.2664   14.8015    9.3457 H   0  0  0  0  0  0  0  0  0  0  0  0
   40.1105   13.1176   13.1104 H   0  0  0  0  0  0  0  0  0  0  0  0
   43.2783   12.1039    9.7257 H   0  0  0  0  0  0  0  0  0  0  0  0
   42.7784   10.5308    6.9068 H   0  0  0  0  0  0  0  0  0  0  0  0
   43.9594   10.7675    8.1719 H   0  0  0  0  0  0  0  0  0  0  0  0
   36.8874   14.2217   13.4070 H   0  0  0  0  0  0  0  0  0  0  0  0
   38.0413   10.1034   11.2781 H   0  0  0  0  0  0  0  0  0  0  0  0
   37.2834   11.6964   11.2740 H   0  0  0  0  0  0  0  0  0  0  0  0
   37.8716   10.9932   12.7885 H   0  0  0  0  0  0  0  0  0  0  0  0
   40.4417   10.6778   13.1422 H   0  0  0  0  0  0  0  0  0  0  0  0
   40.4392    9.7827   11.6225 H   0  0  0  0  0  0  0  0  0  0  0  0
   41.5604   11.1285   11.8535 H   0  0  0  0  0  0  0  0  0  0  0  0
   46.1307   11.8923    7.7339 H   0  0  0  0  0  0  0  0  0  0  0  0
   43.1877   11.4478    4.6037 H   0  0  0  0  0  0  0  0  0  0  0  0
   44.9044   12.0088    2.9220 H   0  0  0  0  0  0  0  0  0  0  0  0
   47.8309   12.4604    6.0355 H   0  0  0  0  0  0  0  0  0  0  0  0
   47.2298   12.5147    3.6328 H   0  0  0  0  0  0  0  0  0  0  0  0
   46.2721   11.9675    8.5963 H   0  0  0  0  0  0  0  0  0  0  0  0
   42.1923   12.1433    7.1962 H   0  0  0  0  0  0  0  0  0  0  0  0
   44.8619   13.6325    3.6593 H   0  0  0  0  0  0  0  0  0  0  0  0
   46.4552   13.5935    4.2165 H   0  0  0  0  0  0  0  0  0  0  0  0
   47.0281   12.9891    6.4904 H   0  0  0  0  0  0  0  0  0  0  0  0
   42.9633   13.1574    5.0995 H   0  0  0  0  0  0  0  0  0  0  0  0
   42.1378    9.4491   10.5842 H   0  0  0  0  0  0  0  0  0  0  0  0
   42.3966   10.9969   11.4162 H   0  0  0  0  0  0  0  0  0  0  0  0
   39.9904   10.1556    9.7380 H   0  0  0  0  0  0  0  0  0  0  0  0
   39.9995   10.2956   11.4961 H   0  0  0  0  0  0  0  0  0  0  0  0
   40.2338   14.0961   11.1347 H   0  0  0  0  0  0  0  0  0  0  0  0
   41.6124   13.0772   11.2874 H   0  0  0  0  0  0  0  0  0  0  0  0
   38.0159   11.8426   11.2942 H   0  0  0  0  0  0  0  0  0  0  0  0
   38.1336   11.4594    9.5842 H   0  0  0  0  0  0  0  0  0  0  0  0
   39.0958   12.8815   13.0374 H   0  0  0  0  0  0  0  0  0  0  0  0
   40.6518   13.5796   13.4826 H   0  0  0  0  0  0  0  0  0  0  0  0
   40.5306   11.8429   13.1976 H   0  0  0  0  0  0  0  0  0  0  0  0
   36.8191   13.4483    9.8038 H   0  0  0  0  0  0  0  0  0  0  0  0
   38.3432   13.8836    9.0189 H   0  0  0  0  0  0  0  0  0  0  0  0
   38.0657   14.2854   10.7273 H   0  0  0  0  0  0  0  0  0  0  0  0
  3  2  1  0
  4  2  1  0
  5  4  1  0
  6  2  1  0
  3  7  1  0
  8  6  1  0
  5  9  1  0
  6 10  1  0
 11  9  1  0
 12  4  2  0
 13 10  2  0
 14 11  2  0
 15 11  1  0
 16 10  1  0
 17  8  1  0
 18  8  1  0
 19 15  1  0
 20 19  2  0
 21 19  1  0
 22 21  2  0
 23 20  1  0
 24 22  1  0
  7  8  1  0
  5  3  1  0
 24 23  2  0
 26 25  1  0
 27 25  2  0
 28 26  2  0
 29 26  1  0
 30 25  1  0
 31 35  1  0
 32 37  1  0
 33 31  1  0
 34 28  1  0
 35 29  2  0
 36 30  1  0
 37 36  1  0
 38 32  1  0
 39 32  1  0
 40 38  1  0
 41 39  1  0
 31 34  2  0
  1 42  1  0
  1 43  1  0
  3 44  1  1
  5 45  1  1
  6 46  1  1
  9 47  1  0
 15 48  1  0
 15 49  1  0
 16 50  1  0
 17 51  1  0
 17 52  1  0
 17 53  1  0
 18 54  1  0
 18 55  1  0
 18 56  1  0
 20 57  1  0
 21 58  1  0
 22 59  1  0
 23 60  1  0
 24 61  1  0
 28 62  1  0
 29 63  1  0
 33 64  1  0
 33 65  1  0
 34 66  1  0
 35 67  1  0
 36 68  1  0
 36 69  1  0
 37 70  1  0
 37 71  1  0
 38 72  1  0
 38 73  1  0
 39 74  1  0
 39 75  1  0
 40 76  1  0
 40 77  1  0
 40 78  1  0
 41 79  1  0
 41 80  1  0
 41 81  1  0
M  END
> <Uni-Dock RESULT> 
ENERGY=   -4.320  LOWER_BOUND=    8.222  UPPER_BOUND=   10.965
INTER + INTRA:          -4.320
INTER:                  -4.320
INTRA:                   0.000
UNBOUND:                 0.000

$$$$
