
     RDKit          3D

 81 82  0  0  0  0  0  0  0  0999 V2000
   48.2571    8.1164   12.0656 O   0  0  0  0  0  0  0  0  0  0  0  0
   49.9017    9.6760   13.8580 N   0  0  0  0  0  0  0  0  0  0  0  0
   49.7425    8.2317   13.5902 C   0  0  1  0  0  0  0  0  0  0  0  0
   48.5717    9.9453   13.6839 C   0  0  0  0  0  0  0  0  0  0  0  0
   48.2099    8.4446   13.6488 C   0  0  1  0  0  0  0  0  0  0  0  0
   50.8867   10.4104   13.0641 C   0  0  2  0  0  0  0  0  0  0  0  0
   50.5384    8.0149   11.9449 S   0  0  0  0  0  0  0  0  0  0  0  0
   51.7441    9.3807   12.3032 C   0  0  0  0  0  0  0  0  0  0  0  0
   47.4055    7.9936   12.4836 N   0  0  0  0  0  0  0  0  0  0  0  0
   51.6957   11.3425   13.9557 C   0  0  0  0  0  0  0  0  0  0  0  0
   47.2165    6.6508   12.2375 C   0  0  0  0  0  0  0  0  0  0  0  0
   47.9913   10.9884   13.4880 O   0  0  0  0  0  0  0  0  0  0  0  0
   51.8992   11.2343   15.1548 O   0  0  0  0  0  0  0  0  0  0  0  0
   47.6788    5.7831   12.9752 O   0  0  0  0  0  0  0  0  0  0  0  0
   46.4059    6.3411   10.9923 C   0  0  0  0  0  0  0  0  0  0  0  0
   52.2562   12.3610   13.2667 O   0  0  0  0  0  0  0  0  0  0  0  0
   52.9034    8.7927   13.1187 C   0  0  0  0  0  0  0  0  0  0  0  0
   52.2616    9.9346   10.9725 C   0  0  0  0  0  0  0  0  0  0  0  0
   45.0646    5.7326   11.3118 C   0  0  0  0  0  0  0  0  0  0  0  0
   43.9390    6.5451   11.5088 C   0  0  0  0  0  0  0  0  0  0  0  0
   44.9335    4.3427   11.4442 C   0  0  0  0  0  0  0  0  0  0  0  0
   43.6969    3.7741   11.7512 C   0  0  0  0  0  0  0  0  0  0  0  0
   42.7028    5.9737   11.8166 C   0  0  0  0  0  0  0  0  0  0  0  0
   42.5816    4.5891   11.9356 C   0  0  0  0  0  0  0  0  0  0  0  0
   46.5736    8.2446   12.5126 C   0  0  0  0  0  0  0  0  0  0  0  0
   45.6198    7.1093   12.3838 C   0  0  0  0  0  0  0  0  0  0  0  0
   46.4532    9.2926   11.8974 O   0  0  0  0  0  0  0  0  0  0  0  0
   44.4712    7.2975   11.6071 C   0  0  0  0  0  0  0  0  0  0  0  0
   45.8201    5.8787   13.0199 C   0  0  0  0  0  0  0  0  0  0  0  0
   47.5661    7.9410   13.3865 O   0  0  0  0  0  0  0  0  0  0  0  0
   43.7717    5.0106   12.0350 C   0  0  0  0  0  0  0  0  0  0  0  0
   50.7003    9.9384   12.7107 N   0  0  0  0  0  0  0  0  0  0  0  0
   42.7877    4.0188   11.9780 N   0  0  0  0  0  0  0  0  0  0  0  0
   43.5445    6.2603   11.4584 C   0  0  0  0  0  0  0  0  0  0  0  0
   44.8889    4.8464   12.8581 C   0  0  0  0  0  0  0  0  0  0  0  0
   48.5435    8.9771   13.6119 C   0  0  0  0  0  0  0  0  0  0  0  0
   49.6043    8.9717   12.4985 C   0  0  0  0  0  0  0  0  0  0  0  0
   51.3362   10.3076   11.4338 C   0  0  0  0  0  0  0  0  0  0  0  0
   51.6451    9.4738   13.7387 C   0  0  0  0  0  0  0  0  0  0  0  0
   52.0906    9.1973   10.7081 C   0  0  0  0  0  0  0  0  0  0  0  0
   52.7226   10.4958   14.0912 C   0  0  0  0  0  0  0  0  0  0  0  0
   47.9153    7.4922   12.7234 H   0  0  0  0  0  0  0  0  0  0  0  0
   49.1122    8.3940   12.4265 H   0  0  0  0  0  0  0  0  0  0  0  0
   50.1570    7.6092   14.3894 H   0  0  0  0  0  0  0  0  0  0  0  0
   47.7482    8.1189   14.5903 H   0  0  0  0  0  0  0  0  0  0  0  0
   50.3307   11.0464   12.3590 H   0  0  0  0  0  0  0  0  0  0  0  0
   47.0004    8.6802   11.8573 H   0  0  0  0  0  0  0  0  0  0  0  0
   46.2658    7.2448   10.3875 H   0  0  0  0  0  0  0  0  0  0  0  0
   46.9966    5.6603   10.3670 H   0  0  0  0  0  0  0  0  0  0  0  0
   52.7205   12.8840   13.9562 H   0  0  0  0  0  0  0  0  0  0  0  0
   52.5770    8.4018   14.0882 H   0  0  0  0  0  0  0  0  0  0  0  0
   53.6676    9.5525   13.3166 H   0  0  0  0  0  0  0  0  0  0  0  0
   53.4009    7.9786   12.5789 H   0  0  0  0  0  0  0  0  0  0  0  0
   51.4500   10.3385   10.3560 H   0  0  0  0  0  0  0  0  0  0  0  0
   52.9783   10.7450   11.1422 H   0  0  0  0  0  0  0  0  0  0  0  0
   52.7790    9.1657   10.3866 H   0  0  0  0  0  0  0  0  0  0  0  0
   44.0140    7.6279   11.4270 H   0  0  0  0  0  0  0  0  0  0  0  0
   45.7999    3.6961   11.3177 H   0  0  0  0  0  0  0  0  0  0  0  0
   43.6063    2.6951   11.8521 H   0  0  0  0  0  0  0  0  0  0  0  0
   41.8331    6.6083   11.9677 H   0  0  0  0  0  0  0  0  0  0  0  0
   41.6186    4.1467   12.1779 H   0  0  0  0  0  0  0  0  0  0  0  0
   44.2825    8.2569   11.1282 H   0  0  0  0  0  0  0  0  0  0  0  0
   46.6861    5.7102   13.6550 H   0  0  0  0  0  0  0  0  0  0  0  0
   43.1270    3.0794   12.1536 H   0  0  0  0  0  0  0  0  0  0  0  0
   42.1945    4.0700   11.1557 H   0  0  0  0  0  0  0  0  0  0  0  0
   42.6418    6.4424   10.8828 H   0  0  0  0  0  0  0  0  0  0  0  0
   45.0455    3.9084   13.3873 H   0  0  0  0  0  0  0  0  0  0  0  0
   48.9912    8.7544   14.5846 H   0  0  0  0  0  0  0  0  0  0  0  0
   48.0566    9.9562   13.6988 H   0  0  0  0  0  0  0  0  0  0  0  0
   49.0823    9.2100   11.5611 H   0  0  0  0  0  0  0  0  0  0  0  0
   49.9910    7.9522   12.3600 H   0  0  0  0  0  0  0  0  0  0  0  0
   52.0136   11.1543   11.5909 H   0  0  0  0  0  0  0  0  0  0  0  0
   50.5659   10.7033   10.7591 H   0  0  0  0  0  0  0  0  0  0  0  0
   51.1006    9.2709   14.6672 H   0  0  0  0  0  0  0  0  0  0  0  0
   52.1216    8.5297   13.4470 H   0  0  0  0  0  0  0  0  0  0  0  0
   52.9481    8.8441   11.2880 H   0  0  0  0  0  0  0  0  0  0  0  0
   52.4743    9.5756    9.7550 H   0  0  0  0  0  0  0  0  0  0  0  0
   51.4436    8.3440   10.4865 H   0  0  0  0  0  0  0  0  0  0  0  0
   53.2909   10.1520   14.9607 H   0  0  0  0  0  0  0  0  0  0  0  0
   53.4355   10.6380   13.2731 H   0  0  0  0  0  0  0  0  0  0  0  0
   52.2807   11.4658   14.3427 H   0  0  0  0  0  0  0  0  0  0  0  0
  3  2  1  0
  4  2  1  0
  5  4  1  0
  6  2  1  0
  3  7  1  0
  8  6  1  0
  5  9  1  0
  6 10  1  0
 11  9  1  0
 12  4  2  0
 13 10  2  0
 14 11  2  0
 15 11  1  0
 16 10  1  0
 17  8  1  0
 18  8  1  0
 19 15  1  0
 20 19  2  0
 21 19  1  0
 22 21  2  0
 23 20  1  0
 24 22  1  0
  7  8  1  0
  5  3  1  0
 24 23  2  0
 26 25  1  0
 27 25  2  0
 28 26  2  0
 29 26  1  0
 30 25  1  0
 31 35  1  0
 32 37  1  0
 33 31  1  0
 34 28  1  0
 35 29  2  0
 36 30  1  0
 37 36  1  0
 38 32  1  0
 39 32  1  0
 40 38  1  0
 41 39  1  0
 31 34  2  0
  1 42  1  0
  1 43  1  0
  3 44  1  1
  5 45  1  6
  6 46  1  6
  9 47  1  0
 15 48  1  0
 15 49  1  0
 16 50  1  0
 17 51  1  0
 17 52  1  0
 17 53  1  0
 18 54  1  0
 18 55  1  0
 18 56  1  0
 20 57  1  0
 21 58  1  0
 22 59  1  0
 23 60  1  0
 24 61  1  0
 28 62  1  0
 29 63  1  0
 33 64  1  0
 33 65  1  0
 34 66  1  0
 35 67  1  0
 36 68  1  0
 36 69  1  0
 37 70  1  0
 37 71  1  0
 38 72  1  0
 38 73  1  0
 39 74  1  0
 39 75  1  0
 40 76  1  0
 40 77  1  0
 40 78  1  0
 41 79  1  0
 41 80  1  0
 41 81  1  0
M  END
> <Uni-Dock RESULT> 
ENERGY=   -5.407  LOWER_BOUND=    0.000  UPPER_BOUND=    0.000
INTER + INTRA:          -5.407
INTER:                  -5.407
INTRA:                   0.000
UNBOUND:                 0.000

$$$$

     RDKit          3D

 81 82  0  0  0  0  0  0  0  0999 V2000
   43.9225   12.0877    9.7704 O   0  0  0  0  0  0  0  0  0  0  0  0
   45.2809   12.8146    7.3258 N   0  0  0  0  0  0  0  0  0  0  0  0
   44.5696   13.5678    8.3794 C   0  0  1  0  0  0  0  0  0  0  0  0
   44.4229   11.7505    7.3832 C   0  0  0  0  0  0  0  0  0  0  0  0
   43.4353   12.5177    8.2891 C   0  0  1  0  0  0  0  0  0  0  0  0
   46.7143   12.5839    7.5046 C   0  0  2  0  0  0  0  0  0  0  0  0
   45.7264   13.4926    9.8090 S   0  0  0  0  0  0  0  0  0  0  0  0
   47.1940   13.4678    8.6721 C   0  0  0  0  0  0  0  0  0  0  0  0
   43.0299   11.8303    9.5426 N   0  0  0  0  0  0  0  0  0  0  0  0
   47.4572   12.8355    6.1997 C   0  0  0  0  0  0  0  0  0  0  0  0
   42.3350   12.5068   10.5219 C   0  0  0  0  0  0  0  0  0  0  0  0
   44.5351   10.6166    6.9771 O   0  0  0  0  0  0  0  0  0  0  0  0
   47.1078   13.5450    5.2694 O   0  0  0  0  0  0  0  0  0  0  0  0
   42.0054   13.6836   10.3904 O   0  0  0  0  0  0  0  0  0  0  0  0
   42.0225   11.6871   11.7604 C   0  0  0  0  0  0  0  0  0  0  0  0
   48.6497   12.2015    6.1521 O   0  0  0  0  0  0  0  0  0  0  0  0
   47.5196   14.9154    8.2806 C   0  0  0  0  0  0  0  0  0  0  0  0
   48.3769   12.8432    9.4177 C   0  0  0  0  0  0  0  0  0  0  0  0
   40.5486   11.4138   11.9164 C   0  0  0  0  0  0  0  0  0  0  0  0
   39.9689   10.2702   11.3488 C   0  0  0  0  0  0  0  0  0  0  0  0
   39.7324   12.3190   12.6098 C   0  0  0  0  0  0  0  0  0  0  0  0
   38.3651   12.0774   12.7479 C   0  0  0  0  0  0  0  0  0  0  0  0
   38.6004   10.0311   11.4877 C   0  0  0  0  0  0  0  0  0  0  0  0
   37.7996   10.9330   12.1886 C   0  0  0  0  0  0  0  0  0  0  0  0
   42.4796   11.1687    9.4184 C   0  0  0  0  0  0  0  0  0  0  0  0
   41.2333   11.2912   10.2226 C   0  0  0  0  0  0  0  0  0  0  0  0
   43.1188   10.1320    9.3288 O   0  0  0  0  0  0  0  0  0  0  0  0
   40.7110   10.1337   10.8103 C   0  0  0  0  0  0  0  0  0  0  0  0
   40.5623   12.5074   10.3954 C   0  0  0  0  0  0  0  0  0  0  0  0
   42.7863   12.3498    8.8253 O   0  0  0  0  0  0  0  0  0  0  0  0
   38.9044   11.4185   11.8044 C   0  0  0  0  0  0  0  0  0  0  0  0
   46.4772   12.6343    8.0735 N   0  0  0  0  0  0  0  0  0  0  0  0
   37.6750   11.4575   12.4693 N   0  0  0  0  0  0  0  0  0  0  0  0
   39.5403   10.1986   11.5734 C   0  0  0  0  0  0  0  0  0  0  0  0
   39.3956   12.5607   11.1665 C   0  0  0  0  0  0  0  0  0  0  0  0
   43.9670   12.3493    7.9974 C   0  0  0  0  0  0  0  0  0  0  0  0
   45.2305   12.5219    8.8570 C   0  0  0  0  0  0  0  0  0  0  0  0
   47.6453   12.2282    8.8747 C   0  0  0  0  0  0  0  0  0  0  0  0
   46.6105   13.9599    7.4488 C   0  0  0  0  0  0  0  0  0  0  0  0
   47.9916   13.1183   10.0648 C   0  0  0  0  0  0  0  0  0  0  0  0
   47.8151   14.0842    6.5198 C   0  0  0  0  0  0  0  0  0  0  0  0
   43.1028   12.5782    9.6067 H   0  0  0  0  0  0  0  0  0  0  0  0
   44.5935   12.5774    9.2718 H   0  0  0  0  0  0  0  0  0  0  0  0
   44.2954   14.5781    8.0597 H   0  0  0  0  0  0  0  0  0  0  0  0
   42.5543   12.8572    7.7286 H   0  0  0  0  0  0  0  0  0  0  0  0
   46.8469   11.5187    7.7469 H   0  0  0  0  0  0  0  0  0  0  0  0
   43.2758   10.8570    9.6835 H   0  0  0  0  0  0  0  0  0  0  0  0
   42.5734   10.7392   11.7460 H   0  0  0  0  0  0  0  0  0  0  0  0
   42.4053   12.2336   12.6311 H   0  0  0  0  0  0  0  0  0  0  0  0
   49.0024   12.4300    5.2644 H   0  0  0  0  0  0  0  0  0  0  0  0
   46.7039   15.3929    7.7275 H   0  0  0  0  0  0  0  0  0  0  0  0
   48.4106   14.9579    7.6444 H   0  0  0  0  0  0  0  0  0  0  0  0
   47.7325   15.5310    9.1624 H   0  0  0  0  0  0  0  0  0  0  0  0
   48.1627   11.8154    9.7334 H   0  0  0  0  0  0  0  0  0  0  0  0
   49.2652   12.8108    8.7781 H   0  0  0  0  0  0  0  0  0  0  0  0
   48.6446   13.4208   10.3103 H   0  0  0  0  0  0  0  0  0  0  0  0
   40.5752    9.5576   10.7925 H   0  0  0  0  0  0  0  0  0  0  0  0
   40.1587   13.2241   13.0383 H   0  0  0  0  0  0  0  0  0  0  0  0
   37.7409   12.7861   13.2871 H   0  0  0  0  0  0  0  0  0  0  0  0
   38.1562    9.1424   11.0461 H   0  0  0  0  0  0  0  0  0  0  0  0
   36.7339   10.7460   12.2931 H   0  0  0  0  0  0  0  0  0  0  0  0
   41.2017    9.1730   10.6635 H   0  0  0  0  0  0  0  0  0  0  0  0
   40.9246   13.4190    9.9269 H   0  0  0  0  0  0  0  0  0  0  0  0
   37.4291   12.3667   12.8453 H   0  0  0  0  0  0  0  0  0  0  0  0
   37.5446   10.7102   13.1440 H   0  0  0  0  0  0  0  0  0  0  0  0
   39.1328    9.2810   11.9872 H   0  0  0  0  0  0  0  0  0  0  0  0
   38.8703   13.5091   11.2618 H   0  0  0  0  0  0  0  0  0  0  0  0
   43.8431   13.1870    7.3053 H   0  0  0  0  0  0  0  0  0  0  0  0
   44.0146   11.4361    7.3915 H   0  0  0  0  0  0  0  0  0  0  0  0
   45.2896   11.6438    9.5151 H   0  0  0  0  0  0  0  0  0  0  0  0
   45.1042   13.3790    9.5334 H   0  0  0  0  0  0  0  0  0  0  0  0
   48.5245   12.1423    8.2268 H   0  0  0  0  0  0  0  0  0  0  0  0
   47.4822   11.2061    9.2407 H   0  0  0  0  0  0  0  0  0  0  0  0
   45.7274   14.1615    6.8330 H   0  0  0  0  0  0  0  0  0  0  0  0
   46.6498   14.7557    8.2029 H   0  0  0  0  0  0  0  0  0  0  0  0
   48.2803   14.1245    9.7476 H   0  0  0  0  0  0  0  0  0  0  0  0
   48.8404   12.6913   10.6087 H   0  0  0  0  0  0  0  0  0  0  0  0
   47.1580   13.1996   10.7678 H   0  0  0  0  0  0  0  0  0  0  0  0
   47.7685   15.0320    5.9752 H   0  0  0  0  0  0  0  0  0  0  0  0
   48.7604   14.0730    7.0712 H   0  0  0  0  0  0  0  0  0  0  0  0
   47.8309   13.2750    5.7820 H   0  0  0  0  0  0  0  0  0  0  0  0
  3  2  1  0
  4  2  1  0
  5  4  1  0
  6  2  1  0
  3  7  1  0
  8  6  1  0
  5  9  1  0
  6 10  1  0
 11  9  1  0
 12  4  2  0
 13 10  2  0
 14 11  2  0
 15 11  1  0
 16 10  1  0
 17  8  1  0
 18  8  1  0
 19 15  1  0
 20 19  2  0
 21 19  1  0
 22 21  2  0
 23 20  1  0
 24 22  1  0
  7  8  1  0
  5  3  1  0
 24 23  2  0
 26 25  1  0
 27 25  2  0
 28 26  2  0
 29 26  1  0
 30 25  1  0
 31 35  1  0
 32 37  1  0
 33 31  1  0
 34 28  1  0
 35 29  2  0
 36 30  1  0
 37 36  1  0
 38 32  1  0
 39 32  1  0
 40 38  1  0
 41 39  1  0
 31 34  2  0
  1 42  1  0
  1 43  1  0
  3 44  1  1
  5 45  1  6
  6 46  1  6
  9 47  1  0
 15 48  1  0
 15 49  1  0
 16 50  1  0
 17 51  1  0
 17 52  1  0
 17 53  1  0
 18 54  1  0
 18 55  1  0
 18 56  1  0
 20 57  1  0
 21 58  1  0
 22 59  1  0
 23 60  1  0
 24 61  1  0
 28 62  1  0
 29 63  1  0
 33 64  1  0
 33 65  1  0
 34 66  1  0
 35 67  1  0
 36 68  1  0
 36 69  1  0
 37 70  1  0
 37 71  1  0
 38 72  1  0
 38 73  1  0
 39 74  1  0
 39 75  1  0
 40 76  1  0
 40 77  1  0
 40 78  1  0
 41 79  1  0
 41 80  1  0
 41 81  1  0
M  END
> <Uni-Dock RESULT> 
ENERGY=   -5.229  LOWER_BOUND=    6.271  UPPER_BOUND=    7.762
INTER + INTRA:          -5.229
INTER:                  -5.229
INTRA:                   0.000
UNBOUND:                 0.000

$$$$

     RDKit          3D

 81 82  0  0  0  0  0  0  0  0999 V2000
   48.1011    7.8261   16.7675 O   0  0  0  0  0  0  0  0  0  0  0  0
   49.5624    9.2456   14.7181 N   0  0  0  0  0  0  0  0  0  0  0  0
   49.6795    7.9090   15.3370 C   0  0  1  0  0  0  0  0  0  0  0  0
   49.1893    9.8517   15.8866 C   0  0  0  0  0  0  0  0  0  0  0  0
   49.5241    8.5936   16.7171 C   0  0  1  0  0  0  0  0  0  0  0  0
   48.7030    9.3775   13.5417 C   0  0  2  0  0  0  0  0  0  0  0  0
   48.2422    6.9926   14.6427 S   0  0  0  0  0  0  0  0  0  0  0  0
   48.3381    7.9598   13.0607 C   0  0  0  0  0  0  0  0  0  0  0  0
   48.4490    8.0990   17.6157 N   0  0  0  0  0  0  0  0  0  0  0  0
   49.3867   10.2281   12.4800 C   0  0  0  0  0  0  0  0  0  0  0  0
   48.5566    6.8698   18.2298 C   0  0  0  0  0  0  0  0  0  0  0  0
   48.6620   10.9204   16.0942 O   0  0  0  0  0  0  0  0  0  0  0  0
   50.5847   10.4120   12.3319 O   0  0  0  0  0  0  0  0  0  0  0  0
   49.5435    6.1525   18.0809 O   0  0  0  0  0  0  0  0  0  0  0  0
   47.3661    6.4821   19.0877 C   0  0  0  0  0  0  0  0  0  0  0  0
   48.5085   10.7791   11.6132 O   0  0  0  0  0  0  0  0  0  0  0  0
   49.3943    7.3024   12.1622 C   0  0  0  0  0  0  0  0  0  0  0  0
   46.9664    7.9185   12.3810 C   0  0  0  0  0  0  0  0  0  0  0  0
   47.7014    6.4381   20.5565 C   0  0  0  0  0  0  0  0  0  0  0  0
   47.5578    7.5799   21.3576 C   0  0  0  0  0  0  0  0  0  0  0  0
   48.1898    5.2573   21.1339 C   0  0  0  0  0  0  0  0  0  0  0  0
   48.5129    5.2135   22.4906 C   0  0  0  0  0  0  0  0  0  0  0  0
   47.8825    7.5336   22.7147 C   0  0  0  0  0  0  0  0  0  0  0  0
   48.3576    6.3507   23.2811 C   0  0  0  0  0  0  0  0  0  0  0  0
   48.3256    8.5925   18.3207 C   0  0  0  0  0  0  0  0  0  0  0  0
   48.4125    7.8222   19.5912 C   0  0  0  0  0  0  0  0  0  0  0  0
   47.4416    9.4025   18.0887 O   0  0  0  0  0  0  0  0  0  0  0  0
   47.5025    8.1251   20.6101 C   0  0  0  0  0  0  0  0  0  0  0  0
   49.3738    6.8279   19.8074 C   0  0  0  0  0  0  0  0  0  0  0  0
   49.3440    8.2612   17.4878 O   0  0  0  0  0  0  0  0  0  0  0  0
   48.4587    6.3925   22.0194 C   0  0  0  0  0  0  0  0  0  0  0  0
   48.4731    8.9059   13.8690 N   0  0  0  0  0  0  0  0  0  0  0  0
   48.5728    5.7823   23.2722 N   0  0  0  0  0  0  0  0  0  0  0  0
   47.5466    7.4295   21.8229 C   0  0  0  0  0  0  0  0  0  0  0  0
   49.4036    6.1344   21.0227 C   0  0  0  0  0  0  0  0  0  0  0  0
   49.3787    8.9623   16.2280 C   0  0  0  0  0  0  0  0  0  0  0  0
   48.4204    8.3084   15.2185 C   0  0  0  0  0  0  0  0  0  0  0  0
   47.2145    8.6760   13.1380 C   0  0  0  0  0  0  0  0  0  0  0  0
   49.6778    8.4879   13.1347 C   0  0  0  0  0  0  0  0  0  0  0  0
   46.8948    7.2273   12.7808 C   0  0  0  0  0  0  0  0  0  0  0  0
   49.8481    9.1816   11.7859 C   0  0  0  0  0  0  0  0  0  0  0  0
   48.8651    7.5556   17.2988 H   0  0  0  0  0  0  0  0  0  0  0  0
   48.4579    7.9166   15.8712 H   0  0  0  0  0  0  0  0  0  0  0  0
   50.6544    7.4464   15.1537 H   0  0  0  0  0  0  0  0  0  0  0  0
   50.4672    8.7125   17.2667 H   0  0  0  0  0  0  0  0  0  0  0  0
   47.8003    9.9232   13.8550 H   0  0  0  0  0  0  0  0  0  0  0  0
   47.6234    8.6665   17.7704 H   0  0  0  0  0  0  0  0  0  0  0  0
   46.5290    7.1704   18.9214 H   0  0  0  0  0  0  0  0  0  0  0  0
   47.0102    5.5022   18.7463 H   0  0  0  0  0  0  0  0  0  0  0  0
   49.0745   11.3076   11.0091 H   0  0  0  0  0  0  0  0  0  0  0  0
   50.3954    7.3282   12.6054 H   0  0  0  0  0  0  0  0  0  0  0  0
   49.4557    7.8112   11.1937 H   0  0  0  0  0  0  0  0  0  0  0  0
   49.1469    6.2552   11.9529 H   0  0  0  0  0  0  0  0  0  0  0  0
   46.1855    8.3586   13.0122 H   0  0  0  0  0  0  0  0  0  0  0  0
   46.9824    8.4797   11.4408 H   0  0  0  0  0  0  0  0  0  0  0  0
   46.6647    6.8929   12.1378 H   0  0  0  0  0  0  0  0  0  0  0  0
   47.1950    8.5143   20.9334 H   0  0  0  0  0  0  0  0  0  0  0  0
   48.3302    4.3665   20.5244 H   0  0  0  0  0  0  0  0  0  0  0  0
   48.8915    4.2928   22.9284 H   0  0  0  0  0  0  0  0  0  0  0  0
   47.7686    8.4217   23.3315 H   0  0  0  0  0  0  0  0  0  0  0  0
   48.6122    6.3179   24.3374 H   0  0  0  0  0  0  0  0  0  0  0  0
   46.7661    8.9152   20.4725 H   0  0  0  0  0  0  0  0  0  0  0  0
   50.1144    6.5897   19.0482 H   0  0  0  0  0  0  0  0  0  0  0  0
   49.0284    4.8764   23.2586 H   0  0  0  0  0  0  0  0  0  0  0  0
   47.7118    5.7758   23.8102 H   0  0  0  0  0  0  0  0  0  0  0  0
   46.8556    7.7086   22.6128 H   0  0  0  0  0  0  0  0  0  0  0  0
   50.1791    5.3881   21.1841 H   0  0  0  0  0  0  0  0  0  0  0  0
   50.4153    8.9016   15.8845 H   0  0  0  0  0  0  0  0  0  0  0  0
   49.1489   10.0254   16.3701 H   0  0  0  0  0  0  0  0  0  0  0  0
   47.4061    8.4163   15.6273 H   0  0  0  0  0  0  0  0  0  0  0  0
   48.6017    7.2248   15.1838 H   0  0  0  0  0  0  0  0  0  0  0  0
   47.2047    9.2786   12.2230 H   0  0  0  0  0  0  0  0  0  0  0  0
   46.3843    9.0791   13.7323 H   0  0  0  0  0  0  0  0  0  0  0  0
   50.5671    8.7398   13.7226 H   0  0  0  0  0  0  0  0  0  0  0  0
   49.7010    7.4008   12.9895 H   0  0  0  0  0  0  0  0  0  0  0  0
   47.6316    6.8084   12.0895 H   0  0  0  0  0  0  0  0  0  0  0  0
   45.9187    7.1770   12.2877 H   0  0  0  0  0  0  0  0  0  0  0  0
   46.8478    6.5907   13.6687 H   0  0  0  0  0  0  0  0  0  0  0  0
   50.8306    8.9442   11.3670 H   0  0  0  0  0  0  0  0  0  0  0  0
   49.0979    8.8542   11.0594 H   0  0  0  0  0  0  0  0  0  0  0  0
   49.7829   10.2699   11.8897 H   0  0  0  0  0  0  0  0  0  0  0  0
  3  2  1  0
  4  2  1  0
  5  4  1  0
  6  2  1  0
  3  7  1  0
  8  6  1  0
  5  9  1  0
  6 10  1  0
 11  9  1  0
 12  4  2  0
 13 10  2  0
 14 11  2  0
 15 11  1  0
 16 10  1  0
 17  8  1  0
 18  8  1  0
 19 15  1  0
 20 19  2  0
 21 19  1  0
 22 21  2  0
 23 20  1  0
 24 22  1  0
  7  8  1  0
  5  3  1  0
 24 23  2  0
 26 25  1  0
 27 25  2  0
 28 26  2  0
 29 26  1  0
 30 25  1  0
 31 35  1  0
 32 37  1  0
 33 31  1  0
 34 28  1  0
 35 29  2  0
 36 30  1  0
 37 36  1  0
 38 32  1  0
 39 32  1  0
 40 38  1  0
 41 39  1  0
 31 34  2  0
  1 42  1  0
  1 43  1  0
  3 44  1  1
  5 45  1  6
  6 46  1  6
  9 47  1  0
 15 48  1  0
 15 49  1  0
 16 50  1  0
 17 51  1  0
 17 52  1  0
 17 53  1  0
 18 54  1  0
 18 55  1  0
 18 56  1  0
 20 57  1  0
 21 58  1  0
 22 59  1  0
 23 60  1  0
 24 61  1  0
 28 62  1  0
 29 63  1  0
 33 64  1  0
 33 65  1  0
 34 66  1  0
 35 67  1  0
 36 68  1  0
 36 69  1  0
 37 70  1  0
 37 71  1  0
 38 72  1  0
 38 73  1  0
 39 74  1  0
 39 75  1  0
 40 76  1  0
 40 77  1  0
 40 78  1  0
 41 79  1  0
 41 80  1  0
 41 81  1  0
M  END
> <Uni-Dock RESULT> 
ENERGY=   -5.175  LOWER_BOUND=    5.266  UPPER_BOUND=    6.997
INTER + INTRA:          -5.175
INTER:                  -5.175
INTRA:                   0.000
UNBOUND:                 0.000

$$$$

     RDKit          3D

 81 82  0  0  0  0  0  0  0  0999 V2000
   47.7404    8.3499   12.9802 O   0  0  0  0  0  0  0  0  0  0  0  0
   50.2299    9.4882   12.0544 N   0  0  0  0  0  0  0  0  0  0  0  0
   48.8228    9.5743   11.6115 C   0  0  1  0  0  0  0  0  0  0  0  0
   50.1296    8.1714   12.4119 C   0  0  0  0  0  0  0  0  0  0  0  0
   48.7415    8.0342   11.7495 C   0  0  1  0  0  0  0  0  0  0  0  0
   50.6920   10.4614   13.0440 C   0  0  2  0  0  0  0  0  0  0  0  0
   48.0332   10.6166   12.9067 S   0  0  0  0  0  0  0  0  0  0  0  0
   49.6135   11.5544   13.1726 C   0  0  0  0  0  0  0  0  0  0  0  0
   47.6625    7.4740   12.6039 N   0  0  0  0  0  0  0  0  0  0  0  0
   52.0643   10.9966   12.6584 C   0  0  0  0  0  0  0  0  0  0  0  0
   46.3479    7.5134   12.1918 C   0  0  0  0  0  0  0  0  0  0  0  0
   50.8344    7.4827   13.1135 O   0  0  0  0  0  0  0  0  0  0  0  0
   52.5585   11.0423   11.5428 O   0  0  0  0  0  0  0  0  0  0  0  0
   46.0209    7.9851   11.1050 O   0  0  0  0  0  0  0  0  0  0  0  0
   45.3538    6.9384   13.1840 C   0  0  0  0  0  0  0  0  0  0  0  0
   52.7400   11.4988   13.7155 O   0  0  0  0  0  0  0  0  0  0  0  0
   49.6983   12.6586   12.1104 C   0  0  0  0  0  0  0  0  0  0  0  0
   49.5838   12.1706   14.5743 C   0  0  0  0  0  0  0  0  0  0  0  0
   44.7154    5.6651   12.6912 C   0  0  0  0  0  0  0  0  0  0  0  0
   45.2957    4.4194   12.9697 C   0  0  0  0  0  0  0  0  0  0  0  0
   43.5444    5.7147   11.9214 C   0  0  0  0  0  0  0  0  0  0  0  0
   42.9549    4.5401   11.4525 C   0  0  0  0  0  0  0  0  0  0  0  0
   44.7043    3.2457   12.4987 C   0  0  0  0  0  0  0  0  0  0  0  0
   43.5336    3.3060   11.7426 C   0  0  0  0  0  0  0  0  0  0  0  0
   47.7346    6.6192   12.7456 C   0  0  0  0  0  0  0  0  0  0  0  0
   46.5077    5.8633   12.3735 C   0  0  0  0  0  0  0  0  0  0  0  0
   48.3396    6.4396   13.7911 O   0  0  0  0  0  0  0  0  0  0  0  0
   46.0957    4.8207   13.2108 C   0  0  0  0  0  0  0  0  0  0  0  0
   45.7690    6.1440   11.2181 C   0  0  0  0  0  0  0  0  0  0  0  0
   48.0611    7.5116   11.7772 O   0  0  0  0  0  0  0  0  0  0  0  0
   44.1726    4.3985   11.7874 C   0  0  0  0  0  0  0  0  0  0  0  0
   50.0848   10.3952   13.1403 N   0  0  0  0  0  0  0  0  0  0  0  0
   43.0974    3.5826   11.4221 N   0  0  0  0  0  0  0  0  0  0  0  0
   44.9499    4.0803   12.9011 C   0  0  0  0  0  0  0  0  0  0  0  0
   44.6207    5.4005   10.9225 C   0  0  0  0  0  0  0  0  0  0  0  0
   49.2507    8.2909   12.0160 C   0  0  0  0  0  0  0  0  0  0  0  0
   48.9388    9.4880   12.9297 C   0  0  0  0  0  0  0  0  0  0  0  0
   49.9420   11.1460   14.4002 C   0  0  0  0  0  0  0  0  0  0  0  0
   50.3330   11.2420   11.9627 C   0  0  0  0  0  0  0  0  0  0  0  0
   48.7899   12.1446   14.4654 C   0  0  0  0  0  0  0  0  0  0  0  0
   51.5876   12.1035   12.0775 C   0  0  0  0  0  0  0  0  0  0  0  0
   47.4345    8.0106   12.1256 H   0  0  0  0  0  0  0  0  0  0  0  0
   48.3103    9.0977   12.7463 H   0  0  0  0  0  0  0  0  0  0  0  0
   48.7278    9.9559   10.5900 H   0  0  0  0  0  0  0  0  0  0  0  0
   48.8018    7.4952   10.7948 H   0  0  0  0  0  0  0  0  0  0  0  0
   50.8149    9.9259   13.9974 H   0  0  0  0  0  0  0  0  0  0  0  0
   47.8942    7.0681   13.5035 H   0  0  0  0  0  0  0  0  0  0  0  0
   45.8343    6.7584   14.1529 H   0  0  0  0  0  0  0  0  0  0  0  0
   44.5892    7.7015   13.3750 H   0  0  0  0  0  0  0  0  0  0  0  0
   53.5987   11.7826   13.3324 H   0  0  0  0  0  0  0  0  0  0  0  0
   49.7406   12.2575   11.0923 H   0  0  0  0  0  0  0  0  0  0  0  0
   50.5947   13.2720   12.2542 H   0  0  0  0  0  0  0  0  0  0  0  0
   48.8394   13.3373   12.1682 H   0  0  0  0  0  0  0  0  0  0  0  0
   49.4969   11.4051   15.3542 H   0  0  0  0  0  0  0  0  0  0  0  0
   50.5021   12.7343   14.7697 H   0  0  0  0  0  0  0  0  0  0  0  0
   48.7469   12.8689   14.6930 H   0  0  0  0  0  0  0  0  0  0  0  0
   46.2126    4.3513   13.5523 H   0  0  0  0  0  0  0  0  0  0  0  0
   43.0907    6.6729   11.6749 H   0  0  0  0  0  0  0  0  0  0  0  0
   42.0471    4.5897   10.8557 H   0  0  0  0  0  0  0  0  0  0  0  0
   45.1582    2.2824   12.7181 H   0  0  0  0  0  0  0  0  0  0  0  0
   43.0765    2.3908   11.3748 H   0  0  0  0  0  0  0  0  0  0  0  0
   46.6731    4.5675   14.0984 H   0  0  0  0  0  0  0  0  0  0  0  0
   46.0793    6.9270   10.5307 H   0  0  0  0  0  0  0  0  0  0  0  0
   42.4272    4.0232   10.8016 H   0  0  0  0  0  0  0  0  0  0  0  0
   42.6517    3.1100   12.2024 H   0  0  0  0  0  0  0  0  0  0  0  0
   44.6718    3.2511   13.5449 H   0  0  0  0  0  0  0  0  0  0  0  0
   44.0788    5.6120   10.0028 H   0  0  0  0  0  0  0  0  0  0  0  0
   49.5885    8.6241   11.0306 H   0  0  0  0  0  0  0  0  0  0  0  0
   50.0474    7.6631   12.4336 H   0  0  0  0  0  0  0  0  0  0  0  0
   48.6165    9.0749   13.8958 H   0  0  0  0  0  0  0  0  0  0  0  0
   48.0643   10.0306   12.5439 H   0  0  0  0  0  0  0  0  0  0  0  0
   50.8784   11.6679   14.6261 H   0  0  0  0  0  0  0  0  0  0  0  0
   49.8291   10.4304   15.2249 H   0  0  0  0  0  0  0  0  0  0  0  0
   50.4780   10.6063   11.0825 H   0  0  0  0  0  0  0  0  0  0  0  0
   49.4708   11.8835   11.7421 H   0  0  0  0  0  0  0  0  0  0  0  0
   48.9129   12.9531   13.7391 H   0  0  0  0  0  0  0  0  0  0  0  0
   48.7551   12.6014   15.4598 H   0  0  0  0  0  0  0  0  0  0  0  0
   47.8239   11.6626   14.2911 H   0  0  0  0  0  0  0  0  0  0  0  0
   51.7962   12.5865   11.1182 H   0  0  0  0  0  0  0  0  0  0  0  0
   51.4727   12.8972   12.8222 H   0  0  0  0  0  0  0  0  0  0  0  0
   52.4604   11.4978   12.3437 H   0  0  0  0  0  0  0  0  0  0  0  0
  3  2  1  0
  4  2  1  0
  5  4  1  0
  6  2  1  0
  3  7  1  0
  8  6  1  0
  5  9  1  0
  6 10  1  0
 11  9  1  0
 12  4  2  0
 13 10  2  0
 14 11  2  0
 15 11  1  0
 16 10  1  0
 17  8  1  0
 18  8  1  0
 19 15  1  0
 20 19  2  0
 21 19  1  0
 22 21  2  0
 23 20  1  0
 24 22  1  0
  7  8  1  0
  5  3  1  0
 24 23  2  0
 26 25  1  0
 27 25  2  0
 28 26  2  0
 29 26  1  0
 30 25  1  0
 31 35  1  0
 32 37  1  0
 33 31  1  0
 34 28  1  0
 35 29  2  0
 36 30  1  0
 37 36  1  0
 38 32  1  0
 39 32  1  0
 40 38  1  0
 41 39  1  0
 31 34  2  0
  1 42  1  0
  1 43  1  0
  3 44  1  1
  5 45  1  6
  6 46  1  6
  9 47  1  0
 15 48  1  0
 15 49  1  0
 16 50  1  0
 17 51  1  0
 17 52  1  0
 17 53  1  0
 18 54  1  0
 18 55  1  0
 18 56  1  0
 20 57  1  0
 21 58  1  0
 22 59  1  0
 23 60  1  0
 24 61  1  0
 28 62  1  0
 29 63  1  0
 33 64  1  0
 33 65  1  0
 34 66  1  0
 35 67  1  0
 36 68  1  0
 36 69  1  0
 37 70  1  0
 37 71  1  0
 38 72  1  0
 38 73  1  0
 39 74  1  0
 39 75  1  0
 40 76  1  0
 40 77  1  0
 40 78  1  0
 41 79  1  0
 41 80  1  0
 41 81  1  0
M  END
> <Uni-Dock RESULT> 
ENERGY=   -5.166  LOWER_BOUND=    1.438  UPPER_BOUND=    2.724
INTER + INTRA:          -5.166
INTER:                  -5.166
INTRA:                   0.000
UNBOUND:                 0.000

$$$$

     RDKit          3D

 81 82  0  0  0  0  0  0  0  0999 V2000
   47.9560    8.8409   16.6941 O   0  0  0  0  0  0  0  0  0  0  0  0
   49.5153    9.8780   14.4935 N   0  0  0  0  0  0  0  0  0  0  0  0
   49.5605    8.6438   15.3046 C   0  0  1  0  0  0  0  0  0  0  0  0
   49.1506   10.6655   15.5511 C   0  0  0  0  0  0  0  0  0  0  0  0
   49.4132    9.5309   16.5650 C   0  0  1  0  0  0  0  0  0  0  0  0
   48.6830    9.8711   13.2905 C   0  0  2  0  0  0  0  0  0  0  0  0
   48.0948    7.6972   14.7188 S   0  0  0  0  0  0  0  0  0  0  0  0
   48.2618    8.4148   13.0146 C   0  0  0  0  0  0  0  0  0  0  0  0
   48.3015    9.2210   17.5010 N   0  0  0  0  0  0  0  0  0  0  0  0
   49.4229   10.5254   12.1318 C   0  0  0  0  0  0  0  0  0  0  0  0
   48.3423    8.0927   18.2914 C   0  0  0  0  0  0  0  0  0  0  0  0
   48.6693   11.7748   15.5869 O   0  0  0  0  0  0  0  0  0  0  0  0
   50.6304   10.6339   11.9865 O   0  0  0  0  0  0  0  0  0  0  0  0
   49.2977    7.3197   18.2728 O   0  0  0  0  0  0  0  0  0  0  0  0
   47.1209    7.8874   19.1687 C   0  0  0  0  0  0  0  0  0  0  0  0
   48.5857   10.9793   11.1730 O   0  0  0  0  0  0  0  0  0  0  0  0
   49.3019    7.5873   12.2476 C   0  0  0  0  0  0  0  0  0  0  0  0
   46.9014    8.3322   12.3162 C   0  0  0  0  0  0  0  0  0  0  0  0
   47.4288    8.0468   20.6355 C   0  0  0  0  0  0  0  0  0  0  0  0
   47.3240    9.2995   21.2565 C   0  0  0  0  0  0  0  0  0  0  0  0
   47.8528    6.9445   21.3915 C   0  0  0  0  0  0  0  0  0  0  0  0
   48.1504    7.0879   22.7471 C   0  0  0  0  0  0  0  0  0  0  0  0
   47.6231    9.4405   22.6129 C   0  0  0  0  0  0  0  0  0  0  0  0
   48.0339    8.3351   23.3581 C   0  0  0  0  0  0  0  0  0  0  0  0
   48.1888    9.8182   18.1227 C   0  0  0  0  0  0  0  0  0  0  0  0
   48.2188    9.2412   19.4944 C   0  0  0  0  0  0  0  0  0  0  0  0
   47.3470   10.6221   17.7535 O   0  0  0  0  0  0  0  0  0  0  0  0
   47.3064    9.7301   20.4359 C   0  0  0  0  0  0  0  0  0  0  0  0
   49.1297    8.2496   19.8769 C   0  0  0  0  0  0  0  0  0  0  0  0
   49.2051    9.3242   17.3717 O   0  0  0  0  0  0  0  0  0  0  0  0
   48.1583    8.1856   22.1066 C   0  0  0  0  0  0  0  0  0  0  0  0
   48.4262    9.4634   13.6781 N   0  0  0  0  0  0  0  0  0  0  0  0
   48.2230    7.7629   23.4379 N   0  0  0  0  0  0  0  0  0  0  0  0
   47.2981    9.2202   21.7385 C   0  0  0  0  0  0  0  0  0  0  0  0
   49.1072    7.7428   21.1813 C   0  0  0  0  0  0  0  0  0  0  0  0
   49.2932    9.8291   16.0238 C   0  0  0  0  0  0  0  0  0  0  0  0
   48.3233    9.0747   15.0990 C   0  0  0  0  0  0  0  0  0  0  0  0
   47.1710    9.1820   12.9593 C   0  0  0  0  0  0  0  0  0  0  0  0
   49.6228    8.8903   13.0417 C   0  0  0  0  0  0  0  0  0  0  0  0
   46.7915    7.7114   12.8115 C   0  0  0  0  0  0  0  0  0  0  0  0
   49.8476    9.3690   11.6100 C   0  0  0  0  0  0  0  0  0  0  0  0
   48.6977    8.6195   17.2773 H   0  0  0  0  0  0  0  0  0  0  0  0
   48.3317    8.7826   15.8030 H   0  0  0  0  0  0  0  0  0  0  0  0
   50.5163    8.1179   15.2143 H   0  0  0  0  0  0  0  0  0  0  0  0
   50.3513    9.6893   17.1133 H   0  0  0  0  0  0  0  0  0  0  0  0
   47.8010   10.4953   13.4989 H   0  0  0  0  0  0  0  0  0  0  0  0
   47.5002    9.8400   17.5512 H   0  0  0  0  0  0  0  0  0  0  0  0
   46.3191    8.5787   18.8834 H   0  0  0  0  0  0  0  0  0  0  0  0
   46.7264    6.8839   18.9667 H   0  0  0  0  0  0  0  0  0  0  0  0
   49.1854   11.3880   10.5113 H   0  0  0  0  0  0  0  0  0  0  0  0
   50.2954    7.6355   12.7056 H   0  0  0  0  0  0  0  0  0  0  0  0
   49.4030    7.9441   11.2166 H   0  0  0  0  0  0  0  0  0  0  0  0
   49.0104    6.5321   12.1886 H   0  0  0  0  0  0  0  0  0  0  0  0
   46.1308    8.8938   12.8573 H   0  0  0  0  0  0  0  0  0  0  0  0
   46.9590    8.7471   11.3044 H   0  0  0  0  0  0  0  0  0  0  0  0
   46.5572    7.2958   12.2194 H   0  0  0  0  0  0  0  0  0  0  0  0
   47.0116   10.1756   20.6912 H   0  0  0  0  0  0  0  0  0  0  0  0
   47.9625    5.9682   20.9230 H   0  0  0  0  0  0  0  0  0  0  0  0
   48.4790    6.2268   23.3243 H   0  0  0  0  0  0  0  0  0  0  0  0
   47.5395   10.4141   23.0897 H   0  0  0  0  0  0  0  0  0  0  0  0
   48.2688    8.4480   24.4134 H   0  0  0  0  0  0  0  0  0  0  0  0
   46.6095   10.5218   20.1664 H   0  0  0  0  0  0  0  0  0  0  0  0
   49.8715    7.8703   19.1786 H   0  0  0  0  0  0  0  0  0  0  0  0
   48.6368    6.8463   23.5683 H   0  0  0  0  0  0  0  0  0  0  0  0
   47.3536    7.8729   23.9506 H   0  0  0  0  0  0  0  0  0  0  0  0
   46.6072    9.6423   22.4622 H   0  0  0  0  0  0  0  0  0  0  0  0
   49.8448    6.9961   21.4688 H   0  0  0  0  0  0  0  0  0  0  0  0
   50.3317    9.6740   15.7175 H   0  0  0  0  0  0  0  0  0  0  0  0
   49.1100   10.9104   16.0027 H   0  0  0  0  0  0  0  0  0  0  0  0
   47.3081    9.2852   15.4636 H   0  0  0  0  0  0  0  0  0  0  0  0
   48.4553    7.9912   15.2283 H   0  0  0  0  0  0  0  0  0  0  0  0
   47.2044    9.6425   11.9657 H   0  0  0  0  0  0  0  0  0  0  0  0
   46.3501    9.7036   13.4682 H   0  0  0  0  0  0  0  0  0  0  0  0
   50.5126    9.1881   13.6070 H   0  0  0  0  0  0  0  0  0  0  0  0
   49.5987    7.7936   13.0584 H   0  0  0  0  0  0  0  0  0  0  0  0
   47.5199    7.1637   12.2067 H   0  0  0  0  0  0  0  0  0  0  0  0
   45.8225    7.6305   12.3082 H   0  0  0  0  0  0  0  0  0  0  0  0
   46.7002    7.2157   13.7819 H   0  0  0  0  0  0  0  0  0  0  0  0
   50.8252    9.0305   11.2538 H   0  0  0  0  0  0  0  0  0  0  0  0
   49.0956    8.9702   10.9220 H   0  0  0  0  0  0  0  0  0  0  0  0
   49.8306   10.4624   11.5512 H   0  0  0  0  0  0  0  0  0  0  0  0
  3  2  1  0
  4  2  1  0
  5  4  1  0
  6  2  1  0
  3  7  1  0
  8  6  1  0
  5  9  1  0
  6 10  1  0
 11  9  1  0
 12  4  2  0
 13 10  2  0
 14 11  2  0
 15 11  1  0
 16 10  1  0
 17  8  1  0
 18  8  1  0
 19 15  1  0
 20 19  2  0
 21 19  1  0
 22 21  2  0
 23 20  1  0
 24 22  1  0
  7  8  1  0
  5  3  1  0
 24 23  2  0
 26 25  1  0
 27 25  2  0
 28 26  2  0
 29 26  1  0
 30 25  1  0
 31 35  1  0
 32 37  1  0
 33 31  1  0
 34 28  1  0
 35 29  2  0
 36 30  1  0
 37 36  1  0
 38 32  1  0
 39 32  1  0
 40 38  1  0
 41 39  1  0
 31 34  2  0
  1 42  1  0
  1 43  1  0
  3 44  1  1
  5 45  1  6
  6 46  1  6
  9 47  1  0
 15 48  1  0
 15 49  1  0
 16 50  1  0
 17 51  1  0
 17 52  1  0
 17 53  1  0
 18 54  1  0
 18 55  1  0
 18 56  1  0
 20 57  1  0
 21 58  1  0
 22 59  1  0
 23 60  1  0
 24 61  1  0
 28 62  1  0
 29 63  1  0
 33 64  1  0
 33 65  1  0
 34 66  1  0
 35 67  1  0
 36 68  1  0
 36 69  1  0
 37 70  1  0
 37 71  1  0
 38 72  1  0
 38 73  1  0
 39 74  1  0
 39 75  1  0
 40 76  1  0
 40 77  1  0
 40 78  1  0
 41 79  1  0
 41 80  1  0
 41 81  1  0
M  END
> <Uni-Dock RESULT> 
ENERGY=   -5.094  LOWER_BOUND=    5.130  UPPER_BOUND=    7.127
INTER + INTRA:          -5.094
INTER:                  -5.094
INTRA:                   0.000
UNBOUND:                 0.000

$$$$

     RDKit          3D

 81 82  0  0  0  0  0  0  0  0999 V2000
   45.5009    9.9295   10.9408 O   0  0  0  0  0  0  0  0  0  0  0  0
   43.1783   11.6362   10.7350 N   0  0  0  0  0  0  0  0  0  0  0  0
   44.5577   11.8188   11.2322 C   0  0  1  0  0  0  0  0  0  0  0  0
   43.0882   10.3507   11.1943 C   0  0  0  0  0  0  0  0  0  0  0  0
   44.4030   10.4795   11.9937 C   0  0  1  0  0  0  0  0  0  0  0  0
   42.9242   11.9061    9.3199 C   0  0  2  0  0  0  0  0  0  0  0  0
   45.5643   11.8437    9.6915 S   0  0  0  0  0  0  0  0  0  0  0  0
   44.1659   12.6124    8.7422 C   0  0  0  0  0  0  0  0  0  0  0  0
   45.4217    9.4255   11.7499 N   0  0  0  0  0  0  0  0  0  0  0  0
   41.6355   12.7004    9.1562 C   0  0  0  0  0  0  0  0  0  0  0  0
   46.7041    9.5617   12.2360 C   0  0  0  0  0  0  0  0  0  0  0  0
   42.3196    9.4592   10.9151 O   0  0  0  0  0  0  0  0  0  0  0  0
   41.1000   13.4272    9.9783 O   0  0  0  0  0  0  0  0  0  0  0  0
   47.0469   10.5358   12.9027 O   0  0  0  0  0  0  0  0  0  0  0  0
   47.6436    8.4251   11.8768 C   0  0  0  0  0  0  0  0  0  0  0  0
   41.1002   12.5702    7.9222 O   0  0  0  0  0  0  0  0  0  0  0  0
   44.2030   14.1279    8.9804 C   0  0  0  0  0  0  0  0  0  0  0  0
   44.3613   12.3062    7.2545 C   0  0  0  0  0  0  0  0  0  0  0  0
   48.0490    7.6086   13.0771 C   0  0  0  0  0  0  0  0  0  0  0  0
   47.2948    6.4946   13.4724 C   0  0  0  0  0  0  0  0  0  0  0  0
   49.1737    7.9728   13.8313 C   0  0  0  0  0  0  0  0  0  0  0  0
   49.5476    7.2277   14.9502 C   0  0  0  0  0  0  0  0  0  0  0  0
   47.6706    5.7511   14.5928 C   0  0  0  0  0  0  0  0  0  0  0  0
   48.7974    6.1162   15.3298 C   0  0  0  0  0  0  0  0  0  0  0  0
   45.2234    8.6566   12.1040 C   0  0  0  0  0  0  0  0  0  0  0  0
   46.2965    8.1323   12.9921 C   0  0  0  0  0  0  0  0  0  0  0  0
   44.6503    7.9717   11.2711 O   0  0  0  0  0  0  0  0  0  0  0  0
   46.5807    6.7629   12.9460 C   0  0  0  0  0  0  0  0  0  0  0  0
   47.0119    8.9490   13.8756 C   0  0  0  0  0  0  0  0  0  0  0  0
   44.9935    9.9704   12.3529 O   0  0  0  0  0  0  0  0  0  0  0  0
   48.3408    7.0429   14.5971 C   0  0  0  0  0  0  0  0  0  0  0  0
   43.5175   11.7361    9.3574 N   0  0  0  0  0  0  0  0  0  0  0  0
   49.2552    6.4811   15.4934 N   0  0  0  0  0  0  0  0  0  0  0  0
   47.5793    6.2235   13.7637 C   0  0  0  0  0  0  0  0  0  0  0  0
   48.0132    8.3986   14.6839 C   0  0  0  0  0  0  0  0  0  0  0  0
   43.9543   10.5865   11.5655 C   0  0  0  0  0  0  0  0  0  0  0  0
   44.4950   11.0041   10.1877 C   0  0  0  0  0  0  0  0  0  0  0  0
   43.8386   11.6093    7.9248 C   0  0  0  0  0  0  0  0  0  0  0  0
   43.3473   13.1248    9.8129 C   0  0  0  0  0  0  0  0  0  0  0  0
   45.1349   12.2677    7.4616 C   0  0  0  0  0  0  0  0  0  0  0  0
   42.2506   13.8855    9.0725 C   0  0  0  0  0  0  0  0  0  0  0  0
   45.7071   10.1132   11.8698 H   0  0  0  0  0  0  0  0  0  0  0  0
   45.0446   10.7289   10.6384 H   0  0  0  0  0  0  0  0  0  0  0  0
   44.6607   12.7055   11.8657 H   0  0  0  0  0  0  0  0  0  0  0  0
   44.2117   10.5951   13.0687 H   0  0  0  0  0  0  0  0  0  0  0  0
   42.7662   10.9363    8.8247 H   0  0  0  0  0  0  0  0  0  0  0  0
   45.1740    8.6028   11.2119 H   0  0  0  0  0  0  0  0  0  0  0  0
   47.1893    7.7714   11.1230 H   0  0  0  0  0  0  0  0  0  0  0  0
   48.5269    8.8591   11.3923 H   0  0  0  0  0  0  0  0  0  0  0  0
   40.2788   13.1070    7.9643 H   0  0  0  0  0  0  0  0  0  0  0  0
   44.0479   14.3901   10.0322 H   0  0  0  0  0  0  0  0  0  0  0  0
   43.4222   14.6342    8.4019 H   0  0  0  0  0  0  0  0  0  0  0  0
   45.1596   14.5601    8.6643 H   0  0  0  0  0  0  0  0  0  0  0  0
   44.3655   11.2278    7.0575 H   0  0  0  0  0  0  0  0  0  0  0  0
   43.5537   12.7447    6.6589 H   0  0  0  0  0  0  0  0  0  0  0  0
   45.3023   12.7216    6.8749 H   0  0  0  0  0  0  0  0  0  0  0  0
   46.4087    6.1972   12.9148 H   0  0  0  0  0  0  0  0  0  0  0  0
   49.7594    8.8475   13.5545 H   0  0  0  0  0  0  0  0  0  0  0  0
   50.4212    7.5191   15.5285 H   0  0  0  0  0  0  0  0  0  0  0  0
   47.0826    4.8879   14.8946 H   0  0  0  0  0  0  0  0  0  0  0  0
   49.0864    5.5373   16.2033 H   0  0  0  0  0  0  0  0  0  0  0  0
   46.0154    6.1060   12.2871 H   0  0  0  0  0  0  0  0  0  0  0  0
   46.7948   10.0109   13.9580 H   0  0  0  0  0  0  0  0  0  0  0  0
   49.9547    7.1279   15.8410 H   0  0  0  0  0  0  0  0  0  0  0  0
   49.6593    5.6045   15.1787 H   0  0  0  0  0  0  0  0  0  0  0  0
   47.7554    5.1522   13.7387 H   0  0  0  0  0  0  0  0  0  0  0  0
   48.5355    9.0436   15.3878 H   0  0  0  0  0  0  0  0  0  0  0  0
   43.6245   11.4566   12.1403 H   0  0  0  0  0  0  0  0  0  0  0  0
   43.0906    9.9167   11.4724 H   0  0  0  0  0  0  0  0  0  0  0  0
   44.7959   10.0817    9.6715 H   0  0  0  0  0  0  0  0  0  0  0  0
   45.4237   11.5786   10.3127 H   0  0  0  0  0  0  0  0  0  0  0  0
   43.0080   11.9980    7.3254 H   0  0  0  0  0  0  0  0  0  0  0  0
   43.8785   10.5431    7.6666 H   0  0  0  0  0  0  0  0  0  0  0  0
   43.0609   13.1276   10.8702 H   0  0  0  0  0  0  0  0  0  0  0  0
   44.2874   13.6862    9.7458 H   0  0  0  0  0  0  0  0  0  0  0  0
   45.1046   13.3540    7.5859 H   0  0  0  0  0  0  0  0  0  0  0  0
   45.2902   12.0651    6.3969 H   0  0  0  0  0  0  0  0  0  0  0  0
   46.0034   11.8787    8.0003 H   0  0  0  0  0  0  0  0  0  0  0  0
   42.0733   14.8494    9.5587 H   0  0  0  0  0  0  0  0  0  0  0  0
   42.5255   14.0919    8.0334 H   0  0  0  0  0  0  0  0  0  0  0  0
   41.3079   13.3282    9.0808 H   0  0  0  0  0  0  0  0  0  0  0  0
  3  2  1  0
  4  2  1  0
  5  4  1  0
  6  2  1  0
  3  7  1  0
  8  6  1  0
  5  9  1  0
  6 10  1  0
 11  9  1  0
 12  4  2  0
 13 10  2  0
 14 11  2  0
 15 11  1  0
 16 10  1  0
 17  8  1  0
 18  8  1  0
 19 15  1  0
 20 19  2  0
 21 19  1  0
 22 21  2  0
 23 20  1  0
 24 22  1  0
  7  8  1  0
  5  3  1  0
 24 23  2  0
 26 25  1  0
 27 25  2  0
 28 26  2  0
 29 26  1  0
 30 25  1  0
 31 35  1  0
 32 37  1  0
 33 31  1  0
 34 28  1  0
 35 29  2  0
 36 30  1  0
 37 36  1  0
 38 32  1  0
 39 32  1  0
 40 38  1  0
 41 39  1  0
 31 34  2  0
  1 42  1  0
  1 43  1  0
  3 44  1  1
  5 45  1  6
  6 46  1  6
  9 47  1  0
 15 48  1  0
 15 49  1  0
 16 50  1  0
 17 51  1  0
 17 52  1  0
 17 53  1  0
 18 54  1  0
 18 55  1  0
 18 56  1  0
 20 57  1  0
 21 58  1  0
 22 59  1  0
 23 60  1  0
 24 61  1  0
 28 62  1  0
 29 63  1  0
 33 64  1  0
 33 65  1  0
 34 66  1  0
 35 67  1  0
 36 68  1  0
 36 69  1  0
 37 70  1  0
 37 71  1  0
 38 72  1  0
 38 73  1  0
 39 74  1  0
 39 75  1  0
 40 76  1  0
 40 77  1  0
 40 78  1  0
 41 79  1  0
 41 80  1  0
 41 81  1  0
M  END
> <Uni-Dock RESULT> 
ENERGY=   -4.905  LOWER_BOUND=    4.270  UPPER_BOUND=    6.975
INTER + INTRA:          -4.905
INTER:                  -4.905
INTRA:                   0.000
UNBOUND:                 0.000

$$$$

     RDKit          3D

 81 82  0  0  0  0  0  0  0  0999 V2000
   41.5464   12.6127   10.0484 O   0  0  0  0  0  0  0  0  0  0  0  0
   42.3315   14.2214    7.7800 N   0  0  0  0  0  0  0  0  0  0  0  0
   42.8665   14.0202    9.1425 C   0  0  1  0  0  0  0  0  0  0  0  0
   41.0271   14.1342    8.1834 C   0  0  0  0  0  0  0  0  0  0  0  0
   41.4217   14.1817    9.6755 C   0  0  1  0  0  0  0  0  0  0  0  0
   42.8108   13.3310    6.7228 C   0  0  2  0  0  0  0  0  0  0  0  0
   43.5929   12.3307    9.0680 S   0  0  0  0  0  0  0  0  0  0  0  0
   44.0188   12.5490    7.2740 C   0  0  0  0  0  0  0  0  0  0  0  0
   40.8760   13.0958   10.5304 N   0  0  0  0  0  0  0  0  0  0  0  0
   43.1190   14.1259    5.4613 C   0  0  0  0  0  0  0  0  0  0  0  0
   41.3376   12.9147   11.8164 C   0  0  0  0  0  0  0  0  0  0  0  0
   40.0120   13.9420    7.5542 O   0  0  0  0  0  0  0  0  0  0  0  0
   43.4044   15.3103    5.3794 O   0  0  0  0  0  0  0  0  0  0  0  0
   42.1904   13.6489   12.3108 O   0  0  0  0  0  0  0  0  0  0  0  0
   40.7155   11.7440   12.5555 C   0  0  0  0  0  0  0  0  0  0  0  0
   43.0950   13.3604    4.3480 O   0  0  0  0  0  0  0  0  0  0  0  0
   45.3543   13.2998    7.1880 C   0  0  0  0  0  0  0  0  0  0  0  0
   44.1485   11.1645    6.6325 C   0  0  0  0  0  0  0  0  0  0  0  0
   39.8416   12.1827   13.7024 C   0  0  0  0  0  0  0  0  0  0  0  0
   38.4754   12.4302   13.5069 C   0  0  0  0  0  0  0  0  0  0  0  0
   40.3938   12.3762   14.9767 C   0  0  0  0  0  0  0  0  0  0  0  0
   39.5922   12.7933   16.0400 C   0  0  0  0  0  0  0  0  0  0  0  0
   37.6756   12.8482   14.5722 C   0  0  0  0  0  0  0  0  0  0  0  0
   38.2333   13.0274   15.8383 C   0  0  0  0  0  0  0  0  0  0  0  0
   40.0273   13.1757   10.7009 C   0  0  0  0  0  0  0  0  0  0  0  0
   39.7236   13.1591   12.1579 C   0  0  0  0  0  0  0  0  0  0  0  0
   39.3946   12.5320    9.8784 O   0  0  0  0  0  0  0  0  0  0  0  0
   38.5894   12.4613   12.5876 C   0  0  0  0  0  0  0  0  0  0  0  0
   40.5143   13.8248   13.1018 C   0  0  0  0  0  0  0  0  0  0  0  0
   41.0838   13.9860   10.4399 O   0  0  0  0  0  0  0  0  0  0  0  0
   39.0827   13.0243   14.8989 C   0  0  0  0  0  0  0  0  0  0  0  0
   42.8553   13.0101    7.2495 N   0  0  0  0  0  0  0  0  0  0  0  0
   38.6876   13.0762   16.2391 N   0  0  0  0  0  0  0  0  0  0  0  0
   38.2620   12.4192   13.9469 C   0  0  0  0  0  0  0  0  0  0  0  0
   40.1801   13.7698   14.4598 C   0  0  0  0  0  0  0  0  0  0  0  0
   41.4597   14.1009    9.0524 C   0  0  0  0  0  0  0  0  0  0  0  0
   42.3427   12.9143    8.6312 C   0  0  0  0  0  0  0  0  0  0  0  0
   43.1794   11.6774    6.7108 C   0  0  0  0  0  0  0  0  0  0  0  0
   43.9536   13.9834    7.1420 C   0  0  0  0  0  0  0  0  0  0  0  0
   44.3369   10.9410    7.3791 C   0  0  0  0  0  0  0  0  0  0  0  0
   44.4300   14.2183    5.7112 C   0  0  0  0  0  0  0  0  0  0  0  0
   41.5734   13.3166   10.7141 H   0  0  0  0  0  0  0  0  0  0  0  0
   42.1821   12.9000    9.3761 H   0  0  0  0  0  0  0  0  0  0  0  0
   43.5636   14.8100    9.4398 H   0  0  0  0  0  0  0  0  0  0  0  0
   41.2145   15.1659   10.1163 H   0  0  0  0  0  0  0  0  0  0  0  0
   41.9874   12.6448    6.4742 H   0  0  0  0  0  0  0  0  0  0  0  0
   40.1647   12.4753   10.1607 H   0  0  0  0  0  0  0  0  0  0  0  0
   40.1346   11.1175   11.8684 H   0  0  0  0  0  0  0  0  0  0  0  0
   41.5294   11.1035   12.9169 H   0  0  0  0  0  0  0  0  0  0  0  0
   43.2858   13.9942    3.6225 H   0  0  0  0  0  0  0  0  0  0  0  0
   45.2983   14.3044    7.6203 H   0  0  0  0  0  0  0  0  0  0  0  0
   45.6732   13.4131    6.1459 H   0  0  0  0  0  0  0  0  0  0  0  0
   46.1538   12.7562    7.7048 H   0  0  0  0  0  0  0  0  0  0  0  0
   43.2150   10.5938    6.7026 H   0  0  0  0  0  0  0  0  0  0  0  0
   44.4003   11.2512    5.5703 H   0  0  0  0  0  0  0  0  0  0  0  0
   44.9417   10.5719    7.1033 H   0  0  0  0  0  0  0  0  0  0  0  0
   38.0223   12.3026   12.5254 H   0  0  0  0  0  0  0  0  0  0  0  0
   41.4566   12.2115   15.1442 H   0  0  0  0  0  0  0  0  0  0  0  0
   40.0306   12.9410   17.0242 H   0  0  0  0  0  0  0  0  0  0  0  0
   36.6167   13.0380   14.4152 H   0  0  0  0  0  0  0  0  0  0  0  0
   37.6091   13.3555   16.6656 H   0  0  0  0  0  0  0  0  0  0  0  0
   37.9452   11.9617   11.8660 H   0  0  0  0  0  0  0  0  0  0  0  0
   41.3844   14.4012   12.7979 H   0  0  0  0  0  0  0  0  0  0  0  0
   39.4406   13.2618   16.8925 H   0  0  0  0  0  0  0  0  0  0  0  0
   38.1044   12.2977   16.5299 H   0  0  0  0  0  0  0  0  0  0  0  0
   37.3560   11.9043   14.2522 H   0  0  0  0  0  0  0  0  0  0  0  0
   40.7882   14.3210   15.1744 H   0  0  0  0  0  0  0  0  0  0  0  0
   42.0037   15.0462    8.9710 H   0  0  0  0  0  0  0  0  0  0  0  0
   40.5702   14.1861    8.4162 H   0  0  0  0  0  0  0  0  0  0  0  0
   41.7277   12.0091    8.7316 H   0  0  0  0  0  0  0  0  0  0  0  0
   43.1610   12.7865    9.3537 H   0  0  0  0  0  0  0  0  0  0  0  0
   43.3788   11.7530    5.6362 H   0  0  0  0  0  0  0  0  0  0  0  0
   42.2835   11.0460    6.7726 H   0  0  0  0  0  0  0  0  0  0  0  0
   43.6147   14.9560    7.5150 H   0  0  0  0  0  0  0  0  0  0  0  0
   44.8078   13.6935    7.7663 H   0  0  0  0  0  0  0  0  0  0  0  0
   45.2848   11.4700    7.2452 H   0  0  0  0  0  0  0  0  0  0  0  0
   44.4501    9.9491    6.9297 H   0  0  0  0  0  0  0  0  0  0  0  0
   44.1643   10.7992    8.4496 H   0  0  0  0  0  0  0  0  0  0  0  0
   45.1328   15.0565    5.6861 H   0  0  0  0  0  0  0  0  0  0  0  0
   44.9509   13.3458    5.3046 H   0  0  0  0  0  0  0  0  0  0  0  0
   43.5920   14.4646    5.0506 H   0  0  0  0  0  0  0  0  0  0  0  0
  3  2  1  0
  4  2  1  0
  5  4  1  0
  6  2  1  0
  3  7  1  0
  8  6  1  0
  5  9  1  0
  6 10  1  0
 11  9  1  0
 12  4  2  0
 13 10  2  0
 14 11  2  0
 15 11  1  0
 16 10  1  0
 17  8  1  0
 18  8  1  0
 19 15  1  0
 20 19  2  0
 21 19  1  0
 22 21  2  0
 23 20  1  0
 24 22  1  0
  7  8  1  0
  5  3  1  0
 24 23  2  0
 26 25  1  0
 27 25  2  0
 28 26  2  0
 29 26  1  0
 30 25  1  0
 31 35  1  0
 32 37  1  0
 33 31  1  0
 34 28  1  0
 35 29  2  0
 36 30  1  0
 37 36  1  0
 38 32  1  0
 39 32  1  0
 40 38  1  0
 41 39  1  0
 31 34  2  0
  1 42  1  0
  1 43  1  0
  3 44  1  1
  5 45  1  6
  6 46  1  6
  9 47  1  0
 15 48  1  0
 15 49  1  0
 16 50  1  0
 17 51  1  0
 17 52  1  0
 17 53  1  0
 18 54  1  0
 18 55  1  0
 18 56  1  0
 20 57  1  0
 21 58  1  0
 22 59  1  0
 23 60  1  0
 24 61  1  0
 28 62  1  0
 29 63  1  0
 33 64  1  0
 33 65  1  0
 34 66  1  0
 35 67  1  0
 36 68  1  0
 36 69  1  0
 37 70  1  0
 37 71  1  0
 38 72  1  0
 38 73  1  0
 39 74  1  0
 39 75  1  0
 40 76  1  0
 40 77  1  0
 40 78  1  0
 41 79  1  0
 41 80  1  0
 41 81  1  0
M  END
> <Uni-Dock RESULT> 
ENERGY=   -4.898  LOWER_BOUND=    8.208  UPPER_BOUND=    9.852
INTER + INTRA:          -4.898
INTER:                  -4.898
INTRA:                   0.000
UNBOUND:                 0.000

$$$$

     RDKit          3D

 81 82  0  0  0  0  0  0  0  0999 V2000
   48.5479    8.9581   19.1210 O   0  0  0  0  0  0  0  0  0  0  0  0
   50.0096   11.4473   18.9896 N   0  0  0  0  0  0  0  0  0  0  0  0
   49.0746   10.7456   18.0859 C   0  0  1  0  0  0  0  0  0  0  0  0
   50.5959   10.2906   19.4256 C   0  0  0  0  0  0  0  0  0  0  0  0
   49.8803    9.4493   18.3465 C   0  0  1  0  0  0  0  0  0  0  0  0
   49.4419   12.3717   19.9711 C   0  0  2  0  0  0  0  0  0  0  0  0
   47.4457   10.9513   18.9176 S   0  0  0  0  0  0  0  0  0  0  0  0
   47.9609   12.5955   19.6092 C   0  0  0  0  0  0  0  0  0  0  0  0
   49.1349    8.2597   18.8337 N   0  0  0  0  0  0  0  0  0  0  0  0
   50.2606   13.6543   20.0247 C   0  0  0  0  0  0  0  0  0  0  0  0
   48.2850    7.5711   17.9952 C   0  0  0  0  0  0  0  0  0  0  0  0
   51.2861   10.0655   20.3932 O   0  0  0  0  0  0  0  0  0  0  0  0
   50.9688   14.1221   19.1469 O   0  0  0  0  0  0  0  0  0  0  0  0
   48.1292    7.8934   16.8194 O   0  0  0  0  0  0  0  0  0  0  0  0
   47.5646    6.4020   18.6416 C   0  0  0  0  0  0  0  0  0  0  0  0
   50.1057   14.3191   21.1910 O   0  0  0  0  0  0  0  0  0  0  0  0
   47.7245   13.6622   18.5317 C   0  0  0  0  0  0  0  0  0  0  0  0
   47.1060   12.8935   20.8444 C   0  0  0  0  0  0  0  0  0  0  0  0
   48.0146    5.0715   18.0949 C   0  0  0  0  0  0  0  0  0  0  0  0
   49.0845    4.3815   18.6824 C   0  0  0  0  0  0  0  0  0  0  0  0
   47.3836    4.5206   16.9703 C   0  0  0  0  0  0  0  0  0  0  0  0
   47.8031    3.2946   16.4525 C   0  0  0  0  0  0  0  0  0  0  0  0
   49.5028    3.1553   18.1620 C   0  0  0  0  0  0  0  0  0  0  0  0
   48.8611    2.6114   17.0492 C   0  0  0  0  0  0  0  0  0  0  0  0
   49.6464    7.6009   19.0792 C   0  0  0  0  0  0  0  0  0  0  0  0
   49.3181    6.3230   18.3904 C   0  0  0  0  0  0  0  0  0  0  0  0
   49.8470    7.6805   20.2812 O   0  0  0  0  0  0  0  0  0  0  0  0
   49.3533    5.1417   19.1396 C   0  0  0  0  0  0  0  0  0  0  0  0
   48.9963    6.2595   17.0297 C   0  0  0  0  0  0  0  0  0  0  0  0
   49.6813    8.6283   18.1938 O   0  0  0  0  0  0  0  0  0  0  0  0
   48.6682    3.8544   17.1964 C   0  0  0  0  0  0  0  0  0  0  0  0
   49.0035   11.9499   19.8602 N   0  0  0  0  0  0  0  0  0  0  0  0
   48.4845    2.6169   16.5721 N   0  0  0  0  0  0  0  0  0  0  0  0
   49.0545    3.9159   18.5353 C   0  0  0  0  0  0  0  0  0  0  0  0
   48.6929    5.0279   16.4380 C   0  0  0  0  0  0  0  0  0  0  0  0
   50.0128    9.9199   18.7430 C   0  0  0  0  0  0  0  0  0  0  0  0
   48.7702   10.5781   19.3657 C   0  0  0  0  0  0  0  0  0  0  0  0
   48.0333   12.3069   20.9104 C   0  0  0  0  0  0  0  0  0  0  0  0
   49.0779   12.9214   18.7575 C   0  0  0  0  0  0  0  0  0  0  0  0
   46.5755   12.4201   20.4740 C   0  0  0  0  0  0  0  0  0  0  0  0
   49.4499   14.3325   19.2045 C   0  0  0  0  0  0  0  0  0  0  0  0
   48.8099    8.6151   18.2533 H   0  0  0  0  0  0  0  0  0  0  0  0
   48.6015    9.9201   19.0199 H   0  0  0  0  0  0  0  0  0  0  0  0
   49.1204   11.1239   17.0598 H   0  0  0  0  0  0  0  0  0  0  0  0
   50.5626    9.1745   17.5313 H   0  0  0  0  0  0  0  0  0  0  0  0
   49.5303   11.8953   20.9590 H   0  0  0  0  0  0  0  0  0  0  0  0
   49.2445    7.9577   19.7951 H   0  0  0  0  0  0  0  0  0  0  0  0
   47.6999    6.4180   19.7295 H   0  0  0  0  0  0  0  0  0  0  0  0
   46.4883    6.5388   18.4795 H   0  0  0  0  0  0  0  0  0  0  0  0
   50.6956   15.0987   21.0975 H   0  0  0  0  0  0  0  0  0  0  0  0
   48.3332   13.4952   17.6368 H   0  0  0  0  0  0  0  0  0  0  0  0
   47.9709   14.6610   18.9090 H   0  0  0  0  0  0  0  0  0  0  0  0
   46.6735   13.6930   18.2217 H   0  0  0  0  0  0  0  0  0  0  0  0
   47.2347   12.1319   21.6224 H   0  0  0  0  0  0  0  0  0  0  0  0
   47.3807   13.8588   21.2825 H   0  0  0  0  0  0  0  0  0  0  0  0
   46.0392   12.9451   20.5967 H   0  0  0  0  0  0  0  0  0  0  0  0
   49.6027    4.7920   19.5472 H   0  0  0  0  0  0  0  0  0  0  0  0
   46.5661    5.0512   16.4857 H   0  0  0  0  0  0  0  0  0  0  0  0
   47.3073    2.8765   15.5796 H   0  0  0  0  0  0  0  0  0  0  0  0
   50.3325    2.6242   18.6218 H   0  0  0  0  0  0  0  0  0  0  0  0
   49.1903    1.6579   16.6442 H   0  0  0  0  0  0  0  0  0  0  0  0
   49.6300    5.1663   20.1923 H   0  0  0  0  0  0  0  0  0  0  0  0
   48.9902    7.1544   16.4126 H   0  0  0  0  0  0  0  0  0  0  0  0
   47.9395    2.6538   15.7177 H   0  0  0  0  0  0  0  0  0  0  0  0
   48.1765    1.8787   17.1974 H   0  0  0  0  0  0  0  0  0  0  0  0
   49.1262    3.0084   19.1274 H   0  0  0  0  0  0  0  0  0  0  0  0
   48.4775    4.9949   15.3718 H   0  0  0  0  0  0  0  0  0  0  0  0
   50.3927   10.5092   17.9036 H   0  0  0  0  0  0  0  0  0  0  0  0
   50.8293    9.8333   19.4704 H   0  0  0  0  0  0  0  0  0  0  0  0
   48.4555    9.9365   20.2006 H   0  0  0  0  0  0  0  0  0  0  0  0
   47.9365   10.5469   18.6502 H   0  0  0  0  0  0  0  0  0  0  0  0
   48.3359   13.2456   21.3875 H   0  0  0  0  0  0  0  0  0  0  0  0
   48.0985   11.5643   21.7162 H   0  0  0  0  0  0  0  0  0  0  0  0
   49.8546   12.6097   18.0509 H   0  0  0  0  0  0  0  0  0  0  0  0
   48.1395   12.9556   18.1903 H   0  0  0  0  0  0  0  0  0  0  0  0
   46.4299   13.2304   19.7539 H   0  0  0  0  0  0  0  0  0  0  0  0
   45.9473   12.6391   21.3435 H   0  0  0  0  0  0  0  0  0  0  0  0
   46.2105   11.4894   20.0308 H   0  0  0  0  0  0  0  0  0  0  0  0
   49.6376   14.9623   18.3297 H   0  0  0  0  0  0  0  0  0  0  0  0
   48.6470   14.8053   19.7785 H   0  0  0  0  0  0  0  0  0  0  0  0
   50.3596   14.3274   19.8143 H   0  0  0  0  0  0  0  0  0  0  0  0
  3  2  1  0
  4  2  1  0
  5  4  1  0
  6  2  1  0
  3  7  1  0
  8  6  1  0
  5  9  1  0
  6 10  1  0
 11  9  1  0
 12  4  2  0
 13 10  2  0
 14 11  2  0
 15 11  1  0
 16 10  1  0
 17  8  1  0
 18  8  1  0
 19 15  1  0
 20 19  2  0
 21 19  1  0
 22 21  2  0
 23 20  1  0
 24 22  1  0
  7  8  1  0
  5  3  1  0
 24 23  2  0
 26 25  1  0
 27 25  2  0
 28 26  2  0
 29 26  1  0
 30 25  1  0
 31 35  1  0
 32 37  1  0
 33 31  1  0
 34 28  1  0
 35 29  2  0
 36 30  1  0
 37 36  1  0
 38 32  1  0
 39 32  1  0
 40 38  1  0
 41 39  1  0
 31 34  2  0
  1 42  1  0
  1 43  1  0
  3 44  1  1
  5 45  1  6
  6 46  1  6
  9 47  1  0
 15 48  1  0
 15 49  1  0
 16 50  1  0
 17 51  1  0
 17 52  1  0
 17 53  1  0
 18 54  1  0
 18 55  1  0
 18 56  1  0
 20 57  1  0
 21 58  1  0
 22 59  1  0
 23 60  1  0
 24 61  1  0
 28 62  1  0
 29 63  1  0
 33 64  1  0
 33 65  1  0
 34 66  1  0
 35 67  1  0
 36 68  1  0
 36 69  1  0
 37 70  1  0
 37 71  1  0
 38 72  1  0
 38 73  1  0
 39 74  1  0
 39 75  1  0
 40 76  1  0
 40 77  1  0
 40 78  1  0
 41 79  1  0
 41 80  1  0
 41 81  1  0
M  END
> <Uni-Dock RESULT> 
ENERGY=   -4.655  LOWER_BOUND=    5.910  UPPER_BOUND=    7.552
INTER + INTRA:          -4.655
INTER:                  -4.655
INTRA:                   0.000
UNBOUND:                 0.000

$$$$

     RDKit          3D

 81 82  0  0  0  0  0  0  0  0999 V2000
   49.6558    6.8811   15.4131 O   0  0  0  0  0  0  0  0  0  0  0  0
   50.8794    6.5406   18.0087 N   0  0  0  0  0  0  0  0  0  0  0  0
   49.5506    6.9852   17.5397 C   0  0  1  0  0  0  0  0  0  0  0  0
   51.5434    7.1391   16.9730 C   0  0  0  0  0  0  0  0  0  0  0  0
   50.2752    7.8912   16.5143 C   0  0  1  0  0  0  0  0  0  0  0  0
   51.0731    5.1104   18.2469 C   0  0  2  0  0  0  0  0  0  0  0  0
   48.7694    5.4296   16.9417 S   0  0  0  0  0  0  0  0  0  0  0  0
   49.6897    4.4325   18.2091 C   0  0  0  0  0  0  0  0  0  0  0  0
   49.9094    7.7418   15.0818 N   0  0  0  0  0  0  0  0  0  0  0  0
   51.8289    4.8889   19.5499 C   0  0  0  0  0  0  0  0  0  0  0  0
   48.6884    8.1824   14.6187 C   0  0  0  0  0  0  0  0  0  0  0  0
   52.6637    6.9754   16.5471 O   0  0  0  0  0  0  0  0  0  0  0  0
   51.8884    5.6382   20.5121 O   0  0  0  0  0  0  0  0  0  0  0  0
   47.8727    8.7314   15.3561 O   0  0  0  0  0  0  0  0  0  0  0  0
   48.4398    7.9291   13.1430 C   0  0  0  0  0  0  0  0  0  0  0  0
   52.4478    3.6883   19.5920 O   0  0  0  0  0  0  0  0  0  0  0  0
   48.9115    4.5033   19.5297 C   0  0  0  0  0  0  0  0  0  0  0  0
   49.7729    2.9831   17.7216 C   0  0  0  0  0  0  0  0  0  0  0  0
   48.3922    9.2021   12.3375 C   0  0  0  0  0  0  0  0  0  0  0  0
   49.5586    9.7326   11.7683 C   0  0  0  0  0  0  0  0  0  0  0  0
   47.1802    9.8877   12.1721 C   0  0  0  0  0  0  0  0  0  0  0  0
   47.1316   11.0728   11.4372 C   0  0  0  0  0  0  0  0  0  0  0  0
   49.5075   10.9191   11.0341 C   0  0  0  0  0  0  0  0  0  0  0  0
   48.2945   11.5874   10.8669 C   0  0  0  0  0  0  0  0  0  0  0  0
   50.4271    8.1818   14.5393 C   0  0  0  0  0  0  0  0  0  0  0  0
   49.6778    9.0984   13.6372 C   0  0  0  0  0  0  0  0  0  0  0  0
   51.3170    7.4411   14.1511 O   0  0  0  0  0  0  0  0  0  0  0  0
   50.0913    9.1957   12.3040 C   0  0  0  0  0  0  0  0  0  0  0  0
   48.5966    9.8720   14.0751 C   0  0  0  0  0  0  0  0  0  0  0  0
   49.9783    8.2909   15.8150 O   0  0  0  0  0  0  0  0  0  0  0  0
   48.3003   10.7681   11.8326 C   0  0  0  0  0  0  0  0  0  0  0  0
   50.6337    5.1534   17.8139 N   0  0  0  0  0  0  0  0  0  0  0  0
   47.7072   11.7004   10.9758 N   0  0  0  0  0  0  0  0  0  0  0  0
   49.4196   10.0456   11.4190 C   0  0  0  0  0  0  0  0  0  0  0  0
   47.9284   10.7137   13.1785 C   0  0  0  0  0  0  0  0  0  0  0  0
   50.6466    7.4637   16.7890 C   0  0  0  0  0  0  0  0  0  0  0  0
   50.0720    6.0372   16.7727 C   0  0  0  0  0  0  0  0  0  0  0  0
   50.5167    3.7366   17.4261 C   0  0  0  0  0  0  0  0  0  0  0  0
   50.0819    5.4584   19.1434 C   0  0  0  0  0  0  0  0  0  0  0  0
   49.1005    3.1765   17.3299 C   0  0  0  0  0  0  0  0  0  0  0  0
   50.7275    4.6633   20.2750 C   0  0  0  0  0  0  0  0  0  0  0  0
   49.3207    7.7798   15.5516 H   0  0  0  0  0  0  0  0  0  0  0  0
   49.6918    6.5033   16.3046 H   0  0  0  0  0  0  0  0  0  0  0  0
   48.9887    7.5159   18.3148 H   0  0  0  0  0  0  0  0  0  0  0  0
   50.3097    8.9511   16.7990 H   0  0  0  0  0  0  0  0  0  0  0  0
   51.7130    4.7273   17.4379 H   0  0  0  0  0  0  0  0  0  0  0  0
   50.5601    7.3021   14.4408 H   0  0  0  0  0  0  0  0  0  0  0  0
   49.2052    7.2609   12.7310 H   0  0  0  0  0  0  0  0  0  0  0  0
   47.4940    7.3812   13.0503 H   0  0  0  0  0  0  0  0  0  0  0  0
   52.9043    3.6894   20.4615 H   0  0  0  0  0  0  0  0  0  0  0  0
   48.8455    5.5234   19.9225 H   0  0  0  0  0  0  0  0  0  0  0  0
   49.3917    3.8901   20.3003 H   0  0  0  0  0  0  0  0  0  0  0  0
   47.8904    4.1215   19.4143 H   0  0  0  0  0  0  0  0  0  0  0  0
   50.3019    2.9048   16.7646 H   0  0  0  0  0  0  0  0  0  0  0  0
   50.3104    2.3609   18.4448 H   0  0  0  0  0  0  0  0  0  0  0  0
   48.7780    2.5404   17.5937 H   0  0  0  0  0  0  0  0  0  0  0  0
   50.5160    9.2300   11.8927 H   0  0  0  0  0  0  0  0  0  0  0  0
   46.2676    9.5047   12.6251 H   0  0  0  0  0  0  0  0  0  0  0  0
   46.1866   11.5970   11.3154 H   0  0  0  0  0  0  0  0  0  0  0  0
   50.4148   11.3257   10.5943 H   0  0  0  0  0  0  0  0  0  0  0  0
   48.2577   12.5123   10.2970 H   0  0  0  0  0  0  0  0  0  0  0  0
   50.9485    8.6246   11.9512 H   0  0  0  0  0  0  0  0  0  0  0  0
   48.2697    9.8429   15.1115 H   0  0  0  0  0  0  0  0  0  0  0  0
   46.7600   11.9602   11.2282 H   0  0  0  0  0  0  0  0  0  0  0  0
   47.7983   11.4744    9.9902 H   0  0  0  0  0  0  0  0  0  0  0  0
   49.7827   10.1336   10.3993 H   0  0  0  0  0  0  0  0  0  0  0  0
   47.1113   11.3317   13.5458 H   0  0  0  0  0  0  0  0  0  0  0  0
   50.4751    7.9472   17.7549 H   0  0  0  0  0  0  0  0  0  0  0  0
   51.7301    7.4627   16.6180 H   0  0  0  0  0  0  0  0  0  0  0  0
   50.2896    5.6183   15.7803 H   0  0  0  0  0  0  0  0  0  0  0  0
   48.9752    6.0789   16.8320 H   0  0  0  0  0  0  0  0  0  0  0  0
   51.0986    3.1164   18.1168 H   0  0  0  0  0  0  0  0  0  0  0  0
   51.0132    3.5953   16.4572 H   0  0  0  0  0  0  0  0  0  0  0  0
   50.2550    6.5150   19.3747 H   0  0  0  0  0  0  0  0  0  0  0  0
   48.9952    5.3103   19.1694 H   0  0  0  0  0  0  0  0  0  0  0  0
   48.5958    3.1823   18.3002 H   0  0  0  0  0  0  0  0  0  0  0  0
   49.1386    2.1371   16.9878 H   0  0  0  0  0  0  0  0  0  0  0  0
   48.4901    3.7355   16.6153 H   0  0  0  0  0  0  0  0  0  0  0  0
   50.3840    5.0453   21.2410 H   0  0  0  0  0  0  0  0  0  0  0  0
   50.4625    3.6022   20.2329 H   0  0  0  0  0  0  0  0  0  0  0  0
   51.8187    4.7526   20.2488 H   0  0  0  0  0  0  0  0  0  0  0  0
  3  2  1  0
  4  2  1  0
  5  4  1  0
  6  2  1  0
  3  7  1  0
  8  6  1  0
  5  9  1  0
  6 10  1  0
 11  9  1  0
 12  4  2  0
 13 10  2  0
 14 11  2  0
 15 11  1  0
 16 10  1  0
 17  8  1  0
 18  8  1  0
 19 15  1  0
 20 19  2  0
 21 19  1  0
 22 21  2  0
 23 20  1  0
 24 22  1  0
  7  8  1  0
  5  3  1  0
 24 23  2  0
 26 25  1  0
 27 25  2  0
 28 26  2  0
 29 26  1  0
 30 25  1  0
 31 35  1  0
 32 37  1  0
 33 31  1  0
 34 28  1  0
 35 29  2  0
 36 30  1  0
 37 36  1  0
 38 32  1  0
 39 32  1  0
 40 38  1  0
 41 39  1  0
 31 34  2  0
  1 42  1  0
  1 43  1  0
  3 44  1  1
  5 45  1  6
  6 46  1  6
  9 47  1  0
 15 48  1  0
 15 49  1  0
 16 50  1  0
 17 51  1  0
 17 52  1  0
 17 53  1  0
 18 54  1  0
 18 55  1  0
 18 56  1  0
 20 57  1  0
 21 58  1  0
 22 59  1  0
 23 60  1  0
 24 61  1  0
 28 62  1  0
 29 63  1  0
 33 64  1  0
 33 65  1  0
 34 66  1  0
 35 67  1  0
 36 68  1  0
 36 69  1  0
 37 70  1  0
 37 71  1  0
 38 72  1  0
 38 73  1  0
 39 74  1  0
 39 75  1  0
 40 76  1  0
 40 77  1  0
 40 78  1  0
 41 79  1  0
 41 80  1  0
 41 81  1  0
M  END
> <Uni-Dock RESULT> 
ENERGY=   -4.599  LOWER_BOUND=    4.431  UPPER_BOUND=    6.729
INTER + INTRA:          -4.599
INTER:                  -4.599
INTRA:                   0.000
UNBOUND:                 0.000

$$$$
