
     RDKit          3D

 81 82  0  0  0  0  0  0  0  0999 V2000
   48.1532    8.6932   12.9126 O   0  0  0  0  0  0  0  0  0  0  0  0
   49.7746   10.6502   13.9637 N   0  0  0  0  0  0  0  0  0  0  0  0
   49.5050    9.2280   14.2425 C   0  0  1  0  0  0  0  0  0  0  0  0
   48.6339   10.8183   13.2343 C   0  0  0  0  0  0  0  0  0  0  0  0
   48.0579    9.4699   13.7270 C   0  0  1  0  0  0  0  0  0  0  0  0
   51.0847   10.9855   13.4203 C   0  0  2  0  0  0  0  0  0  0  0  0
   50.6532    8.2977   13.1441 S   0  0  0  0  0  0  0  0  0  0  0  0
   51.5556    9.8011   12.5470 C   0  0  0  0  0  0  0  0  0  0  0  0
   47.5286    8.5680   12.6708 N   0  0  0  0  0  0  0  0  0  0  0  0
   52.0076   11.2923   14.5969 C   0  0  0  0  0  0  0  0  0  0  0  0
   47.2386    7.2506   12.9498 C   0  0  0  0  0  0  0  0  0  0  0  0
   48.3174   11.6662   12.4318 O   0  0  0  0  0  0  0  0  0  0  0  0
   51.9794   10.8023   15.7149 O   0  0  0  0  0  0  0  0  0  0  0  0
   47.3899    6.7746   14.0708 O   0  0  0  0  0  0  0  0  0  0  0  0
   46.7471    6.4444   11.7618 C   0  0  0  0  0  0  0  0  0  0  0  0
   52.9602   12.1987   14.2837 O   0  0  0  0  0  0  0  0  0  0  0  0
   51.1644   10.0141   11.0750 C   0  0  0  0  0  0  0  0  0  0  0  0
   53.0605    9.5053   12.6149 C   0  0  0  0  0  0  0  0  0  0  0  0
   45.3209    5.9793   11.9196 C   0  0  0  0  0  0  0  0  0  0  0  0
   44.2608    6.7105   11.3645 C   0  0  0  0  0  0  0  0  0  0  0  0
   45.0359    4.8154   12.6474 C   0  0  0  0  0  0  0  0  0  0  0  0
   43.7185    4.3811   12.7984 C   0  0  0  0  0  0  0  0  0  0  0  0
   42.9428    6.2743   11.5201 C   0  0  0  0  0  0  0  0  0  0  0  0
   42.6735    5.1073   12.2323 C   0  0  0  0  0  0  0  0  0  0  0  0
   47.9460    7.0915   12.7427 C   0  0  0  0  0  0  0  0  0  0  0  0
   46.6988    6.2940   12.5820 C   0  0  0  0  0  0  0  0  0  0  0  0
   48.8714    6.7596   13.4649 O   0  0  0  0  0  0  0  0  0  0  0  0
   46.5748    5.1038   13.3106 C   0  0  0  0  0  0  0  0  0  0  0  0
   45.6448    6.7010   11.7556 C   0  0  0  0  0  0  0  0  0  0  0  0
   47.8934    8.2165   11.9894 O   0  0  0  0  0  0  0  0  0  0  0  0
   44.3856    4.7028   12.3356 C   0  0  0  0  0  0  0  0  0  0  0  0
   50.0163   10.9481   13.5779 N   0  0  0  0  0  0  0  0  0  0  0  0
   43.1812    3.9922   12.3248 N   0  0  0  0  0  0  0  0  0  0  0  0
   45.4164    4.3282   13.2015 C   0  0  0  0  0  0  0  0  0  0  0  0
   44.4896    5.9185   11.6540 C   0  0  0  0  0  0  0  0  0  0  0  0
   49.0432    9.0797   12.0774 C   0  0  0  0  0  0  0  0  0  0  0  0
   48.9069   10.0256   13.2856 C   0  0  0  0  0  0  0  0  0  0  0  0
   50.5651   11.6029   12.3886 C   0  0  0  0  0  0  0  0  0  0  0  0
   50.9979   10.4055   14.5238 C   0  0  0  0  0  0  0  0  0  0  0  0
   51.4726   12.7885   12.7042 C   0  0  0  0  0  0  0  0  0  0  0  0
   51.8932    9.2785   14.0232 C   0  0  0  0  0  0  0  0  0  0  0  0
   49.1152    8.8070   12.9425 H   0  0  0  0  0  0  0  0  0  0  0  0
   48.0362    7.7770   12.6184 H   0  0  0  0  0  0  0  0  0  0  0  0
   49.5867    8.9792   15.3045 H   0  0  0  0  0  0  0  0  0  0  0  0
   47.3152    9.6137   14.5224 H   0  0  0  0  0  0  0  0  0  0  0  0
   50.9808   11.9052   12.8305 H   0  0  0  0  0  0  0  0  0  0  0  0
   47.4080    8.9185   11.7270 H   0  0  0  0  0  0  0  0  0  0  0  0
   47.4164    5.5816   11.6430 H   0  0  0  0  0  0  0  0  0  0  0  0
   46.8447    7.0249   10.8361 H   0  0  0  0  0  0  0  0  0  0  0  0
   53.4771   12.3001   15.1112 H   0  0  0  0  0  0  0  0  0  0  0  0
   51.4671    9.1653   10.4492 H   0  0  0  0  0  0  0  0  0  0  0  0
   51.6616   10.9054   10.6741 H   0  0  0  0  0  0  0  0  0  0  0  0
   50.0875   10.1554   10.9408 H   0  0  0  0  0  0  0  0  0  0  0  0
   53.3931    9.2455   13.6264 H   0  0  0  0  0  0  0  0  0  0  0  0
   53.6416   10.3740   12.2836 H   0  0  0  0  0  0  0  0  0  0  0  0
   53.3348    8.6681   11.9607 H   0  0  0  0  0  0  0  0  0  0  0  0
   44.4507    7.6255   10.8053 H   0  0  0  0  0  0  0  0  0  0  0  0
   45.8406    4.2455   13.1104 H   0  0  0  0  0  0  0  0  0  0  0  0
   43.5074    3.4740   13.3620 H   0  0  0  0  0  0  0  0  0  0  0  0
   42.1260    6.8413   11.0839 H   0  0  0  0  0  0  0  0  0  0  0  0
   41.6497    4.7657   12.3524 H   0  0  0  0  0  0  0  0  0  0  0  0
   47.3714    4.7808   13.9782 H   0  0  0  0  0  0  0  0  0  0  0  0
   45.6982    7.6295   11.1932 H   0  0  0  0  0  0  0  0  0  0  0  0
   43.2788    3.0113   12.5727 H   0  0  0  0  0  0  0  0  0  0  0  0
   42.6321    4.1235   11.4811 H   0  0  0  0  0  0  0  0  0  0  0  0
   45.3241    3.4267   13.8043 H   0  0  0  0  0  0  0  0  0  0  0  0
   43.6658    6.2688   11.0365 H   0  0  0  0  0  0  0  0  0  0  0  0
   49.9637    8.4879   12.1006 H   0  0  0  0  0  0  0  0  0  0  0  0
   49.0601    9.6567   11.1455 H   0  0  0  0  0  0  0  0  0  0  0  0
   48.6463    9.4508   14.1836 H   0  0  0  0  0  0  0  0  0  0  0  0
   48.0123   10.6392   13.1094 H   0  0  0  0  0  0  0  0  0  0  0  0
   49.7321   11.9949   11.7888 H   0  0  0  0  0  0  0  0  0  0  0  0
   51.1087   10.8949   11.7500 H   0  0  0  0  0  0  0  0  0  0  0  0
   51.6371   11.2201   14.8859 H   0  0  0  0  0  0  0  0  0  0  0  0
   50.4736   10.0582   15.4232 H   0  0  0  0  0  0  0  0  0  0  0  0
   50.9684   13.5054   13.3585 H   0  0  0  0  0  0  0  0  0  0  0  0
   51.7348   13.3084   11.7781 H   0  0  0  0  0  0  0  0  0  0  0  0
   52.4054   12.4750   13.1799 H   0  0  0  0  0  0  0  0  0  0  0  0
   51.3210    8.3656   13.8348 H   0  0  0  0  0  0  0  0  0  0  0  0
   52.4328    9.5552   13.1134 H   0  0  0  0  0  0  0  0  0  0  0  0
   52.6398    9.0378   14.7870 H   0  0  0  0  0  0  0  0  0  0  0  0
  3  2  1  0
  4  2  1  0
  5  4  1  0
  6  2  1  0
  3  7  1  0
  8  6  1  0
  5  9  1  0
  6 10  1  0
 11  9  1  0
 12  4  2  0
 13 10  2  0
 14 11  2  0
 15 11  1  0
 16 10  1  0
 17  8  1  0
 18  8  1  0
 19 15  1  0
 20 19  2  0
 21 19  1  0
 22 21  2  0
 23 20  1  0
 24 22  1  0
  7  8  1  0
  5  3  1  0
 24 23  2  0
 26 25  1  0
 27 25  2  0
 28 26  2  0
 29 26  1  0
 30 25  1  0
 31 35  1  0
 32 37  1  0
 33 31  1  0
 34 28  1  0
 35 29  2  0
 36 30  1  0
 37 36  1  0
 38 32  1  0
 39 32  1  0
 40 38  1  0
 41 39  1  0
 31 34  2  0
  1 42  1  0
  1 43  1  0
  3 44  1  6
  5 45  1  6
  6 46  1  1
  9 47  1  0
 15 48  1  0
 15 49  1  0
 16 50  1  0
 17 51  1  0
 17 52  1  0
 17 53  1  0
 18 54  1  0
 18 55  1  0
 18 56  1  0
 20 57  1  0
 21 58  1  0
 22 59  1  0
 23 60  1  0
 24 61  1  0
 28 62  1  0
 29 63  1  0
 33 64  1  0
 33 65  1  0
 34 66  1  0
 35 67  1  0
 36 68  1  0
 36 69  1  0
 37 70  1  0
 37 71  1  0
 38 72  1  0
 38 73  1  0
 39 74  1  0
 39 75  1  0
 40 76  1  0
 40 77  1  0
 40 78  1  0
 41 79  1  0
 41 80  1  0
 41 81  1  0
M  END
> <Uni-Dock RESULT> 
ENERGY=   -5.625  LOWER_BOUND=    0.000  UPPER_BOUND=    0.000
INTER + INTRA:          -5.625
INTER:                  -5.625
INTRA:                   0.000
UNBOUND:                 0.000

$$$$

     RDKit          3D

 81 82  0  0  0  0  0  0  0  0999 V2000
   51.2540    6.1253   17.6550 O   0  0  0  0  0  0  0  0  0  0  0  0
   50.1138    8.4855   16.8227 N   0  0  0  0  0  0  0  0  0  0  0  0
   49.6969    7.0742   16.9084 C   0  0  1  0  0  0  0  0  0  0  0  0
   51.4428    8.1949   16.9259 C   0  0  0  0  0  0  0  0  0  0  0  0
   51.1863    6.6896   16.6789 C   0  0  1  0  0  0  0  0  0  0  0  0
   49.4658    9.4272   17.7267 C   0  0  2  0  0  0  0  0  0  0  0  0
   49.0212    6.8759   18.6096 S   0  0  0  0  0  0  0  0  0  0  0  0
   49.1253    8.6761   19.0333 C   0  0  0  0  0  0  0  0  0  0  0  0
   51.8274    5.7576   17.6429 N   0  0  0  0  0  0  0  0  0  0  0  0
   48.2472    9.9963   17.0045 C   0  0  0  0  0  0  0  0  0  0  0  0
   51.4628    4.4299   17.6879 C   0  0  0  0  0  0  0  0  0  0  0  0
   52.3901    8.8857   17.2235 O   0  0  0  0  0  0  0  0  0  0  0  0
   47.5371    9.4362   16.1842 O   0  0  0  0  0  0  0  0  0  0  0  0
   50.6138    3.9627   16.9348 O   0  0  0  0  0  0  0  0  0  0  0  0
   52.1735    3.6130   18.7511 C   0  0  0  0  0  0  0  0  0  0  0  0
   47.9628   11.2607   17.3884 O   0  0  0  0  0  0  0  0  0  0  0  0
   50.2508    8.8373   20.0690 C   0  0  0  0  0  0  0  0  0  0  0  0
   47.7975    9.0838   19.6869 C   0  0  0  0  0  0  0  0  0  0  0  0
   53.0632    2.5426   18.1696 C   0  0  0  0  0  0  0  0  0  0  0  0
   54.4345    2.7705   17.9839 C   0  0  0  0  0  0  0  0  0  0  0  0
   52.5211    1.3084   17.7846 C   0  0  0  0  0  0  0  0  0  0  0  0
   53.3388    0.3150   17.2445 C   0  0  0  0  0  0  0  0  0  0  0  0
   55.2496    1.7748   17.4402 C   0  0  0  0  0  0  0  0  0  0  0  0
   54.7018    0.5462   17.0760 C   0  0  0  0  0  0  0  0  0  0  0  0
   50.9522    4.6279   18.2062 C   0  0  0  0  0  0  0  0  0  0  0  0
   51.7464    3.3752   18.0738 C   0  0  0  0  0  0  0  0  0  0  0  0
   49.7409    4.6770   18.0706 O   0  0  0  0  0  0  0  0  0  0  0  0
   51.0673    2.1899   17.7627 C   0  0  0  0  0  0  0  0  0  0  0  0
   53.1379    3.3454   18.2226 C   0  0  0  0  0  0  0  0  0  0  0  0
   51.7611    5.6784   18.4856 O   0  0  0  0  0  0  0  0  0  0  0  0
   53.1546    0.9473   17.8181 C   0  0  0  0  0  0  0  0  0  0  0  0
   50.2195    8.8975   17.1620 N   0  0  0  0  0  0  0  0  0  0  0  0
   53.8691   -0.2241   17.5481 N   0  0  0  0  0  0  0  0  0  0  0  0
   51.7726    0.9915   17.6159 C   0  0  0  0  0  0  0  0  0  0  0  0
   53.8345    2.1414   18.0729 C   0  0  0  0  0  0  0  0  0  0  0  0
   51.1035    6.9528   18.6202 C   0  0  0  0  0  0  0  0  0  0  0  0
   50.9278    7.6092   17.2377 C   0  0  0  0  0  0  0  0  0  0  0  0
   50.6101    9.8453   18.2078 C   0  0  0  0  0  0  0  0  0  0  0  0
   48.7783    8.7624   16.9223 C   0  0  0  0  0  0  0  0  0  0  0  0
   50.1405   11.2739   17.9482 C   0  0  0  0  0  0  0  0  0  0  0  0
   47.9336    8.2156   18.0667 C   0  0  0  0  0  0  0  0  0  0  0  0
   50.5163    6.6561   17.9915 H   0  0  0  0  0  0  0  0  0  0  0  0
   51.1795    5.2893   18.1399 H   0  0  0  0  0  0  0  0  0  0  0  0
   49.0111    6.7832   16.1076 H   0  0  0  0  0  0  0  0  0  0  0  0
   51.4228    6.4030   15.6461 H   0  0  0  0  0  0  0  0  0  0  0  0
   50.1622   10.2560   17.9077 H   0  0  0  0  0  0  0  0  0  0  0  0
   52.5196    6.1093   18.2951 H   0  0  0  0  0  0  0  0  0  0  0  0
   51.4062    3.1605   19.3938 H   0  0  0  0  0  0  0  0  0  0  0  0
   52.7628    4.2653   19.4073 H   0  0  0  0  0  0  0  0  0  0  0  0
   47.1711   11.5000   16.8609 H   0  0  0  0  0  0  0  0  0  0  0  0
   50.0343    8.2832   20.9909 H   0  0  0  0  0  0  0  0  0  0  0  0
   50.3661    9.8923   20.3448 H   0  0  0  0  0  0  0  0  0  0  0  0
   51.2199    8.4917   19.6962 H   0  0  0  0  0  0  0  0  0  0  0  0
   46.9346    8.9012   19.0363 H   0  0  0  0  0  0  0  0  0  0  0  0
   47.8035   10.1496   19.9446 H   0  0  0  0  0  0  0  0  0  0  0  0
   47.6219    8.5303   20.6179 H   0  0  0  0  0  0  0  0  0  0  0  0
   54.8810    3.7241   18.2614 H   0  0  0  0  0  0  0  0  0  0  0  0
   51.4541    1.1181   17.8944 H   0  0  0  0  0  0  0  0  0  0  0  0
   52.9094   -0.6416   16.9521 H   0  0  0  0  0  0  0  0  0  0  0  0
   56.3115    1.9542   17.3032 H   0  0  0  0  0  0  0  0  0  0  0  0
   55.3345   -0.2296   16.6551 H   0  0  0  0  0  0  0  0  0  0  0  0
   49.9886    2.1945   17.6180 H   0  0  0  0  0  0  0  0  0  0  0  0
   53.6990    4.2500   18.4423 H   0  0  0  0  0  0  0  0  0  0  0  0
   53.3291   -1.0756   17.6766 H   0  0  0  0  0  0  0  0  0  0  0  0
   54.7747   -0.2698   18.0048 H   0  0  0  0  0  0  0  0  0  0  0  0
   51.2314    0.0893   17.3372 H   0  0  0  0  0  0  0  0  0  0  0  0
   54.9189    2.1438   18.1551 H   0  0  0  0  0  0  0  0  0  0  0  0
   50.1590    6.8395   19.1617 H   0  0  0  0  0  0  0  0  0  0  0  0
   51.7586    7.5662   19.2494 H   0  0  0  0  0  0  0  0  0  0  0  0
   50.4834    6.8914   16.5361 H   0  0  0  0  0  0  0  0  0  0  0  0
   51.9364    7.7689   16.8313 H   0  0  0  0  0  0  0  0  0  0  0  0
   51.7072    9.8786   18.2581 H   0  0  0  0  0  0  0  0  0  0  0  0
   50.2578    9.5259   19.1969 H   0  0  0  0  0  0  0  0  0  0  0  0
   48.3700    9.7364   16.6258 H   0  0  0  0  0  0  0  0  0  0  0  0
   48.6204    8.1278   16.0409 H   0  0  0  0  0  0  0  0  0  0  0  0
   50.4568   11.6173   16.9591 H   0  0  0  0  0  0  0  0  0  0  0  0
   50.5789   11.9464   18.6912 H   0  0  0  0  0  0  0  0  0  0  0  0
   49.0539   11.3674   18.0214 H   0  0  0  0  0  0  0  0  0  0  0  0
   48.1674    7.1670   18.2721 H   0  0  0  0  0  0  0  0  0  0  0  0
   48.0604    8.7956   18.9850 H   0  0  0  0  0  0  0  0  0  0  0  0
   46.8744    8.2610   17.7937 H   0  0  0  0  0  0  0  0  0  0  0  0
  3  2  1  0
  4  2  1  0
  5  4  1  0
  6  2  1  0
  3  7  1  0
  8  6  1  0
  5  9  1  0
  6 10  1  0
 11  9  1  0
 12  4  2  0
 13 10  2  0
 14 11  2  0
 15 11  1  0
 16 10  1  0
 17  8  1  0
 18  8  1  0
 19 15  1  0
 20 19  2  0
 21 19  1  0
 22 21  2  0
 23 20  1  0
 24 22  1  0
  7  8  1  0
  5  3  1  0
 24 23  2  0
 26 25  1  0
 27 25  2  0
 28 26  2  0
 29 26  1  0
 30 25  1  0
 31 35  1  0
 32 37  1  0
 33 31  1  0
 34 28  1  0
 35 29  2  0
 36 30  1  0
 37 36  1  0
 38 32  1  0
 39 32  1  0
 40 38  1  0
 41 39  1  0
 31 34  2  0
  1 42  1  0
  1 43  1  0
  3 44  1  6
  5 45  1  6
  6 46  1  1
  9 47  1  0
 15 48  1  0
 15 49  1  0
 16 50  1  0
 17 51  1  0
 17 52  1  0
 17 53  1  0
 18 54  1  0
 18 55  1  0
 18 56  1  0
 20 57  1  0
 21 58  1  0
 22 59  1  0
 23 60  1  0
 24 61  1  0
 28 62  1  0
 29 63  1  0
 33 64  1  0
 33 65  1  0
 34 66  1  0
 35 67  1  0
 36 68  1  0
 36 69  1  0
 37 70  1  0
 37 71  1  0
 38 72  1  0
 38 73  1  0
 39 74  1  0
 39 75  1  0
 40 76  1  0
 40 77  1  0
 40 78  1  0
 41 79  1  0
 41 80  1  0
 41 81  1  0
M  END
> <Uni-Dock RESULT> 
ENERGY=   -5.579  LOWER_BOUND=    6.214  UPPER_BOUND=    8.082
INTER + INTRA:          -5.579
INTER:                  -5.579
INTRA:                   0.000
UNBOUND:                 0.000

$$$$

     RDKit          3D

 81 82  0  0  0  0  0  0  0  0999 V2000
   48.9564    7.9841   16.8763 O   0  0  0  0  0  0  0  0  0  0  0  0
   50.2202    9.0432   14.6753 N   0  0  0  0  0  0  0  0  0  0  0  0
   50.1545    7.7259   15.3335 C   0  0  1  0  0  0  0  0  0  0  0  0
   49.7458    9.7137   15.7647 C   0  0  0  0  0  0  0  0  0  0  0  0
   49.9506    8.4817   16.6773 C   0  0  1  0  0  0  0  0  0  0  0  0
   49.5880    9.1666   13.3679 C   0  0  2  0  0  0  0  0  0  0  0  0
   48.6868    6.8938   14.5962 S   0  0  0  0  0  0  0  0  0  0  0  0
   48.3728    8.2130   13.3344 C   0  0  0  0  0  0  0  0  0  0  0  0
   48.7898    8.1052   17.5257 N   0  0  0  0  0  0  0  0  0  0  0  0
   50.6466    8.8574   12.3123 C   0  0  0  0  0  0  0  0  0  0  0  0
   48.7548    6.8894   18.1724 C   0  0  0  0  0  0  0  0  0  0  0  0
   49.2527   10.8129   15.8729 O   0  0  0  0  0  0  0  0  0  0  0  0
   51.5875    8.0844   12.4032 O   0  0  0  0  0  0  0  0  0  0  0  0
   49.6745    6.0811   18.0879 O   0  0  0  0  0  0  0  0  0  0  0  0
   47.4877    6.6297   18.9661 C   0  0  0  0  0  0  0  0  0  0  0  0
   50.4388    9.5312   11.1593 O   0  0  0  0  0  0  0  0  0  0  0  0
   47.0870    8.9468   13.7510 C   0  0  0  0  0  0  0  0  0  0  0  0
   48.1273    7.5247   11.9843 C   0  0  0  0  0  0  0  0  0  0  0  0
   47.7366    6.5317   20.4507 C   0  0  0  0  0  0  0  0  0  0  0  0
   47.5634    7.6467   21.2835 C   0  0  0  0  0  0  0  0  0  0  0  0
   48.1686    5.3230   21.0143 C   0  0  0  0  0  0  0  0  0  0  0  0
   48.4022    5.2267   22.3866 C   0  0  0  0  0  0  0  0  0  0  0  0
   47.8009    7.5474   22.6566 C   0  0  0  0  0  0  0  0  0  0  0  0
   48.2149    6.3362   23.2074 C   0  0  0  0  0  0  0  0  0  0  0  0
   48.4066    6.6181   17.5611 C   0  0  0  0  0  0  0  0  0  0  0  0
   48.2371    6.2619   18.9970 C   0  0  0  0  0  0  0  0  0  0  0  0
   48.8644    5.8561   16.7258 O   0  0  0  0  0  0  0  0  0  0  0  0
   48.6381    4.9863   19.4151 C   0  0  0  0  0  0  0  0  0  0  0  0
   47.7196    7.1577   19.9400 C   0  0  0  0  0  0  0  0  0  0  0  0
   47.9922    7.8877   17.3323 O   0  0  0  0  0  0  0  0  0  0  0  0
   47.9426    5.4831   21.6896 C   0  0  0  0  0  0  0  0  0  0  0  0
   49.8935    9.3672   14.3848 N   0  0  0  0  0  0  0  0  0  0  0  0
   47.9321    5.1511   23.0480 N   0  0  0  0  0  0  0  0  0  0  0  0
   48.5098    4.6116   20.7561 C   0  0  0  0  0  0  0  0  0  0  0  0
   47.5961    6.7735   21.2796 C   0  0  0  0  0  0  0  0  0  0  0  0
   48.1246    8.3514   15.9750 C   0  0  0  0  0  0  0  0  0  0  0  0
   49.5446    8.8987   15.7361 C   0  0  0  0  0  0  0  0  0  0  0  0
   48.8475   10.1754   13.7546 C   0  0  0  0  0  0  0  0  0  0  0  0
   50.5005    8.3306   13.5422 C   0  0  0  0  0  0  0  0  0  0  0  0
   49.3188   10.9317   12.5157 C   0  0  0  0  0  0  0  0  0  0  0  0
   49.5898    7.2078   13.0605 C   0  0  0  0  0  0  0  0  0  0  0  0
   48.8661    7.8262   15.9244 H   0  0  0  0  0  0  0  0  0  0  0  0
   48.4539    7.2606   17.2809 H   0  0  0  0  0  0  0  0  0  0  0  0
   51.0882    7.1620   15.2522 H   0  0  0  0  0  0  0  0  0  0  0  0
   50.8607    8.5744   17.2839 H   0  0  0  0  0  0  0  0  0  0  0  0
   49.2835   10.2128   13.2370 H   0  0  0  0  0  0  0  0  0  0  0  0
   48.0013    8.7378   17.6053 H   0  0  0  0  0  0  0  0  0  0  0  0
   47.0449    5.6962   18.5934 H   0  0  0  0  0  0  0  0  0  0  0  0
   46.7431    7.4107   18.7683 H   0  0  0  0  0  0  0  0  0  0  0  0
   51.1738    9.2436   10.5767 H   0  0  0  0  0  0  0  0  0  0  0  0
   46.2216    8.2725   13.7601 H   0  0  0  0  0  0  0  0  0  0  0  0
   46.8620    9.7527   13.0423 H   0  0  0  0  0  0  0  0  0  0  0  0
   47.1627    9.3999   14.7442 H   0  0  0  0  0  0  0  0  0  0  0  0
   48.9713    6.8996   11.6710 H   0  0  0  0  0  0  0  0  0  0  0  0
   47.9498    8.2673   11.1974 H   0  0  0  0  0  0  0  0  0  0  0  0
   47.2423    6.8771   12.0191 H   0  0  0  0  0  0  0  0  0  0  0  0
   47.2413    8.6020   20.8720 H   0  0  0  0  0  0  0  0  0  0  0  0
   48.3358    4.4508   20.3834 H   0  0  0  0  0  0  0  0  0  0  0  0
   48.7338    4.2828   22.8156 H   0  0  0  0  0  0  0  0  0  0  0  0
   47.6604    8.4121   23.2979 H   0  0  0  0  0  0  0  0  0  0  0  0
   48.3979    6.2568   24.2749 H   0  0  0  0  0  0  0  0  0  0  0  0
   49.0662    4.2825   18.7038 H   0  0  0  0  0  0  0  0  0  0  0  0
   47.4191    8.1624   19.6547 H   0  0  0  0  0  0  0  0  0  0  0  0
   47.8959    4.1514   23.2281 H   0  0  0  0  0  0  0  0  0  0  0  0
   47.2477    5.6657   23.5934 H   0  0  0  0  0  0  0  0  0  0  0  0
   48.8619    3.6299   21.0677 H   0  0  0  0  0  0  0  0  0  0  0  0
   47.2271    7.4947   22.0050 H   0  0  0  0  0  0  0  0  0  0  0  0
   47.8493    7.5585   15.2724 H   0  0  0  0  0  0  0  0  0  0  0  0
   47.3857    9.1522   15.8556 H   0  0  0  0  0  0  0  0  0  0  0  0
   50.2896    8.1741   16.0895 H   0  0  0  0  0  0  0  0  0  0  0  0
   49.6759    9.7500   16.4188 H   0  0  0  0  0  0  0  0  0  0  0  0
   48.5078   10.9320   14.4752 H   0  0  0  0  0  0  0  0  0  0  0  0
   47.9696    9.5707   13.4935 H   0  0  0  0  0  0  0  0  0  0  0  0
   50.9603    8.8033   12.6656 H   0  0  0  0  0  0  0  0  0  0  0  0
   51.3472    7.8840   14.0790 H   0  0  0  0  0  0  0  0  0  0  0  0
   50.2080   11.5295   12.7356 H   0  0  0  0  0  0  0  0  0  0  0  0
   48.5325   11.6137   12.1793 H   0  0  0  0  0  0  0  0  0  0  0  0
   49.5456   10.2573   11.6859 H   0  0  0  0  0  0  0  0  0  0  0  0
   49.2593    6.5759   13.8899 H   0  0  0  0  0  0  0  0  0  0  0  0
   48.7123    7.5887   12.5309 H   0  0  0  0  0  0  0  0  0  0  0  0
   50.1388    6.5643   12.3654 H   0  0  0  0  0  0  0  0  0  0  0  0
  3  2  1  0
  4  2  1  0
  5  4  1  0
  6  2  1  0
  3  7  1  0
  8  6  1  0
  5  9  1  0
  6 10  1  0
 11  9  1  0
 12  4  2  0
 13 10  2  0
 14 11  2  0
 15 11  1  0
 16 10  1  0
 17  8  1  0
 18  8  1  0
 19 15  1  0
 20 19  2  0
 21 19  1  0
 22 21  2  0
 23 20  1  0
 24 22  1  0
  7  8  1  0
  5  3  1  0
 24 23  2  0
 26 25  1  0
 27 25  2  0
 28 26  2  0
 29 26  1  0
 30 25  1  0
 31 35  1  0
 32 37  1  0
 33 31  1  0
 34 28  1  0
 35 29  2  0
 36 30  1  0
 37 36  1  0
 38 32  1  0
 39 32  1  0
 40 38  1  0
 41 39  1  0
 31 34  2  0
  1 42  1  0
  1 43  1  0
  3 44  1  6
  5 45  1  6
  6 46  1  1
  9 47  1  0
 15 48  1  0
 15 49  1  0
 16 50  1  0
 17 51  1  0
 17 52  1  0
 17 53  1  0
 18 54  1  0
 18 55  1  0
 18 56  1  0
 20 57  1  0
 21 58  1  0
 22 59  1  0
 23 60  1  0
 24 61  1  0
 28 62  1  0
 29 63  1  0
 33 64  1  0
 33 65  1  0
 34 66  1  0
 35 67  1  0
 36 68  1  0
 36 69  1  0
 37 70  1  0
 37 71  1  0
 38 72  1  0
 38 73  1  0
 39 74  1  0
 39 75  1  0
 40 76  1  0
 40 77  1  0
 40 78  1  0
 41 79  1  0
 41 80  1  0
 41 81  1  0
M  END
> <Uni-Dock RESULT> 
ENERGY=   -5.506  LOWER_BOUND=    5.089  UPPER_BOUND=    6.435
INTER + INTRA:          -5.506
INTER:                  -5.506
INTRA:                   0.000
UNBOUND:                 0.000

$$$$

     RDKit          3D

 81 82  0  0  0  0  0  0  0  0999 V2000
   47.9333    8.0740   12.5671 O   0  0  0  0  0  0  0  0  0  0  0  0
   50.1016    9.6947   12.0820 N   0  0  0  0  0  0  0  0  0  0  0  0
   48.6809    9.6717   11.6893 C   0  0  1  0  0  0  0  0  0  0  0  0
   50.1112    8.3860   12.4675 C   0  0  0  0  0  0  0  0  0  0  0  0
   48.7480    8.1210   11.7863 C   0  0  1  0  0  0  0  0  0  0  0  0
   50.5264   10.7590   12.9825 C   0  0  2  0  0  0  0  0  0  0  0  0
   47.7973   10.5689   13.0326 S   0  0  0  0  0  0  0  0  0  0  0  0
   49.3393   11.0997   13.9109 C   0  0  0  0  0  0  0  0  0  0  0  0
   47.7330    7.4249   12.6195 N   0  0  0  0  0  0  0  0  0  0  0  0
   50.9962   11.9303   12.1235 C   0  0  0  0  0  0  0  0  0  0  0  0
   46.4144    7.3707   12.2246 C   0  0  0  0  0  0  0  0  0  0  0  0
   50.8711    7.7689   13.1781 O   0  0  0  0  0  0  0  0  0  0  0  0
   50.5788   12.2653   11.0260 O   0  0  0  0  0  0  0  0  0  0  0  0
   46.0285    7.8766   11.1751 O   0  0  0  0  0  0  0  0  0  0  0  0
   45.4896    6.6638   13.1981 C   0  0  0  0  0  0  0  0  0  0  0  0
   51.9684   12.6532   12.7227 O   0  0  0  0  0  0  0  0  0  0  0  0
   49.4182   10.2973   15.2206 C   0  0  0  0  0  0  0  0  0  0  0  0
   49.1954   12.5883   14.2576 C   0  0  0  0  0  0  0  0  0  0  0  0
   44.8998    5.3968   12.6303 C   0  0  0  0  0  0  0  0  0  0  0  0
   45.4878    4.1506   12.8910 C   0  0  0  0  0  0  0  0  0  0  0  0
   43.7631    5.4540   11.8117 C   0  0  0  0  0  0  0  0  0  0  0  0
   43.2140    4.2856   11.2822 C   0  0  0  0  0  0  0  0  0  0  0  0
   44.9371    2.9832   12.3568 C   0  0  0  0  0  0  0  0  0  0  0  0
   43.7978    3.0514   11.5573 C   0  0  0  0  0  0  0  0  0  0  0  0
   46.3115    8.0069   12.6160 C   0  0  0  0  0  0  0  0  0  0  0  0
   45.3884    6.8601   12.3925 C   0  0  0  0  0  0  0  0  0  0  0  0
   46.1179    9.1262   12.1714 O   0  0  0  0  0  0  0  0  0  0  0  0
   44.2412    7.0742   11.6174 C   0  0  0  0  0  0  0  0  0  0  0  0
   45.6375    5.5810   12.9037 C   0  0  0  0  0  0  0  0  0  0  0  0
   47.3753    7.6247   13.3631 O   0  0  0  0  0  0  0  0  0  0  0  0
   43.5683    4.7597   11.9245 C   0  0  0  0  0  0  0  0  0  0  0  0
   50.3960    9.7863   12.5303 N   0  0  0  0  0  0  0  0  0  0  0  0
   42.7453    3.6854   11.5721 N   0  0  0  0  0  0  0  0  0  0  0  0
   43.3517    6.0239   11.3700 C   0  0  0  0  0  0  0  0  0  0  0  0
   44.7419    4.5366   12.6498 C   0  0  0  0  0  0  0  0  0  0  0  0
   48.3495    8.6511   13.6314 C   0  0  0  0  0  0  0  0  0  0  0  0
   49.3536    8.7487   12.4673 C   0  0  0  0  0  0  0  0  0  0  0  0
   51.0229    9.9104   13.8479 C   0  0  0  0  0  0  0  0  0  0  0  0
   50.0130   11.0443   11.8794 C   0  0  0  0  0  0  0  0  0  0  0  0
   52.3086   10.7325   13.8411 C   0  0  0  0  0  0  0  0  0  0  0  0
   48.9480   11.8864   12.5713 C   0  0  0  0  0  0  0  0  0  0  0  0
   48.1413    8.9883   12.8122 H   0  0  0  0  0  0  0  0  0  0  0  0
   46.9931    7.9829   12.7846 H   0  0  0  0  0  0  0  0  0  0  0  0
   48.5101   10.0696   10.6849 H   0  0  0  0  0  0  0  0  0  0  0  0
   48.8702    7.6148   10.8200 H   0  0  0  0  0  0  0  0  0  0  0  0
   51.3918   10.3955   13.5511 H   0  0  0  0  0  0  0  0  0  0  0  0
   48.0087    7.0110   13.5032 H   0  0  0  0  0  0  0  0  0  0  0  0
   44.6898    7.3659   13.4697 H   0  0  0  0  0  0  0  0  0  0  0  0
   46.0160    6.4379   14.1337 H   0  0  0  0  0  0  0  0  0  0  0  0
   52.1725   13.3634   12.0775 H   0  0  0  0  0  0  0  0  0  0  0  0
   48.5641   10.5082   15.8761 H   0  0  0  0  0  0  0  0  0  0  0  0
   50.3257   10.5629   15.7757 H   0  0  0  0  0  0  0  0  0  0  0  0
   49.4458    9.2163   15.0521 H   0  0  0  0  0  0  0  0  0  0  0  0
   49.0348   13.2131   13.3716 H   0  0  0  0  0  0  0  0  0  0  0  0
   50.0932   12.9557   14.7687 H   0  0  0  0  0  0  0  0  0  0  0  0
   48.3484   12.7630   14.9329 H   0  0  0  0  0  0  0  0  0  0  0  0
   46.3789    4.0766   13.5126 H   0  0  0  0  0  0  0  0  0  0  0  0
   43.3048    6.4131   11.5735 H   0  0  0  0  0  0  0  0  0  0  0  0
   42.3290    4.3398   10.6507 H   0  0  0  0  0  0  0  0  0  0  0  0
   45.3931    2.0203   12.5658 H   0  0  0  0  0  0  0  0  0  0  0  0
   43.3672    2.1446   11.1430 H   0  0  0  0  0  0  0  0  0  0  0  0
   44.0404    8.0544   11.1892 H   0  0  0  0  0  0  0  0  0  0  0  0
   46.5286    5.3742   13.4906 H   0  0  0  0  0  0  0  0  0  0  0  0
   41.7965    3.9555   11.3276 H   0  0  0  0  0  0  0  0  0  0  0  0
   42.7682    2.9141   12.2320 H   0  0  0  0  0  0  0  0  0  0  0  0
   42.4863    6.2016   10.7344 H   0  0  0  0  0  0  0  0  0  0  0  0
   44.9704    3.5411   13.0233 H   0  0  0  0  0  0  0  0  0  0  0  0
   47.8522    9.6022   13.8467 H   0  0  0  0  0  0  0  0  0  0  0  0
   48.8642    8.3468   14.5501 H   0  0  0  0  0  0  0  0  0  0  0  0
   48.8153    8.8107   11.5127 H   0  0  0  0  0  0  0  0  0  0  0  0
   49.8652    7.7779   12.4067 H   0  0  0  0  0  0  0  0  0  0  0  0
   51.2930    8.9064   14.2031 H   0  0  0  0  0  0  0  0  0  0  0  0
   50.3312   10.3323   14.5882 H   0  0  0  0  0  0  0  0  0  0  0  0
   50.9073   11.6639   11.7397 H   0  0  0  0  0  0  0  0  0  0  0  0
   49.6752   10.8296   10.8574 H   0  0  0  0  0  0  0  0  0  0  0  0
   53.0140   10.3516   13.0970 H   0  0  0  0  0  0  0  0  0  0  0  0
   52.7907   10.6703   14.8211 H   0  0  0  0  0  0  0  0  0  0  0  0
   52.1180   11.7890   13.6355 H   0  0  0  0  0  0  0  0  0  0  0  0
   47.9738   11.3893   12.5597 H   0  0  0  0  0  0  0  0  0  0  0  0
   49.2164   12.1205   13.6051 H   0  0  0  0  0  0  0  0  0  0  0  0
   48.8303   12.8362   12.0398 H   0  0  0  0  0  0  0  0  0  0  0  0
  3  2  1  0
  4  2  1  0
  5  4  1  0
  6  2  1  0
  3  7  1  0
  8  6  1  0
  5  9  1  0
  6 10  1  0
 11  9  1  0
 12  4  2  0
 13 10  2  0
 14 11  2  0
 15 11  1  0
 16 10  1  0
 17  8  1  0
 18  8  1  0
 19 15  1  0
 20 19  2  0
 21 19  1  0
 22 21  2  0
 23 20  1  0
 24 22  1  0
  7  8  1  0
  5  3  1  0
 24 23  2  0
 26 25  1  0
 27 25  2  0
 28 26  2  0
 29 26  1  0
 30 25  1  0
 31 35  1  0
 32 37  1  0
 33 31  1  0
 34 28  1  0
 35 29  2  0
 36 30  1  0
 37 36  1  0
 38 32  1  0
 39 32  1  0
 40 38  1  0
 41 39  1  0
 31 34  2  0
  1 42  1  0
  1 43  1  0
  3 44  1  6
  5 45  1  6
  6 46  1  1
  9 47  1  0
 15 48  1  0
 15 49  1  0
 16 50  1  0
 17 51  1  0
 17 52  1  0
 17 53  1  0
 18 54  1  0
 18 55  1  0
 18 56  1  0
 20 57  1  0
 21 58  1  0
 22 59  1  0
 23 60  1  0
 24 61  1  0
 28 62  1  0
 29 63  1  0
 33 64  1  0
 33 65  1  0
 34 66  1  0
 35 67  1  0
 36 68  1  0
 36 69  1  0
 37 70  1  0
 37 71  1  0
 38 72  1  0
 38 73  1  0
 39 74  1  0
 39 75  1  0
 40 76  1  0
 40 77  1  0
 40 78  1  0
 41 79  1  0
 41 80  1  0
 41 81  1  0
M  END
> <Uni-Dock RESULT> 
ENERGY=   -5.385  LOWER_BOUND=    1.417  UPPER_BOUND=    2.754
INTER + INTRA:          -5.385
INTER:                  -5.385
INTRA:                   0.000
UNBOUND:                 0.000

$$$$

     RDKit          3D

 81 82  0  0  0  0  0  0  0  0999 V2000
   42.8889   10.3406   10.8130 O   0  0  0  0  0  0  0  0  0  0  0  0
   41.7384   12.8376   10.7450 N   0  0  0  0  0  0  0  0  0  0  0  0
   42.9410   12.2359   11.3488 C   0  0  1  0  0  0  0  0  0  0  0  0
   41.1283   11.6349   10.5381 C   0  0  0  0  0  0  0  0  0  0  0  0
   42.1439   10.9043   11.4478 C   0  0  1  0  0  0  0  0  0  0  0  0
   41.9428   13.7869    9.6583 C   0  0  2  0  0  0  0  0  0  0  0  0
   44.2402   12.3532   10.0494 S   0  0  0  0  0  0  0  0  0  0  0  0
   43.2101   13.3597    8.8845 C   0  0  0  0  0  0  0  0  0  0  0  0
   42.7556    9.6755   10.8776 N   0  0  0  0  0  0  0  0  0  0  0  0
   42.0341   15.1808   10.2741 C   0  0  0  0  0  0  0  0  0  0  0  0
   43.8540    9.0944   11.4722 C   0  0  0  0  0  0  0  0  0  0  0  0
   40.2181   11.3169    9.8078 O   0  0  0  0  0  0  0  0  0  0  0  0
   42.4818   15.4852   11.3685 O   0  0  0  0  0  0  0  0  0  0  0  0
   44.3597    9.5523   12.4924 O   0  0  0  0  0  0  0  0  0  0  0  0
   44.3917    7.8715   10.7523 C   0  0  0  0  0  0  0  0  0  0  0  0
   41.5745   16.1435    9.4440 O   0  0  0  0  0  0  0  0  0  0  0  0
   42.8486   12.4541    7.6953 C   0  0  0  0  0  0  0  0  0  0  0  0
   44.0761   14.5186    8.3709 C   0  0  0  0  0  0  0  0  0  0  0  0
   44.2577    6.6077   11.5649 C   0  0  0  0  0  0  0  0  0  0  0  0
   43.1633    5.7496   11.3841 C   0  0  0  0  0  0  0  0  0  0  0  0
   45.2204    6.2868   12.5322 C   0  0  0  0  0  0  0  0  0  0  0  0
   45.1010    5.1201   13.2882 C   0  0  0  0  0  0  0  0  0  0  0  0
   43.0454    4.5839   12.1449 C   0  0  0  0  0  0  0  0  0  0  0  0
   44.0171    4.2676   13.0923 C   0  0  0  0  0  0  0  0  0  0  0  0
   44.2776    9.5248   11.0206 C   0  0  0  0  0  0  0  0  0  0  0  0
   44.5172    8.1465   11.5310 C   0  0  0  0  0  0  0  0  0  0  0  0
   44.9532   10.4894   11.3383 O   0  0  0  0  0  0  0  0  0  0  0  0
   45.5676    7.9486   12.4366 C   0  0  0  0  0  0  0  0  0  0  0  0
   43.7210    7.0564   11.1607 C   0  0  0  0  0  0  0  0  0  0  0  0
   43.2172    9.5437   10.1773 O   0  0  0  0  0  0  0  0  0  0  0  0
   45.0649    5.5737   12.5428 C   0  0  0  0  0  0  0  0  0  0  0  0
   41.5569   12.9686   10.2491 N   0  0  0  0  0  0  0  0  0  0  0  0
   45.2428    4.3287   13.1545 N   0  0  0  0  0  0  0  0  0  0  0  0
   45.8225    6.6741   12.9525 C   0  0  0  0  0  0  0  0  0  0  0  0
   43.9836    5.7854   11.6831 C   0  0  0  0  0  0  0  0  0  0  0  0
   42.8783   10.8327    9.6312 C   0  0  0  0  0  0  0  0  0  0  0  0
   41.9648   11.5998   10.6059 C   0  0  0  0  0  0  0  0  0  0  0  0
   41.1625   13.1176    8.8467 C   0  0  0  0  0  0  0  0  0  0  0  0
   42.4501   14.0048   10.7794 C   0  0  0  0  0  0  0  0  0  0  0  0
   40.4335   14.4249    8.5496 C   0  0  0  0  0  0  0  0  0  0  0  0
   43.8350   14.1132   10.1527 C   0  0  0  0  0  0  0  0  0  0  0  0
   43.1640   11.1831   10.4209 H   0  0  0  0  0  0  0  0  0  0  0  0
   43.6823    9.7868   10.7550 H   0  0  0  0  0  0  0  0  0  0  0  0
   43.2101   12.6910   12.3063 H   0  0  0  0  0  0  0  0  0  0  0  0
   41.7250   10.7036   12.4423 H   0  0  0  0  0  0  0  0  0  0  0  0
   41.0521   13.7642    9.0174 H   0  0  0  0  0  0  0  0  0  0  0  0
   42.3787    9.2777   10.0245 H   0  0  0  0  0  0  0  0  0  0  0  0
   45.4476    8.0600   10.5155 H   0  0  0  0  0  0  0  0  0  0  0  0
   43.8896    7.7425    9.7855 H   0  0  0  0  0  0  0  0  0  0  0  0
   41.6916   16.9748    9.9515 H   0  0  0  0  0  0  0  0  0  0  0  0
   43.7431   12.1194    7.1553 H   0  0  0  0  0  0  0  0  0  0  0  0
   42.2226   12.9987    6.9785 H   0  0  0  0  0  0  0  0  0  0  0  0
   42.2929   11.5614    7.9984 H   0  0  0  0  0  0  0  0  0  0  0  0
   44.4538   15.1529    9.1810 H   0  0  0  0  0  0  0  0  0  0  0  0
   43.5044   15.1553    7.6853 H   0  0  0  0  0  0  0  0  0  0  0  0
   44.9484   14.1521    7.8153 H   0  0  0  0  0  0  0  0  0  0  0  0
   42.3932    5.9798   10.6495 H   0  0  0  0  0  0  0  0  0  0  0  0
   46.0651    6.9516   12.7091 H   0  0  0  0  0  0  0  0  0  0  0  0
   45.8556    4.8774   14.0343 H   0  0  0  0  0  0  0  0  0  0  0  0
   42.1989    3.9202   11.9975 H   0  0  0  0  0  0  0  0  0  0  0  0
   43.9281    3.3607   13.6830 H   0  0  0  0  0  0  0  0  0  0  0  0
   46.1838    8.7863   12.7576 H   0  0  0  0  0  0  0  0  0  0  0  0
   42.8845    7.1779   10.4775 H   0  0  0  0  0  0  0  0  0  0  0  0
   46.1845    4.1711   13.5029 H   0  0  0  0  0  0  0  0  0  0  0  0
   44.8990    3.5466   12.6062 H   0  0  0  0  0  0  0  0  0  0  0  0
   46.6191    6.5483   13.6833 H   0  0  0  0  0  0  0  0  0  0  0  0
   43.3320    4.9576   11.4135 H   0  0  0  0  0  0  0  0  0  0  0  0
   43.7854   11.3873    9.3707 H   0  0  0  0  0  0  0  0  0  0  0  0
   42.3475   10.6336    8.6930 H   0  0  0  0  0  0  0  0  0  0  0  0
   42.3971   11.5847   11.6148 H   0  0  0  0  0  0  0  0  0  0  0  0
   41.0467   11.0056   10.7152 H   0  0  0  0  0  0  0  0  0  0  0  0
   40.4691   12.3049    8.5898 H   0  0  0  0  0  0  0  0  0  0  0  0
   42.0225   13.0247    8.1712 H   0  0  0  0  0  0  0  0  0  0  0  0
   41.9565   14.9811   10.6985 H   0  0  0  0  0  0  0  0  0  0  0  0
   42.5694   13.8551   11.8601 H   0  0  0  0  0  0  0  0  0  0  0  0
   39.5809   14.5602    9.2212 H   0  0  0  0  0  0  0  0  0  0  0  0
   40.0520   14.4091    7.5245 H   0  0  0  0  0  0  0  0  0  0  0  0
   41.0932   15.2915    8.6409 H   0  0  0  0  0  0  0  0  0  0  0  0
   44.4467   13.2348   10.3777 H   0  0  0  0  0  0  0  0  0  0  0  0
   43.7864   14.2456    9.0684 H   0  0  0  0  0  0  0  0  0  0  0  0
   44.3565   14.9824   10.5663 H   0  0  0  0  0  0  0  0  0  0  0  0
  3  2  1  0
  4  2  1  0
  5  4  1  0
  6  2  1  0
  3  7  1  0
  8  6  1  0
  5  9  1  0
  6 10  1  0
 11  9  1  0
 12  4  2  0
 13 10  2  0
 14 11  2  0
 15 11  1  0
 16 10  1  0
 17  8  1  0
 18  8  1  0
 19 15  1  0
 20 19  2  0
 21 19  1  0
 22 21  2  0
 23 20  1  0
 24 22  1  0
  7  8  1  0
  5  3  1  0
 24 23  2  0
 26 25  1  0
 27 25  2  0
 28 26  2  0
 29 26  1  0
 30 25  1  0
 31 35  1  0
 32 37  1  0
 33 31  1  0
 34 28  1  0
 35 29  2  0
 36 30  1  0
 37 36  1  0
 38 32  1  0
 39 32  1  0
 40 38  1  0
 41 39  1  0
 31 34  2  0
  1 42  1  0
  1 43  1  0
  3 44  1  6
  5 45  1  6
  6 46  1  1
  9 47  1  0
 15 48  1  0
 15 49  1  0
 16 50  1  0
 17 51  1  0
 17 52  1  0
 17 53  1  0
 18 54  1  0
 18 55  1  0
 18 56  1  0
 20 57  1  0
 21 58  1  0
 22 59  1  0
 23 60  1  0
 24 61  1  0
 28 62  1  0
 29 63  1  0
 33 64  1  0
 33 65  1  0
 34 66  1  0
 35 67  1  0
 36 68  1  0
 36 69  1  0
 37 70  1  0
 37 71  1  0
 38 72  1  0
 38 73  1  0
 39 74  1  0
 39 75  1  0
 40 76  1  0
 40 77  1  0
 40 78  1  0
 41 79  1  0
 41 80  1  0
 41 81  1  0
M  END
> <Uni-Dock RESULT> 
ENERGY=   -5.268  LOWER_BOUND=    5.379  UPPER_BOUND=    7.177
INTER + INTRA:          -5.268
INTER:                  -5.268
INTRA:                   0.000
UNBOUND:                 0.000

$$$$

     RDKit          3D

 81 82  0  0  0  0  0  0  0  0999 V2000
   48.0733    7.5496   14.2275 O   0  0  0  0  0  0  0  0  0  0  0  0
   50.3466    7.9515   15.7222 N   0  0  0  0  0  0  0  0  0  0  0  0
   50.0375    7.6825   14.3061 C   0  0  1  0  0  0  0  0  0  0  0  0
   49.1238    7.5368   16.1631 C   0  0  0  0  0  0  0  0  0  0  0  0
   48.7923    6.8908   14.7973 C   0  0  1  0  0  0  0  0  0  0  0  0
   50.8690    9.2718   16.0505 C   0  0  2  0  0  0  0  0  0  0  0  0
   49.7487    9.3387   13.5551 S   0  0  0  0  0  0  0  0  0  0  0  0
   50.2501   10.2879   15.0646 C   0  0  0  0  0  0  0  0  0  0  0  0
   47.4669    7.2390   14.2218 N   0  0  0  0  0  0  0  0  0  0  0  0
   52.3922    9.1948   15.9849 C   0  0  0  0  0  0  0  0  0  0  0  0
   47.1698    6.9458   12.9091 C   0  0  0  0  0  0  0  0  0  0  0  0
   48.5381    7.7420   17.2013 O   0  0  0  0  0  0  0  0  0  0  0  0
   53.0731    8.4951   15.2516 O   0  0  0  0  0  0  0  0  0  0  0  0
   47.9713    6.3799   12.1716 O   0  0  0  0  0  0  0  0  0  0  0  0
   45.7953    7.3996   12.4535 C   0  0  0  0  0  0  0  0  0  0  0  0
   52.9903   10.0484   16.8455 O   0  0  0  0  0  0  0  0  0  0  0  0
   48.9760   10.9176   15.6524 C   0  0  0  0  0  0  0  0  0  0  0  0
   51.1927   11.4153   14.6208 C   0  0  0  0  0  0  0  0  0  0  0  0
   44.8860    6.2488   12.1008 C   0  0  0  0  0  0  0  0  0  0  0  0
   43.9767    5.7379   13.0383 C   0  0  0  0  0  0  0  0  0  0  0  0
   44.9565    5.6588   10.8310 C   0  0  0  0  0  0  0  0  0  0  0  0
   44.1192    4.5930   10.4995 C   0  0  0  0  0  0  0  0  0  0  0  0
   43.1420    4.6688   12.7039 C   0  0  0  0  0  0  0  0  0  0  0  0
   43.2104    4.1009   11.4332 C   0  0  0  0  0  0  0  0  0  0  0  0
   47.4338    7.6309   12.7370 C   0  0  0  0  0  0  0  0  0  0  0  0
   46.3271    6.8482   12.1204 C   0  0  0  0  0  0  0  0  0  0  0  0
   48.4741    7.8995   12.1595 O   0  0  0  0  0  0  0  0  0  0  0  0
   46.4950    6.3825   10.8098 C   0  0  0  0  0  0  0  0  0  0  0  0
   45.1462    6.5424   12.8071 C   0  0  0  0  0  0  0  0  0  0  0  0
   47.1191    7.9832   14.0069 O   0  0  0  0  0  0  0  0  0  0  0  0
   44.2856    5.3725   10.8563 C   0  0  0  0  0  0  0  0  0  0  0  0
   50.2909    8.3593   16.0781 N   0  0  0  0  0  0  0  0  0  0  0  0
   43.3365    4.5191   10.2847 N   0  0  0  0  0  0  0  0  0  0  0  0
   45.4882    5.6327   10.1940 C   0  0  0  0  0  0  0  0  0  0  0  0
   44.1452    5.7907   12.1825 C   0  0  0  0  0  0  0  0  0  0  0  0
   48.1259    8.7329   14.7133 C   0  0  0  0  0  0  0  0  0  0  0  0
   49.1466    7.7764   15.3584 C   0  0  0  0  0  0  0  0  0  0  0  0
   49.9308    9.4882   16.9385 C   0  0  0  0  0  0  0  0  0  0  0  0
   51.4803    8.5442   15.2390 C   0  0  0  0  0  0  0  0  0  0  0  0
   51.0257    9.8809   17.9264 C   0  0  0  0  0  0  0  0  0  0  0  0
   51.4189    9.6396   14.1814 C   0  0  0  0  0  0  0  0  0  0  0  0
   48.7383    8.2544   14.2400 H   0  0  0  0  0  0  0  0  0  0  0  0
   47.5646    7.7238   13.4209 H   0  0  0  0  0  0  0  0  0  0  0  0
   50.8055    7.0831   13.8090 H   0  0  0  0  0  0  0  0  0  0  0  0
   48.9316    5.8023   14.8201 H   0  0  0  0  0  0  0  0  0  0  0  0
   50.5918    9.4967   17.0884 H   0  0  0  0  0  0  0  0  0  0  0  0
   46.7845    7.7246   14.7934 H   0  0  0  0  0  0  0  0  0  0  0  0
   45.9310    8.0561   11.5835 H   0  0  0  0  0  0  0  0  0  0  0  0
   45.3209    8.0213   13.2228 H   0  0  0  0  0  0  0  0  0  0  0  0
   53.9496    9.9027   16.7012 H   0  0  0  0  0  0  0  0  0  0  0  0
   48.5103   11.6191   14.9491 H   0  0  0  0  0  0  0  0  0  0  0  0
   49.2149   11.4816   16.5619 H   0  0  0  0  0  0  0  0  0  0  0  0
   48.2223   10.1714   15.9220 H   0  0  0  0  0  0  0  0  0  0  0  0
   52.0819   11.0404   14.1012 H   0  0  0  0  0  0  0  0  0  0  0  0
   51.5307   12.0005   15.4842 H   0  0  0  0  0  0  0  0  0  0  0  0
   50.6908   12.1125   13.9381 H   0  0  0  0  0  0  0  0  0  0  0  0
   43.9089    6.1674   14.0366 H   0  0  0  0  0  0  0  0  0  0  0  0
   45.6736    6.0212   10.0953 H   0  0  0  0  0  0  0  0  0  0  0  0
   44.1786    4.1438    9.5097 H   0  0  0  0  0  0  0  0  0  0  0  0
   42.4360    4.2802   13.4315 H   0  0  0  0  0  0  0  0  0  0  0  0
   42.5607    3.2712   11.1710 H   0  0  0  0  0  0  0  0  0  0  0  0
   47.4152    6.5873   10.2659 H   0  0  0  0  0  0  0  0  0  0  0  0
   44.9918    6.8689   13.8322 H   0  0  0  0  0  0  0  0  0  0  0  0
   43.3455    4.5141    9.2683 H   0  0  0  0  0  0  0  0  0  0  0  0
   42.4004    4.6317   10.6611 H   0  0  0  0  0  0  0  0  0  0  0  0
   45.6535    5.2484    9.1892 H   0  0  0  0  0  0  0  0  0  0  0  0
   43.2507    5.5309   12.7437 H   0  0  0  0  0  0  0  0  0  0  0  0
   48.5909    9.4678   14.0485 H   0  0  0  0  0  0  0  0  0  0  0  0
   47.5945    9.2974   15.4882 H   0  0  0  0  0  0  0  0  0  0  0  0
   49.4978    7.0477   14.6164 H   0  0  0  0  0  0  0  0  0  0  0  0
   48.5918    7.1577   16.0777 H   0  0  0  0  0  0  0  0  0  0  0  0
   49.0533    9.2065   17.5367 H   0  0  0  0  0  0  0  0  0  0  0  0
   49.6437   10.3701   16.3518 H   0  0  0  0  0  0  0  0  0  0  0  0
   52.3486    8.7326   15.8823 H   0  0  0  0  0  0  0  0  0  0  0  0
   51.7180    7.5951   14.7417 H   0  0  0  0  0  0  0  0  0  0  0  0
   51.3517    9.0181   18.5143 H   0  0  0  0  0  0  0  0  0  0  0  0
   50.6419   10.6332   18.6216 H   0  0  0  0  0  0  0  0  0  0  0  0
   51.8954   10.3119   17.4237 H   0  0  0  0  0  0  0  0  0  0  0  0
   50.6968    9.3986   13.3961 H   0  0  0  0  0  0  0  0  0  0  0  0
   51.1665   10.6127   14.6115 H   0  0  0  0  0  0  0  0  0  0  0  0
   52.3970    9.7377   13.6993 H   0  0  0  0  0  0  0  0  0  0  0  0
  3  2  1  0
  4  2  1  0
  5  4  1  0
  6  2  1  0
  3  7  1  0
  8  6  1  0
  5  9  1  0
  6 10  1  0
 11  9  1  0
 12  4  2  0
 13 10  2  0
 14 11  2  0
 15 11  1  0
 16 10  1  0
 17  8  1  0
 18  8  1  0
 19 15  1  0
 20 19  2  0
 21 19  1  0
 22 21  2  0
 23 20  1  0
 24 22  1  0
  7  8  1  0
  5  3  1  0
 24 23  2  0
 26 25  1  0
 27 25  2  0
 28 26  2  0
 29 26  1  0
 30 25  1  0
 31 35  1  0
 32 37  1  0
 33 31  1  0
 34 28  1  0
 35 29  2  0
 36 30  1  0
 37 36  1  0
 38 32  1  0
 39 32  1  0
 40 38  1  0
 41 39  1  0
 31 34  2  0
  1 42  1  0
  1 43  1  0
  3 44  1  6
  5 45  1  6
  6 46  1  1
  9 47  1  0
 15 48  1  0
 15 49  1  0
 16 50  1  0
 17 51  1  0
 17 52  1  0
 17 53  1  0
 18 54  1  0
 18 55  1  0
 18 56  1  0
 20 57  1  0
 21 58  1  0
 22 59  1  0
 23 60  1  0
 24 61  1  0
 28 62  1  0
 29 63  1  0
 33 64  1  0
 33 65  1  0
 34 66  1  0
 35 67  1  0
 36 68  1  0
 36 69  1  0
 37 70  1  0
 37 71  1  0
 38 72  1  0
 38 73  1  0
 39 74  1  0
 39 75  1  0
 40 76  1  0
 40 77  1  0
 40 78  1  0
 41 79  1  0
 41 80  1  0
 41 81  1  0
M  END
> <Uni-Dock RESULT> 
ENERGY=   -5.218  LOWER_BOUND=    1.828  UPPER_BOUND=    2.830
INTER + INTRA:          -5.218
INTER:                  -5.218
INTRA:                   0.000
UNBOUND:                 0.000

$$$$

     RDKit          3D

 81 82  0  0  0  0  0  0  0  0999 V2000
   48.2365   10.2360   17.0391 O   0  0  0  0  0  0  0  0  0  0  0  0
   48.4407   11.2798   19.5753 N   0  0  0  0  0  0  0  0  0  0  0  0
   48.9296   10.0774   18.8767 C   0  0  1  0  0  0  0  0  0  0  0  0
   47.4816   11.5445   18.6417 C   0  0  0  0  0  0  0  0  0  0  0  0
   47.6477   10.1474   17.9989 C   0  0  1  0  0  0  0  0  0  0  0  0
   49.4320   12.2782   19.9556 C   0  0  2  0  0  0  0  0  0  0  0  0
   50.5194   10.5868   18.0999 S   0  0  0  0  0  0  0  0  0  0  0  0
   50.5588   12.2576   18.8985 C   0  0  0  0  0  0  0  0  0  0  0  0
   47.8066   10.1301   16.5212 N   0  0  0  0  0  0  0  0  0  0  0  0
   49.9033   11.9456   21.3690 C   0  0  0  0  0  0  0  0  0  0  0  0
   48.2230    8.9894   15.8708 C   0  0  0  0  0  0  0  0  0  0  0  0
   46.8662   12.5560   18.3943 O   0  0  0  0  0  0  0  0  0  0  0  0
   50.0015   10.8421   21.8825 O   0  0  0  0  0  0  0  0  0  0  0  0
   48.4646    7.9482   16.4740 O   0  0  0  0  0  0  0  0  0  0  0  0
   48.3793    9.1374   14.3686 C   0  0  0  0  0  0  0  0  0  0  0  0
   50.2649   13.0461   22.0655 O   0  0  0  0  0  0  0  0  0  0  0  0
   50.2967   13.2972   17.7959 C   0  0  0  0  0  0  0  0  0  0  0  0
   51.9720   12.4807   19.4548 C   0  0  0  0  0  0  0  0  0  0  0  0
   47.4056    8.2863   13.5921 C   0  0  0  0  0  0  0  0  0  0  0  0
   46.1963    8.8216   13.1256 C   0  0  0  0  0  0  0  0  0  0  0  0
   47.6907    6.9358   13.3463 C   0  0  0  0  0  0  0  0  0  0  0  0
   46.7932    6.1430   12.6301 C   0  0  0  0  0  0  0  0  0  0  0  0
   45.2987    8.0242   12.4114 C   0  0  0  0  0  0  0  0  0  0  0  0
   45.6005    6.6872   12.1599 C   0  0  0  0  0  0  0  0  0  0  0  0
   48.9270    9.2470   15.9518 C   0  0  0  0  0  0  0  0  0  0  0  0
   48.3180    8.4556   14.8472 C   0  0  0  0  0  0  0  0  0  0  0  0
   49.7923    8.8146   16.6949 O   0  0  0  0  0  0  0  0  0  0  0  0
   48.7523    7.1369   14.6593 C   0  0  0  0  0  0  0  0  0  0  0  0
   47.3176    8.9698   14.0139 C   0  0  0  0  0  0  0  0  0  0  0  0
   48.3817   10.4861   16.0080 O   0  0  0  0  0  0  0  0  0  0  0  0
   47.2411    6.8788   12.7742 C   0  0  0  0  0  0  0  0  0  0  0  0
   48.5340   11.8159   19.5716 N   0  0  0  0  0  0  0  0  0  0  0  0
   46.6040    6.0531   11.8426 N   0  0  0  0  0  0  0  0  0  0  0  0
   48.2001    6.3512   13.6429 C   0  0  0  0  0  0  0  0  0  0  0  0
   46.7709    8.1753   13.0005 C   0  0  0  0  0  0  0  0  0  0  0  0
   48.8830   11.3409   17.0533 C   0  0  0  0  0  0  0  0  0  0  0  0
   48.1227   11.0767   18.3668 C   0  0  0  0  0  0  0  0  0  0  0  0
   48.7953   13.2362   19.3292 C   0  0  0  0  0  0  0  0  0  0  0  0
   49.5304   11.1082   20.3836 C   0  0  0  0  0  0  0  0  0  0  0  0
   48.8952   14.0685   20.6045 C   0  0  0  0  0  0  0  0  0  0  0  0
   50.9383   10.9969   19.8113 C   0  0  0  0  0  0  0  0  0  0  0  0
   48.9819   10.5851   17.5506 H   0  0  0  0  0  0  0  0  0  0  0  0
   48.6568    9.8075   16.2780 H   0  0  0  0  0  0  0  0  0  0  0  0
   49.0001    9.2037   19.5309 H   0  0  0  0  0  0  0  0  0  0  0  0
   46.8504    9.4608   18.3116 H   0  0  0  0  0  0  0  0  0  0  0  0
   48.9317   13.2543   19.9929 H   0  0  0  0  0  0  0  0  0  0  0  0
   47.6354   10.9760   15.9890 H   0  0  0  0  0  0  0  0  0  0  0  0
   49.4114    8.8639   14.1111 H   0  0  0  0  0  0  0  0  0  0  0  0
   48.2682   10.1877   14.0720 H   0  0  0  0  0  0  0  0  0  0  0  0
   50.5454   12.6970   22.9383 H   0  0  0  0  0  0  0  0  0  0  0  0
   51.0749   13.2717   17.0229 H   0  0  0  0  0  0  0  0  0  0  0  0
   50.2939   14.3087   18.2192 H   0  0  0  0  0  0  0  0  0  0  0  0
   49.3328   13.1511   17.2987 H   0  0  0  0  0  0  0  0  0  0  0  0
   52.2655   11.7122   20.1790 H   0  0  0  0  0  0  0  0  0  0  0  0
   52.0433   13.4551   19.9526 H   0  0  0  0  0  0  0  0  0  0  0  0
   52.7236   12.4739   18.6554 H   0  0  0  0  0  0  0  0  0  0  0  0
   45.9419    9.8637   13.3128 H   0  0  0  0  0  0  0  0  0  0  0  0
   48.6115    6.4910   13.7219 H   0  0  0  0  0  0  0  0  0  0  0  0
   47.0251    5.0964   12.4410 H   0  0  0  0  0  0  0  0  0  0  0  0
   44.3661    8.4447   12.0480 H   0  0  0  0  0  0  0  0  0  0  0  0
   44.9048    6.0666   11.6030 H   0  0  0  0  0  0  0  0  0  0  0  0
   49.5112    6.7084   15.3113 H   0  0  0  0  0  0  0  0  0  0  0  0
   46.9417    9.9810   14.1454 H   0  0  0  0  0  0  0  0  0  0  0  0
   47.1729    5.2724   11.5263 H   0  0  0  0  0  0  0  0  0  0  0  0
   46.1757    6.5550   11.0710 H   0  0  0  0  0  0  0  0  0  0  0  0
   48.5241    5.3175   13.5374 H   0  0  0  0  0  0  0  0  0  0  0  0
   45.9686    8.5785   12.3869 H   0  0  0  0  0  0  0  0  0  0  0  0
   49.9663   11.2225   17.1563 H   0  0  0  0  0  0  0  0  0  0  0  0
   48.7066   12.3683   16.7145 H   0  0  0  0  0  0  0  0  0  0  0  0
   48.0971    9.9991   18.5744 H   0  0  0  0  0  0  0  0  0  0  0  0
   47.0684   11.3233   18.1787 H   0  0  0  0  0  0  0  0  0  0  0  0
   47.9611   13.6513   18.7469 H   0  0  0  0  0  0  0  0  0  0  0  0
   49.7034   13.3854   18.7313 H   0  0  0  0  0  0  0  0  0  0  0  0
   49.5944   11.5841   21.3699 H   0  0  0  0  0  0  0  0  0  0  0  0
   49.1628   10.0967   20.5990 H   0  0  0  0  0  0  0  0  0  0  0  0
   48.0136   13.9263   21.2360 H   0  0  0  0  0  0  0  0  0  0  0  0
   48.9545   15.1301   20.3476 H   0  0  0  0  0  0  0  0  0  0  0  0
   49.7871   13.8211   21.1860 H   0  0  0  0  0  0  0  0  0  0  0  0
   50.9611   10.3572   18.9244 H   0  0  0  0  0  0  0  0  0  0  0  0
   51.3571   11.9744   19.5567 H   0  0  0  0  0  0  0  0  0  0  0  0
   51.6000   10.5400   20.5542 H   0  0  0  0  0  0  0  0  0  0  0  0
  3  2  1  0
  4  2  1  0
  5  4  1  0
  6  2  1  0
  3  7  1  0
  8  6  1  0
  5  9  1  0
  6 10  1  0
 11  9  1  0
 12  4  2  0
 13 10  2  0
 14 11  2  0
 15 11  1  0
 16 10  1  0
 17  8  1  0
 18  8  1  0
 19 15  1  0
 20 19  2  0
 21 19  1  0
 22 21  2  0
 23 20  1  0
 24 22  1  0
  7  8  1  0
  5  3  1  0
 24 23  2  0
 26 25  1  0
 27 25  2  0
 28 26  2  0
 29 26  1  0
 30 25  1  0
 31 35  1  0
 32 37  1  0
 33 31  1  0
 34 28  1  0
 35 29  2  0
 36 30  1  0
 37 36  1  0
 38 32  1  0
 39 32  1  0
 40 38  1  0
 41 39  1  0
 31 34  2  0
  1 42  1  0
  1 43  1  0
  3 44  1  6
  5 45  1  6
  6 46  1  1
  9 47  1  0
 15 48  1  0
 15 49  1  0
 16 50  1  0
 17 51  1  0
 17 52  1  0
 17 53  1  0
 18 54  1  0
 18 55  1  0
 18 56  1  0
 20 57  1  0
 21 58  1  0
 22 59  1  0
 23 60  1  0
 24 61  1  0
 28 62  1  0
 29 63  1  0
 33 64  1  0
 33 65  1  0
 34 66  1  0
 35 67  1  0
 36 68  1  0
 36 69  1  0
 37 70  1  0
 37 71  1  0
 38 72  1  0
 38 73  1  0
 39 74  1  0
 39 75  1  0
 40 76  1  0
 40 77  1  0
 40 78  1  0
 41 79  1  0
 41 80  1  0
 41 81  1  0
M  END
> <Uni-Dock RESULT> 
ENERGY=   -5.129  LOWER_BOUND=    4.204  UPPER_BOUND=    5.237
INTER + INTRA:          -5.129
INTER:                  -5.129
INTRA:                   0.000
UNBOUND:                 0.000

$$$$

     RDKit          3D

 81 82  0  0  0  0  0  0  0  0999 V2000
   48.2816    7.3502   13.7869 O   0  0  0  0  0  0  0  0  0  0  0  0
   50.6403    8.4771   14.6413 N   0  0  0  0  0  0  0  0  0  0  0  0
   49.7935    8.5645   13.4379 C   0  0  1  0  0  0  0  0  0  0  0  0
   50.0721    7.3126   15.0688 C   0  0  0  0  0  0  0  0  0  0  0  0
   49.3776    7.0899   13.7047 C   0  0  1  0  0  0  0  0  0  0  0  0
   50.7040    9.6547   15.4976 C   0  0  2  0  0  0  0  0  0  0  0  0
   48.5580    9.8766   13.8148 S   0  0  0  0  0  0  0  0  0  0  0  0
   49.3401   10.3762   15.4178 C   0  0  0  0  0  0  0  0  0  0  0  0
   47.9276    6.7686   13.7620 N   0  0  0  0  0  0  0  0  0  0  0  0
   51.8820   10.5042   15.0272 C   0  0  0  0  0  0  0  0  0  0  0  0
   47.1512    6.8109   12.6249 C   0  0  0  0  0  0  0  0  0  0  0  0
   50.0599    6.7825   16.1559 O   0  0  0  0  0  0  0  0  0  0  0  0
   52.3105   10.6210   13.8898 O   0  0  0  0  0  0  0  0  0  0  0  0
   47.6198    7.0987   11.5277 O   0  0  0  0  0  0  0  0  0  0  0  0
   45.6827    6.5001   12.8480 C   0  0  0  0  0  0  0  0  0  0  0  0
   52.4503   11.2029   16.0350 O   0  0  0  0  0  0  0  0  0  0  0  0
   48.4053    9.9106   16.5469 C   0  0  0  0  0  0  0  0  0  0  0  0
   49.4163   11.9092   15.4473 C   0  0  0  0  0  0  0  0  0  0  0  0
   45.2417    5.2318   12.1605 C   0  0  0  0  0  0  0  0  0  0  0  0
   45.2025    4.0141   12.8550 C   0  0  0  0  0  0  0  0  0  0  0  0
   44.8857    5.2527   10.8047 C   0  0  0  0  0  0  0  0  0  0  0  0
   44.4786    4.0825   10.1628 C   0  0  0  0  0  0  0  0  0  0  0  0
   44.7972    2.8440   12.2085 C   0  0  0  0  0  0  0  0  0  0  0  0
   44.4307    2.8803   10.8645 C   0  0  0  0  0  0  0  0  0  0  0  0
   47.0069    7.5307   12.7971 C   0  0  0  0  0  0  0  0  0  0  0  0
   46.1394    6.5087   12.1487 C   0  0  0  0  0  0  0  0  0  0  0  0
   47.4212    8.5255   12.2255 O   0  0  0  0  0  0  0  0  0  0  0  0
   45.7908    6.6921   10.8042 C   0  0  0  0  0  0  0  0  0  0  0  0
   45.6852    5.3685   12.8219 C   0  0  0  0  0  0  0  0  0  0  0  0
   47.2648    7.1911   14.0831 O   0  0  0  0  0  0  0  0  0  0  0  0
   44.4878    4.6414   10.8338 C   0  0  0  0  0  0  0  0  0  0  0  0
   50.6193    8.6308   15.1629 N   0  0  0  0  0  0  0  0  0  0  0  0
   43.7922    3.6436   10.1437 N   0  0  0  0  0  0  0  0  0  0  0  0
   44.9885    5.7522   10.1497 C   0  0  0  0  0  0  0  0  0  0  0  0
   44.8838    4.4336   12.1579 C   0  0  0  0  0  0  0  0  0  0  0  0
   48.1125    8.1010   14.8100 C   0  0  0  0  0  0  0  0  0  0  0  0
   49.5943    7.7696   14.5506 C   0  0  0  0  0  0  0  0  0  0  0  0
   50.3389    8.9776   16.5577 C   0  0  0  0  0  0  0  0  0  0  0  0
   51.0501    9.7362   14.2995 C   0  0  0  0  0  0  0  0  0  0  0  0
   51.5329    9.5802   17.2925 C   0  0  0  0  0  0  0  0  0  0  0  0
   50.0521   10.8644   14.0683 C   0  0  0  0  0  0  0  0  0  0  0  0
   48.5335    8.2569   14.0184 H   0  0  0  0  0  0  0  0  0  0  0  0
   47.4158    7.4503   13.3626 H   0  0  0  0  0  0  0  0  0  0  0  0
   50.3695    8.7287   12.5228 H   0  0  0  0  0  0  0  0  0  0  0  0
   49.9144    6.3534   13.0928 H   0  0  0  0  0  0  0  0  0  0  0  0
   50.9234    9.3186   16.5191 H   0  0  0  0  0  0  0  0  0  0  0  0
   47.4988    6.5449   14.6532 H   0  0  0  0  0  0  0  0  0  0  0  0
   45.0999    7.3544   12.4780 H   0  0  0  0  0  0  0  0  0  0  0  0
   45.4623    6.4332   13.9205 H   0  0  0  0  0  0  0  0  0  0  0  0
   53.1777   11.6995   15.6032 H   0  0  0  0  0  0  0  0  0  0  0  0
   47.4225   10.3939   16.4832 H   0  0  0  0  0  0  0  0  0  0  0  0
   48.8305   10.1690   17.5240 H   0  0  0  0  0  0  0  0  0  0  0  0
   48.2420    8.8285   16.5401 H   0  0  0  0  0  0  0  0  0  0  0  0
   49.9891   12.3183   14.6071 H   0  0  0  0  0  0  0  0  0  0  0  0
   49.8872   12.2561   16.3747 H   0  0  0  0  0  0  0  0  0  0  0  0
   48.4174   12.3615   15.4067 H   0  0  0  0  0  0  0  0  0  0  0  0
   45.4860    3.9650   13.9053 H   0  0  0  0  0  0  0  0  0  0  0  0
   44.9339    6.1816   10.2377 H   0  0  0  0  0  0  0  0  0  0  0  0
   44.2004    4.1093    9.1108 H   0  0  0  0  0  0  0  0  0  0  0  0
   44.7637    1.9047   12.7520 H   0  0  0  0  0  0  0  0  0  0  0  0
   44.1134    1.9720   10.3611 H   0  0  0  0  0  0  0  0  0  0  0  0
   46.1532    7.5585   10.2542 H   0  0  0  0  0  0  0  0  0  0  0  0
   45.9545    5.1835   13.8585 H   0  0  0  0  0  0  0  0  0  0  0  0
   43.2913    3.9803    9.3259 H   0  0  0  0  0  0  0  0  0  0  0  0
   43.2118    3.0593   10.7374 H   0  0  0  0  0  0  0  0  0  0  0  0
   44.7602    5.8938    9.0950 H   0  0  0  0  0  0  0  0  0  0  0  0
   44.5711    3.5354   12.6853 H   0  0  0  0  0  0  0  0  0  0  0  0
   47.8580    9.1372   14.5657 H   0  0  0  0  0  0  0  0  0  0  0  0
   47.8727    7.9565   15.8698 H   0  0  0  0  0  0  0  0  0  0  0  0
   49.7739    7.6762   13.4717 H   0  0  0  0  0  0  0  0  0  0  0  0
   49.7619    6.7496   14.9242 H   0  0  0  0  0  0  0  0  0  0  0  0
   50.0663    8.0608   17.0985 H   0  0  0  0  0  0  0  0  0  0  0  0
   49.4838    9.6605   16.6419 H   0  0  0  0  0  0  0  0  0  0  0  0
   51.9739   10.1688   14.7029 H   0  0  0  0  0  0  0  0  0  0  0  0
   51.3488    9.3322   13.3238 H   0  0  0  0  0  0  0  0  0  0  0  0
   52.4114    8.9338   17.2101 H   0  0  0  0  0  0  0  0  0  0  0  0
   51.2956    9.6876   18.3549 H   0  0  0  0  0  0  0  0  0  0  0  0
   51.7901   10.5720   16.9118 H   0  0  0  0  0  0  0  0  0  0  0  0
   49.1905   10.5245   13.4865 H   0  0  0  0  0  0  0  0  0  0  0  0
   49.6990   11.2999   15.0071 H   0  0  0  0  0  0  0  0  0  0  0  0
   50.5312   11.6647   13.4951 H   0  0  0  0  0  0  0  0  0  0  0  0
  3  2  1  0
  4  2  1  0
  5  4  1  0
  6  2  1  0
  3  7  1  0
  8  6  1  0
  5  9  1  0
  6 10  1  0
 11  9  1  0
 12  4  2  0
 13 10  2  0
 14 11  2  0
 15 11  1  0
 16 10  1  0
 17  8  1  0
 18  8  1  0
 19 15  1  0
 20 19  2  0
 21 19  1  0
 22 21  2  0
 23 20  1  0
 24 22  1  0
  7  8  1  0
  5  3  1  0
 24 23  2  0
 26 25  1  0
 27 25  2  0
 28 26  2  0
 29 26  1  0
 30 25  1  0
 31 35  1  0
 32 37  1  0
 33 31  1  0
 34 28  1  0
 35 29  2  0
 36 30  1  0
 37 36  1  0
 38 32  1  0
 39 32  1  0
 40 38  1  0
 41 39  1  0
 31 34  2  0
  1 42  1  0
  1 43  1  0
  3 44  1  6
  5 45  1  6
  6 46  1  1
  9 47  1  0
 15 48  1  0
 15 49  1  0
 16 50  1  0
 17 51  1  0
 17 52  1  0
 17 53  1  0
 18 54  1  0
 18 55  1  0
 18 56  1  0
 20 57  1  0
 21 58  1  0
 22 59  1  0
 23 60  1  0
 24 61  1  0
 28 62  1  0
 29 63  1  0
 33 64  1  0
 33 65  1  0
 34 66  1  0
 35 67  1  0
 36 68  1  0
 36 69  1  0
 37 70  1  0
 37 71  1  0
 38 72  1  0
 38 73  1  0
 39 74  1  0
 39 75  1  0
 40 76  1  0
 40 77  1  0
 40 78  1  0
 41 79  1  0
 41 80  1  0
 41 81  1  0
M  END
> <Uni-Dock RESULT> 
ENERGY=   -5.089  LOWER_BOUND=    1.696  UPPER_BOUND=    3.014
INTER + INTRA:          -5.089
INTER:                  -5.089
INTRA:                   0.000
UNBOUND:                 0.000

$$$$

     RDKit          3D

 81 82  0  0  0  0  0  0  0  0999 V2000
   44.2546   11.3003   10.6796 O   0  0  0  0  0  0  0  0  0  0  0  0
   43.1661   13.0676    8.8753 N   0  0  0  0  0  0  0  0  0  0  0  0
   42.9637   11.6520    9.2332 C   0  0  1  0  0  0  0  0  0  0  0  0
   44.3889   13.1401    9.4763 C   0  0  0  0  0  0  0  0  0  0  0  0
   44.4710   11.6015    9.6127 C   0  0  1  0  0  0  0  0  0  0  0  0
   42.0953   13.9983    9.2086 C   0  0  2  0  0  0  0  0  0  0  0  0
   41.7417   11.6752   10.6103 S   0  0  0  0  0  0  0  0  0  0  0  0
   41.4100   13.4941   10.4984 C   0  0  0  0  0  0  0  0  0  0  0  0
   44.8395   11.0902   10.9588 N   0  0  0  0  0  0  0  0  0  0  0  0
   41.1623   14.0793    8.0030 C   0  0  0  0  0  0  0  0  0  0  0  0
   44.6876    9.7574   11.2721 C   0  0  0  0  0  0  0  0  0  0  0  0
   45.0426   14.0891    9.8438 O   0  0  0  0  0  0  0  0  0  0  0  0
   40.9007   13.1962    7.2014 O   0  0  0  0  0  0  0  0  0  0  0  0
   44.2597    8.9430   10.4596 O   0  0  0  0  0  0  0  0  0  0  0  0
   45.0655    9.3938   12.6960 C   0  0  0  0  0  0  0  0  0  0  0  0
   40.5697   15.2887    7.8885 O   0  0  0  0  0  0  0  0  0  0  0  0
   42.0318   14.1493   11.7431 C   0  0  0  0  0  0  0  0  0  0  0  0
   39.8894   13.6995   10.5459 C   0  0  0  0  0  0  0  0  0  0  0  0
   46.2572    8.4717   12.7681 C   0  0  0  0  0  0  0  0  0  0  0  0
   47.5483    8.9803   12.9703 C   0  0  0  0  0  0  0  0  0  0  0  0
   46.0885    7.0889   12.6099 C   0  0  0  0  0  0  0  0  0  0  0  0
   47.1872    6.2311   12.6739 C   0  0  0  0  0  0  0  0  0  0  0  0
   48.6464    8.1188   13.0309 C   0  0  0  0  0  0  0  0  0  0  0  0
   48.4640    6.7447   12.8879 C   0  0  0  0  0  0  0  0  0  0  0  0
   43.9974    9.9342   11.5190 C   0  0  0  0  0  0  0  0  0  0  0  0
   44.9618    8.9156   12.0190 C   0  0  0  0  0  0  0  0  0  0  0  0
   42.9308    9.6553   10.9970 O   0  0  0  0  0  0  0  0  0  0  0  0
   44.6328    7.5620   11.8695 C   0  0  0  0  0  0  0  0  0  0  0  0
   46.1857    9.2597   12.6047 C   0  0  0  0  0  0  0  0  0  0  0  0
   44.4772   11.1852   11.7208 O   0  0  0  0  0  0  0  0  0  0  0  0
   46.7105    6.9098   12.9474 C   0  0  0  0  0  0  0  0  0  0  0  0
   43.0751   13.5573    9.0943 N   0  0  0  0  0  0  0  0  0  0  0  0
   47.6409    5.9182   13.2743 N   0  0  0  0  0  0  0  0  0  0  0  0
   45.5130    6.5699   12.3124 C   0  0  0  0  0  0  0  0  0  0  0  0
   47.0598    8.2596   13.0438 C   0  0  0  0  0  0  0  0  0  0  0  0
   43.6339   12.2580   11.2597 C   0  0  0  0  0  0  0  0  0  0  0  0
   43.8888   12.5301    9.7650 C   0  0  0  0  0  0  0  0  0  0  0  0
   42.9021   14.7783    9.8840 C   0  0  0  0  0  0  0  0  0  0  0  0
   41.8641   13.0254    8.4592 C   0  0  0  0  0  0  0  0  0  0  0  0
   42.3546   15.9557    9.0823 C   0  0  0  0  0  0  0  0  0  0  0  0
   40.7466   12.5554    9.3825 C   0  0  0  0  0  0  0  0  0  0  0  0
   43.3742   11.6959   10.5929 H   0  0  0  0  0  0  0  0  0  0  0  0
   44.1312   10.5997   11.3379 H   0  0  0  0  0  0  0  0  0  0  0  0
   42.6768   11.0333    8.3781 H   0  0  0  0  0  0  0  0  0  0  0  0
   45.1148   11.1606    8.8406 H   0  0  0  0  0  0  0  0  0  0  0  0
   42.5419   14.9908    9.3507 H   0  0  0  0  0  0  0  0  0  0  0  0
   45.1784   11.7351   11.6641 H   0  0  0  0  0  0  0  0  0  0  0  0
   44.1914    8.9211   13.1639 H   0  0  0  0  0  0  0  0  0  0  0  0
   45.2638   10.2983   13.2843 H   0  0  0  0  0  0  0  0  0  0  0  0
   40.0047   15.2052    7.0910 H   0  0  0  0  0  0  0  0  0  0  0  0
   41.5736   13.7766   12.6677 H   0  0  0  0  0  0  0  0  0  0  0  0
   41.8769   15.2346   11.7196 H   0  0  0  0  0  0  0  0  0  0  0  0
   43.1100   13.9770   11.8164 H   0  0  0  0  0  0  0  0  0  0  0  0
   39.3682   13.1731    9.7382 H   0  0  0  0  0  0  0  0  0  0  0  0
   39.6395   14.7643   10.4681 H   0  0  0  0  0  0  0  0  0  0  0  0
   39.4652   13.3393   11.4915 H   0  0  0  0  0  0  0  0  0  0  0  0
   47.7115   10.0510   13.0833 H   0  0  0  0  0  0  0  0  0  0  0  0
   45.0987    6.6733   12.4252 H   0  0  0  0  0  0  0  0  0  0  0  0
   47.0458    5.1585   12.5537 H   0  0  0  0  0  0  0  0  0  0  0  0
   49.6433    8.5171   13.1927 H   0  0  0  0  0  0  0  0  0  0  0  0
   49.3163    6.0735   12.9368 H   0  0  0  0  0  0  0  0  0  0  0  0
   43.6977    7.2714   11.3945 H   0  0  0  0  0  0  0  0  0  0  0  0
   46.4825   10.2993   12.7165 H   0  0  0  0  0  0  0  0  0  0  0  0
   47.2259    5.0108   13.4676 H   0  0  0  0  0  0  0  0  0  0  0  0
   48.3075    6.1968   13.9875 H   0  0  0  0  0  0  0  0  0  0  0  0
   45.2559    5.5244   12.1531 H   0  0  0  0  0  0  0  0  0  0  0  0
   48.0224    8.5444   13.4622 H   0  0  0  0  0  0  0  0  0  0  0  0
   42.5842   12.0401   11.4807 H   0  0  0  0  0  0  0  0  0  0  0  0
   43.9082   13.1359   11.8560 H   0  0  0  0  0  0  0  0  0  0  0  0
   43.8501   11.5891    9.2012 H   0  0  0  0  0  0  0  0  0  0  0  0
   44.9400   12.8373    9.6728 H   0  0  0  0  0  0  0  0  0  0  0  0
   43.8835   15.0885   10.2687 H   0  0  0  0  0  0  0  0  0  0  0  0
   42.2594   14.6090   10.7574 H   0  0  0  0  0  0  0  0  0  0  0  0
   41.4546   13.7802    7.7767 H   0  0  0  0  0  0  0  0  0  0  0  0
   42.1423   12.1931    7.8000 H   0  0  0  0  0  0  0  0  0  0  0  0
   42.9607   16.1389    8.1905 H   0  0  0  0  0  0  0  0  0  0  0  0
   42.3792   16.8616    9.6949 H   0  0  0  0  0  0  0  0  0  0  0  0
   41.3179   15.7952    8.7752 H   0  0  0  0  0  0  0  0  0  0  0  0
   41.0415   11.6675    9.9490 H   0  0  0  0  0  0  0  0  0  0  0  0
   40.4345   13.3366   10.0810 H   0  0  0  0  0  0  0  0  0  0  0  0
   39.8710   12.2797    8.7859 H   0  0  0  0  0  0  0  0  0  0  0  0
  3  2  1  0
  4  2  1  0
  5  4  1  0
  6  2  1  0
  3  7  1  0
  8  6  1  0
  5  9  1  0
  6 10  1  0
 11  9  1  0
 12  4  2  0
 13 10  2  0
 14 11  2  0
 15 11  1  0
 16 10  1  0
 17  8  1  0
 18  8  1  0
 19 15  1  0
 20 19  2  0
 21 19  1  0
 22 21  2  0
 23 20  1  0
 24 22  1  0
  7  8  1  0
  5  3  1  0
 24 23  2  0
 26 25  1  0
 27 25  2  0
 28 26  2  0
 29 26  1  0
 30 25  1  0
 31 35  1  0
 32 37  1  0
 33 31  1  0
 34 28  1  0
 35 29  2  0
 36 30  1  0
 37 36  1  0
 38 32  1  0
 39 32  1  0
 40 38  1  0
 41 39  1  0
 31 34  2  0
  1 42  1  0
  1 43  1  0
  3 44  1  6
  5 45  1  6
  6 46  1  1
  9 47  1  0
 15 48  1  0
 15 49  1  0
 16 50  1  0
 17 51  1  0
 17 52  1  0
 17 53  1  0
 18 54  1  0
 18 55  1  0
 18 56  1  0
 20 57  1  0
 21 58  1  0
 22 59  1  0
 23 60  1  0
 24 61  1  0
 28 62  1  0
 29 63  1  0
 33 64  1  0
 33 65  1  0
 34 66  1  0
 35 67  1  0
 36 68  1  0
 36 69  1  0
 37 70  1  0
 37 71  1  0
 38 72  1  0
 38 73  1  0
 39 74  1  0
 39 75  1  0
 40 76  1  0
 40 77  1  0
 40 78  1  0
 41 79  1  0
 41 80  1  0
 41 81  1  0
M  END
> <Uni-Dock RESULT> 
ENERGY=   -5.046  LOWER_BOUND=    5.598  UPPER_BOUND=    7.756
INTER + INTRA:          -5.046
INTER:                  -5.046
INTRA:                   0.000
UNBOUND:                 0.000

$$$$
