
     RDKit          3D

 81 82  0  0  0  0  0  0  0  0999 V2000
   47.1036    6.7057   12.0425 O   0  0  0  0  0  0  0  0  0  0  0  0
   45.4649    4.7844   13.0316 N   0  0  0  0  0  0  0  0  0  0  0  0
   45.7224    6.1868   12.6450 C   0  0  1  0  0  0  0  0  0  0  0  0
   46.7395    4.5869   13.4905 C   0  0  0  0  0  0  0  0  0  0  0  0
   47.0651    6.0955   13.4147 C   0  0  1  0  0  0  0  0  0  0  0  0
   44.9170    3.8861   12.0157 C   0  0  2  0  0  0  0  0  0  0  0  0
   45.7631    6.1110   10.8045 S   0  0  0  0  0  0  0  0  0  0  0  0
   44.5145    4.7366   10.7946 C   0  0  0  0  0  0  0  0  0  0  0  0
   48.3051    6.4650   12.6808 N   0  0  0  0  0  0  0  0  0  0  0  0
   43.7691    3.0755   12.6003 C   0  0  0  0  0  0  0  0  0  0  0  0
   48.5433    7.7767   12.3275 C   0  0  0  0  0  0  0  0  0  0  0  0
   47.3566    3.5692   13.7063 O   0  0  0  0  0  0  0  0  0  0  0  0
   43.0563    3.3763   13.5445 O   0  0  0  0  0  0  0  0  0  0  0  0
   47.7872    8.6864   12.6617 O   0  0  0  0  0  0  0  0  0  0  0  0
   49.7819    7.9915   11.4785 C   0  0  0  0  0  0  0  0  0  0  0  0
   43.5492    1.9272   11.9251 O   0  0  0  0  0  0  0  0  0  0  0  0
   44.6561    3.9581    9.4843 C   0  0  0  0  0  0  0  0  0  0  0  0
   43.1177    5.3658   10.8853 C   0  0  0  0  0  0  0  0  0  0  0  0
   50.8183    8.8522   12.1545 C   0  0  0  0  0  0  0  0  0  0  0  0
   51.8318    8.2746   12.9320 C   0  0  0  0  0  0  0  0  0  0  0  0
   50.7710   10.2482   12.0267 C   0  0  0  0  0  0  0  0  0  0  0  0
   51.7338   11.0490   12.6438 C   0  0  0  0  0  0  0  0  0  0  0  0
   52.7934    9.0777   13.5491 C   0  0  0  0  0  0  0  0  0  0  0  0
   52.7466   10.4638   13.4014 C   0  0  0  0  0  0  0  0  0  0  0  0
   48.2007    7.6307   12.9950 C   0  0  0  0  0  0  0  0  0  0  0  0
   49.6666    7.8882   13.0092 C   0  0  0  0  0  0  0  0  0  0  0  0
   47.5069    7.6263   13.9995 O   0  0  0  0  0  0  0  0  0  0  0  0
   50.2922    8.0933   14.2443 C   0  0  0  0  0  0  0  0  0  0  0  0
   50.4377    7.9113   11.8406 C   0  0  0  0  0  0  0  0  0  0  0  0
   47.7679    7.3981   11.7308 O   0  0  0  0  0  0  0  0  0  0  0  0
   52.4337    8.4085   13.1393 C   0  0  0  0  0  0  0  0  0  0  0  0
   44.6555    5.2627   11.6103 N   0  0  0  0  0  0  0  0  0  0  0  0
   53.8251    8.5200   13.2167 N   0  0  0  0  0  0  0  0  0  0  0  0
   51.6694    8.3305   14.3062 C   0  0  0  0  0  0  0  0  0  0  0  0
   51.8151    8.1496   11.9131 C   0  0  0  0  0  0  0  0  0  0  0  0
   46.3565    7.1392   11.5977 C   0  0  0  0  0  0  0  0  0  0  0  0
   46.0407    5.6732   11.9426 C   0  0  0  0  0  0  0  0  0  0  0  0
   43.7025    5.8579   12.5705 C   0  0  0  0  0  0  0  0  0  0  0  0
   44.5411    3.7889   11.6145 C   0  0  0  0  0  0  0  0  0  0  0  0
   42.2679    5.8470   12.0492 C   0  0  0  0  0  0  0  0  0  0  0  0
   45.1557    3.1505   10.3711 C   0  0  0  0  0  0  0  0  0  0  0  0
   48.0434    6.8355   12.2398 H   0  0  0  0  0  0  0  0  0  0  0  0
   46.9882    5.7444   12.0790 H   0  0  0  0  0  0  0  0  0  0  0  0
   44.9864    6.8799   13.0630 H   0  0  0  0  0  0  0  0  0  0  0  0
   47.0432    6.5643   14.4062 H   0  0  0  0  0  0  0  0  0  0  0  0
   45.7089    3.1735   11.7477 H   0  0  0  0  0  0  0  0  0  0  0  0
   48.9248    5.7354   12.3436 H   0  0  0  0  0  0  0  0  0  0  0  0
   50.2293    7.0321   11.1939 H   0  0  0  0  0  0  0  0  0  0  0  0
   49.4628    8.4569   10.5377 H   0  0  0  0  0  0  0  0  0  0  0  0
   42.8228    1.4865   12.4197 H   0  0  0  0  0  0  0  0  0  0  0  0
   44.4523    4.5918    8.6132 H   0  0  0  0  0  0  0  0  0  0  0  0
   43.9478    3.1216    9.4467 H   0  0  0  0  0  0  0  0  0  0  0  0
   45.6600    3.5338    9.3688 H   0  0  0  0  0  0  0  0  0  0  0  0
   42.3368    4.6000   10.8240 H   0  0  0  0  0  0  0  0  0  0  0  0
   42.9392    6.0629   10.0579 H   0  0  0  0  0  0  0  0  0  0  0  0
   42.9649    5.9107   11.8234 H   0  0  0  0  0  0  0  0  0  0  0  0
   51.8846    7.1958   13.0607 H   0  0  0  0  0  0  0  0  0  0  0  0
   49.9794   10.7218   11.4483 H   0  0  0  0  0  0  0  0  0  0  0  0
   51.6910   12.1305   12.5349 H   0  0  0  0  0  0  0  0  0  0  0  0
   53.5805    8.6224   14.1452 H   0  0  0  0  0  0  0  0  0  0  0  0
   53.4949   11.0897   13.8820 H   0  0  0  0  0  0  0  0  0  0  0  0
   49.7156    8.0537   15.1667 H   0  0  0  0  0  0  0  0  0  0  0  0
   49.9866    7.7322   10.8677 H   0  0  0  0  0  0  0  0  0  0  0  0
   54.2654    8.8668   12.3707 H   0  0  0  0  0  0  0  0  0  0  0  0
   54.1616    8.9903   14.0512 H   0  0  0  0  0  0  0  0  0  0  0  0
   52.1403    8.4509   15.2787 H   0  0  0  0  0  0  0  0  0  0  0  0
   52.4032    8.1299   10.9986 H   0  0  0  0  0  0  0  0  0  0  0  0
   46.1047    7.3386   10.5505 H   0  0  0  0  0  0  0  0  0  0  0  0
   45.7887    7.8520   12.2045 H   0  0  0  0  0  0  0  0  0  0  0  0
   46.2649    5.4699   12.9975 H   0  0  0  0  0  0  0  0  0  0  0  0
   46.7606    5.0721   11.3763 H   0  0  0  0  0  0  0  0  0  0  0  0
   43.9463    6.9101   12.7498 H   0  0  0  0  0  0  0  0  0  0  0  0
   43.7561    5.3574   13.5458 H   0  0  0  0  0  0  0  0  0  0  0  0
   44.9902    3.3594   12.5200 H   0  0  0  0  0  0  0  0  0  0  0  0
   43.4888    3.4864   11.6172 H   0  0  0  0  0  0  0  0  0  0  0  0
   41.8554    4.8370   11.9805 H   0  0  0  0  0  0  0  0  0  0  0  0
   42.2063    6.3166   11.0617 H   0  0  0  0  0  0  0  0  0  0  0  0
   41.6222    6.4150   12.7278 H   0  0  0  0  0  0  0  0  0  0  0  0
   44.7194    3.5720    9.4585 H   0  0  0  0  0  0  0  0  0  0  0  0
   46.2408    3.2778   10.3262 H   0  0  0  0  0  0  0  0  0  0  0  0
   44.9548    2.0730   10.3693 H   0  0  0  0  0  0  0  0  0  0  0  0
  3  2  1  0
  4  2  1  0
  5  4  1  0
  6  2  1  0
  3  7  1  0
  8  6  1  0
  5  9  1  0
  6 10  1  0
 11  9  1  0
 12  4  2  0
 13 10  2  0
 14 11  2  0
 15 11  1  0
 16 10  1  0
 17  8  1  0
 18  8  1  0
 19 15  1  0
 20 19  2  0
 21 19  1  0
 22 21  2  0
 23 20  1  0
 24 22  1  0
  7  8  1  0
  5  3  1  0
 24 23  2  0
 26 25  1  0
 27 25  2  0
 28 26  2  0
 29 26  1  0
 30 25  1  0
 31 35  1  0
 32 37  1  0
 33 31  1  0
 34 28  1  0
 35 29  2  0
 36 30  1  0
 37 36  1  0
 38 32  1  0
 39 32  1  0
 40 38  1  0
 41 39  1  0
 31 34  2  0
  1 42  1  0
  1 43  1  0
  3 44  1  1
  5 45  1  1
  6 46  1  6
  9 47  1  0
 15 48  1  0
 15 49  1  0
 16 50  1  0
 17 51  1  0
 17 52  1  0
 17 53  1  0
 18 54  1  0
 18 55  1  0
 18 56  1  0
 20 57  1  0
 21 58  1  0
 22 59  1  0
 23 60  1  0
 24 61  1  0
 28 62  1  0
 29 63  1  0
 33 64  1  0
 33 65  1  0
 34 66  1  0
 35 67  1  0
 36 68  1  0
 36 69  1  0
 37 70  1  0
 37 71  1  0
 38 72  1  0
 38 73  1  0
 39 74  1  0
 39 75  1  0
 40 76  1  0
 40 77  1  0
 40 78  1  0
 41 79  1  0
 41 80  1  0
 41 81  1  0
M  END
> <Uni-Dock RESULT> 
ENERGY=   -6.533  LOWER_BOUND=    0.000  UPPER_BOUND=    0.000
INTER + INTRA:          -6.533
INTER:                  -6.533
INTRA:                   0.000
UNBOUND:                 0.000

$$$$

     RDKit          3D

 81 82  0  0  0  0  0  0  0  0999 V2000
   48.1271    8.8023   13.1764 O   0  0  0  0  0  0  0  0  0  0  0  0
   49.4741    9.6494   15.3726 N   0  0  0  0  0  0  0  0  0  0  0  0
   49.4543    9.0456   14.0245 C   0  0  1  0  0  0  0  0  0  0  0  0
   48.3012    9.0528   15.7504 C   0  0  0  0  0  0  0  0  0  0  0  0
   48.2997    8.1319   14.5097 C   0  0  1  0  0  0  0  0  0  0  0  0
   49.6072   11.1027   15.4676 C   0  0  2  0  0  0  0  0  0  0  0  0
   49.0408   10.4726   12.9347 S   0  0  0  0  0  0  0  0  0  0  0  0
   49.9377   11.6439   14.0624 C   0  0  0  0  0  0  0  0  0  0  0  0
   47.0498    8.1162   13.7033 N   0  0  0  0  0  0  0  0  0  0  0  0
   50.6449   11.4641   16.5207 C   0  0  0  0  0  0  0  0  0  0  0  0
   47.0354    7.5460   12.4476 C   0  0  0  0  0  0  0  0  0  0  0  0
   47.5335    9.3100   16.6492 O   0  0  0  0  0  0  0  0  0  0  0  0
   51.5756   10.7763   16.9091 O   0  0  0  0  0  0  0  0  0  0  0  0
   48.0199    6.9754   11.9827 O   0  0  0  0  0  0  0  0  0  0  0  0
   45.7312    7.7087   11.6904 C   0  0  0  0  0  0  0  0  0  0  0  0
   50.4766   12.7122   17.0070 O   0  0  0  0  0  0  0  0  0  0  0  0
   49.3795   13.0527   13.8468 C   0  0  0  0  0  0  0  0  0  0  0  0
   51.4275   11.6057   13.6961 C   0  0  0  0  0  0  0  0  0  0  0  0
   45.0563    6.3951   11.3892 C   0  0  0  0  0  0  0  0  0  0  0  0
   44.1135    5.8550   12.2750 C   0  0  0  0  0  0  0  0  0  0  0  0
   45.3773    5.6862   10.2221 C   0  0  0  0  0  0  0  0  0  0  0  0
   44.7485    4.4734    9.9344 C   0  0  0  0  0  0  0  0  0  0  0  0
   43.4863    4.6411   11.9856 C   0  0  0  0  0  0  0  0  0  0  0  0
   43.8008    3.9530   10.8138 C   0  0  0  0  0  0  0  0  0  0  0  0
   47.4618    7.2241   12.9943 C   0  0  0  0  0  0  0  0  0  0  0  0
   46.1172    6.6428   12.7305 C   0  0  0  0  0  0  0  0  0  0  0  0
   48.3203    6.6644   13.6576 O   0  0  0  0  0  0  0  0  0  0  0  0
   45.8032    5.4078   13.3094 C   0  0  0  0  0  0  0  0  0  0  0  0
   45.1568    7.2939   11.9466 C   0  0  0  0  0  0  0  0  0  0  0  0
   47.5798    8.4420   12.4092 O   0  0  0  0  0  0  0  0  0  0  0  0
   43.6067    5.4472   12.2702 C   0  0  0  0  0  0  0  0  0  0  0  0
   50.0749   10.6769   14.1532 N   0  0  0  0  0  0  0  0  0  0  0  0
   42.3143    4.9250   12.1634 N   0  0  0  0  0  0  0  0  0  0  0  0
   44.5484    4.8278   13.0956 C   0  0  0  0  0  0  0  0  0  0  0  0
   43.9041    6.7050   11.7385 C   0  0  0  0  0  0  0  0  0  0  0  0
   48.8487    9.0986   12.5974 C   0  0  0  0  0  0  0  0  0  0  0  0
   48.9024    9.7880   13.9721 C   0  0  0  0  0  0  0  0  0  0  0  0
   51.3019    9.8731   14.3335 C   0  0  0  0  0  0  0  0  0  0  0  0
   49.8678   11.5713   15.3119 C   0  0  0  0  0  0  0  0  0  0  0  0
   52.5710   10.6848   14.0872 C   0  0  0  0  0  0  0  0  0  0  0  0
   48.9002   12.7119   15.0053 C   0  0  0  0  0  0  0  0  0  0  0  0
   47.2941    8.3078   13.1521 H   0  0  0  0  0  0  0  0  0  0  0  0
   48.0376    9.3718   13.9552 H   0  0  0  0  0  0  0  0  0  0  0  0
   50.3893    8.5329   13.7798 H   0  0  0  0  0  0  0  0  0  0  0  0
   48.6146    7.1120   14.7626 H   0  0  0  0  0  0  0  0  0  0  0  0
   48.6438   11.4974   15.8181 H   0  0  0  0  0  0  0  0  0  0  0  0
   46.2340    8.6225   14.0325 H   0  0  0  0  0  0  0  0  0  0  0  0
   45.0410    8.3593   12.2401 H   0  0  0  0  0  0  0  0  0  0  0  0
   45.9536    8.2396   10.7565 H   0  0  0  0  0  0  0  0  0  0  0  0
   51.1732   12.8040   17.6947 H   0  0  0  0  0  0  0  0  0  0  0  0
   49.5414   13.3991   12.8192 H   0  0  0  0  0  0  0  0  0  0  0  0
   49.8699   13.7748   14.5109 H   0  0  0  0  0  0  0  0  0  0  0  0
   48.3050   13.1020   14.0569 H   0  0  0  0  0  0  0  0  0  0  0  0
   51.9980   12.3249   14.2939 H   0  0  0  0  0  0  0  0  0  0  0  0
   51.5873   11.8745   12.6451 H   0  0  0  0  0  0  0  0  0  0  0  0
   51.8737   10.6190   13.8628 H   0  0  0  0  0  0  0  0  0  0  0  0
   43.8557    6.3755   13.1947 H   0  0  0  0  0  0  0  0  0  0  0  0
   46.1242    6.0730    9.5307 H   0  0  0  0  0  0  0  0  0  0  0  0
   45.0011    3.9335    9.0245 H   0  0  0  0  0  0  0  0  0  0  0  0
   42.7511    4.2315   12.6740 H   0  0  0  0  0  0  0  0  0  0  0  0
   43.3130    3.0076   10.5882 H   0  0  0  0  0  0  0  0  0  0  0  0
   46.5260    4.8973   13.9433 H   0  0  0  0  0  0  0  0  0  0  0  0
   45.3605    8.2649   11.5022 H   0  0  0  0  0  0  0  0  0  0  0  0
   41.8029    5.2363   11.3440 H   0  0  0  0  0  0  0  0  0  0  0  0
   42.2560    3.9206   12.2998 H   0  0  0  0  0  0  0  0  0  0  0  0
   44.3130    3.8856   13.5845 H   0  0  0  0  0  0  0  0  0  0  0  0
   43.1591    7.2410   11.1552 H   0  0  0  0  0  0  0  0  0  0  0  0
   48.9288    9.8470   11.8015 H   0  0  0  0  0  0  0  0  0  0  0  0
   49.6637    8.3833   12.4469 H   0  0  0  0  0  0  0  0  0  0  0  0
   48.8495    9.0440   14.7771 H   0  0  0  0  0  0  0  0  0  0  0  0
   47.9739   10.3636   14.0533 H   0  0  0  0  0  0  0  0  0  0  0  0
   51.3301    9.0500   13.6119 H   0  0  0  0  0  0  0  0  0  0  0  0
   51.3328    9.4126   15.3293 H   0  0  0  0  0  0  0  0  0  0  0  0
   49.5219   11.0088   16.1894 H   0  0  0  0  0  0  0  0  0  0  0  0
   50.8102   12.0478   15.6011 H   0  0  0  0  0  0  0  0  0  0  0  0
   52.7349   11.4475   14.8530 H   0  0  0  0  0  0  0  0  0  0  0  0
   52.5388   11.1749   13.1083 H   0  0  0  0  0  0  0  0  0  0  0  0
   53.4433   10.0223   14.0982 H   0  0  0  0  0  0  0  0  0  0  0  0
   49.2308   13.2807   14.1289 H   0  0  0  0  0  0  0  0  0  0  0  0
   47.8805   12.3607   14.8250 H   0  0  0  0  0  0  0  0  0  0  0  0
   48.8601   13.4030   15.8551 H   0  0  0  0  0  0  0  0  0  0  0  0
  3  2  1  0
  4  2  1  0
  5  4  1  0
  6  2  1  0
  3  7  1  0
  8  6  1  0
  5  9  1  0
  6 10  1  0
 11  9  1  0
 12  4  2  0
 13 10  2  0
 14 11  2  0
 15 11  1  0
 16 10  1  0
 17  8  1  0
 18  8  1  0
 19 15  1  0
 20 19  2  0
 21 19  1  0
 22 21  2  0
 23 20  1  0
 24 22  1  0
  7  8  1  0
  5  3  1  0
 24 23  2  0
 26 25  1  0
 27 25  2  0
 28 26  2  0
 29 26  1  0
 30 25  1  0
 31 35  1  0
 32 37  1  0
 33 31  1  0
 34 28  1  0
 35 29  2  0
 36 30  1  0
 37 36  1  0
 38 32  1  0
 39 32  1  0
 40 38  1  0
 41 39  1  0
 31 34  2  0
  1 42  1  0
  1 43  1  0
  3 44  1  1
  5 45  1  1
  6 46  1  6
  9 47  1  0
 15 48  1  0
 15 49  1  0
 16 50  1  0
 17 51  1  0
 17 52  1  0
 17 53  1  0
 18 54  1  0
 18 55  1  0
 18 56  1  0
 20 57  1  0
 21 58  1  0
 22 59  1  0
 23 60  1  0
 24 61  1  0
 28 62  1  0
 29 63  1  0
 33 64  1  0
 33 65  1  0
 34 66  1  0
 35 67  1  0
 36 68  1  0
 36 69  1  0
 37 70  1  0
 37 71  1  0
 38 72  1  0
 38 73  1  0
 39 74  1  0
 39 75  1  0
 40 76  1  0
 40 77  1  0
 40 78  1  0
 41 79  1  0
 41 80  1  0
 41 81  1  0
M  END
> <Uni-Dock RESULT> 
ENERGY=   -5.778  LOWER_BOUND=    2.629  UPPER_BOUND=    7.916
INTER + INTRA:          -5.778
INTER:                  -5.778
INTRA:                   0.000
UNBOUND:                 0.000

$$$$

     RDKit          3D

 81 82  0  0  0  0  0  0  0  0999 V2000
   48.4364    7.6301   13.6267 O   0  0  0  0  0  0  0  0  0  0  0  0
   50.7060    8.9030   12.8625 N   0  0  0  0  0  0  0  0  0  0  0  0
   49.3475    8.9247   13.4426 C   0  0  1  0  0  0  0  0  0  0  0  0
   50.3960    7.9251   11.9559 C   0  0  0  0  0  0  0  0  0  0  0  0
   48.8845    8.0438   12.2538 C   0  0  1  0  0  0  0  0  0  0  0  0
   51.8339    8.7105   13.7734 C   0  0  2  0  0  0  0  0  0  0  0  0
   49.5826    8.1231   15.0849 S   0  0  0  0  0  0  0  0  0  0  0  0
   51.3029    8.8097   15.2173 C   0  0  0  0  0  0  0  0  0  0  0  0
   48.1750    6.7759   12.5727 N   0  0  0  0  0  0  0  0  0  0  0  0
   52.9361    9.7117   13.4582 C   0  0  0  0  0  0  0  0  0  0  0  0
   46.9045    6.8018   13.1087 C   0  0  0  0  0  0  0  0  0  0  0  0
   51.1049    7.1849   11.3135 O   0  0  0  0  0  0  0  0  0  0  0  0
   52.8154   10.7989   12.9163 O   0  0  0  0  0  0  0  0  0  0  0  0
   46.2916    7.8542   13.2749 O   0  0  0  0  0  0  0  0  0  0  0  0
   46.3508    5.4442   13.4976 C   0  0  0  0  0  0  0  0  0  0  0  0
   54.1480    9.3006   13.8881 O   0  0  0  0  0  0  0  0  0  0  0  0
   52.1050    7.9337   16.1826 C   0  0  0  0  0  0  0  0  0  0  0  0
   51.2005   10.2398   15.7647 C   0  0  0  0  0  0  0  0  0  0  0  0
   45.1188    5.0641   12.7168 C   0  0  0  0  0  0  0  0  0  0  0  0
   45.2237    4.3330   11.5253 C   0  0  0  0  0  0  0  0  0  0  0  0
   43.8484    5.4533   13.1664 C   0  0  0  0  0  0  0  0  0  0  0  0
   42.7038    5.0962   12.4514 C   0  0  0  0  0  0  0  0  0  0  0  0
   44.0773    3.9775   10.8112 C   0  0  0  0  0  0  0  0  0  0  0  0
   42.8180    4.3555   11.2764 C   0  0  0  0  0  0  0  0  0  0  0  0
   47.0962    7.3275   12.5879 C   0  0  0  0  0  0  0  0  0  0  0  0
   46.3387    6.1339   12.1224 C   0  0  0  0  0  0  0  0  0  0  0  0
   47.2471    8.3351   11.9155 O   0  0  0  0  0  0  0  0  0  0  0  0
   45.8072    6.1490   10.8277 C   0  0  0  0  0  0  0  0  0  0  0  0
   46.1592    4.9981   12.9215 C   0  0  0  0  0  0  0  0  0  0  0  0
   47.5882    7.1254   13.8357 O   0  0  0  0  0  0  0  0  0  0  0  0
   44.8669    3.9324   11.1573 C   0  0  0  0  0  0  0  0  0  0  0  0
   50.6841    9.1680   14.5457 N   0  0  0  0  0  0  0  0  0  0  0  0
   44.2653    2.7872   10.6271 N   0  0  0  0  0  0  0  0  0  0  0  0
   45.0953    5.0459   10.3451 C   0  0  0  0  0  0  0  0  0  0  0  0
   45.4451    3.8994   12.4293 C   0  0  0  0  0  0  0  0  0  0  0  0
   48.3394    8.2232   14.3900 C   0  0  0  0  0  0  0  0  0  0  0  0
   49.7817    8.2170   13.8538 C   0  0  0  0  0  0  0  0  0  0  0  0
   50.3725   10.5546   14.1400 C   0  0  0  0  0  0  0  0  0  0  0  0
   52.0959    8.8468   14.2473 C   0  0  0  0  0  0  0  0  0  0  0  0
   50.9388   11.5866   15.1118 C   0  0  0  0  0  0  0  0  0  0  0  0
   52.5945    7.6272   15.0188 C   0  0  0  0  0  0  0  0  0  0  0  0
   47.9653    6.9308   13.1491 H   0  0  0  0  0  0  0  0  0  0  0  0
   49.3683    7.4696   13.4155 H   0  0  0  0  0  0  0  0  0  0  0  0
   48.9210    9.9316   13.4765 H   0  0  0  0  0  0  0  0  0  0  0  0
   48.3594    8.5982   11.4662 H   0  0  0  0  0  0  0  0  0  0  0  0
   52.2443    7.7102   13.5793 H   0  0  0  0  0  0  0  0  0  0  0  0
   48.6686    5.8922   12.4976 H   0  0  0  0  0  0  0  0  0  0  0  0
   47.1139    4.6656   13.3826 H   0  0  0  0  0  0  0  0  0  0  0  0
   46.1215    5.4741   14.5700 H   0  0  0  0  0  0  0  0  0  0  0  0
   54.7660   10.0054   13.5916 H   0  0  0  0  0  0  0  0  0  0  0  0
   51.6717    7.9399   17.1897 H   0  0  0  0  0  0  0  0  0  0  0  0
   53.1369    8.2940   16.2740 H   0  0  0  0  0  0  0  0  0  0  0  0
   52.1575    6.8935   15.8414 H   0  0  0  0  0  0  0  0  0  0  0  0
   52.1945   10.6739   15.9188 H   0  0  0  0  0  0  0  0  0  0  0  0
   50.6950   10.2598   16.7374 H   0  0  0  0  0  0  0  0  0  0  0  0
   50.6559   10.9082   15.0885 H   0  0  0  0  0  0  0  0  0  0  0  0
   46.1968    4.0301   11.1450 H   0  0  0  0  0  0  0  0  0  0  0  0
   43.7428    6.0426   14.0759 H   0  0  0  0  0  0  0  0  0  0  0  0
   41.7228    5.3991   12.8108 H   0  0  0  0  0  0  0  0  0  0  0  0
   44.1658    3.4046    9.8913 H   0  0  0  0  0  0  0  0  0  0  0  0
   41.9250    4.0792   10.7206 H   0  0  0  0  0  0  0  0  0  0  0  0
   45.9576    7.0116   10.1809 H   0  0  0  0  0  0  0  0  0  0  0  0
   46.5794    4.9450   13.9227 H   0  0  0  0  0  0  0  0  0  0  0  0
   43.8696    2.1619   11.3216 H   0  0  0  0  0  0  0  0  0  0  0  0
   43.6278    2.9673    9.8577 H   0  0  0  0  0  0  0  0  0  0  0  0
   44.7226    5.0648    9.3238 H   0  0  0  0  0  0  0  0  0  0  0  0
   45.3451    3.0131   13.0514 H   0  0  0  0  0  0  0  0  0  0  0  0
   48.3443    8.0754   15.4754 H   0  0  0  0  0  0  0  0  0  0  0  0
   47.8170    9.1660   14.1981 H   0  0  0  0  0  0  0  0  0  0  0  0
   49.7893    8.3908   12.7702 H   0  0  0  0  0  0  0  0  0  0  0  0
   50.1426    7.1905   13.9812 H   0  0  0  0  0  0  0  0  0  0  0  0
   49.2897   10.7168   14.1308 H   0  0  0  0  0  0  0  0  0  0  0  0
   50.7247   10.7592   13.1209 H   0  0  0  0  0  0  0  0  0  0  0  0
   52.2493    8.7001   13.1698 H   0  0  0  0  0  0  0  0  0  0  0  0
   52.7480    9.6752   14.5430 H   0  0  0  0  0  0  0  0  0  0  0  0
   52.0310   11.6277   15.0888 H   0  0  0  0  0  0  0  0  0  0  0  0
   50.6194   11.3751   16.1378 H   0  0  0  0  0  0  0  0  0  0  0  0
   50.5716   12.5846   14.8488 H   0  0  0  0  0  0  0  0  0  0  0  0
   52.4446    7.7577   16.0964 H   0  0  0  0  0  0  0  0  0  0  0  0
   52.0981    6.7031   14.7101 H   0  0  0  0  0  0  0  0  0  0  0  0
   53.6683    7.4923   14.8458 H   0  0  0  0  0  0  0  0  0  0  0  0
  3  2  1  0
  4  2  1  0
  5  4  1  0
  6  2  1  0
  3  7  1  0
  8  6  1  0
  5  9  1  0
  6 10  1  0
 11  9  1  0
 12  4  2  0
 13 10  2  0
 14 11  2  0
 15 11  1  0
 16 10  1  0
 17  8  1  0
 18  8  1  0
 19 15  1  0
 20 19  2  0
 21 19  1  0
 22 21  2  0
 23 20  1  0
 24 22  1  0
  7  8  1  0
  5  3  1  0
 24 23  2  0
 26 25  1  0
 27 25  2  0
 28 26  2  0
 29 26  1  0
 30 25  1  0
 31 35  1  0
 32 37  1  0
 33 31  1  0
 34 28  1  0
 35 29  2  0
 36 30  1  0
 37 36  1  0
 38 32  1  0
 39 32  1  0
 40 38  1  0
 41 39  1  0
 31 34  2  0
  1 42  1  0
  1 43  1  0
  3 44  1  1
  5 45  1  1
  6 46  1  6
  9 47  1  0
 15 48  1  0
 15 49  1  0
 16 50  1  0
 17 51  1  0
 17 52  1  0
 17 53  1  0
 18 54  1  0
 18 55  1  0
 18 56  1  0
 20 57  1  0
 21 58  1  0
 22 59  1  0
 23 60  1  0
 24 61  1  0
 28 62  1  0
 29 63  1  0
 33 64  1  0
 33 65  1  0
 34 66  1  0
 35 67  1  0
 36 68  1  0
 36 69  1  0
 37 70  1  0
 37 71  1  0
 38 72  1  0
 38 73  1  0
 39 74  1  0
 39 75  1  0
 40 76  1  0
 40 77  1  0
 40 78  1  0
 41 79  1  0
 41 80  1  0
 41 81  1  0
M  END
> <Uni-Dock RESULT> 
ENERGY=   -5.458  LOWER_BOUND=    2.191  UPPER_BOUND=    7.792
INTER + INTRA:          -5.458
INTER:                  -5.458
INTRA:                   0.000
UNBOUND:                 0.000

$$$$

     RDKit          3D

 81 82  0  0  0  0  0  0  0  0999 V2000
   48.3294    9.4653   16.0998 O   0  0  0  0  0  0  0  0  0  0  0  0
   49.3823   10.4450   13.8005 N   0  0  0  0  0  0  0  0  0  0  0  0
   49.2442    9.3647   14.7986 C   0  0  1  0  0  0  0  0  0  0  0  0
   49.3184   11.4383   14.7405 C   0  0  0  0  0  0  0  0  0  0  0  0
   49.4636   10.4306   15.9028 C   0  0  1  0  0  0  0  0  0  0  0  0
   48.4493   10.4569   12.6743 C   0  0  2  0  0  0  0  0  0  0  0  0
   47.5331    8.7458   14.5089 S   0  0  0  0  0  0  0  0  0  0  0  0
   47.6574    9.1344   12.6973 C   0  0  0  0  0  0  0  0  0  0  0  0
   48.4453   10.5212   16.9833 N   0  0  0  0  0  0  0  0  0  0  0  0
   49.2038   10.6942   11.3739 C   0  0  0  0  0  0  0  0  0  0  0  0
   48.3245    9.5125   17.9161 C   0  0  0  0  0  0  0  0  0  0  0  0
   49.0819   12.6196   14.6320 O   0  0  0  0  0  0  0  0  0  0  0  0
   50.3773   10.4490   11.1440 O   0  0  0  0  0  0  0  0  0  0  0  0
   49.0879    8.5492   17.9327 O   0  0  0  0  0  0  0  0  0  0  0  0
   47.1681    9.6767   18.8839 C   0  0  0  0  0  0  0  0  0  0  0  0
   48.4144   11.1979   10.4014 O   0  0  0  0  0  0  0  0  0  0  0  0
   46.2434    9.3052   12.1366 C   0  0  0  0  0  0  0  0  0  0  0  0
   48.3589    7.9564   12.0079 C   0  0  0  0  0  0  0  0  0  0  0  0
   47.6139    9.8209   20.3165 C   0  0  0  0  0  0  0  0  0  0  0  0
   47.8488   11.0877   20.8690 C   0  0  0  0  0  0  0  0  0  0  0  0
   47.8160    8.6836   21.1123 C   0  0  0  0  0  0  0  0  0  0  0  0
   48.2205    8.8124   22.4423 C   0  0  0  0  0  0  0  0  0  0  0  0
   48.2542   11.2142   22.1995 C   0  0  0  0  0  0  0  0  0  0  0  0
   48.4358   10.0771   22.9866 C   0  0  0  0  0  0  0  0  0  0  0  0
   49.0208    9.6972   17.6603 C   0  0  0  0  0  0  0  0  0  0  0  0
   48.5832   10.2754   18.9601 C   0  0  0  0  0  0  0  0  0  0  0  0
   50.1766    9.7175   17.2679 O   0  0  0  0  0  0  0  0  0  0  0  0
   49.5395   10.9157   19.7567 C   0  0  0  0  0  0  0  0  0  0  0  0
   47.2549   10.2192   19.3994 C   0  0  0  0  0  0  0  0  0  0  0  0
   47.9655    9.1679   16.9925 O   0  0  0  0  0  0  0  0  0  0  0  0
   47.8593   11.3801   21.4500 C   0  0  0  0  0  0  0  0  0  0  0  0
   48.4676    9.1168   13.2500 N   0  0  0  0  0  0  0  0  0  0  0  0
   47.4736   12.0544   22.6123 N   0  0  0  0  0  0  0  0  0  0  0  0
   49.1718   11.4810   20.9822 C   0  0  0  0  0  0  0  0  0  0  0  0
   46.8971   10.7878   20.6274 C   0  0  0  0  0  0  0  0  0  0  0  0
   48.2752    8.5743   15.7164 C   0  0  0  0  0  0  0  0  0  0  0  0
   48.3816    9.6567   14.6279 C   0  0  0  0  0  0  0  0  0  0  0  0
   49.8024    8.5273   13.0151 C   0  0  0  0  0  0  0  0  0  0  0  0
   48.1916   10.1817   12.2625 C   0  0  0  0  0  0  0  0  0  0  0  0
   49.8194    7.5852   11.8142 C   0  0  0  0  0  0  0  0  0  0  0  0
   46.7057   10.5191   12.1653 C   0  0  0  0  0  0  0  0  0  0  0  0
   48.2132    9.9343   16.9398 H   0  0  0  0  0  0  0  0  0  0  0  0
   48.1944   10.1513   15.4290 H   0  0  0  0  0  0  0  0  0  0  0  0
   50.0301    8.6088   14.7112 H   0  0  0  0  0  0  0  0  0  0  0  0
   50.4781   10.4378   16.3200 H   0  0  0  0  0  0  0  0  0  0  0  0
   47.7767   11.3139   12.8156 H   0  0  0  0  0  0  0  0  0  0  0  0
   47.7653   11.2746   16.9700 H   0  0  0  0  0  0  0  0  0  0  0  0
   46.5459   10.5348   18.6042 H   0  0  0  0  0  0  0  0  0  0  0  0
   46.5201    8.7977   18.7789 H   0  0  0  0  0  0  0  0  0  0  0  0
   49.0215   11.3402    9.6412 H   0  0  0  0  0  0  0  0  0  0  0  0
   45.6556    8.3849   12.2344 H   0  0  0  0  0  0  0  0  0  0  0  0
   46.2724    9.5568   11.0695 H   0  0  0  0  0  0  0  0  0  0  0  0
   45.6993   10.1115   12.6417 H   0  0  0  0  0  0  0  0  0  0  0  0
   48.4067    8.1071   10.9238 H   0  0  0  0  0  0  0  0  0  0  0  0
   47.8161    7.0177   12.1705 H   0  0  0  0  0  0  0  0  0  0  0  0
   49.3864    7.8167   12.3617 H   0  0  0  0  0  0  0  0  0  0  0  0
   47.7143   11.9864   20.2712 H   0  0  0  0  0  0  0  0  0  0  0  0
   47.6638    7.6879   20.6987 H   0  0  0  0  0  0  0  0  0  0  0  0
   48.3701    7.9244   23.0525 H   0  0  0  0  0  0  0  0  0  0  0  0
   48.4281   12.2002   22.6234 H   0  0  0  0  0  0  0  0  0  0  0  0
   48.7518   10.1750   24.0226 H   0  0  0  0  0  0  0  0  0  0  0  0
   50.5724   10.9932   19.4218 H   0  0  0  0  0  0  0  0  0  0  0  0
   46.4835    9.7501   18.7938 H   0  0  0  0  0  0  0  0  0  0  0  0
   46.6242   11.7003   23.0400 H   0  0  0  0  0  0  0  0  0  0  0  0
   48.2213   12.1891   23.2859 H   0  0  0  0  0  0  0  0  0  0  0  0
   49.9233   12.0051   21.5676 H   0  0  0  0  0  0  0  0  0  0  0  0
   45.8547   10.7645   20.9363 H   0  0  0  0  0  0  0  0  0  0  0  0
   47.4491    7.8930   15.4856 H   0  0  0  0  0  0  0  0  0  0  0  0
   49.1797    7.9632   15.8001 H   0  0  0  0  0  0  0  0  0  0  0  0
   49.2234   10.3293   14.8361 H   0  0  0  0  0  0  0  0  0  0  0  0
   47.4857   10.2778   14.7367 H   0  0  0  0  0  0  0  0  0  0  0  0
   50.1099    7.9212   13.8736 H   0  0  0  0  0  0  0  0  0  0  0  0
   50.5660    9.3068   12.8973 H   0  0  0  0  0  0  0  0  0  0  0  0
   48.7704   11.0880   12.4853 H   0  0  0  0  0  0  0  0  0  0  0  0
   48.4920    9.8612   11.2595 H   0  0  0  0  0  0  0  0  0  0  0  0
   49.6804    8.1125   10.8668 H   0  0  0  0  0  0  0  0  0  0  0  0
   49.0407    6.8205   11.9052 H   0  0  0  0  0  0  0  0  0  0  0  0
   50.7851    7.0708   11.7598 H   0  0  0  0  0  0  0  0  0  0  0  0
   46.1143    9.6229   11.9465 H   0  0  0  0  0  0  0  0  0  0  0  0
   46.3176   10.9744   13.0806 H   0  0  0  0  0  0  0  0  0  0  0  0
   46.5401   11.2342   11.3514 H   0  0  0  0  0  0  0  0  0  0  0  0
  3  2  1  0
  4  2  1  0
  5  4  1  0
  6  2  1  0
  3  7  1  0
  8  6  1  0
  5  9  1  0
  6 10  1  0
 11  9  1  0
 12  4  2  0
 13 10  2  0
 14 11  2  0
 15 11  1  0
 16 10  1  0
 17  8  1  0
 18  8  1  0
 19 15  1  0
 20 19  2  0
 21 19  1  0
 22 21  2  0
 23 20  1  0
 24 22  1  0
  7  8  1  0
  5  3  1  0
 24 23  2  0
 26 25  1  0
 27 25  2  0
 28 26  2  0
 29 26  1  0
 30 25  1  0
 31 35  1  0
 32 37  1  0
 33 31  1  0
 34 28  1  0
 35 29  2  0
 36 30  1  0
 37 36  1  0
 38 32  1  0
 39 32  1  0
 40 38  1  0
 41 39  1  0
 31 34  2  0
  1 42  1  0
  1 43  1  0
  3 44  1  1
  5 45  1  1
  6 46  1  6
  9 47  1  0
 15 48  1  0
 15 49  1  0
 16 50  1  0
 17 51  1  0
 17 52  1  0
 17 53  1  0
 18 54  1  0
 18 55  1  0
 18 56  1  0
 20 57  1  0
 21 58  1  0
 22 59  1  0
 23 60  1  0
 24 61  1  0
 28 62  1  0
 29 63  1  0
 33 64  1  0
 33 65  1  0
 34 66  1  0
 35 67  1  0
 36 68  1  0
 36 69  1  0
 37 70  1  0
 37 71  1  0
 38 72  1  0
 38 73  1  0
 39 74  1  0
 39 75  1  0
 40 76  1  0
 40 77  1  0
 40 78  1  0
 41 79  1  0
 41 80  1  0
 41 81  1  0
M  END
> <Uni-Dock RESULT> 
ENERGY=   -5.198  LOWER_BOUND=    5.290  UPPER_BOUND=    7.743
INTER + INTRA:          -5.198
INTER:                  -5.198
INTRA:                   0.000
UNBOUND:                 0.000

$$$$

     RDKit          3D

 81 82  0  0  0  0  0  0  0  0999 V2000
   46.0980    9.9314   11.6275 O   0  0  0  0  0  0  0  0  0  0  0  0
   45.3746   12.4301   10.8604 N   0  0  0  0  0  0  0  0  0  0  0  0
   45.7718   11.4661   11.9070 C   0  0  1  0  0  0  0  0  0  0  0  0
   44.6490   11.5031   10.1616 C   0  0  0  0  0  0  0  0  0  0  0  0
   44.7341   10.4782   11.3148 C   0  0  1  0  0  0  0  0  0  0  0  0
   46.4341   13.1766   10.1827 C   0  0  2  0  0  0  0  0  0  0  0  0
   47.5564   11.1765   11.5514 S   0  0  0  0  0  0  0  0  0  0  0  0
   47.7555   12.9160   10.9327 C   0  0  0  0  0  0  0  0  0  0  0  0
   45.2102    9.1166   10.9514 N   0  0  0  0  0  0  0  0  0  0  0  0
   46.0613   14.6498   10.0964 C   0  0  0  0  0  0  0  0  0  0  0  0
   45.5743    8.2186   11.9328 C   0  0  0  0  0  0  0  0  0  0  0  0
   44.2555   11.5013    9.0178 O   0  0  0  0  0  0  0  0  0  0  0  0
   45.3046   15.2658   10.8299 O   0  0  0  0  0  0  0  0  0  0  0  0
   45.4543    8.4794   13.1280 O   0  0  0  0  0  0  0  0  0  0  0  0
   46.1549    6.9152   11.4181 C   0  0  0  0  0  0  0  0  0  0  0  0
   46.7062   15.2897    9.0978 O   0  0  0  0  0  0  0  0  0  0  0  0
   48.9641   12.9651    9.9948 C   0  0  0  0  0  0  0  0  0  0  0  0
   47.9928   13.8253   12.1460 C   0  0  0  0  0  0  0  0  0  0  0  0
   45.3229    5.7132   11.7854 C   0  0  0  0  0  0  0  0  0  0  0  0
   44.3210    5.2458   10.9235 C   0  0  0  0  0  0  0  0  0  0  0  0
   45.5310    5.0553   13.0066 C   0  0  0  0  0  0  0  0  0  0  0  0
   44.7689    3.9363   13.3473 C   0  0  0  0  0  0  0  0  0  0  0  0
   43.5592    4.1267   11.2667 C   0  0  0  0  0  0  0  0  0  0  0  0
   43.7861    3.4700   12.4761 C   0  0  0  0  0  0  0  0  0  0  0  0
   44.9866    8.6897   12.0632 C   0  0  0  0  0  0  0  0  0  0  0  0
   44.6791    7.3068   11.6068 C   0  0  0  0  0  0  0  0  0  0  0  0
   44.1511    9.4473   12.5304 O   0  0  0  0  0  0  0  0  0  0  0  0
   43.3528    6.8650   11.6758 C   0  0  0  0  0  0  0  0  0  0  0  0
   45.6597    6.4478   11.0957 C   0  0  0  0  0  0  0  0  0  0  0  0
   46.2994    8.9746   11.8762 O   0  0  0  0  0  0  0  0  0  0  0  0
   43.9995    4.6962   10.7902 C   0  0  0  0  0  0  0  0  0  0  0  0
   46.9571   12.6683   11.4459 N   0  0  0  0  0  0  0  0  0  0  0  0
   43.6382    3.4582   10.2504 N   0  0  0  0  0  0  0  0  0  0  0  0
   43.0163    5.5758   11.2499 C   0  0  0  0  0  0  0  0  0  0  0  0
   45.3127    5.1595   10.6723 C   0  0  0  0  0  0  0  0  0  0  0  0
   46.7116   10.2925   12.2885 C   0  0  0  0  0  0  0  0  0  0  0  0
   46.3639   11.3309   11.2073 C   0  0  0  0  0  0  0  0  0  0  0  0
   46.2507   13.3504   12.5505 C   0  0  0  0  0  0  0  0  0  0  0  0
   46.8995   13.4834   10.2140 C   0  0  0  0  0  0  0  0  0  0  0  0
   47.0598   14.5063   13.1330 C   0  0  0  0  0  0  0  0  0  0  0  0
   47.9512   13.0684    9.1879 C   0  0  0  0  0  0  0  0  0  0  0  0
   45.7152    9.0917   11.3317 H   0  0  0  0  0  0  0  0  0  0  0  0
   46.0359   10.5034   10.8479 H   0  0  0  0  0  0  0  0  0  0  0  0
   45.5545   11.8282   12.9162 H   0  0  0  0  0  0  0  0  0  0  0  0
   43.7953   10.4263   11.8799 H   0  0  0  0  0  0  0  0  0  0  0  0
   46.4923   12.7997    9.1525 H   0  0  0  0  0  0  0  0  0  0  0  0
   45.3712    8.8850    9.9764 H   0  0  0  0  0  0  0  0  0  0  0  0
   46.2886    6.9517   10.3307 H   0  0  0  0  0  0  0  0  0  0  0  0
   47.1648    6.8144   11.8346 H   0  0  0  0  0  0  0  0  0  0  0  0
   46.3524   16.2066    9.1246 H   0  0  0  0  0  0  0  0  0  0  0  0
   49.8908   12.6944   10.5146 H   0  0  0  0  0  0  0  0  0  0  0  0
   49.1054   13.9744    9.5896 H   0  0  0  0  0  0  0  0  0  0  0  0
   48.8442   12.2900    9.1398 H   0  0  0  0  0  0  0  0  0  0  0  0
   48.1760   14.8590   11.8328 H   0  0  0  0  0  0  0  0  0  0  0  0
   48.8746   13.5090   12.7157 H   0  0  0  0  0  0  0  0  0  0  0  0
   47.1375   13.8405   12.8306 H   0  0  0  0  0  0  0  0  0  0  0  0
   44.1276    5.7449    9.9765 H   0  0  0  0  0  0  0  0  0  0  0  0
   46.2866    5.4141   13.7037 H   0  0  0  0  0  0  0  0  0  0  0  0
   44.9410    3.4304   14.2947 H   0  0  0  0  0  0  0  0  0  0  0  0
   42.7882    3.7657   10.5903 H   0  0  0  0  0  0  0  0  0  0  0  0
   43.1929    2.5988   12.7440 H   0  0  0  0  0  0  0  0  0  0  0  0
   42.5710    7.5260   12.0456 H   0  0  0  0  0  0  0  0  0  0  0  0
   46.6947    6.7684   11.0067 H   0  0  0  0  0  0  0  0  0  0  0  0
   44.3901    2.7773   10.2234 H   0  0  0  0  0  0  0  0  0  0  0  0
   42.7776    3.0726   10.6266 H   0  0  0  0  0  0  0  0  0  0  0  0
   41.9743    5.2664   11.2785 H   0  0  0  0  0  0  0  0  0  0  0  0
   46.0814    4.5187   10.2466 H   0  0  0  0  0  0  0  0  0  0  0  0
   47.7973   10.2463   12.4258 H   0  0  0  0  0  0  0  0  0  0  0  0
   46.2757   10.5304   13.2642 H   0  0  0  0  0  0  0  0  0  0  0  0
   45.2763   11.4039   11.0806 H   0  0  0  0  0  0  0  0  0  0  0  0
   46.7343   10.9144   10.2642 H   0  0  0  0  0  0  0  0  0  0  0  0
   46.0799   12.6579   13.3813 H   0  0  0  0  0  0  0  0  0  0  0  0
   45.2609   13.7019   12.2323 H   0  0  0  0  0  0  0  0  0  0  0  0
   45.8986   13.4495    9.7632 H   0  0  0  0  0  0  0  0  0  0  0  0
   47.1015   14.5354   10.4409 H   0  0  0  0  0  0  0  0  0  0  0  0
   47.1602   15.3407   12.4340 H   0  0  0  0  0  0  0  0  0  0  0  0
   48.0615   14.1747   13.4262 H   0  0  0  0  0  0  0  0  0  0  0  0
   46.5624   14.8928   14.0293 H   0  0  0  0  0  0  0  0  0  0  0  0
   48.9558   13.0941    9.6247 H   0  0  0  0  0  0  0  0  0  0  0  0
   47.7742   12.0668    8.7865 H   0  0  0  0  0  0  0  0  0  0  0  0
   47.9383   13.7644    8.3412 H   0  0  0  0  0  0  0  0  0  0  0  0
  3  2  1  0
  4  2  1  0
  5  4  1  0
  6  2  1  0
  3  7  1  0
  8  6  1  0
  5  9  1  0
  6 10  1  0
 11  9  1  0
 12  4  2  0
 13 10  2  0
 14 11  2  0
 15 11  1  0
 16 10  1  0
 17  8  1  0
 18  8  1  0
 19 15  1  0
 20 19  2  0
 21 19  1  0
 22 21  2  0
 23 20  1  0
 24 22  1  0
  7  8  1  0
  5  3  1  0
 24 23  2  0
 26 25  1  0
 27 25  2  0
 28 26  2  0
 29 26  1  0
 30 25  1  0
 31 35  1  0
 32 37  1  0
 33 31  1  0
 34 28  1  0
 35 29  2  0
 36 30  1  0
 37 36  1  0
 38 32  1  0
 39 32  1  0
 40 38  1  0
 41 39  1  0
 31 34  2  0
  1 42  1  0
  1 43  1  0
  3 44  1  1
  5 45  1  1
  6 46  1  6
  9 47  1  0
 15 48  1  0
 15 49  1  0
 16 50  1  0
 17 51  1  0
 17 52  1  0
 17 53  1  0
 18 54  1  0
 18 55  1  0
 18 56  1  0
 20 57  1  0
 21 58  1  0
 22 59  1  0
 23 60  1  0
 24 61  1  0
 28 62  1  0
 29 63  1  0
 33 64  1  0
 33 65  1  0
 34 66  1  0
 35 67  1  0
 36 68  1  0
 36 69  1  0
 37 70  1  0
 37 71  1  0
 38 72  1  0
 38 73  1  0
 39 74  1  0
 39 75  1  0
 40 76  1  0
 40 77  1  0
 40 78  1  0
 41 79  1  0
 41 80  1  0
 41 81  1  0
M  END
> <Uni-Dock RESULT> 
ENERGY=   -5.194  LOWER_BOUND=    4.015  UPPER_BOUND=    8.160
INTER + INTRA:          -5.194
INTER:                  -5.194
INTRA:                   0.000
UNBOUND:                 0.000

$$$$

     RDKit          3D

 81 82  0  0  0  0  0  0  0  0999 V2000
   46.0989    9.9310   11.6278 O   0  0  0  0  0  0  0  0  0  0  0  0
   45.3759   12.4299   10.8610 N   0  0  0  0  0  0  0  0  0  0  0  0
   45.7731   11.4658   11.9075 C   0  0  1  0  0  0  0  0  0  0  0  0
   44.6501   11.5030   10.1622 C   0  0  0  0  0  0  0  0  0  0  0  0
   44.7351   10.4781   11.3153 C   0  0  1  0  0  0  0  0  0  0  0  0
   46.4354   13.1763   10.1832 C   0  0  2  0  0  0  0  0  0  0  0  0
   47.5575   11.1759   11.5517 S   0  0  0  0  0  0  0  0  0  0  0  0
   47.7569   12.9154   10.9331 C   0  0  0  0  0  0  0  0  0  0  0  0
   45.2109    9.1164   10.9518 N   0  0  0  0  0  0  0  0  0  0  0  0
   46.0629   14.6495   10.0971 C   0  0  0  0  0  0  0  0  0  0  0  0
   45.5750    8.2183   11.9331 C   0  0  0  0  0  0  0  0  0  0  0  0
   44.2564   11.5014    9.0184 O   0  0  0  0  0  0  0  0  0  0  0  0
   45.3064   15.2656   10.8307 O   0  0  0  0  0  0  0  0  0  0  0  0
   45.4551    8.4790   13.1283 O   0  0  0  0  0  0  0  0  0  0  0  0
   46.1553    6.9148   11.4182 C   0  0  0  0  0  0  0  0  0  0  0  0
   46.7079   15.2894    9.0985 O   0  0  0  0  0  0  0  0  0  0  0  0
   48.9655   12.9643    9.9952 C   0  0  0  0  0  0  0  0  0  0  0  0
   47.9944   13.8245   12.1465 C   0  0  0  0  0  0  0  0  0  0  0  0
   45.3231    5.7129   11.7854 C   0  0  0  0  0  0  0  0  0  0  0  0
   44.3210    5.2457   10.9236 C   0  0  0  0  0  0  0  0  0  0  0  0
   45.5312    5.0549   13.0066 C   0  0  0  0  0  0  0  0  0  0  0  0
   44.7689    3.9360   13.3472 C   0  0  0  0  0  0  0  0  0  0  0  0
   43.5590    4.1268   11.2668 C   0  0  0  0  0  0  0  0  0  0  0  0
   43.7860    3.4700   12.4761 C   0  0  0  0  0  0  0  0  0  0  0  0
   44.9874    8.6895   12.0636 C   0  0  0  0  0  0  0  0  0  0  0  0
   44.6796    7.3067   11.6070 C   0  0  0  0  0  0  0  0  0  0  0  0
   44.1521    9.4472   12.5309 O   0  0  0  0  0  0  0  0  0  0  0  0
   43.3532    6.8650   11.6761 C   0  0  0  0  0  0  0  0  0  0  0  0
   45.6600    6.4475   11.0958 C   0  0  0  0  0  0  0  0  0  0  0  0
   46.3002    8.9742   11.8764 O   0  0  0  0  0  0  0  0  0  0  0  0
   43.9994    4.6962   10.7903 C   0  0  0  0  0  0  0  0  0  0  0  0
   46.9585   12.6678   11.4464 N   0  0  0  0  0  0  0  0  0  0  0  0
   43.6378    3.4584   10.2505 N   0  0  0  0  0  0  0  0  0  0  0  0
   43.0164    5.5760   11.2502 C   0  0  0  0  0  0  0  0  0  0  0  0
   45.3128    5.1593   10.6723 C   0  0  0  0  0  0  0  0  0  0  0  0
   46.7126   10.2920   12.2888 C   0  0  0  0  0  0  0  0  0  0  0  0
   46.3651   11.3305   11.2077 C   0  0  0  0  0  0  0  0  0  0  0  0
   46.2523   13.3499   12.5511 C   0  0  0  0  0  0  0  0  0  0  0  0
   46.9009   13.4830   10.2146 C   0  0  0  0  0  0  0  0  0  0  0  0
   47.0617   14.5056   13.1336 C   0  0  0  0  0  0  0  0  0  0  0  0
   47.9524   13.0679    9.1883 C   0  0  0  0  0  0  0  0  0  0  0  0
   45.7159    9.0914   11.3320 H   0  0  0  0  0  0  0  0  0  0  0  0
   46.0369   10.5031   10.8483 H   0  0  0  0  0  0  0  0  0  0  0  0
   45.5559   11.8278   12.9168 H   0  0  0  0  0  0  0  0  0  0  0  0
   43.7963   10.4263   11.8804 H   0  0  0  0  0  0  0  0  0  0  0  0
   46.4935   12.7995    9.1530 H   0  0  0  0  0  0  0  0  0  0  0  0
   45.3718    8.8849    9.9767 H   0  0  0  0  0  0  0  0  0  0  0  0
   46.2888    6.9514   10.3307 H   0  0  0  0  0  0  0  0  0  0  0  0
   47.1652    6.8138   11.8345 H   0  0  0  0  0  0  0  0  0  0  0  0
   46.3542   16.2064    9.1254 H   0  0  0  0  0  0  0  0  0  0  0  0
   49.8921   12.6934   10.5148 H   0  0  0  0  0  0  0  0  0  0  0  0
   49.1068   13.9736    9.5900 H   0  0  0  0  0  0  0  0  0  0  0  0
   48.8454   12.2893    9.1400 H   0  0  0  0  0  0  0  0  0  0  0  0
   48.1778   14.8582   11.8333 H   0  0  0  0  0  0  0  0  0  0  0  0
   48.8763   13.5081   12.7160 H   0  0  0  0  0  0  0  0  0  0  0  0
   47.1392   13.8398   12.8311 H   0  0  0  0  0  0  0  0  0  0  0  0
   44.1276    5.7450    9.9767 H   0  0  0  0  0  0  0  0  0  0  0  0
   46.2870    5.4135   13.7036 H   0  0  0  0  0  0  0  0  0  0  0  0
   44.9411    3.4300   14.2947 H   0  0  0  0  0  0  0  0  0  0  0  0
   42.7880    3.7659   10.5904 H   0  0  0  0  0  0  0  0  0  0  0  0
   43.1927    2.5988   12.7441 H   0  0  0  0  0  0  0  0  0  0  0  0
   42.5715    7.5261   12.0461 H   0  0  0  0  0  0  0  0  0  0  0  0
   46.6950    6.7680   11.0067 H   0  0  0  0  0  0  0  0  0  0  0  0
   44.3896    2.7773   10.2233 H   0  0  0  0  0  0  0  0  0  0  0  0
   42.7772    3.0729   10.6266 H   0  0  0  0  0  0  0  0  0  0  0  0
   41.9744    5.2668   11.2789 H   0  0  0  0  0  0  0  0  0  0  0  0
   46.0812    4.5185   10.2465 H   0  0  0  0  0  0  0  0  0  0  0  0
   47.7984   10.2455   12.4260 H   0  0  0  0  0  0  0  0  0  0  0  0
   46.2769   10.5298   13.2645 H   0  0  0  0  0  0  0  0  0  0  0  0
   45.2775   11.4037   11.0812 H   0  0  0  0  0  0  0  0  0  0  0  0
   46.7353   10.9140   10.2645 H   0  0  0  0  0  0  0  0  0  0  0  0
   46.0814   12.6574   13.3819 H   0  0  0  0  0  0  0  0  0  0  0  0
   45.2625   13.7017   12.2330 H   0  0  0  0  0  0  0  0  0  0  0  0
   45.9000   13.4493    9.7639 H   0  0  0  0  0  0  0  0  0  0  0  0
   47.1031   14.5349   10.4415 H   0  0  0  0  0  0  0  0  0  0  0  0
   47.1621   15.3401   12.4347 H   0  0  0  0  0  0  0  0  0  0  0  0
   48.0634   14.1738   13.4267 H   0  0  0  0  0  0  0  0  0  0  0  0
   46.5645   14.8921   14.0300 H   0  0  0  0  0  0  0  0  0  0  0  0
   48.9571   13.0934    9.6250 H   0  0  0  0  0  0  0  0  0  0  0  0
   47.7752   12.0663    8.7869 H   0  0  0  0  0  0  0  0  0  0  0  0
   47.9396   13.7639    8.3416 H   0  0  0  0  0  0  0  0  0  0  0  0
  3  2  1  0
  4  2  1  0
  5  4  1  0
  6  2  1  0
  3  7  1  0
  8  6  1  0
  5  9  1  0
  6 10  1  0
 11  9  1  0
 12  4  2  0
 13 10  2  0
 14 11  2  0
 15 11  1  0
 16 10  1  0
 17  8  1  0
 18  8  1  0
 19 15  1  0
 20 19  2  0
 21 19  1  0
 22 21  2  0
 23 20  1  0
 24 22  1  0
  7  8  1  0
  5  3  1  0
 24 23  2  0
 26 25  1  0
 27 25  2  0
 28 26  2  0
 29 26  1  0
 30 25  1  0
 31 35  1  0
 32 37  1  0
 33 31  1  0
 34 28  1  0
 35 29  2  0
 36 30  1  0
 37 36  1  0
 38 32  1  0
 39 32  1  0
 40 38  1  0
 41 39  1  0
 31 34  2  0
  1 42  1  0
  1 43  1  0
  3 44  1  1
  5 45  1  1
  6 46  1  6
  9 47  1  0
 15 48  1  0
 15 49  1  0
 16 50  1  0
 17 51  1  0
 17 52  1  0
 17 53  1  0
 18 54  1  0
 18 55  1  0
 18 56  1  0
 20 57  1  0
 21 58  1  0
 22 59  1  0
 23 60  1  0
 24 61  1  0
 28 62  1  0
 29 63  1  0
 33 64  1  0
 33 65  1  0
 34 66  1  0
 35 67  1  0
 36 68  1  0
 36 69  1  0
 37 70  1  0
 37 71  1  0
 38 72  1  0
 38 73  1  0
 39 74  1  0
 39 75  1  0
 40 76  1  0
 40 77  1  0
 40 78  1  0
 41 79  1  0
 41 80  1  0
 41 81  1  0
M  END
> <Uni-Dock RESULT> 
ENERGY=   -5.189  LOWER_BOUND=    4.014  UPPER_BOUND=    8.160
INTER + INTRA:          -5.189
INTER:                  -5.189
INTRA:                   0.000
UNBOUND:                 0.000

$$$$

     RDKit          3D

 81 82  0  0  0  0  0  0  0  0999 V2000
   53.0538    3.8984   19.3083 O   0  0  0  0  0  0  0  0  0  0  0  0
   53.8573    2.0673   17.4762 N   0  0  0  0  0  0  0  0  0  0  0  0
   53.8369    3.4506   17.9945 C   0  0  1  0  0  0  0  0  0  0  0  0
   52.5601    1.8214   17.8382 C   0  0  0  0  0  0  0  0  0  0  0  0
   52.3004    3.3128   18.1480 C   0  0  1  0  0  0  0  0  0  0  0  0
   54.9183    1.1777   17.9470 C   0  0  2  0  0  0  0  0  0  0  0  0
   54.8798    3.3433   19.5097 S   0  0  0  0  0  0  0  0  0  0  0  0
   55.9352    2.0252   18.7372 C   0  0  0  0  0  0  0  0  0  0  0  0
   51.7124    3.6155   19.4804 N   0  0  0  0  0  0  0  0  0  0  0  0
   55.5304    0.4279   16.7724 C   0  0  0  0  0  0  0  0  0  0  0  0
   51.6907    4.9095   19.9570 C   0  0  0  0  0  0  0  0  0  0  0  0
   51.9600    0.7812   17.9829 O   0  0  0  0  0  0  0  0  0  0  0  0
   55.5501    0.7751   15.6022 O   0  0  0  0  0  0  0  0  0  0  0  0
   52.0854    5.8569   19.2806 O   0  0  0  0  0  0  0  0  0  0  0  0
   51.1750    5.0558   21.3760 C   0  0  0  0  0  0  0  0  0  0  0  0
   56.1330   -0.7203   17.1480 O   0  0  0  0  0  0  0  0  0  0  0  0
   56.6053    1.2200   19.8533 C   0  0  0  0  0  0  0  0  0  0  0  0
   56.9995    2.7166   17.8745 C   0  0  0  0  0  0  0  0  0  0  0  0
   49.9167    5.8808   21.4642 C   0  0  0  0  0  0  0  0  0  0  0  0
   48.6556    5.2719   21.4007 C   0  0  0  0  0  0  0  0  0  0  0  0
   49.9929    7.2753   21.5947 C   0  0  0  0  0  0  0  0  0  0  0  0
   48.8303    8.0429   21.6855 C   0  0  0  0  0  0  0  0  0  0  0  0
   47.4938    6.0418   21.4909 C   0  0  0  0  0  0  0  0  0  0  0  0
   47.5816    7.4261   21.6374 C   0  0  0  0  0  0  0  0  0  0  0  0
   51.5831    4.7895   19.2098 C   0  0  0  0  0  0  0  0  0  0  0  0
   50.3782    4.9825   20.0620 C   0  0  0  0  0  0  0  0  0  0  0  0
   51.5603    4.8319   17.9900 O   0  0  0  0  0  0  0  0  0  0  0  0
   49.1443    5.1798   19.4315 C   0  0  0  0  0  0  0  0  0  0  0  0
   50.4336    4.9526   21.4609 C   0  0  0  0  0  0  0  0  0  0  0  0
   52.6782    4.5558   19.9751 O   0  0  0  0  0  0  0  0  0  0  0  0
   48.0426    5.3825   21.5881 C   0  0  0  0  0  0  0  0  0  0  0  0
   55.3309    2.5577   18.1774 N   0  0  0  0  0  0  0  0  0  0  0  0
   46.8651    5.4339   22.3400 N   0  0  0  0  0  0  0  0  0  0  0  0
   47.9841    5.3571   20.1925 C   0  0  0  0  0  0  0  0  0  0  0  0
   49.2669    5.1312   22.2135 C   0  0  0  0  0  0  0  0  0  0  0  0
   53.9082    4.3571   19.2512 C   0  0  0  0  0  0  0  0  0  0  0  0
   54.0019    2.9121   18.7303 C   0  0  0  0  0  0  0  0  0  0  0  0
   55.5286    3.2097   16.8658 C   0  0  0  0  0  0  0  0  0  0  0  0
   55.4601    1.0906   18.0501 C   0  0  0  0  0  0  0  0  0  0  0  0
   56.9976    3.2536   16.4532 C   0  0  0  0  0  0  0  0  0  0  0  0
   55.7036    0.4058   19.3929 C   0  0  0  0  0  0  0  0  0  0  0  0
   52.1724    3.9898   19.7005 H   0  0  0  0  0  0  0  0  0  0  0  0
   53.1514    2.9438   19.1741 H   0  0  0  0  0  0  0  0  0  0  0  0
   54.1723    4.1821   17.2534 H   0  0  0  0  0  0  0  0  0  0  0  0
   51.7273    3.7981   17.3484 H   0  0  0  0  0  0  0  0  0  0  0  0
   54.4507    0.4267   18.5982 H   0  0  0  0  0  0  0  0  0  0  0  0
   51.4253    2.8539   20.0868 H   0  0  0  0  0  0  0  0  0  0  0  0
   51.0031    4.0731   21.8305 H   0  0  0  0  0  0  0  0  0  0  0  0
   51.9707    5.5195   21.9721 H   0  0  0  0  0  0  0  0  0  0  0  0
   56.4456   -1.1205   16.3062 H   0  0  0  0  0  0  0  0  0  0  0  0
   57.2623    1.8479   20.4666 H   0  0  0  0  0  0  0  0  0  0  0  0
   57.2242    0.4150   19.4389 H   0  0  0  0  0  0  0  0  0  0  0  0
   55.8689    0.7501   20.5154 H   0  0  0  0  0  0  0  0  0  0  0  0
   57.6893    1.9850   17.4396 H   0  0  0  0  0  0  0  0  0  0  0  0
   57.6088    3.4073   18.4694 H   0  0  0  0  0  0  0  0  0  0  0  0
   56.5619    3.2829   17.0449 H   0  0  0  0  0  0  0  0  0  0  0  0
   48.5660    4.1940   21.2851 H   0  0  0  0  0  0  0  0  0  0  0  0
   50.9606    7.7739   21.6216 H   0  0  0  0  0  0  0  0  0  0  0  0
   48.9001    9.1233   21.7909 H   0  0  0  0  0  0  0  0  0  0  0  0
   46.5191    5.5621   21.4476 H   0  0  0  0  0  0  0  0  0  0  0  0
   46.6773    8.0261   21.7073 H   0  0  0  0  0  0  0  0  0  0  0  0
   49.0752    5.1806   18.3451 H   0  0  0  0  0  0  0  0  0  0  0  0
   51.3720    4.7779   21.9812 H   0  0  0  0  0  0  0  0  0  0  0  0
   46.9921    5.7472   23.2968 H   0  0  0  0  0  0  0  0  0  0  0  0
   46.0926    5.9024   21.8767 H   0  0  0  0  0  0  0  0  0  0  0  0
   47.0312    5.4725   19.6818 H   0  0  0  0  0  0  0  0  0  0  0  0
   49.3237    5.0709   23.2978 H   0  0  0  0  0  0  0  0  0  0  0  0
   54.7184    4.5504   19.9625 H   0  0  0  0  0  0  0  0  0  0  0  0
   53.9964    5.1039   18.4555 H   0  0  0  0  0  0  0  0  0  0  0  0
   53.2098    2.7164   17.9964 H   0  0  0  0  0  0  0  0  0  0  0  0
   53.7638    2.2709   19.5860 H   0  0  0  0  0  0  0  0  0  0  0  0
   55.1984    4.2530   16.9031 H   0  0  0  0  0  0  0  0  0  0  0  0
   54.9292    2.7232   16.0857 H   0  0  0  0  0  0  0  0  0  0  0  0
   54.5785    0.6566   17.5597 H   0  0  0  0  0  0  0  0  0  0  0  0
   56.3206    0.8348   17.4233 H   0  0  0  0  0  0  0  0  0  0  0  0
   57.3990    2.2617   16.2294 H   0  0  0  0  0  0  0  0  0  0  0  0
   57.6113    3.7094   17.2373 H   0  0  0  0  0  0  0  0  0  0  0  0
   57.1108    3.8603   15.5482 H   0  0  0  0  0  0  0  0  0  0  0  0
   56.5791    0.8312   19.8962 H   0  0  0  0  0  0  0  0  0  0  0  0
   54.8456    0.4844   20.0662 H   0  0  0  0  0  0  0  0  0  0  0  0
   55.8960   -0.6617   19.2355 H   0  0  0  0  0  0  0  0  0  0  0  0
  3  2  1  0
  4  2  1  0
  5  4  1  0
  6  2  1  0
  3  7  1  0
  8  6  1  0
  5  9  1  0
  6 10  1  0
 11  9  1  0
 12  4  2  0
 13 10  2  0
 14 11  2  0
 15 11  1  0
 16 10  1  0
 17  8  1  0
 18  8  1  0
 19 15  1  0
 20 19  2  0
 21 19  1  0
 22 21  2  0
 23 20  1  0
 24 22  1  0
  7  8  1  0
  5  3  1  0
 24 23  2  0
 26 25  1  0
 27 25  2  0
 28 26  2  0
 29 26  1  0
 30 25  1  0
 31 35  1  0
 32 37  1  0
 33 31  1  0
 34 28  1  0
 35 29  2  0
 36 30  1  0
 37 36  1  0
 38 32  1  0
 39 32  1  0
 40 38  1  0
 41 39  1  0
 31 34  2  0
  1 42  1  0
  1 43  1  0
  3 44  1  1
  5 45  1  1
  6 46  1  6
  9 47  1  0
 15 48  1  0
 15 49  1  0
 16 50  1  0
 17 51  1  0
 17 52  1  0
 17 53  1  0
 18 54  1  0
 18 55  1  0
 18 56  1  0
 20 57  1  0
 21 58  1  0
 22 59  1  0
 23 60  1  0
 24 61  1  0
 28 62  1  0
 29 63  1  0
 33 64  1  0
 33 65  1  0
 34 66  1  0
 35 67  1  0
 36 68  1  0
 36 69  1  0
 37 70  1  0
 37 71  1  0
 38 72  1  0
 38 73  1  0
 39 74  1  0
 39 75  1  0
 40 76  1  0
 40 77  1  0
 40 78  1  0
 41 79  1  0
 41 80  1  0
 41 81  1  0
M  END
> <Uni-Dock RESULT> 
ENERGY=   -4.838  LOWER_BOUND=    8.480  UPPER_BOUND=   10.942
INTER + INTRA:          -4.838
INTER:                  -4.838
INTRA:                   0.000
UNBOUND:                 0.000

$$$$

     RDKit          3D

 81 82  0  0  0  0  0  0  0  0999 V2000
   49.1885    6.7199   16.1289 O   0  0  0  0  0  0  0  0  0  0  0  0
   50.8960    6.1548   18.1587 N   0  0  0  0  0  0  0  0  0  0  0  0
   49.5513    6.5195   17.6678 C   0  0  1  0  0  0  0  0  0  0  0  0
   51.5392    6.8989   17.2063 C   0  0  0  0  0  0  0  0  0  0  0  0
   50.2272    7.5919   16.7752 C   0  0  1  0  0  0  0  0  0  0  0  0
   51.2099    4.7330   18.2965 C   0  0  2  0  0  0  0  0  0  0  0  0
   48.9622    4.9652   16.8726 S   0  0  0  0  0  0  0  0  0  0  0  0
   49.9059    3.9355   18.0963 C   0  0  0  0  0  0  0  0  0  0  0  0
   49.9185    7.5697   15.3203 N   0  0  0  0  0  0  0  0  0  0  0  0
   51.8839    4.4747   19.6364 C   0  0  0  0  0  0  0  0  0  0  0  0
   48.6631    7.9167   14.8669 C   0  0  0  0  0  0  0  0  0  0  0  0
   52.6801    6.8609   16.8063 O   0  0  0  0  0  0  0  0  0  0  0  0
   51.7876    5.1421   20.6540 O   0  0  0  0  0  0  0  0  0  0  0  0
   47.7863    8.3192   15.6286 O   0  0  0  0  0  0  0  0  0  0  0  0
   48.4520    7.7321   13.3762 C   0  0  0  0  0  0  0  0  0  0  0  0
   52.6235    3.3453   19.6352 O   0  0  0  0  0  0  0  0  0  0  0  0
   50.1666    2.5598   17.4781 C   0  0  0  0  0  0  0  0  0  0  0  0
   49.0437    3.7915   19.3577 C   0  0  0  0  0  0  0  0  0  0  0  0
   48.1635    9.0248   12.6568 C   0  0  0  0  0  0  0  0  0  0  0  0
   49.2037    9.7817   12.0998 C   0  0  0  0  0  0  0  0  0  0  0  0
   46.8467    9.4963   12.5502 C   0  0  0  0  0  0  0  0  0  0  0  0
   46.5735   10.6887   11.8773 C   0  0  0  0  0  0  0  0  0  0  0  0
   48.9283   10.9746   11.4278 C   0  0  0  0  0  0  0  0  0  0  0  0
   47.6133   11.4254   11.3132 C   0  0  0  0  0  0  0  0  0  0  0  0
   48.9564    8.2921   15.4647 C   0  0  0  0  0  0  0  0  0  0  0  0
   49.0728    8.9254   14.1229 C   0  0  0  0  0  0  0  0  0  0  0  0
   49.1617    8.8862   16.5112 O   0  0  0  0  0  0  0  0  0  0  0  0
   49.4819   10.2621   14.0535 C   0  0  0  0  0  0  0  0  0  0  0  0
   48.8093    8.2291   12.9369 C   0  0  0  0  0  0  0  0  0  0  0  0
   48.6067    6.9867   15.3491 O   0  0  0  0  0  0  0  0  0  0  0  0
   49.2992   10.2219   11.6304 C   0  0  0  0  0  0  0  0  0  0  0  0
   49.7599    4.8897   18.2704 N   0  0  0  0  0  0  0  0  0  0  0  0
   49.5527   10.8198   10.3924 N   0  0  0  0  0  0  0  0  0  0  0  0
   49.6132   10.8957   12.8133 C   0  0  0  0  0  0  0  0  0  0  0  0
   48.9435    8.8722   11.7008 C   0  0  0  0  0  0  0  0  0  0  0  0
   48.4612    6.2725   16.5922 C   0  0  0  0  0  0  0  0  0  0  0  0
   49.8347    5.8256   17.1231 C   0  0  0  0  0  0  0  0  0  0  0  0
   49.3475    5.6118   19.4922 C   0  0  0  0  0  0  0  0  0  0  0  0
   51.0641    4.2255   18.4778 C   0  0  0  0  0  0  0  0  0  0  0  0
   48.8322    4.6712   20.5783 C   0  0  0  0  0  0  0  0  0  0  0  0
   51.3335    3.1303   17.4485 C   0  0  0  0  0  0  0  0  0  0  0  0
   49.3632    7.2680   15.3491 H   0  0  0  0  0  0  0  0  0  0  0  0
   50.0419    6.3006   16.3151 H   0  0  0  0  0  0  0  0  0  0  0  0
   48.9049    6.9066   18.4611 H   0  0  0  0  0  0  0  0  0  0  0  0
   50.1583    8.6115   17.1740 H   0  0  0  0  0  0  0  0  0  0  0  0
   51.9412    4.4823   17.5161 H   0  0  0  0  0  0  0  0  0  0  0  0
   50.5998    7.1939   14.6685 H   0  0  0  0  0  0  0  0  0  0  0  0
   49.3193    7.2421   12.9185 H   0  0  0  0  0  0  0  0  0  0  0  0
   47.6165    7.0337   13.2432 H   0  0  0  0  0  0  0  0  0  0  0  0
   53.0300    3.3168   20.5299 H   0  0  0  0  0  0  0  0  0  0  0  0
   49.2315    2.0314   17.2578 H   0  0  0  0  0  0  0  0  0  0  0  0
   50.7415    1.9247   18.1629 H   0  0  0  0  0  0  0  0  0  0  0  0
   50.7428    2.6331   16.5486 H   0  0  0  0  0  0  0  0  0  0  0  0
   49.5293    3.1414   20.0937 H   0  0  0  0  0  0  0  0  0  0  0  0
   48.0733    3.3355   19.1282 H   0  0  0  0  0  0  0  0  0  0  0  0
   48.8563    4.7532   19.8479 H   0  0  0  0  0  0  0  0  0  0  0  0
   50.2360    9.4479   12.1798 H   0  0  0  0  0  0  0  0  0  0  0  0
   46.0244    8.9389   12.9957 H   0  0  0  0  0  0  0  0  0  0  0  0
   45.5484   11.0436   11.7962 H   0  0  0  0  0  0  0  0  0  0  0  0
   49.7394   11.5531   10.9924 H   0  0  0  0  0  0  0  0  0  0  0  0
   47.3983   12.3544   10.7904 H   0  0  0  0  0  0  0  0  0  0  0  0
   49.7167   10.8138   14.9620 H   0  0  0  0  0  0  0  0  0  0  0  0
   48.5126    7.1834   12.9549 H   0  0  0  0  0  0  0  0  0  0  0  0
   49.0366   10.4152    9.6180 H   0  0  0  0  0  0  0  0  0  0  0  0
   49.5097   11.8342   10.4008 H   0  0  0  0  0  0  0  0  0  0  0  0
   49.9673   11.9232   12.7812 H   0  0  0  0  0  0  0  0  0  0  0  0
   48.7676    8.3058   10.7893 H   0  0  0  0  0  0  0  0  0  0  0  0
   47.8429    5.3954   16.3725 H   0  0  0  0  0  0  0  0  0  0  0  0
   47.9050    6.8842   17.3099 H   0  0  0  0  0  0  0  0  0  0  0  0
   50.4528    6.6977   17.3714 H   0  0  0  0  0  0  0  0  0  0  0  0
   50.3404    5.3483   16.2766 H   0  0  0  0  0  0  0  0  0  0  0  0
   48.5204    6.2948   19.2726 H   0  0  0  0  0  0  0  0  0  0  0  0
   50.1649    6.2314   19.8828 H   0  0  0  0  0  0  0  0  0  0  0  0
   51.8849    4.9552   18.4757 H   0  0  0  0  0  0  0  0  0  0  0  0
   51.0914    3.7314   19.4545 H   0  0  0  0  0  0  0  0  0  0  0  0
   49.6217    4.0396   20.9939 H   0  0  0  0  0  0  0  0  0  0  0  0
   48.0363    4.0255   20.1920 H   0  0  0  0  0  0  0  0  0  0  0  0
   48.4143    5.2540   21.4063 H   0  0  0  0  0  0  0  0  0  0  0  0
   50.5204    2.3958   17.4365 H   0  0  0  0  0  0  0  0  0  0  0  0
   51.4568    3.5260   16.4366 H   0  0  0  0  0  0  0  0  0  0  0  0
   52.2578    2.5998   17.7045 H   0  0  0  0  0  0  0  0  0  0  0  0
  3  2  1  0
  4  2  1  0
  5  4  1  0
  6  2  1  0
  3  7  1  0
  8  6  1  0
  5  9  1  0
  6 10  1  0
 11  9  1  0
 12  4  2  0
 13 10  2  0
 14 11  2  0
 15 11  1  0
 16 10  1  0
 17  8  1  0
 18  8  1  0
 19 15  1  0
 20 19  2  0
 21 19  1  0
 22 21  2  0
 23 20  1  0
 24 22  1  0
  7  8  1  0
  5  3  1  0
 24 23  2  0
 26 25  1  0
 27 25  2  0
 28 26  2  0
 29 26  1  0
 30 25  1  0
 31 35  1  0
 32 37  1  0
 33 31  1  0
 34 28  1  0
 35 29  2  0
 36 30  1  0
 37 36  1  0
 38 32  1  0
 39 32  1  0
 40 38  1  0
 41 39  1  0
 31 34  2  0
  1 42  1  0
  1 43  1  0
  3 44  1  1
  5 45  1  1
  6 46  1  6
  9 47  1  0
 15 48  1  0
 15 49  1  0
 16 50  1  0
 17 51  1  0
 17 52  1  0
 17 53  1  0
 18 54  1  0
 18 55  1  0
 18 56  1  0
 20 57  1  0
 21 58  1  0
 22 59  1  0
 23 60  1  0
 24 61  1  0
 28 62  1  0
 29 63  1  0
 33 64  1  0
 33 65  1  0
 34 66  1  0
 35 67  1  0
 36 68  1  0
 36 69  1  0
 37 70  1  0
 37 71  1  0
 38 72  1  0
 38 73  1  0
 39 74  1  0
 39 75  1  0
 40 76  1  0
 40 77  1  0
 40 78  1  0
 41 79  1  0
 41 80  1  0
 41 81  1  0
M  END
> <Uni-Dock RESULT> 
ENERGY=   -4.797  LOWER_BOUND=    4.420  UPPER_BOUND=    6.658
INTER + INTRA:          -4.797
INTER:                  -4.797
INTRA:                   0.000
UNBOUND:                 0.000

$$$$

     RDKit          3D

 81 82  0  0  0  0  0  0  0  0999 V2000
   44.9247   11.9390   11.4812 O   0  0  0  0  0  0  0  0  0  0  0  0
   47.1712   10.4619   11.8368 N   0  0  0  0  0  0  0  0  0  0  0  0
   46.3412   11.3719   11.0210 C   0  0  1  0  0  0  0  0  0  0  0  0
   46.0905    9.7894   12.3408 C   0  0  0  0  0  0  0  0  0  0  0  0
   45.1285   10.4580   11.3332 C   0  0  1  0  0  0  0  0  0  0  0  0
   48.1402   11.0604   12.7544 C   0  0  2  0  0  0  0  0  0  0  0  0
   46.4796   12.9767   11.9156 S   0  0  0  0  0  0  0  0  0  0  0  0
   48.2094   12.5712   12.4556 C   0  0  0  0  0  0  0  0  0  0  0  0
   43.9148   11.0981   11.9077 N   0  0  0  0  0  0  0  0  0  0  0  0
   49.4816   10.3517   12.6320 C   0  0  0  0  0  0  0  0  0  0  0  0
   43.1402   11.9423   11.1398 C   0  0  0  0  0  0  0  0  0  0  0  0
   45.9822    9.0744   13.3104 O   0  0  0  0  0  0  0  0  0  0  0  0
   49.9087    9.7374   11.6675 O   0  0  0  0  0  0  0  0  0  0  0  0
   43.3787   12.1394    9.9503 O   0  0  0  0  0  0  0  0  0  0  0  0
   42.0061   12.6190   11.8861 C   0  0  0  0  0  0  0  0  0  0  0  0
   50.2449   10.4932   13.7366 O   0  0  0  0  0  0  0  0  0  0  0  0
   48.5333   13.3874   13.7093 C   0  0  0  0  0  0  0  0  0  0  0  0
   49.1629   12.9551   11.3160 C   0  0  0  0  0  0  0  0  0  0  0  0
   40.6452   12.2395   11.3609 C   0  0  0  0  0  0  0  0  0  0  0  0
   39.9434   11.1562   11.9080 C   0  0  0  0  0  0  0  0  0  0  0  0
   40.0696   12.9584   10.3029 C   0  0  0  0  0  0  0  0  0  0  0  0
   38.8056   12.6161    9.8188 C   0  0  0  0  0  0  0  0  0  0  0  0
   38.6794   10.8150   11.4216 C   0  0  0  0  0  0  0  0  0  0  0  0
   38.1094   11.5474   10.3804 C   0  0  0  0  0  0  0  0  0  0  0  0
   43.4597   11.3317   10.8091 C   0  0  0  0  0  0  0  0  0  0  0  0
   42.0382   11.2245   11.2371 C   0  0  0  0  0  0  0  0  0  0  0  0
   44.0026   10.5302   10.0654 O   0  0  0  0  0  0  0  0  0  0  0  0
   41.2949   10.1224   10.7991 C   0  0  0  0  0  0  0  0  0  0  0  0
   41.4308   12.1697   12.0727 C   0  0  0  0  0  0  0  0  0  0  0  0
   44.0461   12.4211   11.3652 O   0  0  0  0  0  0  0  0  0  0  0  0
   39.3317   10.9444   11.9721 C   0  0  0  0  0  0  0  0  0  0  0  0
   47.7851   12.0487   11.7420 N   0  0  0  0  0  0  0  0  0  0  0  0
   38.0372   10.7286   12.4541 N   0  0  0  0  0  0  0  0  0  0  0  0
   39.9579    9.9762   11.1833 C   0  0  0  0  0  0  0  0  0  0  0  0
   40.0922   12.0145   12.4514 C   0  0  0  0  0  0  0  0  0  0  0  0
   45.4288   12.6262   11.0149 C   0  0  0  0  0  0  0  0  0  0  0  0
   46.3424   11.7343   11.8737 C   0  0  0  0  0  0  0  0  0  0  0  0
   48.2926   11.5799   10.4355 C   0  0  0  0  0  0  0  0  0  0  0  0
   48.5490   11.4294   12.8458 C   0  0  0  0  0  0  0  0  0  0  0  0
   49.6141   12.2411   10.0531 C   0  0  0  0  0  0  0  0  0  0  0  0
   48.3839   12.1800   14.1651 C   0  0  0  0  0  0  0  0  0  0  0  0
   44.0149   11.6871   11.6997 H   0  0  0  0  0  0  0  0  0  0  0  0
   45.4567   11.5106   12.1685 H   0  0  0  0  0  0  0  0  0  0  0  0
   46.6529   11.3987    9.9727 H   0  0  0  0  0  0  0  0  0  0  0  0
   44.8615    9.7769   10.5158 H   0  0  0  0  0  0  0  0  0  0  0  0
   47.7761   10.8836   13.7757 H   0  0  0  0  0  0  0  0  0  0  0  0
   43.7169   10.9998   12.8983 H   0  0  0  0  0  0  0  0  0  0  0  0
   42.0608   12.3994   12.9587 H   0  0  0  0  0  0  0  0  0  0  0  0
   42.1528   13.7028   11.8007 H   0  0  0  0  0  0  0  0  0  0  0  0
   51.0517    9.9644   13.5471 H   0  0  0  0  0  0  0  0  0  0  0  0
   48.4964   14.4651   13.5111 H   0  0  0  0  0  0  0  0  0  0  0  0
   49.5426   13.1616   14.0743 H   0  0  0  0  0  0  0  0  0  0  0  0
   47.8393   13.1684   14.5288 H   0  0  0  0  0  0  0  0  0  0  0  0
   50.2068   12.7908   11.6047 H   0  0  0  0  0  0  0  0  0  0  0  0
   49.0716   14.0173   11.0597 H   0  0  0  0  0  0  0  0  0  0  0  0
   48.9824   12.3725   10.4058 H   0  0  0  0  0  0  0  0  0  0  0  0
   40.3714   10.5717   12.7194 H   0  0  0  0  0  0  0  0  0  0  0  0
   40.6055   13.7883    9.8451 H   0  0  0  0  0  0  0  0  0  0  0  0
   38.3659   13.1827    9.0009 H   0  0  0  0  0  0  0  0  0  0  0  0
   38.1380    9.9778   11.8552 H   0  0  0  0  0  0  0  0  0  0  0  0
   37.1254   11.2820   10.0011 H   0  0  0  0  0  0  0  0  0  0  0  0
   41.7556    9.3626   10.1702 H   0  0  0  0  0  0  0  0  0  0  0  0
   41.9870   13.0245   12.4495 H   0  0  0  0  0  0  0  0  0  0  0  0
   37.5541   11.5708   12.7491 H   0  0  0  0  0  0  0  0  0  0  0  0
   37.4626   10.1381   11.8608 H   0  0  0  0  0  0  0  0  0  0  0  0
   39.4104    9.0938   10.8612 H   0  0  0  0  0  0  0  0  0  0  0  0
   39.6475   12.7403   13.1282 H   0  0  0  0  0  0  0  0  0  0  0  0
   45.6432   13.6817   11.2144 H   0  0  0  0  0  0  0  0  0  0  0  0
   45.5675   12.4694    9.9403 H   0  0  0  0  0  0  0  0  0  0  0  0
   46.1537   10.6743   11.6617 H   0  0  0  0  0  0  0  0  0  0  0  0
   46.0151   11.8816   12.9088 H   0  0  0  0  0  0  0  0  0  0  0  0
   47.5889   11.8366    9.6368 H   0  0  0  0  0  0  0  0  0  0  0  0
   48.3954   10.4873   10.4178 H   0  0  0  0  0  0  0  0  0  0  0  0
   48.2732   10.3743   12.9749 H   0  0  0  0  0  0  0  0  0  0  0  0
   49.6214   11.4445   12.6251 H   0  0  0  0  0  0  0  0  0  0  0  0
   50.4405   11.9273   10.6962 H   0  0  0  0  0  0  0  0  0  0  0  0
   49.5332   13.3324   10.0969 H   0  0  0  0  0  0  0  0  0  0  0  0
   49.8817   11.9691    9.0262 H   0  0  0  0  0  0  0  0  0  0  0  0
   48.6524   13.2362   14.0509 H   0  0  0  0  0  0  0  0  0  0  0  0
   47.3643   12.1228   14.5562 H   0  0  0  0  0  0  0  0  0  0  0  0
   49.0471   11.7479   14.9233 H   0  0  0  0  0  0  0  0  0  0  0  0
  3  2  1  0
  4  2  1  0
  5  4  1  0
  6  2  1  0
  3  7  1  0
  8  6  1  0
  5  9  1  0
  6 10  1  0
 11  9  1  0
 12  4  2  0
 13 10  2  0
 14 11  2  0
 15 11  1  0
 16 10  1  0
 17  8  1  0
 18  8  1  0
 19 15  1  0
 20 19  2  0
 21 19  1  0
 22 21  2  0
 23 20  1  0
 24 22  1  0
  7  8  1  0
  5  3  1  0
 24 23  2  0
 26 25  1  0
 27 25  2  0
 28 26  2  0
 29 26  1  0
 30 25  1  0
 31 35  1  0
 32 37  1  0
 33 31  1  0
 34 28  1  0
 35 29  2  0
 36 30  1  0
 37 36  1  0
 38 32  1  0
 39 32  1  0
 40 38  1  0
 41 39  1  0
 31 34  2  0
  1 42  1  0
  1 43  1  0
  3 44  1  1
  5 45  1  1
  6 46  1  6
  9 47  1  0
 15 48  1  0
 15 49  1  0
 16 50  1  0
 17 51  1  0
 17 52  1  0
 17 53  1  0
 18 54  1  0
 18 55  1  0
 18 56  1  0
 20 57  1  0
 21 58  1  0
 22 59  1  0
 23 60  1  0
 24 61  1  0
 28 62  1  0
 29 63  1  0
 33 64  1  0
 33 65  1  0
 34 66  1  0
 35 67  1  0
 36 68  1  0
 36 69  1  0
 37 70  1  0
 37 71  1  0
 38 72  1  0
 38 73  1  0
 39 74  1  0
 39 75  1  0
 40 76  1  0
 40 77  1  0
 40 78  1  0
 41 79  1  0
 41 80  1  0
 41 81  1  0
M  END
> <Uni-Dock RESULT> 
ENERGY=   -4.763  LOWER_BOUND=    5.203  UPPER_BOUND=    9.481
INTER + INTRA:          -4.763
INTER:                  -4.763
INTRA:                   0.000
UNBOUND:                 0.000

$$$$
