
     RDKit          3D

 61 64  0  0  0  0  0  0  0  0999 V2000
   56.5043   12.0563   23.3404 C   0  0  0  0  0  0  0  0  0  0  0  0
   57.7228   11.4406   22.9028 O   0  0  0  0  0  0  0  0  0  0  0  0
   57.4264   10.3883   21.9765 C   0  0  0  0  0  0  0  0  0  0  0  0
   56.5273    9.3231   22.6229 C   0  0  0  0  0  0  0  0  0  0  0  0
   55.2601    9.9050   23.1182 N   0  0  0  0  0  0  0  0  0  0  0  0
   55.5741   11.0348   24.0173 C   0  0  0  0  0  0  0  0  0  0  0  0
   54.4449    8.8657   23.7802 C   0  0  0  0  0  0  0  0  0  0  0  0
   53.0093    9.2922   24.1502 C   0  0  0  0  0  0  0  0  0  0  0  0
   52.2397    9.6665   23.0063 O   0  0  0  0  0  0  0  0  0  0  0  0
   51.5873    8.7006   22.2956 C   0  0  0  0  0  0  0  0  0  0  0  0
   51.5926    7.3320   22.5501 C   0  0  0  0  0  0  0  0  0  0  0  0
   50.8536    9.1806   21.2097 C   0  0  0  0  0  0  0  0  0  0  0  0
   50.1303    8.3088   20.3885 C   0  0  0  0  0  0  0  0  0  0  0  0
   50.1241    6.9285   20.6339 C   0  0  0  0  0  0  0  0  0  0  0  0
   50.8686    6.4575   21.7272 C   0  0  0  0  0  0  0  0  0  0  0  0
   49.3684    6.0050   19.7764 C   0  0  0  0  0  0  0  0  0  0  0  0
   49.9620    4.8743   19.2045 C   0  0  0  0  0  0  0  0  0  0  0  0
   48.0191    6.2037   19.4834 C   0  0  0  0  0  0  0  0  0  0  0  0
   47.2645    5.3935   18.6979 N   0  0  0  0  0  0  0  0  0  0  0  0
   47.8734    4.3044   18.1687 C   0  0  0  0  0  0  0  0  0  0  0  0
   49.2160    4.0176   18.3951 C   0  0  0  0  0  0  0  0  0  0  0  0
   48.0491    2.8616   15.1814 O   0  0  0  0  0  0  0  0  0  0  0  0
   47.3491    3.6388   15.8253 C   0  0  0  0  0  0  0  0  0  0  0  0
   47.0396    3.4161   17.2887 C   0  0  0  0  0  0  0  0  0  0  0  0
   46.8888    5.1190   13.8996 C   0  0  0  0  0  0  0  0  0  0  0  0
   46.7834    4.7759   15.2970 N   0  0  0  0  0  0  0  0  0  0  0  0
   45.5064    3.4063   12.6698 C   0  0  0  0  0  0  0  0  0  0  0  0
   45.6435    4.7157   13.1541 C   0  0  0  0  0  0  0  0  0  0  0  0
   44.5908    5.6227   12.9664 C   0  0  0  0  0  0  0  0  0  0  0  0
   43.4329    5.2316   12.2909 C   0  0  0  0  0  0  0  0  0  0  0  0
   43.3134    3.9309   11.8032 C   0  0  0  0  0  0  0  0  0  0  0  0
   44.3487    3.0177   11.9943 C   0  0  0  0  0  0  0  0  0  0  0  0
   56.0133   12.5364   22.4852 H   0  0  0  0  0  0  0  0  0  0  0  0
   56.7700   12.8425   24.0541 H   0  0  0  0  0  0  0  0  0  0  0  0
   58.3767    9.9369   21.6742 H   0  0  0  0  0  0  0  0  0  0  0  0
   56.9602   10.8139   21.0801 H   0  0  0  0  0  0  0  0  0  0  0  0
   56.3167    8.5462   21.8787 H   0  0  0  0  0  0  0  0  0  0  0  0
   57.0721    8.8574   23.4551 H   0  0  0  0  0  0  0  0  0  0  0  0
   54.6596   11.5587   24.3124 H   0  0  0  0  0  0  0  0  0  0  0  0
   56.0623   10.6611   24.9266 H   0  0  0  0  0  0  0  0  0  0  0  0
   54.3719    8.0097   23.0989 H   0  0  0  0  0  0  0  0  0  0  0  0
   54.9508    8.5102   24.6871 H   0  0  0  0  0  0  0  0  0  0  0  0
   53.0361   10.1654   24.8106 H   0  0  0  0  0  0  0  0  0  0  0  0
   52.5067    8.5159   24.7387 H   0  0  0  0  0  0  0  0  0  0  0  0
   52.1469    6.9009   23.3755 H   0  0  0  0  0  0  0  0  0  0  0  0
   50.8486   10.2470   20.9960 H   0  0  0  0  0  0  0  0  0  0  0  0
   49.5837    8.7231   19.5436 H   0  0  0  0  0  0  0  0  0  0  0  0
   50.8838    5.3935   21.9587 H   0  0  0  0  0  0  0  0  0  0  0  0
   51.0153    4.6596   19.3716 H   0  0  0  0  0  0  0  0  0  0  0  0
   47.4776    7.0519   19.8965 H   0  0  0  0  0  0  0  0  0  0  0  0
   49.6841    3.1474   17.9431 H   0  0  0  0  0  0  0  0  0  0  0  0
   45.9722    3.6002   17.4617 H   0  0  0  0  0  0  0  0  0  0  0  0
   47.2155    2.3627   17.5362 H   0  0  0  0  0  0  0  0  0  0  0  0
   47.7700    4.6461   13.4513 H   0  0  0  0  0  0  0  0  0  0  0  0
   47.0372    6.2026   13.8380 H   0  0  0  0  0  0  0  0  0  0  0  0
   46.1965    5.3506   15.8915 H   0  0  0  0  0  0  0  0  0  0  0  0
   46.3057    2.6823   12.8236 H   0  0  0  0  0  0  0  0  0  0  0  0
   44.6661    6.6399   13.3441 H   0  0  0  0  0  0  0  0  0  0  0  0
   42.6223    5.9412   12.1458 H   0  0  0  0  0  0  0  0  0  0  0  0
   42.4120    3.6271   11.2774 H   0  0  0  0  0  0  0  0  0  0  0  0
   44.2559    2.0014   11.6203 H   0  0  0  0  0  0  0  0  0  0  0  0
  1  2  1  0
  2  3  1  0
  3  4  1  0
  4  5  1  0
  5  6  1  0
  1  6  1  0
  7  8  1  0
  5  7  1  0
  9 10  1  0
 10 11  2  0
  8  9  1  0
 12 13  2  0
 13 14  1  0
 14 15  2  0
 10 12  1  0
 11 15  1  0
 16 17  2  0
 16 14  1  0
 18 19  2  0
 19 20  1  0
 20 21  2  0
 17 21  1  0
 16 18  1  0
 22 23  2  0
 23 24  1  0
 20 24  1  0
 25 26  1  0
 23 26  1  0
 27 28  2  0
 25 28  1  0
 29 30  2  0
 30 31  1  0
 31 32  2  0
 27 32  1  0
 28 29  1  0
  1 33  1  0
  1 34  1  0
  3 35  1  0
  3 36  1  0
  4 37  1  0
  4 38  1  0
  6 39  1  0
  6 40  1  0
  7 41  1  0
  7 42  1  0
  8 43  1  0
  8 44  1  0
 11 45  1  0
 12 46  1  0
 13 47  1  0
 15 48  1  0
 17 49  1  0
 18 50  1  0
 21 51  1  0
 24 52  1  0
 24 53  1  0
 25 54  1  0
 25 55  1  0
 26 56  1  0
 27 57  1  0
 29 58  1  0
 30 59  1  0
 31 60  1  0
 32 61  1  0
M  END
> <Uni-Dock RESULT> 
ENERGY=   -4.605  LOWER_BOUND=    0.000  UPPER_BOUND=    0.000
INTER + INTRA:          -4.605
INTER:                  -4.605
INTRA:                   0.000
UNBOUND:                 0.000

$$$$

     RDKit          3D

 61 64  0  0  0  0  0  0  0  0999 V2000
   39.0046   15.7725   11.2019 C   0  0  0  0  0  0  0  0  0  0  0  0
   37.7909   15.3198   11.8161 O   0  0  0  0  0  0  0  0  0  0  0  0
   38.0229   14.0725   12.4821 C   0  0  0  0  0  0  0  0  0  0  0  0
   38.5165   13.0044   11.4941 C   0  0  0  0  0  0  0  0  0  0  0  0
   39.7579   13.4266   10.8081 N   0  0  0  0  0  0  0  0  0  0  0  0
   39.5317   14.7466   10.1837 C   0  0  0  0  0  0  0  0  0  0  0  0
   40.1742   12.4020    9.8284 C   0  0  0  0  0  0  0  0  0  0  0  0
   41.5665   12.6192    9.2007 C   0  0  0  0  0  0  0  0  0  0  0  0
   42.6106   12.6175   10.1758 O   0  0  0  0  0  0  0  0  0  0  0  0
   43.1591   11.4292   10.5643 C   0  0  0  0  0  0  0  0  0  0  0  0
   42.7994   10.1603   10.1192 C   0  0  0  0  0  0  0  0  0  0  0  0
   44.1809   11.5472   11.5077 C   0  0  0  0  0  0  0  0  0  0  0  0
   44.8399   10.4153   11.9997 C   0  0  0  0  0  0  0  0  0  0  0  0
   44.4903    9.1312   11.5589 C   0  0  0  0  0  0  0  0  0  0  0  0
   43.4586    9.0253   10.6123 C   0  0  0  0  0  0  0  0  0  0  0  0
   45.1758    7.9365   12.0707 C   0  0  0  0  0  0  0  0  0  0  0  0
   44.4707    6.8462   12.5922 C   0  0  0  0  0  0  0  0  0  0  0  0
   46.5662    7.8224   12.0668 C   0  0  0  0  0  0  0  0  0  0  0  0
   47.2616    6.7509   12.5262 N   0  0  0  0  0  0  0  0  0  0  0  0
   46.5427    5.7118   13.0165 C   0  0  0  0  0  0  0  0  0  0  0  0
   45.1523    5.7270   13.0698 C   0  0  0  0  0  0  0  0  0  0  0  0
   46.6444    3.7784   15.7161 O   0  0  0  0  0  0  0  0  0  0  0  0
   47.3583    4.5221   15.0484 C   0  0  0  0  0  0  0  0  0  0  0  0
   47.3150    4.5323   13.5368 C   0  0  0  0  0  0  0  0  0  0  0  0
   48.5075    5.4928   17.0101 C   0  0  0  0  0  0  0  0  0  0  0  0
   48.2557    5.4118   15.5918 N   0  0  0  0  0  0  0  0  0  0  0  0
   49.6895    3.3500   17.6172 C   0  0  0  0  0  0  0  0  0  0  0  0
   49.7541    4.7305   17.3767 C   0  0  0  0  0  0  0  0  0  0  0  0
   50.9979    5.3741   17.4452 C   0  0  0  0  0  0  0  0  0  0  0  0
   52.1500    4.6533   17.7667 C   0  0  0  0  0  0  0  0  0  0  0  0
   52.0711    3.2838   18.0159 C   0  0  0  0  0  0  0  0  0  0  0  0
   50.8418    2.6317   17.9390 C   0  0  0  0  0  0  0  0  0  0  0  0
   39.7491   15.9797   11.9801 H   0  0  0  0  0  0  0  0  0  0  0  0
   38.7848   16.7167   10.6938 H   0  0  0  0  0  0  0  0  0  0  0  0
   37.0750   13.7547   12.9279 H   0  0  0  0  0  0  0  0  0  0  0  0
   38.7398   14.2239   13.2977 H   0  0  0  0  0  0  0  0  0  0  0  0
   38.6920   12.0734   12.0457 H   0  0  0  0  0  0  0  0  0  0  0  0
   37.7284   12.8165   10.7526 H   0  0  0  0  0  0  0  0  0  0  0  0
   40.4630   15.1395    9.7639 H   0  0  0  0  0  0  0  0  0  0  0  0
   38.8028   14.6517    9.3685 H   0  0  0  0  0  0  0  0  0  0  0  0
   40.1881   11.4323   10.3400 H   0  0  0  0  0  0  0  0  0  0  0  0
   39.4329   12.3274    9.0224 H   0  0  0  0  0  0  0  0  0  0  0  0
   41.6046   13.5929    8.7009 H   0  0  0  0  0  0  0  0  0  0  0  0
   41.7574   11.8916    8.4034 H   0  0  0  0  0  0  0  0  0  0  0  0
   42.0111   10.0062    9.3916 H   0  0  0  0  0  0  0  0  0  0  0  0
   44.4651   12.5329   11.8690 H   0  0  0  0  0  0  0  0  0  0  0  0
   45.6209   10.5509   12.7453 H   0  0  0  0  0  0  0  0  0  0  0  0
   43.1618    8.0473   10.2366 H   0  0  0  0  0  0  0  0  0  0  0  0
   43.3843    6.8659   12.6457 H   0  0  0  0  0  0  0  0  0  0  0  0
   47.1901    8.6194   11.6684 H   0  0  0  0  0  0  0  0  0  0  0  0
   44.6012    4.8876   13.4852 H   0  0  0  0  0  0  0  0  0  0  0  0
   48.3409    4.5460   13.1486 H   0  0  0  0  0  0  0  0  0  0  0  0
   46.8639    3.5972   13.1847 H   0  0  0  0  0  0  0  0  0  0  0  0
   47.6497    5.1134   17.5769 H   0  0  0  0  0  0  0  0  0  0  0  0
   48.6191    6.5526   17.2637 H   0  0  0  0  0  0  0  0  0  0  0  0
   48.8264    5.9719   14.9682 H   0  0  0  0  0  0  0  0  0  0  0  0
   48.7350    2.8295   17.5491 H   0  0  0  0  0  0  0  0  0  0  0  0
   51.0777    6.4412   17.2497 H   0  0  0  0  0  0  0  0  0  0  0  0
   53.1104    5.1595   17.8216 H   0  0  0  0  0  0  0  0  0  0  0  0
   52.9681    2.7233   18.2661 H   0  0  0  0  0  0  0  0  0  0  0  0
   50.7784    1.5631   18.1270 H   0  0  0  0  0  0  0  0  0  0  0  0
  1  2  1  0
  2  3  1  0
  3  4  1  0
  4  5  1  0
  5  6  1  0
  1  6  1  0
  7  8  1  0
  5  7  1  0
  9 10  1  0
 10 11  2  0
  8  9  1  0
 12 13  2  0
 13 14  1  0
 14 15  2  0
 10 12  1  0
 11 15  1  0
 16 17  2  0
 16 14  1  0
 18 19  2  0
 19 20  1  0
 20 21  2  0
 17 21  1  0
 16 18  1  0
 22 23  2  0
 23 24  1  0
 20 24  1  0
 25 26  1  0
 23 26  1  0
 27 28  2  0
 25 28  1  0
 29 30  2  0
 30 31  1  0
 31 32  2  0
 27 32  1  0
 28 29  1  0
  1 33  1  0
  1 34  1  0
  3 35  1  0
  3 36  1  0
  4 37  1  0
  4 38  1  0
  6 39  1  0
  6 40  1  0
  7 41  1  0
  7 42  1  0
  8 43  1  0
  8 44  1  0
 11 45  1  0
 12 46  1  0
 13 47  1  0
 15 48  1  0
 17 49  1  0
 18 50  1  0
 21 51  1  0
 24 52  1  0
 24 53  1  0
 25 54  1  0
 25 55  1  0
 26 56  1  0
 27 57  1  0
 29 58  1  0
 30 59  1  0
 31 60  1  0
 32 61  1  0
M  END
> <Uni-Dock RESULT> 
ENERGY=   -4.351  LOWER_BOUND=    6.543  UPPER_BOUND=   13.311
INTER + INTRA:          -4.351
INTER:                  -4.351
INTRA:                   0.000
UNBOUND:                 0.000

$$$$

     RDKit          3D

 61 64  0  0  0  0  0  0  0  0999 V2000
   46.0257    1.3127    8.1186 C   0  0  0  0  0  0  0  0  0  0  0  0
   46.4501    1.7688    6.8275 O   0  0  0  0  0  0  0  0  0  0  0  0
   47.1568    3.0081    6.9616 C   0  0  0  0  0  0  0  0  0  0  0  0
   46.2678    4.0816    7.6082 C   0  0  0  0  0  0  0  0  0  0  0  0
   45.7770    3.6564    8.9378 N   0  0  0  0  0  0  0  0  0  0  0  0
   45.1115    2.3440    8.8026 C   0  0  0  0  0  0  0  0  0  0  0  0
   44.8838    4.6869    9.5064 C   0  0  0  0  0  0  0  0  0  0  0  0
   44.4760    4.4649   10.9775 C   0  0  0  0  0  0  0  0  0  0  0  0
   45.6003    4.4496   11.8588 O   0  0  0  0  0  0  0  0  0  0  0  0
   46.0810    5.6300   12.3480 C   0  0  0  0  0  0  0  0  0  0  0  0
   45.5990    6.9057   12.0689 C   0  0  0  0  0  0  0  0  0  0  0  0
   47.1693    5.4956   13.2114 C   0  0  0  0  0  0  0  0  0  0  0  0
   47.7687    6.6178   13.7935 C   0  0  0  0  0  0  0  0  0  0  0  0
   47.2926    7.9086   13.5239 C   0  0  0  0  0  0  0  0  0  0  0  0
   46.1995    8.0311   12.6511 C   0  0  0  0  0  0  0  0  0  0  0  0
   47.9163    9.0932   14.1295 C   0  0  0  0  0  0  0  0  0  0  0  0
   48.3342   10.1839   13.3590 C   0  0  0  0  0  0  0  0  0  0  0  0
   48.1279    9.1968   15.5045 C   0  0  0  0  0  0  0  0  0  0  0  0
   48.7002   10.2586   16.1272 N   0  0  0  0  0  0  0  0  0  0  0  0
   49.0845   11.2986   15.3476 C   0  0  0  0  0  0  0  0  0  0  0  0
   48.9227   11.2935   13.9656 C   0  0  0  0  0  0  0  0  0  0  0  0
   51.7874   13.2059   15.0436 O   0  0  0  0  0  0  0  0  0  0  0  0
   51.2300   12.4631   15.8474 C   0  0  0  0  0  0  0  0  0  0  0  0
   49.7298   12.4673   16.0377 C   0  0  0  0  0  0  0  0  0  0  0  0
   53.3353   11.4655   16.6745 C   0  0  0  0  0  0  0  0  0  0  0  0
   51.8960   11.5616   16.6449 N   0  0  0  0  0  0  0  0  0  0  0  0
   54.1395   13.5935   17.7617 C   0  0  0  0  0  0  0  0  0  0  0  0
   53.8974   12.2148   17.8543 C   0  0  0  0  0  0  0  0  0  0  0  0
   54.1502   11.5612   19.0687 C   0  0  0  0  0  0  0  0  0  0  0  0
   54.6528   12.2703   20.1618 C   0  0  0  0  0  0  0  0  0  0  0  0
   54.9010   13.6379   20.0538 C   0  0  0  0  0  0  0  0  0  0  0  0
   54.6425   14.3000   18.8550 C   0  0  0  0  0  0  0  0  0  0  0  0
   46.9071    1.0926    8.7330 H   0  0  0  0  0  0  0  0  0  0  0  0
   45.4800    0.3749    7.9740 H   0  0  0  0  0  0  0  0  0  0  0  0
   47.4544    3.3289    5.9582 H   0  0  0  0  0  0  0  0  0  0  0  0
   48.0716    2.8437    7.5433 H   0  0  0  0  0  0  0  0  0  0  0  0
   46.8494    5.0060    7.7021 H   0  0  0  0  0  0  0  0  0  0  0  0
   45.4157    4.2823    6.9449 H   0  0  0  0  0  0  0  0  0  0  0  0
   44.8363    1.9479    9.7851 H   0  0  0  0  0  0  0  0  0  0  0  0
   44.1948    2.4520    8.2087 H   0  0  0  0  0  0  0  0  0  0  0  0
   45.4015    5.6516    9.4472 H   0  0  0  0  0  0  0  0  0  0  0  0
   43.9740    4.7745    8.8987 H   0  0  0  0  0  0  0  0  0  0  0  0
   43.9780    3.4957   11.0863 H   0  0  0  0  0  0  0  0  0  0  0  0
   43.7252    5.1985   11.2935 H   0  0  0  0  0  0  0  0  0  0  0  0
   44.7602    7.0727   11.4032 H   0  0  0  0  0  0  0  0  0  0  0  0
   47.5599    4.5044   13.4305 H   0  0  0  0  0  0  0  0  0  0  0  0
   48.6243    6.4693   14.4493 H   0  0  0  0  0  0  0  0  0  0  0  0
   45.7927    9.0148   12.4217 H   0  0  0  0  0  0  0  0  0  0  0  0
   48.2194   10.1719   12.2773 H   0  0  0  0  0  0  0  0  0  0  0  0
   47.8222    8.3988   16.1775 H   0  0  0  0  0  0  0  0  0  0  0  0
   49.2569   12.1331   13.3622 H   0  0  0  0  0  0  0  0  0  0  0  0
   49.5042   12.4495   17.1110 H   0  0  0  0  0  0  0  0  0  0  0  0
   49.3221   13.4090   15.6519 H   0  0  0  0  0  0  0  0  0  0  0  0
   53.7670   11.8461   15.7419 H   0  0  0  0  0  0  0  0  0  0  0  0
   53.5920   10.4025   16.7393 H   0  0  0  0  0  0  0  0  0  0  0  0
   51.3620   11.0030   17.3015 H   0  0  0  0  0  0  0  0  0  0  0  0
   53.9305   14.1218   16.8323 H   0  0  0  0  0  0  0  0  0  0  0  0
   53.9582   10.4954   19.1712 H   0  0  0  0  0  0  0  0  0  0  0  0
   54.8499   11.7562   21.0991 H   0  0  0  0  0  0  0  0  0  0  0  0
   55.2924   14.1893   20.9048 H   0  0  0  0  0  0  0  0  0  0  0  0
   54.8295   15.3673   18.7698 H   0  0  0  0  0  0  0  0  0  0  0  0
  1  2  1  0
  2  3  1  0
  3  4  1  0
  4  5  1  0
  5  6  1  0
  1  6  1  0
  7  8  1  0
  5  7  1  0
  9 10  1  0
 10 11  2  0
  8  9  1  0
 12 13  2  0
 13 14  1  0
 14 15  2  0
 10 12  1  0
 11 15  1  0
 16 17  2  0
 16 14  1  0
 18 19  2  0
 19 20  1  0
 20 21  2  0
 17 21  1  0
 16 18  1  0
 22 23  2  0
 23 24  1  0
 20 24  1  0
 25 26  1  0
 23 26  1  0
 27 28  2  0
 25 28  1  0
 29 30  2  0
 30 31  1  0
 31 32  2  0
 27 32  1  0
 28 29  1  0
  1 33  1  0
  1 34  1  0
  3 35  1  0
  3 36  1  0
  4 37  1  0
  4 38  1  0
  6 39  1  0
  6 40  1  0
  7 41  1  0
  7 42  1  0
  8 43  1  0
  8 44  1  0
 11 45  1  0
 12 46  1  0
 13 47  1  0
 15 48  1  0
 17 49  1  0
 18 50  1  0
 21 51  1  0
 24 52  1  0
 24 53  1  0
 25 54  1  0
 25 55  1  0
 26 56  1  0
 27 57  1  0
 29 58  1  0
 30 59  1  0
 31 60  1  0
 32 61  1  0
M  END
> <Uni-Dock RESULT> 
ENERGY=   -4.326  LOWER_BOUND=    5.073  UPPER_BOUND=   13.569
INTER + INTRA:          -4.326
INTER:                  -4.326
INTRA:                   0.000
UNBOUND:                 0.000

$$$$

     RDKit          3D

 61 64  0  0  0  0  0  0  0  0999 V2000
   40.8607   19.0382   23.3707 C   0  0  0  0  0  0  0  0  0  0  0  0
   41.3880   18.0148   24.2250 O   0  0  0  0  0  0  0  0  0  0  0  0
   41.7327   16.8640   23.4439 C   0  0  0  0  0  0  0  0  0  0  0  0
   40.5052   16.3161   22.6996 C   0  0  0  0  0  0  0  0  0  0  0  0
   39.9001   17.3383   21.8171 N   0  0  0  0  0  0  0  0  0  0  0  0
   39.6128   18.5477   22.6161 C   0  0  0  0  0  0  0  0  0  0  0  0
   38.6934   16.7958   21.1594 C   0  0  0  0  0  0  0  0  0  0  0  0
   38.0916   17.6854   20.0520 C   0  0  0  0  0  0  0  0  0  0  0  0
   39.0055   17.9117   18.9775 O   0  0  0  0  0  0  0  0  0  0  0  0
   39.0848   16.9992   17.9652 C   0  0  0  0  0  0  0  0  0  0  0  0
   38.3638   15.8137   17.8537 C   0  0  0  0  0  0  0  0  0  0  0  0
   39.9969   17.3294   16.9617 C   0  0  0  0  0  0  0  0  0  0  0  0
   40.1865   16.4911   15.8577 C   0  0  0  0  0  0  0  0  0  0  0  0
   39.4657   15.2953   15.7304 C   0  0  0  0  0  0  0  0  0  0  0  0
   38.5537   14.9725   16.7481 C   0  0  0  0  0  0  0  0  0  0  0  0
   39.6589   14.4079   14.5753 C   0  0  0  0  0  0  0  0  0  0  0  0
   39.9296   13.0437   14.7284 C   0  0  0  0  0  0  0  0  0  0  0  0
   39.5846   14.8748   13.2628 C   0  0  0  0  0  0  0  0  0  0  0  0
   39.7558   14.1118   12.1532 N   0  0  0  0  0  0  0  0  0  0  0  0
   40.0087   12.7938   12.3427 C   0  0  0  0  0  0  0  0  0  0  0  0
   40.1076   12.2288   13.6105 C   0  0  0  0  0  0  0  0  0  0  0  0
   42.1702   10.5655   11.1599 O   0  0  0  0  0  0  0  0  0  0  0  0
   41.6752   11.6547   10.8818 C   0  0  0  0  0  0  0  0  0  0  0  0
   40.2110   11.9537   11.1132 C   0  0  0  0  0  0  0  0  0  0  0  0
   43.7739   12.5885    9.9682 C   0  0  0  0  0  0  0  0  0  0  0  0
   42.3853   12.7022   10.3427 N   0  0  0  0  0  0  0  0  0  0  0  0
   43.8200   11.0408    7.9783 C   0  0  0  0  0  0  0  0  0  0  0  0
   43.9107   12.3446    8.4879 C   0  0  0  0  0  0  0  0  0  0  0  0
   44.0906   13.4112    7.5957 C   0  0  0  0  0  0  0  0  0  0  0  0
   44.1963   13.1747    6.2235 C   0  0  0  0  0  0  0  0  0  0  0  0
   44.1170   11.8731    5.7301 C   0  0  0  0  0  0  0  0  0  0  0  0
   43.9267   10.8065    6.6067 C   0  0  0  0  0  0  0  0  0  0  0  0
   41.6421   19.3682   22.6755 H   0  0  0  0  0  0  0  0  0  0  0  0
   40.5973   19.8920   24.0028 H   0  0  0  0  0  0  0  0  0  0  0  0
   42.1201   16.1035   24.1292 H   0  0  0  0  0  0  0  0  0  0  0  0
   42.5382   17.1255   22.7474 H   0  0  0  0  0  0  0  0  0  0  0  0
   40.8153   15.4471   22.1078 H   0  0  0  0  0  0  0  0  0  0  0  0
   39.7654   15.9781   23.4375 H   0  0  0  0  0  0  0  0  0  0  0  0
   39.2690   19.3629   21.9720 H   0  0  0  0  0  0  0  0  0  0  0  0
   38.8215   18.3315   23.3454 H   0  0  0  0  0  0  0  0  0  0  0  0
   38.9605   15.8345   20.7048 H   0  0  0  0  0  0  0  0  0  0  0  0
   37.9162   16.5909   21.9068 H   0  0  0  0  0  0  0  0  0  0  0  0
   37.8353   18.6691   20.4592 H   0  0  0  0  0  0  0  0  0  0  0  0
   37.1393   17.2780   19.6931 H   0  0  0  0  0  0  0  0  0  0  0  0
   37.6454   15.5027   18.6032 H   0  0  0  0  0  0  0  0  0  0  0  0
   40.5719   18.2491   17.0421 H   0  0  0  0  0  0  0  0  0  0  0  0
   40.9183   16.7789   15.1054 H   0  0  0  0  0  0  0  0  0  0  0  0
   37.9668   14.0574   16.6840 H   0  0  0  0  0  0  0  0  0  0  0  0
   40.0202   12.6068   15.7205 H   0  0  0  0  0  0  0  0  0  0  0  0
   39.3667   15.9199   13.0542 H   0  0  0  0  0  0  0  0  0  0  0  0
   40.3298   11.1723   13.7341 H   0  0  0  0  0  0  0  0  0  0  0  0
   39.8052   12.4637   10.2309 H   0  0  0  0  0  0  0  0  0  0  0  0
   39.6621   11.0090   11.2037 H   0  0  0  0  0  0  0  0  0  0  0  0
   44.2615   11.7854   10.5322 H   0  0  0  0  0  0  0  0  0  0  0  0
   44.2673   13.5256   10.2483 H   0  0  0  0  0  0  0  0  0  0  0  0
   41.8942   13.5605   10.1181 H   0  0  0  0  0  0  0  0  0  0  0  0
   43.6606   10.2017    8.6545 H   0  0  0  0  0  0  0  0  0  0  0  0
   44.1504   14.4331    7.9636 H   0  0  0  0  0  0  0  0  0  0  0  0
   44.3394   14.0061    5.5380 H   0  0  0  0  0  0  0  0  0  0  0  0
   44.1995   11.6896    4.6620 H   0  0  0  0  0  0  0  0  0  0  0  0
   43.8586    9.7914    6.2244 H   0  0  0  0  0  0  0  0  0  0  0  0
  1  2  1  0
  2  3  1  0
  3  4  1  0
  4  5  1  0
  5  6  1  0
  1  6  1  0
  7  8  1  0
  5  7  1  0
  9 10  1  0
 10 11  2  0
  8  9  1  0
 12 13  2  0
 13 14  1  0
 14 15  2  0
 10 12  1  0
 11 15  1  0
 16 17  2  0
 16 14  1  0
 18 19  2  0
 19 20  1  0
 20 21  2  0
 17 21  1  0
 16 18  1  0
 22 23  2  0
 23 24  1  0
 20 24  1  0
 25 26  1  0
 23 26  1  0
 27 28  2  0
 25 28  1  0
 29 30  2  0
 30 31  1  0
 31 32  2  0
 27 32  1  0
 28 29  1  0
  1 33  1  0
  1 34  1  0
  3 35  1  0
  3 36  1  0
  4 37  1  0
  4 38  1  0
  6 39  1  0
  6 40  1  0
  7 41  1  0
  7 42  1  0
  8 43  1  0
  8 44  1  0
 11 45  1  0
 12 46  1  0
 13 47  1  0
 15 48  1  0
 17 49  1  0
 18 50  1  0
 21 51  1  0
 24 52  1  0
 24 53  1  0
 25 54  1  0
 25 55  1  0
 26 56  1  0
 27 57  1  0
 29 58  1  0
 30 59  1  0
 31 60  1  0
 32 61  1  0
M  END
> <Uni-Dock RESULT> 
ENERGY=   -4.297  LOWER_BOUND=   12.687  UPPER_BOUND=   13.983
INTER + INTRA:          -4.297
INTER:                  -4.297
INTRA:                   0.000
UNBOUND:                 0.000

$$$$

     RDKit          3D

 61 64  0  0  0  0  0  0  0  0999 V2000
   56.5622   12.8184   22.0862 C   0  0  0  0  0  0  0  0  0  0  0  0
   57.7718   12.2098   21.6156 O   0  0  0  0  0  0  0  0  0  0  0  0
   57.4552   11.1022   20.7634 C   0  0  0  0  0  0  0  0  0  0  0  0
   56.6212   10.0518   21.5130 C   0  0  0  0  0  0  0  0  0  0  0  0
   55.3668   10.6285   22.0456 N   0  0  0  0  0  0  0  0  0  0  0  0
   55.6975   11.8125   22.8657 C   0  0  0  0  0  0  0  0  0  0  0  0
   54.6167    9.6069   22.8049 C   0  0  0  0  0  0  0  0  0  0  0  0
   53.1918   10.0177   23.2300 C   0  0  0  0  0  0  0  0  0  0  0  0
   52.3524   10.3110   22.1118 O   0  0  0  0  0  0  0  0  0  0  0  0
   51.6895    9.2925   21.4895 C   0  0  0  0  0  0  0  0  0  0  0  0
   51.7456    7.9402   21.8148 C   0  0  0  0  0  0  0  0  0  0  0  0
   50.8862    9.6953   20.4216 C   0  0  0  0  0  0  0  0  0  0  0  0
   50.1441    8.7632   19.6881 C   0  0  0  0  0  0  0  0  0  0  0  0
   50.1886    7.3984   20.0057 C   0  0  0  0  0  0  0  0  0  0  0  0
   51.0029    7.0053   21.0798 C   0  0  0  0  0  0  0  0  0  0  0  0
   49.4137    6.4119   19.2404 C   0  0  0  0  0  0  0  0  0  0  0  0
   50.0065    5.2669   18.6971 C   0  0  0  0  0  0  0  0  0  0  0  0
   48.0457    6.5616   19.0116 C   0  0  0  0  0  0  0  0  0  0  0  0
   47.2727    5.6921   18.3122 N   0  0  0  0  0  0  0  0  0  0  0  0
   47.8819    4.5912   17.8083 C   0  0  0  0  0  0  0  0  0  0  0  0
   49.2420    4.3499   17.9758 C   0  0  0  0  0  0  0  0  0  0  0  0
   47.9373    2.9943   14.8958 O   0  0  0  0  0  0  0  0  0  0  0  0
   47.2517    3.7877   15.5354 C   0  0  0  0  0  0  0  0  0  0  0  0
   47.0269    3.6369   17.0232 C   0  0  0  0  0  0  0  0  0  0  0  0
   46.6494    5.1504   13.5627 C   0  0  0  0  0  0  0  0  0  0  0  0
   46.6280    4.8806   14.9798 N   0  0  0  0  0  0  0  0  0  0  0  0
   45.2504    3.3408   12.5019 C   0  0  0  0  0  0  0  0  0  0  0  0
   45.3774    4.6773   12.9086 C   0  0  0  0  0  0  0  0  0  0  0  0
   44.2920    5.5470   12.7313 C   0  0  0  0  0  0  0  0  0  0  0  0
   43.1107    5.0920   12.1416 C   0  0  0  0  0  0  0  0  0  0  0  0
   43.0009    3.7644   11.7301 C   0  0  0  0  0  0  0  0  0  0  0  0
   44.0694    2.8883   11.9121 C   0  0  0  0  0  0  0  0  0  0  0  0
   56.0134   13.2395   21.2352 H   0  0  0  0  0  0  0  0  0  0  0  0
   56.8440   13.6481   22.7421 H   0  0  0  0  0  0  0  0  0  0  0  0
   58.4000   10.6585   20.4337 H   0  0  0  0  0  0  0  0  0  0  0  0
   56.9305   11.4674   19.8727 H   0  0  0  0  0  0  0  0  0  0  0  0
   56.3924    9.2311   20.8233 H   0  0  0  0  0  0  0  0  0  0  0  0
   57.2220    9.6451   22.3375 H   0  0  0  0  0  0  0  0  0  0  0  0
   54.7861   12.3291   23.1824 H   0  0  0  0  0  0  0  0  0  0  0  0
   56.2434   11.5003   23.7653 H   0  0  0  0  0  0  0  0  0  0  0  0
   54.5308    8.7139   22.1745 H   0  0  0  0  0  0  0  0  0  0  0  0
   55.1797    9.3132   23.7002 H   0  0  0  0  0  0  0  0  0  0  0  0
   53.2300   10.9256   23.8411 H   0  0  0  0  0  0  0  0  0  0  0  0
   52.7426    9.2622   23.8850 H   0  0  0  0  0  0  0  0  0  0  0  0
   52.3547    7.5678   22.6302 H   0  0  0  0  0  0  0  0  0  0  0  0
   50.8408   10.7483   20.1529 H   0  0  0  0  0  0  0  0  0  0  0  0
   49.5422    9.1180   18.8538 H   0  0  0  0  0  0  0  0  0  0  0  0
   51.0593    5.9560   21.3656 H   0  0  0  0  0  0  0  0  0  0  0  0
   51.0726    5.0871   18.8173 H   0  0  0  0  0  0  0  0  0  0  0  0
   47.5042    7.4175   19.4086 H   0  0  0  0  0  0  0  0  0  0  0  0
   49.7088    3.4682   17.5451 H   0  0  0  0  0  0  0  0  0  0  0  0
   45.9656    3.8040   17.2444 H   0  0  0  0  0  0  0  0  0  0  0  0
   47.2443    2.6029   17.3156 H   0  0  0  0  0  0  0  0  0  0  0  0
   47.5179    4.6756   13.0923 H   0  0  0  0  0  0  0  0  0  0  0  0
   46.7646    6.2324   13.4362 H   0  0  0  0  0  0  0  0  0  0  0  0
   46.0581    5.4721   15.5745 H   0  0  0  0  0  0  0  0  0  0  0  0
   46.0762    2.6458   12.6496 H   0  0  0  0  0  0  0  0  0  0  0  0
   44.3596    6.5846   13.0504 H   0  0  0  0  0  0  0  0  0  0  0  0
   42.2745    5.7728   12.0040 H   0  0  0  0  0  0  0  0  0  0  0  0
   42.0813    3.4108   11.2711 H   0  0  0  0  0  0  0  0  0  0  0  0
   43.9844    1.8514   11.5976 H   0  0  0  0  0  0  0  0  0  0  0  0
  1  2  1  0
  2  3  1  0
  3  4  1  0
  4  5  1  0
  5  6  1  0
  1  6  1  0
  7  8  1  0
  5  7  1  0
  9 10  1  0
 10 11  2  0
  8  9  1  0
 12 13  2  0
 13 14  1  0
 14 15  2  0
 10 12  1  0
 11 15  1  0
 16 17  2  0
 16 14  1  0
 18 19  2  0
 19 20  1  0
 20 21  2  0
 17 21  1  0
 16 18  1  0
 22 23  2  0
 23 24  1  0
 20 24  1  0
 25 26  1  0
 23 26  1  0
 27 28  2  0
 25 28  1  0
 29 30  2  0
 30 31  1  0
 31 32  2  0
 27 32  1  0
 28 29  1  0
  1 33  1  0
  1 34  1  0
  3 35  1  0
  3 36  1  0
  4 37  1  0
  4 38  1  0
  6 39  1  0
  6 40  1  0
  7 41  1  0
  7 42  1  0
  8 43  1  0
  8 44  1  0
 11 45  1  0
 12 46  1  0
 13 47  1  0
 15 48  1  0
 17 49  1  0
 18 50  1  0
 21 51  1  0
 24 52  1  0
 24 53  1  0
 25 54  1  0
 25 55  1  0
 26 56  1  0
 27 57  1  0
 29 58  1  0
 30 59  1  0
 31 60  1  0
 32 61  1  0
M  END
> <Uni-Dock RESULT> 
ENERGY=   -4.249  LOWER_BOUND=    0.831  UPPER_BOUND=    0.870
INTER + INTRA:          -4.249
INTER:                  -4.249
INTRA:                   0.000
UNBOUND:                 0.000

$$$$

     RDKit          3D

 61 64  0  0  0  0  0  0  0  0999 V2000
   41.2884   18.1660   11.7658 C   0  0  0  0  0  0  0  0  0  0  0  0
   39.9663   17.8397   12.2139 O   0  0  0  0  0  0  0  0  0  0  0  0
   39.9459   16.5005   12.7230 C   0  0  0  0  0  0  0  0  0  0  0  0
   40.3747   15.4946   11.6436 C   0  0  0  0  0  0  0  0  0  0  0  0
   41.7268   15.7953   11.1227 N   0  0  0  0  0  0  0  0  0  0  0  0
   41.7593   17.2000   10.6649 C   0  0  0  0  0  0  0  0  0  0  0  0
   42.0850   14.8433   10.0511 C   0  0  0  0  0  0  0  0  0  0  0  0
   43.5499   14.9124    9.5725 C   0  0  0  0  0  0  0  0  0  0  0  0
   44.4796   14.6288   10.6194 O   0  0  0  0  0  0  0  0  0  0  0  0
   44.8071   13.3310   10.8878 C   0  0  0  0  0  0  0  0  0  0  0  0
   44.3124   12.1975   10.2490 C   0  0  0  0  0  0  0  0  0  0  0  0
   45.7355   13.1720   11.9177 C   0  0  0  0  0  0  0  0  0  0  0  0
   46.1697   11.8996   12.3048 C   0  0  0  0  0  0  0  0  0  0  0  0
   45.6823   10.7490   11.6690 C   0  0  0  0  0  0  0  0  0  0  0  0
   44.7462   10.9218   10.6368 C   0  0  0  0  0  0  0  0  0  0  0  0
   46.1313    9.4084   12.0694 C   0  0  0  0  0  0  0  0  0  0  0  0
   45.2260    8.3882   12.3814 C   0  0  0  0  0  0  0  0  0  0  0  0
   47.4835    9.0779   12.1622 C   0  0  0  0  0  0  0  0  0  0  0  0
   47.9655    7.8629   12.5282 N   0  0  0  0  0  0  0  0  0  0  0  0
   47.0572    6.8987   12.8151 C   0  0  0  0  0  0  0  0  0  0  0  0
   45.6856    7.1263   12.7578 C   0  0  0  0  0  0  0  0  0  0  0  0
   46.6048    4.6629   15.2302 O   0  0  0  0  0  0  0  0  0  0  0  0
   47.4829    5.3596   14.7280 C   0  0  0  0  0  0  0  0  0  0  0  0
   47.5931    5.5583   13.2329 C   0  0  0  0  0  0  0  0  0  0  0  0
   48.5593    5.8939   16.8883 C   0  0  0  0  0  0  0  0  0  0  0  0
   48.4416    6.0248   15.4564 N   0  0  0  0  0  0  0  0  0  0  0  0
   49.3490    3.5343   17.2956 C   0  0  0  0  0  0  0  0  0  0  0  0
   49.6382    4.9062   17.2485 C   0  0  0  0  0  0  0  0  0  0  0  0
   50.9495    5.3327   17.5027 C   0  0  0  0  0  0  0  0  0  0  0  0
   51.9459    4.4059   17.8163 C   0  0  0  0  0  0  0  0  0  0  0  0
   51.6435    3.0461   17.8723 C   0  0  0  0  0  0  0  0  0  0  0  0
   50.3461    2.6099   17.6099 C   0  0  0  0  0  0  0  0  0  0  0  0
   41.9735   18.1582   12.6222 H   0  0  0  0  0  0  0  0  0  0  0  0
   41.2607   19.1873   11.3729 H   0  0  0  0  0  0  0  0  0  0  0  0
   38.9219   16.2848   13.0443 H   0  0  0  0  0  0  0  0  0  0  0  0
   40.5919   16.4377   13.6066 H   0  0  0  0  0  0  0  0  0  0  0  0
   40.3563   14.4882   12.0776 H   0  0  0  0  0  0  0  0  0  0  0  0
   39.6458   15.5239   10.8226 H   0  0  0  0  0  0  0  0  0  0  0  0
   42.7753   17.4888   10.3781 H   0  0  0  0  0  0  0  0  0  0  0  0
   41.1097   17.3199    9.7884 H   0  0  0  0  0  0  0  0  0  0  0  0
   41.9059   13.8292   10.4274 H   0  0  0  0  0  0  0  0  0  0  0  0
   41.4252   14.9841    9.1853 H   0  0  0  0  0  0  0  0  0  0  0  0
   43.7795   15.9208    9.2126 H   0  0  0  0  0  0  0  0  0  0  0  0
   43.7113   14.2650    8.7027 H   0  0  0  0  0  0  0  0  0  0  0  0
   43.5868   12.2582    9.4462 H   0  0  0  0  0  0  0  0  0  0  0  0
   46.1230   14.0499   12.4298 H   0  0  0  0  0  0  0  0  0  0  0  0
   46.8835   11.8197   13.1224 H   0  0  0  0  0  0  0  0  0  0  0  0
   44.3489   10.0551   10.1105 H   0  0  0  0  0  0  0  0  0  0  0  0
   44.1543    8.5723   12.3493 H   0  0  0  0  0  0  0  0  0  0  0  0
   48.2537    9.8088   11.9259 H   0  0  0  0  0  0  0  0  0  0  0  0
   44.9792    6.3405   13.0111 H   0  0  0  0  0  0  0  0  0  0  0  0
   48.6436    5.4567   12.9339 H   0  0  0  0  0  0  0  0  0  0  0  0
   47.0479    4.7552   12.7233 H   0  0  0  0  0  0  0  0  0  0  0  0
   47.6030    5.5890   17.3281 H   0  0  0  0  0  0  0  0  0  0  0  0
   48.7985    6.8846   17.2900 H   0  0  0  0  0  0  0  0  0  0  0  0
   49.1474    6.5589   14.9616 H   0  0  0  0  0  0  0  0  0  0  0  0
   48.3405    3.1828   17.0816 H   0  0  0  0  0  0  0  0  0  0  0  0
   51.2033    6.3895   17.4592 H   0  0  0  0  0  0  0  0  0  0  0  0
   52.9596    4.7441   18.0159 H   0  0  0  0  0  0  0  0  0  0  0  0
   52.4194    2.3252   18.1165 H   0  0  0  0  0  0  0  0  0  0  0  0
   50.1088    1.5499   17.6471 H   0  0  0  0  0  0  0  0  0  0  0  0
  1  2  1  0
  2  3  1  0
  3  4  1  0
  4  5  1  0
  5  6  1  0
  1  6  1  0
  7  8  1  0
  5  7  1  0
  9 10  1  0
 10 11  2  0
  8  9  1  0
 12 13  2  0
 13 14  1  0
 14 15  2  0
 10 12  1  0
 11 15  1  0
 16 17  2  0
 16 14  1  0
 18 19  2  0
 19 20  1  0
 20 21  2  0
 17 21  1  0
 16 18  1  0
 22 23  2  0
 23 24  1  0
 20 24  1  0
 25 26  1  0
 23 26  1  0
 27 28  2  0
 25 28  1  0
 29 30  2  0
 30 31  1  0
 31 32  2  0
 27 32  1  0
 28 29  1  0
  1 33  1  0
  1 34  1  0
  3 35  1  0
  3 36  1  0
  4 37  1  0
  4 38  1  0
  6 39  1  0
  6 40  1  0
  7 41  1  0
  7 42  1  0
  8 43  1  0
  8 44  1  0
 11 45  1  0
 12 46  1  0
 13 47  1  0
 15 48  1  0
 17 49  1  0
 18 50  1  0
 21 51  1  0
 24 52  1  0
 24 53  1  0
 25 54  1  0
 25 55  1  0
 26 56  1  0
 27 57  1  0
 29 58  1  0
 30 59  1  0
 31 60  1  0
 32 61  1  0
M  END
> <Uni-Dock RESULT> 
ENERGY=   -3.878  LOWER_BOUND=    7.492  UPPER_BOUND=   12.745
INTER + INTRA:          -3.878
INTER:                  -3.878
INTRA:                   0.000
UNBOUND:                 0.000

$$$$

     RDKit          3D

 61 64  0  0  0  0  0  0  0  0999 V2000
   49.9613   18.6624   21.5889 C   0  0  0  0  0  0  0  0  0  0  0  0
   50.5795   19.5249   20.6250 O   0  0  0  0  0  0  0  0  0  0  0  0
   50.6342   18.8670   19.3533 C   0  0  0  0  0  0  0  0  0  0  0  0
   51.4339   17.5582   19.4446 C   0  0  0  0  0  0  0  0  0  0  0  0
   50.8562   16.6335   20.4450 N   0  0  0  0  0  0  0  0  0  0  0  0
   50.7376   17.3422   21.7362 C   0  0  0  0  0  0  0  0  0  0  0  0
   51.6789   15.4103   20.5454 C   0  0  0  0  0  0  0  0  0  0  0  0
   51.0695   14.2755   21.3942 C   0  0  0  0  0  0  0  0  0  0  0  0
   49.8202   13.8167   20.8750 O   0  0  0  0  0  0  0  0  0  0  0  0
   49.8130   12.8610   19.9002 C   0  0  0  0  0  0  0  0  0  0  0  0
   50.9235   12.2626   19.3117 C   0  0  0  0  0  0  0  0  0  0  0  0
   48.5390   12.4762   19.4797 C   0  0  0  0  0  0  0  0  0  0  0  0
   48.3720   11.5041   18.4874 C   0  0  0  0  0  0  0  0  0  0  0  0
   49.4809   10.8909   17.8875 C   0  0  0  0  0  0  0  0  0  0  0  0
   50.7572   11.2889   18.3166 C   0  0  0  0  0  0  0  0  0  0  0  0
   49.3156    9.8699   16.8437 C   0  0  0  0  0  0  0  0  0  0  0  0
   49.9756    9.9573   15.6131 C   0  0  0  0  0  0  0  0  0  0  0  0
   48.4915    8.7581   17.0200 C   0  0  0  0  0  0  0  0  0  0  0  0
   48.2919    7.7819   16.0981 N   0  0  0  0  0  0  0  0  0  0  0  0
   48.9548    7.8982   14.9217 C   0  0  0  0  0  0  0  0  0  0  0  0
   49.7969    8.9705   14.6437 C   0  0  0  0  0  0  0  0  0  0  0  0
   48.1975    7.6324   11.6980 O   0  0  0  0  0  0  0  0  0  0  0  0
   47.7877    7.2928   12.8050 C   0  0  0  0  0  0  0  0  0  0  0  0
   48.7219    6.8233   13.8975 C   0  0  0  0  0  0  0  0  0  0  0  0
   45.4061    7.6377   12.2391 C   0  0  0  0  0  0  0  0  0  0  0  0
   46.4604    7.3048   13.1660 N   0  0  0  0  0  0  0  0  0  0  0  0
   45.3272    5.7378   10.5835 C   0  0  0  0  0  0  0  0  0  0  0  0
   44.7633    6.3910   11.6894 C   0  0  0  0  0  0  0  0  0  0  0  0
   43.6219    5.8434   12.2921 C   0  0  0  0  0  0  0  0  0  0  0  0
   43.0463    4.6762   11.7857 C   0  0  0  0  0  0  0  0  0  0  0  0
   43.6086    4.0428   10.6783 C   0  0  0  0  0  0  0  0  0  0  0  0
   44.7499    4.5718   10.0786 C   0  0  0  0  0  0  0  0  0  0  0  0
   48.9195   18.4813   21.2977 H   0  0  0  0  0  0  0  0  0  0  0  0
   49.9503   19.1924   22.5465 H   0  0  0  0  0  0  0  0  0  0  0  0
   51.1201   19.5495   18.6489 H   0  0  0  0  0  0  0  0  0  0  0  0
   49.6144   18.6875   18.9928 H   0  0  0  0  0  0  0  0  0  0  0  0
   51.4404   17.0837   18.4564 H   0  0  0  0  0  0  0  0  0  0  0  0
   52.4717   17.7954   19.7143 H   0  0  0  0  0  0  0  0  0  0  0  0
   50.2101   16.7236   22.4689 H   0  0  0  0  0  0  0  0  0  0  0  0
   51.7373   17.5629   22.1319 H   0  0  0  0  0  0  0  0  0  0  0  0
   51.8307   15.0220   19.5314 H   0  0  0  0  0  0  0  0  0  0  0  0
   52.6712   15.6549   20.9458 H   0  0  0  0  0  0  0  0  0  0  0  0
   50.8757   14.6309   22.4117 H   0  0  0  0  0  0  0  0  0  0  0  0
   51.7815   13.4515   21.5201 H   0  0  0  0  0  0  0  0  0  0  0  0
   51.9368   12.5237   19.5938 H   0  0  0  0  0  0  0  0  0  0  0  0
   47.6639   12.9427   19.9264 H   0  0  0  0  0  0  0  0  0  0  0  0
   47.3614   11.2440   18.1785 H   0  0  0  0  0  0  0  0  0  0  0  0
   51.6453   10.8314   17.8831 H   0  0  0  0  0  0  0  0  0  0  0  0
   50.6227   10.8035   15.3926 H   0  0  0  0  0  0  0  0  0  0  0  0
   47.9505    8.6069   17.9515 H   0  0  0  0  0  0  0  0  0  0  0  0
   50.3019    9.0486   13.6848 H   0  0  0  0  0  0  0  0  0  0  0  0
   48.2990    5.9291   14.3715 H   0  0  0  0  0  0  0  0  0  0  0  0
   49.6728    6.5142   13.4479 H   0  0  0  0  0  0  0  0  0  0  0  0
   45.7917    8.2581   11.4223 H   0  0  0  0  0  0  0  0  0  0  0  0
   44.6696    8.2398   12.7823 H   0  0  0  0  0  0  0  0  0  0  0  0
   46.2037    6.9836   14.0929 H   0  0  0  0  0  0  0  0  0  0  0  0
   46.2253    6.1377   10.1145 H   0  0  0  0  0  0  0  0  0  0  0  0
   43.1730    6.3227   13.1592 H   0  0  0  0  0  0  0  0  0  0  0  0
   42.1592    4.2593   12.2558 H   0  0  0  0  0  0  0  0  0  0  0  0
   43.1601    3.1344   10.2845 H   0  0  0  0  0  0  0  0  0  0  0  0
   45.1938    4.0769    9.2187 H   0  0  0  0  0  0  0  0  0  0  0  0
  1  2  1  0
  2  3  1  0
  3  4  1  0
  4  5  1  0
  5  6  1  0
  1  6  1  0
  7  8  1  0
  5  7  1  0
  9 10  1  0
 10 11  2  0
  8  9  1  0
 12 13  2  0
 13 14  1  0
 14 15  2  0
 10 12  1  0
 11 15  1  0
 16 17  2  0
 16 14  1  0
 18 19  2  0
 19 20  1  0
 20 21  2  0
 17 21  1  0
 16 18  1  0
 22 23  2  0
 23 24  1  0
 20 24  1  0
 25 26  1  0
 23 26  1  0
 27 28  2  0
 25 28  1  0
 29 30  2  0
 30 31  1  0
 31 32  2  0
 27 32  1  0
 28 29  1  0
  1 33  1  0
  1 34  1  0
  3 35  1  0
  3 36  1  0
  4 37  1  0
  4 38  1  0
  6 39  1  0
  6 40  1  0
  7 41  1  0
  7 42  1  0
  8 43  1  0
  8 44  1  0
 11 45  1  0
 12 46  1  0
 13 47  1  0
 15 48  1  0
 17 49  1  0
 18 50  1  0
 21 51  1  0
 24 52  1  0
 24 53  1  0
 25 54  1  0
 25 55  1  0
 26 56  1  0
 27 57  1  0
 29 58  1  0
 30 59  1  0
 31 60  1  0
 32 61  1  0
M  END
> <Uni-Dock RESULT> 
ENERGY=   -3.876  LOWER_BOUND=    5.206  UPPER_BOUND=    5.980
INTER + INTRA:          -3.876
INTER:                  -3.876
INTRA:                   0.000
UNBOUND:                 0.000

$$$$

     RDKit          3D

 61 64  0  0  0  0  0  0  0  0999 V2000
   49.9821   17.2882   23.3688 C   0  0  0  0  0  0  0  0  0  0  0  0
   50.4907   18.3266   22.5214 O   0  0  0  0  0  0  0  0  0  0  0  0
   50.4971   17.8791   21.1602 C   0  0  0  0  0  0  0  0  0  0  0  0
   51.3683   16.6240   20.9975 C   0  0  0  0  0  0  0  0  0  0  0  0
   50.9058   15.5210   21.8688 N   0  0  0  0  0  0  0  0  0  0  0  0
   50.8342   16.0117   23.2609 C   0  0  0  0  0  0  0  0  0  0  0  0
   51.7960   14.3504   21.7275 C   0  0  0  0  0  0  0  0  0  0  0  0
   51.3030   13.0618   22.4177 C   0  0  0  0  0  0  0  0  0  0  0  0
   50.0483   12.6131   21.9026 O   0  0  0  0  0  0  0  0  0  0  0  0
   50.0279   11.8220   20.7902 C   0  0  0  0  0  0  0  0  0  0  0  0
   51.1277   11.3922   20.0531 C   0  0  0  0  0  0  0  0  0  0  0  0
   48.7512   11.4293   20.3856 C   0  0  0  0  0  0  0  0  0  0  0  0
   48.5713   10.6149   19.2623 C   0  0  0  0  0  0  0  0  0  0  0  0
   49.6695   10.1721   18.5116 C   0  0  0  0  0  0  0  0  0  0  0  0
   50.9484   10.5767   18.9267 C   0  0  0  0  0  0  0  0  0  0  0  0
   49.4905    9.3176   17.3297 C   0  0  0  0  0  0  0  0  0  0  0  0
   50.0640    9.6360   16.0938 C   0  0  0  0  0  0  0  0  0  0  0  0
   48.7388    8.1432   17.3727 C   0  0  0  0  0  0  0  0  0  0  0  0
   48.5311    7.3119   16.3199 N   0  0  0  0  0  0  0  0  0  0  0  0
   49.1094    7.6504   15.1418 C   0  0  0  0  0  0  0  0  0  0  0  0
   49.8746    8.8028   14.9913 C   0  0  0  0  0  0  0  0  0  0  0  0
   48.1597    7.8428   11.9642 O   0  0  0  0  0  0  0  0  0  0  0  0
   47.8408    7.3105   13.0242 C   0  0  0  0  0  0  0  0  0  0  0  0
   48.8671    6.7355   13.9744 C   0  0  0  0  0  0  0  0  0  0  0  0
   45.4128    7.5914   12.6540 C   0  0  0  0  0  0  0  0  0  0  0  0
   46.5409    7.1842   13.4559 N   0  0  0  0  0  0  0  0  0  0  0  0
   45.3262    5.9709   10.7244 C   0  0  0  0  0  0  0  0  0  0  0  0
   44.8018    6.4081   11.9498 C   0  0  0  0  0  0  0  0  0  0  0  0
   43.7320    5.7040   12.5205 C   0  0  0  0  0  0  0  0  0  0  0  0
   43.1865    4.5964   11.8678 C   0  0  0  0  0  0  0  0  0  0  0  0
   43.7082    4.1789   10.6442 C   0  0  0  0  0  0  0  0  0  0  0  0
   44.7791    4.8643   10.0735 C   0  0  0  0  0  0  0  0  0  0  0  0
   48.9345   17.0905   23.1111 H   0  0  0  0  0  0  0  0  0  0  0  0
   50.0055   17.6611   24.3976 H   0  0  0  0  0  0  0  0  0  0  0  0
   50.9001   18.6916   20.5472 H   0  0  0  0  0  0  0  0  0  0  0  0
   49.4669   17.6952   20.8332 H   0  0  0  0  0  0  0  0  0  0  0  0
   51.3356   16.3103   19.9476 H   0  0  0  0  0  0  0  0  0  0  0  0
   52.4077   16.8800   21.2432 H   0  0  0  0  0  0  0  0  0  0  0  0
   50.3884   15.2552   23.9141 H   0  0  0  0  0  0  0  0  0  0  0  0
   51.8446   16.2294   23.6302 H   0  0  0  0  0  0  0  0  0  0  0  0
   51.9019   14.1345   20.6577 H   0  0  0  0  0  0  0  0  0  0  0  0
   52.7980   14.5905   22.1057 H   0  0  0  0  0  0  0  0  0  0  0  0
   51.1572   13.2421   23.4880 H   0  0  0  0  0  0  0  0  0  0  0  0
   52.0637   12.2739   22.3712 H   0  0  0  0  0  0  0  0  0  0  0  0
   52.1422   11.6683   20.3162 H   0  0  0  0  0  0  0  0  0  0  0  0
   47.8837   11.7657   20.9489 H   0  0  0  0  0  0  0  0  0  0  0  0
   47.5578   10.3441   18.9728 H   0  0  0  0  0  0  0  0  0  0  0  0
   51.8293   10.2479   18.3772 H   0  0  0  0  0  0  0  0  0  0  0  0
   50.6503   10.5445   15.9749 H   0  0  0  0  0  0  0  0  0  0  0  0
   48.2679    7.8159   18.2970 H   0  0  0  0  0  0  0  0  0  0  0  0
   50.3116    9.0602   14.0303 H   0  0  0  0  0  0  0  0  0  0  0  0
   48.5231    5.7540   14.3231 H   0  0  0  0  0  0  0  0  0  0  0  0
   49.8017    6.5594   13.4291 H   0  0  0  0  0  0  0  0  0  0  0  0
   45.7118    8.3540   11.9260 H   0  0  0  0  0  0  0  0  0  0  0  0
   44.6826    8.0551   13.3262 H   0  0  0  0  0  0  0  0  0  0  0  0
   46.3619    6.7076   14.3328 H   0  0  0  0  0  0  0  0  0  0  0  0
   46.1699    6.4936   10.2756 H   0  0  0  0  0  0  0  0  0  0  0  0
   43.3158    6.0139   13.4764 H   0  0  0  0  0  0  0  0  0  0  0  0
   42.3547    4.0575   12.3144 H   0  0  0  0  0  0  0  0  0  0  0  0
   43.2832    3.3168   10.1367 H   0  0  0  0  0  0  0  0  0  0  0  0
   45.1916    4.5374    9.1226 H   0  0  0  0  0  0  0  0  0  0  0  0
  1  2  1  0
  2  3  1  0
  3  4  1  0
  4  5  1  0
  5  6  1  0
  1  6  1  0
  7  8  1  0
  5  7  1  0
  9 10  1  0
 10 11  2  0
  8  9  1  0
 12 13  2  0
 13 14  1  0
 14 15  2  0
 10 12  1  0
 11 15  1  0
 16 17  2  0
 16 14  1  0
 18 19  2  0
 19 20  1  0
 20 21  2  0
 17 21  1  0
 16 18  1  0
 22 23  2  0
 23 24  1  0
 20 24  1  0
 25 26  1  0
 23 26  1  0
 27 28  2  0
 25 28  1  0
 29 30  2  0
 30 31  1  0
 31 32  2  0
 27 32  1  0
 28 29  1  0
  1 33  1  0
  1 34  1  0
  3 35  1  0
  3 36  1  0
  4 37  1  0
  4 38  1  0
  6 39  1  0
  6 40  1  0
  7 41  1  0
  7 42  1  0
  8 43  1  0
  8 44  1  0
 11 45  1  0
 12 46  1  0
 13 47  1  0
 15 48  1  0
 17 49  1  0
 18 50  1  0
 21 51  1  0
 24 52  1  0
 24 53  1  0
 25 54  1  0
 25 55  1  0
 26 56  1  0
 27 57  1  0
 29 58  1  0
 30 59  1  0
 31 60  1  0
 32 61  1  0
M  END
> <Uni-Dock RESULT> 
ENERGY=   -3.793  LOWER_BOUND=    4.497  UPPER_BOUND=    5.252
INTER + INTRA:          -3.793
INTER:                  -3.793
INTRA:                   0.000
UNBOUND:                 0.000

$$$$

     RDKit          3D

 61 64  0  0  0  0  0  0  0  0999 V2000
   44.1417    2.1696   11.0067 C   0  0  0  0  0  0  0  0  0  0  0  0
   44.1571    1.9785    9.5860 O   0  0  0  0  0  0  0  0  0  0  0  0
   44.8926    3.0394    8.9641 C   0  0  0  0  0  0  0  0  0  0  0  0
   44.2642    4.4050    9.2822 C   0  0  0  0  0  0  0  0  0  0  0  0
   44.1981    4.6499   10.7401 N   0  0  0  0  0  0  0  0  0  0  0  0
   43.5002    3.5166   11.3823 C   0  0  0  0  0  0  0  0  0  0  0  0
   43.5410    5.9451   11.0114 C   0  0  0  0  0  0  0  0  0  0  0  0
   43.6009    6.4185   12.4784 C   0  0  0  0  0  0  0  0  0  0  0  0
   44.9410    6.6014   12.9382 O   0  0  0  0  0  0  0  0  0  0  0  0
   45.5695    7.7911   12.7070 C   0  0  0  0  0  0  0  0  0  0  0  0
   45.0476    8.8922   12.0340 C   0  0  0  0  0  0  0  0  0  0  0  0
   46.8678    7.8651   13.2138 C   0  0  0  0  0  0  0  0  0  0  0  0
   47.6367    9.0232   13.0560 C   0  0  0  0  0  0  0  0  0  0  0  0
   47.1237   10.1410   12.3828 C   0  0  0  0  0  0  0  0  0  0  0  0
   45.8177   10.0530   11.8746 C   0  0  0  0  0  0  0  0  0  0  0  0
   47.9240   11.3612   12.2110 C   0  0  0  0  0  0  0  0  0  0  0  0
   48.1043   11.9566   10.9577 C   0  0  0  0  0  0  0  0  0  0  0  0
   48.5495   11.9934   13.2859 C   0  0  0  0  0  0  0  0  0  0  0  0
   49.3039   13.1184   13.1968 N   0  0  0  0  0  0  0  0  0  0  0  0
   49.4486   13.6696   11.9670 C   0  0  0  0  0  0  0  0  0  0  0  0
   48.8701   13.1152   10.8293 C   0  0  0  0  0  0  0  0  0  0  0  0
   51.9607   14.8469   10.1397 O   0  0  0  0  0  0  0  0  0  0  0  0
   51.6641   14.5984   11.3054 C   0  0  0  0  0  0  0  0  0  0  0  0
   50.2951   14.9073   11.8688 C   0  0  0  0  0  0  0  0  0  0  0  0
   53.9037   13.7298   11.8895 C   0  0  0  0  0  0  0  0  0  0  0  0
   52.5268   14.0206   12.2077 N   0  0  0  0  0  0  0  0  0  0  0  0
   55.0403   15.9692   11.6651 C   0  0  0  0  0  0  0  0  0  0  0  0
   54.8141   14.8074   12.4180 C   0  0  0  0  0  0  0  0  0  0  0  0
   55.4161   14.6874   13.6787 C   0  0  0  0  0  0  0  0  0  0  0  0
   56.2425   15.7018   14.1667 C   0  0  0  0  0  0  0  0  0  0  0  0
   56.4697   16.8464   13.4038 C   0  0  0  0  0  0  0  0  0  0  0  0
   55.8671   16.9814   12.1544 C   0  0  0  0  0  0  0  0  0  0  0  0
   45.1652    2.0945   11.3936 H   0  0  0  0  0  0  0  0  0  0  0  0
   43.5616    1.3506   11.4434 H   0  0  0  0  0  0  0  0  0  0  0  0
   44.8733    2.8656    7.8836 H   0  0  0  0  0  0  0  0  0  0  0  0
   45.9387    2.9957    9.2894 H   0  0  0  0  0  0  0  0  0  0  0  0
   44.8628    5.1856    8.7985 H   0  0  0  0  0  0  0  0  0  0  0  0
   43.2533    4.4380    8.8542 H   0  0  0  0  0  0  0  0  0  0  0  0
   43.5330    3.6109   12.4721 H   0  0  0  0  0  0  0  0  0  0  0  0
   42.4474    3.5050   11.0719 H   0  0  0  0  0  0  0  0  0  0  0  0
   44.0324    6.7079   10.3959 H   0  0  0  0  0  0  0  0  0  0  0  0
   42.4902    5.9084   10.6964 H   0  0  0  0  0  0  0  0  0  0  0  0
   43.1433    5.6693   13.1331 H   0  0  0  0  0  0  0  0  0  0  0  0
   42.9965    7.3209   12.6264 H   0  0  0  0  0  0  0  0  0  0  0  0
   44.0480    8.8918   11.6153 H   0  0  0  0  0  0  0  0  0  0  0  0
   47.2892    7.0080   13.7343 H   0  0  0  0  0  0  0  0  0  0  0  0
   48.6497    9.0335   13.4536 H   0  0  0  0  0  0  0  0  0  0  0  0
   45.3775   10.9015   11.3530 H   0  0  0  0  0  0  0  0  0  0  0  0
   47.6626   11.5138   10.0676 H   0  0  0  0  0  0  0  0  0  0  0  0
   48.4512   11.6032   14.2965 H   0  0  0  0  0  0  0  0  0  0  0  0
   49.0176   13.5674    9.8523 H   0  0  0  0  0  0  0  0  0  0  0  0
   50.4098   15.3712   12.8562 H   0  0  0  0  0  0  0  0  0  0  0  0
   49.8053   15.6534   11.2321 H   0  0  0  0  0  0  0  0  0  0  0  0
   54.0347   13.6188   10.8072 H   0  0  0  0  0  0  0  0  0  0  0  0
   54.1491   12.7645   12.3454 H   0  0  0  0  0  0  0  0  0  0  0  0
   52.2105   13.8728   13.1597 H   0  0  0  0  0  0  0  0  0  0  0  0
   54.5653   16.0886   10.6921 H   0  0  0  0  0  0  0  0  0  0  0  0
   55.2461   13.8028   14.2885 H   0  0  0  0  0  0  0  0  0  0  0  0
   56.7088   15.6003   15.1434 H   0  0  0  0  0  0  0  0  0  0  0  0
   57.1131   17.6355   13.7841 H   0  0  0  0  0  0  0  0  0  0  0  0
   56.0378   17.8752   11.5600 H   0  0  0  0  0  0  0  0  0  0  0  0
  1  2  1  0
  2  3  1  0
  3  4  1  0
  4  5  1  0
  5  6  1  0
  1  6  1  0
  7  8  1  0
  5  7  1  0
  9 10  1  0
 10 11  2  0
  8  9  1  0
 12 13  2  0
 13 14  1  0
 14 15  2  0
 10 12  1  0
 11 15  1  0
 16 17  2  0
 16 14  1  0
 18 19  2  0
 19 20  1  0
 20 21  2  0
 17 21  1  0
 16 18  1  0
 22 23  2  0
 23 24  1  0
 20 24  1  0
 25 26  1  0
 23 26  1  0
 27 28  2  0
 25 28  1  0
 29 30  2  0
 30 31  1  0
 31 32  2  0
 27 32  1  0
 28 29  1  0
  1 33  1  0
  1 34  1  0
  3 35  1  0
  3 36  1  0
  4 37  1  0
  4 38  1  0
  6 39  1  0
  6 40  1  0
  7 41  1  0
  7 42  1  0
  8 43  1  0
  8 44  1  0
 11 45  1  0
 12 46  1  0
 13 47  1  0
 15 48  1  0
 17 49  1  0
 18 50  1  0
 21 51  1  0
 24 52  1  0
 24 53  1  0
 25 54  1  0
 25 55  1  0
 26 56  1  0
 27 57  1  0
 29 58  1  0
 30 59  1  0
 31 60  1  0
 32 61  1  0
M  END
> <Uni-Dock RESULT> 
ENERGY=   -3.698  LOWER_BOUND=    8.235  UPPER_BOUND=   14.348
INTER + INTRA:          -3.698
INTER:                  -3.698
INTRA:                   0.000
UNBOUND:                 0.000

$$$$
