
     RDKit          3D

 61 64  0  0  0  0  0  0  0  0999 V2000
   52.3593   17.0413    8.1662 C   0  0  0  0  0  0  0  0  0  0  0  0
   52.9321   16.4652    6.9843 O   0  0  0  0  0  0  0  0  0  0  0  0
   53.5243   15.1780    7.2134 C   0  0  0  0  0  0  0  0  0  0  0  0
   52.8793   14.4205    8.3809 C   0  0  0  0  0  0  0  0  0  0  0  0
   53.0588   15.1425    9.6512 N   0  0  0  0  0  0  0  0  0  0  0  0
   53.0613   16.6024    9.4601 C   0  0  0  0  0  0  0  0  0  0  0  0
   52.1818   14.6691   10.7315 C   0  0  0  0  0  0  0  0  0  0  0  0
   50.6767   14.9660   10.6036 C   0  0  0  0  0  0  0  0  0  0  0  0
   49.9809   14.5356   11.7768 O   0  0  0  0  0  0  0  0  0  0  0  0
   49.3694   13.3153   11.7540 C   0  0  0  0  0  0  0  0  0  0  0  0
   49.6271   12.2802   10.8588 C   0  0  0  0  0  0  0  0  0  0  0  0
   48.4222   13.1210   12.7590 C   0  0  0  0  0  0  0  0  0  0  0  0
   47.7213   11.9161   12.8578 C   0  0  0  0  0  0  0  0  0  0  0  0
   47.9634   10.8672   11.9596 C   0  0  0  0  0  0  0  0  0  0  0  0
   48.9288   11.0694   10.9613 C   0  0  0  0  0  0  0  0  0  0  0  0
   47.2327    9.5982   12.0652 C   0  0  0  0  0  0  0  0  0  0  0  0
   45.8355    9.5507   12.0837 C   0  0  0  0  0  0  0  0  0  0  0  0
   47.8900    8.3726   12.1594 C   0  0  0  0  0  0  0  0  0  0  0  0
   47.2761    7.1662   12.2620 N   0  0  0  0  0  0  0  0  0  0  0  0
   45.9216    7.1591   12.2796 C   0  0  0  0  0  0  0  0  0  0  0  0
   45.1726    8.3283   12.1917 C   0  0  0  0  0  0  0  0  0  0  0  0
   43.3474    5.8354   10.9436 O   0  0  0  0  0  0  0  0  0  0  0  0
   44.4908    5.4412   11.1637 C   0  0  0  0  0  0  0  0  0  0  0  0
   45.2494    5.8217   12.4160 C   0  0  0  0  0  0  0  0  0  0  0  0
   44.5879    4.1769    9.0669 C   0  0  0  0  0  0  0  0  0  0  0  0
   45.1792    4.6272   10.3021 N   0  0  0  0  0  0  0  0  0  0  0  0
   45.5332    1.9150    8.4673 C   0  0  0  0  0  0  0  0  0  0  0  0
   45.5398    3.3063    8.2939 C   0  0  0  0  0  0  0  0  0  0  0  0
   46.4725    3.8778    7.4170 C   0  0  0  0  0  0  0  0  0  0  0  0
   47.3667    3.0715    6.7107 C   0  0  0  0  0  0  0  0  0  0  0  0
   47.3428    1.6890    6.8813 C   0  0  0  0  0  0  0  0  0  0  0  0
   46.4287    1.1104    7.7607 C   0  0  0  0  0  0  0  0  0  0  0  0
   52.4142   18.1287    8.0589 H   0  0  0  0  0  0  0  0  0  0  0  0
   51.2981   16.7718    8.1930 H   0  0  0  0  0  0  0  0  0  0  0  0
   53.4208   14.5995    6.2886 H   0  0  0  0  0  0  0  0  0  0  0  0
   54.5969   15.3205    7.3873 H   0  0  0  0  0  0  0  0  0  0  0  0
   51.8185   14.2851    8.1509 H   0  0  0  0  0  0  0  0  0  0  0  0
   53.3329   13.4276    8.4636 H   0  0  0  0  0  0  0  0  0  0  0  0
   54.1116   16.9133    9.4019 H   0  0  0  0  0  0  0  0  0  0  0  0
   52.6344   17.1306   10.3224 H   0  0  0  0  0  0  0  0  0  0  0  0
   52.5389   15.0978   11.6796 H   0  0  0  0  0  0  0  0  0  0  0  0
   52.3302   13.5886   10.8620 H   0  0  0  0  0  0  0  0  0  0  0  0
   50.2318   14.5584    9.6895 H   0  0  0  0  0  0  0  0  0  0  0  0
   50.5244   16.0499   10.5516 H   0  0  0  0  0  0  0  0  0  0  0  0
   50.3699   12.3710   10.0741 H   0  0  0  0  0  0  0  0  0  0  0  0
   48.2214   13.9165   13.4723 H   0  0  0  0  0  0  0  0  0  0  0  0
   46.9915   11.7991   13.6558 H   0  0  0  0  0  0  0  0  0  0  0  0
   49.1419   10.2821   10.2403 H   0  0  0  0  0  0  0  0  0  0  0  0
   45.2513   10.4638   12.0060 H   0  0  0  0  0  0  0  0  0  0  0  0
   48.9769    8.3209   12.1702 H   0  0  0  0  0  0  0  0  0  0  0  0
   44.0868    8.2965   12.1992 H   0  0  0  0  0  0  0  0  0  0  0  0
   44.5477    5.8366   13.2590 H   0  0  0  0  0  0  0  0  0  0  0  0
   45.9920    5.0485   12.6495 H   0  0  0  0  0  0  0  0  0  0  0  0
   43.6669    3.6342    9.2989 H   0  0  0  0  0  0  0  0  0  0  0  0
   44.2969    5.0523    8.4769 H   0  0  0  0  0  0  0  0  0  0  0  0
   46.1242    4.3319   10.5296 H   0  0  0  0  0  0  0  0  0  0  0  0
   44.8254    1.4498    9.1519 H   0  0  0  0  0  0  0  0  0  0  0  0
   46.5036    4.9560    7.2774 H   0  0  0  0  0  0  0  0  0  0  0  0
   48.0803    3.5219    6.0258 H   0  0  0  0  0  0  0  0  0  0  0  0
   48.0369    1.0619    6.3283 H   0  0  0  0  0  0  0  0  0  0  0  0
   46.4117    0.0319    7.8943 H   0  0  0  0  0  0  0  0  0  0  0  0
  1  2  1  0
  2  3  1  0
  3  4  1  0
  4  5  1  0
  5  6  1  0
  1  6  1  0
  7  8  1  0
  5  7  1  0
  9 10  1  0
 10 11  2  0
  8  9  1  0
 12 13  2  0
 13 14  1  0
 14 15  2  0
 10 12  1  0
 11 15  1  0
 16 17  2  0
 16 14  1  0
 18 19  2  0
 19 20  1  0
 20 21  2  0
 17 21  1  0
 16 18  1  0
 22 23  2  0
 23 24  1  0
 20 24  1  0
 25 26  1  0
 23 26  1  0
 27 28  2  0
 25 28  1  0
 29 30  2  0
 30 31  1  0
 31 32  2  0
 27 32  1  0
 28 29  1  0
  1 33  1  0
  1 34  1  0
  3 35  1  0
  3 36  1  0
  4 37  1  0
  4 38  1  0
  6 39  1  0
  6 40  1  0
  7 41  1  0
  7 42  1  0
  8 43  1  0
  8 44  1  0
 11 45  1  0
 12 46  1  0
 13 47  1  0
 15 48  1  0
 17 49  1  0
 18 50  1  0
 21 51  1  0
 24 52  1  0
 24 53  1  0
 25 54  1  0
 25 55  1  0
 26 56  1  0
 27 57  1  0
 29 58  1  0
 30 59  1  0
 31 60  1  0
 32 61  1  0
M  END
> <Uni-Dock RESULT> 
ENERGY=   -7.274  LOWER_BOUND=    0.000  UPPER_BOUND=    0.000
INTER + INTRA:          -7.274
INTER:                  -7.274
INTRA:                   0.000
UNBOUND:                 0.000

$$$$

     RDKit          3D

 61 64  0  0  0  0  0  0  0  0999 V2000
   49.0951   18.3237    7.2151 C   0  0  0  0  0  0  0  0  0  0  0  0
   49.6538   17.8392    5.9862 O   0  0  0  0  0  0  0  0  0  0  0  0
   50.5324   16.7188    6.1683 C   0  0  0  0  0  0  0  0  0  0  0  0
   50.1922   15.8857    7.4106 C   0  0  0  0  0  0  0  0  0  0  0  0
   50.3410   16.6775    8.6427 N   0  0  0  0  0  0  0  0  0  0  0  0
   50.0060   18.0955    8.4307 C   0  0  0  0  0  0  0  0  0  0  0  0
   49.7049   16.0686    9.8194 C   0  0  0  0  0  0  0  0  0  0  0  0
   48.1663   16.0303    9.8527 C   0  0  0  0  0  0  0  0  0  0  0  0
   47.7063   15.5058   11.1013 O   0  0  0  0  0  0  0  0  0  0  0  0
   47.3759   14.1827   11.1638 C   0  0  0  0  0  0  0  0  0  0  0  0
   47.7585   13.1936   10.2612 C   0  0  0  0  0  0  0  0  0  0  0  0
   46.6031   13.8282   12.2692 C   0  0  0  0  0  0  0  0  0  0  0  0
   46.1953   12.5056   12.4621 C   0  0  0  0  0  0  0  0  0  0  0  0
   46.5653   11.4995   11.5585 C   0  0  0  0  0  0  0  0  0  0  0  0
   47.3548   11.8660   10.4576 C   0  0  0  0  0  0  0  0  0  0  0  0
   46.1432   10.1082   11.7624 C   0  0  0  0  0  0  0  0  0  0  0  0
   44.7995    9.7626   11.9345 C   0  0  0  0  0  0  0  0  0  0  0  0
   47.0576    9.0568   11.8023 C   0  0  0  0  0  0  0  0  0  0  0  0
   46.7349    7.7516   11.9894 N   0  0  0  0  0  0  0  0  0  0  0  0
   45.4237    7.4546   12.1553 C   0  0  0  0  0  0  0  0  0  0  0  0
   44.4332    8.4314   12.1325 C   0  0  0  0  0  0  0  0  0  0  0  0
   43.0749    5.5589   11.1290 O   0  0  0  0  0  0  0  0  0  0  0  0
   44.2932    5.4281   11.2284 C   0  0  0  0  0  0  0  0  0  0  0  0
   45.0764    6.0102   12.3843 C   0  0  0  0  0  0  0  0  0  0  0  0
   44.4452    4.1348    9.1528 C   0  0  0  0  0  0  0  0  0  0  0  0
   45.0491    4.7485   10.3089 N   0  0  0  0  0  0  0  0  0  0  0  0
   45.7926    2.1074    8.4869 C   0  0  0  0  0  0  0  0  0  0  0  0
   45.4782    3.4600    8.2932 C   0  0  0  0  0  0  0  0  0  0  0  0
   46.1682    4.1844    7.3110 C   0  0  0  0  0  0  0  0  0  0  0  0
   47.1383    3.5625    6.5231 C   0  0  0  0  0  0  0  0  0  0  0  0
   47.4336    2.2147    6.7158 C   0  0  0  0  0  0  0  0  0  0  0  0
   46.7635    1.4874    7.6986 C   0  0  0  0  0  0  0  0  0  0  0  0
   48.9007   19.3926    7.0862 H   0  0  0  0  0  0  0  0  0  0  0  0
   48.1266   17.8338    7.3619 H   0  0  0  0  0  0  0  0  0  0  0  0
   50.4619   16.0966    5.2691 H   0  0  0  0  0  0  0  0  0  0  0  0
   51.5604   17.0949    6.2216 H   0  0  0  0  0  0  0  0  0  0  0  0
   49.1683   15.5171    7.3001 H   0  0  0  0  0  0  0  0  0  0  0  0
   50.8571   15.0173    7.4579 H   0  0  0  0  0  0  0  0  0  0  0  0
   50.9517   18.6223    8.2532 H   0  0  0  0  0  0  0  0  0  0  0  0
   49.5662   18.5524    9.3266 H   0  0  0  0  0  0  0  0  0  0  0  0
   50.0565   16.6000   10.7163 H   0  0  0  0  0  0  0  0  0  0  0  0
   50.0975   15.0509    9.9490 H   0  0  0  0  0  0  0  0  0  0  0  0
   47.7284   15.5020    8.9990 H   0  0  0  0  0  0  0  0  0  0  0  0
   47.7773   17.0534    9.8016 H   0  0  0  0  0  0  0  0  0  0  0  0
   48.3782   13.4117    9.3987 H   0  0  0  0  0  0  0  0  0  0  0  0
   46.3091   14.5887   12.9883 H   0  0  0  0  0  0  0  0  0  0  0  0
   45.5952   12.2652   13.3368 H   0  0  0  0  0  0  0  0  0  0  0  0
   47.6582   11.1157    9.7294 H   0  0  0  0  0  0  0  0  0  0  0  0
   44.0257   10.5253   11.9076 H   0  0  0  0  0  0  0  0  0  0  0  0
   48.1248    9.2402   11.6947 H   0  0  0  0  0  0  0  0  0  0  0  0
   43.3871    8.1676   12.2594 H   0  0  0  0  0  0  0  0  0  0  0  0
   44.4796    5.9064   13.2988 H   0  0  0  0  0  0  0  0  0  0  0  0
   45.9895    5.4240   12.5467 H   0  0  0  0  0  0  0  0  0  0  0  0
   43.6934    3.4163    9.4922 H   0  0  0  0  0  0  0  0  0  0  0  0
   43.9111    4.9041    8.5852 H   0  0  0  0  0  0  0  0  0  0  0  0
   46.0541    4.6719   10.4359 H   0  0  0  0  0  0  0  0  0  0  0  0
   45.2778    1.5276    9.2518 H   0  0  0  0  0  0  0  0  0  0  0  0
   45.9494    5.2380    7.1528 H   0  0  0  0  0  0  0  0  0  0  0  0
   47.6619    4.1290    5.7575 H   0  0  0  0  0  0  0  0  0  0  0  0
   48.1864    1.7305    6.0997 H   0  0  0  0  0  0  0  0  0  0  0  0
   46.9955    0.4363    7.8493 H   0  0  0  0  0  0  0  0  0  0  0  0
  1  2  1  0
  2  3  1  0
  3  4  1  0
  4  5  1  0
  5  6  1  0
  1  6  1  0
  7  8  1  0
  5  7  1  0
  9 10  1  0
 10 11  2  0
  8  9  1  0
 12 13  2  0
 13 14  1  0
 14 15  2  0
 10 12  1  0
 11 15  1  0
 16 17  2  0
 16 14  1  0
 18 19  2  0
 19 20  1  0
 20 21  2  0
 17 21  1  0
 16 18  1  0
 22 23  2  0
 23 24  1  0
 20 24  1  0
 25 26  1  0
 23 26  1  0
 27 28  2  0
 25 28  1  0
 29 30  2  0
 30 31  1  0
 31 32  2  0
 27 32  1  0
 28 29  1  0
  1 33  1  0
  1 34  1  0
  3 35  1  0
  3 36  1  0
  4 37  1  0
  4 38  1  0
  6 39  1  0
  6 40  1  0
  7 41  1  0
  7 42  1  0
  8 43  1  0
  8 44  1  0
 11 45  1  0
 12 46  1  0
 13 47  1  0
 15 48  1  0
 17 49  1  0
 18 50  1  0
 21 51  1  0
 24 52  1  0
 24 53  1  0
 25 54  1  0
 25 55  1  0
 26 56  1  0
 27 57  1  0
 29 58  1  0
 30 59  1  0
 31 60  1  0
 32 61  1  0
M  END
> <Uni-Dock RESULT> 
ENERGY=   -5.947  LOWER_BOUND=    1.859  UPPER_BOUND=    1.985
INTER + INTRA:          -5.947
INTER:                  -5.947
INTRA:                   0.000
UNBOUND:                 0.000

$$$$

     RDKit          3D

 61 64  0  0  0  0  0  0  0  0999 V2000
   55.5957   14.7382    5.2942 C   0  0  0  0  0  0  0  0  0  0  0  0
   55.4647   13.9792    4.0844 O   0  0  0  0  0  0  0  0  0  0  0  0
   55.6235   12.5666    4.2838 C   0  0  0  0  0  0  0  0  0  0  0  0
   55.2328   12.1128    5.6961 C   0  0  0  0  0  0  0  0  0  0  0  0
   56.0977   12.7306    6.7147 N   0  0  0  0  0  0  0  0  0  0  0  0
   56.5269   14.0844    6.3262 C   0  0  0  0  0  0  0  0  0  0  0  0
   55.5709   12.6255    8.0827 C   0  0  0  0  0  0  0  0  0  0  0  0
   54.3209   13.4558    8.4263 C   0  0  0  0  0  0  0  0  0  0  0  0
   53.9997   13.3248    9.8138 O   0  0  0  0  0  0  0  0  0  0  0  0
   53.0462   12.4163   10.1732 C   0  0  0  0  0  0  0  0  0  0  0  0
   52.5905   11.3501    9.4020 C   0  0  0  0  0  0  0  0  0  0  0  0
   52.5259   12.5958   11.4546 C   0  0  0  0  0  0  0  0  0  0  0  0
   51.5447   11.7359   11.9550 C   0  0  0  0  0  0  0  0  0  0  0  0
   51.0697   10.6625   11.1882 C   0  0  0  0  0  0  0  0  0  0  0  0
   51.6108   10.4838    9.9057 C   0  0  0  0  0  0  0  0  0  0  0  0
   50.0432    9.7542   11.7141 C   0  0  0  0  0  0  0  0  0  0  0  0
   48.8230   10.2261   12.2071 C   0  0  0  0  0  0  0  0  0  0  0  0
   50.2301    8.3735   11.7572 C   0  0  0  0  0  0  0  0  0  0  0  0
   49.3251    7.4801   12.2320 N   0  0  0  0  0  0  0  0  0  0  0  0
   48.1552    7.9739   12.7041 C   0  0  0  0  0  0  0  0  0  0  0  0
   47.8719    9.3360   12.7058 C   0  0  0  0  0  0  0  0  0  0  0  0
   44.9864    7.6805   12.5146 O   0  0  0  0  0  0  0  0  0  0  0  0
   45.9235    6.8942   12.3922 C   0  0  0  0  0  0  0  0  0  0  0  0
   47.1674    6.9806   13.2488 C   0  0  0  0  0  0  0  0  0  0  0  0
   44.8122    5.6620   10.5893 C   0  0  0  0  0  0  0  0  0  0  0  0
   45.9286    5.8748   11.4760 N   0  0  0  0  0  0  0  0  0  0  0  0
   44.6428    3.2048   10.0386 C   0  0  0  0  0  0  0  0  0  0  0  0
   45.0587    4.4936    9.6752 C   0  0  0  0  0  0  0  0  0  0  0  0
   45.7414    4.6713    8.4636 C   0  0  0  0  0  0  0  0  0  0  0  0
   45.9842    3.5846    7.6217 C   0  0  0  0  0  0  0  0  0  0  0  0
   45.5553    2.3104    7.9871 C   0  0  0  0  0  0  0  0  0  0  0  0
   44.8872    2.1193    9.1958 C   0  0  0  0  0  0  0  0  0  0  0  0
   55.9742   15.7273    5.0197 H   0  0  0  0  0  0  0  0  0  0  0  0
   54.5941   14.8797    5.7141 H   0  0  0  0  0  0  0  0  0  0  0  0
   54.9994   12.0578    3.5407 H   0  0  0  0  0  0  0  0  0  0  0  0
   56.6650   12.3049    4.0652 H   0  0  0  0  0  0  0  0  0  0  0  0
   54.1835   12.3764    5.8574 H   0  0  0  0  0  0  0  0  0  0  0  0
   55.3183   11.0235    5.7634 H   0  0  0  0  0  0  0  0  0  0  0  0
   57.5217   13.9849    5.8748 H   0  0  0  0  0  0  0  0  0  0  0  0
   56.6514   14.7416    7.1964 H   0  0  0  0  0  0  0  0  0  0  0  0
   56.3723   12.9018    8.7840 H   0  0  0  0  0  0  0  0  0  0  0  0
   55.3794   11.5680    8.3097 H   0  0  0  0  0  0  0  0  0  0  0  0
   53.4630   13.2320    7.7832 H   0  0  0  0  0  0  0  0  0  0  0  0
   54.5388   14.5188    8.2734 H   0  0  0  0  0  0  0  0  0  0  0  0
   52.9788   11.1522    8.4091 H   0  0  0  0  0  0  0  0  0  0  0  0
   52.8830   13.4165   12.0719 H   0  0  0  0  0  0  0  0  0  0  0  0
   51.1636   11.9048   12.9596 H   0  0  0  0  0  0  0  0  0  0  0  0
   51.2644    9.6661    9.2761 H   0  0  0  0  0  0  0  0  0  0  0  0
   48.5990   11.2895   12.1998 H   0  0  0  0  0  0  0  0  0  0  0  0
   51.1584    7.9243   11.4098 H   0  0  0  0  0  0  0  0  0  0  0  0
   46.9229    9.7074   13.0818 H   0  0  0  0  0  0  0  0  0  0  0  0
   46.8721    7.2621   14.2671 H   0  0  0  0  0  0  0  0  0  0  0  0
   47.6330    5.9903   13.3281 H   0  0  0  0  0  0  0  0  0  0  0  0
   43.9140    5.5001   11.1924 H   0  0  0  0  0  0  0  0  0  0  0  0
   44.6425    6.5769   10.0120 H   0  0  0  0  0  0  0  0  0  0  0  0
   46.7301    5.2538   11.4130 H   0  0  0  0  0  0  0  0  0  0  0  0
   44.1210    3.0409   10.9804 H   0  0  0  0  0  0  0  0  0  0  0  0
   46.0843    5.6603    8.1683 H   0  0  0  0  0  0  0  0  0  0  0  0
   46.5059    3.7326    6.6799 H   0  0  0  0  0  0  0  0  0  0  0  0
   45.7416    1.4657    7.3295 H   0  0  0  0  0  0  0  0  0  0  0  0
   44.5543    1.1247    9.4808 H   0  0  0  0  0  0  0  0  0  0  0  0
  1  2  1  0
  2  3  1  0
  3  4  1  0
  4  5  1  0
  5  6  1  0
  1  6  1  0
  7  8  1  0
  5  7  1  0
  9 10  1  0
 10 11  2  0
  8  9  1  0
 12 13  2  0
 13 14  1  0
 14 15  2  0
 10 12  1  0
 11 15  1  0
 16 17  2  0
 16 14  1  0
 18 19  2  0
 19 20  1  0
 20 21  2  0
 17 21  1  0
 16 18  1  0
 22 23  2  0
 23 24  1  0
 20 24  1  0
 25 26  1  0
 23 26  1  0
 27 28  2  0
 25 28  1  0
 29 30  2  0
 30 31  1  0
 31 32  2  0
 27 32  1  0
 28 29  1  0
  1 33  1  0
  1 34  1  0
  3 35  1  0
  3 36  1  0
  4 37  1  0
  4 38  1  0
  6 39  1  0
  6 40  1  0
  7 41  1  0
  7 42  1  0
  8 43  1  0
  8 44  1  0
 11 45  1  0
 12 46  1  0
 13 47  1  0
 15 48  1  0
 17 49  1  0
 18 50  1  0
 21 51  1  0
 24 52  1  0
 24 53  1  0
 25 54  1  0
 25 55  1  0
 26 56  1  0
 27 57  1  0
 29 58  1  0
 30 59  1  0
 31 60  1  0
 32 61  1  0
M  END
> <Uni-Dock RESULT> 
ENERGY=   -5.172  LOWER_BOUND=    2.550  UPPER_BOUND=    3.422
INTER + INTRA:          -5.172
INTER:                  -5.172
INTRA:                   0.000
UNBOUND:                 0.000

$$$$

     RDKit          3D

 61 64  0  0  0  0  0  0  0  0999 V2000
   41.6226   17.1057    6.0969 C   0  0  0  0  0  0  0  0  0  0  0  0
   42.2012   16.8617    4.8075 O   0  0  0  0  0  0  0  0  0  0  0  0
   43.5270   16.3162    4.8774 C   0  0  0  0  0  0  0  0  0  0  0  0
   43.7782   15.5137    6.1603 C   0  0  0  0  0  0  0  0  0  0  0  0
   43.6645   16.3660    7.3552 N   0  0  0  0  0  0  0  0  0  0  0  0
   42.6623   17.4303    7.1801 C   0  0  0  0  0  0  0  0  0  0  0  0
   43.5430   15.6129    8.6115 C   0  0  0  0  0  0  0  0  0  0  0  0
   42.2313   14.8440    8.8524 C   0  0  0  0  0  0  0  0  0  0  0  0
   42.2298   14.2543   10.1555 O   0  0  0  0  0  0  0  0  0  0  0  0
   42.5920   12.9432   10.2717 C   0  0  0  0  0  0  0  0  0  0  0  0
   43.2998   12.1967    9.3330 C   0  0  0  0  0  0  0  0  0  0  0  0
   42.2203   12.3419   11.4739 C   0  0  0  0  0  0  0  0  0  0  0  0
   42.5301   11.0035   11.7298 C   0  0  0  0  0  0  0  0  0  0  0  0
   43.2352   10.2361   10.7919 C   0  0  0  0  0  0  0  0  0  0  0  0
   43.6159   10.8562    9.5918 C   0  0  0  0  0  0  0  0  0  0  0  0
   43.5670    8.8316   11.0610 C   0  0  0  0  0  0  0  0  0  0  0  0
   42.5892    7.8973   11.4155 C   0  0  0  0  0  0  0  0  0  0  0  0
   44.8741    8.3534   10.9848 C   0  0  0  0  0  0  0  0  0  0  0  0
   45.2486    7.0705   11.2233 N   0  0  0  0  0  0  0  0  0  0  0  0
   44.2747    6.1939   11.5668 C   0  0  0  0  0  0  0  0  0  0  0  0
   42.9396    6.5717   11.6709 C   0  0  0  0  0  0  0  0  0  0  0  0
   43.0396    3.3360   10.8810 O   0  0  0  0  0  0  0  0  0  0  0  0
   44.1707    3.8129   10.8159 C   0  0  0  0  0  0  0  0  0  0  0  0
   44.7001    4.7806   11.8512 C   0  0  0  0  0  0  0  0  0  0  0  0
   44.6917    2.6057    8.7483 C   0  0  0  0  0  0  0  0  0  0  0  0
   45.0502    3.5150    9.8078 N   0  0  0  0  0  0  0  0  0  0  0  0
   46.7666    1.4308    7.9214 C   0  0  0  0  0  0  0  0  0  0  0  0
   45.8161    2.4492    7.7621 C   0  0  0  0  0  0  0  0  0  0  0  0
   45.9506    3.3431    6.6904 C   0  0  0  0  0  0  0  0  0  0  0  0
   47.0031    3.2078    5.7834 C   0  0  0  0  0  0  0  0  0  0  0  0
   47.9346    2.1844    5.9443 C   0  0  0  0  0  0  0  0  0  0  0  0
   47.8187    1.2976    7.0138 C   0  0  0  0  0  0  0  0  0  0  0  0
   40.9210   17.9381    5.9877 H   0  0  0  0  0  0  0  0  0  0  0  0
   41.0372   16.2234    6.3768 H   0  0  0  0  0  0  0  0  0  0  0  0
   43.6645   15.6737    4.0006 H   0  0  0  0  0  0  0  0  0  0  0  0
   44.2421   17.1420    4.7887 H   0  0  0  0  0  0  0  0  0  0  0  0
   43.0565   14.6923    6.1918 H   0  0  0  0  0  0  0  0  0  0  0  0
   44.7812   15.0764    6.1237 H   0  0  0  0  0  0  0  0  0  0  0  0
   43.2066   18.3317    6.8727 H   0  0  0  0  0  0  0  0  0  0  0  0
   42.1621   17.6832    8.1238 H   0  0  0  0  0  0  0  0  0  0  0  0
   43.6930   16.3106    9.4488 H   0  0  0  0  0  0  0  0  0  0  0  0
   44.3916   14.9204    8.6943 H   0  0  0  0  0  0  0  0  0  0  0  0
   42.0099   14.1107    8.0696 H   0  0  0  0  0  0  0  0  0  0  0  0
   41.3921   15.5485    8.8469 H   0  0  0  0  0  0  0  0  0  0  0  0
   43.6326   12.6228    8.3932 H   0  0  0  0  0  0  0  0  0  0  0  0
   41.6791   12.9176   12.2206 H   0  0  0  0  0  0  0  0  0  0  0  0
   42.2265   10.5683   12.6792 H   0  0  0  0  0  0  0  0  0  0  0  0
   44.1593   10.2933    8.8348 H   0  0  0  0  0  0  0  0  0  0  0  0
   41.5454    8.1914   11.4877 H   0  0  0  0  0  0  0  0  0  0  0  0
   45.6983    9.0178   10.7328 H   0  0  0  0  0  0  0  0  0  0  0  0
   42.1751    5.8484   11.9397 H   0  0  0  0  0  0  0  0  0  0  0  0
   44.3377    4.4692   12.8387 H   0  0  0  0  0  0  0  0  0  0  0  0
   45.7946    4.7175   11.8931 H   0  0  0  0  0  0  0  0  0  0  0  0
   44.4270    1.6412    9.1914 H   0  0  0  0  0  0  0  0  0  0  0  0
   43.7906    2.9816    8.2524 H   0  0  0  0  0  0  0  0  0  0  0  0
   45.9734    3.9391    9.7985 H   0  0  0  0  0  0  0  0  0  0  0  0
   46.6890    0.7319    8.7530 H   0  0  0  0  0  0  0  0  0  0  0  0
   45.2320    4.1483    6.5555 H   0  0  0  0  0  0  0  0  0  0  0  0
   47.0947    3.8994    4.9500 H   0  0  0  0  0  0  0  0  0  0  0  0
   48.7514    2.0777    5.2357 H   0  0  0  0  0  0  0  0  0  0  0  0
   48.5468    0.5004    7.1395 H   0  0  0  0  0  0  0  0  0  0  0  0
  1  2  1  0
  2  3  1  0
  3  4  1  0
  4  5  1  0
  5  6  1  0
  1  6  1  0
  7  8  1  0
  5  7  1  0
  9 10  1  0
 10 11  2  0
  8  9  1  0
 12 13  2  0
 13 14  1  0
 14 15  2  0
 10 12  1  0
 11 15  1  0
 16 17  2  0
 16 14  1  0
 18 19  2  0
 19 20  1  0
 20 21  2  0
 17 21  1  0
 16 18  1  0
 22 23  2  0
 23 24  1  0
 20 24  1  0
 25 26  1  0
 23 26  1  0
 27 28  2  0
 25 28  1  0
 29 30  2  0
 30 31  1  0
 31 32  2  0
 27 32  1  0
 28 29  1  0
  1 33  1  0
  1 34  1  0
  3 35  1  0
  3 36  1  0
  4 37  1  0
  4 38  1  0
  6 39  1  0
  6 40  1  0
  7 41  1  0
  7 42  1  0
  8 43  1  0
  8 44  1  0
 11 45  1  0
 12 46  1  0
 13 47  1  0
 15 48  1  0
 17 49  1  0
 18 50  1  0
 21 51  1  0
 24 52  1  0
 24 53  1  0
 25 54  1  0
 25 55  1  0
 26 56  1  0
 27 57  1  0
 29 58  1  0
 30 59  1  0
 31 60  1  0
 32 61  1  0
M  END
> <Uni-Dock RESULT> 
ENERGY=   -4.891  LOWER_BOUND=    5.607  UPPER_BOUND=    6.014
INTER + INTRA:          -4.891
INTER:                  -4.891
INTRA:                   0.000
UNBOUND:                 0.000

$$$$

     RDKit          3D

 61 64  0  0  0  0  0  0  0  0999 V2000
   52.0944    6.3934   19.1505 C   0  0  0  0  0  0  0  0  0  0  0  0
   51.6439    7.1015   20.3135 O   0  0  0  0  0  0  0  0  0  0  0  0
   51.3568    8.4842   20.0568 C   0  0  0  0  0  0  0  0  0  0  0  0
   50.9411    8.7508   18.6045 C   0  0  0  0  0  0  0  0  0  0  0  0
   52.0266    8.4175   17.6677 N   0  0  0  0  0  0  0  0  0  0  0  0
   52.8375    7.2845   18.1439 C   0  0  0  0  0  0  0  0  0  0  0  0
   51.5905    8.3113   16.2682 C   0  0  0  0  0  0  0  0  0  0  0  0
   50.6983    7.1142   15.8931 C   0  0  0  0  0  0  0  0  0  0  0  0
   50.4495    7.0982   14.4847 O   0  0  0  0  0  0  0  0  0  0  0  0
   49.2832    7.6418   14.0285 C   0  0  0  0  0  0  0  0  0  0  0  0
   48.4584    8.5247   14.7209 C   0  0  0  0  0  0  0  0  0  0  0  0
   48.9382    7.2706   12.7292 C   0  0  0  0  0  0  0  0  0  0  0  0
   47.7711    7.7556   12.1331 C   0  0  0  0  0  0  0  0  0  0  0  0
   46.9260    8.6389   12.8196 C   0  0  0  0  0  0  0  0  0  0  0  0
   47.2910    9.0160   14.1212 C   0  0  0  0  0  0  0  0  0  0  0  0
   45.7024    9.1544   12.1931 C   0  0  0  0  0  0  0  0  0  0  0  0
   44.7343    8.3022   11.6537 C   0  0  0  0  0  0  0  0  0  0  0  0
   45.4412   10.5202   12.0955 C   0  0  0  0  0  0  0  0  0  0  0  0
   44.3336   11.0620   11.5276 N   0  0  0  0  0  0  0  0  0  0  0  0
   43.4186   10.2059   11.0130 C   0  0  0  0  0  0  0  0  0  0  0  0
   43.5859    8.8254   11.0596 C   0  0  0  0  0  0  0  0  0  0  0  0
   40.3169    9.4690   11.0059 O   0  0  0  0  0  0  0  0  0  0  0  0
   40.9430   10.5179   11.1445 C   0  0  0  0  0  0  0  0  0  0  0  0
   42.2058   10.8138   10.3660 C   0  0  0  0  0  0  0  0  0  0  0  0
   39.3736   11.3742   12.8202 C   0  0  0  0  0  0  0  0  0  0  0  0
   40.5584   11.5086   12.0102 N   0  0  0  0  0  0  0  0  0  0  0  0
   38.3905   13.6598   13.2432 C   0  0  0  0  0  0  0  0  0  0  0  0
   39.1698   12.5835   13.6906 C   0  0  0  0  0  0  0  0  0  0  0  0
   39.7873   12.6669   14.9465 C   0  0  0  0  0  0  0  0  0  0  0  0
   39.6112   13.7958   15.7485 C   0  0  0  0  0  0  0  0  0  0  0  0
   38.8244   14.8541   15.2991 C   0  0  0  0  0  0  0  0  0  0  0  0
   38.2161   14.7882   14.0463 C   0  0  0  0  0  0  0  0  0  0  0  0
   52.7488    5.5862   19.4929 H   0  0  0  0  0  0  0  0  0  0  0  0
   51.2223    5.9260   18.6809 H   0  0  0  0  0  0  0  0  0  0  0  0
   50.5527    8.7847   20.7379 H   0  0  0  0  0  0  0  0  0  0  0  0
   52.2423    9.0729   20.3223 H   0  0  0  0  0  0  0  0  0  0  0  0
   50.0448    8.1595   18.3958 H   0  0  0  0  0  0  0  0  0  0  0  0
   50.6787    9.8075   18.4907 H   0  0  0  0  0  0  0  0  0  0  0  0
   53.7145    7.7106   18.6466 H   0  0  0  0  0  0  0  0  0  0  0  0
   53.2257    6.6795   17.3145 H   0  0  0  0  0  0  0  0  0  0  0  0
   52.4850    8.2891   15.6281 H   0  0  0  0  0  0  0  0  0  0  0  0
   51.0877    9.2446   15.9808 H   0  0  0  0  0  0  0  0  0  0  0  0
   49.7712    7.0670   16.4744 H   0  0  0  0  0  0  0  0  0  0  0  0
   51.2330    6.1823   16.1085 H   0  0  0  0  0  0  0  0  0  0  0  0
   48.6930    8.8631   15.7239 H   0  0  0  0  0  0  0  0  0  0  0  0
   49.5807    6.5925   12.1731 H   0  0  0  0  0  0  0  0  0  0  0  0
   47.5348    7.4466   11.1173 H   0  0  0  0  0  0  0  0  0  0  0  0
   46.6587    9.6951   14.6904 H   0  0  0  0  0  0  0  0  0  0  0  0
   44.8617    7.2238   11.6985 H   0  0  0  0  0  0  0  0  0  0  0  0
   46.1509   11.2532   12.4740 H   0  0  0  0  0  0  0  0  0  0  0  0
   42.8338    8.1586   10.6476 H   0  0  0  0  0  0  0  0  0  0  0  0
   42.0875   10.4254    9.3469 H   0  0  0  0  0  0  0  0  0  0  0  0
   42.3352   11.8987   10.2668 H   0  0  0  0  0  0  0  0  0  0  0  0
   38.5150   11.2225   12.1595 H   0  0  0  0  0  0  0  0  0  0  0  0
   39.4651   10.4690   13.4295 H   0  0  0  0  0  0  0  0  0  0  0  0
   41.1132   12.3559   12.0897 H   0  0  0  0  0  0  0  0  0  0  0  0
   37.9106   13.6223   12.2663 H   0  0  0  0  0  0  0  0  0  0  0  0
   40.4067   11.8490   15.3075 H   0  0  0  0  0  0  0  0  0  0  0  0
   40.0859   13.8485   16.7248 H   0  0  0  0  0  0  0  0  0  0  0  0
   38.6849   15.7309   15.9256 H   0  0  0  0  0  0  0  0  0  0  0  0
   37.6037   15.6149   13.6958 H   0  0  0  0  0  0  0  0  0  0  0  0
  1  2  1  0
  2  3  1  0
  3  4  1  0
  4  5  1  0
  5  6  1  0
  1  6  1  0
  7  8  1  0
  5  7  1  0
  9 10  1  0
 10 11  2  0
  8  9  1  0
 12 13  2  0
 13 14  1  0
 14 15  2  0
 10 12  1  0
 11 15  1  0
 16 17  2  0
 16 14  1  0
 18 19  2  0
 19 20  1  0
 20 21  2  0
 17 21  1  0
 16 18  1  0
 22 23  2  0
 23 24  1  0
 20 24  1  0
 25 26  1  0
 23 26  1  0
 27 28  2  0
 25 28  1  0
 29 30  2  0
 30 31  1  0
 31 32  2  0
 27 32  1  0
 28 29  1  0
  1 33  1  0
  1 34  1  0
  3 35  1  0
  3 36  1  0
  4 37  1  0
  4 38  1  0
  6 39  1  0
  6 40  1  0
  7 41  1  0
  7 42  1  0
  8 43  1  0
  8 44  1  0
 11 45  1  0
 12 46  1  0
 13 47  1  0
 15 48  1  0
 17 49  1  0
 18 50  1  0
 21 51  1  0
 24 52  1  0
 24 53  1  0
 25 54  1  0
 25 55  1  0
 26 56  1  0
 27 57  1  0
 29 58  1  0
 30 59  1  0
 31 60  1  0
 32 61  1  0
M  END
> <Uni-Dock RESULT> 
ENERGY=   -4.714  LOWER_BOUND=    6.518  UPPER_BOUND=   10.056
INTER + INTRA:          -4.714
INTER:                  -4.714
INTRA:                   0.000
UNBOUND:                 0.000

$$$$

     RDKit          3D

 61 64  0  0  0  0  0  0  0  0999 V2000
   38.5675   12.4599   11.3025 C   0  0  0  0  0  0  0  0  0  0  0  0
   37.8806   11.3775   11.9456 O   0  0  0  0  0  0  0  0  0  0  0  0
   38.4003   10.0878   11.5894 C   0  0  0  0  0  0  0  0  0  0  0  0
   39.8824   10.1264   11.1955 C   0  0  0  0  0  0  0  0  0  0  0  0
   40.0961   10.9558    9.9982 N   0  0  0  0  0  0  0  0  0  0  0  0
   39.1514   12.0833    9.9326 C   0  0  0  0  0  0  0  0  0  0  0  0
   41.5015   11.3224    9.7738 C   0  0  0  0  0  0  0  0  0  0  0  0
   42.1401   12.3176   10.7595 C   0  0  0  0  0  0  0  0  0  0  0  0
   43.4684   12.6488   10.3451 O   0  0  0  0  0  0  0  0  0  0  0  0
   44.5101   11.9772   10.9176 C   0  0  0  0  0  0  0  0  0  0  0  0
   44.4348   10.7658   11.6004 C   0  0  0  0  0  0  0  0  0  0  0  0
   45.7541   12.5860   10.7543 C   0  0  0  0  0  0  0  0  0  0  0  0
   46.9092   12.0063   11.2857 C   0  0  0  0  0  0  0  0  0  0  0  0
   46.8493   10.7912   11.9825 C   0  0  0  0  0  0  0  0  0  0  0  0
   45.5938   10.1810   12.1282 C   0  0  0  0  0  0  0  0  0  0  0  0
   48.0623   10.1772   12.5364 C   0  0  0  0  0  0  0  0  0  0  0  0
   48.9185   10.8767   13.3922 C   0  0  0  0  0  0  0  0  0  0  0  0
   48.4310    8.8670   12.2353 C   0  0  0  0  0  0  0  0  0  0  0  0
   49.5382    8.2415   12.7103 N   0  0  0  0  0  0  0  0  0  0  0  0
   50.3457    8.9510   13.5346 C   0  0  0  0  0  0  0  0  0  0  0  0
   50.0666   10.2654   13.8957 C   0  0  0  0  0  0  0  0  0  0  0  0
   51.8404    8.8739   16.3495 O   0  0  0  0  0  0  0  0  0  0  0  0
   51.5222    8.0144   15.5302 C   0  0  0  0  0  0  0  0  0  0  0  0
   51.5813    8.2592   14.0385 C   0  0  0  0  0  0  0  0  0  0  0  0
   50.9804    6.3805   17.2740 C   0  0  0  0  0  0  0  0  0  0  0  0
   51.0878    6.7649   15.8888 N   0  0  0  0  0  0  0  0  0  0  0  0
   51.3727    3.8960   17.4815 C   0  0  0  0  0  0  0  0  0  0  0  0
   50.4750    4.9707   17.4096 C   0  0  0  0  0  0  0  0  0  0  0  0
   49.0978    4.7086   17.4282 C   0  0  0  0  0  0  0  0  0  0  0  0
   48.6277    3.3988   17.5384 C   0  0  0  0  0  0  0  0  0  0  0  0
   49.5290    2.3397   17.6220 C   0  0  0  0  0  0  0  0  0  0  0  0
   50.9007    2.5869   17.5910 C   0  0  0  0  0  0  0  0  0  0  0  0
   37.8529   13.2812   11.1938 H   0  0  0  0  0  0  0  0  0  0  0  0
   39.3584   12.8059   11.9765 H   0  0  0  0  0  0  0  0  0  0  0  0
   38.2590    9.4270   12.4519 H   0  0  0  0  0  0  0  0  0  0  0  0
   37.7907    9.6869   10.7716 H   0  0  0  0  0  0  0  0  0  0  0  0
   40.4486   10.5119   12.0483 H   0  0  0  0  0  0  0  0  0  0  0  0
   40.2309    9.1081   10.9954 H   0  0  0  0  0  0  0  0  0  0  0  0
   38.3251   11.7680    9.2835 H   0  0  0  0  0  0  0  0  0  0  0  0
   39.5961   12.9648    9.4533 H   0  0  0  0  0  0  0  0  0  0  0  0
   41.5933   11.7353    8.7582 H   0  0  0  0  0  0  0  0  0  0  0  0
   42.1065   10.4062    9.7381 H   0  0  0  0  0  0  0  0  0  0  0  0
   42.1074   11.9770   11.7999 H   0  0  0  0  0  0  0  0  0  0  0  0
   41.5808   13.2596   10.7365 H   0  0  0  0  0  0  0  0  0  0  0  0
   43.4963   10.2396   11.7346 H   0  0  0  0  0  0  0  0  0  0  0  0
   45.8282   13.5252   10.2117 H   0  0  0  0  0  0  0  0  0  0  0  0
   47.8626   12.5081   11.1370 H   0  0  0  0  0  0  0  0  0  0  0  0
   45.5035    9.2399   12.6679 H   0  0  0  0  0  0  0  0  0  0  0  0
   48.6949   11.9003   13.6808 H   0  0  0  0  0  0  0  0  0  0  0  0
   47.8300    8.2580   11.5629 H   0  0  0  0  0  0  0  0  0  0  0  0
   50.7251   10.8112   14.5653 H   0  0  0  0  0  0  0  0  0  0  0  0
   52.4689    8.8650   13.8184 H   0  0  0  0  0  0  0  0  0  0  0  0
   51.7221    7.3073   13.5114 H   0  0  0  0  0  0  0  0  0  0  0  0
   51.9632    6.4871   17.7425 H   0  0  0  0  0  0  0  0  0  0  0  0
   50.3118    7.0827   17.7828 H   0  0  0  0  0  0  0  0  0  0  0  0
   50.8337    6.0914   15.1720 H   0  0  0  0  0  0  0  0  0  0  0  0
   52.4467    4.0746   17.4572 H   0  0  0  0  0  0  0  0  0  0  0  0
   48.3838    5.5262   17.3604 H   0  0  0  0  0  0  0  0  0  0  0  0
   47.5586    3.2051   17.5616 H   0  0  0  0  0  0  0  0  0  0  0  0
   49.1622    1.3207   17.7114 H   0  0  0  0  0  0  0  0  0  0  0  0
   51.6031    1.7599   17.6547 H   0  0  0  0  0  0  0  0  0  0  0  0
  1  2  1  0
  2  3  1  0
  3  4  1  0
  4  5  1  0
  5  6  1  0
  1  6  1  0
  7  8  1  0
  5  7  1  0
  9 10  1  0
 10 11  2  0
  8  9  1  0
 12 13  2  0
 13 14  1  0
 14 15  2  0
 10 12  1  0
 11 15  1  0
 16 17  2  0
 16 14  1  0
 18 19  2  0
 19 20  1  0
 20 21  2  0
 17 21  1  0
 16 18  1  0
 22 23  2  0
 23 24  1  0
 20 24  1  0
 25 26  1  0
 23 26  1  0
 27 28  2  0
 25 28  1  0
 29 30  2  0
 30 31  1  0
 31 32  2  0
 27 32  1  0
 28 29  1  0
  1 33  1  0
  1 34  1  0
  3 35  1  0
  3 36  1  0
  4 37  1  0
  4 38  1  0
  6 39  1  0
  6 40  1  0
  7 41  1  0
  7 42  1  0
  8 43  1  0
  8 44  1  0
 11 45  1  0
 12 46  1  0
 13 47  1  0
 15 48  1  0
 17 49  1  0
 18 50  1  0
 21 51  1  0
 24 52  1  0
 24 53  1  0
 25 54  1  0
 25 55  1  0
 26 56  1  0
 27 57  1  0
 29 58  1  0
 30 59  1  0
 31 60  1  0
 32 61  1  0
M  END
> <Uni-Dock RESULT> 
ENERGY=   -4.530  LOWER_BOUND=    6.046  UPPER_BOUND=    9.513
INTER + INTRA:          -4.530
INTER:                  -4.530
INTRA:                   0.000
UNBOUND:                 0.000

$$$$

     RDKit          3D

 61 64  0  0  0  0  0  0  0  0999 V2000
   44.0971   17.8294    6.1987 C   0  0  0  0  0  0  0  0  0  0  0  0
   44.7592   17.5140    4.9662 O   0  0  0  0  0  0  0  0  0  0  0  0
   45.9677   16.7618    5.1507 C   0  0  0  0  0  0  0  0  0  0  0  0
   45.9556   15.9112    6.4271 C   0  0  0  0  0  0  0  0  0  0  0  0
   45.8560   16.7536    7.6302 N   0  0  0  0  0  0  0  0  0  0  0  0
   45.0582   17.9674    7.3890 C   0  0  0  0  0  0  0  0  0  0  0  0
   45.4884   16.0121    8.8447 C   0  0  0  0  0  0  0  0  0  0  0  0
   44.0538   15.4604    8.9309 C   0  0  0  0  0  0  0  0  0  0  0  0
   43.8250   14.8602   10.2089 O   0  0  0  0  0  0  0  0  0  0  0  0
   43.9613   13.5064   10.3205 C   0  0  0  0  0  0  0  0  0  0  0  0
   44.6347   12.6694    9.4344 C   0  0  0  0  0  0  0  0  0  0  0  0
   43.3776   12.9556   11.4610 C   0  0  0  0  0  0  0  0  0  0  0  0
   43.4436   11.5813   11.7055 C   0  0  0  0  0  0  0  0  0  0  0  0
   44.1110   10.7241   10.8193 C   0  0  0  0  0  0  0  0  0  0  0  0
   44.7063   11.2920    9.6823 C   0  0  0  0  0  0  0  0  0  0  0  0
   44.1869    9.2809   11.0771 C   0  0  0  0  0  0  0  0  0  0  0  0
   43.0423    8.5108   11.3043 C   0  0  0  0  0  0  0  0  0  0  0  0
   45.4027    8.6001   11.1164 C   0  0  0  0  0  0  0  0  0  0  0  0
   45.5429    7.2706   11.3517 N   0  0  0  0  0  0  0  0  0  0  0  0
   44.4124    6.5569   11.5702 C   0  0  0  0  0  0  0  0  0  0  0  0
   43.1504    7.1426   11.5528 C   0  0  0  0  0  0  0  0  0  0  0  0
   42.8176    3.9444   10.6786 O   0  0  0  0  0  0  0  0  0  0  0  0
   44.0106    4.2344   10.7406 C   0  0  0  0  0  0  0  0  0  0  0  0
   44.5772    5.0897   11.8522 C   0  0  0  0  0  0  0  0  0  0  0  0
   44.5436    2.9886    8.6990 C   0  0  0  0  0  0  0  0  0  0  0  0
   44.9308    3.8135    9.8160 N   0  0  0  0  0  0  0  0  0  0  0  0
   46.4803    1.5077    8.0467 C   0  0  0  0  0  0  0  0  0  0  0  0
   45.7244    2.6676    7.8249 C   0  0  0  0  0  0  0  0  0  0  0  0
   46.1081    3.5434    6.7995 C   0  0  0  0  0  0  0  0  0  0  0  0
   47.2134    3.2538    5.9976 C   0  0  0  0  0  0  0  0  0  0  0  0
   47.9497    2.0920    6.2190 C   0  0  0  0  0  0  0  0  0  0  0  0
   47.5857    1.2202    7.2442 C   0  0  0  0  0  0  0  0  0  0  0  0
   43.5511   18.7651    6.0458 H   0  0  0  0  0  0  0  0  0  0  0  0
   43.3538   17.0487    6.3921 H   0  0  0  0  0  0  0  0  0  0  0  0
   46.0911   16.1180    4.2726 H   0  0  0  0  0  0  0  0  0  0  0  0
   46.8098   17.4631    5.1584 H   0  0  0  0  0  0  0  0  0  0  0  0
   45.1135   15.2160    6.3618 H   0  0  0  0  0  0  0  0  0  0  0  0
   46.8750   15.3191    6.4769 H   0  0  0  0  0  0  0  0  0  0  0  0
   45.7670   18.7740    7.1647 H   0  0  0  0  0  0  0  0  0  0  0  0
   44.5101   18.2840    8.2857 H   0  0  0  0  0  0  0  0  0  0  0  0
   45.6600   16.6647    9.7136 H   0  0  0  0  0  0  0  0  0  0  0  0
   46.2036   15.1912    8.9902 H   0  0  0  0  0  0  0  0  0  0  0  0
   43.8007   14.7833    8.1081 H   0  0  0  0  0  0  0  0  0  0  0  0
   43.3418   16.2906    8.8636 H   0  0  0  0  0  0  0  0  0  0  0  0
   45.1255   13.0498    8.5455 H   0  0  0  0  0  0  0  0  0  0  0  0
   42.8605   13.6002   12.1675 H   0  0  0  0  0  0  0  0  0  0  0  0
   42.9790   11.1871   12.6065 H   0  0  0  0  0  0  0  0  0  0  0  0
   45.2286   10.6599    8.9662 H   0  0  0  0  0  0  0  0  0  0  0  0
   42.0565    8.9675   11.2816 H   0  0  0  0  0  0  0  0  0  0  0  0
   46.3431    9.1271   10.9677 H   0  0  0  0  0  0  0  0  0  0  0  0
   42.2575    6.5477   11.7223 H   0  0  0  0  0  0  0  0  0  0  0  0
   44.0706    4.8266   12.7889 H   0  0  0  0  0  0  0  0  0  0  0  0
   45.6378    4.8511   12.0005 H   0  0  0  0  0  0  0  0  0  0  0  0
   44.0855    2.0729    9.0841 H   0  0  0  0  0  0  0  0  0  0  0  0
   43.7692    3.5113    8.1279 H   0  0  0  0  0  0  0  0  0  0  0  0
   45.9054    4.0839    9.9113 H   0  0  0  0  0  0  0  0  0  0  0  0
   46.2080    0.8185    8.8448 H   0  0  0  0  0  0  0  0  0  0  0  0
   45.5437    4.4553    6.6186 H   0  0  0  0  0  0  0  0  0  0  0  0
   47.4985    3.9334    5.1989 H   0  0  0  0  0  0  0  0  0  0  0  0
   48.8078    1.8655    5.5919 H   0  0  0  0  0  0  0  0  0  0  0  0
   48.1616    0.3147    7.4172 H   0  0  0  0  0  0  0  0  0  0  0  0
  1  2  1  0
  2  3  1  0
  3  4  1  0
  4  5  1  0
  5  6  1  0
  1  6  1  0
  7  8  1  0
  5  7  1  0
  9 10  1  0
 10 11  2  0
  8  9  1  0
 12 13  2  0
 13 14  1  0
 14 15  2  0
 10 12  1  0
 11 15  1  0
 16 17  2  0
 16 14  1  0
 18 19  2  0
 19 20  1  0
 20 21  2  0
 17 21  1  0
 16 18  1  0
 22 23  2  0
 23 24  1  0
 20 24  1  0
 25 26  1  0
 23 26  1  0
 27 28  2  0
 25 28  1  0
 29 30  2  0
 30 31  1  0
 31 32  2  0
 27 32  1  0
 28 29  1  0
  1 33  1  0
  1 34  1  0
  3 35  1  0
  3 36  1  0
  4 37  1  0
  4 38  1  0
  6 39  1  0
  6 40  1  0
  7 41  1  0
  7 42  1  0
  8 43  1  0
  8 44  1  0
 11 45  1  0
 12 46  1  0
 13 47  1  0
 15 48  1  0
 17 49  1  0
 18 50  1  0
 21 51  1  0
 24 52  1  0
 24 53  1  0
 25 54  1  0
 25 55  1  0
 26 56  1  0
 27 57  1  0
 29 58  1  0
 30 59  1  0
 31 60  1  0
 32 61  1  0
M  END
> <Uni-Dock RESULT> 
ENERGY=   -4.517  LOWER_BOUND=    4.447  UPPER_BOUND=    4.761
INTER + INTRA:          -4.517
INTER:                  -4.517
INTRA:                   0.000
UNBOUND:                 0.000

$$$$

     RDKit          3D

 61 64  0  0  0  0  0  0  0  0999 V2000
   40.8092   12.4500   11.0722 C   0  0  0  0  0  0  0  0  0  0  0  0
   40.0481   11.3089   11.4912 O   0  0  0  0  0  0  0  0  0  0  0  0
   40.6148   10.0627   11.0599 C   0  0  0  0  0  0  0  0  0  0  0  0
   42.1355   10.1293   10.8701 C   0  0  0  0  0  0  0  0  0  0  0  0
   42.5012   11.0879    9.8144 N   0  0  0  0  0  0  0  0  0  0  0  0
   41.5690   12.2262    9.7561 C   0  0  0  0  0  0  0  0  0  0  0  0
   43.9226   11.4617    9.8192 C   0  0  0  0  0  0  0  0  0  0  0  0
   44.4227   12.3302   10.9878 C   0  0  0  0  0  0  0  0  0  0  0  0
   45.7926   12.6915   10.7914 O   0  0  0  0  0  0  0  0  0  0  0  0
   46.7527   11.9469   11.4138 C   0  0  0  0  0  0  0  0  0  0  0  0
   46.5931   10.6663   11.9370 C   0  0  0  0  0  0  0  0  0  0  0  0
   48.0051   12.5563   11.4856 C   0  0  0  0  0  0  0  0  0  0  0  0
   49.0828   11.9064   12.0931 C   0  0  0  0  0  0  0  0  0  0  0  0
   48.9366   10.6202   12.6316 C   0  0  0  0  0  0  0  0  0  0  0  0
   47.6752   10.0117   12.5409 C   0  0  0  0  0  0  0  0  0  0  0  0
   50.0689    9.9330   13.2648 C   0  0  0  0  0  0  0  0  0  0  0  0
   50.8029   10.5200   14.2999 C   0  0  0  0  0  0  0  0  0  0  0  0
   50.4788    8.6619   12.8658 C   0  0  0  0  0  0  0  0  0  0  0  0
   51.5165    7.9734   13.4062 N   0  0  0  0  0  0  0  0  0  0  0  0
   52.2064    8.5746   14.4050 C   0  0  0  0  0  0  0  0  0  0  0  0
   51.8774    9.8421   14.8753 C   0  0  0  0  0  0  0  0  0  0  0  0
   53.3195    8.1585   17.3633 O   0  0  0  0  0  0  0  0  0  0  0  0
   53.1147    7.4023   16.4160 C   0  0  0  0  0  0  0  0  0  0  0  0
   53.3679    7.8156   14.9830 C   0  0  0  0  0  0  0  0  0  0  0  0
   52.3552    5.5856   17.8744 C   0  0  0  0  0  0  0  0  0  0  0  0
   52.6417    6.1249   16.5686 N   0  0  0  0  0  0  0  0  0  0  0  0
   52.7261    3.0894   17.8442 C   0  0  0  0  0  0  0  0  0  0  0  0
   51.8416    4.1754   17.7797 C   0  0  0  0  0  0  0  0  0  0  0  0
   50.4748    3.9286   17.5880 C   0  0  0  0  0  0  0  0  0  0  0  0
   49.9993    2.6202   17.4844 C   0  0  0  0  0  0  0  0  0  0  0  0
   50.8858    1.5483   17.5626 C   0  0  0  0  0  0  0  0  0  0  0  0
   52.2488    1.7818   17.7397 C   0  0  0  0  0  0  0  0  0  0  0  0
   40.1120   13.2865   10.9663 H   0  0  0  0  0  0  0  0  0  0  0  0
   41.5036   12.7075   11.8790 H   0  0  0  0  0  0  0  0  0  0  0  0
   40.3641    9.3091   11.8148 H   0  0  0  0  0  0  0  0  0  0  0  0
   40.1191    9.7651   10.1288 H   0  0  0  0  0  0  0  0  0  0  0  0
   42.5836   10.4081   11.8282 H   0  0  0  0  0  0  0  0  0  0  0  0
   42.5111    9.1367   10.6014 H   0  0  0  0  0  0  0  0  0  0  0  0
   40.8362   11.9968    8.9728 H   0  0  0  0  0  0  0  0  0  0  0  0
   42.0694   13.1517    9.4436 H   0  0  0  0  0  0  0  0  0  0  0  0
   44.1451   11.9873    8.8786 H   0  0  0  0  0  0  0  0  0  0  0  0
   44.5304   10.5489    9.7576 H   0  0  0  0  0  0  0  0  0  0  0  0
   44.2552   11.8730   11.9688 H   0  0  0  0  0  0  0  0  0  0  0  0
   43.8677   13.2749   11.0004 H   0  0  0  0  0  0  0  0  0  0  0  0
   45.6472   10.1388   11.8861 H   0  0  0  0  0  0  0  0  0  0  0  0
   48.1462   13.5505   11.0690 H   0  0  0  0  0  0  0  0  0  0  0  0
   50.0456   12.4110   12.1289 H   0  0  0  0  0  0  0  0  0  0  0  0
   47.5185    9.0161   12.9523 H   0  0  0  0  0  0  0  0  0  0  0  0
   50.5396   11.5063   14.6726 H   0  0  0  0  0  0  0  0  0  0  0  0
   49.9734    8.1407   12.0551 H   0  0  0  0  0  0  0  0  0  0  0  0
   52.4404   10.3001   15.6836 H   0  0  0  0  0  0  0  0  0  0  0  0
   54.2744    8.4325   14.9518 H   0  0  0  0  0  0  0  0  0  0  0  0
   53.5801    6.9289   14.3728 H   0  0  0  0  0  0  0  0  0  0  0  0
   53.2676    5.6266   18.4764 H   0  0  0  0  0  0  0  0  0  0  0  0
   51.6230    6.2325   18.3689 H   0  0  0  0  0  0  0  0  0  0  0  0
   52.4863    5.5408   15.7520 H   0  0  0  0  0  0  0  0  0  0  0  0
   53.7934    3.2573   17.9810 H   0  0  0  0  0  0  0  0  0  0  0  0
   49.7729    4.7567   17.5220 H   0  0  0  0  0  0  0  0  0  0  0  0
   48.9371    2.4373   17.3453 H   0  0  0  0  0  0  0  0  0  0  0  0
   50.5142    0.5300   17.4855 H   0  0  0  0  0  0  0  0  0  0  0  0
   52.9399    0.9450   17.7990 H   0  0  0  0  0  0  0  0  0  0  0  0
  1  2  1  0
  2  3  1  0
  3  4  1  0
  4  5  1  0
  5  6  1  0
  1  6  1  0
  7  8  1  0
  5  7  1  0
  9 10  1  0
 10 11  2  0
  8  9  1  0
 12 13  2  0
 13 14  1  0
 14 15  2  0
 10 12  1  0
 11 15  1  0
 16 17  2  0
 16 14  1  0
 18 19  2  0
 19 20  1  0
 20 21  2  0
 17 21  1  0
 16 18  1  0
 22 23  2  0
 23 24  1  0
 20 24  1  0
 25 26  1  0
 23 26  1  0
 27 28  2  0
 25 28  1  0
 29 30  2  0
 30 31  1  0
 31 32  2  0
 27 32  1  0
 28 29  1  0
  1 33  1  0
  1 34  1  0
  3 35  1  0
  3 36  1  0
  4 37  1  0
  4 38  1  0
  6 39  1  0
  6 40  1  0
  7 41  1  0
  7 42  1  0
  8 43  1  0
  8 44  1  0
 11 45  1  0
 12 46  1  0
 13 47  1  0
 15 48  1  0
 17 49  1  0
 18 50  1  0
 21 51  1  0
 24 52  1  0
 24 53  1  0
 25 54  1  0
 25 55  1  0
 26 56  1  0
 27 57  1  0
 29 58  1  0
 30 59  1  0
 31 60  1  0
 32 61  1  0
M  END
> <Uni-Dock RESULT> 
ENERGY=   -4.360  LOWER_BOUND=    5.904  UPPER_BOUND=    9.171
INTER + INTRA:          -4.360
INTER:                  -4.360
INTRA:                   0.000
UNBOUND:                 0.000

$$$$
