
     RDKit          3D

 61 64  0  0  0  0  0  0  0  0999 V2000
   50.2351   18.1184   23.2778 C   0  0  0  0  0  0  0  0  0  0  0  0
   50.8885   18.4815   22.0543 O   0  0  0  0  0  0  0  0  0  0  0  0
   50.3412   17.7234   20.9687 C   0  0  0  0  0  0  0  0  0  0  0  0
   50.4986   16.2099   21.2020 C   0  0  0  0  0  0  0  0  0  0  0  0
   49.8718   15.7810   22.4738 N   0  0  0  0  0  0  0  0  0  0  0  0
   50.4078   16.6198   23.5705 C   0  0  0  0  0  0  0  0  0  0  0  0
   50.1285   14.3527   22.7649 C   0  0  0  0  0  0  0  0  0  0  0  0
   49.5110   13.3637   21.7572 C   0  0  0  0  0  0  0  0  0  0  0  0
   50.3958   13.2023   20.6457 O   0  0  0  0  0  0  0  0  0  0  0  0
   50.0349   12.2995   19.6855 C   0  0  0  0  0  0  0  0  0  0  0  0
   48.8594   11.5527   19.6573 C   0  0  0  0  0  0  0  0  0  0  0  0
   50.9614   12.1447   18.6543 C   0  0  0  0  0  0  0  0  0  0  0  0
   50.7221   11.2495   17.6069 C   0  0  0  0  0  0  0  0  0  0  0  0
   49.5470   10.4843   17.5667 C   0  0  0  0  0  0  0  0  0  0  0  0
   48.6204   10.6535   18.6086 C   0  0  0  0  0  0  0  0  0  0  0  0
   49.2958    9.5402   16.4695 C   0  0  0  0  0  0  0  0  0  0  0  0
   49.3700    9.9301   15.1283 C   0  0  0  0  0  0  0  0  0  0  0  0
   48.9721    8.2036   16.7028 C   0  0  0  0  0  0  0  0  0  0  0  0
   48.7278    7.2807   15.7375 N   0  0  0  0  0  0  0  0  0  0  0  0
   48.8141    7.6947   14.4502 C   0  0  0  0  0  0  0  0  0  0  0  0
   49.1296    9.0070   14.1104 C   0  0  0  0  0  0  0  0  0  0  0  0
   47.1481    7.6408   11.6868 O   0  0  0  0  0  0  0  0  0  0  0  0
   47.2276    6.9288   12.6850 C   0  0  0  0  0  0  0  0  0  0  0  0
   48.5453    6.6712   13.3826 C   0  0  0  0  0  0  0  0  0  0  0  0
   44.8178    6.3791   12.7045 C   0  0  0  0  0  0  0  0  0  0  0  0
   46.1438    6.3167   13.2738 N   0  0  0  0  0  0  0  0  0  0  0  0
   44.9755    5.0081   10.5914 C   0  0  0  0  0  0  0  0  0  0  0  0
   44.5133    5.1343   11.9103 C   0  0  0  0  0  0  0  0  0  0  0  0
   43.7982    4.0731   12.4818 C   0  0  0  0  0  0  0  0  0  0  0  0
   43.5372    2.9164   11.7429 C   0  0  0  0  0  0  0  0  0  0  0  0
   43.9943    2.8066   10.4300 C   0  0  0  0  0  0  0  0  0  0  0  0
   44.7149    3.8510    9.8550 C   0  0  0  0  0  0  0  0  0  0  0  0
   50.6887   18.7065   24.0822 H   0  0  0  0  0  0  0  0  0  0  0  0
   49.1748   18.3962   23.2194 H   0  0  0  0  0  0  0  0  0  0  0  0
   50.8785   18.0149   20.0595 H   0  0  0  0  0  0  0  0  0  0  0  0
   49.2865   17.9959   20.8332 H   0  0  0  0  0  0  0  0  0  0  0  0
   50.0338   15.6965   20.3545 H   0  0  0  0  0  0  0  0  0  0  0  0
   51.5690   15.9638   21.2114 H   0  0  0  0  0  0  0  0  0  0  0  0
   51.4770   16.4099   23.7117 H   0  0  0  0  0  0  0  0  0  0  0  0
   49.8891   16.3841   24.5071 H   0  0  0  0  0  0  0  0  0  0  0  0
   51.2066   14.1669   22.8509 H   0  0  0  0  0  0  0  0  0  0  0  0
   49.6747   14.1309   23.7391 H   0  0  0  0  0  0  0  0  0  0  0  0
   48.5296   13.7236   21.4260 H   0  0  0  0  0  0  0  0  0  0  0  0
   49.3922   12.3973   22.2626 H   0  0  0  0  0  0  0  0  0  0  0  0
   48.1032   11.6460   20.4295 H   0  0  0  0  0  0  0  0  0  0  0  0
   51.8824   12.7226   18.6666 H   0  0  0  0  0  0  0  0  0  0  0  0
   51.4735   11.1459   16.8267 H   0  0  0  0  0  0  0  0  0  0  0  0
   47.6868   10.0927   18.6072 H   0  0  0  0  0  0  0  0  0  0  0  0
   49.6021   10.9595   14.8647 H   0  0  0  0  0  0  0  0  0  0  0  0
   48.9071    7.8143   17.7163 H   0  0  0  0  0  0  0  0  0  0  0  0
   49.1791    9.3161   13.0696 H   0  0  0  0  0  0  0  0  0  0  0  0
   48.5424    5.6625   13.8136 H   0  0  0  0  0  0  0  0  0  0  0  0
   49.3483    6.6827   12.6359 H   0  0  0  0  0  0  0  0  0  0  0  0
   44.7103    7.2670   12.0723 H   0  0  0  0  0  0  0  0  0  0  0  0
   44.1111    6.4859   13.5359 H   0  0  0  0  0  0  0  0  0  0  0  0
   46.2963    5.6960   14.0586 H   0  0  0  0  0  0  0  0  0  0  0  0
   45.5480    5.8154   10.1339 H   0  0  0  0  0  0  0  0  0  0  0  0
   43.4375    4.1404   13.5054 H   0  0  0  0  0  0  0  0  0  0  0  0
   42.9775    2.0996   12.1915 H   0  0  0  0  0  0  0  0  0  0  0  0
   43.7911    1.9051    9.8563 H   0  0  0  0  0  0  0  0  0  0  0  0
   45.0781    3.7649    8.8336 H   0  0  0  0  0  0  0  0  0  0  0  0
  1  2  1  0
  2  3  1  0
  3  4  1  0
  4  5  1  0
  5  6  1  0
  1  6  1  0
  7  8  1  0
  5  7  1  0
  9 10  1  0
 10 11  2  0
  8  9  1  0
 12 13  2  0
 13 14  1  0
 14 15  2  0
 10 12  1  0
 11 15  1  0
 16 17  2  0
 16 14  1  0
 18 19  2  0
 19 20  1  0
 20 21  2  0
 17 21  1  0
 16 18  1  0
 22 23  2  0
 23 24  1  0
 20 24  1  0
 25 26  1  0
 23 26  1  0
 27 28  2  0
 25 28  1  0
 29 30  2  0
 30 31  1  0
 31 32  2  0
 27 32  1  0
 28 29  1  0
  1 33  1  0
  1 34  1  0
  3 35  1  0
  3 36  1  0
  4 37  1  0
  4 38  1  0
  6 39  1  0
  6 40  1  0
  7 41  1  0
  7 42  1  0
  8 43  1  0
  8 44  1  0
 11 45  1  0
 12 46  1  0
 13 47  1  0
 15 48  1  0
 17 49  1  0
 18 50  1  0
 21 51  1  0
 24 52  1  0
 24 53  1  0
 25 54  1  0
 25 55  1  0
 26 56  1  0
 27 57  1  0
 29 58  1  0
 30 59  1  0
 31 60  1  0
 32 61  1  0
M  END
> <Uni-Dock RESULT> 
ENERGY=   -4.731  LOWER_BOUND=    0.000  UPPER_BOUND=    0.000
INTER + INTRA:          -4.731
INTER:                  -4.731
INTRA:                   0.000
UNBOUND:                 0.000

$$$$

     RDKit          3D

 61 64  0  0  0  0  0  0  0  0999 V2000
   50.3582   18.8201   22.5362 C   0  0  0  0  0  0  0  0  0  0  0  0
   51.1323   19.0364   21.3489 O   0  0  0  0  0  0  0  0  0  0  0  0
   50.6207   18.2278   20.2825 C   0  0  0  0  0  0  0  0  0  0  0  0
   50.6494   16.7320   20.6452 C   0  0  0  0  0  0  0  0  0  0  0  0
   49.8932   16.4526   21.8880 N   0  0  0  0  0  0  0  0  0  0  0  0
   50.3985   17.3431   22.9582 C   0  0  0  0  0  0  0  0  0  0  0  0
   50.0222   15.0398   22.3101 C   0  0  0  0  0  0  0  0  0  0  0  0
   49.4179   14.0127   21.3330 C   0  0  0  0  0  0  0  0  0  0  0  0
   50.3752   13.7017   20.3174 O   0  0  0  0  0  0  0  0  0  0  0  0
   50.0285   12.7475   19.4028 C   0  0  0  0  0  0  0  0  0  0  0  0
   48.8083   12.0793   19.3320 C   0  0  0  0  0  0  0  0  0  0  0  0
   51.0212   12.4470   18.4702 C   0  0  0  0  0  0  0  0  0  0  0  0
   50.8029   11.4851   17.4788 C   0  0  0  0  0  0  0  0  0  0  0  0
   49.5828   10.7977   17.3974 C   0  0  0  0  0  0  0  0  0  0  0  0
   48.5901   11.1133   18.3396 C   0  0  0  0  0  0  0  0  0  0  0  0
   49.3531    9.7837   16.3594 C   0  0  0  0  0  0  0  0  0  0  0  0
   49.5627   10.0547   15.0032 C   0  0  0  0  0  0  0  0  0  0  0  0
   48.9163    8.4952   16.6671 C   0  0  0  0  0  0  0  0  0  0  0  0
   48.6844    7.5130   15.7591 N   0  0  0  0  0  0  0  0  0  0  0  0
   48.9034    7.8116   14.4556 C   0  0  0  0  0  0  0  0  0  0  0  0
   49.3389    9.0676   14.0433 C   0  0  0  0  0  0  0  0  0  0  0  0
   47.4652    7.6365   11.5719 O   0  0  0  0  0  0  0  0  0  0  0  0
   47.4128    7.0065   12.6256 C   0  0  0  0  0  0  0  0  0  0  0  0
   48.6482    6.7225   13.4516 C   0  0  0  0  0  0  0  0  0  0  0  0
   44.9759    6.6189   12.4807 C   0  0  0  0  0  0  0  0  0  0  0  0
   46.2440    6.5177   13.1649 N   0  0  0  0  0  0  0  0  0  0  0  0
   45.2035    5.0691   10.5019 C   0  0  0  0  0  0  0  0  0  0  0  0
   44.6473    5.3348   11.7625 C   0  0  0  0  0  0  0  0  0  0  0  0
   43.8140    4.3739   12.3511 C   0  0  0  0  0  0  0  0  0  0  0  0
   43.5305    3.1791   11.6846 C   0  0  0  0  0  0  0  0  0  0  0  0
   44.0825    2.9306   10.4283 C   0  0  0  0  0  0  0  0  0  0  0  0
   44.9202    3.8741    9.8379 C   0  0  0  0  0  0  0  0  0  0  0  0
   50.7870   19.4424   23.3285 H   0  0  0  0  0  0  0  0  0  0  0  0
   49.3289   19.1608   22.3656 H   0  0  0  0  0  0  0  0  0  0  0  0
   51.2488   18.4068   19.4028 H   0  0  0  0  0  0  0  0  0  0  0  0
   49.6026   18.5564   20.0361 H   0  0  0  0  0  0  0  0  0  0  0  0
   50.2184   16.1813   19.8034 H   0  0  0  0  0  0  0  0  0  0  0  0
   51.6951   16.4182   20.7656 H   0  0  0  0  0  0  0  0  0  0  0  0
   51.4350   17.0763   23.2065 H   0  0  0  0  0  0  0  0  0  0  0  0
   49.7906   17.2207   23.8623 H   0  0  0  0  0  0  0  0  0  0  0  0
   51.0737   14.7918   22.5026 H   0  0  0  0  0  0  0  0  0  0  0  0
   49.4769   14.9301   23.2560 H   0  0  0  0  0  0  0  0  0  0  0  0
   48.4948   14.4070   20.8918 H   0  0  0  0  0  0  0  0  0  0  0  0
   49.1896   13.1016   21.8998 H   0  0  0  0  0  0  0  0  0  0  0  0
   48.0012   12.2859   20.0268 H   0  0  0  0  0  0  0  0  0  0  0  0
   51.9775   12.9626   18.5166 H   0  0  0  0  0  0  0  0  0  0  0  0
   51.6052   11.2680   16.7764 H   0  0  0  0  0  0  0  0  0  0  0  0
   47.6216   10.6165   18.3016 H   0  0  0  0  0  0  0  0  0  0  0  0
   49.8887   11.0412   14.6814 H   0  0  0  0  0  0  0  0  0  0  0  0
   48.7422    8.1969   17.6984 H   0  0  0  0  0  0  0  0  0  0  0  0
   49.4940    9.2850   12.9897 H   0  0  0  0  0  0  0  0  0  0  0  0
   48.5381    5.7556   13.9578 H   0  0  0  0  0  0  0  0  0  0  0  0
   49.5073    6.6192   12.7780 H   0  0  0  0  0  0  0  0  0  0  0  0
   44.9837    7.4561   11.7746 H   0  0  0  0  0  0  0  0  0  0  0  0
   44.2142    6.8406   13.2376 H   0  0  0  0  0  0  0  0  0  0  0  0
   46.2878    5.9561   14.0058 H   0  0  0  0  0  0  0  0  0  0  0  0
   45.8677    5.7963   10.0339 H   0  0  0  0  0  0  0  0  0  0  0  0
   43.3780    4.5497   13.3316 H   0  0  0  0  0  0  0  0  0  0  0  0
   42.8792    2.4409   12.1456 H   0  0  0  0  0  0  0  0  0  0  0  0
   43.8616    1.9996    9.9110 H   0  0  0  0  0  0  0  0  0  0  0  0
   45.3572    3.6796    8.8612 H   0  0  0  0  0  0  0  0  0  0  0  0
  1  2  1  0
  2  3  1  0
  3  4  1  0
  4  5  1  0
  5  6  1  0
  1  6  1  0
  7  8  1  0
  5  7  1  0
  9 10  1  0
 10 11  2  0
  8  9  1  0
 12 13  2  0
 13 14  1  0
 14 15  2  0
 10 12  1  0
 11 15  1  0
 16 17  2  0
 16 14  1  0
 18 19  2  0
 19 20  1  0
 20 21  2  0
 17 21  1  0
 16 18  1  0
 22 23  2  0
 23 24  1  0
 20 24  1  0
 25 26  1  0
 23 26  1  0
 27 28  2  0
 25 28  1  0
 29 30  2  0
 30 31  1  0
 31 32  2  0
 27 32  1  0
 28 29  1  0
  1 33  1  0
  1 34  1  0
  3 35  1  0
  3 36  1  0
  4 37  1  0
  4 38  1  0
  6 39  1  0
  6 40  1  0
  7 41  1  0
  7 42  1  0
  8 43  1  0
  8 44  1  0
 11 45  1  0
 12 46  1  0
 13 47  1  0
 15 48  1  0
 17 49  1  0
 18 50  1  0
 21 51  1  0
 24 52  1  0
 24 53  1  0
 25 54  1  0
 25 55  1  0
 26 56  1  0
 27 57  1  0
 29 58  1  0
 30 59  1  0
 31 60  1  0
 32 61  1  0
M  END
> <Uni-Dock RESULT> 
ENERGY=   -4.290  LOWER_BOUND=    0.528  UPPER_BOUND=    0.533
INTER + INTRA:          -4.290
INTER:                  -4.290
INTRA:                   0.000
UNBOUND:                 0.000

$$$$

     RDKit          3D

 61 64  0  0  0  0  0  0  0  0999 V2000
   38.7089   17.1709    9.8874 C   0  0  0  0  0  0  0  0  0  0  0  0
   37.8993   15.9896    9.8189 O   0  0  0  0  0  0  0  0  0  0  0  0
   38.4935   14.9483   10.6034 C   0  0  0  0  0  0  0  0  0  0  0  0
   39.9174   14.6201   10.1192 C   0  0  0  0  0  0  0  0  0  0  0  0
   40.7928   15.8151   10.1340 N   0  0  0  0  0  0  0  0  0  0  0  0
   40.1291   16.8958    9.3691 C   0  0  0  0  0  0  0  0  0  0  0  0
   42.1243   15.5347    9.5517 C   0  0  0  0  0  0  0  0  0  0  0  0
   42.9715   14.5108   10.3319 C   0  0  0  0  0  0  0  0  0  0  0  0
   42.6148   13.1879    9.9229 O   0  0  0  0  0  0  0  0  0  0  0  0
   43.3234   12.1534   10.4660 C   0  0  0  0  0  0  0  0  0  0  0  0
   44.3316   12.2577   11.4215 C   0  0  0  0  0  0  0  0  0  0  0  0
   42.9686   10.8914    9.9897 C   0  0  0  0  0  0  0  0  0  0  0  0
   43.6163    9.7431   10.4565 C   0  0  0  0  0  0  0  0  0  0  0  0
   44.6385    9.8306   11.4132 C   0  0  0  0  0  0  0  0  0  0  0  0
   44.9826   11.1069   11.8880 C   0  0  0  0  0  0  0  0  0  0  0  0
   45.3231    8.6260   11.9017 C   0  0  0  0  0  0  0  0  0  0  0  0
   44.6173    7.5303   12.4095 C   0  0  0  0  0  0  0  0  0  0  0  0
   46.7127    8.5060   11.8846 C   0  0  0  0  0  0  0  0  0  0  0  0
   47.4072    7.4239   12.3202 N   0  0  0  0  0  0  0  0  0  0  0  0
   46.6886    6.3803   12.8004 C   0  0  0  0  0  0  0  0  0  0  0  0
   45.2983    6.3999   12.8614 C   0  0  0  0  0  0  0  0  0  0  0  0
   46.5268    4.4190   15.3582 O   0  0  0  0  0  0  0  0  0  0  0  0
   47.4087    5.0564   14.7873 C   0  0  0  0  0  0  0  0  0  0  0  0
   47.4589    5.1820   13.2804 C   0  0  0  0  0  0  0  0  0  0  0  0
   48.5795    5.6548   16.8805 C   0  0  0  0  0  0  0  0  0  0  0  0
   48.4147    5.7261   15.4472 N   0  0  0  0  0  0  0  0  0  0  0  0
   49.3068    3.2770   17.3123 C   0  0  0  0  0  0  0  0  0  0  0  0
   49.6314    4.6408   17.2520 C   0  0  0  0  0  0  0  0  0  0  0  0
   50.9518    5.0346   17.5082 C   0  0  0  0  0  0  0  0  0  0  0  0
   51.9232    4.0846   17.8339 C   0  0  0  0  0  0  0  0  0  0  0  0
   51.5860    2.7330   17.8993 C   0  0  0  0  0  0  0  0  0  0  0  0
   50.2791    2.3289   17.6366 C   0  0  0  0  0  0  0  0  0  0  0  0
   38.2309   17.9359    9.2668 H   0  0  0  0  0  0  0  0  0  0  0  0
   38.7236   17.5416   10.9204 H   0  0  0  0  0  0  0  0  0  0  0  0
   37.8576   14.0612   10.5092 H   0  0  0  0  0  0  0  0  0  0  0  0
   38.4931   15.2467   11.6598 H   0  0  0  0  0  0  0  0  0  0  0  0
   40.3184   13.8443   10.7788 H   0  0  0  0  0  0  0  0  0  0  0  0
   39.8587   14.2127    9.1009 H   0  0  0  0  0  0  0  0  0  0  0  0
   40.0686   16.6181    8.3078 H   0  0  0  0  0  0  0  0  0  0  0  0
   40.7146   17.8196    9.4453 H   0  0  0  0  0  0  0  0  0  0  0  0
   42.0257   15.2127    8.5072 H   0  0  0  0  0  0  0  0  0  0  0  0
   42.6882   16.4761    9.5568 H   0  0  0  0  0  0  0  0  0  0  0  0
   42.8227   14.6394   11.4106 H   0  0  0  0  0  0  0  0  0  0  0  0
   44.0259   14.6885   10.0866 H   0  0  0  0  0  0  0  0  0  0  0  0
   44.6353   13.2152   11.8312 H   0  0  0  0  0  0  0  0  0  0  0  0
   42.1831   10.7986    9.2436 H   0  0  0  0  0  0  0  0  0  0  0  0
   43.3214    8.7767   10.0525 H   0  0  0  0  0  0  0  0  0  0  0  0
   45.7582   11.2188   12.6443 H   0  0  0  0  0  0  0  0  0  0  0  0
   43.5315    7.5531   12.4703 H   0  0  0  0  0  0  0  0  0  0  0  0
   47.3366    9.3063   11.4933 H   0  0  0  0  0  0  0  0  0  0  0  0
   44.7467    5.5543   13.2639 H   0  0  0  0  0  0  0  0  0  0  0  0
   48.5034    5.2433   12.9509 H   0  0  0  0  0  0  0  0  0  0  0  0
   47.0509    4.2664   12.8360 H   0  0  0  0  0  0  0  0  0  0  0  0
   47.6292    5.4098   17.3668 H   0  0  0  0  0  0  0  0  0  0  0  0
   48.8715    6.6540   17.2248 H   0  0  0  0  0  0  0  0  0  0  0  0
   49.1404    6.1793   14.9065 H   0  0  0  0  0  0  0  0  0  0  0  0
   48.2891    2.9480   17.1001 H   0  0  0  0  0  0  0  0  0  0  0  0
   51.2330    6.0838   17.4581 H   0  0  0  0  0  0  0  0  0  0  0  0
   52.9441    4.3985   18.0361 H   0  0  0  0  0  0  0  0  0  0  0  0
   52.3436    1.9945   18.1520 H   0  0  0  0  0  0  0  0  0  0  0  0
   50.0153    1.2748   17.6804 H   0  0  0  0  0  0  0  0  0  0  0  0
  1  2  1  0
  2  3  1  0
  3  4  1  0
  4  5  1  0
  5  6  1  0
  1  6  1  0
  7  8  1  0
  5  7  1  0
  9 10  1  0
 10 11  2  0
  8  9  1  0
 12 13  2  0
 13 14  1  0
 14 15  2  0
 10 12  1  0
 11 15  1  0
 16 17  2  0
 16 14  1  0
 18 19  2  0
 19 20  1  0
 20 21  2  0
 17 21  1  0
 16 18  1  0
 22 23  2  0
 23 24  1  0
 20 24  1  0
 25 26  1  0
 23 26  1  0
 27 28  2  0
 25 28  1  0
 29 30  2  0
 30 31  1  0
 31 32  2  0
 27 32  1  0
 28 29  1  0
  1 33  1  0
  1 34  1  0
  3 35  1  0
  3 36  1  0
  4 37  1  0
  4 38  1  0
  6 39  1  0
  6 40  1  0
  7 41  1  0
  7 42  1  0
  8 43  1  0
  8 44  1  0
 11 45  1  0
 12 46  1  0
 13 47  1  0
 15 48  1  0
 17 49  1  0
 18 50  1  0
 21 51  1  0
 24 52  1  0
 24 53  1  0
 25 54  1  0
 25 55  1  0
 26 56  1  0
 27 57  1  0
 29 58  1  0
 30 59  1  0
 31 60  1  0
 32 61  1  0
M  END
> <Uni-Dock RESULT> 
ENERGY=   -3.898  LOWER_BOUND=    7.445  UPPER_BOUND=   10.588
INTER + INTRA:          -3.898
INTER:                  -3.898
INTRA:                   0.000
UNBOUND:                 0.000

$$$$

     RDKit          3D

 61 64  0  0  0  0  0  0  0  0999 V2000
   41.3094   12.1791    9.6148 C   0  0  0  0  0  0  0  0  0  0  0  0
   40.7910   10.8638    9.8537 O   0  0  0  0  0  0  0  0  0  0  0  0
   41.3929   10.3119   11.0310 C   0  0  0  0  0  0  0  0  0  0  0  0
   42.9251   10.2408   10.9006 C   0  0  0  0  0  0  0  0  0  0  0  0
   43.5154   11.5695   10.6166 N   0  0  0  0  0  0  0  0  0  0  0  0
   42.8349   12.1450    9.4336 C   0  0  0  0  0  0  0  0  0  0  0  0
   44.9717   11.4874   10.3655 C   0  0  0  0  0  0  0  0  0  0  0  0
   45.8123   11.0171   11.5685 C   0  0  0  0  0  0  0  0  0  0  0  0
   45.8304    9.5879   11.6067 O   0  0  0  0  0  0  0  0  0  0  0  0
   46.5939    8.9982   12.5745 C   0  0  0  0  0  0  0  0  0  0  0  0
   47.3212    9.6554   13.5641 C   0  0  0  0  0  0  0  0  0  0  0  0
   46.6165    7.6043   12.5291 C   0  0  0  0  0  0  0  0  0  0  0  0
   47.3618    6.8709   13.4579 C   0  0  0  0  0  0  0  0  0  0  0  0
   48.1056    7.5169   14.4566 C   0  0  0  0  0  0  0  0  0  0  0  0
   48.0702    8.9205   14.4939 C   0  0  0  0  0  0  0  0  0  0  0  0
   48.8927    6.7485   15.4306 C   0  0  0  0  0  0  0  0  0  0  0  0
   48.3275    5.7165   16.1869 C   0  0  0  0  0  0  0  0  0  0  0  0
   50.2459    7.0025   15.6539 C   0  0  0  0  0  0  0  0  0  0  0  0
   51.0295    6.3324   16.5371 N   0  0  0  0  0  0  0  0  0  0  0  0
   50.4478    5.3361   17.2478 C   0  0  0  0  0  0  0  0  0  0  0  0
   49.1043    5.0038   17.1004 C   0  0  0  0  0  0  0  0  0  0  0  0
   50.1188    4.2892   20.2827 O   0  0  0  0  0  0  0  0  0  0  0  0
   50.9585    4.9298   19.6547 C   0  0  0  0  0  0  0  0  0  0  0  0
   51.3171    4.5937   18.2238 C   0  0  0  0  0  0  0  0  0  0  0  0
   51.4873    6.4320   21.5451 C   0  0  0  0  0  0  0  0  0  0  0  0
   51.6355    6.0119   20.1711 N   0  0  0  0  0  0  0  0  0  0  0  0
   52.5646    4.5857   22.8868 C   0  0  0  0  0  0  0  0  0  0  0  0
   52.6123    5.8993   22.3956 C   0  0  0  0  0  0  0  0  0  0  0  0
   53.7349    6.6884   22.6806 C   0  0  0  0  0  0  0  0  0  0  0  0
   54.7804    6.1787   23.4547 C   0  0  0  0  0  0  0  0  0  0  0  0
   54.7171    4.8745   23.9445 C   0  0  0  0  0  0  0  0  0  0  0  0
   53.6108    4.0775   23.6591 C   0  0  0  0  0  0  0  0  0  0  0  0
   40.8376   12.5599    8.7031 H   0  0  0  0  0  0  0  0  0  0  0  0
   41.0181   12.8398   10.4414 H   0  0  0  0  0  0  0  0  0  0  0  0
   40.9865    9.3036   11.1669 H   0  0  0  0  0  0  0  0  0  0  0  0
   41.0966   10.9097   11.9027 H   0  0  0  0  0  0  0  0  0  0  0  0
   43.3169    9.8416   11.8414 H   0  0  0  0  0  0  0  0  0  0  0  0
   43.1785    9.5394   10.0944 H   0  0  0  0  0  0  0  0  0  0  0  0
   43.0701   11.5483    8.5416 H   0  0  0  0  0  0  0  0  0  0  0  0
   43.1898   13.1679    9.2610 H   0  0  0  0  0  0  0  0  0  0  0  0
   45.1757   10.8453    9.4992 H   0  0  0  0  0  0  0  0  0  0  0  0
   45.3183   12.4987   10.1179 H   0  0  0  0  0  0  0  0  0  0  0  0
   45.4038   11.4274   12.4996 H   0  0  0  0  0  0  0  0  0  0  0  0
   46.8367   11.3838   11.4282 H   0  0  0  0  0  0  0  0  0  0  0  0
   47.3261   10.7369   13.6481 H   0  0  0  0  0  0  0  0  0  0  0  0
   46.0525    7.0812   11.7606 H   0  0  0  0  0  0  0  0  0  0  0  0
   47.3659    5.7853   13.3836 H   0  0  0  0  0  0  0  0  0  0  0  0
   48.6186    9.4616   15.2638 H   0  0  0  0  0  0  0  0  0  0  0  0
   47.2738    5.4679   16.0813 H   0  0  0  0  0  0  0  0  0  0  0  0
   50.7667    7.7787   15.0979 H   0  0  0  0  0  0  0  0  0  0  0  0
   48.6591    4.2088   17.6929 H   0  0  0  0  0  0  0  0  0  0  0  0
   52.3744    4.8255   18.0453 H   0  0  0  0  0  0  0  0  0  0  0  0
   51.2121    3.5120   18.0781 H   0  0  0  0  0  0  0  0  0  0  0  0
   50.5221    6.1057   21.9468 H   0  0  0  0  0  0  0  0  0  0  0  0
   51.4873    7.5284   21.5523 H   0  0  0  0  0  0  0  0  0  0  0  0
   52.3567    6.4521   19.6138 H   0  0  0  0  0  0  0  0  0  0  0  0
   51.7078    3.9497   22.6626 H   0  0  0  0  0  0  0  0  0  0  0  0
   53.8024    7.7062   22.3038 H   0  0  0  0  0  0  0  0  0  0  0  0
   55.6455    6.7987   23.6755 H   0  0  0  0  0  0  0  0  0  0  0  0
   55.5322    4.4787   24.5462 H   0  0  0  0  0  0  0  0  0  0  0  0
   53.5623    3.0580   24.0343 H   0  0  0  0  0  0  0  0  0  0  0  0
  1  2  1  0
  2  3  1  0
  3  4  1  0
  4  5  1  0
  5  6  1  0
  1  6  1  0
  7  8  1  0
  5  7  1  0
  9 10  1  0
 10 11  2  0
  8  9  1  0
 12 13  2  0
 13 14  1  0
 14 15  2  0
 10 12  1  0
 11 15  1  0
 16 17  2  0
 16 14  1  0
 18 19  2  0
 19 20  1  0
 20 21  2  0
 17 21  1  0
 16 18  1  0
 22 23  2  0
 23 24  1  0
 20 24  1  0
 25 26  1  0
 23 26  1  0
 27 28  2  0
 25 28  1  0
 29 30  2  0
 30 31  1  0
 31 32  2  0
 27 32  1  0
 28 29  1  0
  1 33  1  0
  1 34  1  0
  3 35  1  0
  3 36  1  0
  4 37  1  0
  4 38  1  0
  6 39  1  0
  6 40  1  0
  7 41  1  0
  7 42  1  0
  8 43  1  0
  8 44  1  0
 11 45  1  0
 12 46  1  0
 13 47  1  0
 15 48  1  0
 17 49  1  0
 18 50  1  0
 21 51  1  0
 24 52  1  0
 24 53  1  0
 25 54  1  0
 25 55  1  0
 26 56  1  0
 27 57  1  0
 29 58  1  0
 30 59  1  0
 31 60  1  0
 32 61  1  0
M  END
> <Uni-Dock RESULT> 
ENERGY=   -3.873  LOWER_BOUND=    6.492  UPPER_BOUND=   11.383
INTER + INTRA:          -3.873
INTER:                  -3.873
INTRA:                   0.000
UNBOUND:                 0.000

$$$$

     RDKit          3D

 61 64  0  0  0  0  0  0  0  0999 V2000
   56.4347   19.1583    7.5708 C   0  0  0  0  0  0  0  0  0  0  0  0
   55.0307   19.4098    7.4251 O   0  0  0  0  0  0  0  0  0  0  0  0
   54.2927   18.5787    8.3291 C   0  0  0  0  0  0  0  0  0  0  0  0
   54.5727   17.0857    8.0789 C   0  0  0  0  0  0  0  0  0  0  0  0
   56.0168   16.7720    8.1811 N   0  0  0  0  0  0  0  0  0  0  0  0
   56.7627   17.6847    7.2843 C   0  0  0  0  0  0  0  0  0  0  0  0
   56.3063   15.3666    7.8181 C   0  0  0  0  0  0  0  0  0  0  0  0
   55.6853   14.3129    8.7557 C   0  0  0  0  0  0  0  0  0  0  0  0
   54.3412   14.0460    8.3476 O   0  0  0  0  0  0  0  0  0  0  0  0
   53.6614   13.0770    9.0303 C   0  0  0  0  0  0  0  0  0  0  0  0
   54.1342   12.3537   10.1229 C   0  0  0  0  0  0  0  0  0  0  0  0
   52.3755   12.8222    8.5536 C   0  0  0  0  0  0  0  0  0  0  0  0
   51.5692   11.8513    9.1561 C   0  0  0  0  0  0  0  0  0  0  0  0
   52.0321   11.1088   10.2526 C   0  0  0  0  0  0  0  0  0  0  0  0
   53.3269   11.3787   10.7256 C   0  0  0  0  0  0  0  0  0  0  0  0
   51.1882   10.0854   10.8842 C   0  0  0  0  0  0  0  0  0  0  0  0
   49.8891   10.3658   11.3201 C   0  0  0  0  0  0  0  0  0  0  0  0
   51.6331    8.7783   11.0823 C   0  0  0  0  0  0  0  0  0  0  0  0
   50.9069    7.7865   11.6585 N   0  0  0  0  0  0  0  0  0  0  0  0
   49.6511    8.0949   12.0633 C   0  0  0  0  0  0  0  0  0  0  0  0
   49.1128    9.3695   11.9123 C   0  0  0  0  0  0  0  0  0  0  0  0
   47.7218    7.8542   14.6392 O   0  0  0  0  0  0  0  0  0  0  0  0
   48.6728    7.2224   14.1849 C   0  0  0  0  0  0  0  0  0  0  0  0
   48.8475    6.9952   12.6993 C   0  0  0  0  0  0  0  0  0  0  0  0
   49.6335    6.7239   16.4071 C   0  0  0  0  0  0  0  0  0  0  0  0
   49.6707    6.6807   14.9638 N   0  0  0  0  0  0  0  0  0  0  0  0
   47.7328    5.1861   17.0334 C   0  0  0  0  0  0  0  0  0  0  0  0
   49.1140    5.4261   16.9716 C   0  0  0  0  0  0  0  0  0  0  0  0
   49.9950    4.4281   17.4099 C   0  0  0  0  0  0  0  0  0  0  0  0
   49.5032    3.2216   17.9145 C   0  0  0  0  0  0  0  0  0  0  0  0
   48.1282    2.9986   17.9789 C   0  0  0  0  0  0  0  0  0  0  0  0
   47.2432    3.9793   17.5367 C   0  0  0  0  0  0  0  0  0  0  0  0
   56.9614   19.7995    6.8566 H   0  0  0  0  0  0  0  0  0  0  0  0
   56.7532   19.4515    8.5794 H   0  0  0  0  0  0  0  0  0  0  0  0
   53.2284   18.7862    8.1732 H   0  0  0  0  0  0  0  0  0  0  0  0
   54.5384   18.8603    9.3613 H   0  0  0  0  0  0  0  0  0  0  0  0
   54.0042   16.5158    8.8204 H   0  0  0  0  0  0  0  0  0  0  0  0
   54.2025   16.8200    7.0795 H   0  0  0  0  0  0  0  0  0  0  0  0
   56.5118   17.4655    6.2373 H   0  0  0  0  0  0  0  0  0  0  0  0
   57.8410   17.5346    7.4134 H   0  0  0  0  0  0  0  0  0  0  0  0
   55.9992   15.1669    6.7837 H   0  0  0  0  0  0  0  0  0  0  0  0
   57.3940   15.2321    7.8732 H   0  0  0  0  0  0  0  0  0  0  0  0
   55.7156   14.6646    9.7938 H   0  0  0  0  0  0  0  0  0  0  0  0
   56.2753   13.3923    8.6664 H   0  0  0  0  0  0  0  0  0  0  0  0
   55.1222   12.5231   10.5375 H   0  0  0  0  0  0  0  0  0  0  0  0
   51.9967   13.3809    7.7012 H   0  0  0  0  0  0  0  0  0  0  0  0
   50.5764   11.6711    8.7488 H   0  0  0  0  0  0  0  0  0  0  0  0
   53.7190   10.8382   11.5859 H   0  0  0  0  0  0  0  0  0  0  0  0
   49.4753   11.3662   11.2148 H   0  0  0  0  0  0  0  0  0  0  0  0
   52.6259    8.4723   10.7601 H   0  0  0  0  0  0  0  0  0  0  0  0
   48.1071    9.5937   12.2581 H   0  0  0  0  0  0  0  0  0  0  0  0
   49.3290    6.0243   12.5297 H   0  0  0  0  0  0  0  0  0  0  0  0
   47.8571    6.9313   12.2330 H   0  0  0  0  0  0  0  0  0  0  0  0
   49.0171    7.5605   16.7528 H   0  0  0  0  0  0  0  0  0  0  0  0
   50.6568    6.9104   16.7539 H   0  0  0  0  0  0  0  0  0  0  0  0
   50.3898    6.1217   14.5226 H   0  0  0  0  0  0  0  0  0  0  0  0
   47.0309    5.9429   16.6821 H   0  0  0  0  0  0  0  0  0  0  0  0
   51.0702    4.5837   17.3635 H   0  0  0  0  0  0  0  0  0  0  0  0
   50.1929    2.4543   18.2571 H   0  0  0  0  0  0  0  0  0  0  0  0
   47.7468    2.0584   18.3711 H   0  0  0  0  0  0  0  0  0  0  0  0
   46.1706    3.8051   17.5798 H   0  0  0  0  0  0  0  0  0  0  0  0
  1  2  1  0
  2  3  1  0
  3  4  1  0
  4  5  1  0
  5  6  1  0
  1  6  1  0
  7  8  1  0
  5  7  1  0
  9 10  1  0
 10 11  2  0
  8  9  1  0
 12 13  2  0
 13 14  1  0
 14 15  2  0
 10 12  1  0
 11 15  1  0
 16 17  2  0
 16 14  1  0
 18 19  2  0
 19 20  1  0
 20 21  2  0
 17 21  1  0
 16 18  1  0
 22 23  2  0
 23 24  1  0
 20 24  1  0
 25 26  1  0
 23 26  1  0
 27 28  2  0
 25 28  1  0
 29 30  2  0
 30 31  1  0
 31 32  2  0
 27 32  1  0
 28 29  1  0
  1 33  1  0
  1 34  1  0
  3 35  1  0
  3 36  1  0
  4 37  1  0
  4 38  1  0
  6 39  1  0
  6 40  1  0
  7 41  1  0
  7 42  1  0
  8 43  1  0
  8 44  1  0
 11 45  1  0
 12 46  1  0
 13 47  1  0
 15 48  1  0
 17 49  1  0
 18 50  1  0
 21 51  1  0
 24 52  1  0
 24 53  1  0
 25 54  1  0
 25 55  1  0
 26 56  1  0
 27 57  1  0
 29 58  1  0
 30 59  1  0
 31 60  1  0
 32 61  1  0
M  END
> <Uni-Dock RESULT> 
ENERGY=   -3.633  LOWER_BOUND=    7.639  UPPER_BOUND=   10.002
INTER + INTRA:          -3.633
INTER:                  -3.633
INTRA:                   0.000
UNBOUND:                 0.000

$$$$

     RDKit          3D

 61 64  0  0  0  0  0  0  0  0999 V2000
   48.0837    3.0194   17.6145 C   0  0  0  0  0  0  0  0  0  0  0  0
   48.8522    4.1348   18.0845 O   0  0  0  0  0  0  0  0  0  0  0  0
   48.1882    5.3584   17.7459 C   0  0  0  0  0  0  0  0  0  0  0  0
   47.9808    5.4856   16.2258 C   0  0  0  0  0  0  0  0  0  0  0  0
   47.2209    4.3388   15.6763 N   0  0  0  0  0  0  0  0  0  0  0  0
   47.8923    3.0855   16.0913 C   0  0  0  0  0  0  0  0  0  0  0  0
   47.1275    4.3915   14.2001 C   0  0  0  0  0  0  0  0  0  0  0  0
   46.3385    5.5918   13.6420 C   0  0  0  0  0  0  0  0  0  0  0  0
   47.2059    6.7237   13.5366 O   0  0  0  0  0  0  0  0  0  0  0  0
   46.6844    7.8618   12.9888 C   0  0  0  0  0  0  0  0  0  0  0  0
   45.3699    8.0448   12.5659 C   0  0  0  0  0  0  0  0  0  0  0  0
   47.5905    8.9146   12.8614 C   0  0  0  0  0  0  0  0  0  0  0  0
   47.1925   10.1376   12.3121 C   0  0  0  0  0  0  0  0  0  0  0  0
   45.8746   10.3366   11.8746 C   0  0  0  0  0  0  0  0  0  0  0  0
   44.9713    9.2701   12.0130 C   0  0  0  0  0  0  0  0  0  0  0  0
   45.4557   11.6192   11.2933 C   0  0  0  0  0  0  0  0  0  0  0  0
   45.6722   12.8341   11.9517 C   0  0  0  0  0  0  0  0  0  0  0  0
   44.8217   11.6980   10.0533 C   0  0  0  0  0  0  0  0  0  0  0  0
   44.4091   12.8474    9.4602 N   0  0  0  0  0  0  0  0  0  0  0  0
   44.6408   14.0045   10.1262 C   0  0  0  0  0  0  0  0  0  0  0  0
   45.2655   14.0348   11.3696 C   0  0  0  0  0  0  0  0  0  0  0  0
   43.1204   16.6793   11.1003 O   0  0  0  0  0  0  0  0  0  0  0  0
   42.9924   15.8750   10.1801 C   0  0  0  0  0  0  0  0  0  0  0  0
   44.1853   15.2765    9.4674 C   0  0  0  0  0  0  0  0  0  0  0  0
   40.5220   15.9473   10.2224 C   0  0  0  0  0  0  0  0  0  0  0  0
   41.7734   15.4282    9.7215 N   0  0  0  0  0  0  0  0  0  0  0  0
   40.4424   18.3232    9.3749 C   0  0  0  0  0  0  0  0  0  0  0  0
   39.9694   17.0042    9.3002 C   0  0  0  0  0  0  0  0  0  0  0  0
   39.0053   16.6842    8.3348 C   0  0  0  0  0  0  0  0  0  0  0  0
   38.5131   17.6676    7.4728 C   0  0  0  0  0  0  0  0  0  0  0  0
   38.9848   18.9768    7.5628 C   0  0  0  0  0  0  0  0  0  0  0  0
   39.9504   19.3043    8.5119 C   0  0  0  0  0  0  0  0  0  0  0  0
   48.6285    2.1074   17.8791 H   0  0  0  0  0  0  0  0  0  0  0  0
   47.1200    2.9956   18.1394 H   0  0  0  0  0  0  0  0  0  0  0  0
   48.8145    6.1831   18.1036 H   0  0  0  0  0  0  0  0  0  0  0  0
   47.2317    5.4109   18.2821 H   0  0  0  0  0  0  0  0  0  0  0  0
   47.4441    6.4220   16.0444 H   0  0  0  0  0  0  0  0  0  0  0  0
   48.9637    5.5498   15.7398 H   0  0  0  0  0  0  0  0  0  0  0  0
   48.8770    3.0132   15.6095 H   0  0  0  0  0  0  0  0  0  0  0  0
   47.2958    2.2215   15.7756 H   0  0  0  0  0  0  0  0  0  0  0  0
   48.1288    4.3673   13.7516 H   0  0  0  0  0  0  0  0  0  0  0  0
   46.5959    3.4887   13.8737 H   0  0  0  0  0  0  0  0  0  0  0  0
   45.4816    5.8155   14.2884 H   0  0  0  0  0  0  0  0  0  0  0  0
   45.9787    5.3231   12.6411 H   0  0  0  0  0  0  0  0  0  0  0  0
   44.6255    7.2607   12.6545 H   0  0  0  0  0  0  0  0  0  0  0  0
   48.6191    8.7824   13.1881 H   0  0  0  0  0  0  0  0  0  0  0  0
   47.9302   10.9318   12.2167 H   0  0  0  0  0  0  0  0  0  0  0  0
   43.9339    9.3876   11.7030 H   0  0  0  0  0  0  0  0  0  0  0  0
   46.1471   12.8549   12.9301 H   0  0  0  0  0  0  0  0  0  0  0  0
   44.6275   10.8018    9.4684 H   0  0  0  0  0  0  0  0  0  0  0  0
   45.4272   14.9760   11.8886 H   0  0  0  0  0  0  0  0  0  0  0  0
   43.9312   15.0916    8.4164 H   0  0  0  0  0  0  0  0  0  0  0  0
   44.9984   16.0121    9.4609 H   0  0  0  0  0  0  0  0  0  0  0  0
   40.6488   16.3542   11.2313 H   0  0  0  0  0  0  0  0  0  0  0  0
   39.8264   15.1032   10.2986 H   0  0  0  0  0  0  0  0  0  0  0  0
   41.7461   14.8115    8.9195 H   0  0  0  0  0  0  0  0  0  0  0  0
   41.2045   18.5893   10.1079 H   0  0  0  0  0  0  0  0  0  0  0  0
   38.6291   15.6676    8.2483 H   0  0  0  0  0  0  0  0  0  0  0  0
   37.7617   17.4125    6.7298 H   0  0  0  0  0  0  0  0  0  0  0  0
   38.6014   19.7411    6.8905 H   0  0  0  0  0  0  0  0  0  0  0  0
   40.3247   20.3231    8.5795 H   0  0  0  0  0  0  0  0  0  0  0  0
  1  2  1  0
  2  3  1  0
  3  4  1  0
  4  5  1  0
  5  6  1  0
  1  6  1  0
  7  8  1  0
  5  7  1  0
  9 10  1  0
 10 11  2  0
  8  9  1  0
 12 13  2  0
 13 14  1  0
 14 15  2  0
 10 12  1  0
 11 15  1  0
 16 17  2  0
 16 14  1  0
 18 19  2  0
 19 20  1  0
 20 21  2  0
 17 21  1  0
 16 18  1  0
 22 23  2  0
 23 24  1  0
 20 24  1  0
 25 26  1  0
 23 26  1  0
 27 28  2  0
 25 28  1  0
 29 30  2  0
 30 31  1  0
 31 32  2  0
 27 32  1  0
 28 29  1  0
  1 33  1  0
  1 34  1  0
  3 35  1  0
  3 36  1  0
  4 37  1  0
  4 38  1  0
  6 39  1  0
  6 40  1  0
  7 41  1  0
  7 42  1  0
  8 43  1  0
  8 44  1  0
 11 45  1  0
 12 46  1  0
 13 47  1  0
 15 48  1  0
 17 49  1  0
 18 50  1  0
 21 51  1  0
 24 52  1  0
 24 53  1  0
 25 54  1  0
 25 55  1  0
 26 56  1  0
 27 57  1  0
 29 58  1  0
 30 59  1  0
 31 60  1  0
 32 61  1  0
M  END
> <Uni-Dock RESULT> 
ENERGY=   -3.599  LOWER_BOUND=    8.040  UPPER_BOUND=   11.591
INTER + INTRA:          -3.599
INTER:                  -3.599
INTRA:                   0.000
UNBOUND:                 0.000

$$$$

     RDKit          3D

 61 64  0  0  0  0  0  0  0  0999 V2000
   44.4220    2.4913   10.0820 C   0  0  0  0  0  0  0  0  0  0  0  0
   44.1427    3.3448    8.9643 O   0  0  0  0  0  0  0  0  0  0  0  0
   45.0606    4.4448    8.9528 C   0  0  0  0  0  0  0  0  0  0  0  0
   44.9761    5.2634   10.2539 C   0  0  0  0  0  0  0  0  0  0  0  0
   45.2213    4.4235   11.4493 N   0  0  0  0  0  0  0  0  0  0  0  0
   44.3035    3.2618   11.4062 C   0  0  0  0  0  0  0  0  0  0  0  0
   45.0174    5.1761   12.7073 C   0  0  0  0  0  0  0  0  0  0  0  0
   45.9988    6.3427   12.9322 C   0  0  0  0  0  0  0  0  0  0  0  0
   45.5131    7.5089   12.2625 O   0  0  0  0  0  0  0  0  0  0  0  0
   46.2290    8.6625   12.4177 C   0  0  0  0  0  0  0  0  0  0  0  0
   47.4192    8.8040   13.1274 C   0  0  0  0  0  0  0  0  0  0  0  0
   45.6788    9.7784   11.7872 C   0  0  0  0  0  0  0  0  0  0  0  0
   46.3053   11.0261   11.8676 C   0  0  0  0  0  0  0  0  0  0  0  0
   47.5004   11.1880   12.5841 C   0  0  0  0  0  0  0  0  0  0  0  0
   48.0462   10.0553   13.2101 C   0  0  0  0  0  0  0  0  0  0  0  0
   48.1577   12.4988   12.6733 C   0  0  0  0  0  0  0  0  0  0  0  0
   48.4612   13.2517   11.5343 C   0  0  0  0  0  0  0  0  0  0  0  0
   48.5135   13.0666   13.8967 C   0  0  0  0  0  0  0  0  0  0  0  0
   49.1223   14.2704   14.0499 N   0  0  0  0  0  0  0  0  0  0  0  0
   49.3956   14.9727   12.9238 C   0  0  0  0  0  0  0  0  0  0  0  0
   49.0822   14.4950   11.6547 C   0  0  0  0  0  0  0  0  0  0  0  0
   51.8224   16.5258   11.4700 O   0  0  0  0  0  0  0  0  0  0  0  0
   51.5066   16.2673   12.6290 C   0  0  0  0  0  0  0  0  0  0  0  0
   50.0678   16.3063   13.0951 C   0  0  0  0  0  0  0  0  0  0  0  0
   53.8350   15.8908   13.3685 C   0  0  0  0  0  0  0  0  0  0  0  0
   52.4097   15.9039   13.6028 N   0  0  0  0  0  0  0  0  0  0  0  0
   54.4526   18.3245   13.1126 C   0  0  0  0  0  0  0  0  0  0  0  0
   54.4775   17.1531   13.8849 C   0  0  0  0  0  0  0  0  0  0  0  0
   55.0766   17.1896   15.1513 C   0  0  0  0  0  0  0  0  0  0  0  0
   55.6531   18.3697   15.6278 C   0  0  0  0  0  0  0  0  0  0  0  0
   55.6298   19.5249   14.8471 C   0  0  0  0  0  0  0  0  0  0  0  0
   55.0280   19.5031   13.5910 C   0  0  0  0  0  0  0  0  0  0  0  0
   43.6939    1.6738   10.0639 H   0  0  0  0  0  0  0  0  0  0  0  0
   45.4202    2.0509    9.9620 H   0  0  0  0  0  0  0  0  0  0  0  0
   44.8022    5.0807    8.0989 H   0  0  0  0  0  0  0  0  0  0  0  0
   46.0775    4.0653    8.7887 H   0  0  0  0  0  0  0  0  0  0  0  0
   45.7213    6.0623   10.1886 H   0  0  0  0  0  0  0  0  0  0  0  0
   43.9804    5.7226   10.3178 H   0  0  0  0  0  0  0  0  0  0  0  0
   43.2656    3.6026   11.5233 H   0  0  0  0  0  0  0  0  0  0  0  0
   44.5310    2.5768   12.2314 H   0  0  0  0  0  0  0  0  0  0  0  0
   43.9856    5.5444   12.7706 H   0  0  0  0  0  0  0  0  0  0  0  0
   45.1706    4.4741   13.5368 H   0  0  0  0  0  0  0  0  0  0  0  0
   46.9980    6.0724   12.5704 H   0  0  0  0  0  0  0  0  0  0  0  0
   46.0442    6.5425   14.0100 H   0  0  0  0  0  0  0  0  0  0  0  0
   47.8925    7.9642   13.6249 H   0  0  0  0  0  0  0  0  0  0  0  0
   44.7499    9.6791   11.2307 H   0  0  0  0  0  0  0  0  0  0  0  0
   45.8399   11.8767   11.3737 H   0  0  0  0  0  0  0  0  0  0  0  0
   48.9822   10.1324   13.7615 H   0  0  0  0  0  0  0  0  0  0  0  0
   48.2291   12.8703   10.5424 H   0  0  0  0  0  0  0  0  0  0  0  0
   48.3012   12.5539   14.8322 H   0  0  0  0  0  0  0  0  0  0  0  0
   49.3248   15.0729   10.7667 H   0  0  0  0  0  0  0  0  0  0  0  0
   50.0296   16.6202   14.1455 H   0  0  0  0  0  0  0  0  0  0  0  0
   49.5329   17.0761   12.5260 H   0  0  0  0  0  0  0  0  0  0  0  0
   54.0499   15.7659   12.3019 H   0  0  0  0  0  0  0  0  0  0  0  0
   54.2421   15.0140   13.8859 H   0  0  0  0  0  0  0  0  0  0  0  0
   52.0817   15.7648   14.5501 H   0  0  0  0  0  0  0  0  0  0  0  0
   53.9767   18.3217   12.1316 H   0  0  0  0  0  0  0  0  0  0  0  0
   55.1006   16.2990   15.7748 H   0  0  0  0  0  0  0  0  0  0  0  0
   56.1203   18.3886   16.6092 H   0  0  0  0  0  0  0  0  0  0  0  0
   56.0782   20.4431   15.2199 H   0  0  0  0  0  0  0  0  0  0  0  0
   55.0027   20.4046   12.9831 H   0  0  0  0  0  0  0  0  0  0  0  0
  1  2  1  0
  2  3  1  0
  3  4  1  0
  4  5  1  0
  5  6  1  0
  1  6  1  0
  7  8  1  0
  5  7  1  0
  9 10  1  0
 10 11  2  0
  8  9  1  0
 12 13  2  0
 13 14  1  0
 14 15  2  0
 10 12  1  0
 11 15  1  0
 16 17  2  0
 16 14  1  0
 18 19  2  0
 19 20  1  0
 20 21  2  0
 17 21  1  0
 16 18  1  0
 22 23  2  0
 23 24  1  0
 20 24  1  0
 25 26  1  0
 23 26  1  0
 27 28  2  0
 25 28  1  0
 29 30  2  0
 30 31  1  0
 31 32  2  0
 27 32  1  0
 28 29  1  0
  1 33  1  0
  1 34  1  0
  3 35  1  0
  3 36  1  0
  4 37  1  0
  4 38  1  0
  6 39  1  0
  6 40  1  0
  7 41  1  0
  7 42  1  0
  8 43  1  0
  8 44  1  0
 11 45  1  0
 12 46  1  0
 13 47  1  0
 15 48  1  0
 17 49  1  0
 18 50  1  0
 21 51  1  0
 24 52  1  0
 24 53  1  0
 25 54  1  0
 25 55  1  0
 26 56  1  0
 27 57  1  0
 29 58  1  0
 30 59  1  0
 31 60  1  0
 32 61  1  0
M  END
> <Uni-Dock RESULT> 
ENERGY=   -3.489  LOWER_BOUND=    5.613  UPPER_BOUND=   13.478
INTER + INTRA:          -3.489
INTER:                  -3.489
INTRA:                   0.000
UNBOUND:                 0.000

$$$$

     RDKit          3D

 61 64  0  0  0  0  0  0  0  0999 V2000
   44.4192    2.4943   10.0052 C   0  0  0  0  0  0  0  0  0  0  0  0
   44.1840    3.3660    8.8913 O   0  0  0  0  0  0  0  0  0  0  0  0
   45.1236    4.4474    8.9149 C   0  0  0  0  0  0  0  0  0  0  0  0
   45.0242    5.2525   10.2232 C   0  0  0  0  0  0  0  0  0  0  0  0
   45.2238    4.3942   11.4141 N   0  0  0  0  0  0  0  0  0  0  0  0
   44.2843    3.2519   11.3352 C   0  0  0  0  0  0  0  0  0  0  0  0
   45.0047    5.1363   12.6758 C   0  0  0  0  0  0  0  0  0  0  0  0
   46.0035    6.2802   12.9379 C   0  0  0  0  0  0  0  0  0  0  0  0
   45.5574    7.4636   12.2707 O   0  0  0  0  0  0  0  0  0  0  0  0
   46.2922    8.6006   12.4567 C   0  0  0  0  0  0  0  0  0  0  0  0
   47.4676    8.7099   13.1962 C   0  0  0  0  0  0  0  0  0  0  0  0
   45.7796    9.7345   11.8266 C   0  0  0  0  0  0  0  0  0  0  0  0
   46.4287   10.9684   11.9368 C   0  0  0  0  0  0  0  0  0  0  0  0
   47.6093   11.0978   12.6834 C   0  0  0  0  0  0  0  0  0  0  0  0
   48.1172    9.9472   13.3087 C   0  0  0  0  0  0  0  0  0  0  0  0
   48.2903   12.3940   12.8040 C   0  0  0  0  0  0  0  0  0  0  0  0
   48.6360   13.1536   11.6815 C   0  0  0  0  0  0  0  0  0  0  0  0
   48.6278   12.9404   14.0422 C   0  0  0  0  0  0  0  0  0  0  0  0
   49.2565   14.1298   14.2242 N   0  0  0  0  0  0  0  0  0  0  0  0
   49.5708   14.8394   13.1134 C   0  0  0  0  0  0  0  0  0  0  0  0
   49.2786   14.3826   11.8315 C   0  0  0  0  0  0  0  0  0  0  0  0
   52.0624   16.3596   11.7364 O   0  0  0  0  0  0  0  0  0  0  0  0
   51.7137   16.0943   12.8844 C   0  0  0  0  0  0  0  0  0  0  0  0
   50.2651   16.1570   13.3165 C   0  0  0  0  0  0  0  0  0  0  0  0
   54.0157   15.6624   13.6746 C   0  0  0  0  0  0  0  0  0  0  0  0
   52.5857   15.7016   13.8750 N   0  0  0  0  0  0  0  0  0  0  0  0
   54.6876   18.0858   13.4625 C   0  0  0  0  0  0  0  0  0  0  0  0
   54.6705   16.9054   14.2211 C   0  0  0  0  0  0  0  0  0  0  0  0
   55.2396   16.9153   15.5018 C   0  0  0  0  0  0  0  0  0  0  0  0
   55.8280   18.0779   16.0060 C   0  0  0  0  0  0  0  0  0  0  0  0
   55.8464   19.2423   15.2388 C   0  0  0  0  0  0  0  0  0  0  0  0
   55.2748   19.2471   13.9685 C   0  0  0  0  0  0  0  0  0  0  0  0
   43.6757    1.6920    9.9600 H   0  0  0  0  0  0  0  0  0  0  0  0
   45.4110    2.0352    9.9037 H   0  0  0  0  0  0  0  0  0  0  0  0
   44.8986    5.0981    8.0627 H   0  0  0  0  0  0  0  0  0  0  0  0
   46.1364    4.0493    8.7705 H   0  0  0  0  0  0  0  0  0  0  0  0
   45.7865    6.0369   10.1853 H   0  0  0  0  0  0  0  0  0  0  0  0
   44.0366    5.7310   10.2689 H   0  0  0  0  0  0  0  0  0  0  0  0
   43.2508    3.6122   11.4317 H   0  0  0  0  0  0  0  0  0  0  0  0
   44.4782    2.5530   12.1574 H   0  0  0  0  0  0  0  0  0  0  0  0
   43.9792    5.5247   12.7189 H   0  0  0  0  0  0  0  0  0  0  0  0
   45.1239    4.4219   13.5002 H   0  0  0  0  0  0  0  0  0  0  0  0
   47.0055    5.9939   12.5968 H   0  0  0  0  0  0  0  0  0  0  0  0
   46.0269    6.4666   14.0187 H   0  0  0  0  0  0  0  0  0  0  0  0
   47.9119    7.8550   13.6948 H   0  0  0  0  0  0  0  0  0  0  0  0
   44.8626    9.6604   11.2470 H   0  0  0  0  0  0  0  0  0  0  0  0
   45.9924   11.8338   11.4421 H   0  0  0  0  0  0  0  0  0  0  0  0
   49.0410    9.9991   13.8831 H   0  0  0  0  0  0  0  0  0  0  0  0
   48.4203   12.7884   10.6800 H   0  0  0  0  0  0  0  0  0  0  0  0
   48.3829   12.4215   14.9661 H   0  0  0  0  0  0  0  0  0  0  0  0
   49.5539   14.9656   10.9565 H   0  0  0  0  0  0  0  0  0  0  0  0
   50.2080   16.4596   14.3694 H   0  0  0  0  0  0  0  0  0  0  0  0
   49.7596   16.9439   12.7441 H   0  0  0  0  0  0  0  0  0  0  0  0
   54.2536   15.5453   12.6119 H   0  0  0  0  0  0  0  0  0  0  0  0
   54.3926   14.7717   14.1910 H   0  0  0  0  0  0  0  0  0  0  0  0
   52.2323   15.5583   14.8125 H   0  0  0  0  0  0  0  0  0  0  0  0
   54.2355   18.1039   12.4705 H   0  0  0  0  0  0  0  0  0  0  0  0
   55.2309   16.0173   16.1150 H   0  0  0  0  0  0  0  0  0  0  0  0
   56.2717   18.0761   16.9984 H   0  0  0  0  0  0  0  0  0  0  0  0
   56.3039   20.1469   15.6331 H   0  0  0  0  0  0  0  0  0  0  0  0
   55.2820   20.1557   13.3710 H   0  0  0  0  0  0  0  0  0  0  0  0
  1  2  1  0
  2  3  1  0
  3  4  1  0
  4  5  1  0
  5  6  1  0
  1  6  1  0
  7  8  1  0
  5  7  1  0
  9 10  1  0
 10 11  2  0
  8  9  1  0
 12 13  2  0
 13 14  1  0
 14 15  2  0
 10 12  1  0
 11 15  1  0
 16 17  2  0
 16 14  1  0
 18 19  2  0
 19 20  1  0
 20 21  2  0
 17 21  1  0
 16 18  1  0
 22 23  2  0
 23 24  1  0
 20 24  1  0
 25 26  1  0
 23 26  1  0
 27 28  2  0
 25 28  1  0
 29 30  2  0
 30 31  1  0
 31 32  2  0
 27 32  1  0
 28 29  1  0
  1 33  1  0
  1 34  1  0
  3 35  1  0
  3 36  1  0
  4 37  1  0
  4 38  1  0
  6 39  1  0
  6 40  1  0
  7 41  1  0
  7 42  1  0
  8 43  1  0
  8 44  1  0
 11 45  1  0
 12 46  1  0
 13 47  1  0
 15 48  1  0
 17 49  1  0
 18 50  1  0
 21 51  1  0
 24 52  1  0
 24 53  1  0
 25 54  1  0
 25 55  1  0
 26 56  1  0
 27 57  1  0
 29 58  1  0
 30 59  1  0
 31 60  1  0
 32 61  1  0
M  END
> <Uni-Dock RESULT> 
ENERGY=   -3.488  LOWER_BOUND=    5.485  UPPER_BOUND=   13.454
INTER + INTRA:          -3.488
INTER:                  -3.488
INTRA:                   0.000
UNBOUND:                 0.000

$$$$

     RDKit          3D

 61 64  0  0  0  0  0  0  0  0999 V2000
   43.6018    2.9874   11.9176 C   0  0  0  0  0  0  0  0  0  0  0  0
   42.7682    3.9975   11.3338 O   0  0  0  0  0  0  0  0  0  0  0  0
   43.5818    4.9817   10.6842 C   0  0  0  0  0  0  0  0  0  0  0  0
   44.5664    5.6385   11.6686 C   0  0  0  0  0  0  0  0  0  0  0  0
   45.4327    4.6362   12.3314 N   0  0  0  0  0  0  0  0  0  0  0  0
   44.5709    3.5978   12.9421 C   0  0  0  0  0  0  0  0  0  0  0  0
   46.2931    5.2465   13.3696 C   0  0  0  0  0  0  0  0  0  0  0  0
   47.3270    6.2603   12.8422 C   0  0  0  0  0  0  0  0  0  0  0  0
   46.7140    7.5466   12.7233 O   0  0  0  0  0  0  0  0  0  0  0  0
   47.5120    8.5856   12.3347 C   0  0  0  0  0  0  0  0  0  0  0  0
   48.8601    8.5058   11.9932 C   0  0  0  0  0  0  0  0  0  0  0  0
   46.8732    9.8247   12.2888 C   0  0  0  0  0  0  0  0  0  0  0  0
   47.5722   10.9758   11.9117 C   0  0  0  0  0  0  0  0  0  0  0  0
   48.9318   10.9146   11.5716 C   0  0  0  0  0  0  0  0  0  0  0  0
   49.5617    9.6600   11.6173 C   0  0  0  0  0  0  0  0  0  0  0  0
   49.6690   12.1233   11.1793 C   0  0  0  0  0  0  0  0  0  0  0  0
   49.2100   12.9721   10.1667 C   0  0  0  0  0  0  0  0  0  0  0  0
   50.8647   12.4934   11.7949 C   0  0  0  0  0  0  0  0  0  0  0  0
   51.5949   13.5942   11.4813 N   0  0  0  0  0  0  0  0  0  0  0  0
   51.1157   14.3948   10.4988 C   0  0  0  0  0  0  0  0  0  0  0  0
   49.9325   14.1144    9.8216 C   0  0  0  0  0  0  0  0  0  0  0  0
   52.0488   15.8354    7.7658 O   0  0  0  0  0  0  0  0  0  0  0  0
   52.5950   15.4732    8.8053 C   0  0  0  0  0  0  0  0  0  0  0  0
   51.9241   15.6142   10.1541 C   0  0  0  0  0  0  0  0  0  0  0  0
   54.6711   14.7523    7.6740 C   0  0  0  0  0  0  0  0  0  0  0  0
   53.8437   14.8948    8.8494 N   0  0  0  0  0  0  0  0  0  0  0  0
   55.3255   17.1152    7.0754 C   0  0  0  0  0  0  0  0  0  0  0  0
   55.6880   15.8624    7.5932 C   0  0  0  0  0  0  0  0  0  0  0  0
   56.9954   15.6762    8.0624 C   0  0  0  0  0  0  0  0  0  0  0  0
   57.9250   16.7174    7.9996 C   0  0  0  0  0  0  0  0  0  0  0  0
   57.5549   17.9552    7.4747 C   0  0  0  0  0  0  0  0  0  0  0  0
   56.2553   18.1549    7.0147 C   0  0  0  0  0  0  0  0  0  0  0  0
   42.9466    2.2643   12.4142 H   0  0  0  0  0  0  0  0  0  0  0  0
   44.1406    2.4569   11.1221 H   0  0  0  0  0  0  0  0  0  0  0  0
   42.9110    5.7424   10.2699 H   0  0  0  0  0  0  0  0  0  0  0  0
   44.1131    4.5147    9.8447 H   0  0  0  0  0  0  0  0  0  0  0  0
   45.1723    6.3517   11.1009 H   0  0  0  0  0  0  0  0  0  0  0  0
   43.9932    6.1942   12.4229 H   0  0  0  0  0  0  0  0  0  0  0  0
   43.9858    4.0348   13.7630 H   0  0  0  0  0  0  0  0  0  0  0  0
   45.1920    2.7956   13.3575 H   0  0  0  0  0  0  0  0  0  0  0  0
   45.6793    5.7165   14.1484 H   0  0  0  0  0  0  0  0  0  0  0  0
   46.8626    4.4352   13.8406 H   0  0  0  0  0  0  0  0  0  0  0  0
   47.7259    5.9271   11.8767 H   0  0  0  0  0  0  0  0  0  0  0  0
   48.1438    6.3199   13.5721 H   0  0  0  0  0  0  0  0  0  0  0  0
   49.3981    7.5639   12.0021 H   0  0  0  0  0  0  0  0  0  0  0  0
   45.8211    9.8984   12.5536 H   0  0  0  0  0  0  0  0  0  0  0  0
   47.0439   11.9270   11.8998 H   0  0  0  0  0  0  0  0  0  0  0  0
   50.6115    9.5643   11.3437 H   0  0  0  0  0  0  0  0  0  0  0  0
   48.2929   12.7436    9.6283 H   0  0  0  0  0  0  0  0  0  0  0  0
   51.2848   11.8965   12.6012 H   0  0  0  0  0  0  0  0  0  0  0  0
   49.5773   14.7664    9.0278 H   0  0  0  0  0  0  0  0  0  0  0  0
   52.6826   15.7990   10.9247 H   0  0  0  0  0  0  0  0  0  0  0  0
   51.2817   16.5027   10.1378 H   0  0  0  0  0  0  0  0  0  0  0  0
   54.0558   14.7363    6.7681 H   0  0  0  0  0  0  0  0  0  0  0  0
   55.1709   13.7789    7.7435 H   0  0  0  0  0  0  0  0  0  0  0  0
   54.2533   14.6777    9.7491 H   0  0  0  0  0  0  0  0  0  0  0  0
   54.3088   17.2859    6.7205 H   0  0  0  0  0  0  0  0  0  0  0  0
   57.3000   14.7187    8.4782 H   0  0  0  0  0  0  0  0  0  0  0  0
   58.9386   16.5636    8.3611 H   0  0  0  0  0  0  0  0  0  0  0  0
   58.2795   18.7651    7.4273 H   0  0  0  0  0  0  0  0  0  0  0  0
   55.9625   19.1214    6.6111 H   0  0  0  0  0  0  0  0  0  0  0  0
  1  2  1  0
  2  3  1  0
  3  4  1  0
  4  5  1  0
  5  6  1  0
  1  6  1  0
  7  8  1  0
  5  7  1  0
  9 10  1  0
 10 11  2  0
  8  9  1  0
 12 13  2  0
 13 14  1  0
 14 15  2  0
 10 12  1  0
 11 15  1  0
 16 17  2  0
 16 14  1  0
 18 19  2  0
 19 20  1  0
 20 21  2  0
 17 21  1  0
 16 18  1  0
 22 23  2  0
 23 24  1  0
 20 24  1  0
 25 26  1  0
 23 26  1  0
 27 28  2  0
 25 28  1  0
 29 30  2  0
 30 31  1  0
 31 32  2  0
 27 32  1  0
 28 29  1  0
  1 33  1  0
  1 34  1  0
  3 35  1  0
  3 36  1  0
  4 37  1  0
  4 38  1  0
  6 39  1  0
  6 40  1  0
  7 41  1  0
  7 42  1  0
  8 43  1  0
  8 44  1  0
 11 45  1  0
 12 46  1  0
 13 47  1  0
 15 48  1  0
 17 49  1  0
 18 50  1  0
 21 51  1  0
 24 52  1  0
 24 53  1  0
 25 54  1  0
 25 55  1  0
 26 56  1  0
 27 57  1  0
 29 58  1  0
 30 59  1  0
 31 60  1  0
 32 61  1  0
M  END
> <Uni-Dock RESULT> 
ENERGY=   -3.442  LOWER_BOUND=    7.437  UPPER_BOUND=   13.306
INTER + INTRA:          -3.442
INTER:                  -3.442
INTRA:                   0.000
UNBOUND:                 0.000

$$$$
