
     RDKit          3D

 61 64  0  0  0  0  0  0  0  0999 V2000
   53.3640   14.4140   10.5787 C   0  0  0  0  0  0  0  0  0  0  0  0
   54.6642   14.2824   11.1677 O   0  0  0  0  0  0  0  0  0  0  0  0
   54.6286   14.1715   12.5931 C   0  0  0  0  0  0  0  0  0  0  0  0
   53.4446   14.9324   13.2046 C   0  0  0  0  0  0  0  0  0  0  0  0
   52.1424   14.3603   12.7917 N   0  0  0  0  0  0  0  0  0  0  0  0
   52.2417   13.7964   11.4270 C   0  0  0  0  0  0  0  0  0  0  0  0
   51.0689   15.3666   12.9179 C   0  0  0  0  0  0  0  0  0  0  0  0
   49.6749   14.7589   13.1643 C   0  0  0  0  0  0  0  0  0  0  0  0
   49.1139   14.2196   11.9628 O   0  0  0  0  0  0  0  0  0  0  0  0
   48.6019   12.9578   12.0785 C   0  0  0  0  0  0  0  0  0  0  0  0
   47.3819   12.7254   11.4507 C   0  0  0  0  0  0  0  0  0  0  0  0
   49.2634   11.9055   12.7075 C   0  0  0  0  0  0  0  0  0  0  0  0
   48.6781   10.6351   12.7512 C   0  0  0  0  0  0  0  0  0  0  0  0
   47.4304   10.3882   12.1529 C   0  0  0  0  0  0  0  0  0  0  0  0
   46.7968   11.4559   11.4957 C   0  0  0  0  0  0  0  0  0  0  0  0
   46.8083    9.0572   12.2145 C   0  0  0  0  0  0  0  0  0  0  0  0
   45.4758    8.8822   12.6049 C   0  0  0  0  0  0  0  0  0  0  0  0
   47.5115    7.8945   11.8979 C   0  0  0  0  0  0  0  0  0  0  0  0
   47.0040    6.6367   11.9559 N   0  0  0  0  0  0  0  0  0  0  0  0
   45.7171    6.5084   12.3607 C   0  0  0  0  0  0  0  0  0  0  0  0
   44.9213    7.6041   12.6769 C   0  0  0  0  0  0  0  0  0  0  0  0
   43.2358    4.7673   11.0480 O   0  0  0  0  0  0  0  0  0  0  0  0
   44.4600    4.7279   11.1601 C   0  0  0  0  0  0  0  0  0  0  0  0
   45.1665    5.1137   12.4386 C   0  0  0  0  0  0  0  0  0  0  0  0
   44.8047    4.0245    8.8327 C   0  0  0  0  0  0  0  0  0  0  0  0
   45.3081    4.3127   10.1536 N   0  0  0  0  0  0  0  0  0  0  0  0
   46.7695    3.7339    7.2652 C   0  0  0  0  0  0  0  0  0  0  0  0
   45.7740    3.1606    8.0703 C   0  0  0  0  0  0  0  0  0  0  0  0
   45.7165    1.7634    8.1881 C   0  0  0  0  0  0  0  0  0  0  0  0
   46.6222    0.9554    7.4979 C   0  0  0  0  0  0  0  0  0  0  0  0
   47.6010    1.5356    6.6936 C   0  0  0  0  0  0  0  0  0  0  0  0
   47.6763    2.9238    6.5782 C   0  0  0  0  0  0  0  0  0  0  0  0
   53.1762   15.4794   10.4032 H   0  0  0  0  0  0  0  0  0  0  0  0
   53.3992   13.9268    9.5986 H   0  0  0  0  0  0  0  0  0  0  0  0
   55.5728   14.5739   12.9775 H   0  0  0  0  0  0  0  0  0  0  0  0
   54.5997   13.1073   12.8657 H   0  0  0  0  0  0  0  0  0  0  0  0
   53.5184   15.9831   12.8941 H   0  0  0  0  0  0  0  0  0  0  0  0
   53.5144   14.8998   14.2981 H   0  0  0  0  0  0  0  0  0  0  0  0
   51.3003   13.8679   10.8758 H   0  0  0  0  0  0  0  0  0  0  0  0
   52.4519   12.7275   11.5395 H   0  0  0  0  0  0  0  0  0  0  0  0
   51.2758   15.9939   13.7933 H   0  0  0  0  0  0  0  0  0  0  0  0
   51.0534   16.0276   12.0438 H   0  0  0  0  0  0  0  0  0  0  0  0
   49.7025   14.0583   14.0071 H   0  0  0  0  0  0  0  0  0  0  0  0
   49.0046   15.5712   13.4712 H   0  0  0  0  0  0  0  0  0  0  0  0
   46.8790   13.5345   10.9286 H   0  0  0  0  0  0  0  0  0  0  0  0
   50.2414   12.0489   13.1589 H   0  0  0  0  0  0  0  0  0  0  0  0
   49.2078    9.8381   13.2696 H   0  0  0  0  0  0  0  0  0  0  0  0
   45.8417   11.3057   10.9960 H   0  0  0  0  0  0  0  0  0  0  0  0
   44.8622    9.7394   12.8729 H   0  0  0  0  0  0  0  0  0  0  0  0
   48.5465    7.9405   11.5681 H   0  0  0  0  0  0  0  0  0  0  0  0
   43.8872    7.4729   12.9830 H   0  0  0  0  0  0  0  0  0  0  0  0
   45.9769    4.4008   12.6347 H   0  0  0  0  0  0  0  0  0  0  0  0
   44.4657    5.0199   13.2759 H   0  0  0  0  0  0  0  0  0  0  0  0
   44.6461    4.9804    8.3163 H   0  0  0  0  0  0  0  0  0  0  0  0
   43.8241    3.5352    8.9034 H   0  0  0  0  0  0  0  0  0  0  0  0
   46.2873    4.5671   10.2387 H   0  0  0  0  0  0  0  0  0  0  0  0
   46.8453    4.8150    7.1673 H   0  0  0  0  0  0  0  0  0  0  0  0
   44.9627    1.2990    8.8216 H   0  0  0  0  0  0  0  0  0  0  0  0
   46.5661   -0.1271    7.5891 H   0  0  0  0  0  0  0  0  0  0  0  0
   48.3052    0.9043    6.1595 H   0  0  0  0  0  0  0  0  0  0  0  0
   48.4428    3.3779    5.9531 H   0  0  0  0  0  0  0  0  0  0  0  0
  1  2  1  0
  2  3  1  0
  3  4  1  0
  4  5  1  0
  5  6  1  0
  1  6  1  0
  7  8  1  0
  5  7  1  0
  9 10  1  0
 10 11  2  0
  8  9  1  0
 12 13  2  0
 13 14  1  0
 14 15  2  0
 10 12  1  0
 11 15  1  0
 16 17  2  0
 16 14  1  0
 18 19  2  0
 19 20  1  0
 20 21  2  0
 17 21  1  0
 16 18  1  0
 22 23  2  0
 23 24  1  0
 20 24  1  0
 25 26  1  0
 23 26  1  0
 27 28  2  0
 25 28  1  0
 29 30  2  0
 30 31  1  0
 31 32  2  0
 27 32  1  0
 28 29  1  0
  1 33  1  0
  1 34  1  0
  3 35  1  0
  3 36  1  0
  4 37  1  0
  4 38  1  0
  6 39  1  0
  6 40  1  0
  7 41  1  0
  7 42  1  0
  8 43  1  0
  8 44  1  0
 11 45  1  0
 12 46  1  0
 13 47  1  0
 15 48  1  0
 17 49  1  0
 18 50  1  0
 21 51  1  0
 24 52  1  0
 24 53  1  0
 25 54  1  0
 25 55  1  0
 26 56  1  0
 27 57  1  0
 29 58  1  0
 30 59  1  0
 31 60  1  0
 32 61  1  0
M  END
> <Uni-Dock RESULT> 
ENERGY=   -7.013  LOWER_BOUND=    0.000  UPPER_BOUND=    0.000
INTER + INTRA:          -7.013
INTER:                  -7.013
INTRA:                   0.000
UNBOUND:                 0.000

$$$$

     RDKit          3D

 61 64  0  0  0  0  0  0  0  0999 V2000
   55.2546   13.2450   10.1710 C   0  0  0  0  0  0  0  0  0  0  0  0
   56.5068   12.9149   10.7858 O   0  0  0  0  0  0  0  0  0  0  0  0
   56.4464   12.8995   12.2145 C   0  0  0  0  0  0  0  0  0  0  0  0
   55.4192   13.8993   12.7623 C   0  0  0  0  0  0  0  0  0  0  0  0
   54.0359   13.5500   12.3651 N   0  0  0  0  0  0  0  0  0  0  0  0
   54.0354   12.8952   11.0379 C   0  0  0  0  0  0  0  0  0  0  0  0
   53.1640   14.7408   12.4156 C   0  0  0  0  0  0  0  0  0  0  0  0
   51.6815   14.4135   12.6772 C   0  0  0  0  0  0  0  0  0  0  0  0
   51.0356   13.9131   11.5017 O   0  0  0  0  0  0  0  0  0  0  0  0
   50.3013   12.7753   11.6847 C   0  0  0  0  0  0  0  0  0  0  0  0
   49.0616   12.7311   11.0540 C   0  0  0  0  0  0  0  0  0  0  0  0
   50.7570   11.6604   12.3846 C   0  0  0  0  0  0  0  0  0  0  0  0
   49.9492   10.5230   12.4951 C   0  0  0  0  0  0  0  0  0  0  0  0
   48.6796   10.4715   11.8943 C   0  0  0  0  0  0  0  0  0  0  0  0
   48.2542   11.5946   11.1656 C   0  0  0  0  0  0  0  0  0  0  0  0
   47.8245    9.2825   12.0257 C   0  0  0  0  0  0  0  0  0  0  0  0
   46.4810    9.3773   12.4062 C   0  0  0  0  0  0  0  0  0  0  0  0
   48.3045    7.9939   11.7890 C   0  0  0  0  0  0  0  0  0  0  0  0
   47.5754    6.8556   11.9142 N   0  0  0  0  0  0  0  0  0  0  0  0
   46.2854    6.9889   12.3069 C   0  0  0  0  0  0  0  0  0  0  0  0
   45.7021    8.2284   12.5458 C   0  0  0  0  0  0  0  0  0  0  0  0
   43.5323    5.6522   11.0637 O   0  0  0  0  0  0  0  0  0  0  0  0
   44.7283    5.3973   11.1959 C   0  0  0  0  0  0  0  0  0  0  0  0
   45.4888    5.7252   12.4594 C   0  0  0  0  0  0  0  0  0  0  0  0
   44.9469    4.5021    8.9196 C   0  0  0  0  0  0  0  0  0  0  0  0
   45.4898    4.7739   10.2284 N   0  0  0  0  0  0  0  0  0  0  0  0
   46.8311    3.7632    7.4011 C   0  0  0  0  0  0  0  0  0  0  0  0
   45.7447    3.4312    8.2241 C   0  0  0  0  0  0  0  0  0  0  0  0
   45.4324    2.0777    8.4239 C   0  0  0  0  0  0  0  0  0  0  0  0
   46.1776    1.0775    7.7962 C   0  0  0  0  0  0  0  0  0  0  0  0
   47.2488    1.4195    6.9733 C   0  0  0  0  0  0  0  0  0  0  0  0
   47.5770    2.7611    6.7768 C   0  0  0  0  0  0  0  0  0  0  0  0
   55.2653   14.3140    9.9298 H   0  0  0  0  0  0  0  0  0  0  0  0
   55.2036   12.7006    9.2222 H   0  0  0  0  0  0  0  0  0  0  0  0
   57.4469   13.1459   12.5881 H   0  0  0  0  0  0  0  0  0  0  0  0
   56.2225   11.8771   12.5494 H   0  0  0  0  0  0  0  0  0  0  0  0
   55.6850   14.8980   12.3911 H   0  0  0  0  0  0  0  0  0  0  0  0
   55.4780   13.9214   13.8567 H   0  0  0  0  0  0  0  0  0  0  0  0
   53.1248   13.1032   10.4697 H   0  0  0  0  0  0  0  0  0  0  0  0
   54.0462   11.8147   11.2167 H   0  0  0  0  0  0  0  0  0  0  0  0
   53.4789   15.3722   13.2552 H   0  0  0  0  0  0  0  0  0  0  0  0
   53.2726   15.3389   11.5037 H   0  0  0  0  0  0  0  0  0  0  0  0
   51.5776   13.7724   13.5604 H   0  0  0  0  0  0  0  0  0  0  0  0
   51.1699   15.3515   12.9255 H   0  0  0  0  0  0  0  0  0  0  0  0
   48.7169   13.5849   10.4775 H   0  0  0  0  0  0  0  0  0  0  0  0
   51.7432   11.6504   12.8410 H   0  0  0  0  0  0  0  0  0  0  0  0
   50.3225    9.6760   13.0676 H   0  0  0  0  0  0  0  0  0  0  0  0
   47.2894   11.5907   10.6618 H   0  0  0  0  0  0  0  0  0  0  0  0
   46.0335   10.3467   12.6139 H   0  0  0  0  0  0  0  0  0  0  0  0
   49.3316    7.8303   11.4722 H   0  0  0  0  0  0  0  0  0  0  0  0
   44.6603    8.3068   12.8440 H   0  0  0  0  0  0  0  0  0  0  0  0
   46.1546    4.8900   12.7094 H   0  0  0  0  0  0  0  0  0  0  0  0
   44.7797    5.8120   13.2904 H   0  0  0  0  0  0  0  0  0  0  0  0
   44.9675    5.4376    8.3451 H   0  0  0  0  0  0  0  0  0  0  0  0
   43.8931    4.2050    9.0049 H   0  0  0  0  0  0  0  0  0  0  0  0
   46.4987    4.8503   10.3125 H   0  0  0  0  0  0  0  0  0  0  0  0
   47.1035    4.8044    7.2403 H   0  0  0  0  0  0  0  0  0  0  0  0
   44.6041    1.7980    9.0727 H   0  0  0  0  0  0  0  0  0  0  0  0
   45.9243    0.0311    7.9507 H   0  0  0  0  0  0  0  0  0  0  0  0
   47.8277    0.6390    6.4880 H   0  0  0  0  0  0  0  0  0  0  0  0
   48.4158    3.0288    6.1371 H   0  0  0  0  0  0  0  0  0  0  0  0
  1  2  1  0
  2  3  1  0
  3  4  1  0
  4  5  1  0
  5  6  1  0
  1  6  1  0
  7  8  1  0
  5  7  1  0
  9 10  1  0
 10 11  2  0
  8  9  1  0
 12 13  2  0
 13 14  1  0
 14 15  2  0
 10 12  1  0
 11 15  1  0
 16 17  2  0
 16 14  1  0
 18 19  2  0
 19 20  1  0
 20 21  2  0
 17 21  1  0
 16 18  1  0
 22 23  2  0
 23 24  1  0
 20 24  1  0
 25 26  1  0
 23 26  1  0
 27 28  2  0
 25 28  1  0
 29 30  2  0
 30 31  1  0
 31 32  2  0
 27 32  1  0
 28 29  1  0
  1 33  1  0
  1 34  1  0
  3 35  1  0
  3 36  1  0
  4 37  1  0
  4 38  1  0
  6 39  1  0
  6 40  1  0
  7 41  1  0
  7 42  1  0
  8 43  1  0
  8 44  1  0
 11 45  1  0
 12 46  1  0
 13 47  1  0
 15 48  1  0
 17 49  1  0
 18 50  1  0
 21 51  1  0
 24 52  1  0
 24 53  1  0
 25 54  1  0
 25 55  1  0
 26 56  1  0
 27 57  1  0
 29 58  1  0
 30 59  1  0
 31 60  1  0
 32 61  1  0
M  END
> <Uni-Dock RESULT> 
ENERGY=   -6.516  LOWER_BOUND=    1.221  UPPER_BOUND=    1.427
INTER + INTRA:          -6.516
INTER:                  -6.516
INTRA:                   0.000
UNBOUND:                 0.000

$$$$

     RDKit          3D

 61 64  0  0  0  0  0  0  0  0999 V2000
   49.6038   15.9740    9.3111 C   0  0  0  0  0  0  0  0  0  0  0  0
   50.9751   16.3019    9.5699 O   0  0  0  0  0  0  0  0  0  0  0  0
   51.3239   16.2148   10.9540 C   0  0  0  0  0  0  0  0  0  0  0  0
   50.1391   16.5429   11.8724 C   0  0  0  0  0  0  0  0  0  0  0  0
   49.0428   15.5558   11.7408 N   0  0  0  0  0  0  0  0  0  0  0  0
   48.9914   15.0309   10.3580 C   0  0  0  0  0  0  0  0  0  0  0  0
   47.7599   16.1422   12.1779 C   0  0  0  0  0  0  0  0  0  0  0  0
   46.7511   15.1042   12.7051 C   0  0  0  0  0  0  0  0  0  0  0  0
   46.1289   14.3823   11.6368 O   0  0  0  0  0  0  0  0  0  0  0  0
   46.1102   13.0244   11.7895 C   0  0  0  0  0  0  0  0  0  0  0  0
   44.9239   12.3803   11.4515 C   0  0  0  0  0  0  0  0  0  0  0  0
   47.2153   12.2709   12.1786 C   0  0  0  0  0  0  0  0  0  0  0  0
   47.1153   10.8786   12.2779 C   0  0  0  0  0  0  0  0  0  0  0  0
   45.9157   10.2121   11.9741 C   0  0  0  0  0  0  0  0  0  0  0  0
   44.8240   10.9890   11.5521 C   0  0  0  0  0  0  0  0  0  0  0  0
   45.8065    8.7508   12.0957 C   0  0  0  0  0  0  0  0  0  0  0  0
   44.7445    8.1435   12.7754 C   0  0  0  0  0  0  0  0  0  0  0  0
   46.7580    7.8880   11.5506 C   0  0  0  0  0  0  0  0  0  0  0  0
   46.7281    6.5343   11.6466 N   0  0  0  0  0  0  0  0  0  0  0  0
   45.6956    5.9867   12.3325 C   0  0  0  0  0  0  0  0  0  0  0  0
   44.6819    6.7549   12.8946 C   0  0  0  0  0  0  0  0  0  0  0  0
   43.6963    3.4825   11.5302 O   0  0  0  0  0  0  0  0  0  0  0  0
   44.8524    3.8617   11.3499 C   0  0  0  0  0  0  0  0  0  0  0  0
   45.6768    4.4898   12.4491 C   0  0  0  0  0  0  0  0  0  0  0  0
   44.8384    3.2687    8.9669 C   0  0  0  0  0  0  0  0  0  0  0  0
   45.5205    3.7372   10.1487 N   0  0  0  0  0  0  0  0  0  0  0  0
   46.3474    3.6275    6.9679 C   0  0  0  0  0  0  0  0  0  0  0  0
   45.8253    2.7680    7.9459 C   0  0  0  0  0  0  0  0  0  0  0  0
   46.2665    1.4364    7.9857 C   0  0  0  0  0  0  0  0  0  0  0  0
   47.1942    0.9682    7.0531 C   0  0  0  0  0  0  0  0  0  0  0  0
   47.6989    1.8286    6.0802 C   0  0  0  0  0  0  0  0  0  0  0  0
   47.2776    3.1578    6.0380 C   0  0  0  0  0  0  0  0  0  0  0  0
   49.0356   16.9093    9.2519 H   0  0  0  0  0  0  0  0  0  0  0  0
   49.5612   15.5074    8.3214 H   0  0  0  0  0  0  0  0  0  0  0  0
   52.1434   16.9206   11.1313 H   0  0  0  0  0  0  0  0  0  0  0  0
   51.7176   15.2093   11.1583 H   0  0  0  0  0  0  0  0  0  0  0  0
   49.7817   17.5500   11.6201 H   0  0  0  0  0  0  0  0  0  0  0  0
   50.4778   16.5583   12.9149 H   0  0  0  0  0  0  0  0  0  0  0  0
   47.9763   14.7685   10.0482 H   0  0  0  0  0  0  0  0  0  0  0  0
   49.5660   14.0985   10.3506 H   0  0  0  0  0  0  0  0  0  0  0  0
   47.9512   16.8204   13.0183 H   0  0  0  0  0  0  0  0  0  0  0  0
   47.3146   16.7409   11.3752 H   0  0  0  0  0  0  0  0  0  0  0  0
   47.2130   14.4716   13.4721 H   0  0  0  0  0  0  0  0  0  0  0  0
   45.9438   15.6480   13.2109 H   0  0  0  0  0  0  0  0  0  0  0  0
   44.0700   12.9608   11.1137 H   0  0  0  0  0  0  0  0  0  0  0  0
   48.1682   12.7458   12.3965 H   0  0  0  0  0  0  0  0  0  0  0  0
   47.9886   10.3185   12.6067 H   0  0  0  0  0  0  0  0  0  0  0  0
   43.8826   10.5144   11.2815 H   0  0  0  0  0  0  0  0  0  0  0  0
   43.9647    8.7480   13.2331 H   0  0  0  0  0  0  0  0  0  0  0  0
   47.6065    8.2746   10.9912 H   0  0  0  0  0  0  0  0  0  0  0  0
   43.8569    6.2881   13.4254 H   0  0  0  0  0  0  0  0  0  0  0  0
   46.7002    4.0972   12.4048 H   0  0  0  0  0  0  0  0  0  0  0  0
   45.2715    4.1818   13.4196 H   0  0  0  0  0  0  0  0  0  0  0  0
   44.2509    4.1038    8.5632 H   0  0  0  0  0  0  0  0  0  0  0  0
   44.1245    2.4782    9.2343 H   0  0  0  0  0  0  0  0  0  0  0  0
   46.3489    4.3094   10.0180 H   0  0  0  0  0  0  0  0  0  0  0  0
   46.0330    4.6683    6.9232 H   0  0  0  0  0  0  0  0  0  0  0  0
   45.8870    0.7575    8.7475 H   0  0  0  0  0  0  0  0  0  0  0  0
   47.5254   -0.0673    7.0866 H   0  0  0  0  0  0  0  0  0  0  0  0
   48.4219    1.4618    5.3573 H   0  0  0  0  0  0  0  0  0  0  0  0
   47.6741    3.8314    5.2807 H   0  0  0  0  0  0  0  0  0  0  0  0
  1  2  1  0
  2  3  1  0
  3  4  1  0
  4  5  1  0
  5  6  1  0
  1  6  1  0
  7  8  1  0
  5  7  1  0
  9 10  1  0
 10 11  2  0
  8  9  1  0
 12 13  2  0
 13 14  1  0
 14 15  2  0
 10 12  1  0
 11 15  1  0
 16 17  2  0
 16 14  1  0
 18 19  2  0
 19 20  1  0
 20 21  2  0
 17 21  1  0
 16 18  1  0
 22 23  2  0
 23 24  1  0
 20 24  1  0
 25 26  1  0
 23 26  1  0
 27 28  2  0
 25 28  1  0
 29 30  2  0
 30 31  1  0
 31 32  2  0
 27 32  1  0
 28 29  1  0
  1 33  1  0
  1 34  1  0
  3 35  1  0
  3 36  1  0
  4 37  1  0
  4 38  1  0
  6 39  1  0
  6 40  1  0
  7 41  1  0
  7 42  1  0
  8 43  1  0
  8 44  1  0
 11 45  1  0
 12 46  1  0
 13 47  1  0
 15 48  1  0
 17 49  1  0
 18 50  1  0
 21 51  1  0
 24 52  1  0
 24 53  1  0
 25 54  1  0
 25 55  1  0
 26 56  1  0
 27 57  1  0
 29 58  1  0
 30 59  1  0
 31 60  1  0
 32 61  1  0
M  END
> <Uni-Dock RESULT> 
ENERGY=   -6.072  LOWER_BOUND=    1.897  UPPER_BOUND=    2.267
INTER + INTRA:          -6.072
INTER:                  -6.072
INTRA:                   0.000
UNBOUND:                 0.000

$$$$

     RDKit          3D

 61 64  0  0  0  0  0  0  0  0999 V2000
   53.9549   14.3817    8.2610 C   0  0  0  0  0  0  0  0  0  0  0  0
   55.3461   14.2115    8.5616 O   0  0  0  0  0  0  0  0  0  0  0  0
   55.6257   14.2266    9.9640 C   0  0  0  0  0  0  0  0  0  0  0  0
   54.6471   15.1175   10.7409 C   0  0  0  0  0  0  0  0  0  0  0  0
   53.2594   14.6036   10.6817 N   0  0  0  0  0  0  0  0  0  0  0  0
   53.0229   13.9187    9.3913 C   0  0  0  0  0  0  0  0  0  0  0  0
   52.2916   15.6889   10.9389 C   0  0  0  0  0  0  0  0  0  0  0  0
   50.9605   15.2027   11.5433 C   0  0  0  0  0  0  0  0  0  0  0  0
   50.1190   14.6020   10.5532 O   0  0  0  0  0  0  0  0  0  0  0  0
   49.5855   13.3935   10.9029 C   0  0  0  0  0  0  0  0  0  0  0  0
   48.2460   13.1929   10.5833 C   0  0  0  0  0  0  0  0  0  0  0  0
   50.3194   12.3559   11.4734 C   0  0  0  0  0  0  0  0  0  0  0  0
   49.6980   11.1376   11.7699 C   0  0  0  0  0  0  0  0  0  0  0  0
   48.3375   10.9271   11.4865 C   0  0  0  0  0  0  0  0  0  0  0  0
   47.6252   11.9756   10.8810 C   0  0  0  0  0  0  0  0  0  0  0  0
   47.6814    9.6527   11.8146 C   0  0  0  0  0  0  0  0  0  0  0  0
   46.4634    9.6047   12.5023 C   0  0  0  0  0  0  0  0  0  0  0  0
   48.2385    8.4211   11.4690 C   0  0  0  0  0  0  0  0  0  0  0  0
   47.6967    7.2112   11.7613 N   0  0  0  0  0  0  0  0  0  0  0  0
   46.5287    7.2077   12.4483 C   0  0  0  0  0  0  0  0  0  0  0  0
   45.8780    8.3790   12.8204 C   0  0  0  0  0  0  0  0  0  0  0  0
   43.7349    5.5360   11.8896 O   0  0  0  0  0  0  0  0  0  0  0  0
   44.9498    5.4217   11.7347 C   0  0  0  0  0  0  0  0  0  0  0  0
   45.9427    5.8664   12.7830 C   0  0  0  0  0  0  0  0  0  0  0  0
   44.7294    4.4983    9.4699 C   0  0  0  0  0  0  0  0  0  0  0  0
   45.5295    4.8637   10.6135 N   0  0  0  0  0  0  0  0  0  0  0  0
   46.2763    3.9384    7.5476 C   0  0  0  0  0  0  0  0  0  0  0  0
   45.4601    3.5070    8.6037 C   0  0  0  0  0  0  0  0  0  0  0  0
   45.3630    2.1324    8.8695 C   0  0  0  0  0  0  0  0  0  0  0  0
   46.0507    1.2071    8.0817 C   0  0  0  0  0  0  0  0  0  0  0  0
   46.8511    1.6467    7.0293 C   0  0  0  0  0  0  0  0  0  0  0  0
   46.9657    3.0113    6.7629 C   0  0  0  0  0  0  0  0  0  0  0  0
   53.7843   15.4384    8.0258 H   0  0  0  0  0  0  0  0  0  0  0  0
   53.7458   13.8106    7.3504 H   0  0  0  0  0  0  0  0  0  0  0  0
   56.6504   14.5943   10.0908 H   0  0  0  0  0  0  0  0  0  0  0  0
   55.6071   13.1943   10.3407 H   0  0  0  0  0  0  0  0  0  0  0  0
   54.7003   16.1299   10.3189 H   0  0  0  0  0  0  0  0  0  0  0  0
   54.9587   15.1744   11.7904 H   0  0  0  0  0  0  0  0  0  0  0  0
   51.9864   14.0075    9.0549 H   0  0  0  0  0  0  0  0  0  0  0  0
   53.2009   12.8514    9.5607 H   0  0  0  0  0  0  0  0  0  0  0  0
   52.7196   16.3734   11.6811 H   0  0  0  0  0  0  0  0  0  0  0  0
   52.1125   16.2716   10.0281 H   0  0  0  0  0  0  0  0  0  0  0  0
   51.1424   14.5771   12.4250 H   0  0  0  0  0  0  0  0  0  0  0  0
   50.4162   16.0829   11.9070 H   0  0  0  0  0  0  0  0  0  0  0  0
   47.6786   13.9869   10.1060 H   0  0  0  0  0  0  0  0  0  0  0  0
   51.3795   12.4696   11.6835 H   0  0  0  0  0  0  0  0  0  0  0  0
   50.2912   10.3535   12.2366 H   0  0  0  0  0  0  0  0  0  0  0  0
   46.5762   11.8494   10.6197 H   0  0  0  0  0  0  0  0  0  0  0  0
   45.9678   10.5222   12.8115 H   0  0  0  0  0  0  0  0  0  0  0  0
   49.1743    8.3667   10.9180 H   0  0  0  0  0  0  0  0  0  0  0  0
   44.9337    8.3466   13.3567 H   0  0  0  0  0  0  0  0  0  0  0  0
   46.7409    5.1186   12.8670 H   0  0  0  0  0  0  0  0  0  0  0  0
   45.4437    5.8938   13.7583 H   0  0  0  0  0  0  0  0  0  0  0  0
   44.5055    5.4148    8.9083 H   0  0  0  0  0  0  0  0  0  0  0  0
   43.7671    4.0860    9.8015 H   0  0  0  0  0  0  0  0  0  0  0  0
   46.5140    5.0560   10.4567 H   0  0  0  0  0  0  0  0  0  0  0  0
   46.3805    4.9992    7.3285 H   0  0  0  0  0  0  0  0  0  0  0  0
   44.7487    1.7776    9.6954 H   0  0  0  0  0  0  0  0  0  0  0  0
   45.9641    0.1431    8.2901 H   0  0  0  0  0  0  0  0  0  0  0  0
   47.3863    0.9245    6.4196 H   0  0  0  0  0  0  0  0  0  0  0  0
   47.5937    3.3556    5.9434 H   0  0  0  0  0  0  0  0  0  0  0  0
  1  2  1  0
  2  3  1  0
  3  4  1  0
  4  5  1  0
  5  6  1  0
  1  6  1  0
  7  8  1  0
  5  7  1  0
  9 10  1  0
 10 11  2  0
  8  9  1  0
 12 13  2  0
 13 14  1  0
 14 15  2  0
 10 12  1  0
 11 15  1  0
 16 17  2  0
 16 14  1  0
 18 19  2  0
 19 20  1  0
 20 21  2  0
 17 21  1  0
 16 18  1  0
 22 23  2  0
 23 24  1  0
 20 24  1  0
 25 26  1  0
 23 26  1  0
 27 28  2  0
 25 28  1  0
 29 30  2  0
 30 31  1  0
 31 32  2  0
 27 32  1  0
 28 29  1  0
  1 33  1  0
  1 34  1  0
  3 35  1  0
  3 36  1  0
  4 37  1  0
  4 38  1  0
  6 39  1  0
  6 40  1  0
  7 41  1  0
  7 42  1  0
  8 43  1  0
  8 44  1  0
 11 45  1  0
 12 46  1  0
 13 47  1  0
 15 48  1  0
 17 49  1  0
 18 50  1  0
 21 51  1  0
 24 52  1  0
 24 53  1  0
 25 54  1  0
 25 55  1  0
 26 56  1  0
 27 57  1  0
 29 58  1  0
 30 59  1  0
 31 60  1  0
 32 61  1  0
M  END
> <Uni-Dock RESULT> 
ENERGY=   -6.048  LOWER_BOUND=    1.379  UPPER_BOUND=    1.584
INTER + INTRA:          -6.048
INTER:                  -6.048
INTRA:                   0.000
UNBOUND:                 0.000

$$$$

     RDKit          3D

 61 64  0  0  0  0  0  0  0  0999 V2000
   47.7201   18.2302    7.0722 C   0  0  0  0  0  0  0  0  0  0  0  0
   46.4633   18.6402    6.5177 O   0  0  0  0  0  0  0  0  0  0  0  0
   45.8715   17.6513    5.6709 C   0  0  0  0  0  0  0  0  0  0  0  0
   46.9249   16.7937    4.9569 C   0  0  0  0  0  0  0  0  0  0  0  0
   47.7227   15.9859    5.9078 N   0  0  0  0  0  0  0  0  0  0  0  0
   47.8684   16.7058    7.1927 C   0  0  0  0  0  0  0  0  0  0  0  0
   49.0208   15.6123    5.3112 C   0  0  0  0  0  0  0  0  0  0  0  0
   49.6089   14.3045    5.8744 C   0  0  0  0  0  0  0  0  0  0  0  0
   50.1890   14.5004    7.1684 O   0  0  0  0  0  0  0  0  0  0  0  0
   49.8171   13.5864    8.1139 C   0  0  0  0  0  0  0  0  0  0  0  0
   50.8275   13.1073    8.9422 C   0  0  0  0  0  0  0  0  0  0  0  0
   48.5008   13.1862    8.3324 C   0  0  0  0  0  0  0  0  0  0  0  0
   48.2060   12.2678    9.3463 C   0  0  0  0  0  0  0  0  0  0  0  0
   49.2171   11.7459   10.1714 C   0  0  0  0  0  0  0  0  0  0  0  0
   50.5325   12.1886    9.9545 C   0  0  0  0  0  0  0  0  0  0  0  0
   48.9086   10.7677   11.2251 C   0  0  0  0  0  0  0  0  0  0  0  0
   49.6362    9.5806   11.3667 C   0  0  0  0  0  0  0  0  0  0  0  0
   47.8692   10.9614   12.1355 C   0  0  0  0  0  0  0  0  0  0  0  0
   47.5187   10.0892   13.1150 N   0  0  0  0  0  0  0  0  0  0  0  0
   48.2332    8.9413   13.2041 C   0  0  0  0  0  0  0  0  0  0  0  0
   49.3034    8.6608   12.3615 C   0  0  0  0  0  0  0  0  0  0  0  0
   49.5963    7.4803   15.8346 O   0  0  0  0  0  0  0  0  0  0  0  0
   48.6327    8.1862   15.5412 C   0  0  0  0  0  0  0  0  0  0  0  0
   47.8304    7.9733   14.2789 C   0  0  0  0  0  0  0  0  0  0  0  0
   48.8966    9.6314   17.5090 C   0  0  0  0  0  0  0  0  0  0  0  0
   48.1723    9.2201   16.3310 N   0  0  0  0  0  0  0  0  0  0  0  0
   47.9053   11.8023   18.3496 C   0  0  0  0  0  0  0  0  0  0  0  0
   48.0023   10.4059   18.4405 C   0  0  0  0  0  0  0  0  0  0  0  0
   47.2208    9.7310   19.3909 C   0  0  0  0  0  0  0  0  0  0  0  0
   46.3761   10.4400   20.2473 C   0  0  0  0  0  0  0  0  0  0  0  0
   46.2950   11.8279   20.1542 C   0  0  0  0  0  0  0  0  0  0  0  0
   47.0575   12.5091   19.2051 C   0  0  0  0  0  0  0  0  0  0  0  0
   48.5193   18.6499    6.4507 H   0  0  0  0  0  0  0  0  0  0  0  0
   47.8055   18.6907    8.0620 H   0  0  0  0  0  0  0  0  0  0  0  0
   45.2530   18.1771    4.9345 H   0  0  0  0  0  0  0  0  0  0  0  0
   45.1940   17.0288    6.2718 H   0  0  0  0  0  0  0  0  0  0  0  0
   47.5766   17.4645    4.3815 H   0  0  0  0  0  0  0  0  0  0  0  0
   46.4288   16.1192    4.2493 H   0  0  0  0  0  0  0  0  0  0  0  0
   48.8138   16.4800    7.6932 H   0  0  0  0  0  0  0  0  0  0  0  0
   47.0754   16.3399    7.8535 H   0  0  0  0  0  0  0  0  0  0  0  0
   48.8766   15.4328    4.2390 H   0  0  0  0  0  0  0  0  0  0  0  0
   49.7411   16.4327    5.4069 H   0  0  0  0  0  0  0  0  0  0  0  0
   48.8698   13.4962    5.8256 H   0  0  0  0  0  0  0  0  0  0  0  0
   50.4329   13.9977    5.2185 H   0  0  0  0  0  0  0  0  0  0  0  0
   51.8504   13.4436    8.7983 H   0  0  0  0  0  0  0  0  0  0  0  0
   47.6871   13.5866    7.7336 H   0  0  0  0  0  0  0  0  0  0  0  0
   47.1716   11.9562    9.4784 H   0  0  0  0  0  0  0  0  0  0  0  0
   51.3445   11.8316   10.5853 H   0  0  0  0  0  0  0  0  0  0  0  0
   50.4587    9.3537   10.6922 H   0  0  0  0  0  0  0  0  0  0  0  0
   47.2644   11.8644   12.1083 H   0  0  0  0  0  0  0  0  0  0  0  0
   49.8694    7.7395   12.4660 H   0  0  0  0  0  0  0  0  0  0  0  0
   46.7627    8.0858   14.5042 H   0  0  0  0  0  0  0  0  0  0  0  0
   47.9655    6.9398   13.9403 H   0  0  0  0  0  0  0  0  0  0  0  0
   49.7464   10.2464   17.1848 H   0  0  0  0  0  0  0  0  0  0  0  0
   49.3159    8.7529   18.0175 H   0  0  0  0  0  0  0  0  0  0  0  0
   47.5625    9.9026   15.8916 H   0  0  0  0  0  0  0  0  0  0  0  0
   48.4897   12.3492   17.6122 H   0  0  0  0  0  0  0  0  0  0  0  0
   47.2680    8.6460   19.4661 H   0  0  0  0  0  0  0  0  0  0  0  0
   45.7792    9.9097   20.9859 H   0  0  0  0  0  0  0  0  0  0  0  0
   45.6355   12.3763   20.8206 H   0  0  0  0  0  0  0  0  0  0  0  0
   46.9919   13.5929   19.1293 H   0  0  0  0  0  0  0  0  0  0  0  0
  1  2  1  0
  2  3  1  0
  3  4  1  0
  4  5  1  0
  5  6  1  0
  1  6  1  0
  7  8  1  0
  5  7  1  0
  9 10  1  0
 10 11  2  0
  8  9  1  0
 12 13  2  0
 13 14  1  0
 14 15  2  0
 10 12  1  0
 11 15  1  0
 16 17  2  0
 16 14  1  0
 18 19  2  0
 19 20  1  0
 20 21  2  0
 17 21  1  0
 16 18  1  0
 22 23  2  0
 23 24  1  0
 20 24  1  0
 25 26  1  0
 23 26  1  0
 27 28  2  0
 25 28  1  0
 29 30  2  0
 30 31  1  0
 31 32  2  0
 27 32  1  0
 28 29  1  0
  1 33  1  0
  1 34  1  0
  3 35  1  0
  3 36  1  0
  4 37  1  0
  4 38  1  0
  6 39  1  0
  6 40  1  0
  7 41  1  0
  7 42  1  0
  8 43  1  0
  8 44  1  0
 11 45  1  0
 12 46  1  0
 13 47  1  0
 15 48  1  0
 17 49  1  0
 18 50  1  0
 21 51  1  0
 24 52  1  0
 24 53  1  0
 25 54  1  0
 25 55  1  0
 26 56  1  0
 27 57  1  0
 29 58  1  0
 30 59  1  0
 31 60  1  0
 32 61  1  0
M  END
> <Uni-Dock RESULT> 
ENERGY=   -4.089  LOWER_BOUND=    5.410  UPPER_BOUND=    8.882
INTER + INTRA:          -4.089
INTER:                  -4.089
INTRA:                   0.000
UNBOUND:                 0.000

$$$$

     RDKit          3D

 61 64  0  0  0  0  0  0  0  0999 V2000
   44.3397    4.9001   10.3871 C   0  0  0  0  0  0  0  0  0  0  0  0
   42.9250    5.0364   10.5738 O   0  0  0  0  0  0  0  0  0  0  0  0
   42.5745    5.5783   11.8499 C   0  0  0  0  0  0  0  0  0  0  0  0
   43.5859    5.1974   12.9393 C   0  0  0  0  0  0  0  0  0  0  0  0
   44.9238    5.7792   12.6847 N   0  0  0  0  0  0  0  0  0  0  0  0
   45.1663    5.8846   11.2285 C   0  0  0  0  0  0  0  0  0  0  0  0
   45.9691    5.0052   13.3839 C   0  0  0  0  0  0  0  0  0  0  0  0
   47.2182    5.8325   13.7426 C   0  0  0  0  0  0  0  0  0  0  0  0
   48.0541    6.0490   12.6008 O   0  0  0  0  0  0  0  0  0  0  0  0
   48.4593    7.3410   12.4166 C   0  0  0  0  0  0  0  0  0  0  0  0
   49.7906    7.5265   12.0566 C   0  0  0  0  0  0  0  0  0  0  0  0
   47.6073    8.4407   12.4911 C   0  0  0  0  0  0  0  0  0  0  0  0
   48.1019    9.7285   12.2555 C   0  0  0  0  0  0  0  0  0  0  0  0
   49.4513    9.9400   11.9244 C   0  0  0  0  0  0  0  0  0  0  0  0
   50.2846    8.8137   11.8224 C   0  0  0  0  0  0  0  0  0  0  0  0
   49.9738   11.2951   11.6943 C   0  0  0  0  0  0  0  0  0  0  0  0
   51.1448   11.7498   12.3113 C   0  0  0  0  0  0  0  0  0  0  0  0
   49.3286   12.2066   10.8578 C   0  0  0  0  0  0  0  0  0  0  0  0
   49.7450   13.4768   10.6211 N   0  0  0  0  0  0  0  0  0  0  0  0
   50.8704   13.8859   11.2555 C   0  0  0  0  0  0  0  0  0  0  0  0
   51.6018   13.0495   12.0918 C   0  0  0  0  0  0  0  0  0  0  0  0
   53.5305   15.4497   10.0765 O   0  0  0  0  0  0  0  0  0  0  0  0
   52.3201   15.3638    9.8750 C   0  0  0  0  0  0  0  0  0  0  0  0
   51.3168   15.2970   11.0025 C   0  0  0  0  0  0  0  0  0  0  0  0
   52.5767   15.2772    7.4343 C   0  0  0  0  0  0  0  0  0  0  0  0
   51.7530   15.3415    8.6171 N   0  0  0  0  0  0  0  0  0  0  0  0
   51.0895   14.8238    5.4382 C   0  0  0  0  0  0  0  0  0  0  0  0
   51.8076   15.7371    6.2243 C   0  0  0  0  0  0  0  0  0  0  0  0
   51.7685   17.0994    5.8897 C   0  0  0  0  0  0  0  0  0  0  0  0
   51.0439   17.5366    4.7791 C   0  0  0  0  0  0  0  0  0  0  0  0
   50.3420   16.6191    3.9999 C   0  0  0  0  0  0  0  0  0  0  0  0
   50.3630   15.2638    4.3295 C   0  0  0  0  0  0  0  0  0  0  0  0
   44.6154    3.8650   10.6190 H   0  0  0  0  0  0  0  0  0  0  0  0
   44.5450    5.0581    9.3232 H   0  0  0  0  0  0  0  0  0  0  0  0
   41.5812    5.1939   12.1084 H   0  0  0  0  0  0  0  0  0  0  0  0
   42.4816    6.6695   11.7588 H   0  0  0  0  0  0  0  0  0  0  0  0
   43.6449    4.1017   12.9807 H   0  0  0  0  0  0  0  0  0  0  0  0
   43.2258    5.5512   13.9124 H   0  0  0  0  0  0  0  0  0  0  0  0
   46.2228    5.7706   10.9715 H   0  0  0  0  0  0  0  0  0  0  0  0
   44.8857    6.9011   10.9325 H   0  0  0  0  0  0  0  0  0  0  0  0
   45.5650    4.6521   14.3403 H   0  0  0  0  0  0  0  0  0  0  0  0
   46.2468    4.1178   12.8037 H   0  0  0  0  0  0  0  0  0  0  0  0
   46.9354    6.7463   14.2782 H   0  0  0  0  0  0  0  0  0  0  0  0
   47.8185    5.2447   14.4479 H   0  0  0  0  0  0  0  0  0  0  0  0
   50.4505    6.6686   11.9627 H   0  0  0  0  0  0  0  0  0  0  0  0
   46.5518    8.3169   12.7182 H   0  0  0  0  0  0  0  0  0  0  0  0
   47.4178   10.5703   12.3437 H   0  0  0  0  0  0  0  0  0  0  0  0
   51.3306    8.9264   11.5435 H   0  0  0  0  0  0  0  0  0  0  0  0
   51.7028   11.1006   12.9822 H   0  0  0  0  0  0  0  0  0  0  0  0
   48.4221   11.9303   10.3250 H   0  0  0  0  0  0  0  0  0  0  0  0
   52.5099   13.3989   12.5749 H   0  0  0  0  0  0  0  0  0  0  0  0
   50.4521   15.9257   10.7565 H   0  0  0  0  0  0  0  0  0  0  0  0
   51.7642   15.7296   11.9045 H   0  0  0  0  0  0  0  0  0  0  0  0
   52.9101   14.2383    7.3116 H   0  0  0  0  0  0  0  0  0  0  0  0
   53.4799   15.8865    7.5725 H   0  0  0  0  0  0  0  0  0  0  0  0
   50.7991   15.0015    8.5450 H   0  0  0  0  0  0  0  0  0  0  0  0
   51.0914   13.7636    5.6835 H   0  0  0  0  0  0  0  0  0  0  0  0
   52.3045   17.8269    6.4969 H   0  0  0  0  0  0  0  0  0  0  0  0
   51.0247   18.5935    4.5226 H   0  0  0  0  0  0  0  0  0  0  0  0
   49.7778   16.9627    3.1377 H   0  0  0  0  0  0  0  0  0  0  0  0
   49.8120   14.5470    3.7236 H   0  0  0  0  0  0  0  0  0  0  0  0
  1  2  1  0
  2  3  1  0
  3  4  1  0
  4  5  1  0
  5  6  1  0
  1  6  1  0
  7  8  1  0
  5  7  1  0
  9 10  1  0
 10 11  2  0
  8  9  1  0
 12 13  2  0
 13 14  1  0
 14 15  2  0
 10 12  1  0
 11 15  1  0
 16 17  2  0
 16 14  1  0
 18 19  2  0
 19 20  1  0
 20 21  2  0
 17 21  1  0
 16 18  1  0
 22 23  2  0
 23 24  1  0
 20 24  1  0
 25 26  1  0
 23 26  1  0
 27 28  2  0
 25 28  1  0
 29 30  2  0
 30 31  1  0
 31 32  2  0
 27 32  1  0
 28 29  1  0
  1 33  1  0
  1 34  1  0
  3 35  1  0
  3 36  1  0
  4 37  1  0
  4 38  1  0
  6 39  1  0
  6 40  1  0
  7 41  1  0
  7 42  1  0
  8 43  1  0
  8 44  1  0
 11 45  1  0
 12 46  1  0
 13 47  1  0
 15 48  1  0
 17 49  1  0
 18 50  1  0
 21 51  1  0
 24 52  1  0
 24 53  1  0
 25 54  1  0
 25 55  1  0
 26 56  1  0
 27 57  1  0
 29 58  1  0
 30 59  1  0
 31 60  1  0
 32 61  1  0
M  END
> <Uni-Dock RESULT> 
ENERGY=   -4.015  LOWER_BOUND=    3.400  UPPER_BOUND=   11.117
INTER + INTRA:          -4.015
INTER:                  -4.015
INTRA:                   0.000
UNBOUND:                 0.000

$$$$
