
     RDKit          3D

 61 64  0  0  0  0  0  0  0  0999 V2000
   49.4209   13.0508   22.3283 C   0  0  0  0  0  0  0  0  0  0  0  0
   48.9350   14.2671   21.7440 O   0  0  0  0  0  0  0  0  0  0  0  0
   49.8439   14.8309   20.7859 C   0  0  0  0  0  0  0  0  0  0  0  0
   50.7187   13.7701   20.0980 C   0  0  0  0  0  0  0  0  0  0  0  0
   51.6094   13.0802   21.0618 N   0  0  0  0  0  0  0  0  0  0  0  0
   50.9578   12.9823   22.3883 C   0  0  0  0  0  0  0  0  0  0  0  0
   52.0437   11.7579   20.5640 C   0  0  0  0  0  0  0  0  0  0  0  0
   52.8478   11.8009   19.2466 C   0  0  0  0  0  0  0  0  0  0  0  0
   52.0115   11.9195   18.0929 O   0  0  0  0  0  0  0  0  0  0  0  0
   51.3935   10.8038   17.6053 C   0  0  0  0  0  0  0  0  0  0  0  0
   51.5673    9.4962   18.0504 C   0  0  0  0  0  0  0  0  0  0  0  0
   50.5064   11.0456   16.5556 C   0  0  0  0  0  0  0  0  0  0  0  0
   49.7929    9.9980   15.9625 C   0  0  0  0  0  0  0  0  0  0  0  0
   49.9534    8.6735   16.3985 C   0  0  0  0  0  0  0  0  0  0  0  0
   50.8561    8.4458   17.4519 C   0  0  0  0  0  0  0  0  0  0  0  0
   49.2067    7.5667   15.7757 C   0  0  0  0  0  0  0  0  0  0  0  0
   49.0536    7.4602   14.3889 C   0  0  0  0  0  0  0  0  0  0  0  0
   48.6058    6.5578   16.5298 C   0  0  0  0  0  0  0  0  0  0  0  0
   47.9130    5.5066   16.0226 N   0  0  0  0  0  0  0  0  0  0  0  0
   47.7684    5.4493   14.6767 C   0  0  0  0  0  0  0  0  0  0  0  0
   48.3344    6.4011   13.8331 C   0  0  0  0  0  0  0  0  0  0  0  0
   45.3935    5.7387   13.0893 O   0  0  0  0  0  0  0  0  0  0  0  0
   45.7979    4.6009   13.3023 C   0  0  0  0  0  0  0  0  0  0  0  0
   47.0279    4.2611   14.1231 C   0  0  0  0  0  0  0  0  0  0  0  0
   44.0632    3.5795   11.8719 C   0  0  0  0  0  0  0  0  0  0  0  0
   45.1709    3.4777   12.7947 N   0  0  0  0  0  0  0  0  0  0  0  0
   44.5712    2.2530    9.7741 C   0  0  0  0  0  0  0  0  0  0  0  0
   44.5463    3.4849   10.4461 C   0  0  0  0  0  0  0  0  0  0  0  0
   45.0161    4.6304    9.7837 C   0  0  0  0  0  0  0  0  0  0  0  0
   45.4849    4.5494    8.4713 C   0  0  0  0  0  0  0  0  0  0  0  0
   45.4939    3.3219    7.8095 C   0  0  0  0  0  0  0  0  0  0  0  0
   45.0400    2.1742    8.4606 C   0  0  0  0  0  0  0  0  0  0  0  0
   49.0019   12.9837   23.3381 H   0  0  0  0  0  0  0  0  0  0  0  0
   49.0152   12.2097   21.7523 H   0  0  0  0  0  0  0  0  0  0  0  0
   49.2430   15.3652   20.0409 H   0  0  0  0  0  0  0  0  0  0  0  0
   50.4645   15.5761   21.2985 H   0  0  0  0  0  0  0  0  0  0  0  0
   50.0478   13.0492   19.6112 H   0  0  0  0  0  0  0  0  0  0  0  0
   51.3279   14.2530   19.3257 H   0  0  0  0  0  0  0  0  0  0  0  0
   51.3166   13.8354   22.9794 H   0  0  0  0  0  0  0  0  0  0  0  0
   51.2726   12.0826   22.9304 H   0  0  0  0  0  0  0  0  0  0  0  0
   52.7123   11.3257   21.3196 H   0  0  0  0  0  0  0  0  0  0  0  0
   51.1793   11.0904   20.4692 H   0  0  0  0  0  0  0  0  0  0  0  0
   53.5075   12.6771   19.2526 H   0  0  0  0  0  0  0  0  0  0  0  0
   53.5210   10.9400   19.1600 H   0  0  0  0  0  0  0  0  0  0  0  0
   52.2460    9.2466   18.8598 H   0  0  0  0  0  0  0  0  0  0  0  0
   50.3590   12.0618   16.1986 H   0  0  0  0  0  0  0  0  0  0  0  0
   49.0955   10.2356   15.1606 H   0  0  0  0  0  0  0  0  0  0  0  0
   51.0303    7.4341   17.8159 H   0  0  0  0  0  0  0  0  0  0  0  0
   49.4972    8.1976   13.7242 H   0  0  0  0  0  0  0  0  0  0  0  0
   48.6566    6.5651   17.6159 H   0  0  0  0  0  0  0  0  0  0  0  0
   48.2133    6.3335   12.7560 H   0  0  0  0  0  0  0  0  0  0  0  0
   47.7182    3.6813   13.4985 H   0  0  0  0  0  0  0  0  0  0  0  0
   46.7075    3.6143   14.9496 H   0  0  0  0  0  0  0  0  0  0  0  0
   43.3759    2.7560   12.0976 H   0  0  0  0  0  0  0  0  0  0  0  0
   43.5113    4.5142   12.0279 H   0  0  0  0  0  0  0  0  0  0  0  0
   45.6451    2.5868   12.8499 H   0  0  0  0  0  0  0  0  0  0  0  0
   44.2211    1.3478   10.2675 H   0  0  0  0  0  0  0  0  0  0  0  0
   45.0186    5.5929   10.2956 H   0  0  0  0  0  0  0  0  0  0  0  0
   45.8426    5.4448    7.9674 H   0  0  0  0  0  0  0  0  0  0  0  0
   45.8550    3.2598    6.7862 H   0  0  0  0  0  0  0  0  0  0  0  0
   45.0499    1.2171    7.9433 H   0  0  0  0  0  0  0  0  0  0  0  0
  1  2  1  0
  2  3  1  0
  3  4  1  0
  4  5  1  0
  5  6  1  0
  1  6  1  0
  7  8  1  0
  5  7  1  0
  9 10  1  0
 10 11  2  0
  8  9  1  0
 12 13  2  0
 13 14  1  0
 14 15  2  0
 10 12  1  0
 11 15  1  0
 16 17  2  0
 16 14  1  0
 18 19  2  0
 19 20  1  0
 20 21  2  0
 17 21  1  0
 16 18  1  0
 22 23  2  0
 23 24  1  0
 20 24  1  0
 25 26  1  0
 23 26  1  0
 27 28  2  0
 25 28  1  0
 29 30  2  0
 30 31  1  0
 31 32  2  0
 27 32  1  0
 28 29  1  0
  1 33  1  0
  1 34  1  0
  3 35  1  0
  3 36  1  0
  4 37  1  0
  4 38  1  0
  6 39  1  0
  6 40  1  0
  7 41  1  0
  7 42  1  0
  8 43  1  0
  8 44  1  0
 11 45  1  0
 12 46  1  0
 13 47  1  0
 15 48  1  0
 17 49  1  0
 18 50  1  0
 21 51  1  0
 24 52  1  0
 24 53  1  0
 25 54  1  0
 25 55  1  0
 26 56  1  0
 27 57  1  0
 29 58  1  0
 30 59  1  0
 31 60  1  0
 32 61  1  0
M  END
> <Uni-Dock RESULT> 
ENERGY=   -5.539  LOWER_BOUND=    0.000  UPPER_BOUND=    0.000
INTER + INTRA:          -5.539
INTER:                  -5.539
INTRA:                   0.000
UNBOUND:                 0.000

$$$$

     RDKit          3D

 61 64  0  0  0  0  0  0  0  0999 V2000
   49.3165   17.7271   16.1133 C   0  0  0  0  0  0  0  0  0  0  0  0
   49.1990   18.5068   14.9154 O   0  0  0  0  0  0  0  0  0  0  0  0
   50.3580   18.4177   14.0725 C   0  0  0  0  0  0  0  0  0  0  0  0
   51.1064   17.0836   14.2269 C   0  0  0  0  0  0  0  0  0  0  0  0
   51.6538   16.9134   15.5943 N   0  0  0  0  0  0  0  0  0  0  0  0
   50.7722   17.5673   16.5886 C   0  0  0  0  0  0  0  0  0  0  0  0
   51.8912   15.4915   15.9214 C   0  0  0  0  0  0  0  0  0  0  0  0
   52.9069   14.7823   15.0000 C   0  0  0  0  0  0  0  0  0  0  0  0
   52.3293   14.3625   13.7611 O   0  0  0  0  0  0  0  0  0  0  0  0
   51.5934   13.2128   13.7293 C   0  0  0  0  0  0  0  0  0  0  0  0
   51.4164   12.3104   14.7745 C   0  0  0  0  0  0  0  0  0  0  0  0
   50.9735   12.9561   12.5057 C   0  0  0  0  0  0  0  0  0  0  0  0
   50.1781   11.8184   12.3282 C   0  0  0  0  0  0  0  0  0  0  0  0
   49.9865   10.8981   13.3706 C   0  0  0  0  0  0  0  0  0  0  0  0
   50.6237   11.1675   14.5945 C   0  0  0  0  0  0  0  0  0  0  0  0
   49.1525    9.6975   13.1881 C   0  0  0  0  0  0  0  0  0  0  0  0
   49.2281    8.9073   12.0358 C   0  0  0  0  0  0  0  0  0  0  0  0
   48.2355    9.2755   14.1518 C   0  0  0  0  0  0  0  0  0  0  0  0
   47.4443    8.1771   14.0535 N   0  0  0  0  0  0  0  0  0  0  0  0
   47.5310    7.4491   12.9142 C   0  0  0  0  0  0  0  0  0  0  0  0
   48.4184    7.7794   11.8938 C   0  0  0  0  0  0  0  0  0  0  0  0
   45.5828    7.0846   10.8368 O   0  0  0  0  0  0  0  0  0  0  0  0
   45.7034    6.1881   11.6645 C   0  0  0  0  0  0  0  0  0  0  0  0
   46.6741    6.2141   12.8304 C   0  0  0  0  0  0  0  0  0  0  0  0
   44.0776    4.7303   10.5110 C   0  0  0  0  0  0  0  0  0  0  0  0
   44.9609    5.0224   11.6172 N   0  0  0  0  0  0  0  0  0  0  0  0
   44.6676    2.4766    9.5157 C   0  0  0  0  0  0  0  0  0  0  0  0
   44.7754    3.8755    9.4826 C   0  0  0  0  0  0  0  0  0  0  0  0
   45.5777    4.4725    8.4969 C   0  0  0  0  0  0  0  0  0  0  0  0
   46.2443    3.6888    7.5536 C   0  0  0  0  0  0  0  0  0  0  0  0
   46.1204    2.3002    7.5891 C   0  0  0  0  0  0  0  0  0  0  0  0
   45.3350    1.6941    8.5704 C   0  0  0  0  0  0  0  0  0  0  0  0
   48.7211   18.2247   16.8864 H   0  0  0  0  0  0  0  0  0  0  0  0
   48.8565   16.7480   15.9297 H   0  0  0  0  0  0  0  0  0  0  0  0
   50.0194   18.5426   13.0375 H   0  0  0  0  0  0  0  0  0  0  0  0
   51.0166   19.2638   14.3038 H   0  0  0  0  0  0  0  0  0  0  0  0
   50.3997   16.2757   13.9929 H   0  0  0  0  0  0  0  0  0  0  0  0
   51.9276   17.0466   13.5024 H   0  0  0  0  0  0  0  0  0  0  0  0
   51.1867   18.5684   16.7673 H   0  0  0  0  0  0  0  0  0  0  0  0
   50.7969   17.0509   17.5557 H   0  0  0  0  0  0  0  0  0  0  0  0
   52.3139   15.4534   16.9337 H   0  0  0  0  0  0  0  0  0  0  0  0
   50.9397   14.9474   15.9415 H   0  0  0  0  0  0  0  0  0  0  0  0
   53.7193   15.4765   14.7529 H   0  0  0  0  0  0  0  0  0  0  0  0
   53.3956   13.9450   15.5120 H   0  0  0  0  0  0  0  0  0  0  0  0
   51.8765   12.4549   15.7469 H   0  0  0  0  0  0  0  0  0  0  0  0
   51.1011   13.6527   11.6809 H   0  0  0  0  0  0  0  0  0  0  0  0
   49.6964   11.6692   11.3631 H   0  0  0  0  0  0  0  0  0  0  0  0
   50.5216   10.4759   15.4298 H   0  0  0  0  0  0  0  0  0  0  0  0
   49.9226    9.1570   11.2372 H   0  0  0  0  0  0  0  0  0  0  0  0
   48.0942    9.8354   15.0731 H   0  0  0  0  0  0  0  0  0  0  0  0
   48.4781    7.1787   10.9910 H   0  0  0  0  0  0  0  0  0  0  0  0
   47.3312    5.3389   12.7603 H   0  0  0  0  0  0  0  0  0  0  0  0
   46.0880    6.1141   13.7528 H   0  0  0  0  0  0  0  0  0  0  0  0
   43.2085    4.2025   10.9201 H   0  0  0  0  0  0  0  0  0  0  0  0
   43.7085    5.6558   10.0529 H   0  0  0  0  0  0  0  0  0  0  0  0
   45.2267    4.2495   12.2119 H   0  0  0  0  0  0  0  0  0  0  0  0
   44.0594    1.9875   10.2749 H   0  0  0  0  0  0  0  0  0  0  0  0
   45.6852    5.5569    8.4656 H   0  0  0  0  0  0  0  0  0  0  0  0
   46.8597    4.1634    6.7922 H   0  0  0  0  0  0  0  0  0  0  0  0
   46.6362    1.6904    6.8518 H   0  0  0  0  0  0  0  0  0  0  0  0
   45.2414    0.6105    8.5977 H   0  0  0  0  0  0  0  0  0  0  0  0
  1  2  1  0
  2  3  1  0
  3  4  1  0
  4  5  1  0
  5  6  1  0
  1  6  1  0
  7  8  1  0
  5  7  1  0
  9 10  1  0
 10 11  2  0
  8  9  1  0
 12 13  2  0
 13 14  1  0
 14 15  2  0
 10 12  1  0
 11 15  1  0
 16 17  2  0
 16 14  1  0
 18 19  2  0
 19 20  1  0
 20 21  2  0
 17 21  1  0
 16 18  1  0
 22 23  2  0
 23 24  1  0
 20 24  1  0
 25 26  1  0
 23 26  1  0
 27 28  2  0
 25 28  1  0
 29 30  2  0
 30 31  1  0
 31 32  2  0
 27 32  1  0
 28 29  1  0
  1 33  1  0
  1 34  1  0
  3 35  1  0
  3 36  1  0
  4 37  1  0
  4 38  1  0
  6 39  1  0
  6 40  1  0
  7 41  1  0
  7 42  1  0
  8 43  1  0
  8 44  1  0
 11 45  1  0
 12 46  1  0
 13 47  1  0
 15 48  1  0
 17 49  1  0
 18 50  1  0
 21 51  1  0
 24 52  1  0
 24 53  1  0
 25 54  1  0
 25 55  1  0
 26 56  1  0
 27 57  1  0
 29 58  1  0
 30 59  1  0
 31 60  1  0
 32 61  1  0
M  END
> <Uni-Dock RESULT> 
ENERGY=   -5.387  LOWER_BOUND=    3.818  UPPER_BOUND=    4.366
INTER + INTRA:          -5.387
INTER:                  -5.387
INTRA:                   0.000
UNBOUND:                 0.000

$$$$

     RDKit          3D

 61 64  0  0  0  0  0  0  0  0999 V2000
   50.9009   15.2119   20.1197 C   0  0  0  0  0  0  0  0  0  0  0  0
   50.4864   16.3222   19.3121 O   0  0  0  0  0  0  0  0  0  0  0  0
   51.3791   16.5840   18.2183 C   0  0  0  0  0  0  0  0  0  0  0  0
   52.1145   15.3236   17.7342 C   0  0  0  0  0  0  0  0  0  0  0  0
   53.0006   14.7648   18.7834 N   0  0  0  0  0  0  0  0  0  0  0  0
   52.4270   15.0078   20.1271 C   0  0  0  0  0  0  0  0  0  0  0  0
   53.2873   13.3322   18.5591 C   0  0  0  0  0  0  0  0  0  0  0  0
   54.0084   13.0228   17.2295 C   0  0  0  0  0  0  0  0  0  0  0  0
   53.1152   12.9807   16.1137 O   0  0  0  0  0  0  0  0  0  0  0  0
   52.3740   11.8540   15.9006 C   0  0  0  0  0  0  0  0  0  0  0  0
   52.4617   10.6563   16.6050 C   0  0  0  0  0  0  0  0  0  0  0  0
   51.4474   11.9584   14.8625 C   0  0  0  0  0  0  0  0  0  0  0  0
   50.6106   10.8853   14.5360 C   0  0  0  0  0  0  0  0  0  0  0  0
   50.6830    9.6706   15.2357 C   0  0  0  0  0  0  0  0  0  0  0  0
   51.6266    9.5792   16.2738 C   0  0  0  0  0  0  0  0  0  0  0  0
   49.8062    8.5370   14.8942 C   0  0  0  0  0  0  0  0  0  0  0  0
   49.5583    8.1611   13.5694 C   0  0  0  0  0  0  0  0  0  0  0  0
   49.1686    7.7698   15.8701 C   0  0  0  0  0  0  0  0  0  0  0  0
   48.3574    6.7090   15.6274 N   0  0  0  0  0  0  0  0  0  0  0  0
   48.1248    6.3885   14.3317 C   0  0  0  0  0  0  0  0  0  0  0  0
   48.7172    7.0851   13.2820 C   0  0  0  0  0  0  0  0  0  0  0  0
   45.6895    6.5730   12.8222 O   0  0  0  0  0  0  0  0  0  0  0  0
   46.0066    5.4701   13.2540 C   0  0  0  0  0  0  0  0  0  0  0  0
   47.2515    5.1894   14.0748 C   0  0  0  0  0  0  0  0  0  0  0  0
   44.1044    4.3487   12.1482 C   0  0  0  0  0  0  0  0  0  0  0  0
   45.2546    4.3327   13.0235 N   0  0  0  0  0  0  0  0  0  0  0  0
   44.3643    2.5734   10.3597 C   0  0  0  0  0  0  0  0  0  0  0  0
   44.4878    3.9142   10.7556 C   0  0  0  0  0  0  0  0  0  0  0  0
   45.0126    4.8462    9.8459 C   0  0  0  0  0  0  0  0  0  0  0  0
   45.3899    4.4498    8.5617 C   0  0  0  0  0  0  0  0  0  0  0  0
   45.2517    3.1169    8.1755 C   0  0  0  0  0  0  0  0  0  0  0  0
   44.7418    2.1789    9.0739 C   0  0  0  0  0  0  0  0  0  0  0  0
   50.5414   15.3966   21.1378 H   0  0  0  0  0  0  0  0  0  0  0  0
   50.3890   14.3134   19.7530 H   0  0  0  0  0  0  0  0  0  0  0  0
   50.7814   17.0084   17.4034 H   0  0  0  0  0  0  0  0  0  0  0  0
   52.0924   17.3551   18.5343 H   0  0  0  0  0  0  0  0  0  0  0  0
   51.3549   14.5864   17.4405 H   0  0  0  0  0  0  0  0  0  0  0  0
   52.7138   15.5743   16.8517 H   0  0  0  0  0  0  0  0  0  0  0  0
   52.8941   15.9257   20.5080 H   0  0  0  0  0  0  0  0  0  0  0  0
   52.6961   14.2136   20.8337 H   0  0  0  0  0  0  0  0  0  0  0  0
   53.9619   13.0028   19.3599 H   0  0  0  0  0  0  0  0  0  0  0  0
   52.3642   12.7470   18.6452 H   0  0  0  0  0  0  0  0  0  0  0  0
   54.7404   13.8126   17.0213 H   0  0  0  0  0  0  0  0  0  0  0  0
   54.5981   12.1011   17.2987 H   0  0  0  0  0  0  0  0  0  0  0  0
   53.1654   10.5149   17.4191 H   0  0  0  0  0  0  0  0  0  0  0  0
   51.3664   12.8880   14.3047 H   0  0  0  0  0  0  0  0  0  0  0  0
   49.8877   11.0185   13.7325 H   0  0  0  0  0  0  0  0  0  0  0  0
   51.7351    8.6528   16.8363 H   0  0  0  0  0  0  0  0  0  0  0  0
   50.0217    8.6980   12.7451 H   0  0  0  0  0  0  0  0  0  0  0  0
   49.2874    7.9969   16.9268 H   0  0  0  0  0  0  0  0  0  0  0  0
   48.5238    6.8080   12.2500 H   0  0  0  0  0  0  0  0  0  0  0  0
   47.8488    4.4283   13.5585 H   0  0  0  0  0  0  0  0  0  0  0  0
   46.9285    4.7622   15.0326 H   0  0  0  0  0  0  0  0  0  0  0  0
   43.3640    3.6608   12.5726 H   0  0  0  0  0  0  0  0  0  0  0  0
   43.6461    5.3446   12.1260 H   0  0  0  0  0  0  0  0  0  0  0  0
   45.6525    3.4307   13.2460 H   0  0  0  0  0  0  0  0  0  0  0  0
   43.9688    1.8286   11.0483 H   0  0  0  0  0  0  0  0  0  0  0  0
   45.1300    5.8889   10.1415 H   0  0  0  0  0  0  0  0  0  0  0  0
   45.7915    5.1822    7.8645 H   0  0  0  0  0  0  0  0  0  0  0  0
   45.5416    2.8093    7.1741 H   0  0  0  0  0  0  0  0  0  0  0  0
   44.6368    1.1391    8.7713 H   0  0  0  0  0  0  0  0  0  0  0  0
  1  2  1  0
  2  3  1  0
  3  4  1  0
  4  5  1  0
  5  6  1  0
  1  6  1  0
  7  8  1  0
  5  7  1  0
  9 10  1  0
 10 11  2  0
  8  9  1  0
 12 13  2  0
 13 14  1  0
 14 15  2  0
 10 12  1  0
 11 15  1  0
 16 17  2  0
 16 14  1  0
 18 19  2  0
 19 20  1  0
 20 21  2  0
 17 21  1  0
 16 18  1  0
 22 23  2  0
 23 24  1  0
 20 24  1  0
 25 26  1  0
 23 26  1  0
 27 28  2  0
 25 28  1  0
 29 30  2  0
 30 31  1  0
 31 32  2  0
 27 32  1  0
 28 29  1  0
  1 33  1  0
  1 34  1  0
  3 35  1  0
  3 36  1  0
  4 37  1  0
  4 38  1  0
  6 39  1  0
  6 40  1  0
  7 41  1  0
  7 42  1  0
  8 43  1  0
  8 44  1  0
 11 45  1  0
 12 46  1  0
 13 47  1  0
 15 48  1  0
 17 49  1  0
 18 50  1  0
 21 51  1  0
 24 52  1  0
 24 53  1  0
 25 54  1  0
 25 55  1  0
 26 56  1  0
 27 57  1  0
 29 58  1  0
 30 59  1  0
 31 60  1  0
 32 61  1  0
M  END
> <Uni-Dock RESULT> 
ENERGY=   -5.047  LOWER_BOUND=    1.749  UPPER_BOUND=    1.995
INTER + INTRA:          -5.047
INTER:                  -5.047
INTRA:                   0.000
UNBOUND:                 0.000

$$$$

     RDKit          3D

 61 64  0  0  0  0  0  0  0  0999 V2000
   40.0252   12.5659   12.7734 C   0  0  0  0  0  0  0  0  0  0  0  0
   39.0210   11.5430   12.8185 O   0  0  0  0  0  0  0  0  0  0  0  0
   39.0601   10.6684   11.6804 C   0  0  0  0  0  0  0  0  0  0  0  0
   40.4665   10.5448   11.0715 C   0  0  0  0  0  0  0  0  0  0  0  0
   40.9510   11.8394   10.5352 N   0  0  0  0  0  0  0  0  0  0  0  0
   40.4173   12.9634   11.3385 C   0  0  0  0  0  0  0  0  0  0  0  0
   42.4257   11.8818   10.4424 C   0  0  0  0  0  0  0  0  0  0  0  0
   43.0407   10.8152    9.5109 C   0  0  0  0  0  0  0  0  0  0  0  0
   43.1539    9.5345   10.1368 O   0  0  0  0  0  0  0  0  0  0  0  0
   44.1971    9.3025   10.9867 C   0  0  0  0  0  0  0  0  0  0  0  0
   45.2623   10.1600   11.2481 C   0  0  0  0  0  0  0  0  0  0  0  0
   44.1499    8.0693   11.6379 C   0  0  0  0  0  0  0  0  0  0  0  0
   45.1472    7.6982   12.5467 C   0  0  0  0  0  0  0  0  0  0  0  0
   46.2280    8.5498   12.8245 C   0  0  0  0  0  0  0  0  0  0  0  0
   46.2646    9.7853   12.1549 C   0  0  0  0  0  0  0  0  0  0  0  0
   47.2820    8.1628   13.7783 C   0  0  0  0  0  0  0  0  0  0  0  0
   47.8383    6.8790   13.7917 C   0  0  0  0  0  0  0  0  0  0  0  0
   47.7891    9.0517   14.7271 C   0  0  0  0  0  0  0  0  0  0  0  0
   48.7639    8.7658   15.6273 N   0  0  0  0  0  0  0  0  0  0  0  0
   49.2630    7.5063   15.6233 C   0  0  0  0  0  0  0  0  0  0  0  0
   48.8315    6.5450   14.7135 C   0  0  0  0  0  0  0  0  0  0  0  0
   49.0244    5.4496   17.6124 O   0  0  0  0  0  0  0  0  0  0  0  0
   50.0714    6.0869   17.5787 C   0  0  0  0  0  0  0  0  0  0  0  0
   50.3675    7.2102   16.6027 C   0  0  0  0  0  0  0  0  0  0  0  0
   51.1103    4.7188   19.3529 C   0  0  0  0  0  0  0  0  0  0  0  0
   51.1264    5.8368   18.4370 N   0  0  0  0  0  0  0  0  0  0  0  0
   53.1766    3.2953   19.0035 C   0  0  0  0  0  0  0  0  0  0  0  0
   51.8153    3.5278   18.7532 C   0  0  0  0  0  0  0  0  0  0  0  0
   51.1217    2.6538   17.9007 C   0  0  0  0  0  0  0  0  0  0  0  0
   51.7707    1.5607   17.3242 C   0  0  0  0  0  0  0  0  0  0  0  0
   53.1207    1.3329   17.5894 C   0  0  0  0  0  0  0  0  0  0  0  0
   53.8240    2.2003   18.4261 C   0  0  0  0  0  0  0  0  0  0  0  0
   39.6297   13.4354   13.3095 H   0  0  0  0  0  0  0  0  0  0  0  0
   40.8998   12.2104   13.3324 H   0  0  0  0  0  0  0  0  0  0  0  0
   38.7047    9.6857   12.0113 H   0  0  0  0  0  0  0  0  0  0  0  0
   38.3442   11.0399   10.9371 H   0  0  0  0  0  0  0  0  0  0  0  0
   41.1398   10.1791   11.8588 H   0  0  0  0  0  0  0  0  0  0  0  0
   40.4441    9.8051   10.2633 H   0  0  0  0  0  0  0  0  0  0  0  0
   39.5157   13.3194   10.8225 H   0  0  0  0  0  0  0  0  0  0  0  0
   41.1106   13.8126   11.3604 H   0  0  0  0  0  0  0  0  0  0  0  0
   42.7003   12.8566   10.0191 H   0  0  0  0  0  0  0  0  0  0  0  0
   42.8664   11.8224   11.4445 H   0  0  0  0  0  0  0  0  0  0  0  0
   42.3959   10.6844    8.6334 H   0  0  0  0  0  0  0  0  0  0  0  0
   44.0054   11.1443    9.1070 H   0  0  0  0  0  0  0  0  0  0  0  0
   45.3546   11.1295   10.7691 H   0  0  0  0  0  0  0  0  0  0  0  0
   43.3232    7.3900   11.4451 H   0  0  0  0  0  0  0  0  0  0  0  0
   45.0588    6.7354   13.0476 H   0  0  0  0  0  0  0  0  0  0  0  0
   47.0909   10.4752   12.3216 H   0  0  0  0  0  0  0  0  0  0  0  0
   47.5091    6.1249   13.0806 H   0  0  0  0  0  0  0  0  0  0  0  0
   47.4065   10.0666   14.8042 H   0  0  0  0  0  0  0  0  0  0  0  0
   49.2494    5.5427   14.7217 H   0  0  0  0  0  0  0  0  0  0  0  0
   51.2734    6.9565   16.0390 H   0  0  0  0  0  0  0  0  0  0  0  0
   50.5851    8.1115   17.1896 H   0  0  0  0  0  0  0  0  0  0  0  0
   51.6184    5.0421   20.2687 H   0  0  0  0  0  0  0  0  0  0  0  0
   50.0819    4.4562   19.6284 H   0  0  0  0  0  0  0  0  0  0  0  0
   52.0221    6.2653   18.2477 H   0  0  0  0  0  0  0  0  0  0  0  0
   53.7403    3.9625   19.6534 H   0  0  0  0  0  0  0  0  0  0  0  0
   50.0679    2.8279   17.6829 H   0  0  0  0  0  0  0  0  0  0  0  0
   51.2213    0.8883   16.6685 H   0  0  0  0  0  0  0  0  0  0  0  0
   53.6247    0.4792   17.1437 H   0  0  0  0  0  0  0  0  0  0  0  0
   54.8778    2.0221   18.6299 H   0  0  0  0  0  0  0  0  0  0  0  0
  1  2  1  0
  2  3  1  0
  3  4  1  0
  4  5  1  0
  5  6  1  0
  1  6  1  0
  7  8  1  0
  5  7  1  0
  9 10  1  0
 10 11  2  0
  8  9  1  0
 12 13  2  0
 13 14  1  0
 14 15  2  0
 10 12  1  0
 11 15  1  0
 16 17  2  0
 16 14  1  0
 18 19  2  0
 19 20  1  0
 20 21  2  0
 17 21  1  0
 16 18  1  0
 22 23  2  0
 23 24  1  0
 20 24  1  0
 25 26  1  0
 23 26  1  0
 27 28  2  0
 25 28  1  0
 29 30  2  0
 30 31  1  0
 31 32  2  0
 27 32  1  0
 28 29  1  0
  1 33  1  0
  1 34  1  0
  3 35  1  0
  3 36  1  0
  4 37  1  0
  4 38  1  0
  6 39  1  0
  6 40  1  0
  7 41  1  0
  7 42  1  0
  8 43  1  0
  8 44  1  0
 11 45  1  0
 12 46  1  0
 13 47  1  0
 15 48  1  0
 17 49  1  0
 18 50  1  0
 21 51  1  0
 24 52  1  0
 24 53  1  0
 25 54  1  0
 25 55  1  0
 26 56  1  0
 27 57  1  0
 29 58  1  0
 30 59  1  0
 31 60  1  0
 32 61  1  0
M  END
> <Uni-Dock RESULT> 
ENERGY=   -5.047  LOWER_BOUND=    5.697  UPPER_BOUND=   10.178
INTER + INTRA:          -5.047
INTER:                  -5.047
INTRA:                   0.000
UNBOUND:                 0.000

$$$$

     RDKit          3D

 61 64  0  0  0  0  0  0  0  0999 V2000
   42.1932   15.1078   13.2688 C   0  0  0  0  0  0  0  0  0  0  0  0
   40.9742   14.4324   13.6075 O   0  0  0  0  0  0  0  0  0  0  0  0
   40.5550   13.4952   12.6036 C   0  0  0  0  0  0  0  0  0  0  0  0
   41.7313   12.9146   11.8016 C   0  0  0  0  0  0  0  0  0  0  0  0
   42.4419   13.9615   11.0286 N   0  0  0  0  0  0  0  0  0  0  0  0
   42.3998   15.2542   11.7501 C   0  0  0  0  0  0  0  0  0  0  0  0
   43.8260   13.5609   10.6988 C   0  0  0  0  0  0  0  0  0  0  0  0
   43.9361   12.2885    9.8313 C   0  0  0  0  0  0  0  0  0  0  0  0
   43.8098   11.0865   10.5955 O   0  0  0  0  0  0  0  0  0  0  0  0
   44.8906   10.6283   11.2928 C   0  0  0  0  0  0  0  0  0  0  0  0
   46.1798   11.1531   11.2663 C   0  0  0  0  0  0  0  0  0  0  0  0
   44.6309    9.5206   12.1008 C   0  0  0  0  0  0  0  0  0  0  0  0
   45.6415    8.9482   12.8814 C   0  0  0  0  0  0  0  0  0  0  0  0
   46.9468    9.4642   12.8693 C   0  0  0  0  0  0  0  0  0  0  0  0
   47.1937   10.5756   12.0445 C   0  0  0  0  0  0  0  0  0  0  0  0
   48.0150    8.8636   13.6870 C   0  0  0  0  0  0  0  0  0  0  0  0
   48.1894    7.4785   13.7822 C   0  0  0  0  0  0  0  0  0  0  0  0
   48.9172    9.6384   14.4174 C   0  0  0  0  0  0  0  0  0  0  0  0
   49.9283    9.1529   15.1818 N   0  0  0  0  0  0  0  0  0  0  0  0
   50.0521    7.8064   15.2657 C   0  0  0  0  0  0  0  0  0  0  0  0
   49.2088    6.9436   14.5713 C   0  0  0  0  0  0  0  0  0  0  0  0
   49.6396    6.0799   17.5224 O   0  0  0  0  0  0  0  0  0  0  0  0
   50.7952    6.3764   17.2392 C   0  0  0  0  0  0  0  0  0  0  0  0
   51.1976    7.2796   16.0885 C   0  0  0  0  0  0  0  0  0  0  0  0
   51.7353    4.9127   18.9920 C   0  0  0  0  0  0  0  0  0  0  0  0
   51.8838    5.8981   17.9451 N   0  0  0  0  0  0  0  0  0  0  0  0
   53.2258    2.9212   18.5118 C   0  0  0  0  0  0  0  0  0  0  0  0
   51.9590    3.5223   18.4515 C   0  0  0  0  0  0  0  0  0  0  0  0
   50.9034    2.8244   17.8430 C   0  0  0  0  0  0  0  0  0  0  0  0
   51.1055    1.5456   17.3210 C   0  0  0  0  0  0  0  0  0  0  0  0
   52.3659    0.9536   17.3970 C   0  0  0  0  0  0  0  0  0  0  0  0
   53.4257    1.6412   17.9894 C   0  0  0  0  0  0  0  0  0  0  0  0
   42.1609   16.0957   13.7407 H   0  0  0  0  0  0  0  0  0  0  0  0
   43.0261   14.5577   13.7244 H   0  0  0  0  0  0  0  0  0  0  0  0
   40.0128   12.6908   13.1139 H   0  0  0  0  0  0  0  0  0  0  0  0
   39.8412   13.9989   11.9403 H   0  0  0  0  0  0  0  0  0  0  0  0
   42.4148   12.4326   12.5138 H   0  0  0  0  0  0  0  0  0  0  0  0
   41.3537   12.1510   11.1124 H   0  0  0  0  0  0  0  0  0  0  0  0
   41.5498   15.8162   11.3407 H   0  0  0  0  0  0  0  0  0  0  0  0
   43.2908   15.8610   11.5492 H   0  0  0  0  0  0  0  0  0  0  0  0
   44.2723   14.3741   10.1119 H   0  0  0  0  0  0  0  0  0  0  0  0
   44.4152   13.4565   11.6173 H   0  0  0  0  0  0  0  0  0  0  0  0
   43.1259   12.2819    9.0921 H   0  0  0  0  0  0  0  0  0  0  0  0
   44.8592   12.2856    9.2398 H   0  0  0  0  0  0  0  0  0  0  0  0
   46.4423   12.0103   10.6546 H   0  0  0  0  0  0  0  0  0  0  0  0
   43.6285    9.1010   12.1331 H   0  0  0  0  0  0  0  0  0  0  0  0
   45.3887    8.0980   13.5132 H   0  0  0  0  0  0  0  0  0  0  0  0
   48.1937   11.0034   11.9855 H   0  0  0  0  0  0  0  0  0  0  0  0
   47.5371    6.7992   13.2385 H   0  0  0  0  0  0  0  0  0  0  0  0
   48.8499   10.7237   14.4188 H   0  0  0  0  0  0  0  0  0  0  0  0
   49.3289    5.8669   14.6459 H   0  0  0  0  0  0  0  0  0  0  0  0
   51.8750    6.7259   15.4272 H   0  0  0  0  0  0  0  0  0  0  0  0
   51.7617    8.1219   16.5089 H   0  0  0  0  0  0  0  0  0  0  0  0
   52.4768    5.1458   19.7649 H   0  0  0  0  0  0  0  0  0  0  0  0
   50.7460    4.9873   19.4592 H   0  0  0  0  0  0  0  0  0  0  0  0
   52.8099    6.0275   17.5614 H   0  0  0  0  0  0  0  0  0  0  0  0
   54.0637    3.4439   18.9700 H   0  0  0  0  0  0  0  0  0  0  0  0
   49.9165    3.2822   17.7736 H   0  0  0  0  0  0  0  0  0  0  0  0
   50.2786    1.0134   16.8555 H   0  0  0  0  0  0  0  0  0  0  0  0
   52.5220   -0.0439   16.9943 H   0  0  0  0  0  0  0  0  0  0  0  0
   54.4088    1.1783   18.0457 H   0  0  0  0  0  0  0  0  0  0  0  0
  1  2  1  0
  2  3  1  0
  3  4  1  0
  4  5  1  0
  5  6  1  0
  1  6  1  0
  7  8  1  0
  5  7  1  0
  9 10  1  0
 10 11  2  0
  8  9  1  0
 12 13  2  0
 13 14  1  0
 14 15  2  0
 10 12  1  0
 11 15  1  0
 16 17  2  0
 16 14  1  0
 18 19  2  0
 19 20  1  0
 20 21  2  0
 17 21  1  0
 16 18  1  0
 22 23  2  0
 23 24  1  0
 20 24  1  0
 25 26  1  0
 23 26  1  0
 27 28  2  0
 25 28  1  0
 29 30  2  0
 30 31  1  0
 31 32  2  0
 27 32  1  0
 28 29  1  0
  1 33  1  0
  1 34  1  0
  3 35  1  0
  3 36  1  0
  4 37  1  0
  4 38  1  0
  6 39  1  0
  6 40  1  0
  7 41  1  0
  7 42  1  0
  8 43  1  0
  8 44  1  0
 11 45  1  0
 12 46  1  0
 13 47  1  0
 15 48  1  0
 17 49  1  0
 18 50  1  0
 21 51  1  0
 24 52  1  0
 24 53  1  0
 25 54  1  0
 25 55  1  0
 26 56  1  0
 27 57  1  0
 29 58  1  0
 30 59  1  0
 31 60  1  0
 32 61  1  0
M  END
> <Uni-Dock RESULT> 
ENERGY=   -4.968  LOWER_BOUND=    6.191  UPPER_BOUND=    9.483
INTER + INTRA:          -4.968
INTER:                  -4.968
INTRA:                   0.000
UNBOUND:                 0.000

$$$$

     RDKit          3D

 61 64  0  0  0  0  0  0  0  0999 V2000
   52.6205   16.1085   17.6929 C   0  0  0  0  0  0  0  0  0  0  0  0
   52.4512   17.0733   16.6453 O   0  0  0  0  0  0  0  0  0  0  0  0
   53.4256   16.9413   15.5989 C   0  0  0  0  0  0  0  0  0  0  0  0
   53.9421   15.5016   15.4433 C   0  0  0  0  0  0  0  0  0  0  0  0
   54.6635   15.0405   16.6538 N   0  0  0  0  0  0  0  0  0  0  0  0
   54.0825   15.6584   17.8679 C   0  0  0  0  0  0  0  0  0  0  0  0
   54.6960   13.5658   16.7495 C   0  0  0  0  0  0  0  0  0  0  0  0
   55.4093   12.8624   15.5747 C   0  0  0  0  0  0  0  0  0  0  0  0
   54.5753   12.7321   14.4206 O   0  0  0  0  0  0  0  0  0  0  0  0
   53.6529   11.7262   14.3800 C   0  0  0  0  0  0  0  0  0  0  0  0
   53.4900   10.7100   15.3177 C   0  0  0  0  0  0  0  0  0  0  0  0
   52.8090   11.7591   13.2692 C   0  0  0  0  0  0  0  0  0  0  0  0
   51.8075   10.7965   13.0992 C   0  0  0  0  0  0  0  0  0  0  0  0
   51.6268    9.7655   14.0344 C   0  0  0  0  0  0  0  0  0  0  0  0
   52.4898    9.7422   15.1440 C   0  0  0  0  0  0  0  0  0  0  0  0
   50.5759    8.7481   13.8586 C   0  0  0  0  0  0  0  0  0  0  0  0
   50.3249    8.1438   12.6219 C   0  0  0  0  0  0  0  0  0  0  0  0
   49.7660    8.3257   14.9138 C   0  0  0  0  0  0  0  0  0  0  0  0
   48.7882    7.3885   14.8251 N   0  0  0  0  0  0  0  0  0  0  0  0
   48.5609    6.8413   13.6067 C   0  0  0  0  0  0  0  0  0  0  0  0
   49.3170    7.1874   12.4902 C   0  0  0  0  0  0  0  0  0  0  0  0
   46.2708    7.1026   11.8947 O   0  0  0  0  0  0  0  0  0  0  0  0
   46.3630    6.0808   12.5662 C   0  0  0  0  0  0  0  0  0  0  0  0
   47.4976    5.7784   13.5271 C   0  0  0  0  0  0  0  0  0  0  0  0
   44.3418    5.0828   11.5574 C   0  0  0  0  0  0  0  0  0  0  0  0
   45.4289    5.0627   12.5098 N   0  0  0  0  0  0  0  0  0  0  0  0
   44.3576    2.9475   10.1942 C   0  0  0  0  0  0  0  0  0  0  0  0
   44.7036    4.3020   10.3186 C   0  0  0  0  0  0  0  0  0  0  0  0
   45.4294    4.9161    9.2852 C   0  0  0  0  0  0  0  0  0  0  0  0
   45.7871    4.1962    8.1440 C   0  0  0  0  0  0  0  0  0  0  0  0
   45.4277    2.8539    8.0263 C   0  0  0  0  0  0  0  0  0  0  0  0
   44.7159    2.2291    9.0510 C   0  0  0  0  0  0  0  0  0  0  0  0
   52.2542   16.5647   18.6190 H   0  0  0  0  0  0  0  0  0  0  0  0
   51.9717   15.2509   17.4752 H   0  0  0  0  0  0  0  0  0  0  0  0
   52.9525   17.2750   14.6682 H   0  0  0  0  0  0  0  0  0  0  0  0
   54.2515   17.6317   15.8098 H   0  0  0  0  0  0  0  0  0  0  0  0
   53.0758   14.8562   15.2434 H   0  0  0  0  0  0  0  0  0  0  0  0
   54.6166   15.4533   14.5810 H   0  0  0  0  0  0  0  0  0  0  0  0
   54.6901   16.5452   18.0920 H   0  0  0  0  0  0  0  0  0  0  0  0
   54.1708   15.0006   18.7408 H   0  0  0  0  0  0  0  0  0  0  0  0
   55.2625   13.3077   17.6535 H   0  0  0  0  0  0  0  0  0  0  0  0
   53.6794   13.1756   16.8757 H   0  0  0  0  0  0  0  0  0  0  0  0
   56.2809   13.4553   15.2719 H   0  0  0  0  0  0  0  0  0  0  0  0
   55.8187   11.8916   15.8781 H   0  0  0  0  0  0  0  0  0  0  0  0
   54.1185   10.6307   16.1989 H   0  0  0  0  0  0  0  0  0  0  0  0
   52.9231   12.5477   12.5296 H   0  0  0  0  0  0  0  0  0  0  0  0
   51.1583   10.8734   12.2283 H   0  0  0  0  0  0  0  0  0  0  0  0
   52.4030    8.9531   15.8897 H   0  0  0  0  0  0  0  0  0  0  0  0
   50.9150    8.4062   11.7470 H   0  0  0  0  0  0  0  0  0  0  0  0
   49.8755    8.7509   15.9085 H   0  0  0  0  0  0  0  0  0  0  0  0
   49.1240    6.7319   11.5235 H   0  0  0  0  0  0  0  0  0  0  0  0
   47.9703    4.8353   13.2273 H   0  0  0  0  0  0  0  0  0  0  0  0
   47.0592    5.6266   14.5215 H   0  0  0  0  0  0  0  0  0  0  0  0
   43.4705    4.6358   12.0497 H   0  0  0  0  0  0  0  0  0  0  0  0
   44.0729    6.1132   11.2956 H   0  0  0  0  0  0  0  0  0  0  0  0
   45.6464    4.1758   12.9430 H   0  0  0  0  0  0  0  0  0  0  0  0
   43.8028    2.4446   10.9845 H   0  0  0  0  0  0  0  0  0  0  0  0
   45.7200    5.9632    9.3718 H   0  0  0  0  0  0  0  0  0  0  0  0
   46.3460    4.6843    7.3484 H   0  0  0  0  0  0  0  0  0  0  0  0
   45.7026    2.2947    7.1357 H   0  0  0  0  0  0  0  0  0  0  0  0
   44.4384    1.1812    8.9582 H   0  0  0  0  0  0  0  0  0  0  0  0
  1  2  1  0
  2  3  1  0
  3  4  1  0
  4  5  1  0
  5  6  1  0
  1  6  1  0
  7  8  1  0
  5  7  1  0
  9 10  1  0
 10 11  2  0
  8  9  1  0
 12 13  2  0
 13 14  1  0
 14 15  2  0
 10 12  1  0
 11 15  1  0
 16 17  2  0
 16 14  1  0
 18 19  2  0
 19 20  1  0
 20 21  2  0
 17 21  1  0
 16 18  1  0
 22 23  2  0
 23 24  1  0
 20 24  1  0
 25 26  1  0
 23 26  1  0
 27 28  2  0
 25 28  1  0
 29 30  2  0
 30 31  1  0
 31 32  2  0
 27 32  1  0
 28 29  1  0
  1 33  1  0
  1 34  1  0
  3 35  1  0
  3 36  1  0
  4 37  1  0
  4 38  1  0
  6 39  1  0
  6 40  1  0
  7 41  1  0
  7 42  1  0
  8 43  1  0
  8 44  1  0
 11 45  1  0
 12 46  1  0
 13 47  1  0
 15 48  1  0
 17 49  1  0
 18 50  1  0
 21 51  1  0
 24 52  1  0
 24 53  1  0
 25 54  1  0
 25 55  1  0
 26 56  1  0
 27 57  1  0
 29 58  1  0
 30 59  1  0
 31 60  1  0
 32 61  1  0
M  END
> <Uni-Dock RESULT> 
ENERGY=   -4.877  LOWER_BOUND=    3.170  UPPER_BOUND=    3.671
INTER + INTRA:          -4.877
INTER:                  -4.877
INTRA:                   0.000
UNBOUND:                 0.000

$$$$

     RDKit          3D

 61 64  0  0  0  0  0  0  0  0999 V2000
   53.7316   16.8313   15.6260 C   0  0  0  0  0  0  0  0  0  0  0  0
   53.4065   17.7038   14.5352 O   0  0  0  0  0  0  0  0  0  0  0  0
   54.2125   17.4691   13.3702 C   0  0  0  0  0  0  0  0  0  0  0  0
   54.6999   16.0146   13.2656 C   0  0  0  0  0  0  0  0  0  0  0  0
   55.5952   15.6507   14.3901 N   0  0  0  0  0  0  0  0  0  0  0  0
   55.2033   16.3790   15.6187 C   0  0  0  0  0  0  0  0  0  0  0  0
   55.6420   14.1896   14.6085 C   0  0  0  0  0  0  0  0  0  0  0  0
   56.1706   13.3778   13.4063 C   0  0  0  0  0  0  0  0  0  0  0  0
   55.1724   13.1590   12.4060 O   0  0  0  0  0  0  0  0  0  0  0  0
   54.2546   12.1654   12.5924 C   0  0  0  0  0  0  0  0  0  0  0  0
   54.2347   11.2365   13.6292 C   0  0  0  0  0  0  0  0  0  0  0  0
   53.2532   12.1131   11.6220 C   0  0  0  0  0  0  0  0  0  0  0  0
   52.2377   11.1525   11.6888 C   0  0  0  0  0  0  0  0  0  0  0  0
   52.1999   10.2088   12.7272 C   0  0  0  0  0  0  0  0  0  0  0  0
   53.2199   10.2704   13.6927 C   0  0  0  0  0  0  0  0  0  0  0  0
   51.1346    9.1938   12.8007 C   0  0  0  0  0  0  0  0  0  0  0  0
   50.7005    8.4880   11.6731 C   0  0  0  0  0  0  0  0  0  0  0  0
   50.4926    8.8749   13.9981 C   0  0  0  0  0  0  0  0  0  0  0  0
   49.5127    7.9464   14.1393 N   0  0  0  0  0  0  0  0  0  0  0  0
   49.1049    7.2988   13.0214 C   0  0  0  0  0  0  0  0  0  0  0  0
   49.6844    7.5370   11.7783 C   0  0  0  0  0  0  0  0  0  0  0  0
   46.5834    7.4407   11.6556 O   0  0  0  0  0  0  0  0  0  0  0  0
   46.7756    6.4798   12.3926 C   0  0  0  0  0  0  0  0  0  0  0  0
   48.0418    6.2469   13.1953 C   0  0  0  0  0  0  0  0  0  0  0  0
   44.6258    5.4246   11.7892 C   0  0  0  0  0  0  0  0  0  0  0  0
   45.8437    5.4729   12.5661 N   0  0  0  0  0  0  0  0  0  0  0  0
   44.4367    3.1793   10.6313 C   0  0  0  0  0  0  0  0  0  0  0  0
   44.7973    4.5348   10.5834 C   0  0  0  0  0  0  0  0  0  0  0  0
   45.3594    5.0476    9.4032 C   0  0  0  0  0  0  0  0  0  0  0  0
   45.5414    4.2270    8.2888 C   0  0  0  0  0  0  0  0  0  0  0  0
   45.1686    2.8843    8.3442 C   0  0  0  0  0  0  0  0  0  0  0  0
   44.6191    2.3600    9.5147 C   0  0  0  0  0  0  0  0  0  0  0  0
   53.5086   17.3707   16.5529 H   0  0  0  0  0  0  0  0  0  0  0  0
   53.0576   15.9666   15.5838 H   0  0  0  0  0  0  0  0  0  0  0  0
   53.6047   17.7270   12.4952 H   0  0  0  0  0  0  0  0  0  0  0  0
   55.0606   18.1643   13.3937 H   0  0  0  0  0  0  0  0  0  0  0  0
   53.8135   15.3658   13.2551 H   0  0  0  0  0  0  0  0  0  0  0  0
   55.2371   15.8831   12.3196 H   0  0  0  0  0  0  0  0  0  0  0  0
   55.8376   17.2738   15.6707 H   0  0  0  0  0  0  0  0  0  0  0  0
   55.4220   15.7981   16.5227 H   0  0  0  0  0  0  0  0  0  0  0  0
   56.3380   14.0033   15.4366 H   0  0  0  0  0  0  0  0  0  0  0  0
   54.6559   13.8251   14.9194 H   0  0  0  0  0  0  0  0  0  0  0  0
   56.9866   13.9309   12.9256 H   0  0  0  0  0  0  0  0  0  0  0  0
   56.6210   12.4317   13.7288 H   0  0  0  0  0  0  0  0  0  0  0  0
   54.9886   11.2256   14.4099 H   0  0  0  0  0  0  0  0  0  0  0  0
   53.2547   12.8331   10.8075 H   0  0  0  0  0  0  0  0  0  0  0  0
   51.4649   11.1622   10.9217 H   0  0  0  0  0  0  0  0  0  0  0  0
   53.2463    9.5501   14.5093 H   0  0  0  0  0  0  0  0  0  0  0  0
   51.1523    8.6659   10.7002 H   0  0  0  0  0  0  0  0  0  0  0  0
   50.7504    9.3832   14.9241 H   0  0  0  0  0  0  0  0  0  0  0  0
   49.3483    7.0021   10.8950 H   0  0  0  0  0  0  0  0  0  0  0  0
   48.4642    5.2754   12.9118 H   0  0  0  0  0  0  0  0  0  0  0  0
   47.7579    6.1876   14.2537 H   0  0  0  0  0  0  0  0  0  0  0  0
   43.8385    5.0333   12.4437 H   0  0  0  0  0  0  0  0  0  0  0  0
   44.3204    6.4319   11.4815 H   0  0  0  0  0  0  0  0  0  0  0  0
   46.1240    4.6240   13.0377 H   0  0  0  0  0  0  0  0  0  0  0  0
   44.0072    2.7540   11.5368 H   0  0  0  0  0  0  0  0  0  0  0  0
   45.6595    6.0944    9.3532 H   0  0  0  0  0  0  0  0  0  0  0  0
   45.9743    4.6371    7.3787 H   0  0  0  0  0  0  0  0  0  0  0  0
   45.3066    2.2466    7.4749 H   0  0  0  0  0  0  0  0  0  0  0  0
   44.3310    1.3116    9.5566 H   0  0  0  0  0  0  0  0  0  0  0  0
  1  2  1  0
  2  3  1  0
  3  4  1  0
  4  5  1  0
  5  6  1  0
  1  6  1  0
  7  8  1  0
  5  7  1  0
  9 10  1  0
 10 11  2  0
  8  9  1  0
 12 13  2  0
 13 14  1  0
 14 15  2  0
 10 12  1  0
 11 15  1  0
 16 17  2  0
 16 14  1  0
 18 19  2  0
 19 20  1  0
 20 21  2  0
 17 21  1  0
 16 18  1  0
 22 23  2  0
 23 24  1  0
 20 24  1  0
 25 26  1  0
 23 26  1  0
 27 28  2  0
 25 28  1  0
 29 30  2  0
 30 31  1  0
 31 32  2  0
 27 32  1  0
 28 29  1  0
  1 33  1  0
  1 34  1  0
  3 35  1  0
  3 36  1  0
  4 37  1  0
  4 38  1  0
  6 39  1  0
  6 40  1  0
  7 41  1  0
  7 42  1  0
  8 43  1  0
  8 44  1  0
 11 45  1  0
 12 46  1  0
 13 47  1  0
 15 48  1  0
 17 49  1  0
 18 50  1  0
 21 51  1  0
 24 52  1  0
 24 53  1  0
 25 54  1  0
 25 55  1  0
 26 56  1  0
 27 57  1  0
 29 58  1  0
 30 59  1  0
 31 60  1  0
 32 61  1  0
M  END
> <Uni-Dock RESULT> 
ENERGY=   -4.749  LOWER_BOUND=    4.507  UPPER_BOUND=    5.202
INTER + INTRA:          -4.749
INTER:                  -4.749
INTRA:                   0.000
UNBOUND:                 0.000

$$$$
