
     RDKit          3D

 61 64  0  0  0  0  0  0  0  0999 V2000
   55.6314    7.1184   16.1723 C   0  0  0  0  0  0  0  0  0  0  0  0
   56.5097    7.1719   17.3052 O   0  0  0  0  0  0  0  0  0  0  0  0
   55.8523    6.8630   18.5383 C   0  0  0  0  0  0  0  0  0  0  0  0
   54.5616    6.0457   18.3528 C   0  0  0  0  0  0  0  0  0  0  0  0
   53.5518    6.7974   17.5770 N   0  0  0  0  0  0  0  0  0  0  0  0
   54.1990    7.5792   16.5012 C   0  0  0  0  0  0  0  0  0  0  0  0
   52.4788    5.9071   17.0974 C   0  0  0  0  0  0  0  0  0  0  0  0
   51.1938    6.6525   16.6802 C   0  0  0  0  0  0  0  0  0  0  0  0
   51.2834    7.0559   15.3124 O   0  0  0  0  0  0  0  0  0  0  0  0
   50.2021    7.6992   14.7783 C   0  0  0  0  0  0  0  0  0  0  0  0
   49.0383    8.0525   15.4568 C   0  0  0  0  0  0  0  0  0  0  0  0
   50.3194    8.0137   13.4241 C   0  0  0  0  0  0  0  0  0  0  0  0
   49.2851    8.6714   12.7503 C   0  0  0  0  0  0  0  0  0  0  0  0
   48.1054    9.0276   13.4182 C   0  0  0  0  0  0  0  0  0  0  0  0
   47.9996    8.7078   14.7810 C   0  0  0  0  0  0  0  0  0  0  0  0
   47.0128    9.7081   12.7140 C   0  0  0  0  0  0  0  0  0  0  0  0
   45.7241    9.1665   12.6565 C   0  0  0  0  0  0  0  0  0  0  0  0
   47.1995   10.9253   12.0595 C   0  0  0  0  0  0  0  0  0  0  0  0
   46.2349   11.6024   11.3856 N   0  0  0  0  0  0  0  0  0  0  0  0
   44.9996   11.0456   11.3470 C   0  0  0  0  0  0  0  0  0  0  0  0
   44.7100    9.8329   11.9671 C   0  0  0  0  0  0  0  0  0  0  0  0
   43.0550   10.1327    9.0767 O   0  0  0  0  0  0  0  0  0  0  0  0
   43.7104   11.1641    9.2198 C   0  0  0  0  0  0  0  0  0  0  0  0
   43.9402   11.7868   10.5804 C   0  0  0  0  0  0  0  0  0  0  0  0
   44.1545   11.3745    6.8082 C   0  0  0  0  0  0  0  0  0  0  0  0
   44.2980   11.8356    8.1678 N   0  0  0  0  0  0  0  0  0  0  0  0
   44.4762   13.1592    5.0464 C   0  0  0  0  0  0  0  0  0  0  0  0
   45.0272   12.1702    5.8747 C   0  0  0  0  0  0  0  0  0  0  0  0
   46.4142   11.9530    5.8451 C   0  0  0  0  0  0  0  0  0  0  0  0
   47.2304   12.6977    4.9923 C   0  0  0  0  0  0  0  0  0  0  0  0
   46.6717   13.6726    4.1664 C   0  0  0  0  0  0  0  0  0  0  0  0
   45.2963   13.9055    4.1958 C   0  0  0  0  0  0  0  0  0  0  0  0
   56.0598    7.7611   15.3990 H   0  0  0  0  0  0  0  0  0  0  0  0
   55.6316    6.0930   15.7814 H   0  0  0  0  0  0  0  0  0  0  0  0
   55.6329    7.8050   19.0516 H   0  0  0  0  0  0  0  0  0  0  0  0
   56.5650    6.3103   19.1608 H   0  0  0  0  0  0  0  0  0  0  0  0
   54.8053    5.1001   17.8478 H   0  0  0  0  0  0  0  0  0  0  0  0
   54.1475    5.8039   19.3391 H   0  0  0  0  0  0  0  0  0  0  0  0
   53.6158    7.5952   15.5800 H   0  0  0  0  0  0  0  0  0  0  0  0
   54.2487    8.6170   16.8565 H   0  0  0  0  0  0  0  0  0  0  0  0
   52.8391    5.2690   16.2809 H   0  0  0  0  0  0  0  0  0  0  0  0
   52.1917    5.2515   17.9291 H   0  0  0  0  0  0  0  0  0  0  0  0
   50.3532    5.9564   16.7908 H   0  0  0  0  0  0  0  0  0  0  0  0
   51.0346    7.5186   17.3344 H   0  0  0  0  0  0  0  0  0  0  0  0
   48.9036    7.8412   16.5122 H   0  0  0  0  0  0  0  0  0  0  0  0
   51.2235    7.7410   12.8861 H   0  0  0  0  0  0  0  0  0  0  0  0
   49.4042    8.8891   11.6912 H   0  0  0  0  0  0  0  0  0  0  0  0
   47.1041    8.9794   15.3375 H   0  0  0  0  0  0  0  0  0  0  0  0
   45.5066    8.2120   13.1312 H   0  0  0  0  0  0  0  0  0  0  0  0
   48.1696   11.4181   12.0630 H   0  0  0  0  0  0  0  0  0  0  0  0
   43.7141    9.4009   11.9054 H   0  0  0  0  0  0  0  0  0  0  0  0
   44.2225   12.8422   10.4734 H   0  0  0  0  0  0  0  0  0  0  0  0
   42.9921   11.7793   11.1325 H   0  0  0  0  0  0  0  0  0  0  0  0
   44.4123   10.3079    6.7567 H   0  0  0  0  0  0  0  0  0  0  0  0
   43.0958   11.4602    6.5313 H   0  0  0  0  0  0  0  0  0  0  0  0
   44.8076   12.7015    8.3333 H   0  0  0  0  0  0  0  0  0  0  0  0
   43.4020   13.3502    5.0564 H   0  0  0  0  0  0  0  0  0  0  0  0
   46.8673   11.1976    6.4875 H   0  0  0  0  0  0  0  0  0  0  0  0
   48.3008   12.5126    4.9761 H   0  0  0  0  0  0  0  0  0  0  0  0
   47.3084   14.2515    3.5011 H   0  0  0  0  0  0  0  0  0  0  0  0
   44.8601   14.6682    3.5547 H   0  0  0  0  0  0  0  0  0  0  0  0
  1  2  1  0
  2  3  1  0
  3  4  1  0
  4  5  1  0
  5  6  1  0
  1  6  1  0
  7  8  1  0
  5  7  1  0
  9 10  1  0
 10 11  2  0
  8  9  1  0
 12 13  2  0
 13 14  1  0
 14 15  2  0
 10 12  1  0
 11 15  1  0
 16 17  2  0
 16 14  1  0
 18 19  2  0
 19 20  1  0
 20 21  2  0
 17 21  1  0
 16 18  1  0
 22 23  2  0
 23 24  1  0
 20 24  1  0
 25 26  1  0
 23 26  1  0
 27 28  2  0
 25 28  1  0
 29 30  2  0
 30 31  1  0
 31 32  2  0
 27 32  1  0
 28 29  1  0
  1 33  1  0
  1 34  1  0
  3 35  1  0
  3 36  1  0
  4 37  1  0
  4 38  1  0
  6 39  1  0
  6 40  1  0
  7 41  1  0
  7 42  1  0
  8 43  1  0
  8 44  1  0
 11 45  1  0
 12 46  1  0
 13 47  1  0
 15 48  1  0
 17 49  1  0
 18 50  1  0
 21 51  1  0
 24 52  1  0
 24 53  1  0
 25 54  1  0
 25 55  1  0
 26 56  1  0
 27 57  1  0
 29 58  1  0
 30 59  1  0
 31 60  1  0
 32 61  1  0
M  END
> <Uni-Dock RESULT> 
ENERGY=   -4.300  LOWER_BOUND=    0.000  UPPER_BOUND=    0.000
INTER + INTRA:          -4.300
INTER:                  -4.300
INTRA:                   0.000
UNBOUND:                 0.000

$$$$

     RDKit          3D

 61 64  0  0  0  0  0  0  0  0999 V2000
   53.1275    6.1286   18.1899 C   0  0  0  0  0  0  0  0  0  0  0  0
   54.0533    5.0477   18.3689 O   0  0  0  0  0  0  0  0  0  0  0  0
   54.8766    4.8197   17.2207 C   0  0  0  0  0  0  0  0  0  0  0  0
   54.9881    6.0460   16.2976 C   0  0  0  0  0  0  0  0  0  0  0  0
   53.6727    6.4229   15.7370 N   0  0  0  0  0  0  0  0  0  0  0  0
   52.6060    6.2390   16.7449 C   0  0  0  0  0  0  0  0  0  0  0  0
   53.7105    7.7776   15.1563 C   0  0  0  0  0  0  0  0  0  0  0  0
   52.5509    8.0673   14.1804 C   0  0  0  0  0  0  0  0  0  0  0  0
   51.4160    8.5550   14.8987 O   0  0  0  0  0  0  0  0  0  0  0  0
   50.3123    8.8950   14.1675 C   0  0  0  0  0  0  0  0  0  0  0  0
   50.1652    8.7579   12.7894 C   0  0  0  0  0  0  0  0  0  0  0  0
   49.2579    9.4236   14.9126 C   0  0  0  0  0  0  0  0  0  0  0  0
   48.0681    9.8156   14.2903 C   0  0  0  0  0  0  0  0  0  0  0  0
   47.9078    9.6895   12.9036 C   0  0  0  0  0  0  0  0  0  0  0  0
   48.9748    9.1546   12.1646 C   0  0  0  0  0  0  0  0  0  0  0  0
   46.6661   10.1089   12.2439 C   0  0  0  0  0  0  0  0  0  0  0  0
   46.6610   11.0704   11.2276 C   0  0  0  0  0  0  0  0  0  0  0  0
   45.4255    9.5787   12.5969 C   0  0  0  0  0  0  0  0  0  0  0  0
   44.2411    9.9273   12.0322 N   0  0  0  0  0  0  0  0  0  0  0  0
   44.2738   10.8651   11.0540 C   0  0  0  0  0  0  0  0  0  0  0  0
   45.4607   11.4568   10.6295 C   0  0  0  0  0  0  0  0  0  0  0  0
   42.9473   13.6628   10.6268 O   0  0  0  0  0  0  0  0  0  0  0  0
   42.4778   12.5892   11.0023 C   0  0  0  0  0  0  0  0  0  0  0  0
   42.9580   11.2651   10.4475 C   0  0  0  0  0  0  0  0  0  0  0  0
   40.9173   13.6683   12.5700 C   0  0  0  0  0  0  0  0  0  0  0  0
   41.4892   12.4928   11.9595 N   0  0  0  0  0  0  0  0  0  0  0  0
   38.6018   13.3409   13.5312 C   0  0  0  0  0  0  0  0  0  0  0  0
   39.9938   13.2940   13.6984 C   0  0  0  0  0  0  0  0  0  0  0  0
   40.5174   12.8608   14.9272 C   0  0  0  0  0  0  0  0  0  0  0  0
   39.6662   12.4985   15.9723 C   0  0  0  0  0  0  0  0  0  0  0  0
   38.2837   12.5570   15.7990 C   0  0  0  0  0  0  0  0  0  0  0  0
   37.7520   12.9745   14.5785 C   0  0  0  0  0  0  0  0  0  0  0  0
   52.2923    5.9572   18.8739 H   0  0  0  0  0  0  0  0  0  0  0  0
   53.6175    7.0601   18.5004 H   0  0  0  0  0  0  0  0  0  0  0  0
   54.4633    3.9683   16.6700 H   0  0  0  0  0  0  0  0  0  0  0  0
   55.8685    4.5249   17.5811 H   0  0  0  0  0  0  0  0  0  0  0  0
   55.4160    6.8846   16.8653 H   0  0  0  0  0  0  0  0  0  0  0  0
   55.6738    5.8118   15.4743 H   0  0  0  0  0  0  0  0  0  0  0  0
   51.8467    7.0207   16.7051 H   0  0  0  0  0  0  0  0  0  0  0  0
   52.0982    5.2985   16.4937 H   0  0  0  0  0  0  0  0  0  0  0  0
   53.7513    8.5380   15.9461 H   0  0  0  0  0  0  0  0  0  0  0  0
   54.6312    7.8626   14.5657 H   0  0  0  0  0  0  0  0  0  0  0  0
   52.8885    8.8424   13.4813 H   0  0  0  0  0  0  0  0  0  0  0  0
   52.2985    7.1591   13.6192 H   0  0  0  0  0  0  0  0  0  0  0  0
   50.9507    8.3415   12.1679 H   0  0  0  0  0  0  0  0  0  0  0  0
   49.3639    9.5353   15.9885 H   0  0  0  0  0  0  0  0  0  0  0  0
   47.2714   10.2365   14.8996 H   0  0  0  0  0  0  0  0  0  0  0  0
   48.8837    9.0290   11.0869 H   0  0  0  0  0  0  0  0  0  0  0  0
   47.5895   11.5395   10.9091 H   0  0  0  0  0  0  0  0  0  0  0  0
   45.3428    8.8199   13.3725 H   0  0  0  0  0  0  0  0  0  0  0  0
   45.4555   12.2192    9.8543 H   0  0  0  0  0  0  0  0  0  0  0  0
   42.2085   10.4832   10.6258 H   0  0  0  0  0  0  0  0  0  0  0  0
   43.0505   11.3560    9.3579 H   0  0  0  0  0  0  0  0  0  0  0  0
   41.7244   14.3175   12.9358 H   0  0  0  0  0  0  0  0  0  0  0  0
   40.3849   14.2297   11.7912 H   0  0  0  0  0  0  0  0  0  0  0  0
   41.1126   11.5825   12.2172 H   0  0  0  0  0  0  0  0  0  0  0  0
   38.1716   13.6685   12.5835 H   0  0  0  0  0  0  0  0  0  0  0  0
   41.5958   12.8053   15.0777 H   0  0  0  0  0  0  0  0  0  0  0  0
   40.0871   12.1722   16.9192 H   0  0  0  0  0  0  0  0  0  0  0  0
   37.6212   12.2757   16.6145 H   0  0  0  0  0  0  0  0  0  0  0  0
   36.6738   13.0170   14.4411 H   0  0  0  0  0  0  0  0  0  0  0  0
  1  2  1  0
  2  3  1  0
  3  4  1  0
  4  5  1  0
  5  6  1  0
  1  6  1  0
  7  8  1  0
  5  7  1  0
  9 10  1  0
 10 11  2  0
  8  9  1  0
 12 13  2  0
 13 14  1  0
 14 15  2  0
 10 12  1  0
 11 15  1  0
 16 17  2  0
 16 14  1  0
 18 19  2  0
 19 20  1  0
 20 21  2  0
 17 21  1  0
 16 18  1  0
 22 23  2  0
 23 24  1  0
 20 24  1  0
 25 26  1  0
 23 26  1  0
 27 28  2  0
 25 28  1  0
 29 30  2  0
 30 31  1  0
 31 32  2  0
 27 32  1  0
 28 29  1  0
  1 33  1  0
  1 34  1  0
  3 35  1  0
  3 36  1  0
  4 37  1  0
  4 38  1  0
  6 39  1  0
  6 40  1  0
  7 41  1  0
  7 42  1  0
  8 43  1  0
  8 44  1  0
 11 45  1  0
 12 46  1  0
 13 47  1  0
 15 48  1  0
 17 49  1  0
 18 50  1  0
 21 51  1  0
 24 52  1  0
 24 53  1  0
 25 54  1  0
 25 55  1  0
 26 56  1  0
 27 57  1  0
 29 58  1  0
 30 59  1  0
 31 60  1  0
 32 61  1  0
M  END
> <Uni-Dock RESULT> 
ENERGY=   -4.269  LOWER_BOUND=    3.400  UPPER_BOUND=    5.798
INTER + INTRA:          -4.269
INTER:                  -4.269
INTRA:                   0.000
UNBOUND:                 0.000

$$$$

     RDKit          3D

 61 64  0  0  0  0  0  0  0  0999 V2000
   50.5206   16.6346   21.9444 C   0  0  0  0  0  0  0  0  0  0  0  0
   50.4917   17.5799   23.0230 O   0  0  0  0  0  0  0  0  0  0  0  0
   51.1082   17.0863   24.2165 C   0  0  0  0  0  0  0  0  0  0  0  0
   52.1047   15.9422   23.9595 C   0  0  0  0  0  0  0  0  0  0  0  0
   51.4333   14.7601   23.3776 N   0  0  0  0  0  0  0  0  0  0  0  0
   50.3850   15.1762   22.4208 C   0  0  0  0  0  0  0  0  0  0  0  0
   52.4142   13.8184   22.8075 C   0  0  0  0  0  0  0  0  0  0  0  0
   51.8561   12.3961   22.5914 C   0  0  0  0  0  0  0  0  0  0  0  0
   51.2290   12.3051   21.3107 O   0  0  0  0  0  0  0  0  0  0  0  0
   50.7144   11.0907   20.9517 C   0  0  0  0  0  0  0  0  0  0  0  0
   50.6908    9.9426   21.7397 C   0  0  0  0  0  0  0  0  0  0  0  0
   50.1708   11.0430   19.6677 C   0  0  0  0  0  0  0  0  0  0  0  0
   49.6113    9.8611   19.1711 C   0  0  0  0  0  0  0  0  0  0  0  0
   49.5861    8.6961   19.9501 C   0  0  0  0  0  0  0  0  0  0  0  0
   50.1343    8.7567   21.2410 C   0  0  0  0  0  0  0  0  0  0  0  0
   49.0102    7.4506   19.4306 C   0  0  0  0  0  0  0  0  0  0  0  0
   49.7594    6.2720   19.3469 C   0  0  0  0  0  0  0  0  0  0  0  0
   47.6903    7.3745   18.9868 C   0  0  0  0  0  0  0  0  0  0  0  0
   47.0995    6.2578   18.4901 N   0  0  0  0  0  0  0  0  0  0  0  0
   47.8568    5.1358   18.4195 C   0  0  0  0  0  0  0  0  0  0  0  0
   49.1854    5.1072   18.8355 C   0  0  0  0  0  0  0  0  0  0  0  0
   48.7298    3.1969   16.1287 O   0  0  0  0  0  0  0  0  0  0  0  0
   47.6335    3.6773   16.4136 C   0  0  0  0  0  0  0  0  0  0  0  0
   47.2060    3.9076   17.8474 C   0  0  0  0  0  0  0  0  0  0  0  0
   46.9621    3.8827   14.0547 C   0  0  0  0  0  0  0  0  0  0  0  0
   46.7069    4.0555   15.4642 N   0  0  0  0  0  0  0  0  0  0  0  0
   44.8894    3.7535   12.6125 C   0  0  0  0  0  0  0  0  0  0  0  0
   45.8824    4.5295   13.2286 C   0  0  0  0  0  0  0  0  0  0  0  0
   45.8377    5.9262   13.0909 C   0  0  0  0  0  0  0  0  0  0  0  0
   44.8307    6.5325   12.3384 C   0  0  0  0  0  0  0  0  0  0  0  0
   43.8532    5.7517   11.7225 C   0  0  0  0  0  0  0  0  0  0  0  0
   43.8804    4.3637   11.8622 C   0  0  0  0  0  0  0  0  0  0  0  0
   49.6954   16.8838   21.2724 H   0  0  0  0  0  0  0  0  0  0  0  0
   51.4527   16.7770   21.3832 H   0  0  0  0  0  0  0  0  0  0  0  0
   50.3161   16.7526   24.8949 H   0  0  0  0  0  0  0  0  0  0  0  0
   51.6155   17.9304   24.6972 H   0  0  0  0  0  0  0  0  0  0  0  0
   52.8972   16.3010   23.2873 H   0  0  0  0  0  0  0  0  0  0  0  0
   52.5725   15.6562   24.9094 H   0  0  0  0  0  0  0  0  0  0  0  0
   50.3271   14.5261   21.5472 H   0  0  0  0  0  0  0  0  0  0  0  0
   49.4261   15.0778   22.9465 H   0  0  0  0  0  0  0  0  0  0  0  0
   52.8372   14.2144   21.8759 H   0  0  0  0  0  0  0  0  0  0  0  0
   53.2356   13.7148   23.5275 H   0  0  0  0  0  0  0  0  0  0  0  0
   52.7012   11.6974   22.6234 H   0  0  0  0  0  0  0  0  0  0  0  0
   51.1494   12.1458   23.3923 H   0  0  0  0  0  0  0  0  0  0  0  0
   51.0896    9.9316   22.7484 H   0  0  0  0  0  0  0  0  0  0  0  0
   50.1856   11.9338   19.0451 H   0  0  0  0  0  0  0  0  0  0  0  0
   49.2086    9.8554   18.1607 H   0  0  0  0  0  0  0  0  0  0  0  0
   50.1219    7.8761   21.8812 H   0  0  0  0  0  0  0  0  0  0  0  0
   50.8011    6.2586   19.6606 H   0  0  0  0  0  0  0  0  0  0  0  0
   47.0374    8.2441   19.0255 H   0  0  0  0  0  0  0  0  0  0  0  0
   49.7747    4.1973   18.7515 H   0  0  0  0  0  0  0  0  0  0  0  0
   46.1137    3.9972   17.9095 H   0  0  0  0  0  0  0  0  0  0  0  0
   47.4733    3.0223   18.4379 H   0  0  0  0  0  0  0  0  0  0  0  0
   47.9422    4.3127   13.8071 H   0  0  0  0  0  0  0  0  0  0  0  0
   47.0258    2.8059   13.8513 H   0  0  0  0  0  0  0  0  0  0  0  0
   45.8011    4.4226   15.7500 H   0  0  0  0  0  0  0  0  0  0  0  0
   44.8998    2.6669   12.7103 H   0  0  0  0  0  0  0  0  0  0  0  0
   46.5919    6.5513   13.5695 H   0  0  0  0  0  0  0  0  0  0  0  0
   44.8143    7.6140   12.2357 H   0  0  0  0  0  0  0  0  0  0  0  0
   43.0696    6.2251   11.1352 H   0  0  0  0  0  0  0  0  0  0  0  0
   43.1163    3.7541   11.3852 H   0  0  0  0  0  0  0  0  0  0  0  0
  1  2  1  0
  2  3  1  0
  3  4  1  0
  4  5  1  0
  5  6  1  0
  1  6  1  0
  7  8  1  0
  5  7  1  0
  9 10  1  0
 10 11  2  0
  8  9  1  0
 12 13  2  0
 13 14  1  0
 14 15  2  0
 10 12  1  0
 11 15  1  0
 16 17  2  0
 16 14  1  0
 18 19  2  0
 19 20  1  0
 20 21  2  0
 17 21  1  0
 16 18  1  0
 22 23  2  0
 23 24  1  0
 20 24  1  0
 25 26  1  0
 23 26  1  0
 27 28  2  0
 25 28  1  0
 29 30  2  0
 30 31  1  0
 31 32  2  0
 27 32  1  0
 28 29  1  0
  1 33  1  0
  1 34  1  0
  3 35  1  0
  3 36  1  0
  4 37  1  0
  4 38  1  0
  6 39  1  0
  6 40  1  0
  7 41  1  0
  7 42  1  0
  8 43  1  0
  8 44  1  0
 11 45  1  0
 12 46  1  0
 13 47  1  0
 15 48  1  0
 17 49  1  0
 18 50  1  0
 21 51  1  0
 24 52  1  0
 24 53  1  0
 25 54  1  0
 25 55  1  0
 26 56  1  0
 27 57  1  0
 29 58  1  0
 30 59  1  0
 31 60  1  0
 32 61  1  0
M  END
> <Uni-Dock RESULT> 
ENERGY=   -4.239  LOWER_BOUND=    6.886  UPPER_BOUND=    9.879
INTER + INTRA:          -4.239
INTER:                  -4.239
INTRA:                   0.000
UNBOUND:                 0.000

$$$$

     RDKit          3D

 61 64  0  0  0  0  0  0  0  0999 V2000
   50.8139   12.1124    6.7937 C   0  0  0  0  0  0  0  0  0  0  0  0
   50.9593   13.2358    5.9136 O   0  0  0  0  0  0  0  0  0  0  0  0
   51.7775   12.9521    4.7742 C   0  0  0  0  0  0  0  0  0  0  0  0
   51.8711   11.4507    4.4498 C   0  0  0  0  0  0  0  0  0  0  0  0
   52.5046   10.6970    5.5531 N   0  0  0  0  0  0  0  0  0  0  0  0
   52.0789   11.2366    6.8628 C   0  0  0  0  0  0  0  0  0  0  0  0
   52.2751    9.2479    5.4077 C   0  0  0  0  0  0  0  0  0  0  0  0
   53.2468    8.3795    6.2340 C   0  0  0  0  0  0  0  0  0  0  0  0
   52.7333    8.1899    7.5539 O   0  0  0  0  0  0  0  0  0  0  0  0
   53.4646    7.4068    8.4026 C   0  0  0  0  0  0  0  0  0  0  0  0
   54.6962    6.8197    8.1232 C   0  0  0  0  0  0  0  0  0  0  0  0
   52.8859    7.2046    9.6558 C   0  0  0  0  0  0  0  0  0  0  0  0
   53.5264    6.4215   10.6217 C   0  0  0  0  0  0  0  0  0  0  0  0
   54.7631    5.8190   10.3528 C   0  0  0  0  0  0  0  0  0  0  0  0
   55.3366    6.0312    9.0892 C   0  0  0  0  0  0  0  0  0  0  0  0
   55.4346    4.9878   11.3583 C   0  0  0  0  0  0  0  0  0  0  0  0
   55.7719    3.6540   11.1044 C   0  0  0  0  0  0  0  0  0  0  0  0
   55.7669    5.4779   12.6209 C   0  0  0  0  0  0  0  0  0  0  0  0
   56.3812    4.7615   13.5968 N   0  0  0  0  0  0  0  0  0  0  0  0
   56.6890    3.4713   13.3172 C   0  0  0  0  0  0  0  0  0  0  0  0
   56.3986    2.8865   12.0873 C   0  0  0  0  0  0  0  0  0  0  0  0
   55.9826    0.7038   14.5865 O   0  0  0  0  0  0  0  0  0  0  0  0
   56.3568    1.7598   15.0952 C   0  0  0  0  0  0  0  0  0  0  0  0
   57.3481    2.6747   14.4083 C   0  0  0  0  0  0  0  0  0  0  0  0
   54.9709    1.4377   17.1034 C   0  0  0  0  0  0  0  0  0  0  0  0
   55.9059    2.2078   16.3195 N   0  0  0  0  0  0  0  0  0  0  0  0
   55.0076    1.9348   19.5822 C   0  0  0  0  0  0  0  0  0  0  0  0
   54.5041    2.2174   18.3037 C   0  0  0  0  0  0  0  0  0  0  0  0
   53.5789    3.2628   18.1524 C   0  0  0  0  0  0  0  0  0  0  0  0
   53.1535    3.9986   19.2594 C   0  0  0  0  0  0  0  0  0  0  0  0
   53.6533    3.7042   20.5275 C   0  0  0  0  0  0  0  0  0  0  0  0
   54.5820    2.6755   20.6883 C   0  0  0  0  0  0  0  0  0  0  0  0
   50.5801   12.5059    7.7863 H   0  0  0  0  0  0  0  0  0  0  0  0
   49.9486   11.5234    6.4642 H   0  0  0  0  0  0  0  0  0  0  0  0
   52.7755   13.3613    4.9624 H   0  0  0  0  0  0  0  0  0  0  0  0
   51.3558   13.4984    3.9230 H   0  0  0  0  0  0  0  0  0  0  0  0
   50.8616   11.0627    4.2522 H   0  0  0  0  0  0  0  0  0  0  0  0
   52.4670   11.3190    3.5385 H   0  0  0  0  0  0  0  0  0  0  0  0
   51.9261   10.4587    7.6116 H   0  0  0  0  0  0  0  0  0  0  0  0
   52.9056   11.8610    7.2265 H   0  0  0  0  0  0  0  0  0  0  0  0
   51.2338    8.9938    5.6417 H   0  0  0  0  0  0  0  0  0  0  0  0
   52.4530    8.9850    4.3574 H   0  0  0  0  0  0  0  0  0  0  0  0
   53.3249    7.4033    5.7398 H   0  0  0  0  0  0  0  0  0  0  0  0
   54.2372    8.8505    6.2629 H   0  0  0  0  0  0  0  0  0  0  0  0
   55.1930    6.9565    7.1686 H   0  0  0  0  0  0  0  0  0  0  0  0
   51.9244    7.6580    9.8825 H   0  0  0  0  0  0  0  0  0  0  0  0
   53.0405    6.2733   11.5835 H   0  0  0  0  0  0  0  0  0  0  0  0
   56.3023    5.5905    8.8470 H   0  0  0  0  0  0  0  0  0  0  0  0
   55.5305    3.1979   10.1466 H   0  0  0  0  0  0  0  0  0  0  0  0
   55.5467    6.5074   12.8959 H   0  0  0  0  0  0  0  0  0  0  0  0
   56.6415    1.8440   11.8962 H   0  0  0  0  0  0  0  0  0  0  0  0
   57.8127    3.3498   15.1386 H   0  0  0  0  0  0  0  0  0  0  0  0
   58.1615    2.0632   13.9980 H   0  0  0  0  0  0  0  0  0  0  0  0
   54.1155    1.1549   16.4749 H   0  0  0  0  0  0  0  0  0  0  0  0
   55.4674    0.5061   17.4041 H   0  0  0  0  0  0  0  0  0  0  0  0
   56.2665    3.0753   16.7121 H   0  0  0  0  0  0  0  0  0  0  0  0
   55.7319    1.1312   19.7237 H   0  0  0  0  0  0  0  0  0  0  0  0
   53.1817    3.5085   17.1673 H   0  0  0  0  0  0  0  0  0  0  0  0
   52.4317    4.7997   19.1265 H   0  0  0  0  0  0  0  0  0  0  0  0
   53.3201    4.2774   21.3897 H   0  0  0  0  0  0  0  0  0  0  0  0
   54.9753    2.4475   21.6765 H   0  0  0  0  0  0  0  0  0  0  0  0
  1  2  1  0
  2  3  1  0
  3  4  1  0
  4  5  1  0
  5  6  1  0
  1  6  1  0
  7  8  1  0
  5  7  1  0
  9 10  1  0
 10 11  2  0
  8  9  1  0
 12 13  2  0
 13 14  1  0
 14 15  2  0
 10 12  1  0
 11 15  1  0
 16 17  2  0
 16 14  1  0
 18 19  2  0
 19 20  1  0
 20 21  2  0
 17 21  1  0
 16 18  1  0
 22 23  2  0
 23 24  1  0
 20 24  1  0
 25 26  1  0
 23 26  1  0
 27 28  2  0
 25 28  1  0
 29 30  2  0
 30 31  1  0
 31 32  2  0
 27 32  1  0
 28 29  1  0
  1 33  1  0
  1 34  1  0
  3 35  1  0
  3 36  1  0
  4 37  1  0
  4 38  1  0
  6 39  1  0
  6 40  1  0
  7 41  1  0
  7 42  1  0
  8 43  1  0
  8 44  1  0
 11 45  1  0
 12 46  1  0
 13 47  1  0
 15 48  1  0
 17 49  1  0
 18 50  1  0
 21 51  1  0
 24 52  1  0
 24 53  1  0
 25 54  1  0
 25 55  1  0
 26 56  1  0
 27 57  1  0
 29 58  1  0
 30 59  1  0
 31 60  1  0
 32 61  1  0
M  END
> <Uni-Dock RESULT> 
ENERGY=   -4.215  LOWER_BOUND=    6.374  UPPER_BOUND=   14.106
INTER + INTRA:          -4.215
INTER:                  -4.215
INTRA:                   0.000
UNBOUND:                 0.000

$$$$

     RDKit          3D

 61 64  0  0  0  0  0  0  0  0999 V2000
   40.1446   12.4365   15.6501 C   0  0  0  0  0  0  0  0  0  0  0  0
   39.1131   13.1267   16.3693 O   0  0  0  0  0  0  0  0  0  0  0  0
   37.9922   13.4703   15.5485 C   0  0  0  0  0  0  0  0  0  0  0  0
   37.8744   12.6021   14.2833 C   0  0  0  0  0  0  0  0  0  0  0  0
   39.0452   12.7756   13.3969 N   0  0  0  0  0  0  0  0  0  0  0  0
   40.2838   12.9157   14.1930 C   0  0  0  0  0  0  0  0  0  0  0  0
   39.1101   11.7043   12.3859 C   0  0  0  0  0  0  0  0  0  0  0  0
   40.0092   12.0438   11.1786 C   0  0  0  0  0  0  0  0  0  0  0  0
   41.3618   11.6764   11.4562 O   0  0  0  0  0  0  0  0  0  0  0  0
   42.2808   11.8800   10.4651 C   0  0  0  0  0  0  0  0  0  0  0  0
   42.0366   12.4665    9.2258 C   0  0  0  0  0  0  0  0  0  0  0  0
   43.5718   11.4458   10.7670 C   0  0  0  0  0  0  0  0  0  0  0  0
   44.6104   11.5913    9.8414 C   0  0  0  0  0  0  0  0  0  0  0  0
   44.3785   12.1738    8.5878 C   0  0  0  0  0  0  0  0  0  0  0  0
   43.0760   12.6087    8.2960 C   0  0  0  0  0  0  0  0  0  0  0  0
   45.4616   12.3193    7.6088 C   0  0  0  0  0  0  0  0  0  0  0  0
   45.3809   11.7527    6.3322 C   0  0  0  0  0  0  0  0  0  0  0  0
   46.6305   13.0228    7.8980 C   0  0  0  0  0  0  0  0  0  0  0  0
   47.6708   13.1889    7.0417 N   0  0  0  0  0  0  0  0  0  0  0  0
   47.5598   12.6222    5.8153 C   0  0  0  0  0  0  0  0  0  0  0  0
   46.4347   11.8985    5.4288 C   0  0  0  0  0  0  0  0  0  0  0  0
   49.2254   10.5433    4.1803 O   0  0  0  0  0  0  0  0  0  0  0  0
   49.5684   11.5338    4.8246 C   0  0  0  0  0  0  0  0  0  0  0  0
   48.7233   12.7886    4.8784 C   0  0  0  0  0  0  0  0  0  0  0  0
   51.6551   10.4772    5.5907 C   0  0  0  0  0  0  0  0  0  0  0  0
   50.7361   11.5891    5.5569 N   0  0  0  0  0  0  0  0  0  0  0  0
   54.0382   11.0918    6.1698 C   0  0  0  0  0  0  0  0  0  0  0  0
   52.7539   10.7169    6.5914 C   0  0  0  0  0  0  0  0  0  0  0  0
   52.4966   10.5988    7.9668 C   0  0  0  0  0  0  0  0  0  0  0  0
   53.5075   10.8340    8.8999 C   0  0  0  0  0  0  0  0  0  0  0  0
   54.7834   11.1976    8.4702 C   0  0  0  0  0  0  0  0  0  0  0  0
   55.0477   11.3298    7.1067 C   0  0  0  0  0  0  0  0  0  0  0  0
   41.0819   12.6037   16.1870 H   0  0  0  0  0  0  0  0  0  0  0  0
   39.9340   11.3603   15.6888 H   0  0  0  0  0  0  0  0  0  0  0  0
   38.0826   14.5267   15.2750 H   0  0  0  0  0  0  0  0  0  0  0  0
   37.0912   13.3683   16.1637 H   0  0  0  0  0  0  0  0  0  0  0  0
   37.7722   11.5484   14.5796 H   0  0  0  0  0  0  0  0  0  0  0  0
   36.9672   12.8881   13.7375 H   0  0  0  0  0  0  0  0  0  0  0  0
   41.1381   12.4128   13.7388 H   0  0  0  0  0  0  0  0  0  0  0  0
   40.5250   13.9868   14.2087 H   0  0  0  0  0  0  0  0  0  0  0  0
   39.4178   10.7560   12.8436 H   0  0  0  0  0  0  0  0  0  0  0  0
   38.0999   11.5651   11.9810 H   0  0  0  0  0  0  0  0  0  0  0  0
   39.6515   11.4602   10.3214 H   0  0  0  0  0  0  0  0  0  0  0  0
   39.9338   13.1130   10.9449 H   0  0  0  0  0  0  0  0  0  0  0  0
   41.0534   12.8311    8.9480 H   0  0  0  0  0  0  0  0  0  0  0  0
   43.7716   10.9860   11.7314 H   0  0  0  0  0  0  0  0  0  0  0  0
   45.6019   11.2293   10.1043 H   0  0  0  0  0  0  0  0  0  0  0  0
   42.8590   13.0778    7.3377 H   0  0  0  0  0  0  0  0  0  0  0  0
   44.5054   11.1766    6.0401 H   0  0  0  0  0  0  0  0  0  0  0  0
   46.7695   13.5010    8.8655 H   0  0  0  0  0  0  0  0  0  0  0  0
   46.3797   11.4401    4.4444 H   0  0  0  0  0  0  0  0  0  0  0  0
   49.3347   13.6466    5.1868 H   0  0  0  0  0  0  0  0  0  0  0  0
   48.3695   13.0151    3.8648 H   0  0  0  0  0  0  0  0  0  0  0  0
   51.1058    9.5587    5.8387 H   0  0  0  0  0  0  0  0  0  0  0  0
   52.0614   10.3426    4.5799 H   0  0  0  0  0  0  0  0  0  0  0  0
   50.9909   12.4419    6.0515 H   0  0  0  0  0  0  0  0  0  0  0  0
   54.2604   11.1959    5.1067 H   0  0  0  0  0  0  0  0  0  0  0  0
   51.5035   10.3195    8.3194 H   0  0  0  0  0  0  0  0  0  0  0  0
   53.2941   10.7315    9.9602 H   0  0  0  0  0  0  0  0  0  0  0  0
   55.5709   11.3794    9.1982 H   0  0  0  0  0  0  0  0  0  0  0  0
   56.0415   11.6170    6.7707 H   0  0  0  0  0  0  0  0  0  0  0  0
  1  2  1  0
  2  3  1  0
  3  4  1  0
  4  5  1  0
  5  6  1  0
  1  6  1  0
  7  8  1  0
  5  7  1  0
  9 10  1  0
 10 11  2  0
  8  9  1  0
 12 13  2  0
 13 14  1  0
 14 15  2  0
 10 12  1  0
 11 15  1  0
 16 17  2  0
 16 14  1  0
 18 19  2  0
 19 20  1  0
 20 21  2  0
 17 21  1  0
 16 18  1  0
 22 23  2  0
 23 24  1  0
 20 24  1  0
 25 26  1  0
 23 26  1  0
 27 28  2  0
 25 28  1  0
 29 30  2  0
 30 31  1  0
 31 32  2  0
 27 32  1  0
 28 29  1  0
  1 33  1  0
  1 34  1  0
  3 35  1  0
  3 36  1  0
  4 37  1  0
  4 38  1  0
  6 39  1  0
  6 40  1  0
  7 41  1  0
  7 42  1  0
  8 43  1  0
  8 44  1  0
 11 45  1  0
 12 46  1  0
 13 47  1  0
 15 48  1  0
 17 49  1  0
 18 50  1  0
 21 51  1  0
 24 52  1  0
 24 53  1  0
 25 54  1  0
 25 55  1  0
 26 56  1  0
 27 57  1  0
 29 58  1  0
 30 59  1  0
 31 60  1  0
 32 61  1  0
M  END
> <Uni-Dock RESULT> 
ENERGY=   -4.001  LOWER_BOUND=    6.800  UPPER_BOUND=   10.836
INTER + INTRA:          -4.001
INTER:                  -4.001
INTRA:                   0.000
UNBOUND:                 0.000

$$$$

     RDKit          3D

 61 64  0  0  0  0  0  0  0  0999 V2000
   52.7444   18.1351    7.8571 C   0  0  0  0  0  0  0  0  0  0  0  0
   54.1622   18.2060    7.6507 O   0  0  0  0  0  0  0  0  0  0  0  0
   54.6273   17.3013    6.6440 C   0  0  0  0  0  0  0  0  0  0  0  0
   53.5270   16.8668    5.6597 C   0  0  0  0  0  0  0  0  0  0  0  0
   52.4471   16.1269    6.3473 N   0  0  0  0  0  0  0  0  0  0  0  0
   52.1827   16.7120    7.6797 C   0  0  0  0  0  0  0  0  0  0  0  0
   51.2468   16.0259    5.4970 C   0  0  0  0  0  0  0  0  0  0  0  0
   50.2650   14.9202    5.9379 C   0  0  0  0  0  0  0  0  0  0  0  0
   49.3600   15.4308    6.9187 O   0  0  0  0  0  0  0  0  0  0  0  0
   48.3982   14.5790    7.3854 C   0  0  0  0  0  0  0  0  0  0  0  0
   48.2493   13.2384    7.0388 C   0  0  0  0  0  0  0  0  0  0  0  0
   47.5044   15.1478    8.2931 C   0  0  0  0  0  0  0  0  0  0  0  0
   46.4688   14.3891    8.8485 C   0  0  0  0  0  0  0  0  0  0  0  0
   46.3026   13.0406    8.5043 C   0  0  0  0  0  0  0  0  0  0  0  0
   47.2091   12.4786    7.5916 C   0  0  0  0  0  0  0  0  0  0  0  0
   45.2117   12.2426    9.0755 C   0  0  0  0  0  0  0  0  0  0  0  0
   44.2610   11.6103    8.2671 C   0  0  0  0  0  0  0  0  0  0  0  0
   45.0591   12.0762   10.4516 C   0  0  0  0  0  0  0  0  0  0  0  0
   44.0708   11.3581   11.0437 N   0  0  0  0  0  0  0  0  0  0  0  0
   43.1648   10.7632   10.2296 C   0  0  0  0  0  0  0  0  0  0  0  0
   43.2278   10.8692    8.8426 C   0  0  0  0  0  0  0  0  0  0  0  0
   40.0584   10.8925    9.9091 O   0  0  0  0  0  0  0  0  0  0  0  0
   40.7687   10.7802   10.9075 C   0  0  0  0  0  0  0  0  0  0  0  0
   42.0588    9.9884   10.8898 C   0  0  0  0  0  0  0  0  0  0  0  0
   39.2592   12.1390   12.2975 C   0  0  0  0  0  0  0  0  0  0  0  0
   40.4645   11.3664   12.1185 N   0  0  0  0  0  0  0  0  0  0  0  0
   38.4578   12.3101   14.6894 C   0  0  0  0  0  0  0  0  0  0  0  0
   39.2463   12.8128   13.6437 C   0  0  0  0  0  0  0  0  0  0  0  0
   40.0517   13.9387   13.8793 C   0  0  0  0  0  0  0  0  0  0  0  0
   40.0550   14.5589   15.1296 C   0  0  0  0  0  0  0  0  0  0  0  0
   39.2609   14.0567   16.1601 C   0  0  0  0  0  0  0  0  0  0  0  0
   38.4657   12.9314   15.9413 C   0  0  0  0  0  0  0  0  0  0  0  0
   52.5463   18.4885    8.8723 H   0  0  0  0  0  0  0  0  0  0  0  0
   52.2579   18.8358    7.1669 H   0  0  0  0  0  0  0  0  0  0  0  0
   55.0538   16.4260    7.1449 H   0  0  0  0  0  0  0  0  0  0  0  0
   55.4422   17.7991    6.1064 H   0  0  0  0  0  0  0  0  0  0  0  0
   53.1213   17.7576    5.1592 H   0  0  0  0  0  0  0  0  0  0  0  0
   53.9699   16.2212    4.8917 H   0  0  0  0  0  0  0  0  0  0  0  0
   51.1228   16.7192    7.9361 H   0  0  0  0  0  0  0  0  0  0  0  0
   52.6757   16.0580    8.4110 H   0  0  0  0  0  0  0  0  0  0  0  0
   50.7352   16.9942    5.4301 H   0  0  0  0  0  0  0  0  0  0  0  0
   51.5751   15.7534    4.4862 H   0  0  0  0  0  0  0  0  0  0  0  0
   49.6931   14.6098    5.0547 H   0  0  0  0  0  0  0  0  0  0  0  0
   50.8218   14.0597    6.3290 H   0  0  0  0  0  0  0  0  0  0  0  0
   48.9252   12.7468    6.3472 H   0  0  0  0  0  0  0  0  0  0  0  0
   47.6122   16.1936    8.5688 H   0  0  0  0  0  0  0  0  0  0  0  0
   45.7817   14.8679    9.5425 H   0  0  0  0  0  0  0  0  0  0  0  0
   47.1206   11.4308    7.3092 H   0  0  0  0  0  0  0  0  0  0  0  0
   44.3069   11.7076    7.1844 H   0  0  0  0  0  0  0  0  0  0  0  0
   45.7606   12.5283   11.1499 H   0  0  0  0  0  0  0  0  0  0  0  0
   42.4775   10.3955    8.2142 H   0  0  0  0  0  0  0  0  0  0  0  0
   42.3506    9.7128   11.9115 H   0  0  0  0  0  0  0  0  0  0  0  0
   41.8822    9.0449   10.3583 H   0  0  0  0  0  0  0  0  0  0  0  0
   39.1834   12.8858   11.4955 H   0  0  0  0  0  0  0  0  0  0  0  0
   38.4027   11.4619   12.1846 H   0  0  0  0  0  0  0  0  0  0  0  0
   41.0698   11.2213   12.9244 H   0  0  0  0  0  0  0  0  0  0  0  0
   37.8285   11.4328   14.5321 H   0  0  0  0  0  0  0  0  0  0  0  0
   40.6815   14.3413   13.0856 H   0  0  0  0  0  0  0  0  0  0  0  0
   40.6783   15.4334   15.2936 H   0  0  0  0  0  0  0  0  0  0  0  0
   39.2632   14.5416   17.1338 H   0  0  0  0  0  0  0  0  0  0  0  0
   37.8487   12.5368   16.7455 H   0  0  0  0  0  0  0  0  0  0  0  0
  1  2  1  0
  2  3  1  0
  3  4  1  0
  4  5  1  0
  5  6  1  0
  1  6  1  0
  7  8  1  0
  5  7  1  0
  9 10  1  0
 10 11  2  0
  8  9  1  0
 12 13  2  0
 13 14  1  0
 14 15  2  0
 10 12  1  0
 11 15  1  0
 16 17  2  0
 16 14  1  0
 18 19  2  0
 19 20  1  0
 20 21  2  0
 17 21  1  0
 16 18  1  0
 22 23  2  0
 23 24  1  0
 20 24  1  0
 25 26  1  0
 23 26  1  0
 27 28  2  0
 25 28  1  0
 29 30  2  0
 30 31  1  0
 31 32  2  0
 27 32  1  0
 28 29  1  0
  1 33  1  0
  1 34  1  0
  3 35  1  0
  3 36  1  0
  4 37  1  0
  4 38  1  0
  6 39  1  0
  6 40  1  0
  7 41  1  0
  7 42  1  0
  8 43  1  0
  8 44  1  0
 11 45  1  0
 12 46  1  0
 13 47  1  0
 15 48  1  0
 17 49  1  0
 18 50  1  0
 21 51  1  0
 24 52  1  0
 24 53  1  0
 25 54  1  0
 25 55  1  0
 26 56  1  0
 27 57  1  0
 29 58  1  0
 30 59  1  0
 31 60  1  0
 32 61  1  0
M  END
> <Uni-Dock RESULT> 
ENERGY=   -3.943  LOWER_BOUND=    7.652  UPPER_BOUND=   10.342
INTER + INTRA:          -3.943
INTER:                  -3.943
INTRA:                   0.000
UNBOUND:                 0.000

$$$$

     RDKit          3D

 61 64  0  0  0  0  0  0  0  0999 V2000
   43.0722   15.3955   14.8764 C   0  0  0  0  0  0  0  0  0  0  0  0
   42.5488   16.5062   15.6181 O   0  0  0  0  0  0  0  0  0  0  0  0
   42.2763   17.6477   14.7991 C   0  0  0  0  0  0  0  0  0  0  0  0
   42.0814   17.2990   13.3129 C   0  0  0  0  0  0  0  0  0  0  0  0
   43.3070   16.7128   12.7293 N   0  0  0  0  0  0  0  0  0  0  0  0
   43.9765   15.8277   13.7069 C   0  0  0  0  0  0  0  0  0  0  0  0
   43.0215   16.0595   11.4387 C   0  0  0  0  0  0  0  0  0  0  0  0
   44.2758   15.8241   10.5712 C   0  0  0  0  0  0  0  0  0  0  0  0
   44.8813   14.5759   10.9136 O   0  0  0  0  0  0  0  0  0  0  0  0
   45.9883   14.2027   10.2040 C   0  0  0  0  0  0  0  0  0  0  0  0
   46.6205   14.9507    9.2138 C   0  0  0  0  0  0  0  0  0  0  0  0
   46.5004   12.9484   10.5370 C   0  0  0  0  0  0  0  0  0  0  0  0
   47.6304   12.4414    9.8870 C   0  0  0  0  0  0  0  0  0  0  0  0
   48.2735   13.1799    8.8841 C   0  0  0  0  0  0  0  0  0  0  0  0
   47.7505   14.4414    8.5590 C   0  0  0  0  0  0  0  0  0  0  0  0
   49.4529   12.6487    8.1915 C   0  0  0  0  0  0  0  0  0  0  0  0
   49.4790   12.4849    6.8023 C   0  0  0  0  0  0  0  0  0  0  0  0
   50.6071   12.2729    8.8780 C   0  0  0  0  0  0  0  0  0  0  0  0
   51.7275   11.7697    8.2997 N   0  0  0  0  0  0  0  0  0  0  0  0
   51.7153   11.6205    6.9524 C   0  0  0  0  0  0  0  0  0  0  0  0
   50.6121   11.9645    6.1754 C   0  0  0  0  0  0  0  0  0  0  0  0
   52.1121    9.2210    4.9892 O   0  0  0  0  0  0  0  0  0  0  0  0
   52.7551    9.5799    5.9749 C   0  0  0  0  0  0  0  0  0  0  0  0
   52.9490   11.0414    6.3184 C   0  0  0  0  0  0  0  0  0  0  0  0
   53.2613    7.2682    6.6513 C   0  0  0  0  0  0  0  0  0  0  0  0
   53.3437    8.6944    6.8538 N   0  0  0  0  0  0  0  0  0  0  0  0
   55.0978    5.9339    7.7645 C   0  0  0  0  0  0  0  0  0  0  0  0
   53.8266    6.5232    7.8311 C   0  0  0  0  0  0  0  0  0  0  0  0
   53.0982    6.4365    9.0284 C   0  0  0  0  0  0  0  0  0  0  0  0
   53.6233    5.7597   10.1302 C   0  0  0  0  0  0  0  0  0  0  0  0
   54.8843    5.1696   10.0511 C   0  0  0  0  0  0  0  0  0  0  0  0
   55.6224    5.2595    8.8705 C   0  0  0  0  0  0  0  0  0  0  0  0
   43.6403   14.7770   15.5760 H   0  0  0  0  0  0  0  0  0  0  0  0
   42.2301   14.7912   14.5162 H   0  0  0  0  0  0  0  0  0  0  0  0
   43.1039   18.3551   14.9161 H   0  0  0  0  0  0  0  0  0  0  0  0
   41.3761   18.1298   15.1967 H   0  0  0  0  0  0  0  0  0  0  0  0
   41.2394   16.5987   13.2162 H   0  0  0  0  0  0  0  0  0  0  0  0
   41.8247   18.2123   12.7627 H   0  0  0  0  0  0  0  0  0  0  0  0
   44.4047   14.9364   13.2472 H   0  0  0  0  0  0  0  0  0  0  0  0
   44.8176   16.3995   14.1206 H   0  0  0  0  0  0  0  0  0  0  0  0
   42.4739   15.1211   11.5908 H   0  0  0  0  0  0  0  0  0  0  0  0
   42.3752   16.7310   10.8598 H   0  0  0  0  0  0  0  0  0  0  0  0
   43.9547   15.7872    9.5229 H   0  0  0  0  0  0  0  0  0  0  0  0
   44.9832   16.6520   10.7039 H   0  0  0  0  0  0  0  0  0  0  0  0
   46.2686   15.9360    8.9273 H   0  0  0  0  0  0  0  0  0  0  0  0
   46.0130   12.3570   11.3078 H   0  0  0  0  0  0  0  0  0  0  0  0
   47.9949   11.4541   10.1618 H   0  0  0  0  0  0  0  0  0  0  0  0
   48.2297   15.0505    7.7943 H   0  0  0  0  0  0  0  0  0  0  0  0
   48.6094   12.7425    6.2013 H   0  0  0  0  0  0  0  0  0  0  0  0
   50.6721   12.3760    9.9593 H   0  0  0  0  0  0  0  0  0  0  0  0
   50.6236   11.8181    5.0981 H   0  0  0  0  0  0  0  0  0  0  0  0
   53.8094   11.1641    6.9890 H   0  0  0  0  0  0  0  0  0  0  0  0
   53.1987   11.5860    5.3992 H   0  0  0  0  0  0  0  0  0  0  0  0
   52.2130    6.9842    6.4865 H   0  0  0  0  0  0  0  0  0  0  0  0
   53.8062    7.0247    5.7301 H   0  0  0  0  0  0  0  0  0  0  0  0
   53.8901    9.0401    7.6404 H   0  0  0  0  0  0  0  0  0  0  0  0
   55.6852    5.9934    6.8469 H   0  0  0  0  0  0  0  0  0  0  0  0
   52.1126    6.8960    9.1081 H   0  0  0  0  0  0  0  0  0  0  0  0
   53.0440    5.6955   11.0471 H   0  0  0  0  0  0  0  0  0  0  0  0
   55.2921    4.6412   10.9099 H   0  0  0  0  0  0  0  0  0  0  0  0
   56.6076    4.8028    8.8090 H   0  0  0  0  0  0  0  0  0  0  0  0
  1  2  1  0
  2  3  1  0
  3  4  1  0
  4  5  1  0
  5  6  1  0
  1  6  1  0
  7  8  1  0
  5  7  1  0
  9 10  1  0
 10 11  2  0
  8  9  1  0
 12 13  2  0
 13 14  1  0
 14 15  2  0
 10 12  1  0
 11 15  1  0
 16 17  2  0
 16 14  1  0
 18 19  2  0
 19 20  1  0
 20 21  2  0
 17 21  1  0
 16 18  1  0
 22 23  2  0
 23 24  1  0
 20 24  1  0
 25 26  1  0
 23 26  1  0
 27 28  2  0
 25 28  1  0
 29 30  2  0
 30 31  1  0
 31 32  2  0
 27 32  1  0
 28 29  1  0
  1 33  1  0
  1 34  1  0
  3 35  1  0
  3 36  1  0
  4 37  1  0
  4 38  1  0
  6 39  1  0
  6 40  1  0
  7 41  1  0
  7 42  1  0
  8 43  1  0
  8 44  1  0
 11 45  1  0
 12 46  1  0
 13 47  1  0
 15 48  1  0
 17 49  1  0
 18 50  1  0
 21 51  1  0
 24 52  1  0
 24 53  1  0
 25 54  1  0
 25 55  1  0
 26 56  1  0
 27 57  1  0
 29 58  1  0
 30 59  1  0
 31 60  1  0
 32 61  1  0
M  END
> <Uni-Dock RESULT> 
ENERGY=   -3.931  LOWER_BOUND=    6.261  UPPER_BOUND=   11.257
INTER + INTRA:          -3.931
INTER:                  -3.931
INTRA:                   0.000
UNBOUND:                 0.000

$$$$

     RDKit          3D

 61 64  0  0  0  0  0  0  0  0999 V2000
   56.5246   13.7120   21.1754 C   0  0  0  0  0  0  0  0  0  0  0  0
   57.0343   14.5378   22.2318 O   0  0  0  0  0  0  0  0  0  0  0  0
   57.5119   13.7840   23.3507 C   0  0  0  0  0  0  0  0  0  0  0  0
   57.8775   12.3318   22.9959 C   0  0  0  0  0  0  0  0  0  0  0  0
   56.6976   11.5771   22.5218 N   0  0  0  0  0  0  0  0  0  0  0  0
   55.8284   12.4389   21.6916 C   0  0  0  0  0  0  0  0  0  0  0  0
   57.1001   10.3254   21.8544 C   0  0  0  0  0  0  0  0  0  0  0  0
   55.9606    9.2920   21.7340 C   0  0  0  0  0  0  0  0  0  0  0  0
   55.2104    9.5266   20.5407 O   0  0  0  0  0  0  0  0  0  0  0  0
   54.1828    8.6669   20.2693 C   0  0  0  0  0  0  0  0  0  0  0  0
   53.7575    7.6140   21.0754 C   0  0  0  0  0  0  0  0  0  0  0  0
   53.5256    8.9047   19.0618 C   0  0  0  0  0  0  0  0  0  0  0  0
   52.4559    8.0986   18.6587 C   0  0  0  0  0  0  0  0  0  0  0  0
   52.0207    7.0314   19.4564 C   0  0  0  0  0  0  0  0  0  0  0  0
   52.6883    6.8031   20.6700 C   0  0  0  0  0  0  0  0  0  0  0  0
   50.9061    6.1760   19.0337 C   0  0  0  0  0  0  0  0  0  0  0  0
   51.0561    4.7933   18.8816 C   0  0  0  0  0  0  0  0  0  0  0  0
   49.6413    6.6930   18.7548 C   0  0  0  0  0  0  0  0  0  0  0  0
   48.5717    5.9592   18.3541 N   0  0  0  0  0  0  0  0  0  0  0  0
   48.7550    4.6236   18.2130 C   0  0  0  0  0  0  0  0  0  0  0  0
   49.9790    4.0095   18.4652 C   0  0  0  0  0  0  0  0  0  0  0  0
   48.4277    2.5815   15.8694 O   0  0  0  0  0  0  0  0  0  0  0  0
   47.6890    3.4774   16.2762 C   0  0  0  0  0  0  0  0  0  0  0  0
   47.5747    3.8180   17.7468 C   0  0  0  0  0  0  0  0  0  0  0  0
   46.9010    4.0371   14.0128 C   0  0  0  0  0  0  0  0  0  0  0  0
   46.9130    4.2523   15.4395 N   0  0  0  0  0  0  0  0  0  0  0  0
   44.8232    4.8670   12.8353 C   0  0  0  0  0  0  0  0  0  0  0  0
   46.1188    5.1157   13.3120 C   0  0  0  0  0  0  0  0  0  0  0  0
   46.6670    6.3989   13.1549 C   0  0  0  0  0  0  0  0  0  0  0  0
   45.9410    7.4070   12.5190 C   0  0  0  0  0  0  0  0  0  0  0  0
   44.6571    7.1472   12.0407 C   0  0  0  0  0  0  0  0  0  0  0  0
   44.0973    5.8794   12.2017 C   0  0  0  0  0  0  0  0  0  0  0  0
   55.8160   14.3169   20.6039 H   0  0  0  0  0  0  0  0  0  0  0  0
   57.3537   13.4583   20.5027 H   0  0  0  0  0  0  0  0  0  0  0  0
   56.7390   13.8007   24.1262 H   0  0  0  0  0  0  0  0  0  0  0  0
   58.3869   14.3085   23.7506 H   0  0  0  0  0  0  0  0  0  0  0  0
   58.6623   12.3374   22.2261 H   0  0  0  0  0  0  0  0  0  0  0  0
   58.2833   11.8381   23.8872 H   0  0  0  0  0  0  0  0  0  0  0  0
   55.3928   11.9093   20.8437 H   0  0  0  0  0  0  0  0  0  0  0  0
   54.9902   12.7451   22.3314 H   0  0  0  0  0  0  0  0  0  0  0  0
   57.5403   10.5332   20.8713 H   0  0  0  0  0  0  0  0  0  0  0  0
   57.8740    9.8516   22.4713 H   0  0  0  0  0  0  0  0  0  0  0  0
   56.4174    8.2963   21.6761 H   0  0  0  0  0  0  0  0  0  0  0  0
   55.3145    9.3426   22.6191 H   0  0  0  0  0  0  0  0  0  0  0  0
   54.2275    7.3957   22.0283 H   0  0  0  0  0  0  0  0  0  0  0  0
   53.8513    9.7236   18.4256 H   0  0  0  0  0  0  0  0  0  0  0  0
   51.9749    8.3036   17.7049 H   0  0  0  0  0  0  0  0  0  0  0  0
   52.3714    5.9917   21.3231 H   0  0  0  0  0  0  0  0  0  0  0  0
   52.0182    4.3204   19.0668 H   0  0  0  0  0  0  0  0  0  0  0  0
   49.4384    7.7573   18.8562 H   0  0  0  0  0  0  0  0  0  0  0  0
   50.1023    2.9380   18.3272 H   0  0  0  0  0  0  0  0  0  0  0  0
   46.6444    4.3679   17.9392 H   0  0  0  0  0  0  0  0  0  0  0  0
   47.4999    2.8834   18.3168 H   0  0  0  0  0  0  0  0  0  0  0  0
   47.9341    4.0106   13.6402 H   0  0  0  0  0  0  0  0  0  0  0  0
   46.4682    3.0463   13.8232 H   0  0  0  0  0  0  0  0  0  0  0  0
   46.2957    4.9639   15.8261 H   0  0  0  0  0  0  0  0  0  0  0  0
   44.3738    3.8795   12.9512 H   0  0  0  0  0  0  0  0  0  0  0  0
   47.6678    6.6197   13.5268 H   0  0  0  0  0  0  0  0  0  0  0  0
   46.3821    8.3926   12.3990 H   0  0  0  0  0  0  0  0  0  0  0  0
   44.0925    7.9332   11.5441 H   0  0  0  0  0  0  0  0  0  0  0  0
   43.0945    5.6768   11.8323 H   0  0  0  0  0  0  0  0  0  0  0  0
  1  2  1  0
  2  3  1  0
  3  4  1  0
  4  5  1  0
  5  6  1  0
  1  6  1  0
  7  8  1  0
  5  7  1  0
  9 10  1  0
 10 11  2  0
  8  9  1  0
 12 13  2  0
 13 14  1  0
 14 15  2  0
 10 12  1  0
 11 15  1  0
 16 17  2  0
 16 14  1  0
 18 19  2  0
 19 20  1  0
 20 21  2  0
 17 21  1  0
 16 18  1  0
 22 23  2  0
 23 24  1  0
 20 24  1  0
 25 26  1  0
 23 26  1  0
 27 28  2  0
 25 28  1  0
 29 30  2  0
 30 31  1  0
 31 32  2  0
 27 32  1  0
 28 29  1  0
  1 33  1  0
  1 34  1  0
  3 35  1  0
  3 36  1  0
  4 37  1  0
  4 38  1  0
  6 39  1  0
  6 40  1  0
  7 41  1  0
  7 42  1  0
  8 43  1  0
  8 44  1  0
 11 45  1  0
 12 46  1  0
 13 47  1  0
 15 48  1  0
 17 49  1  0
 18 50  1  0
 21 51  1  0
 24 52  1  0
 24 53  1  0
 25 54  1  0
 25 55  1  0
 26 56  1  0
 27 57  1  0
 29 58  1  0
 30 59  1  0
 31 60  1  0
 32 61  1  0
M  END
> <Uni-Dock RESULT> 
ENERGY=   -3.836  LOWER_BOUND=    6.070  UPPER_BOUND=    9.104
INTER + INTRA:          -3.836
INTER:                  -3.836
INTRA:                   0.000
UNBOUND:                 0.000

$$$$

     RDKit          3D

 61 64  0  0  0  0  0  0  0  0999 V2000
   43.2191    5.8904   11.6140 C   0  0  0  0  0  0  0  0  0  0  0  0
   42.5459    4.6541   11.3377 O   0  0  0  0  0  0  0  0  0  0  0  0
   43.2925    3.5055   11.7518 C   0  0  0  0  0  0  0  0  0  0  0  0
   44.3366    3.8166   12.8388 C   0  0  0  0  0  0  0  0  0  0  0  0
   45.3615    4.7636   12.3497 N   0  0  0  0  0  0  0  0  0  0  0  0
   44.7491    5.7851   11.4727 C   0  0  0  0  0  0  0  0  0  0  0  0
   46.1370    5.3319   13.4675 C   0  0  0  0  0  0  0  0  0  0  0  0
   47.4782    5.9611   13.0359 C   0  0  0  0  0  0  0  0  0  0  0  0
   47.2808    7.3252   12.6589 O   0  0  0  0  0  0  0  0  0  0  0  0
   48.3864    8.0365   12.2849 C   0  0  0  0  0  0  0  0  0  0  0  0
   49.6845    7.5430   12.1799 C   0  0  0  0  0  0  0  0  0  0  0  0
   48.1451    9.3783   11.9881 C   0  0  0  0  0  0  0  0  0  0  0  0
   49.1882   10.2224   11.5933 C   0  0  0  0  0  0  0  0  0  0  0  0
   50.5007    9.7416   11.4893 C   0  0  0  0  0  0  0  0  0  0  0  0
   50.7310    8.3896   11.7885 C   0  0  0  0  0  0  0  0  0  0  0  0
   51.6006   10.6250   11.0860 C   0  0  0  0  0  0  0  0  0  0  0  0
   52.7205   10.8249   11.9004 C   0  0  0  0  0  0  0  0  0  0  0  0
   51.5877   11.3171    9.8754 C   0  0  0  0  0  0  0  0  0  0  0  0
   52.5676   12.1529    9.4463 N   0  0  0  0  0  0  0  0  0  0  0  0
   53.6353   12.3261   10.2633 C   0  0  0  0  0  0  0  0  0  0  0  0
   53.7437   11.6823   11.4932 C   0  0  0  0  0  0  0  0  0  0  0  0
   54.9891   14.7823   11.6431 O   0  0  0  0  0  0  0  0  0  0  0  0
   54.5987   14.6113   10.4889 C   0  0  0  0  0  0  0  0  0  0  0  0
   54.7072   13.2702    9.7951 C   0  0  0  0  0  0  0  0  0  0  0  0
   53.8665   16.9488   10.2493 C   0  0  0  0  0  0  0  0  0  0  0  0
   54.0236   15.6110    9.7321 N   0  0  0  0  0  0  0  0  0  0  0  0
   53.6852   18.7505    8.4847 C   0  0  0  0  0  0  0  0  0  0  0  0
   53.0599   17.7999    9.3052 C   0  0  0  0  0  0  0  0  0  0  0  0
   51.6693   17.6292    9.2110 C   0  0  0  0  0  0  0  0  0  0  0  0
   50.9180   18.4052    8.3271 C   0  0  0  0  0  0  0  0  0  0  0  0
   51.5480   19.3537    7.5220 C   0  0  0  0  0  0  0  0  0  0  0  0
   52.9307   19.5239    7.5982 C   0  0  0  0  0  0  0  0  0  0  0  0
   42.8318    6.6343   10.9131 H   0  0  0  0  0  0  0  0  0  0  0  0
   42.9418    6.2181   12.6239 H   0  0  0  0  0  0  0  0  0  0  0  0
   43.7813    3.0816   10.8683 H   0  0  0  0  0  0  0  0  0  0  0  0
   42.5753    2.7617   12.1165 H   0  0  0  0  0  0  0  0  0  0  0  0
   43.8248    4.2288   13.7201 H   0  0  0  0  0  0  0  0  0  0  0  0
   44.8270    2.8830   13.1400 H   0  0  0  0  0  0  0  0  0  0  0  0
   45.1827    6.7762   11.6104 H   0  0  0  0  0  0  0  0  0  0  0  0
   44.9757    5.4866   10.4407 H   0  0  0  0  0  0  0  0  0  0  0  0
   45.5338    6.0542   14.0315 H   0  0  0  0  0  0  0  0  0  0  0  0
   46.3935    4.5104   14.1481 H   0  0  0  0  0  0  0  0  0  0  0  0
   48.1563    5.9254   13.8974 H   0  0  0  0  0  0  0  0  0  0  0  0
   47.9128    5.3853   12.2094 H   0  0  0  0  0  0  0  0  0  0  0  0
   49.9216    6.5051   12.3878 H   0  0  0  0  0  0  0  0  0  0  0  0
   47.1355    9.7725   12.0682 H   0  0  0  0  0  0  0  0  0  0  0  0
   48.9670   11.2664   11.3827 H   0  0  0  0  0  0  0  0  0  0  0  0
   51.7348    7.9757   11.7070 H   0  0  0  0  0  0  0  0  0  0  0  0
   52.7939   10.3300   12.8665 H   0  0  0  0  0  0  0  0  0  0  0  0
   50.7572   11.2107    9.1803 H   0  0  0  0  0  0  0  0  0  0  0  0
   54.6037   11.8530   12.1362 H   0  0  0  0  0  0  0  0  0  0  0  0
   54.6461   13.3985    8.7066 H   0  0  0  0  0  0  0  0  0  0  0  0
   55.7011   12.8518    9.9975 H   0  0  0  0  0  0  0  0  0  0  0  0
   53.3806   16.9037   11.2334 H   0  0  0  0  0  0  0  0  0  0  0  0
   54.8675   17.3708   10.4071 H   0  0  0  0  0  0  0  0  0  0  0  0
   53.7415   15.4282    8.7709 H   0  0  0  0  0  0  0  0  0  0  0  0
   54.7653   18.8969    8.5357 H   0  0  0  0  0  0  0  0  0  0  0  0
   51.1619   16.8892    9.8303 H   0  0  0  0  0  0  0  0  0  0  0  0
   49.8420   18.2659    8.2713 H   0  0  0  0  0  0  0  0  0  0  0  0
   50.9615   19.9589    6.8344 H   0  0  0  0  0  0  0  0  0  0  0  0
   53.4235   20.2609    6.9680 H   0  0  0  0  0  0  0  0  0  0  0  0
  1  2  1  0
  2  3  1  0
  3  4  1  0
  4  5  1  0
  5  6  1  0
  1  6  1  0
  7  8  1  0
  5  7  1  0
  9 10  1  0
 10 11  2  0
  8  9  1  0
 12 13  2  0
 13 14  1  0
 14 15  2  0
 10 12  1  0
 11 15  1  0
 16 17  2  0
 16 14  1  0
 18 19  2  0
 19 20  1  0
 20 21  2  0
 17 21  1  0
 16 18  1  0
 22 23  2  0
 23 24  1  0
 20 24  1  0
 25 26  1  0
 23 26  1  0
 27 28  2  0
 25 28  1  0
 29 30  2  0
 30 31  1  0
 31 32  2  0
 27 32  1  0
 28 29  1  0
  1 33  1  0
  1 34  1  0
  3 35  1  0
  3 36  1  0
  4 37  1  0
  4 38  1  0
  6 39  1  0
  6 40  1  0
  7 41  1  0
  7 42  1  0
  8 43  1  0
  8 44  1  0
 11 45  1  0
 12 46  1  0
 13 47  1  0
 15 48  1  0
 17 49  1  0
 18 50  1  0
 21 51  1  0
 24 52  1  0
 24 53  1  0
 25 54  1  0
 25 55  1  0
 26 56  1  0
 27 57  1  0
 29 58  1  0
 30 59  1  0
 31 60  1  0
 32 61  1  0
M  END
> <Uni-Dock RESULT> 
ENERGY=   -3.648  LOWER_BOUND=    6.196  UPPER_BOUND=    9.117
INTER + INTRA:          -3.648
INTER:                  -3.648
INTRA:                   0.000
UNBOUND:                 0.000

$$$$
