
     RDKit          3D

 61 64  0  0  0  0  0  0  0  0999 V2000
   41.4350   15.4902    5.9445 C   0  0  0  0  0  0  0  0  0  0  0  0
   40.5988   16.6007    5.5905 O   0  0  0  0  0  0  0  0  0  0  0  0
   40.1409   17.3410    6.7308 C   0  0  0  0  0  0  0  0  0  0  0  0
   41.0261   17.1700    7.9712 C   0  0  0  0  0  0  0  0  0  0  0  0
   41.0858   15.7623    8.4289 N   0  0  0  0  0  0  0  0  0  0  0  0
   41.0247   14.8401    7.2725 C   0  0  0  0  0  0  0  0  0  0  0  0
   42.2689   15.5569    9.2892 C   0  0  0  0  0  0  0  0  0  0  0  0
   42.2716   14.2304   10.0688 C   0  0  0  0  0  0  0  0  0  0  0  0
   42.9523   13.2353    9.3067 O   0  0  0  0  0  0  0  0  0  0  0  0
   43.0948   11.9971    9.8637 C   0  0  0  0  0  0  0  0  0  0  0  0
   42.6420   11.6032   11.1215 C   0  0  0  0  0  0  0  0  0  0  0  0
   43.7643   11.0710    9.0574 C   0  0  0  0  0  0  0  0  0  0  0  0
   43.9833    9.7634    9.5018 C   0  0  0  0  0  0  0  0  0  0  0  0
   43.5345    9.3490   10.7679 C   0  0  0  0  0  0  0  0  0  0  0  0
   42.8613   10.2912   11.5665 C   0  0  0  0  0  0  0  0  0  0  0  0
   43.7505    7.9729   11.2370 C   0  0  0  0  0  0  0  0  0  0  0  0
   42.7029    7.1846   11.7245 C   0  0  0  0  0  0  0  0  0  0  0  0
   45.0078    7.3728   11.2091 C   0  0  0  0  0  0  0  0  0  0  0  0
   45.2721    6.1007   11.6013 N   0  0  0  0  0  0  0  0  0  0  0  0
   44.2317    5.3671   12.0627 C   0  0  0  0  0  0  0  0  0  0  0  0
   42.9394    5.8737   12.1393 C   0  0  0  0  0  0  0  0  0  0  0  0
   42.9851    2.4205   11.3785 O   0  0  0  0  0  0  0  0  0  0  0  0
   44.0745    2.9938   11.3532 C   0  0  0  0  0  0  0  0  0  0  0  0
   44.5194    3.9407   12.4431 C   0  0  0  0  0  0  0  0  0  0  0  0
   44.7176    2.0014    9.1948 C   0  0  0  0  0  0  0  0  0  0  0  0
   44.9818    2.8502   10.3321 N   0  0  0  0  0  0  0  0  0  0  0  0
   46.7616    1.3336    7.8674 C   0  0  0  0  0  0  0  0  0  0  0  0
   45.7261    2.2485    8.1052 C   0  0  0  0  0  0  0  0  0  0  0  0
   45.6718    3.4356    7.3490 C   0  0  0  0  0  0  0  0  0  0  0  0
   46.6331    3.6999    6.3792 C   0  0  0  0  0  0  0  0  0  0  0  0
   47.6601    2.7843    6.1517 C   0  0  0  0  0  0  0  0  0  0  0  0
   47.7254    1.6030    6.8936 C   0  0  0  0  0  0  0  0  0  0  0  0
   41.3698   14.7569    5.1310 H   0  0  0  0  0  0  0  0  0  0  0  0
   42.4716   15.8397    5.9849 H   0  0  0  0  0  0  0  0  0  0  0  0
   40.1064   18.3970    6.4408 H   0  0  0  0  0  0  0  0  0  0  0  0
   39.1122   17.0279    6.9446 H   0  0  0  0  0  0  0  0  0  0  0  0
   42.0331   17.5433    7.7296 H   0  0  0  0  0  0  0  0  0  0  0  0
   40.6337   17.7885    8.7827 H   0  0  0  0  0  0  0  0  0  0  0  0
   39.9798   14.5188    7.1862 H   0  0  0  0  0  0  0  0  0  0  0  0
   41.6070   13.9300    7.4212 H   0  0  0  0  0  0  0  0  0  0  0  0
   43.1892   15.6535    8.7044 H   0  0  0  0  0  0  0  0  0  0  0  0
   42.2719   16.3521   10.0428 H   0  0  0  0  0  0  0  0  0  0  0  0
   41.2487   13.9152   10.2931 H   0  0  0  0  0  0  0  0  0  0  0  0
   42.8109   14.3957   11.0078 H   0  0  0  0  0  0  0  0  0  0  0  0
   42.1163   12.2861   11.7846 H   0  0  0  0  0  0  0  0  0  0  0  0
   44.1155   11.3685    8.0703 H   0  0  0  0  0  0  0  0  0  0  0  0
   44.4943    9.0658    8.8380 H   0  0  0  0  0  0  0  0  0  0  0  0
   42.5070   10.0128   12.5591 H   0  0  0  0  0  0  0  0  0  0  0  0
   41.6907    7.5778   11.7617 H   0  0  0  0  0  0  0  0  0  0  0  0
   45.8799    7.9207   10.8574 H   0  0  0  0  0  0  0  0  0  0  0  0
   42.1230    5.2534   12.4955 H   0  0  0  0  0  0  0  0  0  0  0  0
   44.0072    3.6794   13.3771 H   0  0  0  0  0  0  0  0  0  0  0  0
   45.5953    3.8033   12.6255 H   0  0  0  0  0  0  0  0  0  0  0  0
   43.6999    2.1826    8.8307 H   0  0  0  0  0  0  0  0  0  0  0  0
   44.7566    0.9627    9.5426 H   0  0  0  0  0  0  0  0  0  0  0  0
   45.8236    3.4210   10.3307 H   0  0  0  0  0  0  0  0  0  0  0  0
   46.8266    0.4158    8.4520 H   0  0  0  0  0  0  0  0  0  0  0  0
   44.8829    4.1640    7.5348 H   0  0  0  0  0  0  0  0  0  0  0  0
   46.5916    4.6245    5.8063 H   0  0  0  0  0  0  0  0  0  0  0  0
   48.4083    2.9909    5.3992 H   0  0  0  0  0  0  0  0  0  0  0  0
   48.5319    0.8941    6.7116 H   0  0  0  0  0  0  0  0  0  0  0  0
  1  2  1  0
  2  3  1  0
  3  4  1  0
  4  5  1  0
  5  6  1  0
  1  6  1  0
  7  8  1  0
  5  7  1  0
  9 10  1  0
 10 11  2  0
  8  9  1  0
 12 13  2  0
 13 14  1  0
 14 15  2  0
 10 12  1  0
 11 15  1  0
 16 17  2  0
 16 14  1  0
 18 19  2  0
 19 20  1  0
 20 21  2  0
 17 21  1  0
 16 18  1  0
 22 23  2  0
 23 24  1  0
 20 24  1  0
 25 26  1  0
 23 26  1  0
 27 28  2  0
 25 28  1  0
 29 30  2  0
 30 31  1  0
 31 32  2  0
 27 32  1  0
 28 29  1  0
  1 33  1  0
  1 34  1  0
  3 35  1  0
  3 36  1  0
  4 37  1  0
  4 38  1  0
  6 39  1  0
  6 40  1  0
  7 41  1  0
  7 42  1  0
  8 43  1  0
  8 44  1  0
 11 45  1  0
 12 46  1  0
 13 47  1  0
 15 48  1  0
 17 49  1  0
 18 50  1  0
 21 51  1  0
 24 52  1  0
 24 53  1  0
 25 54  1  0
 25 55  1  0
 26 56  1  0
 27 57  1  0
 29 58  1  0
 30 59  1  0
 31 60  1  0
 32 61  1  0
M  END
> <Uni-Dock RESULT> 
ENERGY=   -5.782  LOWER_BOUND=    0.000  UPPER_BOUND=    0.000
INTER + INTRA:          -5.782
INTER:                  -5.782
INTRA:                   0.000
UNBOUND:                 0.000

$$$$

     RDKit          3D

 61 64  0  0  0  0  0  0  0  0999 V2000
   51.2292   15.6679    9.1721 C   0  0  0  0  0  0  0  0  0  0  0  0
   51.3824   17.0891    9.0517 O   0  0  0  0  0  0  0  0  0  0  0  0
   51.2654   17.7720   10.3079 C   0  0  0  0  0  0  0  0  0  0  0  0
   51.5530   16.8803   11.5219 C   0  0  0  0  0  0  0  0  0  0  0  0
   50.6110   15.7408   11.6176 N   0  0  0  0  0  0  0  0  0  0  0  0
   50.2297   15.2710   10.2665 C   0  0  0  0  0  0  0  0  0  0  0  0
   51.1800   14.6812   12.4752 C   0  0  0  0  0  0  0  0  0  0  0  0
   50.1782   13.5929   12.8985 C   0  0  0  0  0  0  0  0  0  0  0  0
   50.2197   12.5205   11.9589 O   0  0  0  0  0  0  0  0  0  0  0  0
   49.4254   11.4364   12.1981 C   0  0  0  0  0  0  0  0  0  0  0  0
   48.5709   11.2659   13.2858 C   0  0  0  0  0  0  0  0  0  0  0  0
   49.5117   10.4285   11.2322 C   0  0  0  0  0  0  0  0  0  0  0  0
   48.7546    9.2589   11.3505 C   0  0  0  0  0  0  0  0  0  0  0  0
   47.8884    9.0696   12.4414 C   0  0  0  0  0  0  0  0  0  0  0  0
   47.8111   10.0927   13.4036 C   0  0  0  0  0  0  0  0  0  0  0  0
   47.0804    7.8481   12.5662 C   0  0  0  0  0  0  0  0  0  0  0  0
   45.6977    7.8937   12.7725 C   0  0  0  0  0  0  0  0  0  0  0  0
   47.6448    6.5775   12.4722 C   0  0  0  0  0  0  0  0  0  0  0  0
   46.9550    5.4115   12.5517 N   0  0  0  0  0  0  0  0  0  0  0  0
   45.6177    5.4962   12.7468 C   0  0  0  0  0  0  0  0  0  0  0  0
   44.9578    6.7143   12.8624 C   0  0  0  0  0  0  0  0  0  0  0  0
   42.9737    4.2577   11.2704 O   0  0  0  0  0  0  0  0  0  0  0  0
   44.1533    3.9599   11.4600 C   0  0  0  0  0  0  0  0  0  0  0  0
   44.8505    4.2029   12.7781 C   0  0  0  0  0  0  0  0  0  0  0  0
   44.4662    3.1160    9.1695 C   0  0  0  0  0  0  0  0  0  0  0  0
   44.9567    3.4000   10.4970 N   0  0  0  0  0  0  0  0  0  0  0  0
   45.8515    1.4615    7.8543 C   0  0  0  0  0  0  0  0  0  0  0  0
   45.6064    2.7859    8.2441 C   0  0  0  0  0  0  0  0  0  0  0  0
   46.4767    3.8027    7.8054 C   0  0  0  0  0  0  0  0  0  0  0  0
   47.5671    3.4992    6.9970 C   0  0  0  0  0  0  0  0  0  0  0  0
   47.8031    2.1784    6.6164 C   0  0  0  0  0  0  0  0  0  0  0  0
   46.9477    1.1605    7.0435 C   0  0  0  0  0  0  0  0  0  0  0  0
   50.8910   15.2900    8.1991 H   0  0  0  0  0  0  0  0  0  0  0  0
   52.2141   15.2312    9.3660 H   0  0  0  0  0  0  0  0  0  0  0  0
   51.9683   18.6122   10.2883 H   0  0  0  0  0  0  0  0  0  0  0  0
   50.2552   18.1934   10.3693 H   0  0  0  0  0  0  0  0  0  0  0  0
   52.5909   16.5214   11.4473 H   0  0  0  0  0  0  0  0  0  0  0  0
   51.4780   17.4776   12.4344 H   0  0  0  0  0  0  0  0  0  0  0  0
   49.2662   15.7405   10.0348 H   0  0  0  0  0  0  0  0  0  0  0  0
   50.0575   14.1950   10.2218 H   0  0  0  0  0  0  0  0  0  0  0  0
   52.0517   14.2262   11.9945 H   0  0  0  0  0  0  0  0  0  0  0  0
   51.5237   15.1544   13.4017 H   0  0  0  0  0  0  0  0  0  0  0  0
   49.1687   14.0075   12.9698 H   0  0  0  0  0  0  0  0  0  0  0  0
   50.4844   13.2210   13.8823 H   0  0  0  0  0  0  0  0  0  0  0  0
   48.4689   12.0204   14.0622 H   0  0  0  0  0  0  0  0  0  0  0  0
   50.1718   10.5565   10.3756 H   0  0  0  0  0  0  0  0  0  0  0  0
   48.8366    8.5035   10.5689 H   0  0  0  0  0  0  0  0  0  0  0  0
   47.1596    9.9801   14.2702 H   0  0  0  0  0  0  0  0  0  0  0  0
   45.1834    8.8484   12.8400 H   0  0  0  0  0  0  0  0  0  0  0  0
   48.7160    6.4522   12.3258 H   0  0  0  0  0  0  0  0  0  0  0  0
   43.8815    6.7488   12.9987 H   0  0  0  0  0  0  0  0  0  0  0  0
   44.1045    4.2160   13.5820 H   0  0  0  0  0  0  0  0  0  0  0  0
   45.5270    3.3622   12.9906 H   0  0  0  0  0  0  0  0  0  0  0  0
   43.8995    3.9765    8.7961 H   0  0  0  0  0  0  0  0  0  0  0  0
   43.7653    2.2772    9.2495 H   0  0  0  0  0  0  0  0  0  0  0  0
   45.9450    3.2611   10.6929 H   0  0  0  0  0  0  0  0  0  0  0  0
   45.1958    0.6600    8.1950 H   0  0  0  0  0  0  0  0  0  0  0  0
   46.3089    4.8340    8.1146 H   0  0  0  0  0  0  0  0  0  0  0  0
   48.2421    4.2883    6.6709 H   0  0  0  0  0  0  0  0  0  0  0  0
   48.6518    1.9425    5.9897 H   0  0  0  0  0  0  0  0  0  0  0  0
   47.1402    0.1313    6.7440 H   0  0  0  0  0  0  0  0  0  0  0  0
  1  2  1  0
  2  3  1  0
  3  4  1  0
  4  5  1  0
  5  6  1  0
  1  6  1  0
  7  8  1  0
  5  7  1  0
  9 10  1  0
 10 11  2  0
  8  9  1  0
 12 13  2  0
 13 14  1  0
 14 15  2  0
 10 12  1  0
 11 15  1  0
 16 17  2  0
 16 14  1  0
 18 19  2  0
 19 20  1  0
 20 21  2  0
 17 21  1  0
 16 18  1  0
 22 23  2  0
 23 24  1  0
 20 24  1  0
 25 26  1  0
 23 26  1  0
 27 28  2  0
 25 28  1  0
 29 30  2  0
 30 31  1  0
 31 32  2  0
 27 32  1  0
 28 29  1  0
  1 33  1  0
  1 34  1  0
  3 35  1  0
  3 36  1  0
  4 37  1  0
  4 38  1  0
  6 39  1  0
  6 40  1  0
  7 41  1  0
  7 42  1  0
  8 43  1  0
  8 44  1  0
 11 45  1  0
 12 46  1  0
 13 47  1  0
 15 48  1  0
 17 49  1  0
 18 50  1  0
 21 51  1  0
 24 52  1  0
 24 53  1  0
 25 54  1  0
 25 55  1  0
 26 56  1  0
 27 57  1  0
 29 58  1  0
 30 59  1  0
 31 60  1  0
 32 61  1  0
M  END
> <Uni-Dock RESULT> 
ENERGY=   -5.774  LOWER_BOUND=    5.539  UPPER_BOUND=    6.040
INTER + INTRA:          -5.774
INTER:                  -5.774
INTRA:                   0.000
UNBOUND:                 0.000

$$$$

     RDKit          3D

 61 64  0  0  0  0  0  0  0  0999 V2000
   39.1376   10.1057   11.4711 C   0  0  0  0  0  0  0  0  0  0  0  0
   37.9229   10.8504   11.3049 O   0  0  0  0  0  0  0  0  0  0  0  0
   38.1108   12.0696   10.5726 C   0  0  0  0  0  0  0  0  0  0  0  0
   39.3573   12.0649    9.6795 C   0  0  0  0  0  0  0  0  0  0  0  0
   40.6056   11.8910   10.4582 N   0  0  0  0  0  0  0  0  0  0  0  0
   40.3691   11.0084   11.6229 C   0  0  0  0  0  0  0  0  0  0  0  0
   41.6957   11.4282    9.5752 C   0  0  0  0  0  0  0  0  0  0  0  0
   43.1009   11.5076   10.1967 C   0  0  0  0  0  0  0  0  0  0  0  0
   43.4098   10.2662   10.8276 O   0  0  0  0  0  0  0  0  0  0  0  0
   44.6431   10.1341   11.3978 C   0  0  0  0  0  0  0  0  0  0  0  0
   45.6473   11.1003   11.4206 C   0  0  0  0  0  0  0  0  0  0  0  0
   44.8730    8.8949   12.0041 C   0  0  0  0  0  0  0  0  0  0  0  0
   46.0947    8.6195   12.6261 C   0  0  0  0  0  0  0  0  0  0  0  0
   47.1191    9.5818   12.6577 C   0  0  0  0  0  0  0  0  0  0  0  0
   46.8724   10.8237   12.0452 C   0  0  0  0  0  0  0  0  0  0  0  0
   48.4015    9.3038   13.3200 C   0  0  0  0  0  0  0  0  0  0  0  0
   48.9412   10.1673   14.2790 C   0  0  0  0  0  0  0  0  0  0  0  0
   49.1437    8.1583   13.0394 C   0  0  0  0  0  0  0  0  0  0  0  0
   50.3192    7.8279   13.6316 N   0  0  0  0  0  0  0  0  0  0  0  0
   50.8074    8.6860   14.5584 C   0  0  0  0  0  0  0  0  0  0  0  0
   50.1495    9.8605   14.9054 C   0  0  0  0  0  0  0  0  0  0  0  0
   51.8566    8.4175   17.6458 O   0  0  0  0  0  0  0  0  0  0  0  0
   51.7932    7.7302   16.6261 C   0  0  0  0  0  0  0  0  0  0  0  0
   52.0812    8.2876   15.2518 C   0  0  0  0  0  0  0  0  0  0  0  0
   51.1070    5.7079   17.8493 C   0  0  0  0  0  0  0  0  0  0  0  0
   51.4379    6.4035   16.6285 N   0  0  0  0  0  0  0  0  0  0  0  0
   51.2129    3.1875   17.7003 C   0  0  0  0  0  0  0  0  0  0  0  0
   50.4814    4.3734   17.5442 C   0  0  0  0  0  0  0  0  0  0  0  0
   49.1672    4.3081   17.0417 C   0  0  0  0  0  0  0  0  0  0  0  0
   48.6007    3.0840   16.7023 C   0  0  0  0  0  0  0  0  0  0  0  0
   49.3374    1.9104   16.8595 C   0  0  0  0  0  0  0  0  0  0  0  0
   50.6412    1.9605   17.3575 C   0  0  0  0  0  0  0  0  0  0  0  0
   39.0192    9.4782   12.3632 H   0  0  0  0  0  0  0  0  0  0  0  0
   39.2492    9.4343   10.6136 H   0  0  0  0  0  0  0  0  0  0  0  0
   37.2150   12.2232    9.9607 H   0  0  0  0  0  0  0  0  0  0  0  0
   38.1570   12.8927   11.2953 H   0  0  0  0  0  0  0  0  0  0  0  0
   39.2464   11.2591    8.9378 H   0  0  0  0  0  0  0  0  0  0  0  0
   39.4121   13.0091    9.1312 H   0  0  0  0  0  0  0  0  0  0  0  0
   40.2046   11.6675   12.4838 H   0  0  0  0  0  0  0  0  0  0  0  0
   41.2345   10.3948   11.8760 H   0  0  0  0  0  0  0  0  0  0  0  0
   41.4960   10.4121    9.2204 H   0  0  0  0  0  0  0  0  0  0  0  0
   41.7134   12.0859    8.6991 H   0  0  0  0  0  0  0  0  0  0  0  0
   43.1574   12.3318   10.9133 H   0  0  0  0  0  0  0  0  0  0  0  0
   43.8153   11.6865    9.3859 H   0  0  0  0  0  0  0  0  0  0  0  0
   45.5164   12.0782   10.9636 H   0  0  0  0  0  0  0  0  0  0  0  0
   44.0914    8.1366   11.9968 H   0  0  0  0  0  0  0  0  0  0  0  0
   46.2302    7.6483   13.1021 H   0  0  0  0  0  0  0  0  0  0  0  0
   47.6447   11.5930   12.0384 H   0  0  0  0  0  0  0  0  0  0  0  0
   48.4122   11.0729   14.5627 H   0  0  0  0  0  0  0  0  0  0  0  0
   48.8024    7.4405   12.2959 H   0  0  0  0  0  0  0  0  0  0  0  0
   50.5573   10.5179   15.6667 H   0  0  0  0  0  0  0  0  0  0  0  0
   52.7543    9.1484   15.3471 H   0  0  0  0  0  0  0  0  0  0  0  0
   52.6186    7.5324   14.6598 H   0  0  0  0  0  0  0  0  0  0  0  0
   50.4309    6.3254   18.4514 H   0  0  0  0  0  0  0  0  0  0  0  0
   52.0336    5.5893   18.4226 H   0  0  0  0  0  0  0  0  0  0  0  0
   51.3192    5.9187   15.7423 H   0  0  0  0  0  0  0  0  0  0  0  0
   52.2359    3.2203   18.0756 H   0  0  0  0  0  0  0  0  0  0  0  0
   48.5928    5.2230   16.8986 H   0  0  0  0  0  0  0  0  0  0  0  0
   47.5887    3.0419   16.3038 H   0  0  0  0  0  0  0  0  0  0  0  0
   48.8976    0.9593   16.5937 H   0  0  0  0  0  0  0  0  0  0  0  0
   51.2109    1.0398   17.4751 H   0  0  0  0  0  0  0  0  0  0  0  0
  1  2  1  0
  2  3  1  0
  3  4  1  0
  4  5  1  0
  5  6  1  0
  1  6  1  0
  7  8  1  0
  5  7  1  0
  9 10  1  0
 10 11  2  0
  8  9  1  0
 12 13  2  0
 13 14  1  0
 14 15  2  0
 10 12  1  0
 11 15  1  0
 16 17  2  0
 16 14  1  0
 18 19  2  0
 19 20  1  0
 20 21  2  0
 17 21  1  0
 16 18  1  0
 22 23  2  0
 23 24  1  0
 20 24  1  0
 25 26  1  0
 23 26  1  0
 27 28  2  0
 25 28  1  0
 29 30  2  0
 30 31  1  0
 31 32  2  0
 27 32  1  0
 28 29  1  0
  1 33  1  0
  1 34  1  0
  3 35  1  0
  3 36  1  0
  4 37  1  0
  4 38  1  0
  6 39  1  0
  6 40  1  0
  7 41  1  0
  7 42  1  0
  8 43  1  0
  8 44  1  0
 11 45  1  0
 12 46  1  0
 13 47  1  0
 15 48  1  0
 17 49  1  0
 18 50  1  0
 21 51  1  0
 24 52  1  0
 24 53  1  0
 25 54  1  0
 25 55  1  0
 26 56  1  0
 27 57  1  0
 29 58  1  0
 30 59  1  0
 31 60  1  0
 32 61  1  0
M  END
> <Uni-Dock RESULT> 
ENERGY=   -5.292  LOWER_BOUND=    5.933  UPPER_BOUND=    7.747
INTER + INTRA:          -5.292
INTER:                  -5.292
INTRA:                   0.000
UNBOUND:                 0.000

$$$$

     RDKit          3D

 61 64  0  0  0  0  0  0  0  0999 V2000
   40.7716   10.0418   11.2832 C   0  0  0  0  0  0  0  0  0  0  0  0
   39.5565   10.7641   11.0388 O   0  0  0  0  0  0  0  0  0  0  0  0
   39.7807   12.0479   10.4391 C   0  0  0  0  0  0  0  0  0  0  0  0
   41.1207   12.1567    9.7014 C   0  0  0  0  0  0  0  0  0  0  0  0
   42.2772   11.9497   10.6039 N   0  0  0  0  0  0  0  0  0  0  0  0
   41.9424   10.9616   11.6542 C   0  0  0  0  0  0  0  0  0  0  0  0
   43.4780   11.5971    9.8192 C   0  0  0  0  0  0  0  0  0  0  0  0
   44.7988   11.6605   10.6059 C   0  0  0  0  0  0  0  0  0  0  0  0
   45.0802   10.3774   11.1618 O   0  0  0  0  0  0  0  0  0  0  0  0
   46.2441   10.2299   11.8598 C   0  0  0  0  0  0  0  0  0  0  0  0
   47.2017   11.2179   12.0817 C   0  0  0  0  0  0  0  0  0  0  0  0
   46.4499    8.9490   12.3822 C   0  0  0  0  0  0  0  0  0  0  0  0
   47.6018    8.6540   13.1179 C   0  0  0  0  0  0  0  0  0  0  0  0
   48.5785    9.6378   13.3507 C   0  0  0  0  0  0  0  0  0  0  0  0
   48.3567   10.9216   12.8204 C   0  0  0  0  0  0  0  0  0  0  0  0
   49.7862    9.3384   14.1332 C   0  0  0  0  0  0  0  0  0  0  0  0
   50.1793   10.1287   15.2183 C   0  0  0  0  0  0  0  0  0  0  0  0
   50.5986    8.2432   13.8462 C   0  0  0  0  0  0  0  0  0  0  0  0
   51.7101    7.8948   14.5424 N   0  0  0  0  0  0  0  0  0  0  0  0
   52.0560    8.6811   15.5892 C   0  0  0  0  0  0  0  0  0  0  0  0
   51.3185    9.8016   15.9542 C   0  0  0  0  0  0  0  0  0  0  0  0
   52.7538    8.1708   18.7446 O   0  0  0  0  0  0  0  0  0  0  0  0
   52.8338    7.5746   17.6703 C   0  0  0  0  0  0  0  0  0  0  0  0
   53.2561    8.2588   16.3913 C   0  0  0  0  0  0  0  0  0  0  0  0
   52.0891    5.4340   18.6295 C   0  0  0  0  0  0  0  0  0  0  0  0
   52.5311    6.2434   17.5191 N   0  0  0  0  0  0  0  0  0  0  0  0
   52.3069    2.9404   18.2820 C   0  0  0  0  0  0  0  0  0  0  0  0
   51.5536    4.1146   18.1416 C   0  0  0  0  0  0  0  0  0  0  0  0
   50.3092    4.0573   17.4845 C   0  0  0  0  0  0  0  0  0  0  0  0
   49.8322    2.8526   16.9789 C   0  0  0  0  0  0  0  0  0  0  0  0
   50.5900    1.6907   17.1220 C   0  0  0  0  0  0  0  0  0  0  0  0
   51.8252    1.7330   17.7722 C   0  0  0  0  0  0  0  0  0  0  0  0
   40.5755    9.3350   12.0991 H   0  0  0  0  0  0  0  0  0  0  0  0
   41.0060    9.4520   10.3913 H   0  0  0  0  0  0  0  0  0  0  0  0
   38.9558   12.2298    9.7414 H   0  0  0  0  0  0  0  0  0  0  0  0
   39.7125   12.8051   11.2290 H   0  0  0  0  0  0  0  0  0  0  0  0
   41.1261   11.4166    8.8866 H   0  0  0  0  0  0  0  0  0  0  0  0
   41.2021   13.1467    9.2450 H   0  0  0  0  0  0  0  0  0  0  0  0
   41.6554   11.5373   12.5423 H   0  0  0  0  0  0  0  0  0  0  0  0
   42.7957   10.3524   11.9545 H   0  0  0  0  0  0  0  0  0  0  0  0
   43.3590   10.6110    9.3591 H   0  0  0  0  0  0  0  0  0  0  0  0
   43.5712   12.3297    9.0099 H   0  0  0  0  0  0  0  0  0  0  0  0
   44.7415   12.4195   11.3911 H   0  0  0  0  0  0  0  0  0  0  0  0
   45.5941   11.9300    9.9027 H   0  0  0  0  0  0  0  0  0  0  0  0
   47.0870   12.2283   11.6966 H   0  0  0  0  0  0  0  0  0  0  0  0
   45.7035    8.1728   12.2193 H   0  0  0  0  0  0  0  0  0  0  0  0
   47.7186    7.6487   13.5229 H   0  0  0  0  0  0  0  0  0  0  0  0
   49.0950   11.7097   12.9693 H   0  0  0  0  0  0  0  0  0  0  0  0
   49.5873   10.9907   15.5133 H   0  0  0  0  0  0  0  0  0  0  0  0
   50.3722    7.5846   13.0099 H   0  0  0  0  0  0  0  0  0  0  0  0
   51.6112   10.4005   16.8109 H   0  0  0  0  0  0  0  0  0  0  0  0
   53.8807    9.1262   16.6373 H   0  0  0  0  0  0  0  0  0  0  0  0
   53.8861    7.5740   15.8049 H   0  0  0  0  0  0  0  0  0  0  0  0
   51.3255    5.9769   19.1979 H   0  0  0  0  0  0  0  0  0  0  0  0
   52.9478    5.2911   19.2956 H   0  0  0  0  0  0  0  0  0  0  0  0
   52.5332    5.8356   16.5873 H   0  0  0  0  0  0  0  0  0  0  0  0
   53.2781    2.9685   18.7763 H   0  0  0  0  0  0  0  0  0  0  0  0
   49.7207    4.9649   17.3526 H   0  0  0  0  0  0  0  0  0  0  0  0
   48.8748    2.8176   16.4622 H   0  0  0  0  0  0  0  0  0  0  0  0
   50.2199    0.7548   16.7272 H   0  0  0  0  0  0  0  0  0  0  0  0
   52.4122    0.8218   17.8778 H   0  0  0  0  0  0  0  0  0  0  0  0
  1  2  1  0
  2  3  1  0
  3  4  1  0
  4  5  1  0
  5  6  1  0
  1  6  1  0
  7  8  1  0
  5  7  1  0
  9 10  1  0
 10 11  2  0
  8  9  1  0
 12 13  2  0
 13 14  1  0
 14 15  2  0
 10 12  1  0
 11 15  1  0
 16 17  2  0
 16 14  1  0
 18 19  2  0
 19 20  1  0
 20 21  2  0
 17 21  1  0
 16 18  1  0
 22 23  2  0
 23 24  1  0
 20 24  1  0
 25 26  1  0
 23 26  1  0
 27 28  2  0
 25 28  1  0
 29 30  2  0
 30 31  1  0
 31 32  2  0
 27 32  1  0
 28 29  1  0
  1 33  1  0
  1 34  1  0
  3 35  1  0
  3 36  1  0
  4 37  1  0
  4 38  1  0
  6 39  1  0
  6 40  1  0
  7 41  1  0
  7 42  1  0
  8 43  1  0
  8 44  1  0
 11 45  1  0
 12 46  1  0
 13 47  1  0
 15 48  1  0
 17 49  1  0
 18 50  1  0
 21 51  1  0
 24 52  1  0
 24 53  1  0
 25 54  1  0
 25 55  1  0
 26 56  1  0
 27 57  1  0
 29 58  1  0
 30 59  1  0
 31 60  1  0
 32 61  1  0
M  END
> <Uni-Dock RESULT> 
ENERGY=   -4.311  LOWER_BOUND=    6.836  UPPER_BOUND=    8.569
INTER + INTRA:          -4.311
INTER:                  -4.311
INTRA:                   0.000
UNBOUND:                 0.000

$$$$

     RDKit          3D

 61 64  0  0  0  0  0  0  0  0999 V2000
   41.6079   14.4464    8.3249 C   0  0  0  0  0  0  0  0  0  0  0  0
   40.1961   14.6883    8.4035 O   0  0  0  0  0  0  0  0  0  0  0  0
   39.7349   14.8720    9.7495 C   0  0  0  0  0  0  0  0  0  0  0  0
   40.8349   15.3153   10.7216 C   0  0  0  0  0  0  0  0  0  0  0  0
   41.9276   14.3203   10.8249 N   0  0  0  0  0  0  0  0  0  0  0  0
   42.1392   13.6483    9.5229 C   0  0  0  0  0  0  0  0  0  0  0  0
   43.1450   14.9563   11.3687 C   0  0  0  0  0  0  0  0  0  0  0  0
   44.2409   13.9702   11.8088 C   0  0  0  0  0  0  0  0  0  0  0  0
   45.1363   13.7423   10.7220 O   0  0  0  0  0  0  0  0  0  0  0  0
   46.2063   12.9238   10.9427 C   0  0  0  0  0  0  0  0  0  0  0  0
   46.5205   12.2846   12.1406 C   0  0  0  0  0  0  0  0  0  0  0  0
   47.0358   12.7399    9.8318 C   0  0  0  0  0  0  0  0  0  0  0  0
   48.1709   11.9275    9.9144 C   0  0  0  0  0  0  0  0  0  0  0  0
   48.5037   11.2759   11.1147 C   0  0  0  0  0  0  0  0  0  0  0  0
   47.6590   11.4693   12.2227 C   0  0  0  0  0  0  0  0  0  0  0  0
   49.6885   10.4109   11.2058 C   0  0  0  0  0  0  0  0  0  0  0  0
   49.6133    9.1024   11.6944 C   0  0  0  0  0  0  0  0  0  0  0  0
   50.9494   10.8415   10.7976 C   0  0  0  0  0  0  0  0  0  0  0  0
   52.0775   10.0878   10.8297 N   0  0  0  0  0  0  0  0  0  0  0  0
   51.9640    8.8247   11.3045 C   0  0  0  0  0  0  0  0  0  0  0  0
   50.7540    8.3007   11.7446 C   0  0  0  0  0  0  0  0  0  0  0  0
   52.8025    5.8537   10.2208 O   0  0  0  0  0  0  0  0  0  0  0  0
   53.1844    7.0195   10.1159 C   0  0  0  0  0  0  0  0  0  0  0  0
   53.2053    7.9756   11.2855 C   0  0  0  0  0  0  0  0  0  0  0  0
   53.6353    6.8146    7.7052 C   0  0  0  0  0  0  0  0  0  0  0  0
   53.6078    7.5736    8.9326 N   0  0  0  0  0  0  0  0  0  0  0  0
   55.1028    7.7807    5.8889 C   0  0  0  0  0  0  0  0  0  0  0  0
   53.8552    7.7239    6.5262 C   0  0  0  0  0  0  0  0  0  0  0  0
   52.8206    8.5726    6.0866 C   0  0  0  0  0  0  0  0  0  0  0  0
   53.0321    9.4580    5.0350 C   0  0  0  0  0  0  0  0  0  0  0  0
   54.2773    9.5081    4.4091 C   0  0  0  0  0  0  0  0  0  0  0  0
   55.3116    8.6716    4.8341 C   0  0  0  0  0  0  0  0  0  0  0  0
   41.7961   13.8971    7.3940 H   0  0  0  0  0  0  0  0  0  0  0  0
   42.1178   15.4115    8.2418 H   0  0  0  0  0  0  0  0  0  0  0  0
   38.9383   15.6237    9.7209 H   0  0  0  0  0  0  0  0  0  0  0  0
   39.2827   13.9302   10.0820 H   0  0  0  0  0  0  0  0  0  0  0  0
   41.2246   16.2867   10.3806 H   0  0  0  0  0  0  0  0  0  0  0  0
   40.4006   15.4667   11.7133 H   0  0  0  0  0  0  0  0  0  0  0  0
   41.5914   12.6995    9.5704 H   0  0  0  0  0  0  0  0  0  0  0  0
   43.1819   13.3840    9.3436 H   0  0  0  0  0  0  0  0  0  0  0  0
   43.5515   15.6789   10.6540 H   0  0  0  0  0  0  0  0  0  0  0  0
   42.8552   15.5097   12.2687 H   0  0  0  0  0  0  0  0  0  0  0  0
   43.7972   13.0306   12.1496 H   0  0  0  0  0  0  0  0  0  0  0  0
   44.7907   14.4295   12.6374 H   0  0  0  0  0  0  0  0  0  0  0  0
   45.9070   12.3961   13.0314 H   0  0  0  0  0  0  0  0  0  0  0  0
   46.7939   13.2302    8.8899 H   0  0  0  0  0  0  0  0  0  0  0  0
   48.7835   11.7954    9.0224 H   0  0  0  0  0  0  0  0  0  0  0  0
   47.8879   10.9905   13.1748 H   0  0  0  0  0  0  0  0  0  0  0  0
   48.6611    8.6901   12.0165 H   0  0  0  0  0  0  0  0  0  0  0  0
   51.0985   11.8504   10.4177 H   0  0  0  0  0  0  0  0  0  0  0  0
   50.6922    7.2774   12.1014 H   0  0  0  0  0  0  0  0  0  0  0  0
   53.2953    7.4025   12.2163 H   0  0  0  0  0  0  0  0  0  0  0  0
   54.1014    8.6099   11.2189 H   0  0  0  0  0  0  0  0  0  0  0  0
   52.6973    6.2581    7.5971 H   0  0  0  0  0  0  0  0  0  0  0  0
   54.4410    6.0766    7.7920 H   0  0  0  0  0  0  0  0  0  0  0  0
   53.8252    8.5666    8.8981 H   0  0  0  0  0  0  0  0  0  0  0  0
   55.9188    7.1404    6.2243 H   0  0  0  0  0  0  0  0  0  0  0  0
   51.8511    8.5520    6.5836 H   0  0  0  0  0  0  0  0  0  0  0  0
   52.2316   10.1191    4.7078 H   0  0  0  0  0  0  0  0  0  0  0  0
   54.4419   10.1978    3.5930 H   0  0  0  0  0  0  0  0  0  0  0  0
   56.2819    8.7184    4.3418 H   0  0  0  0  0  0  0  0  0  0  0  0
  1  2  1  0
  2  3  1  0
  3  4  1  0
  4  5  1  0
  5  6  1  0
  1  6  1  0
  7  8  1  0
  5  7  1  0
  9 10  1  0
 10 11  2  0
  8  9  1  0
 12 13  2  0
 13 14  1  0
 14 15  2  0
 10 12  1  0
 11 15  1  0
 16 17  2  0
 16 14  1  0
 18 19  2  0
 19 20  1  0
 20 21  2  0
 17 21  1  0
 16 18  1  0
 22 23  2  0
 23 24  1  0
 20 24  1  0
 25 26  1  0
 23 26  1  0
 27 28  2  0
 25 28  1  0
 29 30  2  0
 30 31  1  0
 31 32  2  0
 27 32  1  0
 28 29  1  0
  1 33  1  0
  1 34  1  0
  3 35  1  0
  3 36  1  0
  4 37  1  0
  4 38  1  0
  6 39  1  0
  6 40  1  0
  7 41  1  0
  7 42  1  0
  8 43  1  0
  8 44  1  0
 11 45  1  0
 12 46  1  0
 13 47  1  0
 15 48  1  0
 17 49  1  0
 18 50  1  0
 21 51  1  0
 24 52  1  0
 24 53  1  0
 25 54  1  0
 25 55  1  0
 26 56  1  0
 27 57  1  0
 29 58  1  0
 30 59  1  0
 31 60  1  0
 32 61  1  0
M  END
> <Uni-Dock RESULT> 
ENERGY=   -3.949  LOWER_BOUND=    6.253  UPPER_BOUND=    7.116
INTER + INTRA:          -3.949
INTER:                  -3.949
INTRA:                   0.000
UNBOUND:                 0.000

$$$$

     RDKit          3D

 61 64  0  0  0  0  0  0  0  0999 V2000
   51.2668   10.9114   21.5284 C   0  0  0  0  0  0  0  0  0  0  0  0
   52.4415   10.3052   22.0855 O   0  0  0  0  0  0  0  0  0  0  0  0
   53.6552   10.9308   21.6455 C   0  0  0  0  0  0  0  0  0  0  0  0
   53.4634   12.3732   21.1615 C   0  0  0  0  0  0  0  0  0  0  0  0
   52.5470   12.4590   20.0006 N   0  0  0  0  0  0  0  0  0  0  0  0
   51.4882   11.4292   20.1011 C   0  0  0  0  0  0  0  0  0  0  0  0
   52.0254   13.8344   19.8648 C   0  0  0  0  0  0  0  0  0  0  0  0
   51.3158   14.1216   18.5302 C   0  0  0  0  0  0  0  0  0  0  0  0
   49.9201   13.8637   18.6716 O   0  0  0  0  0  0  0  0  0  0  0  0
   49.1175   14.1089   17.5948 C   0  0  0  0  0  0  0  0  0  0  0  0
   49.5284   14.5985   16.3564 C   0  0  0  0  0  0  0  0  0  0  0  0
   47.7637   13.8260   17.8030 C   0  0  0  0  0  0  0  0  0  0  0  0
   46.8263   14.0318   16.7861 C   0  0  0  0  0  0  0  0  0  0  0  0
   47.2226   14.5259   15.5312 C   0  0  0  0  0  0  0  0  0  0  0  0
   48.5876   14.8041   15.3365 C   0  0  0  0  0  0  0  0  0  0  0  0
   46.2448   14.7334   14.4537 C   0  0  0  0  0  0  0  0  0  0  0  0
   46.4291   14.1986   13.1744 C   0  0  0  0  0  0  0  0  0  0  0  0
   45.0737   15.4626   14.6505 C   0  0  0  0  0  0  0  0  0  0  0  0
   44.1183   15.6700   13.7093 N   0  0  0  0  0  0  0  0  0  0  0  0
   44.3298   15.1325   12.4845 C   0  0  0  0  0  0  0  0  0  0  0  0
   45.4687   14.3951   12.1817 C   0  0  0  0  0  0  0  0  0  0  0  0
   42.6113   13.2208   10.4605 O   0  0  0  0  0  0  0  0  0  0  0  0
   42.4074   14.0652   11.3331 C   0  0  0  0  0  0  0  0  0  0  0  0
   43.2424   15.3177   11.4622 C   0  0  0  0  0  0  0  0  0  0  0  0
   40.5409   12.8070   12.3280 C   0  0  0  0  0  0  0  0  0  0  0  0
   41.4227   13.9489   12.2835 N   0  0  0  0  0  0  0  0  0  0  0  0
   38.4116   13.1571   13.6431 C   0  0  0  0  0  0  0  0  0  0  0  0
   39.7642   12.7888   13.6171 C   0  0  0  0  0  0  0  0  0  0  0  0
   40.4081   12.4552   14.8245 C   0  0  0  0  0  0  0  0  0  0  0  0
   39.7135   12.4916   16.0290 C   0  0  0  0  0  0  0  0  0  0  0  0
   38.3688   12.8610   16.0443 C   0  0  0  0  0  0  0  0  0  0  0  0
   37.7178   13.1933   14.8544 C   0  0  0  0  0  0  0  0  0  0  0  0
   50.4719   10.1551   21.5349 H   0  0  0  0  0  0  0  0  0  0  0  0
   50.9502   11.7217   22.1929 H   0  0  0  0  0  0  0  0  0  0  0  0
   54.3556   10.9108   22.4878 H   0  0  0  0  0  0  0  0  0  0  0  0
   54.0844   10.3107   20.8498 H   0  0  0  0  0  0  0  0  0  0  0  0
   53.0813   12.9708   22.0033 H   0  0  0  0  0  0  0  0  0  0  0  0
   54.4330   12.7906   20.8773 H   0  0  0  0  0  0  0  0  0  0  0  0
   51.8144   10.5867   19.4796 H   0  0  0  0  0  0  0  0  0  0  0  0
   50.5341   11.7563   19.6863 H   0  0  0  0  0  0  0  0  0  0  0  0
   51.3661   14.0786   20.7038 H   0  0  0  0  0  0  0  0  0  0  0  0
   52.8805   14.5181   19.9074 H   0  0  0  0  0  0  0  0  0  0  0  0
   51.7439   13.5122   17.7293 H   0  0  0  0  0  0  0  0  0  0  0  0
   51.4637   15.1809   18.2942 H   0  0  0  0  0  0  0  0  0  0  0  0
   50.5692   14.8330   16.1460 H   0  0  0  0  0  0  0  0  0  0  0  0
   47.4350   13.4367   18.7655 H   0  0  0  0  0  0  0  0  0  0  0  0
   45.7828   13.7839   16.9811 H   0  0  0  0  0  0  0  0  0  0  0  0
   48.9343   15.1989   14.3814 H   0  0  0  0  0  0  0  0  0  0  0  0
   47.3103   13.6043   12.9491 H   0  0  0  0  0  0  0  0  0  0  0  0
   44.8591   15.9245   15.6123 H   0  0  0  0  0  0  0  0  0  0  0  0
   45.5994   13.9605   11.1957 H   0  0  0  0  0  0  0  0  0  0  0  0
   43.6708   15.5661   10.4835 H   0  0  0  0  0  0  0  0  0  0  0  0
   42.5924   16.1591   11.7436 H   0  0  0  0  0  0  0  0  0  0  0  0
   41.1259   11.8873   12.2138 H   0  0  0  0  0  0  0  0  0  0  0  0
   39.8711   12.8738   11.4629 H   0  0  0  0  0  0  0  0  0  0  0  0
   41.3664   14.6391   13.0285 H   0  0  0  0  0  0  0  0  0  0  0  0
   37.9006   13.4309   12.7199 H   0  0  0  0  0  0  0  0  0  0  0  0
   41.4635   12.1840   14.8221 H   0  0  0  0  0  0  0  0  0  0  0  0
   40.2202   12.2435   16.9598 H   0  0  0  0  0  0  0  0  0  0  0  0
   37.8297   12.8911   16.9809 H   0  0  0  0  0  0  0  0  0  0  0  0
   36.6683   13.4832   14.8749 H   0  0  0  0  0  0  0  0  0  0  0  0
  1  2  1  0
  2  3  1  0
  3  4  1  0
  4  5  1  0
  5  6  1  0
  1  6  1  0
  7  8  1  0
  5  7  1  0
  9 10  1  0
 10 11  2  0
  8  9  1  0
 12 13  2  0
 13 14  1  0
 14 15  2  0
 10 12  1  0
 11 15  1  0
 16 17  2  0
 16 14  1  0
 18 19  2  0
 19 20  1  0
 20 21  2  0
 17 21  1  0
 16 18  1  0
 22 23  2  0
 23 24  1  0
 20 24  1  0
 25 26  1  0
 23 26  1  0
 27 28  2  0
 25 28  1  0
 29 30  2  0
 30 31  1  0
 31 32  2  0
 27 32  1  0
 28 29  1  0
  1 33  1  0
  1 34  1  0
  3 35  1  0
  3 36  1  0
  4 37  1  0
  4 38  1  0
  6 39  1  0
  6 40  1  0
  7 41  1  0
  7 42  1  0
  8 43  1  0
  8 44  1  0
 11 45  1  0
 12 46  1  0
 13 47  1  0
 15 48  1  0
 17 49  1  0
 18 50  1  0
 21 51  1  0
 24 52  1  0
 24 53  1  0
 25 54  1  0
 25 55  1  0
 26 56  1  0
 27 57  1  0
 29 58  1  0
 30 59  1  0
 31 60  1  0
 32 61  1  0
M  END
> <Uni-Dock RESULT> 
ENERGY=   -3.914  LOWER_BOUND=    8.537  UPPER_BOUND=   13.333
INTER + INTRA:          -3.914
INTER:                  -3.914
INTRA:                   0.000
UNBOUND:                 0.000

$$$$

     RDKit          3D

 61 64  0  0  0  0  0  0  0  0999 V2000
   55.2249    1.7994   17.8801 C   0  0  0  0  0  0  0  0  0  0  0  0
   55.8896    0.5699   18.2031 O   0  0  0  0  0  0  0  0  0  0  0  0
   54.9800   -0.5215   18.4016 C   0  0  0  0  0  0  0  0  0  0  0  0
   53.6212   -0.3216   17.7195 C   0  0  0  0  0  0  0  0  0  0  0  0
   52.9054    0.8700   18.2320 N   0  0  0  0  0  0  0  0  0  0  0  0
   53.8671    1.9399   18.5809 C   0  0  0  0  0  0  0  0  0  0  0  0
   51.8697    1.2948   17.2681 C   0  0  0  0  0  0  0  0  0  0  0  0
   50.8635    2.3199   17.8194 C   0  0  0  0  0  0  0  0  0  0  0  0
   51.3274    3.6383   17.5345 O   0  0  0  0  0  0  0  0  0  0  0  0
   50.5354    4.6846   17.9108 C   0  0  0  0  0  0  0  0  0  0  0  0
   49.2993    4.5938   18.5481 C   0  0  0  0  0  0  0  0  0  0  0  0
   51.0568    5.9464   17.6071 C   0  0  0  0  0  0  0  0  0  0  0  0
   50.3510    7.1085   17.9336 C   0  0  0  0  0  0  0  0  0  0  0  0
   49.1025    7.0358   18.5756 C   0  0  0  0  0  0  0  0  0  0  0  0
   48.5921    5.7599   18.8759 C   0  0  0  0  0  0  0  0  0  0  0  0
   48.3603    8.2532   18.9325 C   0  0  0  0  0  0  0  0  0  0  0  0
   47.8809    8.4742   20.2278 C   0  0  0  0  0  0  0  0  0  0  0  0
   48.1053    9.2606   18.0041 C   0  0  0  0  0  0  0  0  0  0  0  0
   47.4508   10.4189   18.2723 N   0  0  0  0  0  0  0  0  0  0  0  0
   47.0060   10.5989   19.5386 C   0  0  0  0  0  0  0  0  0  0  0  0
   47.2009    9.6523   20.5378 C   0  0  0  0  0  0  0  0  0  0  0  0
   47.2916   12.9601   21.7853 O   0  0  0  0  0  0  0  0  0  0  0  0
   47.2755   12.8452   20.5595 C   0  0  0  0  0  0  0  0  0  0  0  0
   46.3311   11.9078   19.8440 C   0  0  0  0  0  0  0  0  0  0  0  0
   49.1038   14.4599   20.2323 C   0  0  0  0  0  0  0  0  0  0  0  0
   48.1195   13.5347   19.7236 N   0  0  0  0  0  0  0  0  0  0  0  0
   49.9943   16.1064   18.5347 C   0  0  0  0  0  0  0  0  0  0  0  0
   50.0736   14.8485   19.1488 C   0  0  0  0  0  0  0  0  0  0  0  0
   51.0379   13.9252   18.7001 C   0  0  0  0  0  0  0  0  0  0  0  0
   51.9007   14.2542   17.6600 C   0  0  0  0  0  0  0  0  0  0  0  0
   51.8125   15.5074   17.0546 C   0  0  0  0  0  0  0  0  0  0  0  0
   50.8615   16.4328   17.4901 C   0  0  0  0  0  0  0  0  0  0  0  0
   55.8888    2.6204   18.1786 H   0  0  0  0  0  0  0  0  0  0  0  0
   55.1103    1.8528   16.7927 H   0  0  0  0  0  0  0  0  0  0  0  0
   55.4636   -1.4235   18.0105 H   0  0  0  0  0  0  0  0  0  0  0  0
   54.8528   -0.6618   19.4814 H   0  0  0  0  0  0  0  0  0  0  0  0
   53.7895   -0.2373   16.6349 H   0  0  0  0  0  0  0  0  0  0  0  0
   52.9999   -1.2054   17.8867 H   0  0  0  0  0  0  0  0  0  0  0  0
   54.0327    1.8683   19.6625 H   0  0  0  0  0  0  0  0  0  0  0  0
   53.4739    2.9416   18.4033 H   0  0  0  0  0  0  0  0  0  0  0  0
   52.3321    1.6742   16.3514 H   0  0  0  0  0  0  0  0  0  0  0  0
   51.2841    0.4085   16.9998 H   0  0  0  0  0  0  0  0  0  0  0  0
   50.7250    2.1813   18.8953 H   0  0  0  0  0  0  0  0  0  0  0  0
   49.9075    2.1572   17.3099 H   0  0  0  0  0  0  0  0  0  0  0  0
   48.8526    3.6363   18.8051 H   0  0  0  0  0  0  0  0  0  0  0  0
   52.0251    6.0267   17.1153 H   0  0  0  0  0  0  0  0  0  0  0  0
   50.7977    8.0740   17.6956 H   0  0  0  0  0  0  0  0  0  0  0  0
   47.6223    5.6599   19.3636 H   0  0  0  0  0  0  0  0  0  0  0  0
   48.0550    7.7411   21.0107 H   0  0  0  0  0  0  0  0  0  0  0  0
   48.4316    9.1625   16.9705 H   0  0  0  0  0  0  0  0  0  0  0  0
   46.8492    9.8352   21.5483 H   0  0  0  0  0  0  0  0  0  0  0  0
   45.4429   11.7480   20.4673 H   0  0  0  0  0  0  0  0  0  0  0  0
   45.9823   12.3838   18.9158 H   0  0  0  0  0  0  0  0  0  0  0  0
   49.6297   14.0063   21.0800 H   0  0  0  0  0  0  0  0  0  0  0  0
   48.5665   15.3349   20.6156 H   0  0  0  0  0  0  0  0  0  0  0  0
   48.1132   13.3263   18.7281 H   0  0  0  0  0  0  0  0  0  0  0  0
   49.2455   16.8287   18.8603 H   0  0  0  0  0  0  0  0  0  0  0  0
   51.0998   12.9374   19.1562 H   0  0  0  0  0  0  0  0  0  0  0  0
   52.6362   13.5318   17.3107 H   0  0  0  0  0  0  0  0  0  0  0  0
   52.4819   15.7621   16.2448 H   0  0  0  0  0  0  0  0  0  0  0  0
   50.7972   17.4084   17.0105 H   0  0  0  0  0  0  0  0  0  0  0  0
  1  2  1  0
  2  3  1  0
  3  4  1  0
  4  5  1  0
  5  6  1  0
  1  6  1  0
  7  8  1  0
  5  7  1  0
  9 10  1  0
 10 11  2  0
  8  9  1  0
 12 13  2  0
 13 14  1  0
 14 15  2  0
 10 12  1  0
 11 15  1  0
 16 17  2  0
 16 14  1  0
 18 19  2  0
 19 20  1  0
 20 21  2  0
 17 21  1  0
 16 18  1  0
 22 23  2  0
 23 24  1  0
 20 24  1  0
 25 26  1  0
 23 26  1  0
 27 28  2  0
 25 28  1  0
 29 30  2  0
 30 31  1  0
 31 32  2  0
 27 32  1  0
 28 29  1  0
  1 33  1  0
  1 34  1  0
  3 35  1  0
  3 36  1  0
  4 37  1  0
  4 38  1  0
  6 39  1  0
  6 40  1  0
  7 41  1  0
  7 42  1  0
  8 43  1  0
  8 44  1  0
 11 45  1  0
 12 46  1  0
 13 47  1  0
 15 48  1  0
 17 49  1  0
 18 50  1  0
 21 51  1  0
 24 52  1  0
 24 53  1  0
 25 54  1  0
 25 55  1  0
 26 56  1  0
 27 57  1  0
 29 58  1  0
 30 59  1  0
 31 60  1  0
 32 61  1  0
M  END
> <Uni-Dock RESULT> 
ENERGY=   -3.898  LOWER_BOUND=   11.121  UPPER_BOUND=   16.166
INTER + INTRA:          -3.898
INTER:                  -3.898
INTRA:                   0.000
UNBOUND:                 0.000

$$$$

     RDKit          3D

 61 64  0  0  0  0  0  0  0  0999 V2000
   56.4605    2.7224   15.9813 C   0  0  0  0  0  0  0  0  0  0  0  0
   57.6285    1.9066   16.1484 O   0  0  0  0  0  0  0  0  0  0  0  0
   57.4509    0.8697   17.1239 C   0  0  0  0  0  0  0  0  0  0  0  0
   55.9831    0.4961   17.3641 C   0  0  0  0  0  0  0  0  0  0  0  0
   55.1886    1.6385   17.8722 N   0  0  0  0  0  0  0  0  0  0  0  0
   55.6764    2.9079   17.2872 C   0  0  0  0  0  0  0  0  0  0  0  0
   53.7487    1.3967   17.6474 C   0  0  0  0  0  0  0  0  0  0  0  0
   52.8125    2.3572   18.4012 C   0  0  0  0  0  0  0  0  0  0  0  0
   52.5093    3.4738   17.5671 O   0  0  0  0  0  0  0  0  0  0  0  0
   51.6486    4.4146   18.0547 C   0  0  0  0  0  0  0  0  0  0  0  0
   51.0225    4.3911   19.2996 C   0  0  0  0  0  0  0  0  0  0  0  0
   51.4041    5.4838   17.1868 C   0  0  0  0  0  0  0  0  0  0  0  0
   50.5406    6.5200   17.5552 C   0  0  0  0  0  0  0  0  0  0  0  0
   49.8997    6.5121   18.8063 C   0  0  0  0  0  0  0  0  0  0  0  0
   50.1569    5.4312   19.6689 C   0  0  0  0  0  0  0  0  0  0  0  0
   49.0000    7.6038   19.2053 C   0  0  0  0  0  0  0  0  0  0  0  0
   49.1535    8.2829   20.4185 C   0  0  0  0  0  0  0  0  0  0  0  0
   47.9530    8.0317   18.3913 C   0  0  0  0  0  0  0  0  0  0  0  0
   47.1034    9.0482   18.6858 N   0  0  0  0  0  0  0  0  0  0  0  0
   47.2867    9.6848   19.8668 C   0  0  0  0  0  0  0  0  0  0  0  0
   48.2959    9.3306   20.7548 C   0  0  0  0  0  0  0  0  0  0  0  0
   47.6310   12.8037   20.7934 O   0  0  0  0  0  0  0  0  0  0  0  0
   47.0805   12.1580   19.9011 C   0  0  0  0  0  0  0  0  0  0  0  0
   46.3782   10.8463   20.1628 C   0  0  0  0  0  0  0  0  0  0  0  0
   47.7045   13.7650   18.1447 C   0  0  0  0  0  0  0  0  0  0  0  0
   47.0647   12.5481   18.5842 N   0  0  0  0  0  0  0  0  0  0  0  0
   46.9295   14.6233   15.8977 C   0  0  0  0  0  0  0  0  0  0  0  0
   47.7901   13.8044   16.6425 C   0  0  0  0  0  0  0  0  0  0  0  0
   48.7015   12.9711   15.9653 C   0  0  0  0  0  0  0  0  0  0  0  0
   48.7481   12.9577   14.5753 C   0  0  0  0  0  0  0  0  0  0  0  0
   47.8866   13.7747   13.8437 C   0  0  0  0  0  0  0  0  0  0  0  0
   46.9785   14.6064   14.5023 C   0  0  0  0  0  0  0  0  0  0  0  0
   56.7915    3.6964   15.6000 H   0  0  0  0  0  0  0  0  0  0  0  0
   55.8313    2.2678   15.2095 H   0  0  0  0  0  0  0  0  0  0  0  0
   58.0054   -0.0071   16.7716 H   0  0  0  0  0  0  0  0  0  0  0  0
   57.9224    1.2006   18.0566 H   0  0  0  0  0  0  0  0  0  0  0  0
   55.5640    0.1214   16.4177 H   0  0  0  0  0  0  0  0  0  0  0  0
   55.9325   -0.3196   18.0901 H   0  0  0  0  0  0  0  0  0  0  0  0
   56.3501    3.3532   18.0290 H   0  0  0  0  0  0  0  0  0  0  0  0
   54.8816    3.6374   17.1276 H   0  0  0  0  0  0  0  0  0  0  0  0
   53.5208    1.4091   16.5769 H   0  0  0  0  0  0  0  0  0  0  0  0
   53.5195    0.3929   18.0219 H   0  0  0  0  0  0  0  0  0  0  0  0
   53.2728    2.6857   19.3373 H   0  0  0  0  0  0  0  0  0  0  0  0
   51.8878    1.8148   18.6261 H   0  0  0  0  0  0  0  0  0  0  0  0
   51.1808    3.5822   20.0089 H   0  0  0  0  0  0  0  0  0  0  0  0
   51.8945    5.5135   16.2148 H   0  0  0  0  0  0  0  0  0  0  0  0
   50.3881    7.3442   16.8583 H   0  0  0  0  0  0  0  0  0  0  0  0
   49.6713    5.3821   20.6436 H   0  0  0  0  0  0  0  0  0  0  0  0
   49.9575    8.0168   21.0991 H   0  0  0  0  0  0  0  0  0  0  0  0
   47.7551    7.5482   17.4366 H   0  0  0  0  0  0  0  0  0  0  0  0
   48.4289    9.8737   21.6851 H   0  0  0  0  0  0  0  0  0  0  0  0
   46.0451   10.8194   21.2075 H   0  0  0  0  0  0  0  0  0  0  0  0
   45.4718   10.7905   19.5424 H   0  0  0  0  0  0  0  0  0  0  0  0
   48.7020   13.8373   18.5927 H   0  0  0  0  0  0  0  0  0  0  0  0
   47.1152   14.6051   18.5301 H   0  0  0  0  0  0  0  0  0  0  0  0
   46.6692   11.9239   17.8853 H   0  0  0  0  0  0  0  0  0  0  0  0
   46.2089   15.2650   16.4049 H   0  0  0  0  0  0  0  0  0  0  0  0
   49.3644   12.3164   16.5304 H   0  0  0  0  0  0  0  0  0  0  0  0
   49.4471   12.3029   14.0581 H   0  0  0  0  0  0  0  0  0  0  0  0
   47.9216   13.7626   12.7632 H   0  0  0  0  0  0  0  0  0  0  0  0
   46.3074   15.2397   13.9239 H   0  0  0  0  0  0  0  0  0  0  0  0
  1  2  1  0
  2  3  1  0
  3  4  1  0
  4  5  1  0
  5  6  1  0
  1  6  1  0
  7  8  1  0
  5  7  1  0
  9 10  1  0
 10 11  2  0
  8  9  1  0
 12 13  2  0
 13 14  1  0
 14 15  2  0
 10 12  1  0
 11 15  1  0
 16 17  2  0
 16 14  1  0
 18 19  2  0
 19 20  1  0
 20 21  2  0
 17 21  1  0
 16 18  1  0
 22 23  2  0
 23 24  1  0
 20 24  1  0
 25 26  1  0
 23 26  1  0
 27 28  2  0
 25 28  1  0
 29 30  2  0
 30 31  1  0
 31 32  2  0
 27 32  1  0
 28 29  1  0
  1 33  1  0
  1 34  1  0
  3 35  1  0
  3 36  1  0
  4 37  1  0
  4 38  1  0
  6 39  1  0
  6 40  1  0
  7 41  1  0
  7 42  1  0
  8 43  1  0
  8 44  1  0
 11 45  1  0
 12 46  1  0
 13 47  1  0
 15 48  1  0
 17 49  1  0
 18 50  1  0
 21 51  1  0
 24 52  1  0
 24 53  1  0
 25 54  1  0
 25 55  1  0
 26 56  1  0
 27 57  1  0
 29 58  1  0
 30 59  1  0
 31 60  1  0
 32 61  1  0
M  END
> <Uni-Dock RESULT> 
ENERGY=   -3.890  LOWER_BOUND=    9.999  UPPER_BOUND=   15.644
INTER + INTRA:          -3.890
INTER:                  -3.890
INTRA:                   0.000
UNBOUND:                 0.000

$$$$

     RDKit          3D

 61 64  0  0  0  0  0  0  0  0999 V2000
   54.7236    9.3487    6.7458 C   0  0  0  0  0  0  0  0  0  0  0  0
   55.7562    8.4249    6.3744 O   0  0  0  0  0  0  0  0  0  0  0  0
   55.7296    8.0883    4.9801 C   0  0  0  0  0  0  0  0  0  0  0  0
   55.0266    9.1354    4.1078 C   0  0  0  0  0  0  0  0  0  0  0  0
   53.6052    9.3170    4.4839 N   0  0  0  0  0  0  0  0  0  0  0  0
   53.4312    9.1455    5.9440 C   0  0  0  0  0  0  0  0  0  0  0  0
   53.1056   10.6107    3.9751 C   0  0  0  0  0  0  0  0  0  0  0  0
   51.5769   10.7744    4.0324 C   0  0  0  0  0  0  0  0  0  0  0  0
   51.2133   11.3925    5.2654 O   0  0  0  0  0  0  0  0  0  0  0  0
   49.8913   11.6616    5.4744 C   0  0  0  0  0  0  0  0  0  0  0  0
   48.8473   11.3957    4.5903 C   0  0  0  0  0  0  0  0  0  0  0  0
   49.6080   12.2598    6.7065 C   0  0  0  0  0  0  0  0  0  0  0  0
   48.2952   12.5929    7.0539 C   0  0  0  0  0  0  0  0  0  0  0  0
   47.2300   12.3330    6.1741 C   0  0  0  0  0  0  0  0  0  0  0  0
   47.5304   11.7294    4.9396 C   0  0  0  0  0  0  0  0  0  0  0  0
   45.8460   12.6694    6.5374 C   0  0  0  0  0  0  0  0  0  0  0  0
   44.8118   11.7308    6.4595 C   0  0  0  0  0  0  0  0  0  0  0  0
   45.4902   13.9375    6.9923 C   0  0  0  0  0  0  0  0  0  0  0  0
   44.2397   14.3071    7.3685 N   0  0  0  0  0  0  0  0  0  0  0  0
   43.2661   13.3697    7.2839 C   0  0  0  0  0  0  0  0  0  0  0  0
   43.5137   12.0775    6.8351 C   0  0  0  0  0  0  0  0  0  0  0  0
   41.0094   12.1758    9.3300 O   0  0  0  0  0  0  0  0  0  0  0  0
   41.6232   13.2260    9.1388 C   0  0  0  0  0  0  0  0  0  0  0  0
   41.8943   13.7678    7.7548 C   0  0  0  0  0  0  0  0  0  0  0  0
   41.9941   13.6235   11.5391 C   0  0  0  0  0  0  0  0  0  0  0  0
   42.1382   13.9969   10.1522 N   0  0  0  0  0  0  0  0  0  0  0  0
   42.3513   15.5031   13.1900 C   0  0  0  0  0  0  0  0  0  0  0  0
   42.8855   14.4683   12.4092 C   0  0  0  0  0  0  0  0  0  0  0  0
   44.2789   14.2628   12.4025 C   0  0  0  0  0  0  0  0  0  0  0  0
   45.1165   15.0758   13.1587 C   0  0  0  0  0  0  0  0  0  0  0  0
   44.5753   16.1036   13.9305 C   0  0  0  0  0  0  0  0  0  0  0  0
   43.1955   16.3179   13.9471 C   0  0  0  0  0  0  0  0  0  0  0  0
   54.5276    9.2098    7.8163 H   0  0  0  0  0  0  0  0  0  0  0  0
   55.1084   10.3652    6.6148 H   0  0  0  0  0  0  0  0  0  0  0  0
   56.7689    7.9694    4.6541 H   0  0  0  0  0  0  0  0  0  0  0  0
   55.2423    7.1115    4.8787 H   0  0  0  0  0  0  0  0  0  0  0  0
   55.5769   10.0845    4.1983 H   0  0  0  0  0  0  0  0  0  0  0  0
   55.0777    8.8260    3.0605 H   0  0  0  0  0  0  0  0  0  0  0  0
   53.0935    8.1135    6.0975 H   0  0  0  0  0  0  0  0  0  0  0  0
   52.6484    9.7820    6.3581 H   0  0  0  0  0  0  0  0  0  0  0  0
   53.5945   11.4411    4.4945 H   0  0  0  0  0  0  0  0  0  0  0  0
   53.3787   10.6774    2.9162 H   0  0  0  0  0  0  0  0  0  0  0  0
   51.0829    9.8047    3.9239 H   0  0  0  0  0  0  0  0  0  0  0  0
   51.2790   11.4244    3.2026 H   0  0  0  0  0  0  0  0  0  0  0  0
   49.0167   10.9319    3.6215 H   0  0  0  0  0  0  0  0  0  0  0  0
   50.4170   12.4649    7.4061 H   0  0  0  0  0  0  0  0  0  0  0  0
   48.1123   13.0428    8.0298 H   0  0  0  0  0  0  0  0  0  0  0  0
   46.7343   11.5211    4.2248 H   0  0  0  0  0  0  0  0  0  0  0  0
   45.0147   10.7158    6.1290 H   0  0  0  0  0  0  0  0  0  0  0  0
   46.2313   14.7308    7.0698 H   0  0  0  0  0  0  0  0  0  0  0  0
   42.7152   11.3432    6.7975 H   0  0  0  0  0  0  0  0  0  0  0  0
   41.1264   13.3946    7.0663 H   0  0  0  0  0  0  0  0  0  0  0  0
   41.7980   14.8633    7.7693 H   0  0  0  0  0  0  0  0  0  0  0  0
   42.2294   12.5598   11.6587 H   0  0  0  0  0  0  0  0  0  0  0  0
   40.9395   13.7538   11.8077 H   0  0  0  0  0  0  0  0  0  0  0  0
   42.7106   14.8051    9.9206 H   0  0  0  0  0  0  0  0  0  0  0  0
   41.2764   15.6849   13.1972 H   0  0  0  0  0  0  0  0  0  0  0  0
   44.7100   13.4736   11.7870 H   0  0  0  0  0  0  0  0  0  0  0  0
   46.1934   14.9186   13.1401 H   0  0  0  0  0  0  0  0  0  0  0  0
   45.2268   16.7366   14.5166 H   0  0  0  0  0  0  0  0  0  0  0  0
   42.7807   17.1241   14.5504 H   0  0  0  0  0  0  0  0  0  0  0  0
  1  2  1  0
  2  3  1  0
  3  4  1  0
  4  5  1  0
  5  6  1  0
  1  6  1  0
  7  8  1  0
  5  7  1  0
  9 10  1  0
 10 11  2  0
  8  9  1  0
 12 13  2  0
 13 14  1  0
 14 15  2  0
 10 12  1  0
 11 15  1  0
 16 17  2  0
 16 14  1  0
 18 19  2  0
 19 20  1  0
 20 21  2  0
 17 21  1  0
 16 18  1  0
 22 23  2  0
 23 24  1  0
 20 24  1  0
 25 26  1  0
 23 26  1  0
 27 28  2  0
 25 28  1  0
 29 30  2  0
 30 31  1  0
 31 32  2  0
 27 32  1  0
 28 29  1  0
  1 33  1  0
  1 34  1  0
  3 35  1  0
  3 36  1  0
  4 37  1  0
  4 38  1  0
  6 39  1  0
  6 40  1  0
  7 41  1  0
  7 42  1  0
  8 43  1  0
  8 44  1  0
 11 45  1  0
 12 46  1  0
 13 47  1  0
 15 48  1  0
 17 49  1  0
 18 50  1  0
 21 51  1  0
 24 52  1  0
 24 53  1  0
 25 54  1  0
 25 55  1  0
 26 56  1  0
 27 57  1  0
 29 58  1  0
 30 59  1  0
 31 60  1  0
 32 61  1  0
M  END
> <Uni-Dock RESULT> 
ENERGY=   -3.866  LOWER_BOUND=    6.889  UPPER_BOUND=   11.932
INTER + INTRA:          -3.866
INTER:                  -3.866
INTRA:                   0.000
UNBOUND:                 0.000

$$$$
