
     RDKit          3D

 61 64  0  0  0  0  0  0  0  0999 V2000
   52.8579   12.8406   21.7891 C   0  0  0  0  0  0  0  0  0  0  0  0
   53.4782   12.4403   23.0214 O   0  0  0  0  0  0  0  0  0  0  0  0
   52.8095   12.9506   24.1848 C   0  0  0  0  0  0  0  0  0  0  0  0
   51.3043   13.1633   23.9597 C   0  0  0  0  0  0  0  0  0  0  0  0
   51.0555   14.1816   22.9240 N   0  0  0  0  0  0  0  0  0  0  0  0
   52.1106   14.1807   21.8942 C   0  0  0  0  0  0  0  0  0  0  0  0
   49.6809   14.1686   22.3973 C   0  0  0  0  0  0  0  0  0  0  0  0
   49.2211   12.9586   21.5557 C   0  0  0  0  0  0  0  0  0  0  0  0
   49.8146   13.0157   20.2567 O   0  0  0  0  0  0  0  0  0  0  0  0
   49.4564   12.0464   19.3626 C   0  0  0  0  0  0  0  0  0  0  0  0
   48.6521   10.9399   19.6265 C   0  0  0  0  0  0  0  0  0  0  0  0
   49.9727   12.2195   18.0781 C   0  0  0  0  0  0  0  0  0  0  0  0
   49.6861   11.3003   17.0639 C   0  0  0  0  0  0  0  0  0  0  0  0
   48.8788   10.1806   17.3131 C   0  0  0  0  0  0  0  0  0  0  0  0
   48.3676   10.0173   18.6106 C   0  0  0  0  0  0  0  0  0  0  0  0
   48.5798    9.2097   16.2530 C   0  0  0  0  0  0  0  0  0  0  0  0
   48.0267    9.5964   15.0286 C   0  0  0  0  0  0  0  0  0  0  0  0
   48.8339    7.8477   16.4077 C   0  0  0  0  0  0  0  0  0  0  0  0
   48.5826    6.8987   15.4718 N   0  0  0  0  0  0  0  0  0  0  0  0
   48.0202    7.3026   14.3068 C   0  0  0  0  0  0  0  0  0  0  0  0
   47.7484    8.6442   14.0468 C   0  0  0  0  0  0  0  0  0  0  0  0
   45.3790    6.4005   13.2478 O   0  0  0  0  0  0  0  0  0  0  0  0
   46.4252    6.3008   12.6123 C   0  0  0  0  0  0  0  0  0  0  0  0
   47.7938    6.2400   13.2637 C   0  0  0  0  0  0  0  0  0  0  0  0
   45.2504    6.1526   10.4438 C   0  0  0  0  0  0  0  0  0  0  0  0
   46.4603    6.2369   11.2329 N   0  0  0  0  0  0  0  0  0  0  0  0
   45.4192    4.4356    8.5925 C   0  0  0  0  0  0  0  0  0  0  0  0
   45.0650    4.7553    9.9114 C   0  0  0  0  0  0  0  0  0  0  0  0
   44.5669    3.7434   10.7458 C   0  0  0  0  0  0  0  0  0  0  0  0
   44.4153    2.4414   10.2675 C   0  0  0  0  0  0  0  0  0  0  0  0
   44.7619    2.1365    8.9526 C   0  0  0  0  0  0  0  0  0  0  0  0
   45.2644    3.1322    8.1152 C   0  0  0  0  0  0  0  0  0  0  0  0
   53.6488   12.9103   21.0345 H   0  0  0  0  0  0  0  0  0  0  0  0
   52.1819   12.0368   21.4774 H   0  0  0  0  0  0  0  0  0  0  0  0
   53.2985   13.8868   24.4791 H   0  0  0  0  0  0  0  0  0  0  0  0
   52.9709   12.2321   24.9957 H   0  0  0  0  0  0  0  0  0  0  0  0
   50.8340   13.4810   24.8968 H   0  0  0  0  0  0  0  0  0  0  0  0
   50.8708   12.1974   23.6791 H   0  0  0  0  0  0  0  0  0  0  0  0
   51.7376   14.4965   20.9140 H   0  0  0  0  0  0  0  0  0  0  0  0
   52.8376   14.9470   22.1924 H   0  0  0  0  0  0  0  0  0  0  0  0
   48.9977   14.2661   23.2516 H   0  0  0  0  0  0  0  0  0  0  0  0
   49.5433   15.0807   21.8006 H   0  0  0  0  0  0  0  0  0  0  0  0
   48.1295   13.0202   21.4530 H   0  0  0  0  0  0  0  0  0  0  0  0
   49.4769   12.0185   22.0557 H   0  0  0  0  0  0  0  0  0  0  0  0
   48.2278   10.7582   20.6084 H   0  0  0  0  0  0  0  0  0  0  0  0
   50.6052   13.0769   17.8624 H   0  0  0  0  0  0  0  0  0  0  0  0
   50.1123   11.4627   16.0761 H   0  0  0  0  0  0  0  0  0  0  0  0
   47.7256    9.1679   18.8426 H   0  0  0  0  0  0  0  0  0  0  0  0
   47.7951   10.6419   14.8342 H   0  0  0  0  0  0  0  0  0  0  0  0
   49.2765    7.4620   17.3234 H   0  0  0  0  0  0  0  0  0  0  0  0
   47.3140    8.9568   13.1027 H   0  0  0  0  0  0  0  0  0  0  0  0
   47.8881    5.2445   13.7138 H   0  0  0  0  0  0  0  0  0  0  0  0
   48.5846    6.3304   12.5106 H   0  0  0  0  0  0  0  0  0  0  0  0
   44.3725    6.4561   11.0253 H   0  0  0  0  0  0  0  0  0  0  0  0
   45.3548    6.8661    9.6186 H   0  0  0  0  0  0  0  0  0  0  0  0
   47.3219    5.9744   10.7720 H   0  0  0  0  0  0  0  0  0  0  0  0
   45.8147    5.2004    7.9278 H   0  0  0  0  0  0  0  0  0  0  0  0
   44.2968    3.9686   11.7769 H   0  0  0  0  0  0  0  0  0  0  0  0
   44.0276    1.6654   10.9229 H   0  0  0  0  0  0  0  0  0  0  0  0
   44.6409    1.1216    8.5812 H   0  0  0  0  0  0  0  0  0  0  0  0
   45.5354    2.8912    7.0899 H   0  0  0  0  0  0  0  0  0  0  0  0
  1  2  1  0
  2  3  1  0
  3  4  1  0
  4  5  1  0
  5  6  1  0
  1  6  1  0
  7  8  1  0
  5  7  1  0
  9 10  1  0
 10 11  2  0
  8  9  1  0
 12 13  2  0
 13 14  1  0
 14 15  2  0
 10 12  1  0
 11 15  1  0
 16 17  2  0
 16 14  1  0
 18 19  2  0
 19 20  1  0
 20 21  2  0
 17 21  1  0
 16 18  1  0
 22 23  2  0
 23 24  1  0
 20 24  1  0
 25 26  1  0
 23 26  1  0
 27 28  2  0
 25 28  1  0
 29 30  2  0
 30 31  1  0
 31 32  2  0
 27 32  1  0
 28 29  1  0
  1 33  1  0
  1 34  1  0
  3 35  1  0
  3 36  1  0
  4 37  1  0
  4 38  1  0
  6 39  1  0
  6 40  1  0
  7 41  1  0
  7 42  1  0
  8 43  1  0
  8 44  1  0
 11 45  1  0
 12 46  1  0
 13 47  1  0
 15 48  1  0
 17 49  1  0
 18 50  1  0
 21 51  1  0
 24 52  1  0
 24 53  1  0
 25 54  1  0
 25 55  1  0
 26 56  1  0
 27 57  1  0
 29 58  1  0
 30 59  1  0
 31 60  1  0
 32 61  1  0
M  END
> <Uni-Dock RESULT> 
ENERGY=   -5.152  LOWER_BOUND=    0.000  UPPER_BOUND=    0.000
INTER + INTRA:          -5.152
INTER:                  -5.152
INTRA:                   0.000
UNBOUND:                 0.000

$$$$

     RDKit          3D

 61 64  0  0  0  0  0  0  0  0999 V2000
   54.5229   12.7796   20.7257 C   0  0  0  0  0  0  0  0  0  0  0  0
   55.3518   12.3643   21.8231 O   0  0  0  0  0  0  0  0  0  0  0  0
   54.8843   12.8347   23.0964 C   0  0  0  0  0  0  0  0  0  0  0  0
   53.3596   13.0217   23.1377 C   0  0  0  0  0  0  0  0  0  0  0  0
   52.9204   14.0577   22.1863 N   0  0  0  0  0  0  0  0  0  0  0  0
   53.7831   14.1014   20.9914 C   0  0  0  0  0  0  0  0  0  0  0  0
   51.4762   14.0285   21.9023 C   0  0  0  0  0  0  0  0  0  0  0  0
   50.8985   12.8286   21.1211 C   0  0  0  0  0  0  0  0  0  0  0  0
   51.2594   12.9270   19.7416 O   0  0  0  0  0  0  0  0  0  0  0  0
   50.7689   11.9710   18.8974 C   0  0  0  0  0  0  0  0  0  0  0  0
   50.0399   10.8427   19.2664 C   0  0  0  0  0  0  0  0  0  0  0  0
   51.0544   12.1834   17.5483 C   0  0  0  0  0  0  0  0  0  0  0  0
   50.6131   11.2816   16.5748 C   0  0  0  0  0  0  0  0  0  0  0  0
   49.8787   10.1404   16.9297 C   0  0  0  0  0  0  0  0  0  0  0  0
   49.6004    9.9375   18.2909 C   0  0  0  0  0  0  0  0  0  0  0  0
   49.4182    9.1877   15.9118 C   0  0  0  0  0  0  0  0  0  0  0  0
   48.6571    9.5905   14.8104 C   0  0  0  0  0  0  0  0  0  0  0  0
   49.7171    7.8281   15.9858 C   0  0  0  0  0  0  0  0  0  0  0  0
   49.3243    6.8954   15.0827 N   0  0  0  0  0  0  0  0  0  0  0  0
   48.5640    7.3139   14.0418 C   0  0  0  0  0  0  0  0  0  0  0  0
   48.2300    8.6552   13.8666 C   0  0  0  0  0  0  0  0  0  0  0  0
   45.7953    6.3822   13.4274 O   0  0  0  0  0  0  0  0  0  0  0  0
   46.7185    6.3182   12.6199 C   0  0  0  0  0  0  0  0  0  0  0  0
   48.1794    6.2706   13.0258 C   0  0  0  0  0  0  0  0  0  0  0  0
   45.1918    6.1949   10.6814 C   0  0  0  0  0  0  0  0  0  0  0  0
   46.5175    6.2861   11.2537 N   0  0  0  0  0  0  0  0  0  0  0  0
   45.0683    4.5237    8.7850 C   0  0  0  0  0  0  0  0  0  0  0  0
   44.9405    4.8064   10.1528 C   0  0  0  0  0  0  0  0  0  0  0  0
   44.6093    3.7661   11.0339 C   0  0  0  0  0  0  0  0  0  0  0  0
   44.3991    2.4723   10.5554 C   0  0  0  0  0  0  0  0  0  0  0  0
   44.5199    2.2042    9.1931 C   0  0  0  0  0  0  0  0  0  0  0  0
   44.8551    3.2285    8.3080 C   0  0  0  0  0  0  0  0  0  0  0  0
   55.1714   12.8824   19.8489 H   0  0  0  0  0  0  0  0  0  0  0  0
   53.8166   11.9694   20.5137 H   0  0  0  0  0  0  0  0  0  0  0  0
   55.4013   13.7737   23.3266 H   0  0  0  0  0  0  0  0  0  0  0  0
   55.1941   12.1016   23.8490 H   0  0  0  0  0  0  0  0  0  0  0  0
   53.0519   13.3086   24.1492 H   0  0  0  0  0  0  0  0  0  0  0  0
   52.9002   12.0537   22.9107 H   0  0  0  0  0  0  0  0  0  0  0  0
   53.2424   14.4316   20.0979 H   0  0  0  0  0  0  0  0  0  0  0  0
   54.5379   14.8755   21.1804 H   0  0  0  0  0  0  0  0  0  0  0  0
   50.9482   14.0929   22.8631 H   0  0  0  0  0  0  0  0  0  0  0  0
   51.2235   14.9509   21.3616 H   0  0  0  0  0  0  0  0  0  0  0  0
   49.8046   12.8703   21.2082 H   0  0  0  0  0  0  0  0  0  0  0  0
   51.2515   11.8830   21.5456 H   0  0  0  0  0  0  0  0  0  0  0  0
   49.7933   10.6303   20.3015 H   0  0  0  0  0  0  0  0  0  0  0  0
   51.6266   13.0582   17.2496 H   0  0  0  0  0  0  0  0  0  0  0  0
   50.8608   11.4749   15.5332 H   0  0  0  0  0  0  0  0  0  0  0  0
   49.0215    9.0702   18.6075 H   0  0  0  0  0  0  0  0  0  0  0  0
   48.3786   10.6352   14.6854 H   0  0  0  0  0  0  0  0  0  0  0  0
   50.3164    7.4310   16.8021 H   0  0  0  0  0  0  0  0  0  0  0  0
   47.6350    8.9800   13.0191 H   0  0  0  0  0  0  0  0  0  0  0  0
   48.3656    5.2674   13.4275 H   0  0  0  0  0  0  0  0  0  0  0  0
   48.8277    6.3940   12.1512 H   0  0  0  0  0  0  0  0  0  0  0  0
   44.4218    6.4673   11.4121 H   0  0  0  0  0  0  0  0  0  0  0  0
   45.1414    6.9288    9.8690 H   0  0  0  0  0  0  0  0  0  0  0  0
   47.2914    6.0516   10.6456 H   0  0  0  0  0  0  0  0  0  0  0  0
   45.3315    5.3112    8.0823 H   0  0  0  0  0  0  0  0  0  0  0  0
   44.5164    3.9625   12.1015 H   0  0  0  0  0  0  0  0  0  0  0  0
   44.1422    1.6741   11.2473 H   0  0  0  0  0  0  0  0  0  0  0  0
   44.3535    1.1957    8.8220 H   0  0  0  0  0  0  0  0  0  0  0  0
   44.9501    3.0163    7.2456 H   0  0  0  0  0  0  0  0  0  0  0  0
  1  2  1  0
  2  3  1  0
  3  4  1  0
  4  5  1  0
  5  6  1  0
  1  6  1  0
  7  8  1  0
  5  7  1  0
  9 10  1  0
 10 11  2  0
  8  9  1  0
 12 13  2  0
 13 14  1  0
 14 15  2  0
 10 12  1  0
 11 15  1  0
 16 17  2  0
 16 14  1  0
 18 19  2  0
 19 20  1  0
 20 21  2  0
 17 21  1  0
 16 18  1  0
 22 23  2  0
 23 24  1  0
 20 24  1  0
 25 26  1  0
 23 26  1  0
 27 28  2  0
 25 28  1  0
 29 30  2  0
 30 31  1  0
 31 32  2  0
 27 32  1  0
 28 29  1  0
  1 33  1  0
  1 34  1  0
  3 35  1  0
  3 36  1  0
  4 37  1  0
  4 38  1  0
  6 39  1  0
  6 40  1  0
  7 41  1  0
  7 42  1  0
  8 43  1  0
  8 44  1  0
 11 45  1  0
 12 46  1  0
 13 47  1  0
 15 48  1  0
 17 49  1  0
 18 50  1  0
 21 51  1  0
 24 52  1  0
 24 53  1  0
 25 54  1  0
 25 55  1  0
 26 56  1  0
 27 57  1  0
 29 58  1  0
 30 59  1  0
 31 60  1  0
 32 61  1  0
M  END
> <Uni-Dock RESULT> 
ENERGY=   -4.308  LOWER_BOUND=    1.145  UPPER_BOUND=    1.250
INTER + INTRA:          -4.308
INTER:                  -4.308
INTRA:                   0.000
UNBOUND:                 0.000

$$$$

     RDKit          3D

 61 64  0  0  0  0  0  0  0  0999 V2000
   43.7223   15.0067    6.5592 C   0  0  0  0  0  0  0  0  0  0  0  0
   44.3381   16.0509    5.7884 O   0  0  0  0  0  0  0  0  0  0  0  0
   43.9287   17.3676    6.1882 C   0  0  0  0  0  0  0  0  0  0  0  0
   43.5518   17.4467    7.6759 C   0  0  0  0  0  0  0  0  0  0  0  0
   42.3862   16.5980    7.9797 N   0  0  0  0  0  0  0  0  0  0  0  0
   42.3458   15.3998    7.1214 C   0  0  0  0  0  0  0  0  0  0  0  0
   42.2038   16.3327    9.4163 C   0  0  0  0  0  0  0  0  0  0  0  0
   43.2439   15.4555   10.1459 C   0  0  0  0  0  0  0  0  0  0  0  0
   43.0683   14.0854    9.7785 O   0  0  0  0  0  0  0  0  0  0  0  0
   43.8731   13.1661   10.3904 C   0  0  0  0  0  0  0  0  0  0  0  0
   44.9271   13.4429   11.2583 C   0  0  0  0  0  0  0  0  0  0  0  0
   43.5780   11.8375   10.0830 C   0  0  0  0  0  0  0  0  0  0  0  0
   44.3238   10.7936   10.6394 C   0  0  0  0  0  0  0  0  0  0  0  0
   45.3886   11.0553   11.5143 C   0  0  0  0  0  0  0  0  0  0  0  0
   45.6763   12.3967   11.8133 C   0  0  0  0  0  0  0  0  0  0  0  0
   46.1783    9.9629   12.0964 C   0  0  0  0  0  0  0  0  0  0  0  0
   45.5830    8.9125   12.8016 C   0  0  0  0  0  0  0  0  0  0  0  0
   47.5661    9.9108   11.9756 C   0  0  0  0  0  0  0  0  0  0  0  0
   48.3551    8.9335   12.4876 N   0  0  0  0  0  0  0  0  0  0  0  0
   47.7499    7.9449   13.1899 C   0  0  0  0  0  0  0  0  0  0  0  0
   46.3666    7.8950   13.3482 C   0  0  0  0  0  0  0  0  0  0  0  0
   48.2588    7.2884   16.0572 O   0  0  0  0  0  0  0  0  0  0  0  0
   48.3675    6.4657   15.1519 C   0  0  0  0  0  0  0  0  0  0  0  0
   48.6389    6.8453   13.7085 C   0  0  0  0  0  0  0  0  0  0  0  0
   48.1178    4.5454   16.6862 C   0  0  0  0  0  0  0  0  0  0  0  0
   48.2499    5.1050   15.3585 N   0  0  0  0  0  0  0  0  0  0  0  0
   49.5809    2.5091   17.0290 C   0  0  0  0  0  0  0  0  0  0  0  0
   49.4090    3.8984   17.1161 C   0  0  0  0  0  0  0  0  0  0  0  0
   50.4735    4.6875   17.5768 C   0  0  0  0  0  0  0  0  0  0  0  0
   51.6809    4.0982   17.9536 C   0  0  0  0  0  0  0  0  0  0  0  0
   51.8380    2.7159   17.8716 C   0  0  0  0  0  0  0  0  0  0  0  0
   50.7894    1.9213   17.4089 C   0  0  0  0  0  0  0  0  0  0  0  0
   43.6248   14.1337    5.9049 H   0  0  0  0  0  0  0  0  0  0  0  0
   44.4125   14.7331    7.3647 H   0  0  0  0  0  0  0  0  0  0  0  0
   43.0885   17.6736    5.5537 H   0  0  0  0  0  0  0  0  0  0  0  0
   44.7606   18.0473    5.9741 H   0  0  0  0  0  0  0  0  0  0  0  0
   43.3204   18.4840    7.9416 H   0  0  0  0  0  0  0  0  0  0  0  0
   44.4282   17.1405    8.2571 H   0  0  0  0  0  0  0  0  0  0  0  0
   41.8694   14.5471    7.6170 H   0  0  0  0  0  0  0  0  0  0  0  0
   41.6954   15.6467    6.2724 H   0  0  0  0  0  0  0  0  0  0  0  0
   42.1592   17.3027    9.9293 H   0  0  0  0  0  0  0  0  0  0  0  0
   41.2115   15.8802    9.5489 H   0  0  0  0  0  0  0  0  0  0  0  0
   43.0701   15.5613   11.2251 H   0  0  0  0  0  0  0  0  0  0  0  0
   44.2615   15.7889    9.9171 H   0  0  0  0  0  0  0  0  0  0  0  0
   45.1987   14.4582   11.5279 H   0  0  0  0  0  0  0  0  0  0  0  0
   42.7606   11.6103    9.4033 H   0  0  0  0  0  0  0  0  0  0  0  0
   44.0706    9.7700   10.3712 H   0  0  0  0  0  0  0  0  0  0  0  0
   46.4871   12.6425   12.4987 H   0  0  0  0  0  0  0  0  0  0  0  0
   44.5043    8.8853   12.9431 H   0  0  0  0  0  0  0  0  0  0  0  0
   48.1091   10.6799   11.4307 H   0  0  0  0  0  0  0  0  0  0  0  0
   45.8926    7.0883   13.8981 H   0  0  0  0  0  0  0  0  0  0  0  0
   49.6899    7.1530   13.6525 H   0  0  0  0  0  0  0  0  0  0  0  0
   48.5213    5.9762   13.0517 H   0  0  0  0  0  0  0  0  0  0  0  0
   47.8160    5.3082   17.4128 H   0  0  0  0  0  0  0  0  0  0  0  0
   47.3131    3.8026   16.6432 H   0  0  0  0  0  0  0  0  0  0  0  0
   48.5259    4.4677   14.6228 H   0  0  0  0  0  0  0  0  0  0  0  0
   48.7734    1.8760   16.6679 H   0  0  0  0  0  0  0  0  0  0  0  0
   50.3642    5.7695   17.6411 H   0  0  0  0  0  0  0  0  0  0  0  0
   52.4988    4.7196   18.3099 H   0  0  0  0  0  0  0  0  0  0  0  0
   52.7790    2.2585   18.1679 H   0  0  0  0  0  0  0  0  0  0  0  0
   50.9152    0.8430   17.3446 H   0  0  0  0  0  0  0  0  0  0  0  0
  1  2  1  0
  2  3  1  0
  3  4  1  0
  4  5  1  0
  5  6  1  0
  1  6  1  0
  7  8  1  0
  5  7  1  0
  9 10  1  0
 10 11  2  0
  8  9  1  0
 12 13  2  0
 13 14  1  0
 14 15  2  0
 10 12  1  0
 11 15  1  0
 16 17  2  0
 16 14  1  0
 18 19  2  0
 19 20  1  0
 20 21  2  0
 17 21  1  0
 16 18  1  0
 22 23  2  0
 23 24  1  0
 20 24  1  0
 25 26  1  0
 23 26  1  0
 27 28  2  0
 25 28  1  0
 29 30  2  0
 30 31  1  0
 31 32  2  0
 27 32  1  0
 28 29  1  0
  1 33  1  0
  1 34  1  0
  3 35  1  0
  3 36  1  0
  4 37  1  0
  4 38  1  0
  6 39  1  0
  6 40  1  0
  7 41  1  0
  7 42  1  0
  8 43  1  0
  8 44  1  0
 11 45  1  0
 12 46  1  0
 13 47  1  0
 15 48  1  0
 17 49  1  0
 18 50  1  0
 21 51  1  0
 24 52  1  0
 24 53  1  0
 25 54  1  0
 25 55  1  0
 26 56  1  0
 27 57  1  0
 29 58  1  0
 30 59  1  0
 31 60  1  0
 32 61  1  0
M  END
> <Uni-Dock RESULT> 
ENERGY=   -4.283  LOWER_BOUND=    6.741  UPPER_BOUND=   11.079
INTER + INTRA:          -4.283
INTER:                  -4.283
INTRA:                   0.000
UNBOUND:                 0.000

$$$$

     RDKit          3D

 61 64  0  0  0  0  0  0  0  0999 V2000
   43.0339   14.2313    6.3243 C   0  0  0  0  0  0  0  0  0  0  0  0
   43.5679   15.3161    5.5485 O   0  0  0  0  0  0  0  0  0  0  0  0
   43.0293   16.5951    5.9162 C   0  0  0  0  0  0  0  0  0  0  0  0
   42.6127   16.6620    7.3939 C   0  0  0  0  0  0  0  0  0  0  0  0
   41.5240   15.7134    7.6876 N   0  0  0  0  0  0  0  0  0  0  0  0
   41.6144   14.5035    6.8499 C   0  0  0  0  0  0  0  0  0  0  0  0
   41.3340   15.4547    9.1244 C   0  0  0  0  0  0  0  0  0  0  0  0
   42.4339   14.6895    9.8915 C   0  0  0  0  0  0  0  0  0  0  0  0
   42.3944   13.3034    9.5447 O   0  0  0  0  0  0  0  0  0  0  0  0
   43.2666   12.4725   10.1897 C   0  0  0  0  0  0  0  0  0  0  0  0
   44.2702   12.8597   11.0750 C   0  0  0  0  0  0  0  0  0  0  0  0
   43.1029   11.1177    9.8995 C   0  0  0  0  0  0  0  0  0  0  0  0
   43.9293   10.1564   10.4902 C   0  0  0  0  0  0  0  0  0  0  0  0
   44.9449   10.5296   11.3828 C   0  0  0  0  0  0  0  0  0  0  0  0
   45.1002   11.8964   11.6643 C   0  0  0  0  0  0  0  0  0  0  0  0
   45.8187    9.5245   12.0010 C   0  0  0  0  0  0  0  0  0  0  0  0
   45.3073    8.4345   12.7117 C   0  0  0  0  0  0  0  0  0  0  0  0
   47.2078    9.5998   11.9108 C   0  0  0  0  0  0  0  0  0  0  0  0
   48.0719    8.7082   12.4567 N   0  0  0  0  0  0  0  0  0  0  0  0
   47.5450    7.6787   13.1632 C   0  0  0  0  0  0  0  0  0  0  0  0
   46.1689    7.5029   13.2928 C   0  0  0  0  0  0  0  0  0  0  0  0
   48.0465    7.1172   16.0519 O   0  0  0  0  0  0  0  0  0  0  0  0
   48.2518    6.2941   15.1638 C   0  0  0  0  0  0  0  0  0  0  0  0
   48.5199    6.6747   13.7201 C   0  0  0  0  0  0  0  0  0  0  0  0
   48.1458    4.3830   16.7261 C   0  0  0  0  0  0  0  0  0  0  0  0
   48.2559    4.9318   15.3918 N   0  0  0  0  0  0  0  0  0  0  0  0
   49.7829    2.4972   17.1360 C   0  0  0  0  0  0  0  0  0  0  0  0
   49.4811    3.8656   17.1948 C   0  0  0  0  0  0  0  0  0  0  0  0
   50.4572    4.7574   17.6642 C   0  0  0  0  0  0  0  0  0  0  0  0
   51.7050    4.2888   18.0771 C   0  0  0  0  0  0  0  0  0  0  0  0
   51.9913    2.9260   18.0229 C   0  0  0  0  0  0  0  0  0  0  0  0
   51.0316    2.0302   17.5519 C   0  0  0  0  0  0  0  0  0  0  0  0
   43.0327   13.3429    5.6836 H   0  0  0  0  0  0  0  0  0  0  0  0
   43.7278   14.0356    7.1491 H   0  0  0  0  0  0  0  0  0  0  0  0
   42.1792   16.8117    5.2586 H   0  0  0  0  0  0  0  0  0  0  0  0
   43.7993   17.3457    5.7080 H   0  0  0  0  0  0  0  0  0  0  0  0
   42.2802   17.6773    7.6362 H   0  0  0  0  0  0  0  0  0  0  0  0
   43.5001   16.4477    7.9990 H   0  0  0  0  0  0  0  0  0  0  0  0
   41.2078   13.6179    7.3501 H   0  0  0  0  0  0  0  0  0  0  0  0
   40.9636   14.6755    5.9830 H   0  0  0  0  0  0  0  0  0  0  0  0
   41.1881   16.4242    9.6192 H   0  0  0  0  0  0  0  0  0  0  0  0
   40.3851   14.9140    9.2437 H   0  0  0  0  0  0  0  0  0  0  0  0
   42.2263   14.7954   10.9647 H   0  0  0  0  0  0  0  0  0  0  0  0
   43.4213   15.1124    9.6787 H   0  0  0  0  0  0  0  0  0  0  0  0
   44.4405   13.8999   11.3323 H   0  0  0  0  0  0  0  0  0  0  0  0
   42.3258   10.8049    9.2066 H   0  0  0  0  0  0  0  0  0  0  0  0
   43.7781    9.1097   10.2347 H   0  0  0  0  0  0  0  0  0  0  0  0
   45.8688   12.2272   12.3624 H   0  0  0  0  0  0  0  0  0  0  0  0
   44.2327    8.3093   12.8305 H   0  0  0  0  0  0  0  0  0  0  0  0
   47.6896   10.4075   11.3642 H   0  0  0  0  0  0  0  0  0  0  0  0
   45.7593    6.6643   13.8466 H   0  0  0  0  0  0  0  0  0  0  0  0
   49.5389    7.0779   13.6811 H   0  0  0  0  0  0  0  0  0  0  0  0
   48.4983    5.7883   13.0763 H   0  0  0  0  0  0  0  0  0  0  0  0
   47.7580    5.1257   17.4325 H   0  0  0  0  0  0  0  0  0  0  0  0
   47.4145    3.5681   16.6789 H   0  0  0  0  0  0  0  0  0  0  0  0
   48.6065    4.3114   14.6735 H   0  0  0  0  0  0  0  0  0  0  0  0
   49.0460    1.7862   16.7689 H   0  0  0  0  0  0  0  0  0  0  0  0
   50.2467    5.8254   17.7071 H   0  0  0  0  0  0  0  0  0  0  0  0
   52.4534    4.9890   18.4398 H   0  0  0  0  0  0  0  0  0  0  0  0
   52.9635    2.5628   18.3472 H   0  0  0  0  0  0  0  0  0  0  0  0
   51.2582    0.9674   17.5094 H   0  0  0  0  0  0  0  0  0  0  0  0
  1  2  1  0
  2  3  1  0
  3  4  1  0
  4  5  1  0
  5  6  1  0
  1  6  1  0
  7  8  1  0
  5  7  1  0
  9 10  1  0
 10 11  2  0
  8  9  1  0
 12 13  2  0
 13 14  1  0
 14 15  2  0
 10 12  1  0
 11 15  1  0
 16 17  2  0
 16 14  1  0
 18 19  2  0
 19 20  1  0
 20 21  2  0
 17 21  1  0
 16 18  1  0
 22 23  2  0
 23 24  1  0
 20 24  1  0
 25 26  1  0
 23 26  1  0
 27 28  2  0
 25 28  1  0
 29 30  2  0
 30 31  1  0
 31 32  2  0
 27 32  1  0
 28 29  1  0
  1 33  1  0
  1 34  1  0
  3 35  1  0
  3 36  1  0
  4 37  1  0
  4 38  1  0
  6 39  1  0
  6 40  1  0
  7 41  1  0
  7 42  1  0
  8 43  1  0
  8 44  1  0
 11 45  1  0
 12 46  1  0
 13 47  1  0
 15 48  1  0
 17 49  1  0
 18 50  1  0
 21 51  1  0
 24 52  1  0
 24 53  1  0
 25 54  1  0
 25 55  1  0
 26 56  1  0
 27 57  1  0
 29 58  1  0
 30 59  1  0
 31 60  1  0
 32 61  1  0
M  END
> <Uni-Dock RESULT> 
ENERGY=   -3.929  LOWER_BOUND=    6.666  UPPER_BOUND=   11.397
INTER + INTRA:          -3.929
INTER:                  -3.929
INTRA:                   0.000
UNBOUND:                 0.000

$$$$

     RDKit          3D

 61 64  0  0  0  0  0  0  0  0999 V2000
   54.1078   16.9193   17.8346 C   0  0  0  0  0  0  0  0  0  0  0  0
   54.6406   17.1329   19.1515 O   0  0  0  0  0  0  0  0  0  0  0  0
   54.1196   18.3085   19.7901 C   0  0  0  0  0  0  0  0  0  0  0  0
   52.6969   18.6566   19.3249 C   0  0  0  0  0  0  0  0  0  0  0  0
   52.6673   18.9826   17.8881 N   0  0  0  0  0  0  0  0  0  0  0  0
   53.6806   18.2208   17.1353 C   0  0  0  0  0  0  0  0  0  0  0  0
   51.3171   18.9577   17.3019 C   0  0  0  0  0  0  0  0  0  0  0  0
   50.5864   17.6030   17.1809 C   0  0  0  0  0  0  0  0  0  0  0  0
   51.1590   16.8344   16.1205 O   0  0  0  0  0  0  0  0  0  0  0  0
   50.5804   15.6289   15.8393 C   0  0  0  0  0  0  0  0  0  0  0  0
   49.5530   15.0214   16.5579 C   0  0  0  0  0  0  0  0  0  0  0  0
   51.1039   14.9783   14.7216 C   0  0  0  0  0  0  0  0  0  0  0  0
   50.6046   13.7351   14.3206 C   0  0  0  0  0  0  0  0  0  0  0  0
   49.5711   13.1096   15.0334 C   0  0  0  0  0  0  0  0  0  0  0  0
   49.0550   13.7741   16.1575 C   0  0  0  0  0  0  0  0  0  0  0  0
   49.0475   11.8017   14.6196 C   0  0  0  0  0  0  0  0  0  0  0  0
   48.5773   11.5681   13.3238 C   0  0  0  0  0  0  0  0  0  0  0  0
   48.9929   10.7187   15.4958 C   0  0  0  0  0  0  0  0  0  0  0  0
   48.5223    9.4863   15.1803 N   0  0  0  0  0  0  0  0  0  0  0  0
   48.0479    9.3006   13.9245 C   0  0  0  0  0  0  0  0  0  0  0  0
   48.0792   10.3137   12.9684 C   0  0  0  0  0  0  0  0  0  0  0  0
   45.2569    8.5086   13.2210 O   0  0  0  0  0  0  0  0  0  0  0  0
   46.2452    7.8799   12.8516 C   0  0  0  0  0  0  0  0  0  0  0  0
   47.5748    7.9125   13.5812 C   0  0  0  0  0  0  0  0  0  0  0  0
   45.0360    6.8216   10.9749 C   0  0  0  0  0  0  0  0  0  0  0  0
   46.2453    7.0783   11.7268 N   0  0  0  0  0  0  0  0  0  0  0  0
   44.7901    4.3846   10.3386 C   0  0  0  0  0  0  0  0  0  0  0  0
   44.5354    5.4259   11.2430 C   0  0  0  0  0  0  0  0  0  0  0  0
   43.8357    5.1431   12.4257 C   0  0  0  0  0  0  0  0  0  0  0  0
   43.3900    3.8481   12.6927 C   0  0  0  0  0  0  0  0  0  0  0  0
   43.6408    2.8226   11.7831 C   0  0  0  0  0  0  0  0  0  0  0  0
   44.3411    3.0897   10.6069 C   0  0  0  0  0  0  0  0  0  0  0  0
   54.8834   16.4154   17.2477 H   0  0  0  0  0  0  0  0  0  0  0  0
   53.2649   16.2252   17.9223 H   0  0  0  0  0  0  0  0  0  0  0  0
   54.8096   19.1384   19.5975 H   0  0  0  0  0  0  0  0  0  0  0  0
   54.1279   18.1243   20.8699 H   0  0  0  0  0  0  0  0  0  0  0  0
   52.3231   19.5135   19.8959 H   0  0  0  0  0  0  0  0  0  0  0  0
   52.0546   17.7987   19.5507 H   0  0  0  0  0  0  0  0  0  0  0  0
   53.3736   18.0253   16.1022 H   0  0  0  0  0  0  0  0  0  0  0  0
   54.5647   18.8670   17.0614 H   0  0  0  0  0  0  0  0  0  0  0  0
   50.6854   19.6314   17.8962 H   0  0  0  0  0  0  0  0  0  0  0  0
   51.3783   19.4113   16.3031 H   0  0  0  0  0  0  0  0  0  0  0  0
   49.5349   17.8121   16.9433 H   0  0  0  0  0  0  0  0  0  0  0  0
   50.6328   17.0514   18.1257 H   0  0  0  0  0  0  0  0  0  0  0  0
   49.1130   15.4841   17.4351 H   0  0  0  0  0  0  0  0  0  0  0  0
   51.9089   15.4411   14.1564 H   0  0  0  0  0  0  0  0  0  0  0  0
   51.0421   13.2531   13.4488 H   0  0  0  0  0  0  0  0  0  0  0  0
   48.2427   13.3285   16.7312 H   0  0  0  0  0  0  0  0  0  0  0  0
   48.5825   12.3659   12.5835 H   0  0  0  0  0  0  0  0  0  0  0  0
   49.3511   10.8087   16.5189 H   0  0  0  0  0  0  0  0  0  0  0  0
   47.7121   10.1470   11.9608 H   0  0  0  0  0  0  0  0  0  0  0  0
   47.4506    7.3203   14.4957 H   0  0  0  0  0  0  0  0  0  0  0  0
   48.3549    7.4264   12.9848 H   0  0  0  0  0  0  0  0  0  0  0  0
   44.2566    7.5553   11.2096 H   0  0  0  0  0  0  0  0  0  0  0  0
   45.2854    6.9419    9.9146 H   0  0  0  0  0  0  0  0  0  0  0  0
   47.0197    6.4463   11.5703 H   0  0  0  0  0  0  0  0  0  0  0  0
   45.3370    4.5763    9.4180 H   0  0  0  0  0  0  0  0  0  0  0  0
   43.6375    5.9356   13.1465 H   0  0  0  0  0  0  0  0  0  0  0  0
   42.8481    3.6408   13.6121 H   0  0  0  0  0  0  0  0  0  0  0  0
   43.2907    1.8145   11.9921 H   0  0  0  0  0  0  0  0  0  0  0  0
   44.5366    2.2872    9.8994 H   0  0  0  0  0  0  0  0  0  0  0  0
  1  2  1  0
  2  3  1  0
  3  4  1  0
  4  5  1  0
  5  6  1  0
  1  6  1  0
  7  8  1  0
  5  7  1  0
  9 10  1  0
 10 11  2  0
  8  9  1  0
 12 13  2  0
 13 14  1  0
 14 15  2  0
 10 12  1  0
 11 15  1  0
 16 17  2  0
 16 14  1  0
 18 19  2  0
 19 20  1  0
 20 21  2  0
 17 21  1  0
 16 18  1  0
 22 23  2  0
 23 24  1  0
 20 24  1  0
 25 26  1  0
 23 26  1  0
 27 28  2  0
 25 28  1  0
 29 30  2  0
 30 31  1  0
 31 32  2  0
 27 32  1  0
 28 29  1  0
  1 33  1  0
  1 34  1  0
  3 35  1  0
  3 36  1  0
  4 37  1  0
  4 38  1  0
  6 39  1  0
  6 40  1  0
  7 41  1  0
  7 42  1  0
  8 43  1  0
  8 44  1  0
 11 45  1  0
 12 46  1  0
 13 47  1  0
 15 48  1  0
 17 49  1  0
 18 50  1  0
 21 51  1  0
 24 52  1  0
 24 53  1  0
 25 54  1  0
 25 55  1  0
 26 56  1  0
 27 57  1  0
 29 58  1  0
 30 59  1  0
 31 60  1  0
 32 61  1  0
M  END
> <Uni-Dock RESULT> 
ENERGY=   -3.806  LOWER_BOUND=    3.758  UPPER_BOUND=    4.358
INTER + INTRA:          -3.806
INTER:                  -3.806
INTRA:                   0.000
UNBOUND:                 0.000

$$$$

     RDKit          3D

 61 64  0  0  0  0  0  0  0  0999 V2000
   41.7811   14.0148    5.8178 C   0  0  0  0  0  0  0  0  0  0  0  0
   42.0102   15.2161    5.0641 O   0  0  0  0  0  0  0  0  0  0  0  0
   41.0725   16.2611    5.3640 C   0  0  0  0  0  0  0  0  0  0  0  0
   40.5401   16.1868    6.8036 C   0  0  0  0  0  0  0  0  0  0  0  0
   39.7815   14.9442    7.0315 N   0  0  0  0  0  0  0  0  0  0  0  0
   40.3105   13.8274    6.2272 C   0  0  0  0  0  0  0  0  0  0  0  0
   39.5684   14.6316    8.4542 C   0  0  0  0  0  0  0  0  0  0  0  0
   40.7875   14.2440    9.3186 C   0  0  0  0  0  0  0  0  0  0  0  0
   41.2095   12.9167    8.9972 O   0  0  0  0  0  0  0  0  0  0  0  0
   42.2432   12.3963    9.7237 C   0  0  0  0  0  0  0  0  0  0  0  0
   43.0028   13.0727   10.6757 C   0  0  0  0  0  0  0  0  0  0  0  0
   42.5333   11.0596    9.4486 C   0  0  0  0  0  0  0  0  0  0  0  0
   43.5686   10.4012   10.1199 C   0  0  0  0  0  0  0  0  0  0  0  0
   44.3432   11.0680   11.0805 C   0  0  0  0  0  0  0  0  0  0  0  0
   44.0422   12.4136   11.3460 C   0  0  0  0  0  0  0  0  0  0  0  0
   45.4349   10.3828   11.7837 C   0  0  0  0  0  0  0  0  0  0  0  0
   45.2340    9.1839   12.4744 C   0  0  0  0  0  0  0  0  0  0  0  0
   46.7340   10.8884   11.7991 C   0  0  0  0  0  0  0  0  0  0  0  0
   47.7868   10.3083   12.4274 N   0  0  0  0  0  0  0  0  0  0  0  0
   47.5526    9.1620   13.1115 C   0  0  0  0  0  0  0  0  0  0  0  0
   46.2941    8.5647   13.1383 C   0  0  0  0  0  0  0  0  0  0  0  0
   47.9736    8.7699   16.0407 O   0  0  0  0  0  0  0  0  0  0  0  0
   48.4948    8.0567   15.1874 C   0  0  0  0  0  0  0  0  0  0  0  0
   48.7444    8.5096   13.7614 C   0  0  0  0  0  0  0  0  0  0  0  0
   48.8661    6.1999   16.7744 C   0  0  0  0  0  0  0  0  0  0  0  0
   48.9051    6.7626   15.4420 N   0  0  0  0  0  0  0  0  0  0  0  0
   50.9714    4.9172   17.3461 C   0  0  0  0  0  0  0  0  0  0  0  0
   50.2547    6.1228   17.3545 C   0  0  0  0  0  0  0  0  0  0  0  0
   50.8638    7.2722   17.8799 C   0  0  0  0  0  0  0  0  0  0  0  0
   52.1587    7.2144   18.3967 C   0  0  0  0  0  0  0  0  0  0  0  0
   52.8587    6.0094   18.3916 C   0  0  0  0  0  0  0  0  0  0  0  0
   52.2664    4.8612   17.8661 C   0  0  0  0  0  0  0  0  0  0  0  0
   42.1075   13.1738    5.1966 H   0  0  0  0  0  0  0  0  0  0  0  0
   42.4338   14.0411    6.6973 H   0  0  0  0  0  0  0  0  0  0  0  0
   40.2521   16.2049    4.6388 H   0  0  0  0  0  0  0  0  0  0  0  0
   41.5843   17.2157    5.2008 H   0  0  0  0  0  0  0  0  0  0  0  0
   39.8897   17.0463    6.9995 H   0  0  0  0  0  0  0  0  0  0  0  0
   41.3992   16.2571    7.4793 H   0  0  0  0  0  0  0  0  0  0  0  0
   40.1618   12.8566    6.7121 H   0  0  0  0  0  0  0  0  0  0  0  0
   39.7093   13.7923    5.3096 H   0  0  0  0  0  0  0  0  0  0  0  0
   39.0889   15.5046    8.9170 H   0  0  0  0  0  0  0  0  0  0  0  0
   38.8289   13.8212    8.5109 H   0  0  0  0  0  0  0  0  0  0  0  0
   40.4729   14.2742   10.3703 H   0  0  0  0  0  0  0  0  0  0  0  0
   41.6076   14.9551    9.1740 H   0  0  0  0  0  0  0  0  0  0  0  0
   42.8195   14.1127   10.9248 H   0  0  0  0  0  0  0  0  0  0  0  0
   41.9499   10.5235    8.7043 H   0  0  0  0  0  0  0  0  0  0  0  0
   43.7718    9.3610    9.8743 H   0  0  0  0  0  0  0  0  0  0  0  0
   44.6116   12.9641   12.0944 H   0  0  0  0  0  0  0  0  0  0  0  0
   44.2460    8.7289   12.5126 H   0  0  0  0  0  0  0  0  0  0  0  0
   46.9818   11.8090   11.2753 H   0  0  0  0  0  0  0  0  0  0  0  0
   46.1236    7.6373   13.6754 H   0  0  0  0  0  0  0  0  0  0  0  0
   49.5868    9.2110   13.7930 H   0  0  0  0  0  0  0  0  0  0  0  0
   49.0512    7.6641   13.1355 H   0  0  0  0  0  0  0  0  0  0  0  0
   48.2116    6.7807   17.4341 H   0  0  0  0  0  0  0  0  0  0  0  0
   48.4314    5.1977   16.6873 H   0  0  0  0  0  0  0  0  0  0  0  0
   49.4873    6.2865   14.7652 H   0  0  0  0  0  0  0  0  0  0  0  0
   50.5243    4.0137   16.9376 H   0  0  0  0  0  0  0  0  0  0  0  0
   50.3283    8.2209   17.8853 H   0  0  0  0  0  0  0  0  0  0  0  0
   52.6205    8.1113   18.8020 H   0  0  0  0  0  0  0  0  0  0  0  0
   53.8668    5.9661   18.7968 H   0  0  0  0  0  0  0  0  0  0  0  0
   52.8155    3.9225   17.8620 H   0  0  0  0  0  0  0  0  0  0  0  0
  1  2  1  0
  2  3  1  0
  3  4  1  0
  4  5  1  0
  5  6  1  0
  1  6  1  0
  7  8  1  0
  5  7  1  0
  9 10  1  0
 10 11  2  0
  8  9  1  0
 12 13  2  0
 13 14  1  0
 14 15  2  0
 10 12  1  0
 11 15  1  0
 16 17  2  0
 16 14  1  0
 18 19  2  0
 19 20  1  0
 20 21  2  0
 17 21  1  0
 16 18  1  0
 22 23  2  0
 23 24  1  0
 20 24  1  0
 25 26  1  0
 23 26  1  0
 27 28  2  0
 25 28  1  0
 29 30  2  0
 30 31  1  0
 31 32  2  0
 27 32  1  0
 28 29  1  0
  1 33  1  0
  1 34  1  0
  3 35  1  0
  3 36  1  0
  4 37  1  0
  4 38  1  0
  6 39  1  0
  6 40  1  0
  7 41  1  0
  7 42  1  0
  8 43  1  0
  8 44  1  0
 11 45  1  0
 12 46  1  0
 13 47  1  0
 15 48  1  0
 17 49  1  0
 18 50  1  0
 21 51  1  0
 24 52  1  0
 24 53  1  0
 25 54  1  0
 25 55  1  0
 26 56  1  0
 27 57  1  0
 29 58  1  0
 30 59  1  0
 31 60  1  0
 32 61  1  0
M  END
> <Uni-Dock RESULT> 
ENERGY=   -3.787  LOWER_BOUND=    6.690  UPPER_BOUND=   12.315
INTER + INTRA:          -3.787
INTER:                  -3.787
INTRA:                   0.000
UNBOUND:                 0.000

$$$$

     RDKit          3D

 61 64  0  0  0  0  0  0  0  0999 V2000
   45.9907   16.4008    6.3868 C   0  0  0  0  0  0  0  0  0  0  0  0
   46.8309   17.3720    5.7430 O   0  0  0  0  0  0  0  0  0  0  0  0
   46.5810   18.7165    6.1801 C   0  0  0  0  0  0  0  0  0  0  0  0
   46.0670   18.7854    7.6267 C   0  0  0  0  0  0  0  0  0  0  0  0
   44.7635   18.1122    7.7653 N   0  0  0  0  0  0  0  0  0  0  0  0
   44.6363   16.9742    6.8365 C   0  0  0  0  0  0  0  0  0  0  0  0
   44.3953   17.8136    9.1591 C   0  0  0  0  0  0  0  0  0  0  0  0
   45.2127   16.7557    9.9313 C   0  0  0  0  0  0  0  0  0  0  0  0
   44.8760   15.4465    9.4670 O   0  0  0  0  0  0  0  0  0  0  0  0
   45.4680   14.3883   10.0970 C   0  0  0  0  0  0  0  0  0  0  0  0
   46.4551   14.4614   11.0774 C   0  0  0  0  0  0  0  0  0  0  0  0
   45.0135   13.1358    9.6833 C   0  0  0  0  0  0  0  0  0  0  0  0
   45.5350   11.9661   10.2451 C   0  0  0  0  0  0  0  0  0  0  0  0
   46.5297   12.0222   11.2325 C   0  0  0  0  0  0  0  0  0  0  0  0
   46.9796   13.2889   11.6380 C   0  0  0  0  0  0  0  0  0  0  0  0
   47.0844   10.7967   11.8212 C   0  0  0  0  0  0  0  0  0  0  0  0
   46.2703    9.8192   12.4014 C   0  0  0  0  0  0  0  0  0  0  0  0
   48.4543   10.5384   11.8315 C   0  0  0  0  0  0  0  0  0  0  0  0
   49.0325    9.4299   12.3573 N   0  0  0  0  0  0  0  0  0  0  0  0
   48.2182    8.5150   12.9374 C   0  0  0  0  0  0  0  0  0  0  0  0
   46.8337    8.6703   12.9586 C   0  0  0  0  0  0  0  0  0  0  0  0
   48.3229    7.6602   15.7956 O   0  0  0  0  0  0  0  0  0  0  0  0
   48.4027    6.8720   14.8571 C   0  0  0  0  0  0  0  0  0  0  0  0
   48.8761    7.2701   13.4720 C   0  0  0  0  0  0  0  0  0  0  0  0
   47.7136    4.9455   16.2420 C   0  0  0  0  0  0  0  0  0  0  0  0
   48.0645    5.5375   14.9693 N   0  0  0  0  0  0  0  0  0  0  0  0
   48.8162    2.6960   16.6009 C   0  0  0  0  0  0  0  0  0  0  0  0
   48.8432    4.0899   16.7544 C   0  0  0  0  0  0  0  0  0  0  0  0
   49.9588    4.6854   17.3621 C   0  0  0  0  0  0  0  0  0  0  0  0
   51.0200    3.9019   17.8172 C   0  0  0  0  0  0  0  0  0  0  0  0
   50.9789    2.5170   17.6676 C   0  0  0  0  0  0  0  0  0  0  0  0
   49.8784    1.9137   17.0592 C   0  0  0  0  0  0  0  0  0  0  0  0
   45.8340   15.5832    5.6748 H   0  0  0  0  0  0  0  0  0  0  0  0
   46.5451   15.9888    7.2371 H   0  0  0  0  0  0  0  0  0  0  0  0
   45.8660   19.1756    5.4873 H   0  0  0  0  0  0  0  0  0  0  0  0
   47.5219   19.2698    6.0883 H   0  0  0  0  0  0  0  0  0  0  0  0
   45.9650   19.8329    7.9308 H   0  0  0  0  0  0  0  0  0  0  0  0
   46.8232   18.3229    8.2700 H   0  0  0  0  0  0  0  0  0  0  0  0
   43.9902   16.1829    7.2318 H   0  0  0  0  0  0  0  0  0  0  0  0
   44.1216   17.3555    5.9454 H   0  0  0  0  0  0  0  0  0  0  0  0
   44.4413   18.7550    9.7229 H   0  0  0  0  0  0  0  0  0  0  0  0
   43.3387   17.5128    9.1681 H   0  0  0  0  0  0  0  0  0  0  0  0
   44.9449   16.8382   10.9932 H   0  0  0  0  0  0  0  0  0  0  0  0
   46.2867   16.9394    9.8220 H   0  0  0  0  0  0  0  0  0  0  0  0
   46.8441   15.4100   11.4325 H   0  0  0  0  0  0  0  0  0  0  0  0
   44.2468   13.0671    8.9156 H   0  0  0  0  0  0  0  0  0  0  0  0
   45.1627   11.0064    9.8927 H   0  0  0  0  0  0  0  0  0  0  0  0
   47.7419   13.3767   12.4117 H   0  0  0  0  0  0  0  0  0  0  0  0
   45.1906    9.9510   12.4364 H   0  0  0  0  0  0  0  0  0  0  0  0
   49.1587   11.2391   11.3887 H   0  0  0  0  0  0  0  0  0  0  0  0
   46.1912    7.9217   13.4108 H   0  0  0  0  0  0  0  0  0  0  0  0
   49.9611    7.4156   13.5360 H   0  0  0  0  0  0  0  0  0  0  0  0
   48.7005    6.4596   12.7558 H   0  0  0  0  0  0  0  0  0  0  0  0
   47.4537    5.7120   16.9808 H   0  0  0  0  0  0  0  0  0  0  0  0
   46.8170    4.3373   16.0771 H   0  0  0  0  0  0  0  0  0  0  0  0
   48.3185    4.8991   14.2265 H   0  0  0  0  0  0  0  0  0  0  0  0
   47.9661    2.2108   16.1263 H   0  0  0  0  0  0  0  0  0  0  0  0
   50.0043    5.7674   17.4805 H   0  0  0  0  0  0  0  0  0  0  0  0
   51.8790    4.3742   18.2873 H   0  0  0  0  0  0  0  0  0  0  0  0
   51.8060    1.9081   18.0250 H   0  0  0  0  0  0  0  0  0  0  0  0
   49.8496    0.8329   16.9426 H   0  0  0  0  0  0  0  0  0  0  0  0
  1  2  1  0
  2  3  1  0
  3  4  1  0
  4  5  1  0
  5  6  1  0
  1  6  1  0
  7  8  1  0
  5  7  1  0
  9 10  1  0
 10 11  2  0
  8  9  1  0
 12 13  2  0
 13 14  1  0
 14 15  2  0
 10 12  1  0
 11 15  1  0
 16 17  2  0
 16 14  1  0
 18 19  2  0
 19 20  1  0
 20 21  2  0
 17 21  1  0
 16 18  1  0
 22 23  2  0
 23 24  1  0
 20 24  1  0
 25 26  1  0
 23 26  1  0
 27 28  2  0
 25 28  1  0
 29 30  2  0
 30 31  1  0
 31 32  2  0
 27 32  1  0
 28 29  1  0
  1 33  1  0
  1 34  1  0
  3 35  1  0
  3 36  1  0
  4 37  1  0
  4 38  1  0
  6 39  1  0
  6 40  1  0
  7 41  1  0
  7 42  1  0
  8 43  1  0
  8 44  1  0
 11 45  1  0
 12 46  1  0
 13 47  1  0
 15 48  1  0
 17 49  1  0
 18 50  1  0
 21 51  1  0
 24 52  1  0
 24 53  1  0
 25 54  1  0
 25 55  1  0
 26 56  1  0
 27 57  1  0
 29 58  1  0
 30 59  1  0
 31 60  1  0
 32 61  1  0
M  END
> <Uni-Dock RESULT> 
ENERGY=   -3.747  LOWER_BOUND=    7.138  UPPER_BOUND=   10.695
INTER + INTRA:          -3.747
INTER:                  -3.747
INTRA:                   0.000
UNBOUND:                 0.000

$$$$

     RDKit          3D

 61 64  0  0  0  0  0  0  0  0999 V2000
   48.6542    9.2678   21.8560 C   0  0  0  0  0  0  0  0  0  0  0  0
   49.3081    9.3084   23.1345 O   0  0  0  0  0  0  0  0  0  0  0  0
   48.9950    8.1818   23.9675 C   0  0  0  0  0  0  0  0  0  0  0  0
   48.6733    6.9156   23.1584 C   0  0  0  0  0  0  0  0  0  0  0  0
   47.4676    7.0996   22.3314 N   0  0  0  0  0  0  0  0  0  0  0  0
   47.3242    8.4958   21.8799 C   0  0  0  0  0  0  0  0  0  0  0  0
   47.3166    6.0906   21.2700 C   0  0  0  0  0  0  0  0  0  0  0  0
   48.3236    6.0896   20.0996 C   0  0  0  0  0  0  0  0  0  0  0  0
   48.0508    7.1846   19.2223 O   0  0  0  0  0  0  0  0  0  0  0  0
   48.8165    7.2882   18.0952 C   0  0  0  0  0  0  0  0  0  0  0  0
   49.9138    6.4940   17.7698 C   0  0  0  0  0  0  0  0  0  0  0  0
   48.4291    8.3027   17.2193 C   0  0  0  0  0  0  0  0  0  0  0  0
   49.1264    8.5208   16.0268 C   0  0  0  0  0  0  0  0  0  0  0  0
   50.2337    7.7308   15.6847 C   0  0  0  0  0  0  0  0  0  0  0  0
   50.6143    6.7149   16.5762 C   0  0  0  0  0  0  0  0  0  0  0  0
   50.9725    7.9597   14.4366 C   0  0  0  0  0  0  0  0  0  0  0  0
   50.3366    7.9768   13.1916 C   0  0  0  0  0  0  0  0  0  0  0  0
   52.3497    8.1760   14.4242 C   0  0  0  0  0  0  0  0  0  0  0  0
   53.0927    8.3931   13.3104 N   0  0  0  0  0  0  0  0  0  0  0  0
   52.4506    8.3754   12.1171 C   0  0  0  0  0  0  0  0  0  0  0  0
   51.0728    8.1896   12.0251 C   0  0  0  0  0  0  0  0  0  0  0  0
   53.0121    6.4922    9.8699 O   0  0  0  0  0  0  0  0  0  0  0  0
   53.0393    7.7136    9.7434 C   0  0  0  0  0  0  0  0  0  0  0  0
   53.2859    8.6660   10.8980 C   0  0  0  0  0  0  0  0  0  0  0  0
   52.7212    7.6012    7.2958 C   0  0  0  0  0  0  0  0  0  0  0  0
   52.8439    8.3453    8.5307 N   0  0  0  0  0  0  0  0  0  0  0  0
   54.0649    8.6239    5.4110 C   0  0  0  0  0  0  0  0  0  0  0  0
   53.9830    7.7209    6.4810 C   0  0  0  0  0  0  0  0  0  0  0  0
   55.1093    6.9513    6.8088 C   0  0  0  0  0  0  0  0  0  0  0  0
   56.2894    7.0742    6.0744 C   0  0  0  0  0  0  0  0  0  0  0  0
   56.3572    7.9682    5.0075 C   0  0  0  0  0  0  0  0  0  0  0  0
   55.2463    8.7435    4.6759 C   0  0  0  0  0  0  0  0  0  0  0  0
   48.4808   10.3040   21.5462 H   0  0  0  0  0  0  0  0  0  0  0  0
   49.3522    8.8264   21.1363 H   0  0  0  0  0  0  0  0  0  0  0  0
   48.1551    8.4572   24.6162 H   0  0  0  0  0  0  0  0  0  0  0  0
   49.8601    8.0046   24.6156 H   0  0  0  0  0  0  0  0  0  0  0  0
   48.5159    6.0735   23.8413 H   0  0  0  0  0  0  0  0  0  0  0  0
   49.5476    6.6856   22.5402 H   0  0  0  0  0  0  0  0  0  0  0  0
   46.8123    8.5719   20.9146 H   0  0  0  0  0  0  0  0  0  0  0  0
   46.6628    8.9905   22.6027 H   0  0  0  0  0  0  0  0  0  0  0  0
   47.3497    5.1015   21.7460 H   0  0  0  0  0  0  0  0  0  0  0  0
   46.3030    6.1887   20.8579 H   0  0  0  0  0  0  0  0  0  0  0  0
   48.1925    5.1488   19.5486 H   0  0  0  0  0  0  0  0  0  0  0  0
   49.3519    6.1410   20.4725 H   0  0  0  0  0  0  0  0  0  0  0  0
   50.2571    5.6938   18.4172 H   0  0  0  0  0  0  0  0  0  0  0  0
   47.5771    8.9313   17.4656 H   0  0  0  0  0  0  0  0  0  0  0  0
   48.8011    9.3260   15.3714 H   0  0  0  0  0  0  0  0  0  0  0  0
   51.4610    6.0703   16.3416 H   0  0  0  0  0  0  0  0  0  0  0  0
   49.2635    7.8106   13.1186 H   0  0  0  0  0  0  0  0  0  0  0  0
   52.9213    8.1932   15.3496 H   0  0  0  0  0  0  0  0  0  0  0  0
   50.5679    8.1950   11.0645 H   0  0  0  0  0  0  0  0  0  0  0  0
   54.3517    8.5957   11.1465 H   0  0  0  0  0  0  0  0  0  0  0  0
   53.0927    9.7007   10.5934 H   0  0  0  0  0  0  0  0  0  0  0  0
   52.4917    6.5467    7.4863 H   0  0  0  0  0  0  0  0  0  0  0  0
   51.8707    8.0241    6.7491 H   0  0  0  0  0  0  0  0  0  0  0  0
   53.0551    9.3312    8.4472 H   0  0  0  0  0  0  0  0  0  0  0  0
   53.2080    9.2374    5.1415 H   0  0  0  0  0  0  0  0  0  0  0  0
   55.0699    6.2524    7.6435 H   0  0  0  0  0  0  0  0  0  0  0  0
   57.1558    6.4722    6.3370 H   0  0  0  0  0  0  0  0  0  0  0  0
   57.2771    8.0607    4.4351 H   0  0  0  0  0  0  0  0  0  0  0  0
   55.3024    9.4413    3.8437 H   0  0  0  0  0  0  0  0  0  0  0  0
  1  2  1  0
  2  3  1  0
  3  4  1  0
  4  5  1  0
  5  6  1  0
  1  6  1  0
  7  8  1  0
  5  7  1  0
  9 10  1  0
 10 11  2  0
  8  9  1  0
 12 13  2  0
 13 14  1  0
 14 15  2  0
 10 12  1  0
 11 15  1  0
 16 17  2  0
 16 14  1  0
 18 19  2  0
 19 20  1  0
 20 21  2  0
 17 21  1  0
 16 18  1  0
 22 23  2  0
 23 24  1  0
 20 24  1  0
 25 26  1  0
 23 26  1  0
 27 28  2  0
 25 28  1  0
 29 30  2  0
 30 31  1  0
 31 32  2  0
 27 32  1  0
 28 29  1  0
  1 33  1  0
  1 34  1  0
  3 35  1  0
  3 36  1  0
  4 37  1  0
  4 38  1  0
  6 39  1  0
  6 40  1  0
  7 41  1  0
  7 42  1  0
  8 43  1  0
  8 44  1  0
 11 45  1  0
 12 46  1  0
 13 47  1  0
 15 48  1  0
 17 49  1  0
 18 50  1  0
 21 51  1  0
 24 52  1  0
 24 53  1  0
 25 54  1  0
 25 55  1  0
 26 56  1  0
 27 57  1  0
 29 58  1  0
 30 59  1  0
 31 60  1  0
 32 61  1  0
M  END
> <Uni-Dock RESULT> 
ENERGY=   -3.744  LOWER_BOUND=    6.356  UPPER_BOUND=    7.430
INTER + INTRA:          -3.744
INTER:                  -3.744
INTRA:                   0.000
UNBOUND:                 0.000

$$$$
