
     RDKit          3D

 61 64  0  0  0  0  0  0  0  0999 V2000
   57.6641    5.5360   13.7484 C   0  0  0  0  0  0  0  0  0  0  0  0
   57.0065    4.2732   13.5523 O   0  0  0  0  0  0  0  0  0  0  0  0
   56.4349    4.1339   12.2477 C   0  0  0  0  0  0  0  0  0  0  0  0
   57.2342    4.8597   11.1469 C   0  0  0  0  0  0  0  0  0  0  0  0
   57.4276    6.2992   11.4048 N   0  0  0  0  0  0  0  0  0  0  0  0
   57.1539    6.6465   12.8091 C   0  0  0  0  0  0  0  0  0  0  0  0
   56.7823    7.1958   10.4314 C   0  0  0  0  0  0  0  0  0  0  0  0
   55.2401    7.1824   10.3489 C   0  0  0  0  0  0  0  0  0  0  0  0
   54.6943    8.0157   11.3742 O   0  0  0  0  0  0  0  0  0  0  0  0
   53.3332    8.1235   11.4328 C   0  0  0  0  0  0  0  0  0  0  0  0
   52.8611    9.0178   12.3932 C   0  0  0  0  0  0  0  0  0  0  0  0
   52.4165    7.4326   10.6409 C   0  0  0  0  0  0  0  0  0  0  0  0
   51.0416    7.6405   10.8128 C   0  0  0  0  0  0  0  0  0  0  0  0
   50.5552    8.5412   11.7743 C   0  0  0  0  0  0  0  0  0  0  0  0
   51.4892    9.2285   12.5627 C   0  0  0  0  0  0  0  0  0  0  0  0
   49.1147    8.7626   11.9424 C   0  0  0  0  0  0  0  0  0  0  0  0
   48.5432   10.0310   11.8061 C   0  0  0  0  0  0  0  0  0  0  0  0
   48.2389    7.7246   12.2468 C   0  0  0  0  0  0  0  0  0  0  0  0
   46.8991    7.8623   12.4118 N   0  0  0  0  0  0  0  0  0  0  0  0
   46.3699    9.0985   12.2438 C   0  0  0  0  0  0  0  0  0  0  0  0
   47.1679   10.2049   11.9627 C   0  0  0  0  0  0  0  0  0  0  0  0
   44.3974   10.2444   10.3504 O   0  0  0  0  0  0  0  0  0  0  0  0
   44.1679   10.1774   11.5550 C   0  0  0  0  0  0  0  0  0  0  0  0
   44.8895    9.2275   12.4937 C   0  0  0  0  0  0  0  0  0  0  0  0
   42.3681   11.8757   11.4516 C   0  0  0  0  0  0  0  0  0  0  0  0
   43.2240   10.9639   12.1779 N   0  0  0  0  0  0  0  0  0  0  0  0
   40.3654   10.4697   10.8307 C   0  0  0  0  0  0  0  0  0  0  0  0
   40.9223   11.4820   11.6281 C   0  0  0  0  0  0  0  0  0  0  0  0
   40.1293   12.0837   12.6177 C   0  0  0  0  0  0  0  0  0  0  0  0
   38.8007   11.6889   12.7952 C   0  0  0  0  0  0  0  0  0  0  0  0
   38.2554   10.6857   11.9933 C   0  0  0  0  0  0  0  0  0  0  0  0
   39.0378   10.0759   11.0123 C   0  0  0  0  0  0  0  0  0  0  0  0
   57.5032    5.8244   14.7924 H   0  0  0  0  0  0  0  0  0  0  0  0
   58.7423    5.3815   13.6146 H   0  0  0  0  0  0  0  0  0  0  0  0
   56.3835    3.0609   12.0257 H   0  0  0  0  0  0  0  0  0  0  0  0
   55.4029    4.5065   12.2854 H   0  0  0  0  0  0  0  0  0  0  0  0
   58.2347    4.4068   11.0914 H   0  0  0  0  0  0  0  0  0  0  0  0
   56.7601    4.6779   10.1740 H   0  0  0  0  0  0  0  0  0  0  0  0
   56.0768    6.7692   12.9910 H   0  0  0  0  0  0  0  0  0  0  0  0
   57.6518    7.5945   13.0534 H   0  0  0  0  0  0  0  0  0  0  0  0
   57.1227    8.2216   10.6284 H   0  0  0  0  0  0  0  0  0  0  0  0
   57.1782    6.9353    9.4409 H   0  0  0  0  0  0  0  0  0  0  0  0
   54.9505    7.5902    9.3725 H   0  0  0  0  0  0  0  0  0  0  0  0
   54.8602    6.1580   10.4368 H   0  0  0  0  0  0  0  0  0  0  0  0
   53.5672    9.5605   13.0180 H   0  0  0  0  0  0  0  0  0  0  0  0
   52.7300    6.7267    9.8791 H   0  0  0  0  0  0  0  0  0  0  0  0
   50.3464    7.0971   10.1726 H   0  0  0  0  0  0  0  0  0  0  0  0
   51.1570    9.9286   13.3271 H   0  0  0  0  0  0  0  0  0  0  0  0
   49.1633   10.8908   11.5629 H   0  0  0  0  0  0  0  0  0  0  0  0
   48.6024    6.7102   12.3862 H   0  0  0  0  0  0  0  0  0  0  0  0
   46.7381   11.1956   11.8520 H   0  0  0  0  0  0  0  0  0  0  0  0
   44.7532    9.5467   13.5342 H   0  0  0  0  0  0  0  0  0  0  0  0
   44.4084    8.2477   12.3860 H   0  0  0  0  0  0  0  0  0  0  0  0
   42.6300   11.9084   10.3870 H   0  0  0  0  0  0  0  0  0  0  0  0
   42.5415   12.8806   11.8598 H   0  0  0  0  0  0  0  0  0  0  0  0
   43.0206   10.8276   13.1597 H   0  0  0  0  0  0  0  0  0  0  0  0
   40.9686    9.9806   10.0658 H   0  0  0  0  0  0  0  0  0  0  0  0
   40.5414   12.8636   13.2566 H   0  0  0  0  0  0  0  0  0  0  0  0
   38.1923   12.1629   13.5600 H   0  0  0  0  0  0  0  0  0  0  0  0
   37.2219   10.3768   12.1323 H   0  0  0  0  0  0  0  0  0  0  0  0
   38.6152    9.2905   10.3886 H   0  0  0  0  0  0  0  0  0  0  0  0
  1  2  1  0
  2  3  1  0
  3  4  1  0
  4  5  1  0
  5  6  1  0
  1  6  1  0
  7  8  1  0
  5  7  1  0
  9 10  1  0
 10 11  2  0
  8  9  1  0
 12 13  2  0
 13 14  1  0
 14 15  2  0
 10 12  1  0
 11 15  1  0
 16 17  2  0
 16 14  1  0
 18 19  2  0
 19 20  1  0
 20 21  2  0
 17 21  1  0
 16 18  1  0
 22 23  2  0
 23 24  1  0
 20 24  1  0
 25 26  1  0
 23 26  1  0
 27 28  2  0
 25 28  1  0
 29 30  2  0
 30 31  1  0
 31 32  2  0
 27 32  1  0
 28 29  1  0
  1 33  1  0
  1 34  1  0
  3 35  1  0
  3 36  1  0
  4 37  1  0
  4 38  1  0
  6 39  1  0
  6 40  1  0
  7 41  1  0
  7 42  1  0
  8 43  1  0
  8 44  1  0
 11 45  1  0
 12 46  1  0
 13 47  1  0
 15 48  1  0
 17 49  1  0
 18 50  1  0
 21 51  1  0
 24 52  1  0
 24 53  1  0
 25 54  1  0
 25 55  1  0
 26 56  1  0
 27 57  1  0
 29 58  1  0
 30 59  1  0
 31 60  1  0
 32 61  1  0
M  END
> <Uni-Dock RESULT> 
ENERGY=   -4.692  LOWER_BOUND=    0.000  UPPER_BOUND=    0.000
INTER + INTRA:          -4.692
INTER:                  -4.692
INTRA:                   0.000
UNBOUND:                 0.000

$$$$

     RDKit          3D

 61 64  0  0  0  0  0  0  0  0999 V2000
   55.7727   13.6971   21.5742 C   0  0  0  0  0  0  0  0  0  0  0  0
   56.6880   13.5063   20.4826 O   0  0  0  0  0  0  0  0  0  0  0  0
   56.2860   14.1832   19.2875 C   0  0  0  0  0  0  0  0  0  0  0  0
   55.5384   15.5052   19.5528 C   0  0  0  0  0  0  0  0  0  0  0  0
   54.3466   15.3518   20.4086 N   0  0  0  0  0  0  0  0  0  0  0  0
   54.3456   14.0640   21.1221 C   0  0  0  0  0  0  0  0  0  0  0  0
   53.0675   15.6725   19.7537 C   0  0  0  0  0  0  0  0  0  0  0  0
   52.6180   14.7844   18.5727 C   0  0  0  0  0  0  0  0  0  0  0  0
   51.9877   13.6019   19.0703 O   0  0  0  0  0  0  0  0  0  0  0  0
   51.5184   12.7091   18.1481 C   0  0  0  0  0  0  0  0  0  0  0  0
   50.8348   11.6199   18.6880 C   0  0  0  0  0  0  0  0  0  0  0  0
   51.6681   12.7974   16.7644 C   0  0  0  0  0  0  0  0  0  0  0  0
   51.1351   11.8023   15.9345 C   0  0  0  0  0  0  0  0  0  0  0  0
   50.4419   10.7032   16.4671 C   0  0  0  0  0  0  0  0  0  0  0  0
   50.2993   10.6284   17.8600 C   0  0  0  0  0  0  0  0  0  0  0  0
   49.8767    9.6699   15.5923 C   0  0  0  0  0  0  0  0  0  0  0  0
   48.5134    9.3613   15.6018 C   0  0  0  0  0  0  0  0  0  0  0  0
   50.6646    8.9405   14.7068 C   0  0  0  0  0  0  0  0  0  0  0  0
   50.2039    7.9760   13.8709 N   0  0  0  0  0  0  0  0  0  0  0  0
   48.8732    7.7200   13.8810 C   0  0  0  0  0  0  0  0  0  0  0  0
   48.0070    8.3796   14.7496 C   0  0  0  0  0  0  0  0  0  0  0  0
   46.7294    7.9295   11.8441 O   0  0  0  0  0  0  0  0  0  0  0  0
   47.0645    6.8460   12.3151 C   0  0  0  0  0  0  0  0  0  0  0  0
   48.4044    6.6023   12.9856 C   0  0  0  0  0  0  0  0  0  0  0  0
   44.9672    5.7311   11.6134 C   0  0  0  0  0  0  0  0  0  0  0  0
   46.2507    5.7352   12.2799 N   0  0  0  0  0  0  0  0  0  0  0  0
   45.5117    5.0489    9.2445 C   0  0  0  0  0  0  0  0  0  0  0  0
   44.9667    4.7181   10.4952 C   0  0  0  0  0  0  0  0  0  0  0  0
   44.4682    3.4220   10.6999 C   0  0  0  0  0  0  0  0  0  0  0  0
   44.5022    2.4807    9.6678 C   0  0  0  0  0  0  0  0  0  0  0  0
   45.0410    2.8218    8.4267 C   0  0  0  0  0  0  0  0  0  0  0  0
   45.5463    4.1050    8.2158 C   0  0  0  0  0  0  0  0  0  0  0  0
   55.7565   12.7645   22.1478 H   0  0  0  0  0  0  0  0  0  0  0  0
   56.1833   14.4762   22.2289 H   0  0  0  0  0  0  0  0  0  0  0  0
   57.1924   14.3781   18.7011 H   0  0  0  0  0  0  0  0  0  0  0  0
   55.6617   13.4972   18.7000 H   0  0  0  0  0  0  0  0  0  0  0  0
   56.2223   16.1896   20.0755 H   0  0  0  0  0  0  0  0  0  0  0  0
   55.2964   15.9842   18.5955 H   0  0  0  0  0  0  0  0  0  0  0  0
   53.9781   13.2494   20.4821 H   0  0  0  0  0  0  0  0  0  0  0  0
   53.6871   14.1338   21.9983 H   0  0  0  0  0  0  0  0  0  0  0  0
   52.2795   15.6781   20.5193 H   0  0  0  0  0  0  0  0  0  0  0  0
   53.1401   16.7071   19.3929 H   0  0  0  0  0  0  0  0  0  0  0  0
   51.8873   15.3513   17.9827 H   0  0  0  0  0  0  0  0  0  0  0  0
   53.4736   14.5309   17.9362 H   0  0  0  0  0  0  0  0  0  0  0  0
   50.7139   11.5397   19.7662 H   0  0  0  0  0  0  0  0  0  0  0  0
   52.1899   13.6234   16.2929 H   0  0  0  0  0  0  0  0  0  0  0  0
   51.2553   11.9014   14.8556 H   0  0  0  0  0  0  0  0  0  0  0  0
   49.7783    9.7891   18.3171 H   0  0  0  0  0  0  0  0  0  0  0  0
   47.8332    9.8932   16.2632 H   0  0  0  0  0  0  0  0  0  0  0  0
   51.7370    9.1057   14.6474 H   0  0  0  0  0  0  0  0  0  0  0  0
   46.9456    8.1521   14.7668 H   0  0  0  0  0  0  0  0  0  0  0  0
   48.3659    5.6862   13.5875 H   0  0  0  0  0  0  0  0  0  0  0  0
   49.1353    6.4374   12.1845 H   0  0  0  0  0  0  0  0  0  0  0  0
   44.7121    6.7265   11.2299 H   0  0  0  0  0  0  0  0  0  0  0  0
   44.2104    5.4688   12.3650 H   0  0  0  0  0  0  0  0  0  0  0  0
   46.5940    4.8460   12.6194 H   0  0  0  0  0  0  0  0  0  0  0  0
   45.9163    6.0459    9.0696 H   0  0  0  0  0  0  0  0  0  0  0  0
   44.0504    3.1373   11.6646 H   0  0  0  0  0  0  0  0  0  0  0  0
   44.1100    1.4813    9.8328 H   0  0  0  0  0  0  0  0  0  0  0  0
   45.0694    2.0890    7.6236 H   0  0  0  0  0  0  0  0  0  0  0  0
   45.9705    4.3715    7.2496 H   0  0  0  0  0  0  0  0  0  0  0  0
  1  2  1  0
  2  3  1  0
  3  4  1  0
  4  5  1  0
  5  6  1  0
  1  6  1  0
  7  8  1  0
  5  7  1  0
  9 10  1  0
 10 11  2  0
  8  9  1  0
 12 13  2  0
 13 14  1  0
 14 15  2  0
 10 12  1  0
 11 15  1  0
 16 17  2  0
 16 14  1  0
 18 19  2  0
 19 20  1  0
 20 21  2  0
 17 21  1  0
 16 18  1  0
 22 23  2  0
 23 24  1  0
 20 24  1  0
 25 26  1  0
 23 26  1  0
 27 28  2  0
 25 28  1  0
 29 30  2  0
 30 31  1  0
 31 32  2  0
 27 32  1  0
 28 29  1  0
  1 33  1  0
  1 34  1  0
  3 35  1  0
  3 36  1  0
  4 37  1  0
  4 38  1  0
  6 39  1  0
  6 40  1  0
  7 41  1  0
  7 42  1  0
  8 43  1  0
  8 44  1  0
 11 45  1  0
 12 46  1  0
 13 47  1  0
 15 48  1  0
 17 49  1  0
 18 50  1  0
 21 51  1  0
 24 52  1  0
 24 53  1  0
 25 54  1  0
 25 55  1  0
 26 56  1  0
 27 57  1  0
 29 58  1  0
 30 59  1  0
 31 60  1  0
 32 61  1  0
M  END
> <Uni-Dock RESULT> 
ENERGY=   -4.346  LOWER_BOUND=    6.722  UPPER_BOUND=    8.593
INTER + INTRA:          -4.346
INTER:                  -4.346
INTRA:                   0.000
UNBOUND:                 0.000

$$$$

     RDKit          3D

 61 64  0  0  0  0  0  0  0  0999 V2000
   55.8808   13.1410   21.8466 C   0  0  0  0  0  0  0  0  0  0  0  0
   56.8509   12.7968   20.8435 O   0  0  0  0  0  0  0  0  0  0  0  0
   56.6238   13.4545   19.5930 C   0  0  0  0  0  0  0  0  0  0  0  0
   56.0136   14.8625   19.7421 C   0  0  0  0  0  0  0  0  0  0  0  0
   54.7487   14.8841   20.5009 N   0  0  0  0  0  0  0  0  0  0  0  0
   54.5447   13.6409   21.2627 C   0  0  0  0  0  0  0  0  0  0  0  0
   53.5699   15.3117   19.7294 C   0  0  0  0  0  0  0  0  0  0  0  0
   53.1159   14.4219   18.5515 C   0  0  0  0  0  0  0  0  0  0  0  0
   52.3175   13.3422   19.0415 O   0  0  0  0  0  0  0  0  0  0  0  0
   51.8230   12.4626   18.1198 C   0  0  0  0  0  0  0  0  0  0  0  0
   50.9793   11.4836   18.6440 C   0  0  0  0  0  0  0  0  0  0  0  0
   52.0898   12.4658   16.7510 C   0  0  0  0  0  0  0  0  0  0  0  0
   51.5133   11.4962   15.9200 C   0  0  0  0  0  0  0  0  0  0  0  0
   50.6595   10.5080   16.4364 C   0  0  0  0  0  0  0  0  0  0  0  0
   50.4006   10.5180   17.8145 C   0  0  0  0  0  0  0  0  0  0  0  0
   50.0503    9.5019   15.5595 C   0  0  0  0  0  0  0  0  0  0  0  0
   48.6641    9.3468   15.4676 C   0  0  0  0  0  0  0  0  0  0  0  0
   50.8167    8.6472   14.7726 C   0  0  0  0  0  0  0  0  0  0  0  0
   50.3157    7.6997   13.9404 N   0  0  0  0  0  0  0  0  0  0  0  0
   48.9678    7.5933   13.8497 C   0  0  0  0  0  0  0  0  0  0  0  0
   48.1173    8.3865   14.6161 C   0  0  0  0  0  0  0  0  0  0  0  0
   47.0282    7.9384   11.6344 O   0  0  0  0  0  0  0  0  0  0  0  0
   47.1994    6.8489   12.1746 C   0  0  0  0  0  0  0  0  0  0  0  0
   48.4460    6.4918   12.9637 C   0  0  0  0  0  0  0  0  0  0  0  0
   45.0500    5.9397   11.3456 C   0  0  0  0  0  0  0  0  0  0  0  0
   46.2693    5.8346   12.1161 N   0  0  0  0  0  0  0  0  0  0  0  0
   45.6969    5.0860    9.0595 C   0  0  0  0  0  0  0  0  0  0  0  0
   45.0213    4.8794   10.2726 C   0  0  0  0  0  0  0  0  0  0  0  0
   44.3636    3.6580   10.4866 C   0  0  0  0  0  0  0  0  0  0  0  0
   44.3706    2.6691    9.4994 C   0  0  0  0  0  0  0  0  0  0  0  0
   45.0405    2.8872    8.2949 C   0  0  0  0  0  0  0  0  0  0  0  0
   45.7040    4.0947    8.0758 C   0  0  0  0  0  0  0  0  0  0  0  0
   55.7132   12.2452   22.4536 H   0  0  0  0  0  0  0  0  0  0  0  0
   56.3251   13.9011   22.5016 H   0  0  0  0  0  0  0  0  0  0  0  0
   57.5896   13.5189   19.0769 H   0  0  0  0  0  0  0  0  0  0  0  0
   55.9732   12.8138   18.9834 H   0  0  0  0  0  0  0  0  0  0  0  0
   56.7281   15.4919   20.2922 H   0  0  0  0  0  0  0  0  0  0  0  0
   55.9037   15.3178   18.7496 H   0  0  0  0  0  0  0  0  0  0  0  0
   54.1379   12.8415   20.6274 H   0  0  0  0  0  0  0  0  0  0  0  0
   53.8319   13.8259   22.0774 H   0  0  0  0  0  0  0  0  0  0  0  0
   52.7302   15.4421   20.4257 H   0  0  0  0  0  0  0  0  0  0  0  0
   53.7882   16.3129   19.3348 H   0  0  0  0  0  0  0  0  0  0  0  0
   52.5031   15.0365   17.8804 H   0  0  0  0  0  0  0  0  0  0  0  0
   53.9841   14.0443   17.9991 H   0  0  0  0  0  0  0  0  0  0  0  0
   50.7660   11.4703   19.7106 H   0  0  0  0  0  0  0  0  0  0  0  0
   52.7378   13.2049   16.2921 H   0  0  0  0  0  0  0  0  0  0  0  0
   51.7282   11.5284   14.8517 H   0  0  0  0  0  0  0  0  0  0  0  0
   49.7529    9.7648   18.2596 H   0  0  0  0  0  0  0  0  0  0  0  0
   47.9994    9.9825   16.0482 H   0  0  0  0  0  0  0  0  0  0  0  0
   51.9022    8.6897   14.7964 H   0  0  0  0  0  0  0  0  0  0  0  0
   47.0388    8.2789   14.5537 H   0  0  0  0  0  0  0  0  0  0  0  0
   48.2561    5.6162   13.5964 H   0  0  0  0  0  0  0  0  0  0  0  0
   49.2138    6.2079   12.2336 H   0  0  0  0  0  0  0  0  0  0  0  0
   44.9411    6.9372   10.9027 H   0  0  0  0  0  0  0  0  0  0  0  0
   44.2116    5.8000   12.0413 H   0  0  0  0  0  0  0  0  0  0  0  0
   46.4811    4.9306   12.5183 H   0  0  0  0  0  0  0  0  0  0  0  0
   46.2252    6.0224    8.8792 H   0  0  0  0  0  0  0  0  0  0  0  0
   43.8417    3.4689   11.4238 H   0  0  0  0  0  0  0  0  0  0  0  0
   43.8551    1.7286    9.6709 H   0  0  0  0  0  0  0  0  0  0  0  0
   45.0478    2.1172    7.5269 H   0  0  0  0  0  0  0  0  0  0  0  0
   46.2302    4.2650    7.1384 H   0  0  0  0  0  0  0  0  0  0  0  0
  1  2  1  0
  2  3  1  0
  3  4  1  0
  4  5  1  0
  5  6  1  0
  1  6  1  0
  7  8  1  0
  5  7  1  0
  9 10  1  0
 10 11  2  0
  8  9  1  0
 12 13  2  0
 13 14  1  0
 14 15  2  0
 10 12  1  0
 11 15  1  0
 16 17  2  0
 16 14  1  0
 18 19  2  0
 19 20  1  0
 20 21  2  0
 17 21  1  0
 16 18  1  0
 22 23  2  0
 23 24  1  0
 20 24  1  0
 25 26  1  0
 23 26  1  0
 27 28  2  0
 25 28  1  0
 29 30  2  0
 30 31  1  0
 31 32  2  0
 27 32  1  0
 28 29  1  0
  1 33  1  0
  1 34  1  0
  3 35  1  0
  3 36  1  0
  4 37  1  0
  4 38  1  0
  6 39  1  0
  6 40  1  0
  7 41  1  0
  7 42  1  0
  8 43  1  0
  8 44  1  0
 11 45  1  0
 12 46  1  0
 13 47  1  0
 15 48  1  0
 17 49  1  0
 18 50  1  0
 21 51  1  0
 24 52  1  0
 24 53  1  0
 25 54  1  0
 25 55  1  0
 26 56  1  0
 27 57  1  0
 29 58  1  0
 30 59  1  0
 31 60  1  0
 32 61  1  0
M  END
> <Uni-Dock RESULT> 
ENERGY=   -4.179  LOWER_BOUND=    6.644  UPPER_BOUND=    8.431
INTER + INTRA:          -4.179
INTER:                  -4.179
INTRA:                   0.000
UNBOUND:                 0.000

$$$$

     RDKit          3D

 61 64  0  0  0  0  0  0  0  0999 V2000
   54.5390   13.4748   22.2409 C   0  0  0  0  0  0  0  0  0  0  0  0
   55.5979   13.1767   21.3160 O   0  0  0  0  0  0  0  0  0  0  0  0
   55.4306   13.8144   20.0458 C   0  0  0  0  0  0  0  0  0  0  0  0
   54.7380   15.1890   20.1357 C   0  0  0  0  0  0  0  0  0  0  0  0
   53.4207   15.1479   20.7984 N   0  0  0  0  0  0  0  0  0  0  0  0
   53.2259   13.8999   21.5549 C   0  0  0  0  0  0  0  0  0  0  0  0
   52.2820   15.5082   19.9375 C   0  0  0  0  0  0  0  0  0  0  0  0
   51.9642   14.5889   18.7377 C   0  0  0  0  0  0  0  0  0  0  0  0
   51.1892   13.4713   19.1776 O   0  0  0  0  0  0  0  0  0  0  0  0
   50.8116   12.5616   18.2302 C   0  0  0  0  0  0  0  0  0  0  0  0
   49.9835   11.5422   18.6997 C   0  0  0  0  0  0  0  0  0  0  0  0
   51.1791   12.5711   16.8850 C   0  0  0  0  0  0  0  0  0  0  0  0
   50.7177   11.5677   16.0228 C   0  0  0  0  0  0  0  0  0  0  0  0
   49.8807   10.5386   16.4839 C   0  0  0  0  0  0  0  0  0  0  0  0
   49.5196   10.5427   17.8388 C   0  0  0  0  0  0  0  0  0  0  0  0
   49.3921    9.4967   15.5739 C   0  0  0  0  0  0  0  0  0  0  0  0
   48.0266    9.2680   15.3809 C   0  0  0  0  0  0  0  0  0  0  0  0
   50.2587    8.6794   14.8542 C   0  0  0  0  0  0  0  0  0  0  0  0
   49.8715    7.7020   13.9963 N   0  0  0  0  0  0  0  0  0  0  0  0
   48.5416    7.5239   13.8069 C   0  0  0  0  0  0  0  0  0  0  0  0
   47.5959    8.2753   14.5004 C   0  0  0  0  0  0  0  0  0  0  0  0
   46.7572    7.7534   11.4506 O   0  0  0  0  0  0  0  0  0  0  0  0
   46.9444    6.6775   12.0125 C   0  0  0  0  0  0  0  0  0  0  0  0
   48.1457    6.3913   12.8952 C   0  0  0  0  0  0  0  0  0  0  0  0
   44.9133    5.6512   11.0350 C   0  0  0  0  0  0  0  0  0  0  0  0
   46.0756    5.6151   11.8948 N   0  0  0  0  0  0  0  0  0  0  0  0
   45.7728    4.8200    8.8115 C   0  0  0  0  0  0  0  0  0  0  0  0
   45.0203    4.5848    9.9731 C   0  0  0  0  0  0  0  0  0  0  0  0
   44.4133    3.3315   10.1494 C   0  0  0  0  0  0  0  0  0  0  0  0
   44.5457    2.3388    9.1749 C   0  0  0  0  0  0  0  0  0  0  0  0
   45.2912    2.5853    8.0214 C   0  0  0  0  0  0  0  0  0  0  0  0
   45.9050    3.8250    7.8405 C   0  0  0  0  0  0  0  0  0  0  0  0
   54.3737   12.5748   22.8424 H   0  0  0  0  0  0  0  0  0  0  0  0
   54.8928   14.2610   22.9198 H   0  0  0  0  0  0  0  0  0  0  0  0
   56.4275   13.9270   19.6022 H   0  0  0  0  0  0  0  0  0  0  0  0
   54.8617   13.1368   19.3958 H   0  0  0  0  0  0  0  0  0  0  0  0
   55.3756   15.8584   20.7313 H   0  0  0  0  0  0  0  0  0  0  0  0
   54.6788   15.6322   19.1335 H   0  0  0  0  0  0  0  0  0  0  0  0
   52.9099   13.0766   20.8988 H   0  0  0  0  0  0  0  0  0  0  0  0
   52.4456   14.0516   22.3127 H   0  0  0  0  0  0  0  0  0  0  0  0
   51.3870   15.5978   20.5684 H   0  0  0  0  0  0  0  0  0  0  0  0
   52.4764   16.5173   19.5507 H   0  0  0  0  0  0  0  0  0  0  0  0
   51.3719   15.1664   18.0172 H   0  0  0  0  0  0  0  0  0  0  0  0
   52.8898   14.2547   18.2550 H   0  0  0  0  0  0  0  0  0  0  0  0
   49.6922   11.5237   19.7476 H   0  0  0  0  0  0  0  0  0  0  0  0
   51.8200   13.3409   16.4683 H   0  0  0  0  0  0  0  0  0  0  0  0
   51.0097   11.6052   14.9732 H   0  0  0  0  0  0  0  0  0  0  0  0
   48.8809    9.7588   18.2419 H   0  0  0  0  0  0  0  0  0  0  0  0
   47.2881    9.8709   15.9045 H   0  0  0  0  0  0  0  0  0  0  0  0
   51.3357    8.7794   14.9580 H   0  0  0  0  0  0  0  0  0  0  0  0
   46.5322    8.1104   14.3593 H   0  0  0  0  0  0  0  0  0  0  0  0
   47.9552    5.5105   13.5204 H   0  0  0  0  0  0  0  0  0  0  0  0
   48.9796    6.1443   12.2268 H   0  0  0  0  0  0  0  0  0  0  0  0
   44.7857    6.6390   10.5757 H   0  0  0  0  0  0  0  0  0  0  0  0
   44.0339    5.4712   11.6680 H   0  0  0  0  0  0  0  0  0  0  0  0
   46.3039    4.7259   12.3203 H   0  0  0  0  0  0  0  0  0  0  0  0
   46.2632    5.7820    8.6619 H   0  0  0  0  0  0  0  0  0  0  0  0
   43.8336    3.1204   11.0470 H   0  0  0  0  0  0  0  0  0  0  0  0
   44.0688    1.3733    9.3167 H   0  0  0  0  0  0  0  0  0  0  0  0
   45.3961    1.8124    7.2634 H   0  0  0  0  0  0  0  0  0  0  0  0
   46.4901    4.0175    6.9432 H   0  0  0  0  0  0  0  0  0  0  0  0
  1  2  1  0
  2  3  1  0
  3  4  1  0
  4  5  1  0
  5  6  1  0
  1  6  1  0
  7  8  1  0
  5  7  1  0
  9 10  1  0
 10 11  2  0
  8  9  1  0
 12 13  2  0
 13 14  1  0
 14 15  2  0
 10 12  1  0
 11 15  1  0
 16 17  2  0
 16 14  1  0
 18 19  2  0
 19 20  1  0
 20 21  2  0
 17 21  1  0
 16 18  1  0
 22 23  2  0
 23 24  1  0
 20 24  1  0
 25 26  1  0
 23 26  1  0
 27 28  2  0
 25 28  1  0
 29 30  2  0
 30 31  1  0
 31 32  2  0
 27 32  1  0
 28 29  1  0
  1 33  1  0
  1 34  1  0
  3 35  1  0
  3 36  1  0
  4 37  1  0
  4 38  1  0
  6 39  1  0
  6 40  1  0
  7 41  1  0
  7 42  1  0
  8 43  1  0
  8 44  1  0
 11 45  1  0
 12 46  1  0
 13 47  1  0
 15 48  1  0
 17 49  1  0
 18 50  1  0
 21 51  1  0
 24 52  1  0
 24 53  1  0
 25 54  1  0
 25 55  1  0
 26 56  1  0
 27 57  1  0
 29 58  1  0
 30 59  1  0
 31 60  1  0
 32 61  1  0
M  END
> <Uni-Dock RESULT> 
ENERGY=   -4.124  LOWER_BOUND=    6.820  UPPER_BOUND=    8.797
INTER + INTRA:          -4.124
INTER:                  -4.124
INTRA:                   0.000
UNBOUND:                 0.000

$$$$

     RDKit          3D

 61 64  0  0  0  0  0  0  0  0999 V2000
   55.8925   15.0231   20.4619 C   0  0  0  0  0  0  0  0  0  0  0  0
   56.6757   14.9389   19.2597 O   0  0  0  0  0  0  0  0  0  0  0  0
   56.0434   15.5542   18.1329 C   0  0  0  0  0  0  0  0  0  0  0  0
   55.1806   16.7765   18.5051 C   0  0  0  0  0  0  0  0  0  0  0  0
   54.1368   16.4839   19.5057 N   0  0  0  0  0  0  0  0  0  0  0  0
   54.3850   15.2101   20.2009 C   0  0  0  0  0  0  0  0  0  0  0  0
   52.7544   16.6418   19.0241 C   0  0  0  0  0  0  0  0  0  0  0  0
   52.2682   15.6981   17.9023 C   0  0  0  0  0  0  0  0  0  0  0  0
   51.8563   14.4505   18.4653 O   0  0  0  0  0  0  0  0  0  0  0  0
   51.3844   13.5014   17.6026 C   0  0  0  0  0  0  0  0  0  0  0  0
   50.9141   12.3402   18.2155 C   0  0  0  0  0  0  0  0  0  0  0  0
   51.3425   13.5988   16.2121 C   0  0  0  0  0  0  0  0  0  0  0  0
   50.8323   12.5410   15.4481 C   0  0  0  0  0  0  0  0  0  0  0  0
   50.3529   11.3686   16.0548 C   0  0  0  0  0  0  0  0  0  0  0  0
   50.4013   11.2856   17.4538 C   0  0  0  0  0  0  0  0  0  0  0  0
   49.8099   10.2687   15.2501 C   0  0  0  0  0  0  0  0  0  0  0  0
   48.5071    9.7958   15.4321 C   0  0  0  0  0  0  0  0  0  0  0  0
   50.5601    9.6356   14.2635 C   0  0  0  0  0  0  0  0  0  0  0  0
   50.1166    8.6169   13.4845 N   0  0  0  0  0  0  0  0  0  0  0  0
   48.8396    8.2002   13.6634 C   0  0  0  0  0  0  0  0  0  0  0  0
   48.0187    8.7543   14.6427 C   0  0  0  0  0  0  0  0  0  0  0  0
   46.4415    8.1336   11.9216 O   0  0  0  0  0  0  0  0  0  0  0  0
   46.9643    7.1020   12.3350 C   0  0  0  0  0  0  0  0  0  0  0  0
   48.3991    7.0282   12.8250 C   0  0  0  0  0  0  0  0  0  0  0  0
   44.9458    5.7348   11.8984 C   0  0  0  0  0  0  0  0  0  0  0  0
   46.2943    5.8999   12.3941 N   0  0  0  0  0  0  0  0  0  0  0  0
   45.2594    5.1098    9.4726 C   0  0  0  0  0  0  0  0  0  0  0  0
   44.9246    4.7226   10.7798 C   0  0  0  0  0  0  0  0  0  0  0  0
   44.6186    3.3765   11.0344 C   0  0  0  0  0  0  0  0  0  0  0  0
   44.6338    2.4401    9.9974 C   0  0  0  0  0  0  0  0  0  0  0  0
   44.9624    2.8369    8.7006 C   0  0  0  0  0  0  0  0  0  0  0  0
   45.2759    4.1709    8.4389 C   0  0  0  0  0  0  0  0  0  0  0  0
   56.0643   14.0990   21.0237 H   0  0  0  0  0  0  0  0  0  0  0  0
   56.2859   15.8506   21.0658 H   0  0  0  0  0  0  0  0  0  0  0  0
   56.8360   15.8548   17.4366 H   0  0  0  0  0  0  0  0  0  0  0  0
   55.4369   14.7935   17.6240 H   0  0  0  0  0  0  0  0  0  0  0  0
   55.8375   17.5426   18.9420 H   0  0  0  0  0  0  0  0  0  0  0  0
   54.7605   17.2165   17.5917 H   0  0  0  0  0  0  0  0  0  0  0  0
   54.0401   14.3527   19.6057 H   0  0  0  0  0  0  0  0  0  0  0  0
   53.8414   15.2042   21.1552 H   0  0  0  0  0  0  0  0  0  0  0  0
   52.0770   16.5558   19.8848 H   0  0  0  0  0  0  0  0  0  0  0  0
   52.6531   17.6752   18.6670 H   0  0  0  0  0  0  0  0  0  0  0  0
   51.4037   16.1678   17.4168 H   0  0  0  0  0  0  0  0  0  0  0  0
   53.0590   15.5472   17.1585 H   0  0  0  0  0  0  0  0  0  0  0  0
   50.9441   12.2525   19.2994 H   0  0  0  0  0  0  0  0  0  0  0  0
   51.6944   14.4796   15.6854 H   0  0  0  0  0  0  0  0  0  0  0  0
   50.7993   12.6474   14.3637 H   0  0  0  0  0  0  0  0  0  0  0  0
   50.0500   10.3917   17.9659 H   0  0  0  0  0  0  0  0  0  0  0  0
   47.8581   10.2446   16.1806 H   0  0  0  0  0  0  0  0  0  0  0  0
   51.5876    9.9303   14.0682 H   0  0  0  0  0  0  0  0  0  0  0  0
   47.0042    8.3989   14.7942 H   0  0  0  0  0  0  0  0  0  0  0  0
   48.5506    6.1179   13.4179 H   0  0  0  0  0  0  0  0  0  0  0  0
   49.0352    6.9489   11.9349 H   0  0  0  0  0  0  0  0  0  0  0  0
   44.5239    6.6892   11.5606 H   0  0  0  0  0  0  0  0  0  0  0  0
   44.3300    5.3867   12.7386 H   0  0  0  0  0  0  0  0  0  0  0  0
   46.7845    5.0615   12.6780 H   0  0  0  0  0  0  0  0  0  0  0  0
   45.5133    6.1477    9.2567 H   0  0  0  0  0  0  0  0  0  0  0  0
   44.3666    3.0488   12.0421 H   0  0  0  0  0  0  0  0  0  0  0  0
   44.3911    1.4013   10.2018 H   0  0  0  0  0  0  0  0  0  0  0  0
   44.9762    2.1081    7.8935 H   0  0  0  0  0  0  0  0  0  0  0  0
   45.5362    4.4813    7.4287 H   0  0  0  0  0  0  0  0  0  0  0  0
  1  2  1  0
  2  3  1  0
  3  4  1  0
  4  5  1  0
  5  6  1  0
  1  6  1  0
  7  8  1  0
  5  7  1  0
  9 10  1  0
 10 11  2  0
  8  9  1  0
 12 13  2  0
 13 14  1  0
 14 15  2  0
 10 12  1  0
 11 15  1  0
 16 17  2  0
 16 14  1  0
 18 19  2  0
 19 20  1  0
 20 21  2  0
 17 21  1  0
 16 18  1  0
 22 23  2  0
 23 24  1  0
 20 24  1  0
 25 26  1  0
 23 26  1  0
 27 28  2  0
 25 28  1  0
 29 30  2  0
 30 31  1  0
 31 32  2  0
 27 32  1  0
 28 29  1  0
  1 33  1  0
  1 34  1  0
  3 35  1  0
  3 36  1  0
  4 37  1  0
  4 38  1  0
  6 39  1  0
  6 40  1  0
  7 41  1  0
  7 42  1  0
  8 43  1  0
  8 44  1  0
 11 45  1  0
 12 46  1  0
 13 47  1  0
 15 48  1  0
 17 49  1  0
 18 50  1  0
 21 51  1  0
 24 52  1  0
 24 53  1  0
 25 54  1  0
 25 55  1  0
 26 56  1  0
 27 57  1  0
 29 58  1  0
 30 59  1  0
 31 60  1  0
 32 61  1  0
M  END
> <Uni-Dock RESULT> 
ENERGY=   -4.080  LOWER_BOUND=    6.696  UPPER_BOUND=    8.682
INTER + INTRA:          -4.080
INTER:                  -4.080
INTRA:                   0.000
UNBOUND:                 0.000

$$$$

     RDKit          3D

 61 64  0  0  0  0  0  0  0  0999 V2000
   42.6614    5.3544   11.8343 C   0  0  0  0  0  0  0  0  0  0  0  0
   43.1002    5.1020   10.4891 O   0  0  0  0  0  0  0  0  0  0  0  0
   44.4315    4.5816   10.4207 C   0  0  0  0  0  0  0  0  0  0  0  0
   44.8039    3.6887   11.6212 C   0  0  0  0  0  0  0  0  0  0  0  0
   44.6449    4.3544   12.9281 N   0  0  0  0  0  0  0  0  0  0  0  0
   43.8198    5.5696   12.8280 C   0  0  0  0  0  0  0  0  0  0  0  0
   45.8940    4.5414   13.6848 C   0  0  0  0  0  0  0  0  0  0  0  0
   46.9707    5.4711   13.0831 C   0  0  0  0  0  0  0  0  0  0  0  0
   46.6610    6.8320   13.3917 O   0  0  0  0  0  0  0  0  0  0  0  0
   47.5268    7.7876   12.9392 C   0  0  0  0  0  0  0  0  0  0  0  0
   47.2235    9.0869   13.3453 C   0  0  0  0  0  0  0  0  0  0  0  0
   48.6432    7.5729   12.1314 C   0  0  0  0  0  0  0  0  0  0  0  0
   49.4450    8.6526   11.7384 C   0  0  0  0  0  0  0  0  0  0  0  0
   49.1510    9.9645   12.1444 C   0  0  0  0  0  0  0  0  0  0  0  0
   48.0256   10.1644   12.9566 C   0  0  0  0  0  0  0  0  0  0  0  0
   50.0005   11.0896   11.7385 C   0  0  0  0  0  0  0  0  0  0  0  0
   50.6198   11.9211   12.6761 C   0  0  0  0  0  0  0  0  0  0  0  0
   50.2360   11.3917   10.4005 C   0  0  0  0  0  0  0  0  0  0  0  0
   51.0120   12.4140    9.9602 N   0  0  0  0  0  0  0  0  0  0  0  0
   51.6235   13.1843   10.8925 C   0  0  0  0  0  0  0  0  0  0  0  0
   51.4295   12.9766   12.2560 C   0  0  0  0  0  0  0  0  0  0  0  0
   54.4595   13.7474   11.5473 O   0  0  0  0  0  0  0  0  0  0  0  0
   53.7076   14.6278   11.1374 C   0  0  0  0  0  0  0  0  0  0  0  0
   52.4281   14.3466   10.3707 C   0  0  0  0  0  0  0  0  0  0  0  0
   55.1603   16.4536   11.9682 C   0  0  0  0  0  0  0  0  0  0  0  0
   53.9544   15.9686   11.3341 N   0  0  0  0  0  0  0  0  0  0  0  0
   56.7859   16.7315   10.0568 C   0  0  0  0  0  0  0  0  0  0  0  0
   55.9385   17.3199   11.0088 C   0  0  0  0  0  0  0  0  0  0  0  0
   55.7926   18.7159   11.0208 C   0  0  0  0  0  0  0  0  0  0  0  0
   56.4926   19.5074   10.1064 C   0  0  0  0  0  0  0  0  0  0  0  0
   57.3367   18.9126    9.1679 C   0  0  0  0  0  0  0  0  0  0  0  0
   57.4823   17.5253    9.1428 C   0  0  0  0  0  0  0  0  0  0  0  0
   42.0233    6.2437   11.8036 H   0  0  0  0  0  0  0  0  0  0  0  0
   42.0328    4.5120   12.1498 H   0  0  0  0  0  0  0  0  0  0  0  0
   44.5110    4.0073    9.4895 H   0  0  0  0  0  0  0  0  0  0  0  0
   45.1255    5.4285   10.3389 H   0  0  0  0  0  0  0  0  0  0  0  0
   44.1351    2.8158   11.6227 H   0  0  0  0  0  0  0  0  0  0  0  0
   45.8197    3.2974   11.4817 H   0  0  0  0  0  0  0  0  0  0  0  0
   44.4084    6.4279   12.4741 H   0  0  0  0  0  0  0  0  0  0  0  0
   43.4155    5.8177   13.8185 H   0  0  0  0  0  0  0  0  0  0  0  0
   45.6373    4.8944   14.6930 H   0  0  0  0  0  0  0  0  0  0  0  0
   46.3405    3.5476   13.8214 H   0  0  0  0  0  0  0  0  0  0  0  0
   47.9331    5.2158   13.5438 H   0  0  0  0  0  0  0  0  0  0  0  0
   47.0418    5.3243   11.9992 H   0  0  0  0  0  0  0  0  0  0  0  0
   46.3539    9.2663   13.9737 H   0  0  0  0  0  0  0  0  0  0  0  0
   48.9242    6.5828   11.7884 H   0  0  0  0  0  0  0  0  0  0  0  0
   50.3189    8.4561   11.1171 H   0  0  0  0  0  0  0  0  0  0  0  0
   47.7541   11.1655   13.2865 H   0  0  0  0  0  0  0  0  0  0  0  0
   50.4875   11.7441   13.7411 H   0  0  0  0  0  0  0  0  0  0  0  0
   49.7797   10.8058    9.6072 H   0  0  0  0  0  0  0  0  0  0  0  0
   51.9056   13.6128   12.9957 H   0  0  0  0  0  0  0  0  0  0  0  0
   51.7799   15.2314   10.3780 H   0  0  0  0  0  0  0  0  0  0  0  0
   52.7163   14.1604    9.3289 H   0  0  0  0  0  0  0  0  0  0  0  0
   55.7829   15.6263   12.3300 H   0  0  0  0  0  0  0  0  0  0  0  0
   54.8543   17.0381   12.8464 H   0  0  0  0  0  0  0  0  0  0  0  0
   53.3433   16.6610   10.9206 H   0  0  0  0  0  0  0  0  0  0  0  0
   56.9025   15.6482   10.0222 H   0  0  0  0  0  0  0  0  0  0  0  0
   55.1326   19.1957   11.7422 H   0  0  0  0  0  0  0  0  0  0  0  0
   56.3778   20.5873   10.1254 H   0  0  0  0  0  0  0  0  0  0  0  0
   57.8804   19.5280    8.4549 H   0  0  0  0  0  0  0  0  0  0  0  0
   58.1372   17.0594    8.4089 H   0  0  0  0  0  0  0  0  0  0  0  0
  1  2  1  0
  2  3  1  0
  3  4  1  0
  4  5  1  0
  5  6  1  0
  1  6  1  0
  7  8  1  0
  5  7  1  0
  9 10  1  0
 10 11  2  0
  8  9  1  0
 12 13  2  0
 13 14  1  0
 14 15  2  0
 10 12  1  0
 11 15  1  0
 16 17  2  0
 16 14  1  0
 18 19  2  0
 19 20  1  0
 20 21  2  0
 17 21  1  0
 16 18  1  0
 22 23  2  0
 23 24  1  0
 20 24  1  0
 25 26  1  0
 23 26  1  0
 27 28  2  0
 25 28  1  0
 29 30  2  0
 30 31  1  0
 31 32  2  0
 27 32  1  0
 28 29  1  0
  1 33  1  0
  1 34  1  0
  3 35  1  0
  3 36  1  0
  4 37  1  0
  4 38  1  0
  6 39  1  0
  6 40  1  0
  7 41  1  0
  7 42  1  0
  8 43  1  0
  8 44  1  0
 11 45  1  0
 12 46  1  0
 13 47  1  0
 15 48  1  0
 17 49  1  0
 18 50  1  0
 21 51  1  0
 24 52  1  0
 24 53  1  0
 25 54  1  0
 25 55  1  0
 26 56  1  0
 27 57  1  0
 29 58  1  0
 30 59  1  0
 31 60  1  0
 32 61  1  0
M  END
> <Uni-Dock RESULT> 
ENERGY=   -3.929  LOWER_BOUND=    6.066  UPPER_BOUND=   11.657
INTER + INTRA:          -3.929
INTER:                  -3.929
INTRA:                   0.000
UNBOUND:                 0.000

$$$$

     RDKit          3D

 61 64  0  0  0  0  0  0  0  0999 V2000
   57.4110    1.2698   10.7651 C   0  0  0  0  0  0  0  0  0  0  0  0
   56.2007    0.5717   10.4279 O   0  0  0  0  0  0  0  0  0  0  0  0
   55.5659    1.0836    9.2519 C   0  0  0  0  0  0  0  0  0  0  0  0
   56.5593    1.6240    8.2040 C   0  0  0  0  0  0  0  0  0  0  0  0
   57.4600    2.6703    8.7238 N   0  0  0  0  0  0  0  0  0  0  0  0
   57.4736    2.7007   10.1957 C   0  0  0  0  0  0  0  0  0  0  0  0
   57.2971    3.9943    8.1008 C   0  0  0  0  0  0  0  0  0  0  0  0
   55.9527    4.7273    8.3030 C   0  0  0  0  0  0  0  0  0  0  0  0
   55.9533    5.3979    9.5654 O   0  0  0  0  0  0  0  0  0  0  0  0
   54.8337    6.1087    9.8955 C   0  0  0  0  0  0  0  0  0  0  0  0
   54.9249    6.8140   11.0953 C   0  0  0  0  0  0  0  0  0  0  0  0
   53.6527    6.1770    9.1570 C   0  0  0  0  0  0  0  0  0  0  0  0
   52.5774    6.9469    9.6197 C   0  0  0  0  0  0  0  0  0  0  0  0
   52.6596    7.6639   10.8245 C   0  0  0  0  0  0  0  0  0  0  0  0
   53.8535    7.5856   11.5557 C   0  0  0  0  0  0  0  0  0  0  0  0
   51.5341    8.4769   11.2985 C   0  0  0  0  0  0  0  0  0  0  0  0
   51.6665    9.8465   11.5445 C   0  0  0  0  0  0  0  0  0  0  0  0
   50.2750    7.9310   11.5299 C   0  0  0  0  0  0  0  0  0  0  0  0
   49.1946    8.6275   11.9645 N   0  0  0  0  0  0  0  0  0  0  0  0
   49.3457    9.9591   12.1653 C   0  0  0  0  0  0  0  0  0  0  0  0
   50.5731   10.5923   11.9854 C   0  0  0  0  0  0  0  0  0  0  0  0
   48.1097   12.3681   10.9577 O   0  0  0  0  0  0  0  0  0  0  0  0
   47.9436   12.0854   12.1413 C   0  0  0  0  0  0  0  0  0  0  0  0
   48.1440   10.6905   12.7055 C   0  0  0  0  0  0  0  0  0  0  0  0
   47.2309   14.3812   12.7372 C   0  0  0  0  0  0  0  0  0  0  0  0
   47.5547   13.0143   13.0811 N   0  0  0  0  0  0  0  0  0  0  0  0
   44.7630   14.3098   12.2098 C   0  0  0  0  0  0  0  0  0  0  0  0
   45.7939   14.6780   13.0886 C   0  0  0  0  0  0  0  0  0  0  0  0
   45.4630   15.2798   14.3129 C   0  0  0  0  0  0  0  0  0  0  0  0
   44.1269   15.5206   14.6435 C   0  0  0  0  0  0  0  0  0  0  0  0
   43.1104   15.1558   13.7601 C   0  0  0  0  0  0  0  0  0  0  0  0
   43.4285   14.5498   12.5443 C   0  0  0  0  0  0  0  0  0  0  0  0
   57.4730    1.2978   11.8580 H   0  0  0  0  0  0  0  0  0  0  0  0
   58.2585    0.6729   10.4050 H   0  0  0  0  0  0  0  0  0  0  0  0
   54.9730    0.2686    8.8189 H   0  0  0  0  0  0  0  0  0  0  0  0
   54.8619    1.8686    9.5580 H   0  0  0  0  0  0  0  0  0  0  0  0
   57.1949    0.7913    7.8694 H   0  0  0  0  0  0  0  0  0  0  0  0
   56.0056    1.9627    7.3191 H   0  0  0  0  0  0  0  0  0  0  0  0
   56.6138    3.2571   10.5950 H   0  0  0  0  0  0  0  0  0  0  0  0
   58.3911    3.1958   10.5411 H   0  0  0  0  0  0  0  0  0  0  0  0
   58.1147    4.6416    8.4466 H   0  0  0  0  0  0  0  0  0  0  0  0
   57.4550    3.8650    7.0219 H   0  0  0  0  0  0  0  0  0  0  0  0
   55.8528    5.4755    7.5070 H   0  0  0  0  0  0  0  0  0  0  0  0
   55.1172    4.0208    8.2381 H   0  0  0  0  0  0  0  0  0  0  0  0
   55.8406    6.7662   11.6806 H   0  0  0  0  0  0  0  0  0  0  0  0
   53.5295    5.6489    8.2174 H   0  0  0  0  0  0  0  0  0  0  0  0
   51.6701    6.9933    9.0174 H   0  0  0  0  0  0  0  0  0  0  0  0
   53.9579    8.1167   12.5001 H   0  0  0  0  0  0  0  0  0  0  0  0
   52.6190   10.3456   11.3810 H   0  0  0  0  0  0  0  0  0  0  0  0
   50.0899    6.8709   11.3795 H   0  0  0  0  0  0  0  0  0  0  0  0
   50.6905   11.6556   12.1705 H   0  0  0  0  0  0  0  0  0  0  0  0
   48.2425   10.7338   13.7971 H   0  0  0  0  0  0  0  0  0  0  0  0
   47.2326   10.1230   12.4812 H   0  0  0  0  0  0  0  0  0  0  0  0
   47.4155   14.5812   11.6747 H   0  0  0  0  0  0  0  0  0  0  0  0
   47.9052   15.0304   13.3118 H   0  0  0  0  0  0  0  0  0  0  0  0
   47.3644   12.7230   14.0312 H   0  0  0  0  0  0  0  0  0  0  0  0
   44.9983   13.8291   11.2601 H   0  0  0  0  0  0  0  0  0  0  0  0
   46.2439   15.5646   15.0168 H   0  0  0  0  0  0  0  0  0  0  0  0
   43.8796   15.9911   15.5908 H   0  0  0  0  0  0  0  0  0  0  0  0
   42.0702   15.3414   14.0177 H   0  0  0  0  0  0  0  0  0  0  0  0
   42.6367   14.2611   11.8558 H   0  0  0  0  0  0  0  0  0  0  0  0
  1  2  1  0
  2  3  1  0
  3  4  1  0
  4  5  1  0
  5  6  1  0
  1  6  1  0
  7  8  1  0
  5  7  1  0
  9 10  1  0
 10 11  2  0
  8  9  1  0
 12 13  2  0
 13 14  1  0
 14 15  2  0
 10 12  1  0
 11 15  1  0
 16 17  2  0
 16 14  1  0
 18 19  2  0
 19 20  1  0
 20 21  2  0
 17 21  1  0
 16 18  1  0
 22 23  2  0
 23 24  1  0
 20 24  1  0
 25 26  1  0
 23 26  1  0
 27 28  2  0
 25 28  1  0
 29 30  2  0
 30 31  1  0
 31 32  2  0
 27 32  1  0
 28 29  1  0
  1 33  1  0
  1 34  1  0
  3 35  1  0
  3 36  1  0
  4 37  1  0
  4 38  1  0
  6 39  1  0
  6 40  1  0
  7 41  1  0
  7 42  1  0
  8 43  1  0
  8 44  1  0
 11 45  1  0
 12 46  1  0
 13 47  1  0
 15 48  1  0
 17 49  1  0
 18 50  1  0
 21 51  1  0
 24 52  1  0
 24 53  1  0
 25 54  1  0
 25 55  1  0
 26 56  1  0
 27 57  1  0
 29 58  1  0
 30 59  1  0
 31 60  1  0
 32 61  1  0
M  END
> <Uni-Dock RESULT> 
ENERGY=   -3.914  LOWER_BOUND=    3.435  UPPER_BOUND=    4.392
INTER + INTRA:          -3.914
INTER:                  -3.914
INTRA:                   0.000
UNBOUND:                 0.000

$$$$

     RDKit          3D

 61 64  0  0  0  0  0  0  0  0999 V2000
   39.0756   10.5967   11.8583 C   0  0  0  0  0  0  0  0  0  0  0  0
   39.3213   11.6537   12.8007 O   0  0  0  0  0  0  0  0  0  0  0  0
   40.3566   12.5492   12.3833 C   0  0  0  0  0  0  0  0  0  0  0  0
   40.4272   12.7359   10.8545 C   0  0  0  0  0  0  0  0  0  0  0  0
   40.5931   11.4736   10.1093 N   0  0  0  0  0  0  0  0  0  0  0  0
   40.2781   10.3002   10.9408 C   0  0  0  0  0  0  0  0  0  0  0  0
   41.8573   11.3551    9.3640 C   0  0  0  0  0  0  0  0  0  0  0  0
   43.1723   11.3186   10.1733 C   0  0  0  0  0  0  0  0  0  0  0  0
   43.4092    9.9921   10.6502 O   0  0  0  0  0  0  0  0  0  0  0  0
   44.5460    9.7845   11.3799 C   0  0  0  0  0  0  0  0  0  0  0  0
   44.7707    8.4564   11.7419 C   0  0  0  0  0  0  0  0  0  0  0  0
   45.4599   10.7597   11.7781 C   0  0  0  0  0  0  0  0  0  0  0  0
   46.5866   10.4023   12.5303 C   0  0  0  0  0  0  0  0  0  0  0  0
   46.8246    9.0678   12.8974 C   0  0  0  0  0  0  0  0  0  0  0  0
   45.8970    8.0986   12.4894 C   0  0  0  0  0  0  0  0  0  0  0  0
   48.0118    8.6982   13.6759 C   0  0  0  0  0  0  0  0  0  0  0  0
   48.9425    7.7682   13.2038 C   0  0  0  0  0  0  0  0  0  0  0  0
   48.2768    9.2511   14.9254 C   0  0  0  0  0  0  0  0  0  0  0  0
   49.3558    8.9545   15.6928 N   0  0  0  0  0  0  0  0  0  0  0  0
   50.2561    8.0721   15.1954 C   0  0  0  0  0  0  0  0  0  0  0  0
   50.0662    7.4466   13.9656 C   0  0  0  0  0  0  0  0  0  0  0  0
   53.1257    8.2575   14.4744 O   0  0  0  0  0  0  0  0  0  0  0  0
   52.7380    7.5330   15.3872 C   0  0  0  0  0  0  0  0  0  0  0  0
   51.4099    7.7195   16.0982 C   0  0  0  0  0  0  0  0  0  0  0  0
   54.8069    6.1714   15.3766 C   0  0  0  0  0  0  0  0  0  0  0  0
   53.4774    6.4714   15.8602 N   0  0  0  0  0  0  0  0  0  0  0  0
   56.3220    7.5212   16.8786 C   0  0  0  0  0  0  0  0  0  0  0  0
   55.8040    6.2712   16.5045 C   0  0  0  0  0  0  0  0  0  0  0  0
   56.1911    5.1301   17.2245 C   0  0  0  0  0  0  0  0  0  0  0  0
   57.0901    5.2375   18.2888 C   0  0  0  0  0  0  0  0  0  0  0  0
   57.6033    6.4842   18.6487 C   0  0  0  0  0  0  0  0  0  0  0  0
   57.2185    7.6253   17.9443 C   0  0  0  0  0  0  0  0  0  0  0  0
   38.8154    9.7038   12.4362 H   0  0  0  0  0  0  0  0  0  0  0  0
   38.1942   10.8699   11.2643 H   0  0  0  0  0  0  0  0  0  0  0  0
   40.1696   13.5148   12.8690 H   0  0  0  0  0  0  0  0  0  0  0  0
   41.3118   12.1714   12.7710 H   0  0  0  0  0  0  0  0  0  0  0  0
   39.4815   13.1849   10.5176 H   0  0  0  0  0  0  0  0  0  0  0  0
   41.2149   13.4608   10.6129 H   0  0  0  0  0  0  0  0  0  0  0  0
   41.1265   10.0213   11.5816 H   0  0  0  0  0  0  0  0  0  0  0  0
   40.0452    9.4457   10.2913 H   0  0  0  0  0  0  0  0  0  0  0  0
   41.8013   10.4603    8.7290 H   0  0  0  0  0  0  0  0  0  0  0  0
   41.9063   12.2078    8.6738 H   0  0  0  0  0  0  0  0  0  0  0  0
   43.9911   11.6024    9.5005 H   0  0  0  0  0  0  0  0  0  0  0  0
   43.1298   12.0298   11.0063 H   0  0  0  0  0  0  0  0  0  0  0  0
   44.0632    7.6878   11.4385 H   0  0  0  0  0  0  0  0  0  0  0  0
   45.3333   11.8064   11.5228 H   0  0  0  0  0  0  0  0  0  0  0  0
   47.2919   11.1820   12.8184 H   0  0  0  0  0  0  0  0  0  0  0  0
   46.0360    7.0535   12.7599 H   0  0  0  0  0  0  0  0  0  0  0  0
   48.8064    7.2976   12.2327 H   0  0  0  0  0  0  0  0  0  0  0  0
   47.5960    9.9697   15.3736 H   0  0  0  0  0  0  0  0  0  0  0  0
   50.7814    6.7240   13.5850 H   0  0  0  0  0  0  0  0  0  0  0  0
   51.1405    6.8066   16.6432 H   0  0  0  0  0  0  0  0  0  0  0  0
   51.5558    8.5133   16.8410 H   0  0  0  0  0  0  0  0  0  0  0  0
   55.0922    6.8359   14.5519 H   0  0  0  0  0  0  0  0  0  0  0  0
   54.7853    5.1486   14.9769 H   0  0  0  0  0  0  0  0  0  0  0  0
   53.1497    5.9431   16.6585 H   0  0  0  0  0  0  0  0  0  0  0  0
   56.0234    8.4212   16.3407 H   0  0  0  0  0  0  0  0  0  0  0  0
   55.7947    4.1504   16.9610 H   0  0  0  0  0  0  0  0  0  0  0  0
   57.3883    4.3490   18.8378 H   0  0  0  0  0  0  0  0  0  0  0  0
   58.3016    6.5685   19.4781 H   0  0  0  0  0  0  0  0  0  0  0  0
   57.6148    8.5990   18.2262 H   0  0  0  0  0  0  0  0  0  0  0  0
  1  2  1  0
  2  3  1  0
  3  4  1  0
  4  5  1  0
  5  6  1  0
  1  6  1  0
  7  8  1  0
  5  7  1  0
  9 10  1  0
 10 11  2  0
  8  9  1  0
 12 13  2  0
 13 14  1  0
 14 15  2  0
 10 12  1  0
 11 15  1  0
 16 17  2  0
 16 14  1  0
 18 19  2  0
 19 20  1  0
 20 21  2  0
 17 21  1  0
 16 18  1  0
 22 23  2  0
 23 24  1  0
 20 24  1  0
 25 26  1  0
 23 26  1  0
 27 28  2  0
 25 28  1  0
 29 30  2  0
 30 31  1  0
 31 32  2  0
 27 32  1  0
 28 29  1  0
  1 33  1  0
  1 34  1  0
  3 35  1  0
  3 36  1  0
  4 37  1  0
  4 38  1  0
  6 39  1  0
  6 40  1  0
  7 41  1  0
  7 42  1  0
  8 43  1  0
  8 44  1  0
 11 45  1  0
 12 46  1  0
 13 47  1  0
 15 48  1  0
 17 49  1  0
 18 50  1  0
 21 51  1  0
 24 52  1  0
 24 53  1  0
 25 54  1  0
 25 55  1  0
 26 56  1  0
 27 57  1  0
 29 58  1  0
 30 59  1  0
 31 60  1  0
 32 61  1  0
M  END
> <Uni-Dock RESULT> 
ENERGY=   -3.881  LOWER_BOUND=    3.154  UPPER_BOUND=   13.292
INTER + INTRA:          -3.881
INTER:                  -3.881
INTRA:                   0.000
UNBOUND:                 0.000

$$$$

     RDKit          3D

 61 64  0  0  0  0  0  0  0  0999 V2000
   48.3477   16.9925    6.5378 C   0  0  0  0  0  0  0  0  0  0  0  0
   49.5117   17.4723    7.2310 O   0  0  0  0  0  0  0  0  0  0  0  0
   50.5687   16.5092    7.2878 C   0  0  0  0  0  0  0  0  0  0  0  0
   50.6305   15.5921    6.0498 C   0  0  0  0  0  0  0  0  0  0  0  0
   49.3728   14.8685    5.7836 N   0  0  0  0  0  0  0  0  0  0  0  0
   48.2371   15.4553    6.5141 C   0  0  0  0  0  0  0  0  0  0  0  0
   49.4639   13.4035    5.8988 C   0  0  0  0  0  0  0  0  0  0  0  0
   49.7829   12.8066    7.2871 C   0  0  0  0  0  0  0  0  0  0  0  0
   48.5859   12.7241    8.0640 O   0  0  0  0  0  0  0  0  0  0  0  0
   48.6930   12.2031    9.3229 C   0  0  0  0  0  0  0  0  0  0  0  0
   47.4817   12.0639   10.0001 C   0  0  0  0  0  0  0  0  0  0  0  0
   49.8733   11.8194    9.9588 C   0  0  0  0  0  0  0  0  0  0  0  0
   49.8347   11.3007   11.2598 C   0  0  0  0  0  0  0  0  0  0  0  0
   48.6204   11.1529   11.9497 C   0  0  0  0  0  0  0  0  0  0  0  0
   47.4421   11.5428   11.2971 C   0  0  0  0  0  0  0  0  0  0  0  0
   48.5852   10.5991   13.3078 C   0  0  0  0  0  0  0  0  0  0  0  0
   47.8394    9.4587   13.6195 C   0  0  0  0  0  0  0  0  0  0  0  0
   49.2902   11.1774   14.3593 C   0  0  0  0  0  0  0  0  0  0  0  0
   49.3017   10.7135   15.6344 N   0  0  0  0  0  0  0  0  0  0  0  0
   48.5935    9.5891   15.8996 C   0  0  0  0  0  0  0  0  0  0  0  0
   47.8357    8.9525   14.9195 C   0  0  0  0  0  0  0  0  0  0  0  0
   49.3278    6.8820   16.8596 O   0  0  0  0  0  0  0  0  0  0  0  0
   48.6204    7.6309   17.5282 C   0  0  0  0  0  0  0  0  0  0  0  0
   48.5786    9.1362   17.3367 C   0  0  0  0  0  0  0  0  0  0  0  0
   47.7405    5.7853   18.9258 C   0  0  0  0  0  0  0  0  0  0  0  0
   47.7888    7.1745   18.5270 N   0  0  0  0  0  0  0  0  0  0  0  0
   49.5119    5.6019   20.7152 C   0  0  0  0  0  0  0  0  0  0  0  0
   48.1517    5.6458   20.3708 C   0  0  0  0  0  0  0  0  0  0  0  0
   47.1888    5.6061   21.3913 C   0  0  0  0  0  0  0  0  0  0  0  0
   47.5807    5.5101   22.7292 C   0  0  0  0  0  0  0  0  0  0  0  0
   48.9354    5.4613   23.0600 C   0  0  0  0  0  0  0  0  0  0  0  0
   49.9002    5.5082   22.0535 C   0  0  0  0  0  0  0  0  0  0  0  0
   47.4742   17.4238    7.0379 H   0  0  0  0  0  0  0  0  0  0  0  0
   48.3712   17.3942    5.5169 H   0  0  0  0  0  0  0  0  0  0  0  0
   51.5104   17.0623    7.3899 H   0  0  0  0  0  0  0  0  0  0  0  0
   50.4411   15.9155    8.2025 H   0  0  0  0  0  0  0  0  0  0  0  0
   50.8339   16.2164    5.1677 H   0  0  0  0  0  0  0  0  0  0  0  0
   51.4837   14.9087    6.1462 H   0  0  0  0  0  0  0  0  0  0  0  0
   48.2051   15.1066    7.5560 H   0  0  0  0  0  0  0  0  0  0  0  0
   47.2986   15.1600    6.0260 H   0  0  0  0  0  0  0  0  0  0  0  0
   48.5255   12.9690    5.5278 H   0  0  0  0  0  0  0  0  0  0  0  0
   50.2428   13.0726    5.1992 H   0  0  0  0  0  0  0  0  0  0  0  0
   50.1757   11.7933    7.1370 H   0  0  0  0  0  0  0  0  0  0  0  0
   50.5389   13.4119    7.8003 H   0  0  0  0  0  0  0  0  0  0  0  0
   46.5551   12.3621    9.5145 H   0  0  0  0  0  0  0  0  0  0  0  0
   50.8416   11.9058    9.4772 H   0  0  0  0  0  0  0  0  0  0  0  0
   50.7702   10.9968   11.7296 H   0  0  0  0  0  0  0  0  0  0  0  0
   46.4795   11.4554   11.7976 H   0  0  0  0  0  0  0  0  0  0  0  0
   47.2667    8.9478   12.8487 H   0  0  0  0  0  0  0  0  0  0  0  0
   49.8821   12.0758   14.2072 H   0  0  0  0  0  0  0  0  0  0  0  0
   47.2533    8.0649   15.1463 H   0  0  0  0  0  0  0  0  0  0  0  0
   47.6809    9.5534   17.8089 H   0  0  0  0  0  0  0  0  0  0  0  0
   49.4476    9.5479   17.8644 H   0  0  0  0  0  0  0  0  0  0  0  0
   48.3754    5.1622   18.2841 H   0  0  0  0  0  0  0  0  0  0  0  0
   46.7058    5.4428   18.7898 H   0  0  0  0  0  0  0  0  0  0  0  0
   47.2748    7.8336   19.0973 H   0  0  0  0  0  0  0  0  0  0  0  0
   50.2755    5.6451   19.9384 H   0  0  0  0  0  0  0  0  0  0  0  0
   46.1274    5.6500   21.1508 H   0  0  0  0  0  0  0  0  0  0  0  0
   46.8292    5.4750   23.5126 H   0  0  0  0  0  0  0  0  0  0  0  0
   49.2410    5.3884   24.1013 H   0  0  0  0  0  0  0  0  0  0  0  0
   50.9574    5.4743   22.3100 H   0  0  0  0  0  0  0  0  0  0  0  0
  1  2  1  0
  2  3  1  0
  3  4  1  0
  4  5  1  0
  5  6  1  0
  1  6  1  0
  7  8  1  0
  5  7  1  0
  9 10  1  0
 10 11  2  0
  8  9  1  0
 12 13  2  0
 13 14  1  0
 14 15  2  0
 10 12  1  0
 11 15  1  0
 16 17  2  0
 16 14  1  0
 18 19  2  0
 19 20  1  0
 20 21  2  0
 17 21  1  0
 16 18  1  0
 22 23  2  0
 23 24  1  0
 20 24  1  0
 25 26  1  0
 23 26  1  0
 27 28  2  0
 25 28  1  0
 29 30  2  0
 30 31  1  0
 31 32  2  0
 27 32  1  0
 28 29  1  0
  1 33  1  0
  1 34  1  0
  3 35  1  0
  3 36  1  0
  4 37  1  0
  4 38  1  0
  6 39  1  0
  6 40  1  0
  7 41  1  0
  7 42  1  0
  8 43  1  0
  8 44  1  0
 11 45  1  0
 12 46  1  0
 13 47  1  0
 15 48  1  0
 17 49  1  0
 18 50  1  0
 21 51  1  0
 24 52  1  0
 24 53  1  0
 25 54  1  0
 25 55  1  0
 26 56  1  0
 27 57  1  0
 29 58  1  0
 30 59  1  0
 31 60  1  0
 32 61  1  0
M  END
> <Uni-Dock RESULT> 
ENERGY=   -3.879  LOWER_BOUND=    6.702  UPPER_BOUND=   10.383
INTER + INTRA:          -3.879
INTER:                  -3.879
INTRA:                   0.000
UNBOUND:                 0.000

$$$$
