
     RDKit          3D

 61 64  0  0  0  0  0  0  0  0999 V2000
   53.3620   12.9350   17.3789 C   0  0  0  0  0  0  0  0  0  0  0  0
   54.5944   13.6247   17.1331 O   0  0  0  0  0  0  0  0  0  0  0  0
   54.5476   14.4486   15.9570 C   0  0  0  0  0  0  0  0  0  0  0  0
   53.1332   14.9248   15.5944 C   0  0  0  0  0  0  0  0  0  0  0  0
   52.1659   13.8275   15.3791 N   0  0  0  0  0  0  0  0  0  0  0  0
   52.6053   12.6021   16.0854 C   0  0  0  0  0  0  0  0  0  0  0  0
   51.9215   13.5761   13.9409 C   0  0  0  0  0  0  0  0  0  0  0  0
   50.7415   12.6194   13.6772 C   0  0  0  0  0  0  0  0  0  0  0  0
   51.1898   11.2591   13.7582 O   0  0  0  0  0  0  0  0  0  0  0  0
   50.2519   10.2859   13.5433 C   0  0  0  0  0  0  0  0  0  0  0  0
   48.8870   10.4893   13.3594 C   0  0  0  0  0  0  0  0  0  0  0  0
   50.7486    8.9810   13.5239 C   0  0  0  0  0  0  0  0  0  0  0  0
   49.8925    7.8901   13.3193 C   0  0  0  0  0  0  0  0  0  0  0  0
   48.5154    8.0790   13.1315 C   0  0  0  0  0  0  0  0  0  0  0  0
   48.0300    9.3986   13.1559 C   0  0  0  0  0  0  0  0  0  0  0  0
   47.5997    6.9444   12.9341 C   0  0  0  0  0  0  0  0  0  0  0  0
   47.5821    5.8453   13.7964 C   0  0  0  0  0  0  0  0  0  0  0  0
   46.6666    6.9215   11.8998 C   0  0  0  0  0  0  0  0  0  0  0  0
   45.7488    5.9423   11.6975 N   0  0  0  0  0  0  0  0  0  0  0  0
   45.7490    4.8964   12.5623 C   0  0  0  0  0  0  0  0  0  0  0  0
   46.6523    4.8199   13.6175 C   0  0  0  0  0  0  0  0  0  0  0  0
   43.8572    2.1816   10.9254 O   0  0  0  0  0  0  0  0  0  0  0  0
   44.3634    3.3088   11.0578 C   0  0  0  0  0  0  0  0  0  0  0  0
   44.6446    3.8751   12.4417 C   0  0  0  0  0  0  0  0  0  0  0  0
   44.3534    3.7668    8.6282 C   0  0  0  0  0  0  0  0  0  0  0  0
   44.6024    4.1438    9.9969 N   0  0  0  0  0  0  0  0  0  0  0  0
   46.4817    3.7897    7.2605 C   0  0  0  0  0  0  0  0  0  0  0  0
   45.5363    3.0723    8.0073 C   0  0  0  0  0  0  0  0  0  0  0  0
   45.7209    1.6951    8.1864 C   0  0  0  0  0  0  0  0  0  0  0  0
   46.8145    1.0467    7.6150 C   0  0  0  0  0  0  0  0  0  0  0  0
   47.7411    1.7699    6.8623 C   0  0  0  0  0  0  0  0  0  0  0  0
   47.5753    3.1400    6.6865 C   0  0  0  0  0  0  0  0  0  0  0  0
   52.7490   13.5508   18.0415 H   0  0  0  0  0  0  0  0  0  0  0  0
   53.6021   12.0198   17.9200 H   0  0  0  0  0  0  0  0  0  0  0  0
   55.1958   15.3138   16.1383 H   0  0  0  0  0  0  0  0  0  0  0  0
   54.9859   13.8811   15.1257 H   0  0  0  0  0  0  0  0  0  0  0  0
   52.7504   15.5243   16.4259 H   0  0  0  0  0  0  0  0  0  0  0  0
   53.1815   15.5963   14.7352 H   0  0  0  0  0  0  0  0  0  0  0  0
   53.2750   12.0110   15.4456 H   0  0  0  0  0  0  0  0  0  0  0  0
   51.7301   11.9885   16.3267 H   0  0  0  0  0  0  0  0  0  0  0  0
   51.6556   14.5343   13.4684 H   0  0  0  0  0  0  0  0  0  0  0  0
   52.8372   13.2024   13.4524 H   0  0  0  0  0  0  0  0  0  0  0  0
   50.3650   12.8131   12.6615 H   0  0  0  0  0  0  0  0  0  0  0  0
   49.9383   12.8129   14.4068 H   0  0  0  0  0  0  0  0  0  0  0  0
   48.4476   11.4814   13.3812 H   0  0  0  0  0  0  0  0  0  0  0  0
   51.8121    8.8071   13.6685 H   0  0  0  0  0  0  0  0  0  0  0  0
   50.3209    6.8896   13.2977 H   0  0  0  0  0  0  0  0  0  0  0  0
   46.9649    9.5947   13.0356 H   0  0  0  0  0  0  0  0  0  0  0  0
   48.2666    5.7956   14.6404 H   0  0  0  0  0  0  0  0  0  0  0  0
   46.6185    7.7309   11.1747 H   0  0  0  0  0  0  0  0  0  0  0  0
   46.6267    3.9922   14.3175 H   0  0  0  0  0  0  0  0  0  0  0  0
   44.8774    3.0206   13.0879 H   0  0  0  0  0  0  0  0  0  0  0  0
   43.7176    4.3245   12.8116 H   0  0  0  0  0  0  0  0  0  0  0  0
   44.1232    4.6870    8.0789 H   0  0  0  0  0  0  0  0  0  0  0  0
   43.4662    3.1280    8.5741 H   0  0  0  0  0  0  0  0  0  0  0  0
   45.1001    5.0124   10.1872 H   0  0  0  0  0  0  0  0  0  0  0  0
   46.3659    4.8592    7.1187 H   0  0  0  0  0  0  0  0  0  0  0  0
   45.0079    1.1218    8.7803 H   0  0  0  0  0  0  0  0  0  0  0  0
   46.9483   -0.0233    7.7643 H   0  0  0  0  0  0  0  0  0  0  0  0
   48.5885    1.2602    6.4143 H   0  0  0  0  0  0  0  0  0  0  0  0
   48.3009    3.7031    6.1061 H   0  0  0  0  0  0  0  0  0  0  0  0
  1  2  1  0
  2  3  1  0
  3  4  1  0
  4  5  1  0
  5  6  1  0
  1  6  1  0
  7  8  1  0
  5  7  1  0
  9 10  1  0
 10 11  2  0
  8  9  1  0
 12 13  2  0
 13 14  1  0
 14 15  2  0
 10 12  1  0
 11 15  1  0
 16 17  2  0
 16 14  1  0
 18 19  2  0
 19 20  1  0
 20 21  2  0
 17 21  1  0
 16 18  1  0
 22 23  2  0
 23 24  1  0
 20 24  1  0
 25 26  1  0
 23 26  1  0
 27 28  2  0
 25 28  1  0
 29 30  2  0
 30 31  1  0
 31 32  2  0
 27 32  1  0
 28 29  1  0
  1 33  1  0
  1 34  1  0
  3 35  1  0
  3 36  1  0
  4 37  1  0
  4 38  1  0
  6 39  1  0
  6 40  1  0
  7 41  1  0
  7 42  1  0
  8 43  1  0
  8 44  1  0
 11 45  1  0
 12 46  1  0
 13 47  1  0
 15 48  1  0
 17 49  1  0
 18 50  1  0
 21 51  1  0
 24 52  1  0
 24 53  1  0
 25 54  1  0
 25 55  1  0
 26 56  1  0
 27 57  1  0
 29 58  1  0
 30 59  1  0
 31 60  1  0
 32 61  1  0
M  END
> <Uni-Dock RESULT> 
ENERGY=   -7.722  LOWER_BOUND=    0.000  UPPER_BOUND=    0.000
INTER + INTRA:          -7.722
INTER:                  -7.722
INTRA:                   0.000
UNBOUND:                 0.000

$$$$

     RDKit          3D

 61 64  0  0  0  0  0  0  0  0999 V2000
   55.4848   13.2797   14.9869 C   0  0  0  0  0  0  0  0  0  0  0  0
   56.7254   13.7862   14.4775 O   0  0  0  0  0  0  0  0  0  0  0  0
   56.5780   14.4569   13.2155 C   0  0  0  0  0  0  0  0  0  0  0  0
   55.1770   15.0445   12.9902 C   0  0  0  0  0  0  0  0  0  0  0  0
   54.0873   14.0482   13.0678 N   0  0  0  0  0  0  0  0  0  0  0  0
   54.5103   12.8779   13.8709 C   0  0  0  0  0  0  0  0  0  0  0  0
   53.6022   13.6493   11.7274 C   0  0  0  0  0  0  0  0  0  0  0  0
   52.3093   12.8102   11.7674 C   0  0  0  0  0  0  0  0  0  0  0  0
   52.6321   11.4279   11.9754 O   0  0  0  0  0  0  0  0  0  0  0  0
   51.5833   10.5506   12.0318 C   0  0  0  0  0  0  0  0  0  0  0  0
   50.2322   10.8859   12.0132 C   0  0  0  0  0  0  0  0  0  0  0  0
   51.9435    9.2048   12.1268 C   0  0  0  0  0  0  0  0  0  0  0  0
   50.9655    8.2032   12.1986 C   0  0  0  0  0  0  0  0  0  0  0  0
   49.6005    8.5253   12.1798 C   0  0  0  0  0  0  0  0  0  0  0  0
   49.2535    9.8848   12.0861 C   0  0  0  0  0  0  0  0  0  0  0  0
   48.5607    7.4884   12.2731 C   0  0  0  0  0  0  0  0  0  0  0  0
   48.5702    6.5149   13.2750 C   0  0  0  0  0  0  0  0  0  0  0  0
   47.4820    7.4448   11.3923 C   0  0  0  0  0  0  0  0  0  0  0  0
   46.4544    6.5607   11.4593 N   0  0  0  0  0  0  0  0  0  0  0  0
   46.4869    5.6379   12.4538 C   0  0  0  0  0  0  0  0  0  0  0  0
   47.5300    5.5897   13.3731 C   0  0  0  0  0  0  0  0  0  0  0  0
   44.1146    2.9773   11.4937 O   0  0  0  0  0  0  0  0  0  0  0  0
   44.7410    4.0461   11.3947 C   0  0  0  0  0  0  0  0  0  0  0  0
   45.2843    4.7441   12.6327 C   0  0  0  0  0  0  0  0  0  0  0  0
   44.4023    4.1956    8.9502 C   0  0  0  0  0  0  0  0  0  0  0  0
   44.8934    4.7090   10.2043 N   0  0  0  0  0  0  0  0  0  0  0  0
   46.2877    3.8016    7.3099 C   0  0  0  0  0  0  0  0  0  0  0  0
   45.4037    3.2970    8.2743 C   0  0  0  0  0  0  0  0  0  0  0  0
   45.4805    1.9408    8.6175 C   0  0  0  0  0  0  0  0  0  0  0  0
   46.4061    1.1043    7.9961 C   0  0  0  0  0  0  0  0  0  0  0  0
   47.2714    1.6159    7.0277 C   0  0  0  0  0  0  0  0  0  0  0  0
   47.2129    2.9634    6.6861 C   0  0  0  0  0  0  0  0  0  0  0  0
   55.0428   14.0401   15.6353 H   0  0  0  0  0  0  0  0  0  0  0  0
   55.7162   12.4175   15.6123 H   0  0  0  0  0  0  0  0  0  0  0  0
   57.3263   15.2571   13.1815 H   0  0  0  0  0  0  0  0  0  0  0  0
   56.8270   13.7433   12.4192 H   0  0  0  0  0  0  0  0  0  0  0  0
   54.9857   15.7832   13.7744 H   0  0  0  0  0  0  0  0  0  0  0  0
   55.1571   15.5935   12.0469 H   0  0  0  0  0  0  0  0  0  0  0  0
   55.0139   12.1381   13.2335 H   0  0  0  0  0  0  0  0  0  0  0  0
   53.6276   12.4045   14.3155 H   0  0  0  0  0  0  0  0  0  0  0  0
   53.3601   14.5654   11.1667 H   0  0  0  0  0  0  0  0  0  0  0  0
   54.3919   13.1143   11.1734 H   0  0  0  0  0  0  0  0  0  0  0  0
   51.8018   12.9180   10.7970 H   0  0  0  0  0  0  0  0  0  0  0  0
   51.6499   13.1847   12.5673 H   0  0  0  0  0  0  0  0  0  0  0  0
   49.8987   11.9170   11.9564 H   0  0  0  0  0  0  0  0  0  0  0  0
   52.9950    8.9286   12.1449 H   0  0  0  0  0  0  0  0  0  0  0  0
   51.2875    7.1651   12.2582 H   0  0  0  0  0  0  0  0  0  0  0  0
   48.2063   10.1862   12.0889 H   0  0  0  0  0  0  0  0  0  0  0  0
   49.3681    6.4920   14.0141 H   0  0  0  0  0  0  0  0  0  0  0  0
   47.4012    8.1575   10.5747 H   0  0  0  0  0  0  0  0  0  0  0  0
   47.5327    4.8642   14.1790 H   0  0  0  0  0  0  0  0  0  0  0  0
   45.5303    3.9558   13.3536 H   0  0  0  0  0  0  0  0  0  0  0  0
   44.4724    5.3403   13.0612 H   0  0  0  0  0  0  0  0  0  0  0  0
   44.1799    5.0606    8.3146 H   0  0  0  0  0  0  0  0  0  0  0  0
   43.4601    3.6619    9.1104 H   0  0  0  0  0  0  0  0  0  0  0  0
   45.4954    5.5311   10.1996 H   0  0  0  0  0  0  0  0  0  0  0  0
   46.2548    4.8512    7.0370 H   0  0  0  0  0  0  0  0  0  0  0  0
   44.8155    1.5324    9.3794 H   0  0  0  0  0  0  0  0  0  0  0  0
   46.4580    0.0530    8.2740 H   0  0  0  0  0  0  0  0  0  0  0  0
   47.9871    0.9598    6.5421 H   0  0  0  0  0  0  0  0  0  0  0  0
   47.8914    3.3619    5.9372 H   0  0  0  0  0  0  0  0  0  0  0  0
  1  2  1  0
  2  3  1  0
  3  4  1  0
  4  5  1  0
  5  6  1  0
  1  6  1  0
  7  8  1  0
  5  7  1  0
  9 10  1  0
 10 11  2  0
  8  9  1  0
 12 13  2  0
 13 14  1  0
 14 15  2  0
 10 12  1  0
 11 15  1  0
 16 17  2  0
 16 14  1  0
 18 19  2  0
 19 20  1  0
 20 21  2  0
 17 21  1  0
 16 18  1  0
 22 23  2  0
 23 24  1  0
 20 24  1  0
 25 26  1  0
 23 26  1  0
 27 28  2  0
 25 28  1  0
 29 30  2  0
 30 31  1  0
 31 32  2  0
 27 32  1  0
 28 29  1  0
  1 33  1  0
  1 34  1  0
  3 35  1  0
  3 36  1  0
  4 37  1  0
  4 38  1  0
  6 39  1  0
  6 40  1  0
  7 41  1  0
  7 42  1  0
  8 43  1  0
  8 44  1  0
 11 45  1  0
 12 46  1  0
 13 47  1  0
 15 48  1  0
 17 49  1  0
 18 50  1  0
 21 51  1  0
 24 52  1  0
 24 53  1  0
 25 54  1  0
 25 55  1  0
 26 56  1  0
 27 57  1  0
 29 58  1  0
 30 59  1  0
 31 60  1  0
 32 61  1  0
M  END
> <Uni-Dock RESULT> 
ENERGY=   -7.098  LOWER_BOUND=    1.739  UPPER_BOUND=    1.883
INTER + INTRA:          -7.098
INTER:                  -7.098
INTRA:                   0.000
UNBOUND:                 0.000

$$$$

     RDKit          3D

 61 64  0  0  0  0  0  0  0  0999 V2000
   52.7512   16.3450   12.6599 C   0  0  0  0  0  0  0  0  0  0  0  0
   53.4146   17.2504   11.7681 O   0  0  0  0  0  0  0  0  0  0  0  0
   52.5347   17.7985   10.7733 C   0  0  0  0  0  0  0  0  0  0  0  0
   51.0628   17.8428   11.2099 C   0  0  0  0  0  0  0  0  0  0  0  0
   50.5068   16.5249   11.5844 N   0  0  0  0  0  0  0  0  0  0  0  0
   51.5909   15.5992   11.9861 C   0  0  0  0  0  0  0  0  0  0  0  0
   49.6635   15.9521   10.5112 C   0  0  0  0  0  0  0  0  0  0  0  0
   48.8680   14.7078   10.9541 C   0  0  0  0  0  0  0  0  0  0  0  0
   49.6864   13.5363   10.8285 O   0  0  0  0  0  0  0  0  0  0  0  0
   49.1164   12.3438   11.1833 C   0  0  0  0  0  0  0  0  0  0  0  0
   47.8576   12.1744   11.7534 C   0  0  0  0  0  0  0  0  0  0  0  0
   49.9066   11.2174   10.9450 C   0  0  0  0  0  0  0  0  0  0  0  0
   49.4439    9.9344   11.2688 C   0  0  0  0  0  0  0  0  0  0  0  0
   48.1777    9.7477   11.8425 C   0  0  0  0  0  0  0  0  0  0  0  0
   47.3947   10.8917   12.0785 C   0  0  0  0  0  0  0  0  0  0  0  0
   47.6838    8.4102   12.2058 C   0  0  0  0  0  0  0  0  0  0  0  0
   48.4378    7.5248   12.9798 C   0  0  0  0  0  0  0  0  0  0  0  0
   46.4162    7.9665   11.8347 C   0  0  0  0  0  0  0  0  0  0  0  0
   45.8707    6.7756   12.1897 N   0  0  0  0  0  0  0  0  0  0  0  0
   46.6243    5.9455   12.9545 C   0  0  0  0  0  0  0  0  0  0  0  0
   47.9085    6.2914   13.3626 C   0  0  0  0  0  0  0  0  0  0  0  0
   45.0995    2.5946   12.6812 O   0  0  0  0  0  0  0  0  0  0  0  0
   45.2318    3.8142   12.4829 C   0  0  0  0  0  0  0  0  0  0  0  0
   45.9816    4.6853   13.4799 C   0  0  0  0  0  0  0  0  0  0  0  0
   43.8638    3.7833   10.4237 C   0  0  0  0  0  0  0  0  0  0  0  0
   44.6377    4.4635   11.4316 N   0  0  0  0  0  0  0  0  0  0  0  0
   44.8920    4.0547    8.1280 C   0  0  0  0  0  0  0  0  0  0  0  0
   44.7209    3.2877    9.2893 C   0  0  0  0  0  0  0  0  0  0  0  0
   45.3803    2.0555    9.3883 C   0  0  0  0  0  0  0  0  0  0  0  0
   46.1760    1.5918    8.3420 C   0  0  0  0  0  0  0  0  0  0  0  0
   46.3272    2.3587    7.1856 C   0  0  0  0  0  0  0  0  0  0  0  0
   45.6868    3.5893    7.0796 C   0  0  0  0  0  0  0  0  0  0  0  0
   52.4001   16.9106   13.5264 H   0  0  0  0  0  0  0  0  0  0  0  0
   53.4964   15.6351   13.0186 H   0  0  0  0  0  0  0  0  0  0  0  0
   52.8863   18.8122   10.5491 H   0  0  0  0  0  0  0  0  0  0  0  0
   52.6449   17.2047    9.8565 H   0  0  0  0  0  0  0  0  0  0  0  0
   50.9879   18.4803   12.0959 H   0  0  0  0  0  0  0  0  0  0  0  0
   50.4656   18.3292   10.4364 H   0  0  0  0  0  0  0  0  0  0  0  0
   51.9917   15.0751   11.1076 H   0  0  0  0  0  0  0  0  0  0  0  0
   51.1911   14.8512   12.6799 H   0  0  0  0  0  0  0  0  0  0  0  0
   48.9187   16.7099   10.2226 H   0  0  0  0  0  0  0  0  0  0  0  0
   50.2730   15.7230    9.6208 H   0  0  0  0  0  0  0  0  0  0  0  0
   47.9942   14.6076   10.2929 H   0  0  0  0  0  0  0  0  0  0  0  0
   48.5255   14.8386   11.9936 H   0  0  0  0  0  0  0  0  0  0  0  0
   47.2104   13.0172   11.9735 H   0  0  0  0  0  0  0  0  0  0  0  0
   50.8928   11.3350   10.5026 H   0  0  0  0  0  0  0  0  0  0  0  0
   50.0849    9.0810   11.0549 H   0  0  0  0  0  0  0  0  0  0  0  0
   46.4126   10.7995   12.5415 H   0  0  0  0  0  0  0  0  0  0  0  0
   49.4307    7.8031   13.3263 H   0  0  0  0  0  0  0  0  0  0  0  0
   45.7663    8.5867   11.2215 H   0  0  0  0  0  0  0  0  0  0  0  0
   48.4918    5.6312   13.9949 H   0  0  0  0  0  0  0  0  0  0  0  0
   46.7551    4.0515   13.9291 H   0  0  0  0  0  0  0  0  0  0  0  0
   45.2802    4.9611   14.2737 H   0  0  0  0  0  0  0  0  0  0  0  0
   43.1209    4.4988   10.0525 H   0  0  0  0  0  0  0  0  0  0  0  0
   43.3136    2.9519   10.8756 H   0  0  0  0  0  0  0  0  0  0  0  0
   44.8710    5.4461   11.2956 H   0  0  0  0  0  0  0  0  0  0  0  0
   44.4008    5.0177    8.0342 H   0  0  0  0  0  0  0  0  0  0  0  0
   45.2766    1.4522   10.2910 H   0  0  0  0  0  0  0  0  0  0  0  0
   46.6857    0.6341    8.4326 H   0  0  0  0  0  0  0  0  0  0  0  0
   46.9433    1.9915    6.3708 H   0  0  0  0  0  0  0  0  0  0  0  0
   45.8106    4.1885    6.1819 H   0  0  0  0  0  0  0  0  0  0  0  0
  1  2  1  0
  2  3  1  0
  3  4  1  0
  4  5  1  0
  5  6  1  0
  1  6  1  0
  7  8  1  0
  5  7  1  0
  9 10  1  0
 10 11  2  0
  8  9  1  0
 12 13  2  0
 13 14  1  0
 14 15  2  0
 10 12  1  0
 11 15  1  0
 16 17  2  0
 16 14  1  0
 18 19  2  0
 19 20  1  0
 20 21  2  0
 17 21  1  0
 16 18  1  0
 22 23  2  0
 23 24  1  0
 20 24  1  0
 25 26  1  0
 23 26  1  0
 27 28  2  0
 25 28  1  0
 29 30  2  0
 30 31  1  0
 31 32  2  0
 27 32  1  0
 28 29  1  0
  1 33  1  0
  1 34  1  0
  3 35  1  0
  3 36  1  0
  4 37  1  0
  4 38  1  0
  6 39  1  0
  6 40  1  0
  7 41  1  0
  7 42  1  0
  8 43  1  0
  8 44  1  0
 11 45  1  0
 12 46  1  0
 13 47  1  0
 15 48  1  0
 17 49  1  0
 18 50  1  0
 21 51  1  0
 24 52  1  0
 24 53  1  0
 25 54  1  0
 25 55  1  0
 26 56  1  0
 27 57  1  0
 29 58  1  0
 30 59  1  0
 31 60  1  0
 32 61  1  0
M  END
> <Uni-Dock RESULT> 
ENERGY=   -4.978  LOWER_BOUND=    2.781  UPPER_BOUND=    3.310
INTER + INTRA:          -4.978
INTER:                  -4.978
INTRA:                   0.000
UNBOUND:                 0.000

$$$$

     RDKit          3D

 61 64  0  0  0  0  0  0  0  0999 V2000
   50.6961    2.9645   18.0106 C   0  0  0  0  0  0  0  0  0  0  0  0
   52.0166    2.4240   18.1491 O   0  0  0  0  0  0  0  0  0  0  0  0
   53.0237    3.4398   18.2854 C   0  0  0  0  0  0  0  0  0  0  0  0
   52.4959    4.7549   18.8777 C   0  0  0  0  0  0  0  0  0  0  0  0
   51.3885    5.3599   18.1072 N   0  0  0  0  0  0  0  0  0  0  0  0
   50.6890    4.3287   17.3066 C   0  0  0  0  0  0  0  0  0  0  0  0
   51.8474    6.4901   17.2685 C   0  0  0  0  0  0  0  0  0  0  0  0
   50.6928    7.3018   16.6478 C   0  0  0  0  0  0  0  0  0  0  0  0
   50.2579    6.6781   15.4312 O   0  0  0  0  0  0  0  0  0  0  0  0
   49.2340    7.2864   14.7571 C   0  0  0  0  0  0  0  0  0  0  0  0
   48.5064    8.3900   15.1942 C   0  0  0  0  0  0  0  0  0  0  0  0
   48.9131    6.7108   13.5260 C   0  0  0  0  0  0  0  0  0  0  0  0
   47.8790    7.2333   12.7371 C   0  0  0  0  0  0  0  0  0  0  0  0
   47.1378    8.3452   13.1633 C   0  0  0  0  0  0  0  0  0  0  0  0
   47.4712    8.9124   14.4061 C   0  0  0  0  0  0  0  0  0  0  0  0
   46.0369    8.8951   12.3567 C   0  0  0  0  0  0  0  0  0  0  0  0
   45.0096    8.0917   11.8559 C   0  0  0  0  0  0  0  0  0  0  0  0
   45.9328   10.2572   12.0828 C   0  0  0  0  0  0  0  0  0  0  0  0
   44.9128   10.8417   11.4045 N   0  0  0  0  0  0  0  0  0  0  0  0
   43.9235   10.0343   10.9449 C   0  0  0  0  0  0  0  0  0  0  0  0
   43.9455    8.6591   11.1533 C   0  0  0  0  0  0  0  0  0  0  0  0
   42.1036   11.9636    8.3770 O   0  0  0  0  0  0  0  0  0  0  0  0
   42.9562   11.7386    9.2526 C   0  0  0  0  0  0  0  0  0  0  0  0
   42.7122   10.6813   10.3192 C   0  0  0  0  0  0  0  0  0  0  0  0
   44.4578   13.5401    8.4700 C   0  0  0  0  0  0  0  0  0  0  0  0
   44.1029   12.4795    9.3792 N   0  0  0  0  0  0  0  0  0  0  0  0
   46.6339   13.0469    7.2775 C   0  0  0  0  0  0  0  0  0  0  0  0
   45.2318   13.0332    7.2820 C   0  0  0  0  0  0  0  0  0  0  0  0
   44.5574   12.5182    6.1671 C   0  0  0  0  0  0  0  0  0  0  0  0
   45.2684   12.0466    5.0649 C   0  0  0  0  0  0  0  0  0  0  0  0
   46.6638   12.0783    5.0671 C   0  0  0  0  0  0  0  0  0  0  0  0
   47.3455   12.5768    6.1729 C   0  0  0  0  0  0  0  0  0  0  0  0
   50.2476    3.0365   19.0044 H   0  0  0  0  0  0  0  0  0  0  0  0
   50.1067    2.2452   17.4422 H   0  0  0  0  0  0  0  0  0  0  0  0
   53.8129    3.0331   18.9283 H   0  0  0  0  0  0  0  0  0  0  0  0
   53.4666    3.6153   17.2963 H   0  0  0  0  0  0  0  0  0  0  0  0
   52.1070    4.5472   19.8792 H   0  0  0  0  0  0  0  0  0  0  0  0
   53.3234    5.4536   19.0140 H   0  0  0  0  0  0  0  0  0  0  0  0
   51.1768    4.2066   16.3297 H   0  0  0  0  0  0  0  0  0  0  0  0
   49.6528    4.6419   17.1368 H   0  0  0  0  0  0  0  0  0  0  0  0
   52.4054    7.1871   17.9126 H   0  0  0  0  0  0  0  0  0  0  0  0
   52.5347    6.1345   16.4824 H   0  0  0  0  0  0  0  0  0  0  0  0
   51.0685    8.3105   16.4193 H   0  0  0  0  0  0  0  0  0  0  0  0
   49.8633    7.3765   17.3697 H   0  0  0  0  0  0  0  0  0  0  0  0
   48.7046    8.8650   16.1495 H   0  0  0  0  0  0  0  0  0  0  0  0
   49.4714    5.8470   13.1733 H   0  0  0  0  0  0  0  0  0  0  0  0
   47.6689    6.7641   11.7776 H   0  0  0  0  0  0  0  0  0  0  0  0
   46.9104    9.7644   14.7896 H   0  0  0  0  0  0  0  0  0  0  0  0
   45.0071    7.0199   12.0421 H   0  0  0  0  0  0  0  0  0  0  0  0
   46.6950   10.9540   12.4242 H   0  0  0  0  0  0  0  0  0  0  0  0
   43.1369    8.0269   10.8037 H   0  0  0  0  0  0  0  0  0  0  0  0
   42.0938    9.9047    9.8541 H   0  0  0  0  0  0  0  0  0  0  0  0
   42.1183   11.1425   11.1146 H   0  0  0  0  0  0  0  0  0  0  0  0
   45.0608   14.2595    9.0361 H   0  0  0  0  0  0  0  0  0  0  0  0
   43.5553   14.0644    8.1400 H   0  0  0  0  0  0  0  0  0  0  0  0
   44.7868   12.1703   10.0684 H   0  0  0  0  0  0  0  0  0  0  0  0
   47.1776   13.4298    8.1348 H   0  0  0  0  0  0  0  0  0  0  0  0
   43.4675   12.4802    6.1584 H   0  0  0  0  0  0  0  0  0  0  0  0
   44.7327   11.6458    4.2061 H   0  0  0  0  0  0  0  0  0  0  0  0
   47.2137   11.7151    4.2045 H   0  0  0  0  0  0  0  0  0  0  0  0
   48.4317   12.5947    6.1763 H   0  0  0  0  0  0  0  0  0  0  0  0
  1  2  1  0
  2  3  1  0
  3  4  1  0
  4  5  1  0
  5  6  1  0
  1  6  1  0
  7  8  1  0
  5  7  1  0
  9 10  1  0
 10 11  2  0
  8  9  1  0
 12 13  2  0
 13 14  1  0
 14 15  2  0
 10 12  1  0
 11 15  1  0
 16 17  2  0
 16 14  1  0
 18 19  2  0
 19 20  1  0
 20 21  2  0
 17 21  1  0
 16 18  1  0
 22 23  2  0
 23 24  1  0
 20 24  1  0
 25 26  1  0
 23 26  1  0
 27 28  2  0
 25 28  1  0
 29 30  2  0
 30 31  1  0
 31 32  2  0
 27 32  1  0
 28 29  1  0
  1 33  1  0
  1 34  1  0
  3 35  1  0
  3 36  1  0
  4 37  1  0
  4 38  1  0
  6 39  1  0
  6 40  1  0
  7 41  1  0
  7 42  1  0
  8 43  1  0
  8 44  1  0
 11 45  1  0
 12 46  1  0
 13 47  1  0
 15 48  1  0
 17 49  1  0
 18 50  1  0
 21 51  1  0
 24 52  1  0
 24 53  1  0
 25 54  1  0
 25 55  1  0
 26 56  1  0
 27 57  1  0
 29 58  1  0
 30 59  1  0
 31 60  1  0
 32 61  1  0
M  END
> <Uni-Dock RESULT> 
ENERGY=   -4.732  LOWER_BOUND=    5.960  UPPER_BOUND=    7.818
INTER + INTRA:          -4.732
INTER:                  -4.732
INTRA:                   0.000
UNBOUND:                 0.000

$$$$
