
     RDKit          3D

 17 18  0  0  0  0  0  0  0  0999 V2000
   45.0906    1.9013    9.3866 O   0  0  0  0  0  0  0  0  0  0  0  0
   44.3995    2.9299   10.0114 C   0  0  0  0  0  0  0  0  0  0  0  0
   45.4038    4.5452    8.4439 C   0  0  0  0  0  0  0  0  0  0  0  0
   45.9420    2.1566    8.2939 C   0  0  0  0  0  0  0  0  0  0  0  0
   44.5989    4.2899    9.4798 C   0  0  0  0  0  0  0  0  0  0  0  0
   46.1165    3.4506    7.8065 C   0  0  0  0  0  0  0  0  0  0  0  0
   43.6526    2.7357   10.9637 O   0  0  0  0  0  0  0  0  0  0  0  0
   46.5971    1.0664    7.7260 C   0  0  0  0  0  0  0  0  0  0  0  0
   46.9711    3.6533    6.7211 C   0  0  0  0  0  0  0  0  0  0  0  0
   47.4485    1.2765    6.6429 C   0  0  0  0  0  0  0  0  0  0  0  0
   47.6353    2.5671    6.1414 C   0  0  0  0  0  0  0  0  0  0  0  0
   45.5357    5.5540    8.0690 H   0  0  0  0  0  0  0  0  0  0  0  0
   44.0495    5.0760    9.9832 H   0  0  0  0  0  0  0  0  0  0  0  0
   46.4459    0.0667    8.1225 H   0  0  0  0  0  0  0  0  0  0  0  0
   47.1299    4.6497    6.3161 H   0  0  0  0  0  0  0  0  0  0  0  0
   47.9672    0.4360    6.1885 H   0  0  0  0  0  0  0  0  0  0  0  0
   48.3004    2.7276    5.2959 H   0  0  0  0  0  0  0  0  0  0  0  0
  2  1  1  0
  3  6  1  0
  4  1  1  0
  5  2  1  0
  6  4  2  0
  7  2  2  0
  8  4  1  0
  9  6  1  0
 10  8  2  0
 11 10  1  0
  5  3  2  0
  9 11  2  0
  3 12  1  0
  5 13  1  0
  8 14  1  0
  9 15  1  0
 10 16  1  0
 11 17  1  0
M  END
> <Uni-Dock RESULT> 
ENERGY=   -6.294  LOWER_BOUND=    0.000  UPPER_BOUND=    0.000
INTER + INTRA:          -6.294
INTER:                  -6.294
INTRA:                   0.000
UNBOUND:                 0.000

$$$$

     RDKit          3D

 17 18  0  0  0  0  0  0  0  0999 V2000
   45.2344    4.4693    8.2239 O   0  0  0  0  0  0  0  0  0  0  0  0
   44.3689    4.2178    9.2793 C   0  0  0  0  0  0  0  0  0  0  0  0
   45.0508    1.8494    9.2630 C   0  0  0  0  0  0  0  0  0  0  0  0
   46.0189    3.4407    7.6666 C   0  0  0  0  0  0  0  0  0  0  0  0
   44.3118    2.8340    9.7830 C   0  0  0  0  0  0  0  0  0  0  0  0
   45.9500    2.1383    8.1581 C   0  0  0  0  0  0  0  0  0  0  0  0
   43.6751    5.0941    9.7827 O   0  0  0  0  0  0  0  0  0  0  0  0
   46.8608    3.7803    6.6101 C   0  0  0  0  0  0  0  0  0  0  0  0
   46.7473    1.1530    7.5726 C   0  0  0  0  0  0  0  0  0  0  0  0
   47.6536    2.7914    6.0308 C   0  0  0  0  0  0  0  0  0  0  0  0
   47.5972    1.4805    6.5108 C   0  0  0  0  0  0  0  0  0  0  0  0
   44.9930    0.8380    9.6494 H   0  0  0  0  0  0  0  0  0  0  0  0
   43.6296    2.6620   10.6065 H   0  0  0  0  0  0  0  0  0  0  0  0
   46.8981    4.8018    6.2435 H   0  0  0  0  0  0  0  0  0  0  0  0
   46.7179    0.1271    7.9316 H   0  0  0  0  0  0  0  0  0  0  0  0
   48.3160    3.0403    5.2054 H   0  0  0  0  0  0  0  0  0  0  0  0
   48.2173    0.7112    6.0564 H   0  0  0  0  0  0  0  0  0  0  0  0
  2  1  1  0
  3  6  1  0
  4  1  1  0
  5  2  1  0
  6  4  2  0
  7  2  2  0
  8  4  1  0
  9  6  1  0
 10  8  2  0
 11 10  1  0
  5  3  2  0
  9 11  2  0
  3 12  1  0
  5 13  1  0
  8 14  1  0
  9 15  1  0
 10 16  1  0
 11 17  1  0
M  END
> <Uni-Dock RESULT> 
ENERGY=   -6.052  LOWER_BOUND=    1.252  UPPER_BOUND=    2.156
INTER + INTRA:          -6.052
INTER:                  -6.052
INTRA:                   0.000
UNBOUND:                 0.000

$$$$

     RDKit          3D

 17 18  0  0  0  0  0  0  0  0999 V2000
   45.7439    0.8693    8.5124 O   0  0  0  0  0  0  0  0  0  0  0  0
   46.6419    0.4579    7.5374 C   0  0  0  0  0  0  0  0  0  0  0  0
   47.0722    2.8131    6.9521 C   0  0  0  0  0  0  0  0  0  0  0  0
   45.4872    2.2365    8.7335 C   0  0  0  0  0  0  0  0  0  0  0  0
   47.3071    1.5128    6.7522 C   0  0  0  0  0  0  0  0  0  0  0  0
   46.1273    3.2185    7.9796 C   0  0  0  0  0  0  0  0  0  0  0  0
   46.8837   -0.7247    7.3244 O   0  0  0  0  0  0  0  0  0  0  0  0
   44.5718    2.5615    9.7319 C   0  0  0  0  0  0  0  0  0  0  0  0
   45.8398    4.5606    8.2359 C   0  0  0  0  0  0  0  0  0  0  0  0
   44.2899    3.9032    9.9820 C   0  0  0  0  0  0  0  0  0  0  0  0
   44.9224    4.9007    9.2357 C   0  0  0  0  0  0  0  0  0  0  0  0
   47.5732    3.5727    6.3625 H   0  0  0  0  0  0  0  0  0  0  0  0
   48.0032    1.1679    5.9975 H   0  0  0  0  0  0  0  0  0  0  0  0
   44.0849    1.7794   10.3069 H   0  0  0  0  0  0  0  0  0  0  0  0
   46.3213    5.3517    7.6663 H   0  0  0  0  0  0  0  0  0  0  0  0
   43.5778    4.1732   10.7579 H   0  0  0  0  0  0  0  0  0  0  0  0
   44.7001    5.9468    9.4335 H   0  0  0  0  0  0  0  0  0  0  0  0
  2  1  1  0
  3  6  1  0
  4  1  1  0
  5  2  1  0
  6  4  2  0
  7  2  2  0
  8  4  1  0
  9  6  1  0
 10  8  2  0
 11 10  1  0
  5  3  2  0
  9 11  2  0
  3 12  1  0
  5 13  1  0
  8 14  1  0
  9 15  1  0
 10 16  1  0
 11 17  1  0
M  END
> <Uni-Dock RESULT> 
ENERGY=   -5.513  LOWER_BOUND=    1.345  UPPER_BOUND=    3.709
INTER + INTRA:          -5.513
INTER:                  -5.513
INTRA:                   0.000
UNBOUND:                 0.000

$$$$

     RDKit          3D

 17 18  0  0  0  0  0  0  0  0999 V2000
   45.5307    4.8363    8.6523 O   0  0  0  0  0  0  0  0  0  0  0  0
   46.0006    3.8625    7.7822 C   0  0  0  0  0  0  0  0  0  0  0  0
   44.9579    2.1216    9.1811 C   0  0  0  0  0  0  0  0  0  0  0  0
   44.7755    4.4909    9.7901 C   0  0  0  0  0  0  0  0  0  0  0  0
   45.6733    2.4623    8.1049 C   0  0  0  0  0  0  0  0  0  0  0  0
   44.4769    3.1601   10.0770 C   0  0  0  0  0  0  0  0  0  0  0  0
   46.6596    4.1354    6.7854 O   0  0  0  0  0  0  0  0  0  0  0  0
   44.3432    5.5308   10.6099 C   0  0  0  0  0  0  0  0  0  0  0  0
   43.7251    2.8678   11.2167 C   0  0  0  0  0  0  0  0  0  0  0  0
   43.5933    5.2312   11.7456 C   0  0  0  0  0  0  0  0  0  0  0  0
   43.2848    3.9027   12.0486 C   0  0  0  0  0  0  0  0  0  0  0  0
   44.7287    1.0846    9.3993 H   0  0  0  0  0  0  0  0  0  0  0  0
   46.0506    1.7203    7.4119 H   0  0  0  0  0  0  0  0  0  0  0  0
   44.5878    6.5606   10.3665 H   0  0  0  0  0  0  0  0  0  0  0  0
   43.4746    1.8406   11.4699 H   0  0  0  0  0  0  0  0  0  0  0  0
   43.2485    6.0316   12.3957 H   0  0  0  0  0  0  0  0  0  0  0  0
   42.6993    3.6724   12.9358 H   0  0  0  0  0  0  0  0  0  0  0  0
  2  1  1  0
  3  6  1  0
  4  1  1  0
  5  2  1  0
  6  4  2  0
  7  2  2  0
  8  4  1  0
  9  6  1  0
 10  8  2  0
 11 10  1  0
  5  3  2  0
  9 11  2  0
  3 12  1  0
  5 13  1  0
  8 14  1  0
  9 15  1  0
 10 16  1  0
 11 17  1  0
M  END
> <Uni-Dock RESULT> 
ENERGY=   -4.677  LOWER_BOUND=    2.000  UPPER_BOUND=    4.796
INTER + INTRA:          -4.677
INTER:                  -4.677
INTRA:                   0.000
UNBOUND:                 0.000

$$$$

     RDKit          3D

 17 18  0  0  0  0  0  0  0  0999 V2000
   44.9892    3.6634   12.7340 O   0  0  0  0  0  0  0  0  0  0  0  0
   43.7435    3.4052   12.1794 C   0  0  0  0  0  0  0  0  0  0  0  0
   43.4288    5.8176   11.7844 C   0  0  0  0  0  0  0  0  0  0  0  0
   45.4838    4.9789   12.8292 C   0  0  0  0  0  0  0  0  0  0  0  0
   42.9709    4.5649   11.6997 C   0  0  0  0  0  0  0  0  0  0  0  0
   44.7368    6.0619   12.3693 C   0  0  0  0  0  0  0  0  0  0  0  0
   43.2894    2.2706   12.0843 O   0  0  0  0  0  0  0  0  0  0  0  0
   46.7434    5.1482   13.3993 C   0  0  0  0  0  0  0  0  0  0  0  0
   45.2697    7.3472   12.4856 C   0  0  0  0  0  0  0  0  0  0  0  0
   47.2687    6.4341   13.5120 C   0  0  0  0  0  0  0  0  0  0  0  0
   46.5336    7.5314   13.0562 C   0  0  0  0  0  0  0  0  0  0  0  0
   42.8433    6.6564   11.4249 H   0  0  0  0  0  0  0  0  0  0  0  0
   42.0023    4.3389   11.2711 H   0  0  0  0  0  0  0  0  0  0  0  0
   47.3075    4.2895   13.7509 H   0  0  0  0  0  0  0  0  0  0  0  0
   44.7136    8.2140   12.1370 H   0  0  0  0  0  0  0  0  0  0  0  0
   48.2505    6.5830   13.9546 H   0  0  0  0  0  0  0  0  0  0  0  0
   46.9466    8.5336   13.1457 H   0  0  0  0  0  0  0  0  0  0  0  0
  2  1  1  0
  3  6  1  0
  4  1  1  0
  5  2  1  0
  6  4  2  0
  7  2  2  0
  8  4  1  0
  9  6  1  0
 10  8  2  0
 11 10  1  0
  5  3  2  0
  9 11  2  0
  3 12  1  0
  5 13  1  0
  8 14  1  0
  9 15  1  0
 10 16  1  0
 11 17  1  0
M  END
> <Uni-Dock RESULT> 
ENERGY=   -3.569  LOWER_BOUND=    4.889  UPPER_BOUND=    5.641
INTER + INTRA:          -3.569
INTER:                  -3.569
INTRA:                   0.000
UNBOUND:                 0.000

$$$$

     RDKit          3D

 17 18  0  0  0  0  0  0  0  0999 V2000
   43.8902    6.6021   12.2097 O   0  0  0  0  0  0  0  0  0  0  0  0
   43.0376    5.5103   12.1248 C   0  0  0  0  0  0  0  0  0  0  0  0
   44.8181    4.0610   13.0216 C   0  0  0  0  0  0  0  0  0  0  0  0
   45.2057    6.4610   12.6930 C   0  0  0  0  0  0  0  0  0  0  0  0
   43.5721    4.2081   12.5613 C   0  0  0  0  0  0  0  0  0  0  0  0
   45.6916    5.2200   13.1009 C   0  0  0  0  0  0  0  0  0  0  0  0
   41.8887    5.6051   11.7082 O   0  0  0  0  0  0  0  0  0  0  0  0
   45.9939    7.6083   12.7450 C   0  0  0  0  0  0  0  0  0  0  0  0
   47.0027    5.1305   13.5727 C   0  0  0  0  0  0  0  0  0  0  0  0
   47.3015    7.5111   13.2170 C   0  0  0  0  0  0  0  0  0  0  0  0
   47.8050    6.2751   13.6300 C   0  0  0  0  0  0  0  0  0  0  0  0
   45.1907    3.0931   13.3375 H   0  0  0  0  0  0  0  0  0  0  0  0
   42.8888    3.3711   12.4859 H   0  0  0  0  0  0  0  0  0  0  0  0
   45.5941    8.5649   12.4218 H   0  0  0  0  0  0  0  0  0  0  0  0
   47.4132    4.1780   13.8987 H   0  0  0  0  0  0  0  0  0  0  0  0
   47.9294    8.3974   13.2638 H   0  0  0  0  0  0  0  0  0  0  0  0
   48.8260    6.2029   13.9979 H   0  0  0  0  0  0  0  0  0  0  0  0
  2  1  1  0
  3  6  1  0
  4  1  1  0
  5  2  1  0
  6  4  2  0
  7  2  2  0
  8  4  1  0
  9  6  1  0
 10  8  2  0
 11 10  1  0
  5  3  2  0
  9 11  2  0
  3 12  1  0
  5 13  1  0
  8 14  1  0
  9 15  1  0
 10 16  1  0
 11 17  1  0
M  END
> <Uni-Dock RESULT> 
ENERGY=   -3.556  LOWER_BOUND=    5.517  UPPER_BOUND=    6.235
INTER + INTRA:          -3.556
INTER:                  -3.556
INTRA:                   0.000
UNBOUND:                 0.000

$$$$

     RDKit          3D

 17 18  0  0  0  0  0  0  0  0999 V2000
   44.4497    7.3991   12.2439 O   0  0  0  0  0  0  0  0  0  0  0  0
   45.5808    8.0625   12.6984 C   0  0  0  0  0  0  0  0  0  0  0  0
   46.6585    5.8936   13.1561 C   0  0  0  0  0  0  0  0  0  0  0  0
   44.3885    5.9919   12.2312 C   0  0  0  0  0  0  0  0  0  0  0  0
   46.7041    7.2293   13.1630 C   0  0  0  0  0  0  0  0  0  0  0  0
   45.4625    5.2223   12.6750 C   0  0  0  0  0  0  0  0  0  0  0  0
   45.6605    9.2854   12.7203 O   0  0  0  0  0  0  0  0  0  0  0  0
   43.2156    5.4075   11.7588 C   0  0  0  0  0  0  0  0  0  0  0  0
   45.3542    3.8306   12.6431 C   0  0  0  0  0  0  0  0  0  0  0  0
   43.1150    4.0179   11.7300 C   0  0  0  0  0  0  0  0  0  0  0  0
   44.1818    3.2309   12.1711 C   0  0  0  0  0  0  0  0  0  0  0  0
   47.4971    5.3001   13.5026 H   0  0  0  0  0  0  0  0  0  0  0  0
   47.5756    7.7689   13.5130 H   0  0  0  0  0  0  0  0  0  0  0  0
   42.3914    6.0272   11.4180 H   0  0  0  0  0  0  0  0  0  0  0  0
   46.1730    3.2007   12.9819 H   0  0  0  0  0  0  0  0  0  0  0  0
   42.2062    3.5465   11.3641 H   0  0  0  0  0  0  0  0  0  0  0  0
   44.0999    2.1467   12.1471 H   0  0  0  0  0  0  0  0  0  0  0  0
  2  1  1  0
  3  6  1  0
  4  1  1  0
  5  2  1  0
  6  4  2  0
  7  2  2  0
  8  4  1  0
  9  6  1  0
 10  8  2  0
 11 10  1  0
  5  3  2  0
  9 11  2  0
  3 12  1  0
  5 13  1  0
  8 14  1  0
  9 15  1  0
 10 16  1  0
 11 17  1  0
M  END
> <Uni-Dock RESULT> 
ENERGY=   -3.390  LOWER_BOUND=    5.180  UPPER_BOUND=    6.187
INTER + INTRA:          -3.390
INTER:                  -3.390
INTRA:                   0.000
UNBOUND:                 0.000

$$$$

     RDKit          3D

 17 18  0  0  0  0  0  0  0  0999 V2000
   49.8804    4.6567   17.8535 O   0  0  0  0  0  0  0  0  0  0  0  0
   48.6114    4.5007   17.3135 C   0  0  0  0  0  0  0  0  0  0  0  0
   49.1432    2.1580   16.7625 C   0  0  0  0  0  0  0  0  0  0  0  0
   50.8013    3.5909   17.8649 C   0  0  0  0  0  0  0  0  0  0  0  0
   48.2785    3.1770   16.7577 C   0  0  0  0  0  0  0  0  0  0  0  0
   50.4662    2.3466   17.3340 C   0  0  0  0  0  0  0  0  0  0  0  0
   47.7910    5.4111   17.2907 O   0  0  0  0  0  0  0  0  0  0  0  0
   52.0527    3.8338   18.4262 C   0  0  0  0  0  0  0  0  0  0  0  0
   51.4132    1.3211   17.3684 C   0  0  0  0  0  0  0  0  0  0  0  0
   52.9927    2.8054   18.4570 C   0  0  0  0  0  0  0  0  0  0  0  0
   52.6738    1.5517   17.9293 C   0  0  0  0  0  0  0  0  0  0  0  0
   48.8770    1.1921   16.3480 H   0  0  0  0  0  0  0  0  0  0  0  0
   47.2832    3.0792   16.3421 H   0  0  0  0  0  0  0  0  0  0  0  0
   52.2918    4.8116   18.8340 H   0  0  0  0  0  0  0  0  0  0  0  0
   51.1846    0.3385   16.9630 H   0  0  0  0  0  0  0  0  0  0  0  0
   53.9739    2.9790   18.8918 H   0  0  0  0  0  0  0  0  0  0  0  0
   53.4097    0.7512   17.9549 H   0  0  0  0  0  0  0  0  0  0  0  0
  2  1  1  0
  3  6  1  0
  4  1  1  0
  5  2  1  0
  6  4  2  0
  7  2  2  0
  8  4  1  0
  9  6  1  0
 10  8  2  0
 11 10  1  0
  5  3  2  0
  9 11  2  0
  3 12  1  0
  5 13  1  0
  8 14  1  0
  9 15  1  0
 10 16  1  0
 11 17  1  0
M  END
> <Uni-Dock RESULT> 
ENERGY=   -3.335  LOWER_BOUND=    9.841  UPPER_BOUND=   10.674
INTER + INTRA:          -3.335
INTER:                  -3.335
INTRA:                   0.000
UNBOUND:                 0.000

$$$$
