
     RDKit          3D

 17 18  0  0  0  0  0  0  0  0999 V2000
   45.1062    1.7494    9.4021 O   0  0  0  0  0  0  0  0  0  0  0  0
   44.3549    2.7197   10.0503 C   0  0  0  0  0  0  0  0  0  0  0  0
   45.2324    4.4230    8.5000 C   0  0  0  0  0  0  0  0  0  0  0  0
   45.9270    2.0783    8.3056 C   0  0  0  0  0  0  0  0  0  0  0  0
   44.4574    4.0982    9.5392 C   0  0  0  0  0  0  0  0  0  0  0  0
   46.0097    3.3885    7.8379 C   0  0  0  0  0  0  0  0  0  0  0  0
   43.6329    2.4610   11.0065 O   0  0  0  0  0  0  0  0  0  0  0  0
   46.6471    1.0434    7.7135 C   0  0  0  0  0  0  0  0  0  0  0  0
   46.8371    3.6650    6.7477 C   0  0  0  0  0  0  0  0  0  0  0  0
   47.4710    1.3270    6.6258 C   0  0  0  0  0  0  0  0  0  0  0  0
   47.5659    2.6349    6.1439 C   0  0  0  0  0  0  0  0  0  0  0  0
   45.2927    5.4441    8.1405 H   0  0  0  0  0  0  0  0  0  0  0  0
   43.8624    4.8377   10.0608 H   0  0  0  0  0  0  0  0  0  0  0  0
   46.5671    0.0297    8.0949 H   0  0  0  0  0  0  0  0  0  0  0  0
   46.9248    4.6761    6.3576 H   0  0  0  0  0  0  0  0  0  0  0  0
   48.0396    0.5303    6.1527 H   0  0  0  0  0  0  0  0  0  0  0  0
   48.2098    2.8527    5.2948 H   0  0  0  0  0  0  0  0  0  0  0  0
  2  1  1  0
  3  6  1  0
  4  1  1  0
  5  2  1  0
  6  4  2  0
  7  2  2  0
  8  4  1  0
  9  6  1  0
 10  8  2  0
 11 10  1  0
  5  3  2  0
  9 11  2  0
  3 12  1  0
  5 13  1  0
  8 14  1  0
  9 15  1  0
 10 16  1  0
 11 17  1  0
M  END
> <Uni-Dock RESULT> 
ENERGY=   -6.438  LOWER_BOUND=    0.000  UPPER_BOUND=    0.000
INTER + INTRA:          -6.438
INTER:                  -6.438
INTRA:                   0.000
UNBOUND:                 0.000

$$$$

     RDKit          3D

 17 18  0  0  0  0  0  0  0  0999 V2000
   46.9341    3.5872    6.7530 O   0  0  0  0  0  0  0  0  0  0  0  0
   47.5780    2.5054    6.1686 C   0  0  0  0  0  0  0  0  0  0  0  0
   46.4674    0.9922    7.7661 C   0  0  0  0  0  0  0  0  0  0  0  0
   46.0552    3.4094    7.8393 C   0  0  0  0  0  0  0  0  0  0  0  0
   47.2990    1.1740    6.7358 C   0  0  0  0  0  0  0  0  0  0  0  0
   45.8050    2.1414    8.3607 C   0  0  0  0  0  0  0  0  0  0  0  0
   48.3474    2.6318    5.2229 O   0  0  0  0  0  0  0  0  0  0  0  0
   45.4512    4.5489    8.3654 C   0  0  0  0  0  0  0  0  0  0  0  0
   44.9258    2.0160    9.4381 C   0  0  0  0  0  0  0  0  0  0  0  0
   44.5748    4.4159    9.4409 C   0  0  0  0  0  0  0  0  0  0  0  0
   44.3125    3.1524    9.9761 C   0  0  0  0  0  0  0  0  0  0  0  0
   46.2766    0.0033    8.1675 H   0  0  0  0  0  0  0  0  0  0  0  0
   47.8127    0.3456    6.2637 H   0  0  0  0  0  0  0  0  0  0  0  0
   45.6609    5.5271    7.9429 H   0  0  0  0  0  0  0  0  0  0  0  0
   44.7085    1.0417    9.8689 H   0  0  0  0  0  0  0  0  0  0  0  0
   44.0953    5.2957    9.8629 H   0  0  0  0  0  0  0  0  0  0  0  0
   43.6280    3.0523   10.8153 H   0  0  0  0  0  0  0  0  0  0  0  0
  2  1  1  0
  3  6  1  0
  4  1  1  0
  5  2  1  0
  6  4  2  0
  7  2  2  0
  8  4  1  0
  9  6  1  0
 10  8  2  0
 11 10  1  0
  5  3  2  0
  9 11  2  0
  3 12  1  0
  5 13  1  0
  8 14  1  0
  9 15  1  0
 10 16  1  0
 11 17  1  0
M  END
> <Uni-Dock RESULT> 
ENERGY=   -5.506  LOWER_BOUND=    2.054  UPPER_BOUND=    4.434
INTER + INTRA:          -5.506
INTER:                  -5.506
INTRA:                   0.000
UNBOUND:                 0.000

$$$$

     RDKit          3D

 17 18  0  0  0  0  0  0  0  0999 V2000
   44.2912    5.3344   10.8271 O   0  0  0  0  0  0  0  0  0  0  0  0
   43.5813    4.9682   11.9620 C   0  0  0  0  0  0  0  0  0  0  0  0
   43.7489    2.6019   11.2930 C   0  0  0  0  0  0  0  0  0  0  0  0
   44.7428    4.3665    9.9088 C   0  0  0  0  0  0  0  0  0  0  0  0
   43.3258    3.5298   12.1568 C   0  0  0  0  0  0  0  0  0  0  0  0
   44.4905    3.0109   10.1118 C   0  0  0  0  0  0  0  0  0  0  0  0
   43.1767    5.7895   12.7770 O   0  0  0  0  0  0  0  0  0  0  0  0
   45.4478    4.8208    8.7967 C   0  0  0  0  0  0  0  0  0  0  0  0
   44.9588    2.0893    9.1732 C   0  0  0  0  0  0  0  0  0  0  0  0
   45.9121    3.8950    7.8642 C   0  0  0  0  0  0  0  0  0  0  0  0
   45.6682    2.5322    8.0518 C   0  0  0  0  0  0  0  0  0  0  0  0
   43.5496    1.5487   11.4563 H   0  0  0  0  0  0  0  0  0  0  0  0
   42.7702    3.2683   13.0490 H   0  0  0  0  0  0  0  0  0  0  0  0
   45.6328    5.8820    8.6590 H   0  0  0  0  0  0  0  0  0  0  0  0
   44.7795    1.0246    9.3011 H   0  0  0  0  0  0  0  0  0  0  0  0
   46.4639    4.2336    6.9908 H   0  0  0  0  0  0  0  0  0  0  0  0
   46.0319    1.8124    7.3221 H   0  0  0  0  0  0  0  0  0  0  0  0
  2  1  1  0
  3  6  1  0
  4  1  1  0
  5  2  1  0
  6  4  2  0
  7  2  2  0
  8  4  1  0
  9  6  1  0
 10  8  2  0
 11 10  1  0
  5  3  2  0
  9 11  2  0
  3 12  1  0
  5 13  1  0
  8 14  1  0
  9 15  1  0
 10 16  1  0
 11 17  1  0
M  END
> <Uni-Dock RESULT> 
ENERGY=   -4.700  LOWER_BOUND=    2.023  UPPER_BOUND=    3.364
INTER + INTRA:          -4.700
INTER:                  -4.700
INTRA:                   0.000
UNBOUND:                 0.000

$$$$

     RDKit          3D

 17 18  0  0  0  0  0  0  0  0999 V2000
   45.5393    4.8369    8.6468 O   0  0  0  0  0  0  0  0  0  0  0  0
   46.0087    3.8616    7.7781 C   0  0  0  0  0  0  0  0  0  0  0  0
   44.9582    2.1238    9.1750 C   0  0  0  0  0  0  0  0  0  0  0  0
   44.7806    4.4938    9.7829 C   0  0  0  0  0  0  0  0  0  0  0  0
   45.6770    2.4622    8.1004 C   0  0  0  0  0  0  0  0  0  0  0  0
   44.4780    3.1639   10.0696 C   0  0  0  0  0  0  0  0  0  0  0  0
   46.6708    4.1323    6.7828 O   0  0  0  0  0  0  0  0  0  0  0  0
   44.3492    5.5350   10.6013 C   0  0  0  0  0  0  0  0  0  0  0  0
   43.7227    2.8738   11.2076 C   0  0  0  0  0  0  0  0  0  0  0  0
   43.5959    5.2377   11.7355 C   0  0  0  0  0  0  0  0  0  0  0  0
   43.2832    3.9102   12.0382 C   0  0  0  0  0  0  0  0  0  0  0  0
   44.7258    1.0874    9.3930 H   0  0  0  0  0  0  0  0  0  0  0  0
   46.0540    1.7191    7.4085 H   0  0  0  0  0  0  0  0  0  0  0  0
   44.5969    6.5641   10.3583 H   0  0  0  0  0  0  0  0  0  0  0  0
   43.4689    1.8474   11.4605 H   0  0  0  0  0  0  0  0  0  0  0  0
   43.2516    6.0392   12.3845 H   0  0  0  0  0  0  0  0  0  0  0  0
   42.6951    3.6817   12.9240 H   0  0  0  0  0  0  0  0  0  0  0  0
  2  1  1  0
  3  6  1  0
  4  1  1  0
  5  2  1  0
  6  4  2  0
  7  2  2  0
  8  4  1  0
  9  6  1  0
 10  8  2  0
 11 10  1  0
  5  3  2  0
  9 11  2  0
  3 12  1  0
  5 13  1  0
  8 14  1  0
  9 15  1  0
 10 16  1  0
 11 17  1  0
M  END
> <Uni-Dock RESULT> 
ENERGY=   -4.676  LOWER_BOUND=    2.048  UPPER_BOUND=    4.798
INTER + INTRA:          -4.676
INTER:                  -4.676
INTRA:                   0.000
UNBOUND:                 0.000

$$$$

     RDKit          3D

 17 18  0  0  0  0  0  0  0  0999 V2000
   44.7967    2.0838   10.2948 O   0  0  0  0  0  0  0  0  0  0  0  0
   45.2314    2.1231    8.9773 C   0  0  0  0  0  0  0  0  0  0  0  0
   44.5676    4.4926    8.8377 C   0  0  0  0  0  0  0  0  0  0  0  0
   44.2455    3.2236   10.9122 C   0  0  0  0  0  0  0  0  0  0  0  0
   45.0889    3.4044    8.2632 C   0  0  0  0  0  0  0  0  0  0  0  0
   44.1196    4.4260   10.2188 C   0  0  0  0  0  0  0  0  0  0  0  0
   45.7146    1.1465    8.4159 O   0  0  0  0  0  0  0  0  0  0  0  0
   43.8347    3.0967   12.2370 C   0  0  0  0  0  0  0  0  0  0  0  0
   43.5670    5.5282   10.8740 C   0  0  0  0  0  0  0  0  0  0  0  0
   43.2839    4.2012   12.8844 C   0  0  0  0  0  0  0  0  0  0  0  0
   43.1503    5.4143   12.2045 C   0  0  0  0  0  0  0  0  0  0  0  0
   44.4723    5.4254    8.2932 H   0  0  0  0  0  0  0  0  0  0  0  0
   45.4347    3.4107    7.2368 H   0  0  0  0  0  0  0  0  0  0  0  0
   43.9424    2.1498   12.7577 H   0  0  0  0  0  0  0  0  0  0  0  0
   43.4544    6.4810   10.3625 H   0  0  0  0  0  0  0  0  0  0  0  0
   42.9584    4.1184   13.9184 H   0  0  0  0  0  0  0  0  0  0  0  0
   42.7200    6.2743   12.7127 H   0  0  0  0  0  0  0  0  0  0  0  0
  2  1  1  0
  3  6  1  0
  4  1  1  0
  5  2  1  0
  6  4  2  0
  7  2  2  0
  8  4  1  0
  9  6  1  0
 10  8  2  0
 11 10  1  0
  5  3  2  0
  9 11  2  0
  3 12  1  0
  5 13  1  0
  8 14  1  0
  9 15  1  0
 10 16  1  0
 11 17  1  0
M  END
> <Uni-Dock RESULT> 
ENERGY=   -4.672  LOWER_BOUND=    1.902  UPPER_BOUND=    4.603
INTER + INTRA:          -4.672
INTER:                  -4.672
INTRA:                   0.000
UNBOUND:                 0.000

$$$$

     RDKit          3D

 17 18  0  0  0  0  0  0  0  0999 V2000
   44.9895    3.6527   12.7607 O   0  0  0  0  0  0  0  0  0  0  0  0
   43.7455    3.3948   12.2020 C   0  0  0  0  0  0  0  0  0  0  0  0
   43.4405    5.8054   11.7889 C   0  0  0  0  0  0  0  0  0  0  0  0
   45.4877    4.9672   12.8494 C   0  0  0  0  0  0  0  0  0  0  0  0
   42.9790    4.5537   11.7106 C   0  0  0  0  0  0  0  0  0  0  0  0
   44.7465    6.0495   12.3785 C   0  0  0  0  0  0  0  0  0  0  0  0
   43.2881    2.2611   12.1125 O   0  0  0  0  0  0  0  0  0  0  0  0
   46.7450    5.1365   13.4243 C   0  0  0  0  0  0  0  0  0  0  0  0
   45.2830    7.3339   12.4885 C   0  0  0  0  0  0  0  0  0  0  0  0
   47.2740    6.4215   13.5307 C   0  0  0  0  0  0  0  0  0  0  0  0
   46.5447    7.5178   13.0639 C   0  0  0  0  0  0  0  0  0  0  0  0
   42.8594    6.6435   11.4208 H   0  0  0  0  0  0  0  0  0  0  0  0
   42.0116    4.3278   11.2789 H   0  0  0  0  0  0  0  0  0  0  0  0
   47.3048    4.2784   13.7844 H   0  0  0  0  0  0  0  0  0  0  0  0
   44.7314    8.2001   12.1313 H   0  0  0  0  0  0  0  0  0  0  0  0
   48.2541    6.5703   13.9770 H   0  0  0  0  0  0  0  0  0  0  0  0
   46.9605    8.5193   13.1485 H   0  0  0  0  0  0  0  0  0  0  0  0
  2  1  1  0
  3  6  1  0
  4  1  1  0
  5  2  1  0
  6  4  2  0
  7  2  2  0
  8  4  1  0
  9  6  1  0
 10  8  2  0
 11 10  1  0
  5  3  2  0
  9 11  2  0
  3 12  1  0
  5 13  1  0
  8 14  1  0
  9 15  1  0
 10 16  1  0
 11 17  1  0
M  END
> <Uni-Dock RESULT> 
ENERGY=   -3.568  LOWER_BOUND=    4.868  UPPER_BOUND=    5.624
INTER + INTRA:          -3.568
INTER:                  -3.568
INTRA:                   0.000
UNBOUND:                 0.000

$$$$

     RDKit          3D

 17 18  0  0  0  0  0  0  0  0999 V2000
   43.8893    6.6020   12.2099 O   0  0  0  0  0  0  0  0  0  0  0  0
   43.0367    5.5102   12.1249 C   0  0  0  0  0  0  0  0  0  0  0  0
   44.8172    4.0606   13.0213 C   0  0  0  0  0  0  0  0  0  0  0  0
   45.2049    6.4605   12.6931 C   0  0  0  0  0  0  0  0  0  0  0  0
   43.5711    4.2078   12.5611 C   0  0  0  0  0  0  0  0  0  0  0  0
   45.6908    5.2196   13.1007 C   0  0  0  0  0  0  0  0  0  0  0  0
   41.8879    5.6051   11.7083 O   0  0  0  0  0  0  0  0  0  0  0  0
   45.9931    7.6078   12.7452 C   0  0  0  0  0  0  0  0  0  0  0  0
   47.0019    5.1299   13.5724 C   0  0  0  0  0  0  0  0  0  0  0  0
   47.3008    7.5105   13.2172 C   0  0  0  0  0  0  0  0  0  0  0  0
   47.8042    6.2744   13.6299 C   0  0  0  0  0  0  0  0  0  0  0  0
   45.1897    3.0926   13.3370 H   0  0  0  0  0  0  0  0  0  0  0  0
   42.8878    3.3709   12.4855 H   0  0  0  0  0  0  0  0  0  0  0  0
   45.5934    8.5645   12.4223 H   0  0  0  0  0  0  0  0  0  0  0  0
   47.4124    4.1773   13.8983 H   0  0  0  0  0  0  0  0  0  0  0  0
   47.9288    8.3967   13.2640 H   0  0  0  0  0  0  0  0  0  0  0  0
   48.8252    6.2020   13.9977 H   0  0  0  0  0  0  0  0  0  0  0  0
  2  1  1  0
  3  6  1  0
  4  1  1  0
  5  2  1  0
  6  4  2  0
  7  2  2  0
  8  4  1  0
  9  6  1  0
 10  8  2  0
 11 10  1  0
  5  3  2  0
  9 11  2  0
  3 12  1  0
  5 13  1  0
  8 14  1  0
  9 15  1  0
 10 16  1  0
 11 17  1  0
M  END
> <Uni-Dock RESULT> 
ENERGY=   -3.557  LOWER_BOUND=    5.517  UPPER_BOUND=    6.249
INTER + INTRA:          -3.557
INTER:                  -3.557
INTRA:                   0.000
UNBOUND:                 0.000

$$$$

     RDKit          3D

 17 18  0  0  0  0  0  0  0  0999 V2000
   45.4702    4.1233   13.7876 O   0  0  0  0  0  0  0  0  0  0  0  0
   46.7967    4.3895   14.0971 C   0  0  0  0  0  0  0  0  0  0  0  0
   46.6931    6.4429   12.7378 C   0  0  0  0  0  0  0  0  0  0  0  0
   44.7290    4.9902   12.9609 C   0  0  0  0  0  0  0  0  0  0  0  0
   47.3856    5.6126   13.5234 C   0  0  0  0  0  0  0  0  0  0  0  0
   45.3051    6.1420   12.4283 C   0  0  0  0  0  0  0  0  0  0  0  0
   47.4645    3.6524   14.8135 O   0  0  0  0  0  0  0  0  0  0  0  0
   43.4042    4.6477   12.7011 C   0  0  0  0  0  0  0  0  0  0  0  0
   44.5298    6.9701   11.6143 C   0  0  0  0  0  0  0  0  0  0  0  0
   42.6364    5.4790   11.8877 C   0  0  0  0  0  0  0  0  0  0  0  0
   43.1978    6.6377   11.3454 C   0  0  0  0  0  0  0  0  0  0  0  0
   47.1467    7.3376   12.3264 H   0  0  0  0  0  0  0  0  0  0  0  0
   48.4215    5.7992   13.7787 H   0  0  0  0  0  0  0  0  0  0  0  0
   42.9761    3.7450   13.1270 H   0  0  0  0  0  0  0  0  0  0  0  0
   44.9480    7.8762   11.1828 H   0  0  0  0  0  0  0  0  0  0  0  0
   41.6007    5.2256   11.6754 H   0  0  0  0  0  0  0  0  0  0  0  0
   42.5958    7.2843   10.7110 H   0  0  0  0  0  0  0  0  0  0  0  0
  2  1  1  0
  3  6  1  0
  4  1  1  0
  5  2  1  0
  6  4  2  0
  7  2  2  0
  8  4  1  0
  9  6  1  0
 10  8  2  0
 11 10  1  0
  5  3  2  0
  9 11  2  0
  3 12  1  0
  5 13  1  0
  8 14  1  0
  9 15  1  0
 10 16  1  0
 11 17  1  0
M  END
> <Uni-Dock RESULT> 
ENERGY=   -3.543  LOWER_BOUND=    5.587  UPPER_BOUND=    6.114
INTER + INTRA:          -3.543
INTER:                  -3.543
INTRA:                   0.000
UNBOUND:                 0.000

$$$$
