
     RDKit          3D

 17 18  0  0  0  0  0  0  0  0999 V2000
   45.1057    1.7493    9.4024 O   0  0  0  0  0  0  0  0  0  0  0  0
   44.3545    2.7196   10.0508 C   0  0  0  0  0  0  0  0  0  0  0  0
   45.2323    4.4230    8.5008 C   0  0  0  0  0  0  0  0  0  0  0  0
   45.9264    2.0783    8.3060 C   0  0  0  0  0  0  0  0  0  0  0  0
   44.4574    4.0982    9.5400 C   0  0  0  0  0  0  0  0  0  0  0  0
   46.0095    3.3885    7.8385 C   0  0  0  0  0  0  0  0  0  0  0  0
   43.6323    2.4609   11.0069 O   0  0  0  0  0  0  0  0  0  0  0  0
   46.6465    1.0433    7.7138 C   0  0  0  0  0  0  0  0  0  0  0  0
   46.8371    3.6652    6.7485 C   0  0  0  0  0  0  0  0  0  0  0  0
   47.4704    1.3270    6.6262 C   0  0  0  0  0  0  0  0  0  0  0  0
   47.5656    2.6350    6.1444 C   0  0  0  0  0  0  0  0  0  0  0  0
   45.2929    5.4441    8.1416 H   0  0  0  0  0  0  0  0  0  0  0  0
   43.8623    4.8378   10.0617 H   0  0  0  0  0  0  0  0  0  0  0  0
   46.5663    0.0296    8.0950 H   0  0  0  0  0  0  0  0  0  0  0  0
   46.9249    4.6762    6.3587 H   0  0  0  0  0  0  0  0  0  0  0  0
   48.0389    0.5302    6.1528 H   0  0  0  0  0  0  0  0  0  0  0  0
   48.2095    2.8529    5.2955 H   0  0  0  0  0  0  0  0  0  0  0  0
  2  1  1  0
  3  6  1  0
  4  1  1  0
  5  2  1  0
  6  4  2  0
  7  2  2  0
  8  4  1  0
  9  6  1  0
 10  8  2  0
 11 10  1  0
  5  3  2  0
  9 11  2  0
  3 12  1  0
  5 13  1  0
  8 14  1  0
  9 15  1  0
 10 16  1  0
 11 17  1  0
M  END
> <Uni-Dock RESULT> 
ENERGY=   -6.433  LOWER_BOUND=    0.000  UPPER_BOUND=    0.000
INTER + INTRA:          -6.433
INTER:                  -6.433
INTRA:                   0.000
UNBOUND:                 0.000

$$$$

     RDKit          3D

 17 18  0  0  0  0  0  0  0  0999 V2000
   45.2437    4.4795    8.2305 O   0  0  0  0  0  0  0  0  0  0  0  0
   44.3755    4.2311    9.2845 C   0  0  0  0  0  0  0  0  0  0  0  0
   45.0454    1.8592    9.2661 C   0  0  0  0  0  0  0  0  0  0  0  0
   46.0236    3.4475    7.6730 C   0  0  0  0  0  0  0  0  0  0  0  0
   44.3107    2.8469    9.7864 C   0  0  0  0  0  0  0  0  0  0  0  0
   45.9473    2.1450    8.1627 C   0  0  0  0  0  0  0  0  0  0  0  0
   43.6856    5.1102    9.7881 O   0  0  0  0  0  0  0  0  0  0  0  0
   46.8685    3.7841    6.6180 C   0  0  0  0  0  0  0  0  0  0  0  0
   46.7403    1.1561    7.5770 C   0  0  0  0  0  0  0  0  0  0  0  0
   47.6570    2.7919    6.0384 C   0  0  0  0  0  0  0  0  0  0  0  0
   47.5932    1.4807    6.5167 C   0  0  0  0  0  0  0  0  0  0  0  0
   44.9818    0.8477    9.6512 H   0  0  0  0  0  0  0  0  0  0  0  0
   43.6265    2.6774   10.6089 H   0  0  0  0  0  0  0  0  0  0  0  0
   46.9116    4.8059    6.2527 H   0  0  0  0  0  0  0  0  0  0  0  0
   46.7052    0.1301    7.9346 H   0  0  0  0  0  0  0  0  0  0  0  0
   48.3218    3.0384    5.2141 H   0  0  0  0  0  0  0  0  0  0  0  0
   48.2100    0.7088    6.0622 H   0  0  0  0  0  0  0  0  0  0  0  0
  2  1  1  0
  3  6  1  0
  4  1  1  0
  5  2  1  0
  6  4  2  0
  7  2  2  0
  8  4  1  0
  9  6  1  0
 10  8  2  0
 11 10  1  0
  5  3  2  0
  9 11  2  0
  3 12  1  0
  5 13  1  0
  8 14  1  0
  9 15  1  0
 10 16  1  0
 11 17  1  0
M  END
> <Uni-Dock RESULT> 
ENERGY=   -6.049  LOWER_BOUND=    1.331  UPPER_BOUND=    2.190
INTER + INTRA:          -6.049
INTER:                  -6.049
INTRA:                   0.000
UNBOUND:                 0.000

$$$$

     RDKit          3D

 17 18  0  0  0  0  0  0  0  0999 V2000
   45.8630    0.9646    8.4427 O   0  0  0  0  0  0  0  0  0  0  0  0
   46.7380    0.5702    7.4402 C   0  0  0  0  0  0  0  0  0  0  0  0
   47.1154    2.9336    6.8513 C   0  0  0  0  0  0  0  0  0  0  0  0
   45.5924    2.3270    8.6762 C   0  0  0  0  0  0  0  0  0  0  0  0
   47.3639    1.6376    6.6397 C   0  0  0  0  0  0  0  0  0  0  0  0
   46.1950    3.3211    7.9075 C   0  0  0  0  0  0  0  0  0  0  0  0
   46.9913   -0.6080    7.2157 O   0  0  0  0  0  0  0  0  0  0  0  0
   44.7018    2.6347    9.7022 C   0  0  0  0  0  0  0  0  0  0  0  0
   45.8949    4.6579    8.1770 C   0  0  0  0  0  0  0  0  0  0  0  0
   44.4072    3.9712    9.9655 C   0  0  0  0  0  0  0  0  0  0  0  0
   45.0023    4.9807    9.2047 C   0  0  0  0  0  0  0  0  0  0  0  0
   47.5872    3.7025    6.2500 H   0  0  0  0  0  0  0  0  0  0  0  0
   48.0427    1.3058    5.8636 H   0  0  0  0  0  0  0  0  0  0  0  0
   44.2440    1.8434   10.2884 H   0  0  0  0  0  0  0  0  0  0  0  0
   46.3474    5.4579    7.5966 H   0  0  0  0  0  0  0  0  0  0  0  0
   43.7141    4.2279   10.7629 H   0  0  0  0  0  0  0  0  0  0  0  0
   44.7701    6.0226    9.4128 H   0  0  0  0  0  0  0  0  0  0  0  0
  2  1  1  0
  3  6  1  0
  4  1  1  0
  5  2  1  0
  6  4  2  0
  7  2  2  0
  8  4  1  0
  9  6  1  0
 10  8  2  0
 11 10  1  0
  5  3  2  0
  9 11  2  0
  3 12  1  0
  5 13  1  0
  8 14  1  0
  9 15  1  0
 10 16  1  0
 11 17  1  0
M  END
> <Uni-Dock RESULT> 
ENERGY=   -5.384  LOWER_BOUND=    1.325  UPPER_BOUND=    3.683
INTER + INTRA:          -5.384
INTER:                  -5.384
INTRA:                   0.000
UNBOUND:                 0.000

$$$$

     RDKit          3D

 17 18  0  0  0  0  0  0  0  0999 V2000
   44.2046    5.3034   10.2962 O   0  0  0  0  0  0  0  0  0  0  0  0
   43.4314    5.0184   11.4131 C   0  0  0  0  0  0  0  0  0  0  0  0
   43.7766    2.6088   11.0268 C   0  0  0  0  0  0  0  0  0  0  0  0
   44.7761    4.2719    9.5259 C   0  0  0  0  0  0  0  0  0  0  0  0
   43.2398    3.5964   11.7496 C   0  0  0  0  0  0  0  0  0  0  0  0
   44.5826    2.9332    9.8615 C   0  0  0  0  0  0  0  0  0  0  0  0
   42.9225    5.8962   12.1008 O   0  0  0  0  0  0  0  0  0  0  0  0
   45.5378    4.6465    8.4214 C   0  0  0  0  0  0  0  0  0  0  0  0
   45.1696    1.9464    9.0669 C   0  0  0  0  0  0  0  0  0  0  0  0
   46.1206    3.6560    7.6331 C   0  0  0  0  0  0  0  0  0  0  0  0
   45.9371    2.3089    7.9549 C   0  0  0  0  0  0  0  0  0  0  0  0
   43.6226    1.5691   11.2927 H   0  0  0  0  0  0  0  0  0  0  0  0
   42.6331    3.3987   12.6248 H   0  0  0  0  0  0  0  0  0  0  0  0
   45.6751    5.6961    8.1789 H   0  0  0  0  0  0  0  0  0  0  0  0
   45.0388    0.8928    9.3005 H   0  0  0  0  0  0  0  0  0  0  0  0
   46.7181    3.9320    6.7676 H   0  0  0  0  0  0  0  0  0  0  0  0
   46.3934    1.5386    7.3375 H   0  0  0  0  0  0  0  0  0  0  0  0
  2  1  1  0
  3  6  1  0
  4  1  1  0
  5  2  1  0
  6  4  2  0
  7  2  2  0
  8  4  1  0
  9  6  1  0
 10  8  2  0
 11 10  1  0
  5  3  2  0
  9 11  2  0
  3 12  1  0
  5 13  1  0
  8 14  1  0
  9 15  1  0
 10 16  1  0
 11 17  1  0
M  END
> <Uni-Dock RESULT> 
ENERGY=   -4.797  LOWER_BOUND=    1.853  UPPER_BOUND=    3.137
INTER + INTRA:          -4.797
INTER:                  -4.797
INTRA:                   0.000
UNBOUND:                 0.000

$$$$

     RDKit          3D

 17 18  0  0  0  0  0  0  0  0999 V2000
   45.5295    4.8399    8.6564 O   0  0  0  0  0  0  0  0  0  0  0  0
   46.0001    3.8680    7.7845 C   0  0  0  0  0  0  0  0  0  0  0  0
   44.9574    2.1238    9.1793 C   0  0  0  0  0  0  0  0  0  0  0  0
   44.7740    4.4918    9.7931 C   0  0  0  0  0  0  0  0  0  0  0  0
   45.6732    2.4669    8.1042 C   0  0  0  0  0  0  0  0  0  0  0  0
   44.4758    3.1604   10.0773 C   0  0  0  0  0  0  0  0  0  0  0  0
   46.6594    4.1431    6.7885 O   0  0  0  0  0  0  0  0  0  0  0  0
   44.3412    5.5298   10.6150 C   0  0  0  0  0  0  0  0  0  0  0  0
   43.7237    2.8652   11.2161 C   0  0  0  0  0  0  0  0  0  0  0  0
   43.5909    5.2276   11.7498 C   0  0  0  0  0  0  0  0  0  0  0  0
   43.2828    3.8984   12.0499 C   0  0  0  0  0  0  0  0  0  0  0  0
   44.7286    1.0863    9.3953 H   0  0  0  0  0  0  0  0  0  0  0  0
   46.0510    1.7265    7.4096 H   0  0  0  0  0  0  0  0  0  0  0  0
   44.5854    6.5602   10.3739 H   0  0  0  0  0  0  0  0  0  0  0  0
   43.4734    1.8375   11.4670 H   0  0  0  0  0  0  0  0  0  0  0  0
   43.2455    6.0265   12.4015 H   0  0  0  0  0  0  0  0  0  0  0  0
   42.6970    3.6660   12.9363 H   0  0  0  0  0  0  0  0  0  0  0  0
  2  1  1  0
  3  6  1  0
  4  1  1  0
  5  2  1  0
  6  4  2  0
  7  2  2  0
  8  4  1  0
  9  6  1  0
 10  8  2  0
 11 10  1  0
  5  3  2  0
  9 11  2  0
  3 12  1  0
  5 13  1  0
  8 14  1  0
  9 15  1  0
 10 16  1  0
 11 17  1  0
M  END
> <Uni-Dock RESULT> 
ENERGY=   -4.675  LOWER_BOUND=    2.049  UPPER_BOUND=    4.801
INTER + INTRA:          -4.675
INTER:                  -4.675
INTRA:                   0.000
UNBOUND:                 0.000

$$$$

     RDKit          3D

 17 18  0  0  0  0  0  0  0  0999 V2000
   44.9689    3.6302   12.7236 O   0  0  0  0  0  0  0  0  0  0  0  0
   43.7246    3.3876   12.1586 C   0  0  0  0  0  0  0  0  0  0  0  0
   43.4370    5.8051   11.7743 C   0  0  0  0  0  0  0  0  0  0  0  0
   45.4757    4.9402   12.8295 C   0  0  0  0  0  0  0  0  0  0  0  0
   42.9672    4.5576   11.6796 C   0  0  0  0  0  0  0  0  0  0  0  0
   44.7431    6.0331   12.3701 C   0  0  0  0  0  0  0  0  0  0  0  0
   43.2598    2.2582   12.0542 O   0  0  0  0  0  0  0  0  0  0  0  0
   46.7328    5.0938   13.4096 C   0  0  0  0  0  0  0  0  0  0  0  0
   45.2879    7.3125   12.4971 C   0  0  0  0  0  0  0  0  0  0  0  0
   47.2701    6.3737   13.5331 C   0  0  0  0  0  0  0  0  0  0  0  0
   46.5494    7.4808   13.0779 C   0  0  0  0  0  0  0  0  0  0  0  0
   42.8625    6.6515   11.4152 H   0  0  0  0  0  0  0  0  0  0  0  0
   41.9994    4.3436   11.2428 H   0  0  0  0  0  0  0  0  0  0  0  0
   47.2857    4.2276   13.7606 H   0  0  0  0  0  0  0  0  0  0  0  0
   44.7432    8.1865   12.1492 H   0  0  0  0  0  0  0  0  0  0  0  0
   48.2501    6.5105   13.9836 H   0  0  0  0  0  0  0  0  0  0  0  0
   46.9718    8.4782   13.1757 H   0  0  0  0  0  0  0  0  0  0  0  0
  2  1  1  0
  3  6  1  0
  4  1  1  0
  5  2  1  0
  6  4  2  0
  7  2  2  0
  8  4  1  0
  9  6  1  0
 10  8  2  0
 11 10  1  0
  5  3  2  0
  9 11  2  0
  3 12  1  0
  5 13  1  0
  8 14  1  0
  9 15  1  0
 10 16  1  0
 11 17  1  0
M  END
> <Uni-Dock RESULT> 
ENERGY=   -3.568  LOWER_BOUND=    4.843  UPPER_BOUND=    5.604
INTER + INTRA:          -3.568
INTER:                  -3.568
INTRA:                   0.000
UNBOUND:                 0.000

$$$$

     RDKit          3D

 17 18  0  0  0  0  0  0  0  0999 V2000
   43.8899    6.6019   12.2097 O   0  0  0  0  0  0  0  0  0  0  0  0
   43.0374    5.5099   12.1250 C   0  0  0  0  0  0  0  0  0  0  0  0
   44.8182    4.0609   13.0218 C   0  0  0  0  0  0  0  0  0  0  0  0
   45.2054    6.4609   12.6930 C   0  0  0  0  0  0  0  0  0  0  0  0
   43.5722    4.2077   12.5615 C   0  0  0  0  0  0  0  0  0  0  0  0
   45.6916    5.2201   13.1008 C   0  0  0  0  0  0  0  0  0  0  0  0
   41.8885    5.6044   11.7085 O   0  0  0  0  0  0  0  0  0  0  0  0
   45.9934    7.6083   12.7446 C   0  0  0  0  0  0  0  0  0  0  0  0
   47.0028    5.1308   13.5725 C   0  0  0  0  0  0  0  0  0  0  0  0
   47.3011    7.5115   13.2166 C   0  0  0  0  0  0  0  0  0  0  0  0
   47.8049    6.2755   13.6297 C   0  0  0  0  0  0  0  0  0  0  0  0
   45.1910    3.0931   13.3377 H   0  0  0  0  0  0  0  0  0  0  0  0
   42.8890    3.3706   12.4863 H   0  0  0  0  0  0  0  0  0  0  0  0
   45.5934    8.5648   12.4214 H   0  0  0  0  0  0  0  0  0  0  0  0
   47.4134    4.1785   13.8986 H   0  0  0  0  0  0  0  0  0  0  0  0
   47.9290    8.3979   13.2632 H   0  0  0  0  0  0  0  0  0  0  0  0
   48.8258    6.2035   13.9975 H   0  0  0  0  0  0  0  0  0  0  0  0
  2  1  1  0
  3  6  1  0
  4  1  1  0
  5  2  1  0
  6  4  2  0
  7  2  2  0
  8  4  1  0
  9  6  1  0
 10  8  2  0
 11 10  1  0
  5  3  2  0
  9 11  2  0
  3 12  1  0
  5 13  1  0
  8 14  1  0
  9 15  1  0
 10 16  1  0
 11 17  1  0
M  END
> <Uni-Dock RESULT> 
ENERGY=   -3.556  LOWER_BOUND=    5.517  UPPER_BOUND=    6.249
INTER + INTRA:          -3.556
INTER:                  -3.556
INTRA:                   0.000
UNBOUND:                 0.000

$$$$
