
     RDKit          3D

 17 18  0  0  0  0  0  0  0  0999 V2000
   45.1053    1.7498    9.4025 O   0  0  0  0  0  0  0  0  0  0  0  0
   44.3543    2.7202   10.0509 C   0  0  0  0  0  0  0  0  0  0  0  0
   45.2326    4.4235    8.5010 C   0  0  0  0  0  0  0  0  0  0  0  0
   45.9263    2.0786    8.3062 C   0  0  0  0  0  0  0  0  0  0  0  0
   44.4575    4.0987    9.5402 C   0  0  0  0  0  0  0  0  0  0  0  0
   46.0097    3.3888    7.8387 C   0  0  0  0  0  0  0  0  0  0  0  0
   43.6321    2.4616   11.0069 O   0  0  0  0  0  0  0  0  0  0  0  0
   46.6461    1.0434    7.7140 C   0  0  0  0  0  0  0  0  0  0  0  0
   46.8373    3.6653    6.7487 C   0  0  0  0  0  0  0  0  0  0  0  0
   47.4702    1.3270    6.6265 C   0  0  0  0  0  0  0  0  0  0  0  0
   47.5657    2.6349    6.1447 C   0  0  0  0  0  0  0  0  0  0  0  0
   45.2934    5.4446    8.1417 H   0  0  0  0  0  0  0  0  0  0  0  0
   43.8626    4.8385   10.0618 H   0  0  0  0  0  0  0  0  0  0  0  0
   46.5657    0.0297    8.0952 H   0  0  0  0  0  0  0  0  0  0  0  0
   46.9254    4.6764    6.3589 H   0  0  0  0  0  0  0  0  0  0  0  0
   48.0386    0.5301    6.1531 H   0  0  0  0  0  0  0  0  0  0  0  0
   48.2098    2.8527    5.2958 H   0  0  0  0  0  0  0  0  0  0  0  0
  2  1  1  0
  3  6  1  0
  4  1  1  0
  5  2  1  0
  6  4  2  0
  7  2  2  0
  8  4  1  0
  9  6  1  0
 10  8  2  0
 11 10  1  0
  5  3  2  0
  9 11  2  0
  3 12  1  0
  5 13  1  0
  8 14  1  0
  9 15  1  0
 10 16  1  0
 11 17  1  0
M  END
> <Uni-Dock RESULT> 
ENERGY=   -6.432  LOWER_BOUND=    0.000  UPPER_BOUND=    0.000
INTER + INTRA:          -6.432
INTER:                  -6.432
INTRA:                   0.000
UNBOUND:                 0.000

$$$$

     RDKit          3D

 17 18  0  0  0  0  0  0  0  0999 V2000
   45.2355    4.4693    8.2240 O   0  0  0  0  0  0  0  0  0  0  0  0
   44.3694    4.2178    9.2790 C   0  0  0  0  0  0  0  0  0  0  0  0
   45.0508    1.8491    9.2625 C   0  0  0  0  0  0  0  0  0  0  0  0
   46.0198    3.4405    7.6668 C   0  0  0  0  0  0  0  0  0  0  0  0
   44.3118    2.8339    9.7824 C   0  0  0  0  0  0  0  0  0  0  0  0
   45.9503    2.1381    8.1578 C   0  0  0  0  0  0  0  0  0  0  0  0
   43.6758    5.0941    9.7823 O   0  0  0  0  0  0  0  0  0  0  0  0
   46.8621    3.7801    6.6106 C   0  0  0  0  0  0  0  0  0  0  0  0
   46.7476    1.1525    7.5725 C   0  0  0  0  0  0  0  0  0  0  0  0
   47.6549    2.7910    6.0313 C   0  0  0  0  0  0  0  0  0  0  0  0
   47.5979    1.4801    6.5111 C   0  0  0  0  0  0  0  0  0  0  0  0
   44.9925    0.8378    9.6487 H   0  0  0  0  0  0  0  0  0  0  0  0
   43.6293    2.6618   10.6057 H   0  0  0  0  0  0  0  0  0  0  0  0
   46.8999    4.8017    6.2442 H   0  0  0  0  0  0  0  0  0  0  0  0
   46.7178    0.1267    7.9312 H   0  0  0  0  0  0  0  0  0  0  0  0
   48.3176    3.0399    5.2061 H   0  0  0  0  0  0  0  0  0  0  0  0
   48.2179    0.7107    6.0567 H   0  0  0  0  0  0  0  0  0  0  0  0
  2  1  1  0
  3  6  1  0
  4  1  1  0
  5  2  1  0
  6  4  2  0
  7  2  2  0
  8  4  1  0
  9  6  1  0
 10  8  2  0
 11 10  1  0
  5  3  2  0
  9 11  2  0
  3 12  1  0
  5 13  1  0
  8 14  1  0
  9 15  1  0
 10 16  1  0
 11 17  1  0
M  END
> <Uni-Dock RESULT> 
ENERGY=   -6.052  LOWER_BOUND=    1.327  UPPER_BOUND=    2.189
INTER + INTRA:          -6.052
INTER:                  -6.052
INTRA:                   0.000
UNBOUND:                 0.000

$$$$

     RDKit          3D

 17 18  0  0  0  0  0  0  0  0999 V2000
   44.2041    5.2166   10.1336 O   0  0  0  0  0  0  0  0  0  0  0  0
   43.4276    4.9282   11.2473 C   0  0  0  0  0  0  0  0  0  0  0  0
   43.8505    2.5237   10.9090 C   0  0  0  0  0  0  0  0  0  0  0  0
   44.8153    4.1894    9.3884 C   0  0  0  0  0  0  0  0  0  0  0  0
   43.2758    3.5073   11.6078 C   0  0  0  0  0  0  0  0  0  0  0  0
   44.6591    2.8517    9.7464 C   0  0  0  0  0  0  0  0  0  0  0  0
   42.8847    5.8022   11.9134 O   0  0  0  0  0  0  0  0  0  0  0  0
   45.5775    4.5672    8.2853 C   0  0  0  0  0  0  0  0  0  0  0  0
   45.2848    1.8692    8.9764 C   0  0  0  0  0  0  0  0  0  0  0  0
   46.1990    3.5811    7.5214 C   0  0  0  0  0  0  0  0  0  0  0  0
   46.0531    2.2351    7.8661 C   0  0  0  0  0  0  0  0  0  0  0  0
   43.7255    1.4847   11.1924 H   0  0  0  0  0  0  0  0  0  0  0  0
   42.6658    3.3068   12.4801 H   0  0  0  0  0  0  0  0  0  0  0  0
   45.6854    5.6160    8.0250 H   0  0  0  0  0  0  0  0  0  0  0  0
   45.1835    0.8164    9.2279 H   0  0  0  0  0  0  0  0  0  0  0  0
   46.7974    3.8597    6.6574 H   0  0  0  0  0  0  0  0  0  0  0  0
   46.5395    1.4680    7.2677 H   0  0  0  0  0  0  0  0  0  0  0  0
  2  1  1  0
  3  6  1  0
  4  1  1  0
  5  2  1  0
  6  4  2  0
  7  2  2  0
  8  4  1  0
  9  6  1  0
 10  8  2  0
 11 10  1  0
  5  3  2  0
  9 11  2  0
  3 12  1  0
  5 13  1  0
  8 14  1  0
  9 15  1  0
 10 16  1  0
 11 17  1  0
M  END
> <Uni-Dock RESULT> 
ENERGY=   -4.798  LOWER_BOUND=    1.780  UPPER_BOUND=    3.021
INTER + INTRA:          -4.798
INTER:                  -4.798
INTRA:                   0.000
UNBOUND:                 0.000

$$$$

     RDKit          3D

 17 18  0  0  0  0  0  0  0  0999 V2000
   45.5366    4.8454    8.6609 O   0  0  0  0  0  0  0  0  0  0  0  0
   46.0045    3.8728    7.7884 C   0  0  0  0  0  0  0  0  0  0  0  0
   44.9533    2.1309    9.1798 C   0  0  0  0  0  0  0  0  0  0  0  0
   44.7783    4.4989    9.7962 C   0  0  0  0  0  0  0  0  0  0  0  0
   45.6718    2.4727    8.1059 C   0  0  0  0  0  0  0  0  0  0  0  0
   44.4746    3.1684   10.0784 C   0  0  0  0  0  0  0  0  0  0  0  0
   46.6662    4.1466    6.7936 O   0  0  0  0  0  0  0  0  0  0  0  0
   44.3485    5.5377   10.6188 C   0  0  0  0  0  0  0  0  0  0  0  0
   43.7198    2.8748   11.2159 C   0  0  0  0  0  0  0  0  0  0  0  0
   43.5956    5.2370   11.7524 C   0  0  0  0  0  0  0  0  0  0  0  0
   43.2818    3.9086   12.0504 C   0  0  0  0  0  0  0  0  0  0  0  0
   44.7201    1.0941    9.3941 H   0  0  0  0  0  0  0  0  0  0  0  0
   46.0475    1.7316    7.4110 H   0  0  0  0  0  0  0  0  0  0  0  0
   44.5971    6.5674   10.3793 H   0  0  0  0  0  0  0  0  0  0  0  0
   43.4653    1.8477   11.4652 H   0  0  0  0  0  0  0  0  0  0  0  0
   43.2525    6.0364   12.4045 H   0  0  0  0  0  0  0  0  0  0  0  0
   42.6941    3.6775   12.9359 H   0  0  0  0  0  0  0  0  0  0  0  0
  2  1  1  0
  3  6  1  0
  4  1  1  0
  5  2  1  0
  6  4  2  0
  7  2  2  0
  8  4  1  0
  9  6  1  0
 10  8  2  0
 11 10  1  0
  5  3  2  0
  9 11  2  0
  3 12  1  0
  5 13  1  0
  8 14  1  0
  9 15  1  0
 10 16  1  0
 11 17  1  0
M  END
> <Uni-Dock RESULT> 
ENERGY=   -4.680  LOWER_BOUND=    2.052  UPPER_BOUND=    4.803
INTER + INTRA:          -4.680
INTER:                  -4.680
INTRA:                   0.000
UNBOUND:                 0.000

$$$$

     RDKit          3D

 17 18  0  0  0  0  0  0  0  0999 V2000
   44.9781    3.6506   12.7345 O   0  0  0  0  0  0  0  0  0  0  0  0
   43.7350    3.3978   12.1713 C   0  0  0  0  0  0  0  0  0  0  0  0
   43.4352    5.8112   11.7703 C   0  0  0  0  0  0  0  0  0  0  0  0
   45.4783    4.9638   12.8312 C   0  0  0  0  0  0  0  0  0  0  0  0
   42.9717    4.5606   11.6843 C   0  0  0  0  0  0  0  0  0  0  0  0
   44.7402    6.0499   12.3644 C   0  0  0  0  0  0  0  0  0  0  0  0
   43.2760    2.2654   12.0748 O   0  0  0  0  0  0  0  0  0  0  0  0
   46.7346    5.1278   13.4102 C   0  0  0  0  0  0  0  0  0  0  0  0
   45.2786    7.3328   12.4824 C   0  0  0  0  0  0  0  0  0  0  0  0
   47.2655    6.4113   13.5247 C   0  0  0  0  0  0  0  0  0  0  0  0
   46.5393    7.5114   13.0618 C   0  0  0  0  0  0  0  0  0  0  0  0
   42.8565    6.6521   11.4053 H   0  0  0  0  0  0  0  0  0  0  0  0
   42.0050    4.3387   11.2490 H   0  0  0  0  0  0  0  0  0  0  0  0
   47.2920    4.2668   13.7672 H   0  0  0  0  0  0  0  0  0  0  0  0
   44.7294    8.2017   12.1285 H   0  0  0  0  0  0  0  0  0  0  0  0
   48.2449    6.5561   13.9742 H   0  0  0  0  0  0  0  0  0  0  0  0
   46.9565    8.5117   13.1528 H   0  0  0  0  0  0  0  0  0  0  0  0
  2  1  1  0
  3  6  1  0
  4  1  1  0
  5  2  1  0
  6  4  2  0
  7  2  2  0
  8  4  1  0
  9  6  1  0
 10  8  2  0
 11 10  1  0
  5  3  2  0
  9 11  2  0
  3 12  1  0
  5 13  1  0
  8 14  1  0
  9 15  1  0
 10 16  1  0
 11 17  1  0
M  END
> <Uni-Dock RESULT> 
ENERGY=   -3.568  LOWER_BOUND=    4.849  UPPER_BOUND=    5.612
INTER + INTRA:          -3.568
INTER:                  -3.568
INTRA:                   0.000
UNBOUND:                 0.000

$$$$

     RDKit          3D

 17 18  0  0  0  0  0  0  0  0999 V2000
   43.8889    6.6012   12.2099 O   0  0  0  0  0  0  0  0  0  0  0  0
   43.0366    5.5091   12.1246 C   0  0  0  0  0  0  0  0  0  0  0  0
   44.8176    4.0599   13.0207 C   0  0  0  0  0  0  0  0  0  0  0  0
   45.2044    6.4601   12.6931 C   0  0  0  0  0  0  0  0  0  0  0  0
   43.5715    4.2069   12.5604 C   0  0  0  0  0  0  0  0  0  0  0  0
   45.6908    5.2192   13.1004 C   0  0  0  0  0  0  0  0  0  0  0  0
   41.8877    5.6038   11.7080 O   0  0  0  0  0  0  0  0  0  0  0  0
   45.9923    7.6077   12.7454 C   0  0  0  0  0  0  0  0  0  0  0  0
   47.0019    5.1298   13.5722 C   0  0  0  0  0  0  0  0  0  0  0  0
   47.3000    7.5107   13.2174 C   0  0  0  0  0  0  0  0  0  0  0  0
   47.8039    6.2747   13.6299 C   0  0  0  0  0  0  0  0  0  0  0  0
   45.1904    3.0920   13.3362 H   0  0  0  0  0  0  0  0  0  0  0  0
   42.8884    3.3697   12.4848 H   0  0  0  0  0  0  0  0  0  0  0  0
   45.5922    8.5643   12.4227 H   0  0  0  0  0  0  0  0  0  0  0  0
   47.4127    4.1774   13.8977 H   0  0  0  0  0  0  0  0  0  0  0  0
   47.9277    8.3972   13.2645 H   0  0  0  0  0  0  0  0  0  0  0  0
   48.8249    6.2025   13.9977 H   0  0  0  0  0  0  0  0  0  0  0  0
  2  1  1  0
  3  6  1  0
  4  1  1  0
  5  2  1  0
  6  4  2  0
  7  2  2  0
  8  4  1  0
  9  6  1  0
 10  8  2  0
 11 10  1  0
  5  3  2  0
  9 11  2  0
  3 12  1  0
  5 13  1  0
  8 14  1  0
  9 15  1  0
 10 16  1  0
 11 17  1  0
M  END
> <Uni-Dock RESULT> 
ENERGY=   -3.557  LOWER_BOUND=    5.516  UPPER_BOUND=    6.248
INTER + INTRA:          -3.557
INTER:                  -3.557
INTRA:                   0.000
UNBOUND:                 0.000

$$$$

     RDKit          3D

 17 18  0  0  0  0  0  0  0  0999 V2000
   45.4660    4.1242   13.7844 O   0  0  0  0  0  0  0  0  0  0  0  0
   46.7929    4.3882   14.0941 C   0  0  0  0  0  0  0  0  0  0  0  0
   46.6928    6.4417   12.7347 C   0  0  0  0  0  0  0  0  0  0  0  0
   44.7264    4.9922   12.9576 C   0  0  0  0  0  0  0  0  0  0  0  0
   47.3839    5.6102   13.5203 C   0  0  0  0  0  0  0  0  0  0  0  0
   45.3044    6.1430   12.4250 C   0  0  0  0  0  0  0  0  0  0  0  0
   47.4593    3.6501   14.8107 O   0  0  0  0  0  0  0  0  0  0  0  0
   43.4009    4.6517   12.6975 C   0  0  0  0  0  0  0  0  0  0  0  0
   44.5305    6.9724   11.6108 C   0  0  0  0  0  0  0  0  0  0  0  0
   42.6347    5.4843   11.8840 C   0  0  0  0  0  0  0  0  0  0  0  0
   43.1980    6.6421   11.3418 C   0  0  0  0  0  0  0  0  0  0  0  0
   47.1478    7.3357   12.3233 H   0  0  0  0  0  0  0  0  0  0  0  0
   48.4201    5.7953   13.7759 H   0  0  0  0  0  0  0  0  0  0  0  0
   42.9713    3.7498   13.1234 H   0  0  0  0  0  0  0  0  0  0  0  0
   44.9503    7.8776   11.1793 H   0  0  0  0  0  0  0  0  0  0  0  0
   41.5985    5.2326   11.6715 H   0  0  0  0  0  0  0  0  0  0  0  0
   42.5972    7.2896   10.7072 H   0  0  0  0  0  0  0  0  0  0  0  0
  2  1  1  0
  3  6  1  0
  4  1  1  0
  5  2  1  0
  6  4  2  0
  7  2  2  0
  8  4  1  0
  9  6  1  0
 10  8  2  0
 11 10  1  0
  5  3  2  0
  9 11  2  0
  3 12  1  0
  5 13  1  0
  8 14  1  0
  9 15  1  0
 10 16  1  0
 11 17  1  0
M  END
> <Uni-Dock RESULT> 
ENERGY=   -3.544  LOWER_BOUND=    5.585  UPPER_BOUND=    6.111
INTER + INTRA:          -3.544
INTER:                  -3.544
INTRA:                   0.000
UNBOUND:                 0.000

$$$$

     RDKit          3D

 17 18  0  0  0  0  0  0  0  0999 V2000
   48.8702    5.0066   18.6302 O   0  0  0  0  0  0  0  0  0  0  0  0
   47.5516    4.8610   18.2222 C   0  0  0  0  0  0  0  0  0  0  0  0
   48.1502    2.7702   17.0624 C   0  0  0  0  0  0  0  0  0  0  0  0
   49.8495    4.0587   18.2747 C   0  0  0  0  0  0  0  0  0  0  0  0
   47.2302    3.6766   17.4062 C   0  0  0  0  0  0  0  0  0  0  0  0
   49.5245    2.9452   17.5022 C   0  0  0  0  0  0  0  0  0  0  0  0
   46.6798    5.6705   18.5172 O   0  0  0  0  0  0  0  0  0  0  0  0
   51.1482    4.2818   18.7264 C   0  0  0  0  0  0  0  0  0  0  0  0
   50.5302    2.0333   17.1756 C   0  0  0  0  0  0  0  0  0  0  0  0
   52.1468    3.3674   18.3964 C   0  0  0  0  0  0  0  0  0  0  0  0
   51.8387    2.2456   17.6228 C   0  0  0  0  0  0  0  0  0  0  0  0
   47.8914    1.9059   16.4612 H   0  0  0  0  0  0  0  0  0  0  0  0
   46.1954    3.5843   17.0997 H   0  0  0  0  0  0  0  0  0  0  0  0
   51.3785    5.1566   19.3273 H   0  0  0  0  0  0  0  0  0  0  0  0
   50.3109    1.1543   16.5747 H   0  0  0  0  0  0  0  0  0  0  0  0
   53.1654    3.5272   18.7412 H   0  0  0  0  0  0  0  0  0  0  0  0
   52.6204    1.5339   17.3671 H   0  0  0  0  0  0  0  0  0  0  0  0
  2  1  1  0
  3  6  1  0
  4  1  1  0
  5  2  1  0
  6  4  2  0
  7  2  2  0
  8  4  1  0
  9  6  1  0
 10  8  2  0
 11 10  1  0
  5  3  2  0
  9 11  2  0
  3 12  1  0
  5 13  1  0
  8 14  1  0
  9 15  1  0
 10 16  1  0
 11 17  1  0
M  END
> <Uni-Dock RESULT> 
ENERGY=   -3.449  LOWER_BOUND=    9.610  UPPER_BOUND=   10.609
INTER + INTRA:          -3.449
INTER:                  -3.449
INTRA:                   0.000
UNBOUND:                 0.000

$$$$
