
     RDKit          3D

 17 18  0  0  0  0  0  0  0  0999 V2000
   45.2357    4.4686    8.2236 O   0  0  0  0  0  0  0  0  0  0  0  0
   44.3699    4.2168    9.2787 C   0  0  0  0  0  0  0  0  0  0  0  0
   45.0518    1.8484    9.2620 C   0  0  0  0  0  0  0  0  0  0  0  0
   46.0201    3.4400    7.6662 C   0  0  0  0  0  0  0  0  0  0  0  0
   44.3128    2.8329    9.7822 C   0  0  0  0  0  0  0  0  0  0  0  0
   45.9510    2.1375    8.1572 C   0  0  0  0  0  0  0  0  0  0  0  0
   43.6762    5.0929    9.7824 O   0  0  0  0  0  0  0  0  0  0  0  0
   46.8620    3.7797    6.6098 C   0  0  0  0  0  0  0  0  0  0  0  0
   46.7483    1.1521    7.5715 C   0  0  0  0  0  0  0  0  0  0  0  0
   47.6550    2.7909    6.0303 C   0  0  0  0  0  0  0  0  0  0  0  0
   47.5983    1.4800    6.5100 C   0  0  0  0  0  0  0  0  0  0  0  0
   44.9938    0.8369    9.6482 H   0  0  0  0  0  0  0  0  0  0  0  0
   43.6304    2.6607   10.6056 H   0  0  0  0  0  0  0  0  0  0  0  0
   46.8996    4.8015    6.2435 H   0  0  0  0  0  0  0  0  0  0  0  0
   46.7188    0.1262    7.9302 H   0  0  0  0  0  0  0  0  0  0  0  0
   48.3174    3.0401    5.2049 H   0  0  0  0  0  0  0  0  0  0  0  0
   48.2185    0.7107    6.0554 H   0  0  0  0  0  0  0  0  0  0  0  0
  2  1  1  0
  3  6  1  0
  4  1  1  0
  5  2  1  0
  6  4  2  0
  7  2  2  0
  8  4  1  0
  9  6  1  0
 10  8  2  0
 11 10  1  0
  5  3  2  0
  9 11  2  0
  3 12  1  0
  5 13  1  0
  8 14  1  0
  9 15  1  0
 10 16  1  0
 11 17  1  0
M  END
> <Uni-Dock RESULT> 
ENERGY=   -6.055  LOWER_BOUND=    0.000  UPPER_BOUND=    0.000
INTER + INTRA:          -6.055
INTER:                  -6.055
INTRA:                   0.000
UNBOUND:                 0.000

$$$$

     RDKit          3D

 17 18  0  0  0  0  0  0  0  0999 V2000
   46.9339    3.5874    6.7530 O   0  0  0  0  0  0  0  0  0  0  0  0
   47.5777    2.5056    6.1686 C   0  0  0  0  0  0  0  0  0  0  0  0
   46.4671    0.9925    7.7660 C   0  0  0  0  0  0  0  0  0  0  0  0
   46.0551    3.4097    7.8394 C   0  0  0  0  0  0  0  0  0  0  0  0
   47.2987    1.1743    6.7357 C   0  0  0  0  0  0  0  0  0  0  0  0
   45.8050    2.1415    8.3609 C   0  0  0  0  0  0  0  0  0  0  0  0
   48.3469    2.6320    5.2227 O   0  0  0  0  0  0  0  0  0  0  0  0
   45.4514    4.5491    8.3659 C   0  0  0  0  0  0  0  0  0  0  0  0
   44.9259    2.0163    9.4385 C   0  0  0  0  0  0  0  0  0  0  0  0
   44.5751    4.4163    9.4413 C   0  0  0  0  0  0  0  0  0  0  0  0
   44.3128    3.1527    9.9766 C   0  0  0  0  0  0  0  0  0  0  0  0
   46.2763    0.0036    8.1675 H   0  0  0  0  0  0  0  0  0  0  0  0
   47.8122    0.3458    6.2634 H   0  0  0  0  0  0  0  0  0  0  0  0
   45.6612    5.5274    7.9433 H   0  0  0  0  0  0  0  0  0  0  0  0
   44.7086    1.0420    9.8693 H   0  0  0  0  0  0  0  0  0  0  0  0
   44.0958    5.2961    9.8636 H   0  0  0  0  0  0  0  0  0  0  0  0
   43.6284    3.0526   10.8160 H   0  0  0  0  0  0  0  0  0  0  0  0
  2  1  1  0
  3  6  1  0
  4  1  1  0
  5  2  1  0
  6  4  2  0
  7  2  2  0
  8  4  1  0
  9  6  1  0
 10  8  2  0
 11 10  1  0
  5  3  2  0
  9 11  2  0
  3 12  1  0
  5 13  1  0
  8 14  1  0
  9 15  1  0
 10 16  1  0
 11 17  1  0
M  END
> <Uni-Dock RESULT> 
ENERGY=   -5.506  LOWER_BOUND=    1.681  UPPER_BOUND=    3.885
INTER + INTRA:          -5.506
INTER:                  -5.506
INTRA:                   0.000
UNBOUND:                 0.000

$$$$

     RDKit          3D

 17 18  0  0  0  0  0  0  0  0999 V2000
   45.7568    0.8807    8.4637 O   0  0  0  0  0  0  0  0  0  0  0  0
   46.6530    0.4602    7.4910 C   0  0  0  0  0  0  0  0  0  0  0  0
   47.1148    2.8109    6.9119 C   0  0  0  0  0  0  0  0  0  0  0  0
   45.5163    2.2506    8.6865 C   0  0  0  0  0  0  0  0  0  0  0  0
   47.3341    1.5081    6.7102 C   0  0  0  0  0  0  0  0  0  0  0  0
   46.1713    3.2261    7.9367 C   0  0  0  0  0  0  0  0  0  0  0  0
   46.8808   -0.7250    7.2765 O   0  0  0  0  0  0  0  0  0  0  0  0
   44.6015    2.5851    9.6821 C   0  0  0  0  0  0  0  0  0  0  0  0
   45.8995    4.5712    8.1946 C   0  0  0  0  0  0  0  0  0  0  0  0
   44.3355    3.9298    9.9340 C   0  0  0  0  0  0  0  0  0  0  0  0
   44.9830    4.9207    9.1919 C   0  0  0  0  0  0  0  0  0  0  0  0
   47.6272    3.5653    6.3256 H   0  0  0  0  0  0  0  0  0  0  0  0
   48.0286    1.1560    5.9573 H   0  0  0  0  0  0  0  0  0  0  0  0
   44.1029    1.8080   10.2540 H   0  0  0  0  0  0  0  0  0  0  0  0
   46.3928    5.3573    7.6283 H   0  0  0  0  0  0  0  0  0  0  0  0
   43.6239    4.2072   10.7078 H   0  0  0  0  0  0  0  0  0  0  0  0
   44.7729    5.9692    9.3910 H   0  0  0  0  0  0  0  0  0  0  0  0
  2  1  1  0
  3  6  1  0
  4  1  1  0
  5  2  1  0
  6  4  2  0
  7  2  2  0
  8  4  1  0
  9  6  1  0
 10  8  2  0
 11 10  1  0
  5  3  2  0
  9 11  2  0
  3 12  1  0
  5 13  1  0
  8 14  1  0
  9 15  1  0
 10 16  1  0
 11 17  1  0
M  END
> <Uni-Dock RESULT> 
ENERGY=   -5.496  LOWER_BOUND=    2.115  UPPER_BOUND=    4.299
INTER + INTRA:          -5.496
INTER:                  -5.496
INTRA:                   0.000
UNBOUND:                 0.000

$$$$

     RDKit          3D

 17 18  0  0  0  0  0  0  0  0999 V2000
   44.1279    5.3425   10.4671 O   0  0  0  0  0  0  0  0  0  0  0  0
   43.3953    5.0266   11.6028 C   0  0  0  0  0  0  0  0  0  0  0  0
   43.7697    2.6298   11.1674 C   0  0  0  0  0  0  0  0  0  0  0  0
   44.6924    4.3334    9.6628 C   0  0  0  0  0  0  0  0  0  0  0  0
   43.2391    3.5965   11.9224 C   0  0  0  0  0  0  0  0  0  0  0  0
   44.5327    2.9863    9.9828 C   0  0  0  0  0  0  0  0  0  0  0  0
   42.8934    5.8846   12.3201 O   0  0  0  0  0  0  0  0  0  0  0  0
   45.4123    4.7383    8.5412 C   0  0  0  0  0  0  0  0  0  0  0  0
   45.1113    2.0226    9.1545 C   0  0  0  0  0  0  0  0  0  0  0  0
   45.9870    3.7708    7.7192 C   0  0  0  0  0  0  0  0  0  0  0  0
   45.8369    2.4158    8.0250 C   0  0  0  0  0  0  0  0  0  0  0  0
   43.6422    1.5835   11.4214 H   0  0  0  0  0  0  0  0  0  0  0  0
   42.6638    3.3745   12.8129 H   0  0  0  0  0  0  0  0  0  0  0  0
   45.5238    5.7939    8.3112 H   0  0  0  0  0  0  0  0  0  0  0  0
   45.0061    0.9632    9.3751 H   0  0  0  0  0  0  0  0  0  0  0  0
   46.5520    4.0707    6.8400 H   0  0  0  0  0  0  0  0  0  0  0  0
   46.2867    1.6633    7.3813 H   0  0  0  0  0  0  0  0  0  0  0  0
  2  1  1  0
  3  6  1  0
  4  1  1  0
  5  2  1  0
  6  4  2  0
  7  2  2  0
  8  4  1  0
  9  6  1  0
 10  8  2  0
 11 10  1  0
  5  3  2  0
  9 11  2  0
  3 12  1  0
  5 13  1  0
  8 14  1  0
  9 15  1  0
 10 16  1  0
 11 17  1  0
M  END
> <Uni-Dock RESULT> 
ENERGY=   -4.732  LOWER_BOUND=    1.553  UPPER_BOUND=    2.560
INTER + INTRA:          -4.732
INTER:                  -4.732
INTRA:                   0.000
UNBOUND:                 0.000

$$$$

     RDKit          3D

 17 18  0  0  0  0  0  0  0  0999 V2000
   44.9857    3.6613   12.7373 O   0  0  0  0  0  0  0  0  0  0  0  0
   43.7434    3.4064   12.1737 C   0  0  0  0  0  0  0  0  0  0  0  0
   43.4405    5.8189   11.7707 C   0  0  0  0  0  0  0  0  0  0  0  0
   45.4841    4.9752   12.8335 C   0  0  0  0  0  0  0  0  0  0  0  0
   42.9788    4.5677   11.6853 C   0  0  0  0  0  0  0  0  0  0  0  0
   44.7447    6.0600   12.3654 C   0  0  0  0  0  0  0  0  0  0  0  0
   43.2860    2.2732   12.0775 O   0  0  0  0  0  0  0  0  0  0  0  0
   46.7398    5.1414   13.4130 C   0  0  0  0  0  0  0  0  0  0  0  0
   45.2813    7.3437   12.4829 C   0  0  0  0  0  0  0  0  0  0  0  0
   47.2689    6.4257   13.5269 C   0  0  0  0  0  0  0  0  0  0  0  0
   46.5414    7.5245   13.0629 C   0  0  0  0  0  0  0  0  0  0  0  0
   42.8608    6.6589   11.4048 H   0  0  0  0  0  0  0  0  0  0  0  0
   42.0126    4.3442   11.2496 H   0  0  0  0  0  0  0  0  0  0  0  0
   47.2982    4.2814   13.7710 H   0  0  0  0  0  0  0  0  0  0  0  0
   44.7311    8.2116   12.1281 H   0  0  0  0  0  0  0  0  0  0  0  0
   48.2477    6.5721   13.9769 H   0  0  0  0  0  0  0  0  0  0  0  0
   46.9573    8.5254   13.1534 H   0  0  0  0  0  0  0  0  0  0  0  0
  2  1  1  0
  3  6  1  0
  4  1  1  0
  5  2  1  0
  6  4  2  0
  7  2  2  0
  8  4  1  0
  9  6  1  0
 10  8  2  0
 11 10  1  0
  5  3  2  0
  9 11  2  0
  3 12  1  0
  5 13  1  0
  8 14  1  0
  9 15  1  0
 10 16  1  0
 11 17  1  0
M  END
> <Uni-Dock RESULT> 
ENERGY=   -3.568  LOWER_BOUND=    5.123  UPPER_BOUND=    6.059
INTER + INTRA:          -3.568
INTER:                  -3.568
INTRA:                   0.000
UNBOUND:                 0.000

$$$$

     RDKit          3D

 17 18  0  0  0  0  0  0  0  0999 V2000
   43.8920    6.6045   12.2084 O   0  0  0  0  0  0  0  0  0  0  0  0
   43.0387    5.5131   12.1252 C   0  0  0  0  0  0  0  0  0  0  0  0
   44.8184    4.0638   13.0235 C   0  0  0  0  0  0  0  0  0  0  0  0
   45.2076    6.4630   12.6914 C   0  0  0  0  0  0  0  0  0  0  0  0
   43.5724    4.2112   12.5633 C   0  0  0  0  0  0  0  0  0  0  0  0
   45.6929    5.2223   13.1008 C   0  0  0  0  0  0  0  0  0  0  0  0
   41.8897    5.6082   11.7089 O   0  0  0  0  0  0  0  0  0  0  0  0
   45.9966    7.6098   12.7414 C   0  0  0  0  0  0  0  0  0  0  0  0
   47.0041    5.1326   13.5723 C   0  0  0  0  0  0  0  0  0  0  0  0
   47.3044    7.5125   13.2132 C   0  0  0  0  0  0  0  0  0  0  0  0
   47.8071    6.2767   13.6278 C   0  0  0  0  0  0  0  0  0  0  0  0
   45.1905    3.0962   13.3406 H   0  0  0  0  0  0  0  0  0  0  0  0
   42.8885    3.3745   12.4893 H   0  0  0  0  0  0  0  0  0  0  0  0
   45.5974    8.5663   12.4171 H   0  0  0  0  0  0  0  0  0  0  0  0
   47.4141    4.1803   13.8995 H   0  0  0  0  0  0  0  0  0  0  0  0
   47.9330    8.3985   13.2585 H   0  0  0  0  0  0  0  0  0  0  0  0
   48.8282    6.2043   13.9954 H   0  0  0  0  0  0  0  0  0  0  0  0
  2  1  1  0
  3  6  1  0
  4  1  1  0
  5  2  1  0
  6  4  2  0
  7  2  2  0
  8  4  1  0
  9  6  1  0
 10  8  2  0
 11 10  1  0
  5  3  2  0
  9 11  2  0
  3 12  1  0
  5 13  1  0
  8 14  1  0
  9 15  1  0
 10 16  1  0
 11 17  1  0
M  END
> <Uni-Dock RESULT> 
ENERGY=   -3.559  LOWER_BOUND=    5.491  UPPER_BOUND=    5.970
INTER + INTRA:          -3.559
INTER:                  -3.559
INTRA:                   0.000
UNBOUND:                 0.000

$$$$

     RDKit          3D

 17 18  0  0  0  0  0  0  0  0999 V2000
   43.8900    6.6018   12.2098 O   0  0  0  0  0  0  0  0  0  0  0  0
   43.0378    5.5096   12.1251 C   0  0  0  0  0  0  0  0  0  0  0  0
   44.8187    4.0610   13.0220 C   0  0  0  0  0  0  0  0  0  0  0  0
   45.2056    6.4610   12.6929 C   0  0  0  0  0  0  0  0  0  0  0  0
   43.5726    4.2077   12.5618 C   0  0  0  0  0  0  0  0  0  0  0  0
   45.6920    5.2202   13.1009 C   0  0  0  0  0  0  0  0  0  0  0  0
   41.8888    5.6041   11.7087 O   0  0  0  0  0  0  0  0  0  0  0  0
   45.9935    7.6084   12.7445 C   0  0  0  0  0  0  0  0  0  0  0  0
   47.0033    5.1311   13.5726 C   0  0  0  0  0  0  0  0  0  0  0  0
   47.3012    7.5118   13.2165 C   0  0  0  0  0  0  0  0  0  0  0  0
   47.8051    6.2760   13.6296 C   0  0  0  0  0  0  0  0  0  0  0  0
   45.1916    3.0933   13.3380 H   0  0  0  0  0  0  0  0  0  0  0  0
   42.8895    3.3705   12.4866 H   0  0  0  0  0  0  0  0  0  0  0  0
   45.5934    8.5650   12.4213 H   0  0  0  0  0  0  0  0  0  0  0  0
   47.4141    4.1789   13.8987 H   0  0  0  0  0  0  0  0  0  0  0  0
   47.9290    8.3983   13.2629 H   0  0  0  0  0  0  0  0  0  0  0  0
   48.8262    6.2041   13.9974 H   0  0  0  0  0  0  0  0  0  0  0  0
  2  1  1  0
  3  6  1  0
  4  1  1  0
  5  2  1  0
  6  4  2  0
  7  2  2  0
  8  4  1  0
  9  6  1  0
 10  8  2  0
 11 10  1  0
  5  3  2  0
  9 11  2  0
  3 12  1  0
  5 13  1  0
  8 14  1  0
  9 15  1  0
 10 16  1  0
 11 17  1  0
M  END
> <Uni-Dock RESULT> 
ENERGY=   -3.555  LOWER_BOUND=    5.489  UPPER_BOUND=    5.970
INTER + INTRA:          -3.555
INTER:                  -3.555
INTRA:                   0.000
UNBOUND:                 0.000

$$$$

     RDKit          3D

 17 18  0  0  0  0  0  0  0  0999 V2000
   45.4689    4.1237   13.7863 O   0  0  0  0  0  0  0  0  0  0  0  0
   46.7955    4.3893   14.0959 C   0  0  0  0  0  0  0  0  0  0  0  0
   46.6927    6.4430   12.7372 C   0  0  0  0  0  0  0  0  0  0  0  0
   44.7281    4.9909   12.9598 C   0  0  0  0  0  0  0  0  0  0  0  0
   47.3849    5.6123   13.5226 C   0  0  0  0  0  0  0  0  0  0  0  0
   45.3047    6.1428   12.4274 C   0  0  0  0  0  0  0  0  0  0  0  0
   47.4629    3.6519   14.8124 O   0  0  0  0  0  0  0  0  0  0  0  0
   43.4031    4.6489   12.6997 C   0  0  0  0  0  0  0  0  0  0  0  0
   44.5296    6.9712   11.6135 C   0  0  0  0  0  0  0  0  0  0  0  0
   42.6357    5.4807   11.8865 C   0  0  0  0  0  0  0  0  0  0  0  0
   43.1976    6.6393   11.3445 C   0  0  0  0  0  0  0  0  0  0  0  0
   47.1465    7.3377   12.3259 H   0  0  0  0  0  0  0  0  0  0  0  0
   48.4208    5.7986   13.7781 H   0  0  0  0  0  0  0  0  0  0  0  0
   42.9747    3.7462   13.1254 H   0  0  0  0  0  0  0  0  0  0  0  0
   44.9481    7.8772   11.1821 H   0  0  0  0  0  0  0  0  0  0  0  0
   41.5999    5.2276   11.6740 H   0  0  0  0  0  0  0  0  0  0  0  0
   42.5958    7.2863   10.7101 H   0  0  0  0  0  0  0  0  0  0  0  0
  2  1  1  0
  3  6  1  0
  4  1  1  0
  5  2  1  0
  6  4  2  0
  7  2  2  0
  8  4  1  0
  9  6  1  0
 10  8  2  0
 11 10  1  0
  5  3  2  0
  9 11  2  0
  3 12  1  0
  5 13  1  0
  8 14  1  0
  9 15  1  0
 10 16  1  0
 11 17  1  0
M  END
> <Uni-Dock RESULT> 
ENERGY=   -3.544  LOWER_BOUND=    5.791  UPPER_BOUND=    6.584
INTER + INTRA:          -3.544
INTER:                  -3.544
INTRA:                   0.000
UNBOUND:                 0.000

$$$$

     RDKit          3D

 17 18  0  0  0  0  0  0  0  0999 V2000
   48.8656    5.0047   18.6264 O   0  0  0  0  0  0  0  0  0  0  0  0
   47.5476    4.8554   18.2182 C   0  0  0  0  0  0  0  0  0  0  0  0
   48.1511    2.7636   17.0629 C   0  0  0  0  0  0  0  0  0  0  0  0
   49.8473    4.0584   18.2731 C   0  0  0  0  0  0  0  0  0  0  0  0
   47.2290    3.6686   17.4047 C   0  0  0  0  0  0  0  0  0  0  0  0
   49.5249    2.9426   17.5026 C   0  0  0  0  0  0  0  0  0  0  0  0
   46.6738    5.6635   18.5115 O   0  0  0  0  0  0  0  0  0  0  0  0
   51.1453    4.2853   18.7244 C   0  0  0  0  0  0  0  0  0  0  0  0
   50.5329    2.0324   17.1781 C   0  0  0  0  0  0  0  0  0  0  0  0
   52.1461    3.3725   18.3967 C   0  0  0  0  0  0  0  0  0  0  0  0
   51.8406    2.2484   17.6252 C   0  0  0  0  0  0  0  0  0  0  0  0
   47.8945    1.8975   16.4633 H   0  0  0  0  0  0  0  0  0  0  0  0
   46.1946    3.5734   17.0981 H   0  0  0  0  0  0  0  0  0  0  0  0
   51.3735    5.1619   19.3237 H   0  0  0  0  0  0  0  0  0  0  0  0
   50.3158    1.1516   16.5788 H   0  0  0  0  0  0  0  0  0  0  0  0
   53.1643    3.5354   18.7414 H   0  0  0  0  0  0  0  0  0  0  0  0
   52.6241    1.5380   17.3711 H   0  0  0  0  0  0  0  0  0  0  0  0
  2  1  1  0
  3  6  1  0
  4  1  1  0
  5  2  1  0
  6  4  2  0
  7  2  2  0
  8  4  1  0
  9  6  1  0
 10  8  2  0
 11 10  1  0
  5  3  2  0
  9 11  2  0
  3 12  1  0
  5 13  1  0
  8 14  1  0
  9 15  1  0
 10 16  1  0
 11 17  1  0
M  END
> <Uni-Dock RESULT> 
ENERGY=   -3.445  LOWER_BOUND=    9.890  UPPER_BOUND=   10.672
INTER + INTRA:          -3.445
INTER:                  -3.445
INTRA:                   0.000
UNBOUND:                 0.000

$$$$
