
     RDKit          3D

 17 18  0  0  0  0  0  0  0  0999 V2000
   45.1062    1.7494    9.4021 O   0  0  0  0  0  0  0  0  0  0  0  0
   44.3548    2.7196   10.0504 C   0  0  0  0  0  0  0  0  0  0  0  0
   45.2323    4.4230    8.5001 C   0  0  0  0  0  0  0  0  0  0  0  0
   45.9269    2.0783    8.3057 C   0  0  0  0  0  0  0  0  0  0  0  0
   44.4574    4.0982    9.5394 C   0  0  0  0  0  0  0  0  0  0  0  0
   46.0097    3.3886    7.8379 C   0  0  0  0  0  0  0  0  0  0  0  0
   43.6327    2.4610   11.0066 O   0  0  0  0  0  0  0  0  0  0  0  0
   46.6471    1.0434    7.7136 C   0  0  0  0  0  0  0  0  0  0  0  0
   46.8372    3.6652    6.7478 C   0  0  0  0  0  0  0  0  0  0  0  0
   47.4709    1.3271    6.6259 C   0  0  0  0  0  0  0  0  0  0  0  0
   47.5659    2.6350    6.1439 C   0  0  0  0  0  0  0  0  0  0  0  0
   45.2927    5.4441    8.1406 H   0  0  0  0  0  0  0  0  0  0  0  0
   43.8623    4.8378   10.0609 H   0  0  0  0  0  0  0  0  0  0  0  0
   46.5671    0.0297    8.0950 H   0  0  0  0  0  0  0  0  0  0  0  0
   46.9248    4.6761    6.3578 H   0  0  0  0  0  0  0  0  0  0  0  0
   48.0396    0.5303    6.1527 H   0  0  0  0  0  0  0  0  0  0  0  0
   48.2099    2.8528    5.2949 H   0  0  0  0  0  0  0  0  0  0  0  0
  2  1  1  0
  3  6  1  0
  4  1  1  0
  5  2  1  0
  6  4  2  0
  7  2  2  0
  8  4  1  0
  9  6  1  0
 10  8  2  0
 11 10  1  0
  5  3  2  0
  9 11  2  0
  3 12  1  0
  5 13  1  0
  8 14  1  0
  9 15  1  0
 10 16  1  0
 11 17  1  0
M  END
> <Uni-Dock RESULT> 
ENERGY=   -6.438  LOWER_BOUND=    0.000  UPPER_BOUND=    0.000
INTER + INTRA:          -6.438
INTER:                  -6.438
INTRA:                   0.000
UNBOUND:                 0.000

$$$$

     RDKit          3D

 17 18  0  0  0  0  0  0  0  0999 V2000
   45.2288    4.4733    8.2311 O   0  0  0  0  0  0  0  0  0  0  0  0
   44.3634    4.2220    9.2866 C   0  0  0  0  0  0  0  0  0  0  0  0
   45.0443    1.8533    9.2698 C   0  0  0  0  0  0  0  0  0  0  0  0
   46.0128    3.4445    7.6736 C   0  0  0  0  0  0  0  0  0  0  0  0
   44.3057    2.8381    9.7902 C   0  0  0  0  0  0  0  0  0  0  0  0
   45.9433    2.1420    8.1648 C   0  0  0  0  0  0  0  0  0  0  0  0
   43.6700    5.0985    9.7903 O   0  0  0  0  0  0  0  0  0  0  0  0
   46.8546    3.7838    6.6170 C   0  0  0  0  0  0  0  0  0  0  0  0
   46.7401    1.1563    7.5791 C   0  0  0  0  0  0  0  0  0  0  0  0
   47.6469    2.7947    6.0375 C   0  0  0  0  0  0  0  0  0  0  0  0
   47.5900    1.4838    6.5172 C   0  0  0  0  0  0  0  0  0  0  0  0
   44.9860    0.8419    9.6561 H   0  0  0  0  0  0  0  0  0  0  0  0
   43.6235    2.6662   10.6137 H   0  0  0  0  0  0  0  0  0  0  0  0
   46.8924    4.8054    6.2505 H   0  0  0  0  0  0  0  0  0  0  0  0
   46.7104    0.1305    7.9378 H   0  0  0  0  0  0  0  0  0  0  0  0
   48.3093    3.0434    5.2119 H   0  0  0  0  0  0  0  0  0  0  0  0
   48.2097    0.7142    6.0625 H   0  0  0  0  0  0  0  0  0  0  0  0
  2  1  1  0
  3  6  1  0
  4  1  1  0
  5  2  1  0
  6  4  2  0
  7  2  2  0
  8  4  1  0
  9  6  1  0
 10  8  2  0
 11 10  1  0
  5  3  2  0
  9 11  2  0
  3 12  1  0
  5 13  1  0
  8 14  1  0
  9 15  1  0
 10 16  1  0
 11 17  1  0
M  END
> <Uni-Dock RESULT> 
ENERGY=   -6.049  LOWER_BOUND=    1.328  UPPER_BOUND=    2.188
INTER + INTRA:          -6.049
INTER:                  -6.049
INTRA:                   0.000
UNBOUND:                 0.000

$$$$

     RDKit          3D

 17 18  0  0  0  0  0  0  0  0999 V2000
   46.9346    3.5870    6.7533 O   0  0  0  0  0  0  0  0  0  0  0  0
   47.5783    2.5052    6.1691 C   0  0  0  0  0  0  0  0  0  0  0  0
   46.4672    0.9923    7.7664 C   0  0  0  0  0  0  0  0  0  0  0  0
   46.0555    3.4095    7.8394 C   0  0  0  0  0  0  0  0  0  0  0  0
   47.2991    1.1738    6.7363 C   0  0  0  0  0  0  0  0  0  0  0  0
   45.8050    2.1415    8.3610 C   0  0  0  0  0  0  0  0  0  0  0  0
   48.3480    2.6313    5.2234 O   0  0  0  0  0  0  0  0  0  0  0  0
   45.4516    4.5491    8.3655 C   0  0  0  0  0  0  0  0  0  0  0  0
   44.9256    2.0163    9.4382 C   0  0  0  0  0  0  0  0  0  0  0  0
   44.5750    4.4164    9.4407 C   0  0  0  0  0  0  0  0  0  0  0  0
   44.3125    3.1529    9.9760 C   0  0  0  0  0  0  0  0  0  0  0  0
   46.2763    0.0034    8.1679 H   0  0  0  0  0  0  0  0  0  0  0  0
   47.8127    0.3453    6.2643 H   0  0  0  0  0  0  0  0  0  0  0  0
   45.6616    5.5273    7.9430 H   0  0  0  0  0  0  0  0  0  0  0  0
   44.7081    1.0422    9.8690 H   0  0  0  0  0  0  0  0  0  0  0  0
   44.0956    5.2963    9.8627 H   0  0  0  0  0  0  0  0  0  0  0  0
   43.6278    3.0529   10.8152 H   0  0  0  0  0  0  0  0  0  0  0  0
  2  1  1  0
  3  6  1  0
  4  1  1  0
  5  2  1  0
  6  4  2  0
  7  2  2  0
  8  4  1  0
  9  6  1  0
 10  8  2  0
 11 10  1  0
  5  3  2  0
  9 11  2  0
  3 12  1  0
  5 13  1  0
  8 14  1  0
  9 15  1  0
 10 16  1  0
 11 17  1  0
M  END
> <Uni-Dock RESULT> 
ENERGY=   -5.503  LOWER_BOUND=    2.054  UPPER_BOUND=    4.434
INTER + INTRA:          -5.503
INTER:                  -5.503
INTRA:                   0.000
UNBOUND:                 0.000

$$$$

     RDKit          3D

 17 18  0  0  0  0  0  0  0  0999 V2000
   43.8896    6.6018   12.2099 O   0  0  0  0  0  0  0  0  0  0  0  0
   43.0372    5.5099   12.1251 C   0  0  0  0  0  0  0  0  0  0  0  0
   44.8180    4.0608   13.0217 C   0  0  0  0  0  0  0  0  0  0  0  0
   45.2052    6.4608   12.6931 C   0  0  0  0  0  0  0  0  0  0  0  0
   43.5718    4.2076   12.5615 C   0  0  0  0  0  0  0  0  0  0  0  0
   45.6914    5.2199   13.1009 C   0  0  0  0  0  0  0  0  0  0  0  0
   41.8882    5.6045   11.7086 O   0  0  0  0  0  0  0  0  0  0  0  0
   45.9932    7.6082   12.7449 C   0  0  0  0  0  0  0  0  0  0  0  0
   47.0026    5.1305   13.5725 C   0  0  0  0  0  0  0  0  0  0  0  0
   47.3008    7.5112   13.2169 C   0  0  0  0  0  0  0  0  0  0  0  0
   47.8046    6.2752   13.6298 C   0  0  0  0  0  0  0  0  0  0  0  0
   45.1907    3.0929   13.3375 H   0  0  0  0  0  0  0  0  0  0  0  0
   42.8887    3.3705   12.4861 H   0  0  0  0  0  0  0  0  0  0  0  0
   45.5932    8.5648   12.4218 H   0  0  0  0  0  0  0  0  0  0  0  0
   47.4133    4.1782   13.8985 H   0  0  0  0  0  0  0  0  0  0  0  0
   47.9288    8.3976   13.2636 H   0  0  0  0  0  0  0  0  0  0  0  0
   48.8257    6.2031   13.9976 H   0  0  0  0  0  0  0  0  0  0  0  0
  2  1  1  0
  3  6  1  0
  4  1  1  0
  5  2  1  0
  6  4  2  0
  7  2  2  0
  8  4  1  0
  9  6  1  0
 10  8  2  0
 11 10  1  0
  5  3  2  0
  9 11  2  0
  3 12  1  0
  5 13  1  0
  8 14  1  0
  9 15  1  0
 10 16  1  0
 11 17  1  0
M  END
> <Uni-Dock RESULT> 
ENERGY=   -3.556  LOWER_BOUND=    5.517  UPPER_BOUND=    6.249
INTER + INTRA:          -3.556
INTER:                  -3.556
INTRA:                   0.000
UNBOUND:                 0.000

$$$$
