
     RDKit          3D

 17 18  0  0  0  0  0  0  0  0999 V2000
   45.1069    1.7490    9.4013 O   0  0  0  0  0  0  0  0  0  0  0  0
   44.3556    2.7193   10.0494 C   0  0  0  0  0  0  0  0  0  0  0  0
   45.2328    4.4224    8.4985 C   0  0  0  0  0  0  0  0  0  0  0  0
   45.9275    2.0777    8.3046 C   0  0  0  0  0  0  0  0  0  0  0  0
   44.4579    4.0977    9.5380 C   0  0  0  0  0  0  0  0  0  0  0  0
   46.0101    3.3879    7.8366 C   0  0  0  0  0  0  0  0  0  0  0  0
   43.6336    2.4608   11.0056 O   0  0  0  0  0  0  0  0  0  0  0  0
   46.6478    1.0428    7.7127 C   0  0  0  0  0  0  0  0  0  0  0  0
   46.8375    3.6643    6.7463 C   0  0  0  0  0  0  0  0  0  0  0  0
   47.4715    1.3263    6.6249 C   0  0  0  0  0  0  0  0  0  0  0  0
   47.5663    2.6340    6.1427 C   0  0  0  0  0  0  0  0  0  0  0  0
   45.2930    5.4434    8.1388 H   0  0  0  0  0  0  0  0  0  0  0  0
   43.8628    4.8373   10.0594 H   0  0  0  0  0  0  0  0  0  0  0  0
   46.5679    0.0292    8.0943 H   0  0  0  0  0  0  0  0  0  0  0  0
   46.9250    4.6752    6.3560 H   0  0  0  0  0  0  0  0  0  0  0  0
   48.0402    0.5294    6.1518 H   0  0  0  0  0  0  0  0  0  0  0  0
   48.2101    2.8518    5.2935 H   0  0  0  0  0  0  0  0  0  0  0  0
  2  1  1  0
  3  6  1  0
  4  1  1  0
  5  2  1  0
  6  4  2  0
  7  2  2  0
  8  4  1  0
  9  6  1  0
 10  8  2  0
 11 10  1  0
  5  3  2  0
  9 11  2  0
  3 12  1  0
  5 13  1  0
  8 14  1  0
  9 15  1  0
 10 16  1  0
 11 17  1  0
M  END
> <Uni-Dock RESULT> 
ENERGY=   -6.439  LOWER_BOUND=    0.000  UPPER_BOUND=    0.000
INTER + INTRA:          -6.439
INTER:                  -6.439
INTRA:                   0.000
UNBOUND:                 0.000

$$$$

     RDKit          3D

 17 18  0  0  0  0  0  0  0  0999 V2000
   45.2358    4.4689    8.2239 O   0  0  0  0  0  0  0  0  0  0  0  0
   44.3698    4.2174    9.2788 C   0  0  0  0  0  0  0  0  0  0  0  0
   45.0510    1.8486    9.2620 C   0  0  0  0  0  0  0  0  0  0  0  0
   46.0201    3.4403    7.6665 C   0  0  0  0  0  0  0  0  0  0  0  0
   44.3122    2.8334    9.7822 C   0  0  0  0  0  0  0  0  0  0  0  0
   45.9505    2.1377    8.1575 C   0  0  0  0  0  0  0  0  0  0  0  0
   43.6763    5.0936    9.7823 O   0  0  0  0  0  0  0  0  0  0  0  0
   46.8624    3.7798    6.6104 C   0  0  0  0  0  0  0  0  0  0  0  0
   46.7477    1.1521    7.5719 C   0  0  0  0  0  0  0  0  0  0  0  0
   47.6551    2.7908    6.0310 C   0  0  0  0  0  0  0  0  0  0  0  0
   47.5980    1.4799    6.5105 C   0  0  0  0  0  0  0  0  0  0  0  0
   44.9926    0.8372    9.6481 H   0  0  0  0  0  0  0  0  0  0  0  0
   43.6296    2.6613   10.6054 H   0  0  0  0  0  0  0  0  0  0  0  0
   46.9003    4.8015    6.2441 H   0  0  0  0  0  0  0  0  0  0  0  0
   46.7178    0.1263    7.9305 H   0  0  0  0  0  0  0  0  0  0  0  0
   48.3178    3.0398    5.2058 H   0  0  0  0  0  0  0  0  0  0  0  0
   48.2180    0.7104    6.0560 H   0  0  0  0  0  0  0  0  0  0  0  0
  2  1  1  0
  3  6  1  0
  4  1  1  0
  5  2  1  0
  6  4  2  0
  7  2  2  0
  8  4  1  0
  9  6  1  0
 10  8  2  0
 11 10  1  0
  5  3  2  0
  9 11  2  0
  3 12  1  0
  5 13  1  0
  8 14  1  0
  9 15  1  0
 10 16  1  0
 11 17  1  0
M  END
> <Uni-Dock RESULT> 
ENERGY=   -6.053  LOWER_BOUND=    1.327  UPPER_BOUND=    2.188
INTER + INTRA:          -6.053
INTER:                  -6.053
INTRA:                   0.000
UNBOUND:                 0.000

$$$$

     RDKit          3D

 17 18  0  0  0  0  0  0  0  0999 V2000
   45.7397    0.8604    8.5164 O   0  0  0  0  0  0  0  0  0  0  0  0
   46.6400    0.4562    7.5406 C   0  0  0  0  0  0  0  0  0  0  0  0
   47.0567    2.8151    6.9599 C   0  0  0  0  0  0  0  0  0  0  0  0
   45.4751    2.2257    8.7401 C   0  0  0  0  0  0  0  0  0  0  0  0
   47.2992    1.5164    6.7574 C   0  0  0  0  0  0  0  0  0  0  0  0
   46.1095    3.2129    7.9880 C   0  0  0  0  0  0  0  0  0  0  0  0
   46.8887   -0.7245    7.3253 O   0  0  0  0  0  0  0  0  0  0  0  0
   44.5578    2.5435    9.7390 C   0  0  0  0  0  0  0  0  0  0  0  0
   45.8142    4.5529    8.2469 C   0  0  0  0  0  0  0  0  0  0  0  0
   44.2682    3.8831    9.9917 C   0  0  0  0  0  0  0  0  0  0  0  0
   44.8948    4.8856    9.2474 C   0  0  0  0  0  0  0  0  0  0  0  0
   47.5533    3.5786    6.3717 H   0  0  0  0  0  0  0  0  0  0  0  0
   47.9973    1.1770    6.0021 H   0  0  0  0  0  0  0  0  0  0  0  0
   44.0755    1.7575   10.3126 H   0  0  0  0  0  0  0  0  0  0  0  0
   46.2910    5.3477    7.6789 H   0  0  0  0  0  0  0  0  0  0  0  0
   43.5544    4.1475   10.7681 H   0  0  0  0  0  0  0  0  0  0  0  0
   44.6664    5.9301    9.4471 H   0  0  0  0  0  0  0  0  0  0  0  0
  2  1  1  0
  3  6  1  0
  4  1  1  0
  5  2  1  0
  6  4  2  0
  7  2  2  0
  8  4  1  0
  9  6  1  0
 10  8  2  0
 11 10  1  0
  5  3  2  0
  9 11  2  0
  3 12  1  0
  5 13  1  0
  8 14  1  0
  9 15  1  0
 10 16  1  0
 11 17  1  0
M  END
> <Uni-Dock RESULT> 
ENERGY=   -5.514  LOWER_BOUND=    1.317  UPPER_BOUND=    3.679
INTER + INTRA:          -5.514
INTER:                  -5.514
INTRA:                   0.000
UNBOUND:                 0.000

$$$$

     RDKit          3D

 17 18  0  0  0  0  0  0  0  0999 V2000
   46.9354    3.5917    6.7638 O   0  0  0  0  0  0  0  0  0  0  0  0
   47.5822    2.5113    6.1803 C   0  0  0  0  0  0  0  0  0  0  0  0
   46.4679    0.9952    7.7725 C   0  0  0  0  0  0  0  0  0  0  0  0
   46.0532    3.4119    7.8471 C   0  0  0  0  0  0  0  0  0  0  0  0
   47.3027    1.1790    6.7450 C   0  0  0  0  0  0  0  0  0  0  0  0
   45.8027    2.1430    8.3663 C   0  0  0  0  0  0  0  0  0  0  0  0
   48.3544    2.6394    5.2371 O   0  0  0  0  0  0  0  0  0  0  0  0
   45.4465    4.5502    8.3728 C   0  0  0  0  0  0  0  0  0  0  0  0
   44.9201    2.0155    9.4408 C   0  0  0  0  0  0  0  0  0  0  0  0
   44.5669    4.4152    9.4452 C   0  0  0  0  0  0  0  0  0  0  0  0
   44.3042    3.1508    9.9782 C   0  0  0  0  0  0  0  0  0  0  0  0
   46.2769    0.0057    8.1722 H   0  0  0  0  0  0  0  0  0  0  0  0
   47.8186    0.3516    6.2735 H   0  0  0  0  0  0  0  0  0  0  0  0
   45.6567    5.5291    7.9521 H   0  0  0  0  0  0  0  0  0  0  0  0
   44.7025    1.0407    9.8698 H   0  0  0  0  0  0  0  0  0  0  0  0
   44.0853    5.2941    9.8668 H   0  0  0  0  0  0  0  0  0  0  0  0
   43.6171    3.0490   10.8152 H   0  0  0  0  0  0  0  0  0  0  0  0
  2  1  1  0
  3  6  1  0
  4  1  1  0
  5  2  1  0
  6  4  2  0
  7  2  2  0
  8  4  1  0
  9  6  1  0
 10  8  2  0
 11 10  1  0
  5  3  2  0
  9 11  2  0
  3 12  1  0
  5 13  1  0
  8 14  1  0
  9 15  1  0
 10 16  1  0
 11 17  1  0
M  END
> <Uni-Dock RESULT> 
ENERGY=   -5.501  LOWER_BOUND=    2.052  UPPER_BOUND=    4.433
INTER + INTRA:          -5.501
INTER:                  -5.501
INTRA:                   0.000
UNBOUND:                 0.000

$$$$

     RDKit          3D

 17 18  0  0  0  0  0  0  0  0999 V2000
   44.2931    5.3462   10.8129 O   0  0  0  0  0  0  0  0  0  0  0  0
   43.5799    4.9880   11.9483 C   0  0  0  0  0  0  0  0  0  0  0  0
   43.7417    2.6178   11.2918 C   0  0  0  0  0  0  0  0  0  0  0  0
   44.7435    4.3723    9.9004 C   0  0  0  0  0  0  0  0  0  0  0  0
   43.3199    3.5515   12.1500 C   0  0  0  0  0  0  0  0  0  0  0  0
   44.4867    3.0185   10.1099 C   0  0  0  0  0  0  0  0  0  0  0  0
   43.1765    5.8147   12.7583 O   0  0  0  0  0  0  0  0  0  0  0  0
   45.4519    4.8186    8.7872 C   0  0  0  0  0  0  0  0  0  0  0  0
   44.9539    2.0906    9.1769 C   0  0  0  0  0  0  0  0  0  0  0  0
   45.9149    3.8866    7.8603 C   0  0  0  0  0  0  0  0  0  0  0  0
   45.6666    2.5257    8.0546 C   0  0  0  0  0  0  0  0  0  0  0  0
   43.5389    1.5661   11.4601 H   0  0  0  0  0  0  0  0  0  0  0  0
   42.7619    3.2962   13.0426 H   0  0  0  0  0  0  0  0  0  0  0  0
   45.6402    5.8786    8.6444 H   0  0  0  0  0  0  0  0  0  0  0  0
   44.7710    1.0272    9.3098 H   0  0  0  0  0  0  0  0  0  0  0  0
   46.4694    4.2192    6.9862 H   0  0  0  0  0  0  0  0  0  0  0  0
   46.0294    1.8009    7.3292 H   0  0  0  0  0  0  0  0  0  0  0  0
  2  1  1  0
  3  6  1  0
  4  1  1  0
  5  2  1  0
  6  4  2  0
  7  2  2  0
  8  4  1  0
  9  6  1  0
 10  8  2  0
 11 10  1  0
  5  3  2  0
  9 11  2  0
  3 12  1  0
  5 13  1  0
  8 14  1  0
  9 15  1  0
 10 16  1  0
 11 17  1  0
M  END
> <Uni-Dock RESULT> 
ENERGY=   -4.697  LOWER_BOUND=    2.024  UPPER_BOUND=    3.365
INTER + INTRA:          -4.697
INTER:                  -4.697
INTRA:                   0.000
UNBOUND:                 0.000

$$$$

     RDKit          3D

 17 18  0  0  0  0  0  0  0  0999 V2000
   45.5300    4.8409    8.6612 O   0  0  0  0  0  0  0  0  0  0  0  0
   46.0006    3.8715    7.7866 C   0  0  0  0  0  0  0  0  0  0  0  0
   44.9577    2.1234    9.1764 C   0  0  0  0  0  0  0  0  0  0  0  0
   44.7745    4.4896    9.7970 C   0  0  0  0  0  0  0  0  0  0  0  0
   45.6735    2.4696    8.1021 C   0  0  0  0  0  0  0  0  0  0  0  0
   44.4763    3.1573   10.0773 C   0  0  0  0  0  0  0  0  0  0  0  0
   46.6598    4.1494    6.7914 O   0  0  0  0  0  0  0  0  0  0  0  0
   44.3417    5.5252   10.6218 C   0  0  0  0  0  0  0  0  0  0  0  0
   43.7241    2.8590   11.2152 C   0  0  0  0  0  0  0  0  0  0  0  0
   43.5914    5.2198   11.7558 C   0  0  0  0  0  0  0  0  0  0  0  0
   43.2832    3.8898   12.0520 C   0  0  0  0  0  0  0  0  0  0  0  0
   44.7288    1.0852    9.3893 H   0  0  0  0  0  0  0  0  0  0  0  0
   46.0513    1.7312    7.4055 H   0  0  0  0  0  0  0  0  0  0  0  0
   44.5860    6.5562   10.3837 H   0  0  0  0  0  0  0  0  0  0  0  0
   43.4737    1.8306   11.4633 H   0  0  0  0  0  0  0  0  0  0  0  0
   43.2461    6.0169   12.4097 H   0  0  0  0  0  0  0  0  0  0  0  0
   42.6975    3.6549   12.9379 H   0  0  0  0  0  0  0  0  0  0  0  0
  2  1  1  0
  3  6  1  0
  4  1  1  0
  5  2  1  0
  6  4  2  0
  7  2  2  0
  8  4  1  0
  9  6  1  0
 10  8  2  0
 11 10  1  0
  5  3  2  0
  9 11  2  0
  3 12  1  0
  5 13  1  0
  8 14  1  0
  9 15  1  0
 10 16  1  0
 11 17  1  0
M  END
> <Uni-Dock RESULT> 
ENERGY=   -4.675  LOWER_BOUND=    2.050  UPPER_BOUND=    4.801
INTER + INTRA:          -4.675
INTER:                  -4.675
INTRA:                   0.000
UNBOUND:                 0.000

$$$$

     RDKit          3D

 17 18  0  0  0  0  0  0  0  0999 V2000
   43.8897    6.6020   12.2099 O   0  0  0  0  0  0  0  0  0  0  0  0
   43.0373    5.5101   12.1251 C   0  0  0  0  0  0  0  0  0  0  0  0
   44.8182    4.0611   13.0218 C   0  0  0  0  0  0  0  0  0  0  0  0
   45.2053    6.4611   12.6931 C   0  0  0  0  0  0  0  0  0  0  0  0
   43.5720    4.2080   12.5616 C   0  0  0  0  0  0  0  0  0  0  0  0
   45.6915    5.2202   13.1009 C   0  0  0  0  0  0  0  0  0  0  0  0
   41.8884    5.6047   11.7088 O   0  0  0  0  0  0  0  0  0  0  0  0
   45.9934    7.6084   12.7449 C   0  0  0  0  0  0  0  0  0  0  0  0
   47.0028    5.1308   13.5726 C   0  0  0  0  0  0  0  0  0  0  0  0
   47.3011    7.5114   13.2168 C   0  0  0  0  0  0  0  0  0  0  0  0
   47.8048    6.2755   13.6297 C   0  0  0  0  0  0  0  0  0  0  0  0
   45.1909    3.0932   13.3377 H   0  0  0  0  0  0  0  0  0  0  0  0
   42.8888    3.3709   12.4864 H   0  0  0  0  0  0  0  0  0  0  0  0
   45.5934    8.5650   12.4218 H   0  0  0  0  0  0  0  0  0  0  0  0
   47.4134    4.1785   13.8985 H   0  0  0  0  0  0  0  0  0  0  0  0
   47.9290    8.3979   13.2634 H   0  0  0  0  0  0  0  0  0  0  0  0
   48.8259    6.2034   13.9975 H   0  0  0  0  0  0  0  0  0  0  0  0
  2  1  1  0
  3  6  1  0
  4  1  1  0
  5  2  1  0
  6  4  2  0
  7  2  2  0
  8  4  1  0
  9  6  1  0
 10  8  2  0
 11 10  1  0
  5  3  2  0
  9 11  2  0
  3 12  1  0
  5 13  1  0
  8 14  1  0
  9 15  1  0
 10 16  1  0
 11 17  1  0
M  END
> <Uni-Dock RESULT> 
ENERGY=   -3.556  LOWER_BOUND=    5.519  UPPER_BOUND=    6.251
INTER + INTRA:          -3.556
INTER:                  -3.556
INTRA:                   0.000
UNBOUND:                 0.000

$$$$

     RDKit          3D

 17 18  0  0  0  0  0  0  0  0999 V2000
   45.4683    4.1253   13.7873 O   0  0  0  0  0  0  0  0  0  0  0  0
   46.7949    4.3907   14.0969 C   0  0  0  0  0  0  0  0  0  0  0  0
   46.6927    6.4438   12.7369 C   0  0  0  0  0  0  0  0  0  0  0  0
   44.7277    4.9922   12.9602 C   0  0  0  0  0  0  0  0  0  0  0  0
   47.3847    5.6132   13.5229 C   0  0  0  0  0  0  0  0  0  0  0  0
   45.3047    6.1436   12.4273 C   0  0  0  0  0  0  0  0  0  0  0  0
   47.4620    3.6535   14.8138 O   0  0  0  0  0  0  0  0  0  0  0  0
   43.4026    4.6505   12.7003 C   0  0  0  0  0  0  0  0  0  0  0  0
   44.5299    6.9719   11.6129 C   0  0  0  0  0  0  0  0  0  0  0  0
   42.6356    5.4821   11.8865 C   0  0  0  0  0  0  0  0  0  0  0  0
   43.1978    6.6402   11.3439 C   0  0  0  0  0  0  0  0  0  0  0  0
   47.1469    7.3380   12.3252 H   0  0  0  0  0  0  0  0  0  0  0  0
   48.4206    5.7994   13.7784 H   0  0  0  0  0  0  0  0  0  0  0  0
   42.9740    3.7482   13.1264 H   0  0  0  0  0  0  0  0  0  0  0  0
   44.9487    7.8774   11.1810 H   0  0  0  0  0  0  0  0  0  0  0  0
   41.5997    5.2291   11.6741 H   0  0  0  0  0  0  0  0  0  0  0  0
   42.5963    7.2870   10.7091 H   0  0  0  0  0  0  0  0  0  0  0  0
  2  1  1  0
  3  6  1  0
  4  1  1  0
  5  2  1  0
  6  4  2  0
  7  2  2  0
  8  4  1  0
  9  6  1  0
 10  8  2  0
 11 10  1  0
  5  3  2  0
  9 11  2  0
  3 12  1  0
  5 13  1  0
  8 14  1  0
  9 15  1  0
 10 16  1  0
 11 17  1  0
M  END
> <Uni-Dock RESULT> 
ENERGY=   -3.542  LOWER_BOUND=    5.589  UPPER_BOUND=    6.115
INTER + INTRA:          -3.542
INTER:                  -3.542
INTRA:                   0.000
UNBOUND:                 0.000

$$$$
