
     RDKit          3D

 17 18  0  0  0  0  0  0  0  0999 V2000
   45.1062    1.7494    9.4021 O   0  0  0  0  0  0  0  0  0  0  0  0
   44.3548    2.7197   10.0503 C   0  0  0  0  0  0  0  0  0  0  0  0
   45.2324    4.4229    8.4999 C   0  0  0  0  0  0  0  0  0  0  0  0
   45.9269    2.0782    8.3056 C   0  0  0  0  0  0  0  0  0  0  0  0
   44.4575    4.0982    9.5392 C   0  0  0  0  0  0  0  0  0  0  0  0
   46.0096    3.3885    7.8378 C   0  0  0  0  0  0  0  0  0  0  0  0
   43.6328    2.4610   11.0065 O   0  0  0  0  0  0  0  0  0  0  0  0
   46.6471    1.0433    7.7136 C   0  0  0  0  0  0  0  0  0  0  0  0
   46.8371    3.6650    6.7477 C   0  0  0  0  0  0  0  0  0  0  0  0
   47.4709    1.3269    6.6259 C   0  0  0  0  0  0  0  0  0  0  0  0
   47.5658    2.6348    6.1438 C   0  0  0  0  0  0  0  0  0  0  0  0
   45.2928    5.4440    8.1404 H   0  0  0  0  0  0  0  0  0  0  0  0
   43.8623    4.8378   10.0607 H   0  0  0  0  0  0  0  0  0  0  0  0
   46.5671    0.0297    8.0950 H   0  0  0  0  0  0  0  0  0  0  0  0
   46.9249    4.6759    6.3576 H   0  0  0  0  0  0  0  0  0  0  0  0
   48.0396    0.5301    6.1528 H   0  0  0  0  0  0  0  0  0  0  0  0
   48.2097    2.8526    5.2947 H   0  0  0  0  0  0  0  0  0  0  0  0
  2  1  1  0
  3  6  1  0
  4  1  1  0
  5  2  1  0
  6  4  2  0
  7  2  2  0
  8  4  1  0
  9  6  1  0
 10  8  2  0
 11 10  1  0
  5  3  2  0
  9 11  2  0
  3 12  1  0
  5 13  1  0
  8 14  1  0
  9 15  1  0
 10 16  1  0
 11 17  1  0
M  END
> <Uni-Dock RESULT> 
ENERGY=   -6.436  LOWER_BOUND=    0.000  UPPER_BOUND=    0.000
INTER + INTRA:          -6.436
INTER:                  -6.436
INTRA:                   0.000
UNBOUND:                 0.000

$$$$

     RDKit          3D

 17 18  0  0  0  0  0  0  0  0999 V2000
   45.2337    4.4686    8.2246 O   0  0  0  0  0  0  0  0  0  0  0  0
   44.3683    4.2167    9.2799 C   0  0  0  0  0  0  0  0  0  0  0  0
   45.0507    1.8484    9.2632 C   0  0  0  0  0  0  0  0  0  0  0  0
   46.0183    3.4402    7.6671 C   0  0  0  0  0  0  0  0  0  0  0  0
   44.3116    2.8328    9.7835 C   0  0  0  0  0  0  0  0  0  0  0  0
   45.9496    2.1377    8.1583 C   0  0  0  0  0  0  0  0  0  0  0  0
   43.6744    5.0928    9.7836 O   0  0  0  0  0  0  0  0  0  0  0  0
   46.8600    3.7801    6.6105 C   0  0  0  0  0  0  0  0  0  0  0  0
   46.7471    1.1526    7.5726 C   0  0  0  0  0  0  0  0  0  0  0  0
   47.6530    2.7915    6.0310 C   0  0  0  0  0  0  0  0  0  0  0  0
   47.5968    1.4805    6.5109 C   0  0  0  0  0  0  0  0  0  0  0  0
   44.9931    0.8370    9.6495 H   0  0  0  0  0  0  0  0  0  0  0  0
   43.6294    2.6605   10.6071 H   0  0  0  0  0  0  0  0  0  0  0  0
   46.8972    4.8017    6.2441 H   0  0  0  0  0  0  0  0  0  0  0  0
   46.7179    0.1267    7.9312 H   0  0  0  0  0  0  0  0  0  0  0  0
   48.3152    3.0407    5.2054 H   0  0  0  0  0  0  0  0  0  0  0  0
   48.2171    0.7114    6.0562 H   0  0  0  0  0  0  0  0  0  0  0  0
  2  1  1  0
  3  6  1  0
  4  1  1  0
  5  2  1  0
  6  4  2  0
  7  2  2  0
  8  4  1  0
  9  6  1  0
 10  8  2  0
 11 10  1  0
  5  3  2  0
  9 11  2  0
  3 12  1  0
  5 13  1  0
  8 14  1  0
  9 15  1  0
 10 16  1  0
 11 17  1  0
M  END
> <Uni-Dock RESULT> 
ENERGY=   -6.050  LOWER_BOUND=    1.327  UPPER_BOUND=    2.188
INTER + INTRA:          -6.050
INTER:                  -6.050
INTRA:                   0.000
UNBOUND:                 0.000

$$$$

     RDKit          3D

 17 18  0  0  0  0  0  0  0  0999 V2000
   45.7411    0.8560    8.5155 O   0  0  0  0  0  0  0  0  0  0  0  0
   46.6483    0.4552    7.5447 C   0  0  0  0  0  0  0  0  0  0  0  0
   47.0611    2.8158    6.9682 C   0  0  0  0  0  0  0  0  0  0  0  0
   45.4709    2.2203    8.7386 C   0  0  0  0  0  0  0  0  0  0  0  0
   47.3087    1.5181    6.7662 C   0  0  0  0  0  0  0  0  0  0  0  0
   46.1067    3.2099    7.9910 C   0  0  0  0  0  0  0  0  0  0  0  0
   46.9019   -0.7247    7.3299 O   0  0  0  0  0  0  0  0  0  0  0  0
   44.5469    2.5344    9.7324 C   0  0  0  0  0  0  0  0  0  0  0  0
   45.8058    4.5487    8.2492 C   0  0  0  0  0  0  0  0  0  0  0  0
   44.2517    3.8729    9.9845 C   0  0  0  0  0  0  0  0  0  0  0  0
   44.8796    4.8780    9.2446 C   0  0  0  0  0  0  0  0  0  0  0  0
   47.5588    3.5813    6.3835 H   0  0  0  0  0  0  0  0  0  0  0  0
   48.0124    1.1813    6.0147 H   0  0  0  0  0  0  0  0  0  0  0  0
   44.0637    1.7465   10.3026 H   0  0  0  0  0  0  0  0  0  0  0  0
   46.2834    5.3455    7.6846 H   0  0  0  0  0  0  0  0  0  0  0  0
   43.5325    4.1345   10.7569 H   0  0  0  0  0  0  0  0  0  0  0  0
   44.6468    5.9216    9.4439 H   0  0  0  0  0  0  0  0  0  0  0  0
  2  1  1  0
  3  6  1  0
  4  1  1  0
  5  2  1  0
  6  4  2  0
  7  2  2  0
  8  4  1  0
  9  6  1  0
 10  8  2  0
 11 10  1  0
  5  3  2  0
  9 11  2  0
  3 12  1  0
  5 13  1  0
  8 14  1  0
  9 15  1  0
 10 16  1  0
 11 17  1  0
M  END
> <Uni-Dock RESULT> 
ENERGY=   -5.518  LOWER_BOUND=    1.319  UPPER_BOUND=    3.681
INTER + INTRA:          -5.518
INTER:                  -5.518
INTRA:                   0.000
UNBOUND:                 0.000

$$$$

     RDKit          3D

 17 18  0  0  0  0  0  0  0  0999 V2000
   46.9804    3.5753    6.7711 O   0  0  0  0  0  0  0  0  0  0  0  0
   47.6135    2.4801    6.2001 C   0  0  0  0  0  0  0  0  0  0  0  0
   46.4551    0.9931    7.7881 C   0  0  0  0  0  0  0  0  0  0  0  0
   46.0837    3.4173    7.8458 C   0  0  0  0  0  0  0  0  0  0  0  0
   47.3039    1.1562    6.7688 C   0  0  0  0  0  0  0  0  0  0  0  0
   45.8046    2.1559    8.3688 C   0  0  0  0  0  0  0  0  0  0  0  0
   48.3980    2.5892    5.2646 O   0  0  0  0  0  0  0  0  0  0  0  0
   45.4923    4.5693    8.3589 C   0  0  0  0  0  0  0  0  0  0  0  0
   44.9085    2.0504    9.4345 C   0  0  0  0  0  0  0  0  0  0  0  0
   44.5989    4.4561    9.4225 C   0  0  0  0  0  0  0  0  0  0  0  0
   44.3075    3.1995    9.9592 C   0  0  0  0  0  0  0  0  0  0  0  0
   46.2418    0.0094    8.1909 H   0  0  0  0  0  0  0  0  0  0  0  0
   47.8097    0.3170    6.3071 H   0  0  0  0  0  0  0  0  0  0  0  0
   45.7247    5.5419    7.9354 H   0  0  0  0  0  0  0  0  0  0  0  0
   44.6686    1.0820    9.8662 H   0  0  0  0  0  0  0  0  0  0  0  0
   44.1290    5.3458    9.8344 H   0  0  0  0  0  0  0  0  0  0  0  0
   43.6098    3.1147   10.7894 H   0  0  0  0  0  0  0  0  0  0  0  0
  2  1  1  0
  3  6  1  0
  4  1  1  0
  5  2  1  0
  6  4  2  0
  7  2  2  0
  8  4  1  0
  9  6  1  0
 10  8  2  0
 11 10  1  0
  5  3  2  0
  9 11  2  0
  3 12  1  0
  5 13  1  0
  8 14  1  0
  9 15  1  0
 10 16  1  0
 11 17  1  0
M  END
> <Uni-Dock RESULT> 
ENERGY=   -5.500  LOWER_BOUND=    2.060  UPPER_BOUND=    4.432
INTER + INTRA:          -5.500
INTER:                  -5.500
INTRA:                   0.000
UNBOUND:                 0.000

$$$$

     RDKit          3D

 17 18  0  0  0  0  0  0  0  0999 V2000
   44.3282    5.3488   10.9258 O   0  0  0  0  0  0  0  0  0  0  0  0
   43.6209    4.9622   12.0556 C   0  0  0  0  0  0  0  0  0  0  0  0
   43.7462    2.6131   11.3199 C   0  0  0  0  0  0  0  0  0  0  0  0
   44.7577    4.4000    9.9775 C   0  0  0  0  0  0  0  0  0  0  0  0
   43.3442    3.5231   12.2123 C   0  0  0  0  0  0  0  0  0  0  0  0
   44.4855    3.0433   10.1448 C   0  0  0  0  0  0  0  0  0  0  0  0
   43.2354    5.7667   12.8963 O   0  0  0  0  0  0  0  0  0  0  0  0
   45.4615    4.8741    8.8730 C   0  0  0  0  0  0  0  0  0  0  0  0
   44.9322    2.1411    9.1773 C   0  0  0  0  0  0  0  0  0  0  0  0
   45.9043    3.9676    7.9116 C   0  0  0  0  0  0  0  0  0  0  0  0
   45.6403    2.6040    8.0632 C   0  0  0  0  0  0  0  0  0  0  0  0
   43.5315    1.5591   11.4553 H   0  0  0  0  0  0  0  0  0  0  0  0
   42.7911    3.2454   13.1013 H   0  0  0  0  0  0  0  0  0  0  0  0
   45.6622    5.9358    8.7634 H   0  0  0  0  0  0  0  0  0  0  0  0
   44.7370    1.0763    9.2768 H   0  0  0  0  0  0  0  0  0  0  0  0
   46.4550    4.3219    7.0436 H   0  0  0  0  0  0  0  0  0  0  0  0
   45.9872    1.8993    7.3109 H   0  0  0  0  0  0  0  0  0  0  0  0
  2  1  1  0
  3  6  1  0
  4  1  1  0
  5  2  1  0
  6  4  2  0
  7  2  2  0
  8  4  1  0
  9  6  1  0
 10  8  2  0
 11 10  1  0
  5  3  2  0
  9 11  2  0
  3 12  1  0
  5 13  1  0
  8 14  1  0
  9 15  1  0
 10 16  1  0
 11 17  1  0
M  END
> <Uni-Dock RESULT> 
ENERGY=   -4.686  LOWER_BOUND=    2.061  UPPER_BOUND=    3.403
INTER + INTRA:          -4.686
INTER:                  -4.686
INTRA:                   0.000
UNBOUND:                 0.000

$$$$

     RDKit          3D

 17 18  0  0  0  0  0  0  0  0999 V2000
   45.5293    4.8380    8.6574 O   0  0  0  0  0  0  0  0  0  0  0  0
   45.9988    3.8654    7.7858 C   0  0  0  0  0  0  0  0  0  0  0  0
   44.9542    2.1227    9.1812 C   0  0  0  0  0  0  0  0  0  0  0  0
   44.7735    4.4911    9.7943 C   0  0  0  0  0  0  0  0  0  0  0  0
   45.6704    2.4648    8.1059 C   0  0  0  0  0  0  0  0  0  0  0  0
   44.4738    3.1600   10.0788 C   0  0  0  0  0  0  0  0  0  0  0  0
   46.6584    4.1394    6.7896 O   0  0  0  0  0  0  0  0  0  0  0  0
   44.3419    5.5299   10.6158 C   0  0  0  0  0  0  0  0  0  0  0  0
   43.7214    2.8662   11.2177 C   0  0  0  0  0  0  0  0  0  0  0  0
   43.5912    5.2289   11.7507 C   0  0  0  0  0  0  0  0  0  0  0  0
   43.2816    3.9000   12.0512 C   0  0  0  0  0  0  0  0  0  0  0  0
   44.7242    1.0856    9.3974 H   0  0  0  0  0  0  0  0  0  0  0  0
   46.0472    1.7237    7.4116 H   0  0  0  0  0  0  0  0  0  0  0  0
   44.5872    6.5598   10.3744 H   0  0  0  0  0  0  0  0  0  0  0  0
   43.4700    1.8389   11.4690 H   0  0  0  0  0  0  0  0  0  0  0  0
   43.2469    6.0284   12.4022 H   0  0  0  0  0  0  0  0  0  0  0  0
   42.6956    3.6687   12.9378 H   0  0  0  0  0  0  0  0  0  0  0  0
  2  1  1  0
  3  6  1  0
  4  1  1  0
  5  2  1  0
  6  4  2  0
  7  2  2  0
  8  4  1  0
  9  6  1  0
 10  8  2  0
 11 10  1  0
  5  3  2  0
  9 11  2  0
  3 12  1  0
  5 13  1  0
  8 14  1  0
  9 15  1  0
 10 16  1  0
 11 17  1  0
M  END
> <Uni-Dock RESULT> 
ENERGY=   -4.681  LOWER_BOUND=    2.049  UPPER_BOUND=    4.801
INTER + INTRA:          -4.681
INTER:                  -4.681
INTRA:                   0.000
UNBOUND:                 0.000

$$$$

     RDKit          3D

 17 18  0  0  0  0  0  0  0  0999 V2000
   44.9869    3.6602   12.7346 O   0  0  0  0  0  0  0  0  0  0  0  0
   43.7429    3.4027   12.1759 C   0  0  0  0  0  0  0  0  0  0  0  0
   43.4323    5.8150   11.7765 C   0  0  0  0  0  0  0  0  0  0  0  0
   45.4825    4.9753   12.8299 C   0  0  0  0  0  0  0  0  0  0  0  0
   42.9733    4.5627   11.6919 C   0  0  0  0  0  0  0  0  0  0  0  0
   44.7384    6.0586   12.3658 C   0  0  0  0  0  0  0  0  0  0  0  0
   43.2878    2.2686   12.0808 O   0  0  0  0  0  0  0  0  0  0  0  0
   46.7402    5.1440   13.4042 C   0  0  0  0  0  0  0  0  0  0  0  0
   45.2724    7.3435   12.4822 C   0  0  0  0  0  0  0  0  0  0  0  0
   47.2666    6.4295   13.5170 C   0  0  0  0  0  0  0  0  0  0  0  0
   46.5344    7.5269   13.0571 C   0  0  0  0  0  0  0  0  0  0  0  0
   42.8490    6.6538   11.4138 H   0  0  0  0  0  0  0  0  0  0  0  0
   42.0059    4.3372   11.2601 H   0  0  0  0  0  0  0  0  0  0  0  0
   47.3022    4.2852   13.7589 H   0  0  0  0  0  0  0  0  0  0  0  0
   44.7186    8.2104   12.1306 H   0  0  0  0  0  0  0  0  0  0  0  0
   48.2470    6.5779   13.9631 H   0  0  0  0  0  0  0  0  0  0  0  0
   46.9483    8.5288   13.1467 H   0  0  0  0  0  0  0  0  0  0  0  0
  2  1  1  0
  3  6  1  0
  4  1  1  0
  5  2  1  0
  6  4  2  0
  7  2  2  0
  8  4  1  0
  9  6  1  0
 10  8  2  0
 11 10  1  0
  5  3  2  0
  9 11  2  0
  3 12  1  0
  5 13  1  0
  8 14  1  0
  9 15  1  0
 10 16  1  0
 11 17  1  0
M  END
> <Uni-Dock RESULT> 
ENERGY=   -3.568  LOWER_BOUND=    4.851  UPPER_BOUND=    5.618
INTER + INTRA:          -3.568
INTER:                  -3.568
INTRA:                   0.000
UNBOUND:                 0.000

$$$$

     RDKit          3D

 17 18  0  0  0  0  0  0  0  0999 V2000
   43.8905    6.6027   12.2102 O   0  0  0  0  0  0  0  0  0  0  0  0
   43.0378    5.5110   12.1252 C   0  0  0  0  0  0  0  0  0  0  0  0
   44.8181    4.0613   13.0218 C   0  0  0  0  0  0  0  0  0  0  0  0
   45.2060    6.4613   12.6934 C   0  0  0  0  0  0  0  0  0  0  0  0
   43.5721    4.2087   12.5615 C   0  0  0  0  0  0  0  0  0  0  0  0
   45.6918    5.2202   13.1011 C   0  0  0  0  0  0  0  0  0  0  0  0
   41.8889    5.6060   11.7086 O   0  0  0  0  0  0  0  0  0  0  0  0
   45.9943    7.6084   12.7454 C   0  0  0  0  0  0  0  0  0  0  0  0
   47.0029    5.1305   13.5729 C   0  0  0  0  0  0  0  0  0  0  0  0
   47.3019    7.5111   13.2174 C   0  0  0  0  0  0  0  0  0  0  0  0
   47.8053    6.2749   13.6303 C   0  0  0  0  0  0  0  0  0  0  0  0
   45.1906    3.0934   13.3375 H   0  0  0  0  0  0  0  0  0  0  0  0
   42.8887    3.3717   12.4861 H   0  0  0  0  0  0  0  0  0  0  0  0
   45.5946    8.5651   12.4224 H   0  0  0  0  0  0  0  0  0  0  0  0
   47.4134    4.1780   13.8987 H   0  0  0  0  0  0  0  0  0  0  0  0
   47.9301    8.3974   13.2642 H   0  0  0  0  0  0  0  0  0  0  0  0
   48.8263    6.2026   13.9982 H   0  0  0  0  0  0  0  0  0  0  0  0
  2  1  1  0
  3  6  1  0
  4  1  1  0
  5  2  1  0
  6  4  2  0
  7  2  2  0
  8  4  1  0
  9  6  1  0
 10  8  2  0
 11 10  1  0
  5  3  2  0
  9 11  2  0
  3 12  1  0
  5 13  1  0
  8 14  1  0
  9 15  1  0
 10 16  1  0
 11 17  1  0
M  END
> <Uni-Dock RESULT> 
ENERGY=   -3.558  LOWER_BOUND=    5.517  UPPER_BOUND=    6.250
INTER + INTRA:          -3.558
INTER:                  -3.558
INTRA:                   0.000
UNBOUND:                 0.000

$$$$
