
     RDKit          3D

 17 18  0  0  0  0  0  0  0  0999 V2000
   45.1057    1.7495    9.4025 O   0  0  0  0  0  0  0  0  0  0  0  0
   44.3545    2.7198   10.0509 C   0  0  0  0  0  0  0  0  0  0  0  0
   45.2322    4.4232    8.5008 C   0  0  0  0  0  0  0  0  0  0  0  0
   45.9265    2.0785    8.3060 C   0  0  0  0  0  0  0  0  0  0  0  0
   44.4573    4.0984    9.5400 C   0  0  0  0  0  0  0  0  0  0  0  0
   46.0095    3.3888    7.8385 C   0  0  0  0  0  0  0  0  0  0  0  0
   43.6324    2.4610   11.0069 O   0  0  0  0  0  0  0  0  0  0  0  0
   46.6466    1.0435    7.7139 C   0  0  0  0  0  0  0  0  0  0  0  0
   46.8371    3.6653    6.7485 C   0  0  0  0  0  0  0  0  0  0  0  0
   47.4705    1.3273    6.6262 C   0  0  0  0  0  0  0  0  0  0  0  0
   47.5656    2.6352    6.1445 C   0  0  0  0  0  0  0  0  0  0  0  0
   45.2928    5.4443    8.1415 H   0  0  0  0  0  0  0  0  0  0  0  0
   43.8623    4.8379   10.0616 H   0  0  0  0  0  0  0  0  0  0  0  0
   46.5664    0.0297    8.0951 H   0  0  0  0  0  0  0  0  0  0  0  0
   46.9249    4.6764    6.3586 H   0  0  0  0  0  0  0  0  0  0  0  0
   48.0390    0.5304    6.1530 H   0  0  0  0  0  0  0  0  0  0  0  0
   48.2096    2.8530    5.2954 H   0  0  0  0  0  0  0  0  0  0  0  0
  2  1  1  0
  3  6  1  0
  4  1  1  0
  5  2  1  0
  6  4  2  0
  7  2  2  0
  8  4  1  0
  9  6  1  0
 10  8  2  0
 11 10  1  0
  5  3  2  0
  9 11  2  0
  3 12  1  0
  5 13  1  0
  8 14  1  0
  9 15  1  0
 10 16  1  0
 11 17  1  0
M  END
> <Uni-Dock RESULT> 
ENERGY=   -6.436  LOWER_BOUND=    0.000  UPPER_BOUND=    0.000
INTER + INTRA:          -6.436
INTER:                  -6.436
INTRA:                   0.000
UNBOUND:                 0.000

$$$$

     RDKit          3D

 17 18  0  0  0  0  0  0  0  0999 V2000
   45.2348    4.4697    8.2240 O   0  0  0  0  0  0  0  0  0  0  0  0
   44.3690    4.2183    9.2792 C   0  0  0  0  0  0  0  0  0  0  0  0
   45.0506    1.8497    9.2629 C   0  0  0  0  0  0  0  0  0  0  0  0
   46.0191    3.4409    7.6667 C   0  0  0  0  0  0  0  0  0  0  0  0
   44.3117    2.8344    9.7829 C   0  0  0  0  0  0  0  0  0  0  0  0
   45.9498    2.1385    8.1581 C   0  0  0  0  0  0  0  0  0  0  0  0
   43.6755    5.0946    9.7826 O   0  0  0  0  0  0  0  0  0  0  0  0
   46.8611    3.7803    6.6103 C   0  0  0  0  0  0  0  0  0  0  0  0
   46.7470    1.1530    7.5726 C   0  0  0  0  0  0  0  0  0  0  0  0
   47.6538    2.7912    6.0310 C   0  0  0  0  0  0  0  0  0  0  0  0
   47.5970    1.4804    6.5110 C   0  0  0  0  0  0  0  0  0  0  0  0
   44.9925    0.8383    9.6493 H   0  0  0  0  0  0  0  0  0  0  0  0
   43.6294    2.6624   10.6063 H   0  0  0  0  0  0  0  0  0  0  0  0
   46.8987    4.8020    6.2437 H   0  0  0  0  0  0  0  0  0  0  0  0
   46.7174    0.1272    7.9315 H   0  0  0  0  0  0  0  0  0  0  0  0
   48.3163    3.0402    5.2056 H   0  0  0  0  0  0  0  0  0  0  0  0
   48.2171    0.7110    6.0565 H   0  0  0  0  0  0  0  0  0  0  0  0
  2  1  1  0
  3  6  1  0
  4  1  1  0
  5  2  1  0
  6  4  2  0
  7  2  2  0
  8  4  1  0
  9  6  1  0
 10  8  2  0
 11 10  1  0
  5  3  2  0
  9 11  2  0
  3 12  1  0
  5 13  1  0
  8 14  1  0
  9 15  1  0
 10 16  1  0
 11 17  1  0
M  END
> <Uni-Dock RESULT> 
ENERGY=   -6.054  LOWER_BOUND=    1.327  UPPER_BOUND=    2.189
INTER + INTRA:          -6.054
INTER:                  -6.054
INTRA:                   0.000
UNBOUND:                 0.000

$$$$

     RDKit          3D

 17 18  0  0  0  0  0  0  0  0999 V2000
   44.2928    5.3355   10.8248 O   0  0  0  0  0  0  0  0  0  0  0  0
   43.5812    4.9672   11.9580 C   0  0  0  0  0  0  0  0  0  0  0  0
   43.7524    2.6019   11.2863 C   0  0  0  0  0  0  0  0  0  0  0  0
   44.7470    4.3692    9.9060 C   0  0  0  0  0  0  0  0  0  0  0  0
   43.3269    3.5283   12.1504 C   0  0  0  0  0  0  0  0  0  0  0  0
   44.4957    3.0131   10.1069 C   0  0  0  0  0  0  0  0  0  0  0  0
   43.1745    5.7871   12.7732 O   0  0  0  0  0  0  0  0  0  0  0  0
   45.4534    4.8257    8.7957 C   0  0  0  0  0  0  0  0  0  0  0  0
   44.9664    2.0932    9.1679 C   0  0  0  0  0  0  0  0  0  0  0  0
   45.9202    3.9015    7.8628 C   0  0  0  0  0  0  0  0  0  0  0  0
   45.6773    2.5382    8.0484 C   0  0  0  0  0  0  0  0  0  0  0  0
   43.5539    1.5483   11.4478 H   0  0  0  0  0  0  0  0  0  0  0  0
   42.7700    3.2651   13.0413 H   0  0  0  0  0  0  0  0  0  0  0  0
   45.6375    5.8873    8.6596 H   0  0  0  0  0  0  0  0  0  0  0  0
   44.7880    1.0282    9.2940 H   0  0  0  0  0  0  0  0  0  0  0  0
   46.4733    4.2418    6.9908 H   0  0  0  0  0  0  0  0  0  0  0  0
   46.0431    1.8197    7.3183 H   0  0  0  0  0  0  0  0  0  0  0  0
  2  1  1  0
  3  6  1  0
  4  1  1  0
  5  2  1  0
  6  4  2  0
  7  2  2  0
  8  4  1  0
  9  6  1  0
 10  8  2  0
 11 10  1  0
  5  3  2  0
  9 11  2  0
  3 12  1  0
  5 13  1  0
  8 14  1  0
  9 15  1  0
 10 16  1  0
 11 17  1  0
M  END
> <Uni-Dock RESULT> 
ENERGY=   -4.697  LOWER_BOUND=    2.021  UPPER_BOUND=    3.360
INTER + INTRA:          -4.697
INTER:                  -4.697
INTRA:                   0.000
UNBOUND:                 0.000

$$$$

     RDKit          3D

 17 18  0  0  0  0  0  0  0  0999 V2000
   45.5387    4.8309    8.6461 O   0  0  0  0  0  0  0  0  0  0  0  0
   46.0082    3.8562    7.7768 C   0  0  0  0  0  0  0  0  0  0  0  0
   44.9592    2.1173    9.1735 C   0  0  0  0  0  0  0  0  0  0  0  0
   44.7807    4.4869    9.7825 C   0  0  0  0  0  0  0  0  0  0  0  0
   45.6774    2.4565    8.0987 C   0  0  0  0  0  0  0  0  0  0  0  0
   44.4789    3.1568   10.0688 C   0  0  0  0  0  0  0  0  0  0  0  0
   46.6696    4.1278    6.7812 O   0  0  0  0  0  0  0  0  0  0  0  0
   44.3492    5.5276   10.6016 C   0  0  0  0  0  0  0  0  0  0  0  0
   43.7244    2.8658   11.2071 C   0  0  0  0  0  0  0  0  0  0  0  0
   43.5965    5.2295   11.7360 C   0  0  0  0  0  0  0  0  0  0  0  0
   43.2848    3.9016   12.0382 C   0  0  0  0  0  0  0  0  0  0  0  0
   44.7275    1.0808    9.3912 H   0  0  0  0  0  0  0  0  0  0  0  0
   46.0544    1.7139    7.4064 H   0  0  0  0  0  0  0  0  0  0  0  0
   44.5963    6.5570   10.3588 H   0  0  0  0  0  0  0  0  0  0  0  0
   43.4712    1.8392   11.4597 H   0  0  0  0  0  0  0  0  0  0  0  0
   43.2522    6.0306   12.3854 H   0  0  0  0  0  0  0  0  0  0  0  0
   42.6971    3.6725   12.9244 H   0  0  0  0  0  0  0  0  0  0  0  0
  2  1  1  0
  3  6  1  0
  4  1  1  0
  5  2  1  0
  6  4  2  0
  7  2  2  0
  8  4  1  0
  9  6  1  0
 10  8  2  0
 11 10  1  0
  5  3  2  0
  9 11  2  0
  3 12  1  0
  5 13  1  0
  8 14  1  0
  9 15  1  0
 10 16  1  0
 11 17  1  0
M  END
> <Uni-Dock RESULT> 
ENERGY=   -4.676  LOWER_BOUND=    2.045  UPPER_BOUND=    4.796
INTER + INTRA:          -4.676
INTER:                  -4.676
INTRA:                   0.000
UNBOUND:                 0.000

$$$$

     RDKit          3D

 17 18  0  0  0  0  0  0  0  0999 V2000
   44.7920    2.0804   10.2879 O   0  0  0  0  0  0  0  0  0  0  0  0
   45.2287    2.1206    8.9712 C   0  0  0  0  0  0  0  0  0  0  0  0
   44.5728    4.4926    8.8351 C   0  0  0  0  0  0  0  0  0  0  0  0
   44.2435    3.2208   10.9067 C   0  0  0  0  0  0  0  0  0  0  0  0
   45.0913    3.4038    8.2593 C   0  0  0  0  0  0  0  0  0  0  0  0
   44.1225    4.4249   10.2154 C   0  0  0  0  0  0  0  0  0  0  0  0
   45.7096    1.1435    8.4087 O   0  0  0  0  0  0  0  0  0  0  0  0
   43.8302    3.0927   12.2308 C   0  0  0  0  0  0  0  0  0  0  0  0
   43.5724    5.5276   10.8718 C   0  0  0  0  0  0  0  0  0  0  0  0
   43.2821    4.1978   12.8793 C   0  0  0  0  0  0  0  0  0  0  0  0
   43.1534    5.4126   12.2015 C   0  0  0  0  0  0  0  0  0  0  0  0
   44.4812    5.4267    8.2923 H   0  0  0  0  0  0  0  0  0  0  0  0
   45.4387    3.4110    7.2334 H   0  0  0  0  0  0  0  0  0  0  0  0
   43.9342    2.1444   12.7498 H   0  0  0  0  0  0  0  0  0  0  0  0
   43.4636    6.4817   10.3620 H   0  0  0  0  0  0  0  0  0  0  0  0
   42.9549    4.1140   13.9128 H   0  0  0  0  0  0  0  0  0  0  0  0
   42.7252    6.2730   12.7108 H   0  0  0  0  0  0  0  0  0  0  0  0
  2  1  1  0
  3  6  1  0
  4  1  1  0
  5  2  1  0
  6  4  2  0
  7  2  2  0
  8  4  1  0
  9  6  1  0
 10  8  2  0
 11 10  1  0
  5  3  2  0
  9 11  2  0
  3 12  1  0
  5 13  1  0
  8 14  1  0
  9 15  1  0
 10 16  1  0
 11 17  1  0
M  END
> <Uni-Dock RESULT> 
ENERGY=   -4.671  LOWER_BOUND=    1.899  UPPER_BOUND=    4.600
INTER + INTRA:          -4.671
INTER:                  -4.671
INTRA:                   0.000
UNBOUND:                 0.000

$$$$

     RDKit          3D

 17 18  0  0  0  0  0  0  0  0999 V2000
   43.5706    3.5353   11.6484 O   0  0  0  0  0  0  0  0  0  0  0  0
   43.3776    4.6712   12.4221 C   0  0  0  0  0  0  0  0  0  0  0  0
   44.6608    5.9938   10.7853 C   0  0  0  0  0  0  0  0  0  0  0  0
   44.2994    3.5916   10.4443 C   0  0  0  0  0  0  0  0  0  0  0  0
   43.9675    5.9274   11.9259 C   0  0  0  0  0  0  0  0  0  0  0  0
   44.8491    4.7900    9.9927 C   0  0  0  0  0  0  0  0  0  0  0  0
   42.7479    4.6504   13.4735 O   0  0  0  0  0  0  0  0  0  0  0  0
   44.4453    2.4048    9.7298 C   0  0  0  0  0  0  0  0  0  0  0  0
   45.5634    4.7953    8.7930 C   0  0  0  0  0  0  0  0  0  0  0  0
   45.1595    2.4178    8.5331 C   0  0  0  0  0  0  0  0  0  0  0  0
   45.7173    3.6103    8.0656 C   0  0  0  0  0  0  0  0  0  0  0  0
   45.0862    6.9290   10.4390 H   0  0  0  0  0  0  0  0  0  0  0  0
   43.8038    6.8001   12.5461 H   0  0  0  0  0  0  0  0  0  0  0  0
   44.0081    1.4824   10.1009 H   0  0  0  0  0  0  0  0  0  0  0  0
   46.0051    5.7127    8.4121 H   0  0  0  0  0  0  0  0  0  0  0  0
   45.2822    1.4998    7.9637 H   0  0  0  0  0  0  0  0  0  0  0  0
   46.2741    3.6169    7.1312 H   0  0  0  0  0  0  0  0  0  0  0  0
  2  1  1  0
  3  6  1  0
  4  1  1  0
  5  2  1  0
  6  4  2  0
  7  2  2  0
  8  4  1  0
  9  6  1  0
 10  8  2  0
 11 10  1  0
  5  3  2  0
  9 11  2  0
  3 12  1  0
  5 13  1  0
  8 14  1  0
  9 15  1  0
 10 16  1  0
 11 17  1  0
M  END
> <Uni-Dock RESULT> 
ENERGY=   -4.390  LOWER_BOUND=    1.924  UPPER_BOUND=    3.067
INTER + INTRA:          -4.390
INTER:                  -4.390
INTRA:                   0.000
UNBOUND:                 0.000

$$$$

     RDKit          3D

 17 18  0  0  0  0  0  0  0  0999 V2000
   44.9821    3.6518   12.7344 O   0  0  0  0  0  0  0  0  0  0  0  0
   43.7385    3.3977   12.1730 C   0  0  0  0  0  0  0  0  0  0  0  0
   43.4351    5.8108   11.7736 C   0  0  0  0  0  0  0  0  0  0  0  0
   45.4808    4.9656   12.8311 C   0  0  0  0  0  0  0  0  0  0  0  0
   42.9729    4.5598   11.6877 C   0  0  0  0  0  0  0  0  0  0  0  0
   44.7406    6.0510   12.3658 C   0  0  0  0  0  0  0  0  0  0  0  0
   43.2807    2.2648   12.0766 O   0  0  0  0  0  0  0  0  0  0  0  0
   46.7377    5.1309   13.4082 C   0  0  0  0  0  0  0  0  0  0  0  0
   45.2775    7.3344   12.4838 C   0  0  0  0  0  0  0  0  0  0  0  0
   47.2672    6.4150   13.5225 C   0  0  0  0  0  0  0  0  0  0  0  0
   46.5388    7.5144   13.0614 C   0  0  0  0  0  0  0  0  0  0  0  0
   42.8547    6.6513   11.4100 H   0  0  0  0  0  0  0  0  0  0  0  0
   42.0059    4.3370   11.2539 H   0  0  0  0  0  0  0  0  0  0  0  0
   47.2968    4.2704   13.7638 H   0  0  0  0  0  0  0  0  0  0  0  0
   44.7268    8.2029   12.1312 H   0  0  0  0  0  0  0  0  0  0  0  0
   48.2470    6.5607   13.9705 H   0  0  0  0  0  0  0  0  0  0  0  0
   46.9551    8.5152   13.1522 H   0  0  0  0  0  0  0  0  0  0  0  0
  2  1  1  0
  3  6  1  0
  4  1  1  0
  5  2  1  0
  6  4  2  0
  7  2  2  0
  8  4  1  0
  9  6  1  0
 10  8  2  0
 11 10  1  0
  5  3  2  0
  9 11  2  0
  3 12  1  0
  5 13  1  0
  8 14  1  0
  9 15  1  0
 10 16  1  0
 11 17  1  0
M  END
> <Uni-Dock RESULT> 
ENERGY=   -3.569  LOWER_BOUND=    4.849  UPPER_BOUND=    5.613
INTER + INTRA:          -3.569
INTER:                  -3.569
INTRA:                   0.000
UNBOUND:                 0.000

$$$$

     RDKit          3D

 17 18  0  0  0  0  0  0  0  0999 V2000
   43.8897    6.6018   12.2098 O   0  0  0  0  0  0  0  0  0  0  0  0
   43.0374    5.5098   12.1250 C   0  0  0  0  0  0  0  0  0  0  0  0
   44.8181    4.0609   13.0218 C   0  0  0  0  0  0  0  0  0  0  0  0
   45.2054    6.4608   12.6930 C   0  0  0  0  0  0  0  0  0  0  0  0
   43.5721    4.2077   12.5615 C   0  0  0  0  0  0  0  0  0  0  0  0
   45.6916    5.2200   13.1009 C   0  0  0  0  0  0  0  0  0  0  0  0
   41.8885    5.6045   11.7085 O   0  0  0  0  0  0  0  0  0  0  0  0
   45.9933    7.6083   12.7447 C   0  0  0  0  0  0  0  0  0  0  0  0
   47.0027    5.1308   13.5725 C   0  0  0  0  0  0  0  0  0  0  0  0
   47.3011    7.5114   13.2167 C   0  0  0  0  0  0  0  0  0  0  0  0
   47.8048    6.2754   13.6297 C   0  0  0  0  0  0  0  0  0  0  0  0
   45.1910    3.0930   13.3377 H   0  0  0  0  0  0  0  0  0  0  0  0
   42.8890    3.3706   12.4862 H   0  0  0  0  0  0  0  0  0  0  0  0
   45.5933    8.5649   12.4215 H   0  0  0  0  0  0  0  0  0  0  0  0
   47.4134    4.1785   13.8986 H   0  0  0  0  0  0  0  0  0  0  0  0
   47.9288    8.3978   13.2633 H   0  0  0  0  0  0  0  0  0  0  0  0
   48.8259    6.2034   13.9976 H   0  0  0  0  0  0  0  0  0  0  0  0
  2  1  1  0
  3  6  1  0
  4  1  1  0
  5  2  1  0
  6  4  2  0
  7  2  2  0
  8  4  1  0
  9  6  1  0
 10  8  2  0
 11 10  1  0
  5  3  2  0
  9 11  2  0
  3 12  1  0
  5 13  1  0
  8 14  1  0
  9 15  1  0
 10 16  1  0
 11 17  1  0
M  END
> <Uni-Dock RESULT> 
ENERGY=   -3.556  LOWER_BOUND=    5.517  UPPER_BOUND=    6.249
INTER + INTRA:          -3.556
INTER:                  -3.556
INTRA:                   0.000
UNBOUND:                 0.000

$$$$
