
     RDKit          3D

 17 18  0  0  0  0  0  0  0  0999 V2000
   45.1096    1.7465    9.3997 O   0  0  0  0  0  0  0  0  0  0  0  0
   44.3573    2.7161   10.0479 C   0  0  0  0  0  0  0  0  0  0  0  0
   45.2320    4.4199    8.4965 C   0  0  0  0  0  0  0  0  0  0  0  0
   45.9295    2.0760    8.3028 C   0  0  0  0  0  0  0  0  0  0  0  0
   44.4579    4.0945    9.5363 C   0  0  0  0  0  0  0  0  0  0  0  0
   46.0104    3.3862    7.8345 C   0  0  0  0  0  0  0  0  0  0  0  0
   43.6359    2.4569   11.0044 O   0  0  0  0  0  0  0  0  0  0  0  0
   46.6508    1.0418    7.7108 C   0  0  0  0  0  0  0  0  0  0  0  0
   46.8372    3.6633    6.7439 C   0  0  0  0  0  0  0  0  0  0  0  0
   47.4738    1.3260    6.6228 C   0  0  0  0  0  0  0  0  0  0  0  0
   47.5669    2.6338    6.1402 C   0  0  0  0  0  0  0  0  0  0  0  0
   45.2910    5.4409    8.1366 H   0  0  0  0  0  0  0  0  0  0  0  0
   43.8620    4.8336   10.0578 H   0  0  0  0  0  0  0  0  0  0  0  0
   46.5722    0.0282    8.0927 H   0  0  0  0  0  0  0  0  0  0  0  0
   46.9233    4.6743    6.3534 H   0  0  0  0  0  0  0  0  0  0  0  0
   48.0433    0.5298    6.1496 H   0  0  0  0  0  0  0  0  0  0  0  0
   48.2102    2.8522    5.2908 H   0  0  0  0  0  0  0  0  0  0  0  0
  2  1  1  0
  3  6  1  0
  4  1  1  0
  5  2  1  0
  6  4  2  0
  7  2  2  0
  8  4  1  0
  9  6  1  0
 10  8  2  0
 11 10  1  0
  5  3  2  0
  9 11  2  0
  3 12  1  0
  5 13  1  0
  8 14  1  0
  9 15  1  0
 10 16  1  0
 11 17  1  0
M  END
> <Uni-Dock RESULT> 
ENERGY=   -6.433  LOWER_BOUND=    0.000  UPPER_BOUND=    0.000
INTER + INTRA:          -6.433
INTER:                  -6.433
INTRA:                   0.000
UNBOUND:                 0.000

$$$$

     RDKit          3D

 17 18  0  0  0  0  0  0  0  0999 V2000
   45.2483    4.4738    8.2320 O   0  0  0  0  0  0  0  0  0  0  0  0
   44.3769    4.2248    9.2831 C   0  0  0  0  0  0  0  0  0  0  0  0
   45.0423    1.8517    9.2615 C   0  0  0  0  0  0  0  0  0  0  0  0
   46.0277    3.4415    7.6743 C   0  0  0  0  0  0  0  0  0  0  0  0
   44.3082    2.8398    9.7821 C   0  0  0  0  0  0  0  0  0  0  0  0
   45.9477    2.1381    8.1610 C   0  0  0  0  0  0  0  0  0  0  0  0
   43.6873    5.1042    9.7868 O   0  0  0  0  0  0  0  0  0  0  0  0
   46.8760    3.7787    6.6222 C   0  0  0  0  0  0  0  0  0  0  0  0
   46.7404    1.1490    7.5753 C   0  0  0  0  0  0  0  0  0  0  0  0
   47.6642    2.7863    6.0426 C   0  0  0  0  0  0  0  0  0  0  0  0
   47.5967    1.4742    6.5180 C   0  0  0  0  0  0  0  0  0  0  0  0
   44.9759    0.8395    9.6443 H   0  0  0  0  0  0  0  0  0  0  0  0
   43.6216    2.6697   10.6023 H   0  0  0  0  0  0  0  0  0  0  0  0
   46.9219    4.8012    6.2592 H   0  0  0  0  0  0  0  0  0  0  0  0
   46.7025    0.1223    7.9307 H   0  0  0  0  0  0  0  0  0  0  0  0
   48.3315    3.0333    5.2205 H   0  0  0  0  0  0  0  0  0  0  0  0
   48.2131    0.7021    6.0634 H   0  0  0  0  0  0  0  0  0  0  0  0
  2  1  1  0
  3  6  1  0
  4  1  1  0
  5  2  1  0
  6  4  2  0
  7  2  2  0
  8  4  1  0
  9  6  1  0
 10  8  2  0
 11 10  1  0
  5  3  2  0
  9 11  2  0
  3 12  1  0
  5 13  1  0
  8 14  1  0
  9 15  1  0
 10 16  1  0
 11 17  1  0
M  END
> <Uni-Dock RESULT> 
ENERGY=   -6.053  LOWER_BOUND=    1.330  UPPER_BOUND=    2.189
INTER + INTRA:          -6.053
INTER:                  -6.053
INTRA:                   0.000
UNBOUND:                 0.000

$$$$

     RDKit          3D

 17 18  0  0  0  0  0  0  0  0999 V2000
   45.7452    0.8735    8.5140 O   0  0  0  0  0  0  0  0  0  0  0  0
   46.6421    0.4587    7.5394 C   0  0  0  0  0  0  0  0  0  0  0  0
   47.0754    2.8119    6.9485 C   0  0  0  0  0  0  0  0  0  0  0  0
   45.4905    2.2416    8.7319 C   0  0  0  0  0  0  0  0  0  0  0  0
   47.3085    1.5108    6.7513 C   0  0  0  0  0  0  0  0  0  0  0  0
   46.1315    3.2210    7.9754 C   0  0  0  0  0  0  0  0  0  0  0  0
   46.8822   -0.7248    7.3289 O   0  0  0  0  0  0  0  0  0  0  0  0
   44.5760    2.5701    9.7299 C   0  0  0  0  0  0  0  0  0  0  0  0
   45.8458    4.5640    8.2287 C   0  0  0  0  0  0  0  0  0  0  0  0
   44.2961    3.9127    9.9771 C   0  0  0  0  0  0  0  0  0  0  0  0
   44.9295    4.9076    9.2282 C   0  0  0  0  0  0  0  0  0  0  0  0
   47.5770    3.5695    6.3568 H   0  0  0  0  0  0  0  0  0  0  0  0
   48.0037    1.1632    5.9971 H   0  0  0  0  0  0  0  0  0  0  0  0
   44.0885    1.7899   10.3070 H   0  0  0  0  0  0  0  0  0  0  0  0
   46.3281    5.3531    7.6571 H   0  0  0  0  0  0  0  0  0  0  0  0
   43.5847    4.1855   10.7527 H   0  0  0  0  0  0  0  0  0  0  0  0
   44.7087    5.9545    9.4237 H   0  0  0  0  0  0  0  0  0  0  0  0
  2  1  1  0
  3  6  1  0
  4  1  1  0
  5  2  1  0
  6  4  2  0
  7  2  2  0
  8  4  1  0
  9  6  1  0
 10  8  2  0
 11 10  1  0
  5  3  2  0
  9 11  2  0
  3 12  1  0
  5 13  1  0
  8 14  1  0
  9 15  1  0
 10 16  1  0
 11 17  1  0
M  END
> <Uni-Dock RESULT> 
ENERGY=   -5.519  LOWER_BOUND=    1.314  UPPER_BOUND=    3.675
INTER + INTRA:          -5.519
INTER:                  -5.519
INTRA:                   0.000
UNBOUND:                 0.000

$$$$

     RDKit          3D

 17 18  0  0  0  0  0  0  0  0999 V2000
   46.9346    3.5865    6.7526 O   0  0  0  0  0  0  0  0  0  0  0  0
   47.5786    2.5046    6.1687 C   0  0  0  0  0  0  0  0  0  0  0  0
   46.4676    0.9919    7.7663 C   0  0  0  0  0  0  0  0  0  0  0  0
   46.0555    3.4091    7.8387 C   0  0  0  0  0  0  0  0  0  0  0  0
   47.2996    1.1734    6.7362 C   0  0  0  0  0  0  0  0  0  0  0  0
   45.8052    2.1412    8.3605 C   0  0  0  0  0  0  0  0  0  0  0  0
   48.3483    2.6307    5.2231 O   0  0  0  0  0  0  0  0  0  0  0  0
   45.4514    4.5487    8.3646 C   0  0  0  0  0  0  0  0  0  0  0  0
   44.9258    2.0162    9.4379 C   0  0  0  0  0  0  0  0  0  0  0  0
   44.5748    4.4162    9.4397 C   0  0  0  0  0  0  0  0  0  0  0  0
   44.3124    3.1528    9.9754 C   0  0  0  0  0  0  0  0  0  0  0  0
   46.2768    0.0031    8.1681 H   0  0  0  0  0  0  0  0  0  0  0  0
   47.8133    0.3448    6.2644 H   0  0  0  0  0  0  0  0  0  0  0  0
   45.6614    5.5268    7.9418 H   0  0  0  0  0  0  0  0  0  0  0  0
   44.7084    1.0421    9.8688 H   0  0  0  0  0  0  0  0  0  0  0  0
   44.0953    5.2961    9.8615 H   0  0  0  0  0  0  0  0  0  0  0  0
   43.6278    3.0528   10.8145 H   0  0  0  0  0  0  0  0  0  0  0  0
  2  1  1  0
  3  6  1  0
  4  1  1  0
  5  2  1  0
  6  4  2  0
  7  2  2  0
  8  4  1  0
  9  6  1  0
 10  8  2  0
 11 10  1  0
  5  3  2  0
  9 11  2  0
  3 12  1  0
  5 13  1  0
  8 14  1  0
  9 15  1  0
 10 16  1  0
 11 17  1  0
M  END
> <Uni-Dock RESULT> 
ENERGY=   -5.503  LOWER_BOUND=    2.054  UPPER_BOUND=    4.434
INTER + INTRA:          -5.503
INTER:                  -5.503
INTRA:                   0.000
UNBOUND:                 0.000

$$$$

     RDKit          3D

 17 18  0  0  0  0  0  0  0  0999 V2000
   44.1880    5.3163   10.3010 O   0  0  0  0  0  0  0  0  0  0  0  0
   43.4159    5.0333   11.4190 C   0  0  0  0  0  0  0  0  0  0  0  0
   43.7662    2.6232   11.0405 C   0  0  0  0  0  0  0  0  0  0  0  0
   44.7614    4.2835    9.5337 C   0  0  0  0  0  0  0  0  0  0  0  0
   43.2275    3.6120   11.7603 C   0  0  0  0  0  0  0  0  0  0  0  0
   44.5710    2.9455    9.8738 C   0  0  0  0  0  0  0  0  0  0  0  0
   42.9054    5.9123   12.1041 O   0  0  0  0  0  0  0  0  0  0  0  0
   45.5219    4.6561    8.4278 C   0  0  0  0  0  0  0  0  0  0  0  0
   45.1598    1.9575    9.0821 C   0  0  0  0  0  0  0  0  0  0  0  0
   46.1065    3.6645    7.6424 C   0  0  0  0  0  0  0  0  0  0  0  0
   45.9260    2.3180    7.9686 C   0  0  0  0  0  0  0  0  0  0  0  0
   43.6145    1.5839   11.3098 H   0  0  0  0  0  0  0  0  0  0  0  0
   42.6216    3.4158   12.6364 H   0  0  0  0  0  0  0  0  0  0  0  0
   45.6568    5.7053    8.1817 H   0  0  0  0  0  0  0  0  0  0  0  0
   45.0314    0.9043    9.3192 H   0  0  0  0  0  0  0  0  0  0  0  0
   46.7031    3.9389    6.7758 H   0  0  0  0  0  0  0  0  0  0  0  0
   46.3837    1.5466    7.3535 H   0  0  0  0  0  0  0  0  0  0  0  0
  2  1  1  0
  3  6  1  0
  4  1  1  0
  5  2  1  0
  6  4  2  0
  7  2  2  0
  8  4  1  0
  9  6  1  0
 10  8  2  0
 11 10  1  0
  5  3  2  0
  9 11  2  0
  3 12  1  0
  5 13  1  0
  8 14  1  0
  9 15  1  0
 10 16  1  0
 11 17  1  0
M  END
> <Uni-Dock RESULT> 
ENERGY=   -4.792  LOWER_BOUND=    1.865  UPPER_BOUND=    3.155
INTER + INTRA:          -4.792
INTER:                  -4.792
INTRA:                   0.000
UNBOUND:                 0.000

$$$$

     RDKit          3D

 17 18  0  0  0  0  0  0  0  0999 V2000
   45.3796    1.4521    9.0786 O   0  0  0  0  0  0  0  0  0  0  0  0
   46.2008    1.4961    7.9606 C   0  0  0  0  0  0  0  0  0  0  0  0
   45.9363    3.9451    7.8733 C   0  0  0  0  0  0  0  0  0  0  0  0
   44.8226    2.6282    9.6178 C   0  0  0  0  0  0  0  0  0  0  0  0
   46.4586    2.8221    7.3711 C   0  0  0  0  0  0  0  0  0  0  0  0
   45.0792    3.8725    9.0450 C   0  0  0  0  0  0  0  0  0  0  0  0
   46.6982    0.4885    7.4711 O   0  0  0  0  0  0  0  0  0  0  0  0
   44.0099    2.4935   10.7410 C   0  0  0  0  0  0  0  0  0  0  0  0
   44.5041    5.0097    9.6157 C   0  0  0  0  0  0  0  0  0  0  0  0
   43.4395    3.6330   11.3051 C   0  0  0  0  0  0  0  0  0  0  0  0
   43.6859    4.8884   10.7439 C   0  0  0  0  0  0  0  0  0  0  0  0
   46.1393    4.9104    7.4234 H   0  0  0  0  0  0  0  0  0  0  0  0
   47.1019    2.8315    6.4998 H   0  0  0  0  0  0  0  0  0  0  0  0
   43.8238    1.5135   11.1704 H   0  0  0  0  0  0  0  0  0  0  0  0
   44.6837    5.9956    9.1941 H   0  0  0  0  0  0  0  0  0  0  0  0
   42.8027    3.5446   12.1820 H   0  0  0  0  0  0  0  0  0  0  0  0
   43.2392    5.7757   11.1866 H   0  0  0  0  0  0  0  0  0  0  0  0
  2  1  1  0
  3  6  1  0
  4  1  1  0
  5  2  1  0
  6  4  2  0
  7  2  2  0
  8  4  1  0
  9  6  1  0
 10  8  2  0
 11 10  1  0
  5  3  2  0
  9 11  2  0
  3 12  1  0
  5 13  1  0
  8 14  1  0
  9 15  1  0
 10 16  1  0
 11 17  1  0
M  END
> <Uni-Dock RESULT> 
ENERGY=   -4.752  LOWER_BOUND=    1.297  UPPER_BOUND=    3.944
INTER + INTRA:          -4.752
INTER:                  -4.752
INTRA:                   0.000
UNBOUND:                 0.000

$$$$

     RDKit          3D

 17 18  0  0  0  0  0  0  0  0999 V2000
   44.9861    3.6427   12.7529 O   0  0  0  0  0  0  0  0  0  0  0  0
   43.7442    3.3865   12.1886 C   0  0  0  0  0  0  0  0  0  0  0  0
   43.4444    5.7976   11.7744 C   0  0  0  0  0  0  0  0  0  0  0  0
   45.4856    4.9566   12.8439 C   0  0  0  0  0  0  0  0  0  0  0  0
   42.9814    4.5465   11.6939 C   0  0  0  0  0  0  0  0  0  0  0  0
   44.7480    6.0399   12.3698 C   0  0  0  0  0  0  0  0  0  0  0  0
   43.2857    2.2534   12.0970 O   0  0  0  0  0  0  0  0  0  0  0  0
   46.7406    5.1241   13.4244 C   0  0  0  0  0  0  0  0  0  0  0  0
   45.2858    7.3236   12.4824 C   0  0  0  0  0  0  0  0  0  0  0  0
   47.2709    6.4083   13.5333 C   0  0  0  0  0  0  0  0  0  0  0  0
   46.5452    7.5058   13.0634 C   0  0  0  0  0  0  0  0  0  0  0  0
   42.8660    6.6366   11.4040 H   0  0  0  0  0  0  0  0  0  0  0  0
   42.0157    4.3220   11.2579 H   0  0  0  0  0  0  0  0  0  0  0  0
   47.2976    4.2652   13.7870 H   0  0  0  0  0  0  0  0  0  0  0  0
   44.7370    8.1905   12.1228 H   0  0  0  0  0  0  0  0  0  0  0  0
   48.2493    6.5558   13.9840 H   0  0  0  0  0  0  0  0  0  0  0  0
   46.9619    8.5067   13.1500 H   0  0  0  0  0  0  0  0  0  0  0  0
  2  1  1  0
  3  6  1  0
  4  1  1  0
  5  2  1  0
  6  4  2  0
  7  2  2  0
  8  4  1  0
  9  6  1  0
 10  8  2  0
 11 10  1  0
  5  3  2  0
  9 11  2  0
  3 12  1  0
  5 13  1  0
  8 14  1  0
  9 15  1  0
 10 16  1  0
 11 17  1  0
M  END
> <Uni-Dock RESULT> 
ENERGY=   -3.568  LOWER_BOUND=    4.860  UPPER_BOUND=    5.618
INTER + INTRA:          -3.568
INTER:                  -3.568
INTRA:                   0.000
UNBOUND:                 0.000

$$$$

     RDKit          3D

 17 18  0  0  0  0  0  0  0  0999 V2000
   43.8897    6.6018   12.2099 O   0  0  0  0  0  0  0  0  0  0  0  0
   43.0373    5.5098   12.1251 C   0  0  0  0  0  0  0  0  0  0  0  0
   44.8181    4.0608   13.0218 C   0  0  0  0  0  0  0  0  0  0  0  0
   45.2053    6.4608   12.6930 C   0  0  0  0  0  0  0  0  0  0  0  0
   43.5720    4.2077   12.5616 C   0  0  0  0  0  0  0  0  0  0  0  0
   45.6915    5.2200   13.1009 C   0  0  0  0  0  0  0  0  0  0  0  0
   41.8883    5.6044   11.7086 O   0  0  0  0  0  0  0  0  0  0  0  0
   45.9933    7.6082   12.7448 C   0  0  0  0  0  0  0  0  0  0  0  0
   47.0027    5.1307   13.5725 C   0  0  0  0  0  0  0  0  0  0  0  0
   47.3009    7.5114   13.2167 C   0  0  0  0  0  0  0  0  0  0  0  0
   47.8047    6.2754   13.6297 C   0  0  0  0  0  0  0  0  0  0  0  0
   45.1910    3.0930   13.3376 H   0  0  0  0  0  0  0  0  0  0  0  0
   42.8888    3.3705   12.4863 H   0  0  0  0  0  0  0  0  0  0  0  0
   45.5932    8.5648   12.4216 H   0  0  0  0  0  0  0  0  0  0  0  0
   47.4134    4.1784   13.8986 H   0  0  0  0  0  0  0  0  0  0  0  0
   47.9288    8.3978   13.2633 H   0  0  0  0  0  0  0  0  0  0  0  0
   48.8258    6.2033   13.9974 H   0  0  0  0  0  0  0  0  0  0  0  0
  2  1  1  0
  3  6  1  0
  4  1  1  0
  5  2  1  0
  6  4  2  0
  7  2  2  0
  8  4  1  0
  9  6  1  0
 10  8  2  0
 11 10  1  0
  5  3  2  0
  9 11  2  0
  3 12  1  0
  5 13  1  0
  8 14  1  0
  9 15  1  0
 10 16  1  0
 11 17  1  0
M  END
> <Uni-Dock RESULT> 
ENERGY=   -3.556  LOWER_BOUND=    5.521  UPPER_BOUND=    6.253
INTER + INTRA:          -3.556
INTER:                  -3.556
INTRA:                   0.000
UNBOUND:                 0.000

$$$$
