
     RDKit          3D

 21 23  0  0  0  0  0  0  0  0999 V2000
   44.9452    3.7054    9.4351 C   0  0  0  0  0  0  0  0  0  0  0  0
   45.3120    2.4409    9.4280 N   0  0  0  0  0  0  0  0  0  0  0  0
   44.0966    4.4021   10.5359 C   0  0  0  0  0  0  0  0  0  0  0  0
   45.4062    4.3682    8.3296 N   0  0  0  0  0  0  0  0  0  0  0  0
   43.7661    5.7438   10.4438 N   0  0  0  0  0  0  0  0  0  0  0  0
   46.0381    2.2859    8.2712 C   0  0  0  0  0  0  0  0  0  0  0  0
   46.1129    3.4812    7.5621 C   0  0  0  0  0  0  0  0  0  0  0  0
   42.7398    4.8246   12.6334 S   0  0  0  0  0  0  0  0  0  0  0  0
   43.0504    6.0743   11.4975 C   0  0  0  0  0  0  0  0  0  0  0  0
   43.6304    3.7388   11.6504 C   0  0  0  0  0  0  0  0  0  0  0  0
   46.6692    1.1448    7.7554 C   0  0  0  0  0  0  0  0  0  0  0  0
   46.7901    3.6134    6.3484 C   0  0  0  0  0  0  0  0  0  0  0  0
   47.4136    2.4632    5.8501 C   0  0  0  0  0  0  0  0  0  0  0  0
   47.3562    1.2487    6.5389 C   0  0  0  0  0  0  0  0  0  0  0  0
   45.2380    5.3453    8.1396 H   0  0  0  0  0  0  0  0  0  0  0  0
   42.6732    7.0772   11.6495 H   0  0  0  0  0  0  0  0  0  0  0  0
   43.7705    2.7007   11.9181 H   0  0  0  0  0  0  0  0  0  0  0  0
   46.6211    0.2055    8.2947 H   0  0  0  0  0  0  0  0  0  0  0  0
   46.8351    4.5556    5.8133 H   0  0  0  0  0  0  0  0  0  0  0  0
   47.9540    2.5164    4.9070 H   0  0  0  0  0  0  0  0  0  0  0  0
   47.8501    0.3712    6.1278 H   0  0  0  0  0  0  0  0  0  0  0  0
  2  1  2  0
  3  1  1  0
  4  1  1  0
  5  3  1  0
  6  2  1  0
  7  4  1  0
  8 10  1  0
  9  5  2  0
 10  3  2  0
 11  6  2  0
 12  7  2  0
 13 12  1  0
 14 11  1  0
  6  7  1  0
  9  8  1  0
 14 13  2  0
  4 15  1  0
  9 16  1  0
 10 17  1  0
 11 18  1  0
 12 19  1  0
 13 20  1  0
 14 21  1  0
M  END
> <Uni-Dock RESULT> 
ENERGY=   -6.272  LOWER_BOUND=    0.000  UPPER_BOUND=    0.000
INTER + INTRA:          -6.272
INTER:                  -6.272
INTRA:                   0.000
UNBOUND:                 0.000

$$$$

     RDKit          3D

 21 23  0  0  0  0  0  0  0  0999 V2000
   44.9994    3.5696    9.3475 C   0  0  0  0  0  0  0  0  0  0  0  0
   45.3571    4.2863    8.3025 N   0  0  0  0  0  0  0  0  0  0  0  0
   44.1363    4.0665   10.5413 C   0  0  0  0  0  0  0  0  0  0  0  0
   45.4856    2.2922    9.2704 N   0  0  0  0  0  0  0  0  0  0  0  0
   43.8174    3.2251   11.5939 N   0  0  0  0  0  0  0  0  0  0  0  0
   46.1029    3.4343    7.5231 C   0  0  0  0  0  0  0  0  0  0  0  0
   46.1996    2.1749    8.1077 C   0  0  0  0  0  0  0  0  0  0  0  0
   42.7445    5.5303   12.0708 S   0  0  0  0  0  0  0  0  0  0  0  0
   43.0852    3.8929   12.4597 C   0  0  0  0  0  0  0  0  0  0  0  0
   43.6449    5.3515   10.6230 C   0  0  0  0  0  0  0  0  0  0  0  0
   46.7350    3.6670    6.2931 C   0  0  0  0  0  0  0  0  0  0  0  0
   46.8996    1.1127    7.5328 C   0  0  0  0  0  0  0  0  0  0  0  0
   47.5236    1.3648    6.3051 C   0  0  0  0  0  0  0  0  0  0  0  0
   47.4447    2.6186    5.6932 C   0  0  0  0  0  0  0  0  0  0  0  0
   45.3280    1.5794    9.9677 H   0  0  0  0  0  0  0  0  0  0  0  0
   42.7126    3.4435   13.3710 H   0  0  0  0  0  0  0  0  0  0  0  0
   43.7724    6.1622    9.9192 H   0  0  0  0  0  0  0  0  0  0  0  0
   46.6699    4.6421    5.8235 H   0  0  0  0  0  0  0  0  0  0  0  0
   46.9613    0.1394    8.0070 H   0  0  0  0  0  0  0  0  0  0  0  0
   48.0814    0.5676    5.8176 H   0  0  0  0  0  0  0  0  0  0  0  0
   47.9395    2.7858    4.7393 H   0  0  0  0  0  0  0  0  0  0  0  0
  2  1  2  0
  3  1  1  0
  4  1  1  0
  5  3  1  0
  6  2  1  0
  7  4  1  0
  8 10  1  0
  9  5  2  0
 10  3  2  0
 11  6  2  0
 12  7  2  0
 13 12  1  0
 14 11  1  0
  6  7  1  0
  9  8  1  0
 14 13  2  0
  4 15  1  0
  9 16  1  0
 10 17  1  0
 11 18  1  0
 12 19  1  0
 13 20  1  0
 14 21  1  0
M  END
> <Uni-Dock RESULT> 
ENERGY=   -6.124  LOWER_BOUND=    0.913  UPPER_BOUND=    1.926
INTER + INTRA:          -6.124
INTER:                  -6.124
INTRA:                   0.000
UNBOUND:                 0.000

$$$$

     RDKit          3D

 21 23  0  0  0  0  0  0  0  0999 V2000
   44.1022    7.5748   11.5159 C   0  0  0  0  0  0  0  0  0  0  0  0
   45.1319    7.0543   12.1503 N   0  0  0  0  0  0  0  0  0  0  0  0
   43.8900    9.0837   11.2068 C   0  0  0  0  0  0  0  0  0  0  0  0
   43.2034    6.6121   11.1426 N   0  0  0  0  0  0  0  0  0  0  0  0
   42.7653    9.5250   10.5301 N   0  0  0  0  0  0  0  0  0  0  0  0
   44.8839    5.7027   12.1855 C   0  0  0  0  0  0  0  0  0  0  0  0
   43.6788    5.3974   11.5595 C   0  0  0  0  0  0  0  0  0  0  0  0
   44.2242   11.5915   11.0720 S   0  0  0  0  0  0  0  0  0  0  0  0
   42.8366   10.8329   10.4031 C   0  0  0  0  0  0  0  0  0  0  0  0
   44.7922   10.0562   11.5807 C   0  0  0  0  0  0  0  0  0  0  0  0
   45.6482    4.6655   12.7392 C   0  0  0  0  0  0  0  0  0  0  0  0
   43.1780    4.0990   11.4485 C   0  0  0  0  0  0  0  0  0  0  0  0
   43.9554    3.0776   12.0074 C   0  0  0  0  0  0  0  0  0  0  0  0
   45.1695    3.3524   12.6422 C   0  0  0  0  0  0  0  0  0  0  0  0
   42.3445    6.7966   10.6453 H   0  0  0  0  0  0  0  0  0  0  0  0
   42.0673   11.4089    9.9053 H   0  0  0  0  0  0  0  0  0  0  0  0
   45.7260    9.9334   12.1115 H   0  0  0  0  0  0  0  0  0  0  0  0
   46.5893    4.8853   13.2304 H   0  0  0  0  0  0  0  0  0  0  0  0
   42.2359    3.8849   10.9560 H   0  0  0  0  0  0  0  0  0  0  0  0
   43.6066    2.0485   11.9460 H   0  0  0  0  0  0  0  0  0  0  0  0
   45.7526    2.5387   13.0675 H   0  0  0  0  0  0  0  0  0  0  0  0
  2  1  2  0
  3  1  1  0
  4  1  1  0
  5  3  1  0
  6  2  1  0
  7  4  1  0
  8 10  1  0
  9  5  2  0
 10  3  2  0
 11  6  2  0
 12  7  2  0
 13 12  1  0
 14 11  1  0
  6  7  1  0
  9  8  1  0
 14 13  2  0
  4 15  1  0
  9 16  1  0
 10 17  1  0
 11 18  1  0
 12 19  1  0
 13 20  1  0
 14 21  1  0
M  END
> <Uni-Dock RESULT> 
ENERGY=   -3.483  LOWER_BOUND=    4.717  UPPER_BOUND=    5.657
INTER + INTRA:          -3.483
INTER:                  -3.483
INTRA:                   0.000
UNBOUND:                 0.000

$$$$

     RDKit          3D

 21 23  0  0  0  0  0  0  0  0999 V2000
   44.1723    7.6398   11.5439 C   0  0  0  0  0  0  0  0  0  0  0  0
   43.2482    6.7787   11.1725 N   0  0  0  0  0  0  0  0  0  0  0  0
   44.1315    9.1768   11.3130 C   0  0  0  0  0  0  0  0  0  0  0  0
   45.2131    7.0170   12.1788 N   0  0  0  0  0  0  0  0  0  0  0  0
   45.1620    9.9940   11.7466 N   0  0  0  0  0  0  0  0  0  0  0  0
   43.7146    5.5535   11.5859 C   0  0  0  0  0  0  0  0  0  0  0  0
   44.9471    5.6743   12.2210 C   0  0  0  0  0  0  0  0  0  0  0  0
   43.3897   11.4937   10.6055 S   0  0  0  0  0  0  0  0  0  0  0  0
   44.8761   11.2379   11.4261 C   0  0  0  0  0  0  0  0  0  0  0  0
   43.0860    9.8080   10.6744 C   0  0  0  0  0  0  0  0  0  0  0  0
   43.1360    4.2830   11.4529 C   0  0  0  0  0  0  0  0  0  0  0  0
   45.6527    4.5881   12.7419 C   0  0  0  0  0  0  0  0  0  0  0  0
   45.0587    3.3284   12.5994 C   0  0  0  0  0  0  0  0  0  0  0  0
   43.8223    3.1749   11.9666 C   0  0  0  0  0  0  0  0  0  0  0  0
   46.0252    7.4930   12.5434 H   0  0  0  0  0  0  0  0  0  0  0  0
   45.5358   12.0627   11.6625 H   0  0  0  0  0  0  0  0  0  0  0  0
   42.1902    9.3659   10.2610 H   0  0  0  0  0  0  0  0  0  0  0  0
   42.1764    4.1707   10.9610 H   0  0  0  0  0  0  0  0  0  0  0  0
   46.6123    4.7063   13.2331 H   0  0  0  0  0  0  0  0  0  0  0  0
   45.5707    2.4509   12.9895 H   0  0  0  0  0  0  0  0  0  0  0  0
   43.3846    2.1840   11.8701 H   0  0  0  0  0  0  0  0  0  0  0  0
  2  1  2  0
  3  1  1  0
  4  1  1  0
  5  3  1  0
  6  2  1  0
  7  4  1  0
  8 10  1  0
  9  5  2  0
 10  3  2  0
 11  6  2  0
 12  7  2  0
 13 12  1  0
 14 11  1  0
  6  7  1  0
  9  8  1  0
 14 13  2  0
  4 15  1  0
  9 16  1  0
 10 17  1  0
 11 18  1  0
 12 19  1  0
 13 20  1  0
 14 21  1  0
M  END
> <Uni-Dock RESULT> 
ENERGY=   -3.414  LOWER_BOUND=    4.754  UPPER_BOUND=    5.746
INTER + INTRA:          -3.414
INTER:                  -3.414
INTRA:                   0.000
UNBOUND:                 0.000

$$$$

     RDKit          3D

 21 23  0  0  0  0  0  0  0  0999 V2000
   45.2477    7.6647   12.4086 C   0  0  0  0  0  0  0  0  0  0  0  0
   46.4479    7.8204   12.9272 N   0  0  0  0  0  0  0  0  0  0  0  0
   44.4217    6.3476   12.4016 C   0  0  0  0  0  0  0  0  0  0  0  0
   44.7852    8.8281   11.8547 N   0  0  0  0  0  0  0  0  0  0  0  0
   43.1633    6.2942   11.8261 N   0  0  0  0  0  0  0  0  0  0  0  0
   46.7686    9.1371   12.6970 C   0  0  0  0  0  0  0  0  0  0  0  0
   45.7417    9.7933   12.0247 C   0  0  0  0  0  0  0  0  0  0  0  0
   43.7060    3.9439   12.7609 S   0  0  0  0  0  0  0  0  0  0  0  0
   42.6916    5.0728   11.9578 C   0  0  0  0  0  0  0  0  0  0  0  0
   44.8833    5.1742   12.9580 C   0  0  0  0  0  0  0  0  0  0  0  0
   47.9282    9.8493   13.0354 C   0  0  0  0  0  0  0  0  0  0  0  0
   45.7986   11.1402   11.6618 C   0  0  0  0  0  0  0  0  0  0  0  0
   46.9642   11.8339   12.0085 C   0  0  0  0  0  0  0  0  0  0  0  0
   48.0124   11.2027   12.6835 C   0  0  0  0  0  0  0  0  0  0  0  0
   43.8872    8.9272   11.4043 H   0  0  0  0  0  0  0  0  0  0  0  0
   41.7176    4.7850   11.5837 H   0  0  0  0  0  0  0  0  0  0  0  0
   45.8275    4.9951   13.4532 H   0  0  0  0  0  0  0  0  0  0  0  0
   48.7380    9.3538   13.5592 H   0  0  0  0  0  0  0  0  0  0  0  0
   44.9856   11.6307   11.1380 H   0  0  0  0  0  0  0  0  0  0  0  0
   47.0554   12.8863   11.7469 H   0  0  0  0  0  0  0  0  0  0  0  0
   48.9063   11.7666   12.9401 H   0  0  0  0  0  0  0  0  0  0  0  0
  2  1  2  0
  3  1  1  0
  4  1  1  0
  5  3  1  0
  6  2  1  0
  7  4  1  0
  8 10  1  0
  9  5  2  0
 10  3  2  0
 11  6  2  0
 12  7  2  0
 13 12  1  0
 14 11  1  0
  6  7  1  0
  9  8  1  0
 14 13  2  0
  4 15  1  0
  9 16  1  0
 10 17  1  0
 11 18  1  0
 12 19  1  0
 13 20  1  0
 14 21  1  0
M  END
> <Uni-Dock RESULT> 
ENERGY=   -3.401  LOWER_BOUND=    5.076  UPPER_BOUND=    7.068
INTER + INTRA:          -3.401
INTER:                  -3.401
INTRA:                   0.000
UNBOUND:                 0.000

$$$$

     RDKit          3D

 21 23  0  0  0  0  0  0  0  0999 V2000
   46.5990    6.4473   13.2893 C   0  0  0  0  0  0  0  0  0  0  0  0
   45.3998    6.8673   12.9442 N   0  0  0  0  0  0  0  0  0  0  0  0
   47.7638    7.3390   13.8045 C   0  0  0  0  0  0  0  0  0  0  0  0
   46.7181    5.0916   13.1413 N   0  0  0  0  0  0  0  0  0  0  0  0
   48.9904    6.7914   14.1411 N   0  0  0  0  0  0  0  0  0  0  0  0
   44.7217    5.7353   12.5592 C   0  0  0  0  0  0  0  0  0  0  0  0
   45.5265    4.6054   12.6732 C   0  0  0  0  0  0  0  0  0  0  0  0
   49.1269    9.3436   14.5409 S   0  0  0  0  0  0  0  0  0  0  0  0
   49.7871    7.7585   14.5431 C   0  0  0  0  0  0  0  0  0  0  0  0
   47.6483    8.7041   13.9550 C   0  0  0  0  0  0  0  0  0  0  0  0
   43.4055    5.5928   12.0968 C   0  0  0  0  0  0  0  0  0  0  0  0
   45.0940    3.3182   12.3493 C   0  0  0  0  0  0  0  0  0  0  0  0
   43.7772    3.1966   11.8896 C   0  0  0  0  0  0  0  0  0  0  0  0
   42.9449    4.3121   11.7644 C   0  0  0  0  0  0  0  0  0  0  0  0
   47.5549    4.5669   13.3500 H   0  0  0  0  0  0  0  0  0  0  0  0
   50.8055    7.5753   14.8601 H   0  0  0  0  0  0  0  0  0  0  0  0
   46.7894    9.3288   13.7529 H   0  0  0  0  0  0  0  0  0  0  0  0
   42.7648    6.4622   12.0020 H   0  0  0  0  0  0  0  0  0  0  0  0
   45.7393    2.4520   12.4461 H   0  0  0  0  0  0  0  0  0  0  0  0
   43.3943    2.2131   11.6245 H   0  0  0  0  0  0  0  0  0  0  0  0
   41.9261    4.1878   11.4045 H   0  0  0  0  0  0  0  0  0  0  0  0
  2  1  2  0
  3  1  1  0
  4  1  1  0
  5  3  1  0
  6  2  1  0
  7  4  1  0
  8 10  1  0
  9  5  2  0
 10  3  2  0
 11  6  2  0
 12  7  2  0
 13 12  1  0
 14 11  1  0
  6  7  1  0
  9  8  1  0
 14 13  2  0
  4 15  1  0
  9 16  1  0
 10 17  1  0
 11 18  1  0
 12 19  1  0
 13 20  1  0
 14 21  1  0
M  END
> <Uni-Dock RESULT> 
ENERGY=   -3.364  LOWER_BOUND=    4.900  UPPER_BOUND=    6.437
INTER + INTRA:          -3.364
INTER:                  -3.364
INTRA:                   0.000
UNBOUND:                 0.000

$$$$

     RDKit          3D

 21 23  0  0  0  0  0  0  0  0999 V2000
   44.3181    6.8145   11.6704 C   0  0  0  0  0  0  0  0  0  0  0  0
   43.4020    7.5637   11.0932 N   0  0  0  0  0  0  0  0  0  0  0  0
   44.2710    5.2673   11.8157 C   0  0  0  0  0  0  0  0  0  0  0  0
   45.3560    7.5687   12.1477 N   0  0  0  0  0  0  0  0  0  0  0  0
   45.2930    4.5753   12.4438 N   0  0  0  0  0  0  0  0  0  0  0  0
   43.8711    8.8510   11.2045 C   0  0  0  0  0  0  0  0  0  0  0  0
   45.0970    8.8830   11.8629 C   0  0  0  0  0  0  0  0  0  0  0  0
   43.5235    2.8504   11.6786 S   0  0  0  0  0  0  0  0  0  0  0  0
   45.0034    3.2918   12.4291 C   0  0  0  0  0  0  0  0  0  0  0  0
   43.2282    4.5040   11.3368 C   0  0  0  0  0  0  0  0  0  0  0  0
   43.3006   10.0539   10.7638 C   0  0  0  0  0  0  0  0  0  0  0  0
   45.8035   10.0605   12.1145 C   0  0  0  0  0  0  0  0  0  0  0  0
   45.2177   11.2506   11.6669 C   0  0  0  0  0  0  0  0  0  0  0  0
   43.9881   11.2510   11.0029 C   0  0  0  0  0  0  0  0  0  0  0  0
   46.1621    7.1920   12.6245 H   0  0  0  0  0  0  0  0  0  0  0  0
   45.6564    2.5461   12.8639 H   0  0  0  0  0  0  0  0  0  0  0  0
   42.3387    4.8363   10.8199 H   0  0  0  0  0  0  0  0  0  0  0  0
   42.3464   10.0474   10.2492 H   0  0  0  0  0  0  0  0  0  0  0  0
   46.7578   10.0610   12.6296 H   0  0  0  0  0  0  0  0  0  0  0  0
   45.7307   12.1947   11.8397 H   0  0  0  0  0  0  0  0  0  0  0  0
   43.5566   12.1909   10.6663 H   0  0  0  0  0  0  0  0  0  0  0  0
  2  1  2  0
  3  1  1  0
  4  1  1  0
  5  3  1  0
  6  2  1  0
  7  4  1  0
  8 10  1  0
  9  5  2  0
 10  3  2  0
 11  6  2  0
 12  7  2  0
 13 12  1  0
 14 11  1  0
  6  7  1  0
  9  8  1  0
 14 13  2  0
  4 15  1  0
  9 16  1  0
 10 17  1  0
 11 18  1  0
 12 19  1  0
 13 20  1  0
 14 21  1  0
M  END
> <Uni-Dock RESULT> 
ENERGY=   -3.358  LOWER_BOUND=    4.279  UPPER_BOUND=    6.704
INTER + INTRA:          -3.358
INTER:                  -3.358
INTRA:                   0.000
UNBOUND:                 0.000

$$$$

     RDKit          3D

 21 23  0  0  0  0  0  0  0  0999 V2000
   46.5826    4.2342   14.2575 C   0  0  0  0  0  0  0  0  0  0  0  0
   46.0349    5.3900   13.9447 N   0  0  0  0  0  0  0  0  0  0  0  0
   47.5361    3.9726   15.4574 C   0  0  0  0  0  0  0  0  0  0  0  0
   46.2111    3.2492   13.3825 N   0  0  0  0  0  0  0  0  0  0  0  0
   48.0581    2.7123   15.6960 N   0  0  0  0  0  0  0  0  0  0  0  0
   45.2811    5.1364   12.8235 C   0  0  0  0  0  0  0  0  0  0  0  0
   45.3738    3.7991   12.4487 C   0  0  0  0  0  0  0  0  0  0  0  0
   48.9635    4.3028   17.5244 S   0  0  0  0  0  0  0  0  0  0  0  0
   48.8261    2.7699   16.7631 C   0  0  0  0  0  0  0  0  0  0  0  0
   47.9128    4.9612   16.3407 C   0  0  0  0  0  0  0  0  0  0  0  0
   44.4843    6.0051   12.0641 C   0  0  0  0  0  0  0  0  0  0  0  0
   44.7097    3.2630   11.3439 C   0  0  0  0  0  0  0  0  0  0  0  0
   43.9193    4.1461   10.5986 C   0  0  0  0  0  0  0  0  0  0  0  0
   43.8063    5.4940   10.9497 C   0  0  0  0  0  0  0  0  0  0  0  0
   46.5182    2.2893   13.4412 H   0  0  0  0  0  0  0  0  0  0  0  0
   49.3475    1.9032   17.1483 H   0  0  0  0  0  0  0  0  0  0  0  0
   47.6255    6.0034   16.3400 H   0  0  0  0  0  0  0  0  0  0  0  0
   44.4007    7.0498   12.3417 H   0  0  0  0  0  0  0  0  0  0  0  0
   44.7969    2.2172   11.0708 H   0  0  0  0  0  0  0  0  0  0  0  0
   43.3820    3.7749    9.7281 H   0  0  0  0  0  0  0  0  0  0  0  0
   43.1850    6.1571   10.3521 H   0  0  0  0  0  0  0  0  0  0  0  0
  2  1  2  0
  3  1  1  0
  4  1  1  0
  5  3  1  0
  6  2  1  0
  7  4  1  0
  8 10  1  0
  9  5  2  0
 10  3  2  0
 11  6  2  0
 12  7  2  0
 13 12  1  0
 14 11  1  0
  6  7  1  0
  9  8  1  0
 14 13  2  0
  4 15  1  0
  9 16  1  0
 10 17  1  0
 11 18  1  0
 12 19  1  0
 13 20  1  0
 14 21  1  0
M  END
> <Uni-Dock RESULT> 
ENERGY=   -3.343  LOWER_BOUND=    4.636  UPPER_BOUND=    6.378
INTER + INTRA:          -3.343
INTER:                  -3.343
INTRA:                   0.000
UNBOUND:                 0.000

$$$$

     RDKit          3D

 21 23  0  0  0  0  0  0  0  0999 V2000
   51.3902    2.3772   17.7486 C   0  0  0  0  0  0  0  0  0  0  0  0
   51.0944    3.5002   18.3692 N   0  0  0  0  0  0  0  0  0  0  0  0
   52.7511    1.6286   17.8181 C   0  0  0  0  0  0  0  0  0  0  0  0
   50.3342    1.9200   17.0071 N   0  0  0  0  0  0  0  0  0  0  0  0
   52.9562    0.4489   17.1224 N   0  0  0  0  0  0  0  0  0  0  0  0
   49.7959    3.7747   18.0115 C   0  0  0  0  0  0  0  0  0  0  0  0
   49.2940    2.7981   17.1563 C   0  0  0  0  0  0  0  0  0  0  0  0
   55.1376    1.0052   18.3968 S   0  0  0  0  0  0  0  0  0  0  0  0
   54.1821    0.0309   17.3547 C   0  0  0  0  0  0  0  0  0  0  0  0
   53.8168    2.0852   18.5633 C   0  0  0  0  0  0  0  0  0  0  0  0
   48.9727    4.8484   18.3804 C   0  0  0  0  0  0  0  0  0  0  0  0
   47.9988    2.8245   16.6358 C   0  0  0  0  0  0  0  0  0  0  0  0
   47.1926    3.9042   17.0158 C   0  0  0  0  0  0  0  0  0  0  0  0
   47.6680    4.9003   17.8728 C   0  0  0  0  0  0  0  0  0  0  0  0
   50.3493    1.0755   16.4542 H   0  0  0  0  0  0  0  0  0  0  0  0
   54.5766   -0.8772   16.9174 H   0  0  0  0  0  0  0  0  0  0  0  0
   53.8725    2.9746   19.1753 H   0  0  0  0  0  0  0  0  0  0  0  0
   49.3475    5.6180   19.0458 H   0  0  0  0  0  0  0  0  0  0  0  0
   47.6292    2.0518   15.9707 H   0  0  0  0  0  0  0  0  0  0  0  0
   46.1750    3.9687   16.6357 H   0  0  0  0  0  0  0  0  0  0  0  0
   47.0192    5.7277   18.1511 H   0  0  0  0  0  0  0  0  0  0  0  0
  2  1  2  0
  3  1  1  0
  4  1  1  0
  5  3  1  0
  6  2  1  0
  7  4  1  0
  8 10  1  0
  9  5  2  0
 10  3  2  0
 11  6  2  0
 12  7  2  0
 13 12  1  0
 14 11  1  0
  6  7  1  0
  9  8  1  0
 14 13  2  0
  4 15  1  0
  9 16  1  0
 10 17  1  0
 11 18  1  0
 12 19  1  0
 13 20  1  0
 14 21  1  0
M  END
> <Uni-Dock RESULT> 
ENERGY=   -3.302  LOWER_BOUND=   10.032  UPPER_BOUND=   11.644
INTER + INTRA:          -3.302
INTER:                  -3.302
INTRA:                   0.000
UNBOUND:                 0.000

$$$$
