
     RDKit          3D

 21 23  0  0  0  0  0  0  0  0999 V2000
   45.3316    3.3668    9.0584 C   0  0  0  0  0  0  0  0  0  0  0  0
   44.8127    4.5757    9.1114 N   0  0  0  0  0  0  0  0  0  0  0  0
   46.1713    2.7860    7.8860 C   0  0  0  0  0  0  0  0  0  0  0  0
   45.0436    2.6467   10.1866 N   0  0  0  0  0  0  0  0  0  0  0  0
   46.6716    1.4956    7.9335 N   0  0  0  0  0  0  0  0  0  0  0  0
   44.1654    4.6340   10.3227 C   0  0  0  0  0  0  0  0  0  0  0  0
   44.2945    3.4355   11.0185 C   0  0  0  0  0  0  0  0  0  0  0  0
   47.4026    2.5451    5.6848 S   0  0  0  0  0  0  0  0  0  0  0  0
   47.3384    1.2614    6.8235 C   0  0  0  0  0  0  0  0  0  0  0  0
   46.4637    3.5072    6.7485 C   0  0  0  0  0  0  0  0  0  0  0  0
   43.4399    5.6854   10.9015 C   0  0  0  0  0  0  0  0  0  0  0  0
   43.7356    3.2146   12.2787 C   0  0  0  0  0  0  0  0  0  0  0  0
   43.0153    4.2760   12.8394 C   0  0  0  0  0  0  0  0  0  0  0  0
   42.8680    5.4914   12.1656 C   0  0  0  0  0  0  0  0  0  0  0  0
   45.3458    1.6974   10.3493 H   0  0  0  0  0  0  0  0  0  0  0  0
   47.8239    0.3139    6.6288 H   0  0  0  0  0  0  0  0  0  0  0  0
   46.1758    4.5210    6.5071 H   0  0  0  0  0  0  0  0  0  0  0  0
   43.3294    6.6257   10.3733 H   0  0  0  0  0  0  0  0  0  0  0  0
   43.8494    2.2718   12.8022 H   0  0  0  0  0  0  0  0  0  0  0  0
   42.5607    4.1517   13.8205 H   0  0  0  0  0  0  0  0  0  0  0  0
   42.3029    6.2986   12.6255 H   0  0  0  0  0  0  0  0  0  0  0  0
  2  1  2  0
  3  1  1  0
  4  1  1  0
  5  3  1  0
  6  2  1  0
  7  4  1  0
  8 10  1  0
  9  5  2  0
 10  3  2  0
 11  6  2  0
 12  7  2  0
 13 12  1  0
 14 11  1  0
  6  7  1  0
  9  8  1  0
 14 13  2  0
  4 15  1  0
  9 16  1  0
 10 17  1  0
 11 18  1  0
 12 19  1  0
 13 20  1  0
 14 21  1  0
M  END
> <Uni-Dock RESULT> 
ENERGY=   -5.386  LOWER_BOUND=    0.000  UPPER_BOUND=    0.000
INTER + INTRA:          -5.386
INTER:                  -5.386
INTRA:                   0.000
UNBOUND:                 0.000

$$$$

     RDKit          3D

 21 23  0  0  0  0  0  0  0  0999 V2000
   45.2448    7.6634   12.4065 C   0  0  0  0  0  0  0  0  0  0  0  0
   46.4450    7.8190   12.9250 N   0  0  0  0  0  0  0  0  0  0  0  0
   44.4190    6.3462   12.3989 C   0  0  0  0  0  0  0  0  0  0  0  0
   44.7819    8.8270   11.8533 N   0  0  0  0  0  0  0  0  0  0  0  0
   43.1605    6.2928   11.8234 N   0  0  0  0  0  0  0  0  0  0  0  0
   46.7655    9.1359   12.6954 C   0  0  0  0  0  0  0  0  0  0  0  0
   45.7383    9.7923   12.0237 C   0  0  0  0  0  0  0  0  0  0  0  0
   43.7037    3.9422   12.7570 S   0  0  0  0  0  0  0  0  0  0  0  0
   42.6890    5.0713   11.9547 C   0  0  0  0  0  0  0  0  0  0  0  0
   44.8809    5.1726   12.9545 C   0  0  0  0  0  0  0  0  0  0  0  0
   47.9249    9.8483   13.0342 C   0  0  0  0  0  0  0  0  0  0  0  0
   45.7949   11.1395   11.6614 C   0  0  0  0  0  0  0  0  0  0  0  0
   46.9604   11.8331   12.0084 C   0  0  0  0  0  0  0  0  0  0  0  0
   48.0089   11.2018   12.6829 C   0  0  0  0  0  0  0  0  0  0  0  0
   43.8839    8.9261   11.4030 H   0  0  0  0  0  0  0  0  0  0  0  0
   41.7151    4.7835   11.5805 H   0  0  0  0  0  0  0  0  0  0  0  0
   45.8251    4.9934   13.4496 H   0  0  0  0  0  0  0  0  0  0  0  0
   48.7348    9.3525   13.5575 H   0  0  0  0  0  0  0  0  0  0  0  0
   44.9817   11.6300   11.1380 H   0  0  0  0  0  0  0  0  0  0  0  0
   47.0513   12.8858   11.7473 H   0  0  0  0  0  0  0  0  0  0  0  0
   48.9026   11.7657   12.9397 H   0  0  0  0  0  0  0  0  0  0  0  0
  2  1  2  0
  3  1  1  0
  4  1  1  0
  5  3  1  0
  6  2  1  0
  7  4  1  0
  8 10  1  0
  9  5  2  0
 10  3  2  0
 11  6  2  0
 12  7  2  0
 13 12  1  0
 14 11  1  0
  6  7  1  0
  9  8  1  0
 14 13  2  0
  4 15  1  0
  9 16  1  0
 10 17  1  0
 11 18  1  0
 12 19  1  0
 13 20  1  0
 14 21  1  0
M  END
> <Uni-Dock RESULT> 
ENERGY=   -3.400  LOWER_BOUND=    5.227  UPPER_BOUND=    6.945
INTER + INTRA:          -3.400
INTER:                  -3.400
INTRA:                   0.000
UNBOUND:                 0.000

$$$$

     RDKit          3D

 21 23  0  0  0  0  0  0  0  0999 V2000
   46.6001    6.4460   13.2917 C   0  0  0  0  0  0  0  0  0  0  0  0
   45.4011    6.8663   12.9460 N   0  0  0  0  0  0  0  0  0  0  0  0
   47.7645    7.3373   13.8080 C   0  0  0  0  0  0  0  0  0  0  0  0
   46.7192    5.0902   13.1434 N   0  0  0  0  0  0  0  0  0  0  0  0
   48.9909    6.7895   14.1452 N   0  0  0  0  0  0  0  0  0  0  0  0
   44.7232    5.7344   12.5602 C   0  0  0  0  0  0  0  0  0  0  0  0
   45.5278    4.6045   12.6743 C   0  0  0  0  0  0  0  0  0  0  0  0
   49.1274    9.3416   14.5461 S   0  0  0  0  0  0  0  0  0  0  0  0
   49.7874    7.7564   14.5482 C   0  0  0  0  0  0  0  0  0  0  0  0
   47.6491    8.7024   13.9589 C   0  0  0  0  0  0  0  0  0  0  0  0
   43.4072    5.5921   12.0969 C   0  0  0  0  0  0  0  0  0  0  0  0
   45.0953    3.3173   12.3496 C   0  0  0  0  0  0  0  0  0  0  0  0
   43.7789    3.1961   11.8891 C   0  0  0  0  0  0  0  0  0  0  0  0
   42.9466    4.3117   11.7637 C   0  0  0  0  0  0  0  0  0  0  0  0
   47.5558    4.5655   13.3524 H   0  0  0  0  0  0  0  0  0  0  0  0
   50.8057    7.5730   14.8658 H   0  0  0  0  0  0  0  0  0  0  0  0
   46.7904    9.3273   13.7565 H   0  0  0  0  0  0  0  0  0  0  0  0
   42.7667    6.4617   12.0019 H   0  0  0  0  0  0  0  0  0  0  0  0
   45.7406    2.4511   12.4466 H   0  0  0  0  0  0  0  0  0  0  0  0
   43.3960    2.2126   11.6233 H   0  0  0  0  0  0  0  0  0  0  0  0
   41.9283    4.1876   11.4032 H   0  0  0  0  0  0  0  0  0  0  0  0
  2  1  2  0
  3  1  1  0
  4  1  1  0
  5  3  1  0
  6  2  1  0
  7  4  1  0
  8 10  1  0
  9  5  2  0
 10  3  2  0
 11  6  2  0
 12  7  2  0
 13 12  1  0
 14 11  1  0
  6  7  1  0
  9  8  1  0
 14 13  2  0
  4 15  1  0
  9 16  1  0
 10 17  1  0
 11 18  1  0
 12 19  1  0
 13 20  1  0
 14 21  1  0
M  END
> <Uni-Dock RESULT> 
ENERGY=   -3.363  LOWER_BOUND=    5.111  UPPER_BOUND=    6.169
INTER + INTRA:          -3.363
INTER:                  -3.363
INTRA:                   0.000
UNBOUND:                 0.000

$$$$

     RDKit          3D

 21 23  0  0  0  0  0  0  0  0999 V2000
   46.5825    4.2341   14.2573 C   0  0  0  0  0  0  0  0  0  0  0  0
   46.0345    5.3897   13.9447 N   0  0  0  0  0  0  0  0  0  0  0  0
   47.5359    3.9723   15.4571 C   0  0  0  0  0  0  0  0  0  0  0  0
   46.2112    3.2490   13.3820 N   0  0  0  0  0  0  0  0  0  0  0  0
   48.0582    2.7121   15.6955 N   0  0  0  0  0  0  0  0  0  0  0  0
   45.2808    5.1362   12.8234 C   0  0  0  0  0  0  0  0  0  0  0  0
   45.3739    3.7991   12.4484 C   0  0  0  0  0  0  0  0  0  0  0  0
   48.9630    4.3023   17.5243 S   0  0  0  0  0  0  0  0  0  0  0  0
   48.8260    2.7695   16.7626 C   0  0  0  0  0  0  0  0  0  0  0  0
   47.9123    4.9608   16.3406 C   0  0  0  0  0  0  0  0  0  0  0  0
   44.4838    6.0050   12.0641 C   0  0  0  0  0  0  0  0  0  0  0  0
   44.7100    3.2631   11.3433 C   0  0  0  0  0  0  0  0  0  0  0  0
   43.9195    4.1462   10.5983 C   0  0  0  0  0  0  0  0  0  0  0  0
   43.8060    5.4940   10.9495 C   0  0  0  0  0  0  0  0  0  0  0  0
   46.5186    2.2893   13.4404 H   0  0  0  0  0  0  0  0  0  0  0  0
   49.3477    1.9029   17.1477 H   0  0  0  0  0  0  0  0  0  0  0  0
   47.6248    6.0029   16.3403 H   0  0  0  0  0  0  0  0  0  0  0  0
   44.4000    7.0496   12.3420 H   0  0  0  0  0  0  0  0  0  0  0  0
   44.7976    2.2174   11.0700 H   0  0  0  0  0  0  0  0  0  0  0  0
   43.3823    3.7750    9.7275 H   0  0  0  0  0  0  0  0  0  0  0  0
   43.1847    6.1571   10.3522 H   0  0  0  0  0  0  0  0  0  0  0  0
  2  1  2  0
  3  1  1  0
  4  1  1  0
  5  3  1  0
  6  2  1  0
  7  4  1  0
  8 10  1  0
  9  5  2  0
 10  3  2  0
 11  6  2  0
 12  7  2  0
 13 12  1  0
 14 11  1  0
  6  7  1  0
  9  8  1  0
 14 13  2  0
  4 15  1  0
  9 16  1  0
 10 17  1  0
 11 18  1  0
 12 19  1  0
 13 20  1  0
 14 21  1  0
M  END
> <Uni-Dock RESULT> 
ENERGY=   -3.341  LOWER_BOUND=    5.022  UPPER_BOUND=    6.324
INTER + INTRA:          -3.341
INTER:                  -3.341
INTRA:                   0.000
UNBOUND:                 0.000

$$$$

     RDKit          3D

 21 23  0  0  0  0  0  0  0  0999 V2000
   44.1795    6.8646   11.6226 C   0  0  0  0  0  0  0  0  0  0  0  0
   43.2243    7.5567   11.0377 N   0  0  0  0  0  0  0  0  0  0  0  0
   44.2048    5.3210   11.8063 C   0  0  0  0  0  0  0  0  0  0  0  0
   45.1868    7.6769   12.0694 N   0  0  0  0  0  0  0  0  0  0  0  0
   45.2637    4.6921   12.4395 N   0  0  0  0  0  0  0  0  0  0  0  0
   43.6352    8.8664   11.1121 C   0  0  0  0  0  0  0  0  0  0  0  0
   44.8650    8.9705   11.7554 C   0  0  0  0  0  0  0  0  0  0  0  0
   43.5671    2.8700   11.7370 S   0  0  0  0  0  0  0  0  0  0  0  0
   45.0330    3.3968   12.4595 C   0  0  0  0  0  0  0  0  0  0  0  0
   43.1930    4.4995   11.3582 C   0  0  0  0  0  0  0  0  0  0  0  0
   43.0059   10.0308   10.6485 C   0  0  0  0  0  0  0  0  0  0  0  0
   45.5195   10.1849   11.9700 C   0  0  0  0  0  0  0  0  0  0  0  0
   44.8753   11.3355   11.5001 C   0  0  0  0  0  0  0  0  0  0  0  0
   43.6402   11.2635   10.8504 C   0  0  0  0  0  0  0  0  0  0  0  0
   46.0140    7.3492   12.5461 H   0  0  0  0  0  0  0  0  0  0  0  0
   45.7237    2.6926   12.9049 H   0  0  0  0  0  0  0  0  0  0  0  0
   42.2840    4.7779   10.8434 H   0  0  0  0  0  0  0  0  0  0  0  0
   42.0476    9.9680   10.1452 H   0  0  0  0  0  0  0  0  0  0  0  0
   46.4779   10.2415   12.4742 H   0  0  0  0  0  0  0  0  0  0  0  0
   45.3464   12.3060   11.6440 H   0  0  0  0  0  0  0  0  0  0  0  0
   43.1628   12.1740   10.4959 H   0  0  0  0  0  0  0  0  0  0  0  0
  2  1  2  0
  3  1  1  0
  4  1  1  0
  5  3  1  0
  6  2  1  0
  7  4  1  0
  8 10  1  0
  9  5  2  0
 10  3  2  0
 11  6  2  0
 12  7  2  0
 13 12  1  0
 14 11  1  0
  6  7  1  0
  9  8  1  0
 14 13  2  0
  4 15  1  0
  9 16  1  0
 10 17  1  0
 11 18  1  0
 12 19  1  0
 13 20  1  0
 14 21  1  0
M  END
> <Uni-Dock RESULT> 
ENERGY=   -3.328  LOWER_BOUND=    4.105  UPPER_BOUND=    5.734
INTER + INTRA:          -3.328
INTER:                  -3.328
INTRA:                   0.000
UNBOUND:                 0.000

$$$$

     RDKit          3D

 21 23  0  0  0  0  0  0  0  0999 V2000
   45.7718    7.9922   12.4140 C   0  0  0  0  0  0  0  0  0  0  0  0
   46.1403    6.8814   13.0174 N   0  0  0  0  0  0  0  0  0  0  0  0
   46.5427    9.3420   12.4393 C   0  0  0  0  0  0  0  0  0  0  0  0
   44.5938    7.8284   11.7360 N   0  0  0  0  0  0  0  0  0  0  0  0
   46.0634   10.4535   11.7667 N   0  0  0  0  0  0  0  0  0  0  0  0
   45.1589    5.9677   12.7144 C   0  0  0  0  0  0  0  0  0  0  0  0
   44.1752    6.5363   11.9106 C   0  0  0  0  0  0  0  0  0  0  0  0
   48.2800   11.1223   12.9209 S   0  0  0  0  0  0  0  0  0  0  0  0
   46.9011   11.4513   11.9519 C   0  0  0  0  0  0  0  0  0  0  0  0
   47.7289    9.5113   13.1205 C   0  0  0  0  0  0  0  0  0  0  0  0
   45.0391    4.6227   13.0928 C   0  0  0  0  0  0  0  0  0  0  0  0
   43.0583    5.8356   11.4515 C   0  0  0  0  0  0  0  0  0  0  0  0
   42.9568    4.4944   11.8400 C   0  0  0  0  0  0  0  0  0  0  0  0
   43.9282    3.8953   12.6463 C   0  0  0  0  0  0  0  0  0  0  0  0
   44.1356    8.5552   11.2061 H   0  0  0  0  0  0  0  0  0  0  0  0
   46.7389   12.4309   11.5211 H   0  0  0  0  0  0  0  0  0  0  0  0
   48.2742    8.7834   13.7049 H   0  0  0  0  0  0  0  0  0  0  0  0
   45.7963    4.1638   13.7186 H   0  0  0  0  0  0  0  0  0  0  0  0
   42.3040    6.2998   10.8258 H   0  0  0  0  0  0  0  0  0  0  0  0
   42.1034    3.9066   11.5069 H   0  0  0  0  0  0  0  0  0  0  0  0
   43.8232    2.8515   12.9326 H   0  0  0  0  0  0  0  0  0  0  0  0
  2  1  2  0
  3  1  1  0
  4  1  1  0
  5  3  1  0
  6  2  1  0
  7  4  1  0
  8 10  1  0
  9  5  2  0
 10  3  2  0
 11  6  2  0
 12  7  2  0
 13 12  1  0
 14 11  1  0
  6  7  1  0
  9  8  1  0
 14 13  2  0
  4 15  1  0
  9 16  1  0
 10 17  1  0
 11 18  1  0
 12 19  1  0
 13 20  1  0
 14 21  1  0
M  END
> <Uni-Dock RESULT> 
ENERGY=   -3.305  LOWER_BOUND=    5.149  UPPER_BOUND=    6.652
INTER + INTRA:          -3.305
INTER:                  -3.305
INTRA:                   0.000
UNBOUND:                 0.000

$$$$

     RDKit          3D

 21 23  0  0  0  0  0  0  0  0999 V2000
   45.7909    8.0243   12.4516 C   0  0  0  0  0  0  0  0  0  0  0  0
   44.6672    7.9099   11.7750 N   0  0  0  0  0  0  0  0  0  0  0  0
   46.6613    9.3077   12.5626 C   0  0  0  0  0  0  0  0  0  0  0  0
   46.1260    6.8503   13.0710 N   0  0  0  0  0  0  0  0  0  0  0  0
   47.8308    9.3183   13.3041 N   0  0  0  0  0  0  0  0  0  0  0  0
   44.2647    6.6097   11.9680 C   0  0  0  0  0  0  0  0  0  0  0  0
   45.1630    5.9216   12.7783 C   0  0  0  0  0  0  0  0  0  0  0  0
   47.5165   11.6768   12.2887 S   0  0  0  0  0  0  0  0  0  0  0  0
   48.3654   10.5184   13.2300 C   0  0  0  0  0  0  0  0  0  0  0  0
   46.3278   10.4916   11.9408 C   0  0  0  0  0  0  0  0  0  0  0  0
   43.1339    5.9397   11.4791 C   0  0  0  0  0  0  0  0  0  0  0  0
   45.0024    4.5824   13.1389 C   0  0  0  0  0  0  0  0  0  0  0  0
   43.8676    3.9312   12.6409 C   0  0  0  0  0  0  0  0  0  0  0  0
   42.9475    4.5950   11.8251 C   0  0  0  0  0  0  0  0  0  0  0  0
   46.9495    6.7212   13.6403 H   0  0  0  0  0  0  0  0  0  0  0  0
   49.2903   10.7721   13.7317 H   0  0  0  0  0  0  0  0  0  0  0  0
   45.4679   10.7019   11.3202 H   0  0  0  0  0  0  0  0  0  0  0  0
   42.4239    6.4605   10.8465 H   0  0  0  0  0  0  0  0  0  0  0  0
   45.7160    4.0666   13.7719 H   0  0  0  0  0  0  0  0  0  0  0  0
   43.6989    2.8863   12.8945 H   0  0  0  0  0  0  0  0  0  0  0  0
   42.0748    4.0638   11.4525 H   0  0  0  0  0  0  0  0  0  0  0  0
  2  1  2  0
  3  1  1  0
  4  1  1  0
  5  3  1  0
  6  2  1  0
  7  4  1  0
  8 10  1  0
  9  5  2  0
 10  3  2  0
 11  6  2  0
 12  7  2  0
 13 12  1  0
 14 11  1  0
  6  7  1  0
  9  8  1  0
 14 13  2  0
  4 15  1  0
  9 16  1  0
 10 17  1  0
 11 18  1  0
 12 19  1  0
 13 20  1  0
 14 21  1  0
M  END
> <Uni-Dock RESULT> 
ENERGY=   -3.240  LOWER_BOUND=    5.167  UPPER_BOUND=    6.484
INTER + INTRA:          -3.240
INTER:                  -3.240
INTRA:                   0.000
UNBOUND:                 0.000

$$$$

     RDKit          3D

 21 23  0  0  0  0  0  0  0  0999 V2000
   45.3259    7.6751   12.4238 C   0  0  0  0  0  0  0  0  0  0  0  0
   44.5034    8.6208   12.0203 N   0  0  0  0  0  0  0  0  0  0  0  0
   44.9588    6.1803   12.6425 C   0  0  0  0  0  0  0  0  0  0  0  0
   46.5864    8.1639   12.6390 N   0  0  0  0  0  0  0  0  0  0  0  0
   45.9058    5.2653   13.0710 N   0  0  0  0  0  0  0  0  0  0  0  0
   45.2671    9.7629   11.9747 C   0  0  0  0  0  0  0  0  0  0  0  0
   46.5797    9.5043   12.3585 C   0  0  0  0  0  0  0  0  0  0  0  0
   43.6670    4.0045   12.7703 S   0  0  0  0  0  0  0  0  0  0  0  0
   45.3343    4.0843   13.1729 C   0  0  0  0  0  0  0  0  0  0  0  0
   43.6913    5.6839   12.4271 C   0  0  0  0  0  0  0  0  0  0  0  0
   44.9058   11.0686   11.6122 C   0  0  0  0  0  0  0  0  0  0  0  0
   47.5738   10.4835   12.4047 C   0  0  0  0  0  0  0  0  0  0  0  0
   47.1934   11.7803   12.0393 C   0  0  0  0  0  0  0  0  0  0  0  0
   45.8834   12.0713   11.6494 C   0  0  0  0  0  0  0  0  0  0  0  0
   47.3680    7.6067   12.9515 H   0  0  0  0  0  0  0  0  0  0  0  0
   45.8771    3.2042   13.4925 H   0  0  0  0  0  0  0  0  0  0  0  0
   42.8117    6.2175   12.0948 H   0  0  0  0  0  0  0  0  0  0  0  0
   43.8877   11.2877   11.3106 H   0  0  0  0  0  0  0  0  0  0  0  0
   48.5905   10.2584   12.7073 H   0  0  0  0  0  0  0  0  0  0  0  0
   47.9336   12.5780   12.0595 H   0  0  0  0  0  0  0  0  0  0  0  0
   45.6164   13.0880   11.3708 H   0  0  0  0  0  0  0  0  0  0  0  0
  2  1  2  0
  3  1  1  0
  4  1  1  0
  5  3  1  0
  6  2  1  0
  7  4  1  0
  8 10  1  0
  9  5  2  0
 10  3  2  0
 11  6  2  0
 12  7  2  0
 13 12  1  0
 14 11  1  0
  6  7  1  0
  9  8  1  0
 14 13  2  0
  4 15  1  0
  9 16  1  0
 10 17  1  0
 11 18  1  0
 12 19  1  0
 13 20  1  0
 14 21  1  0
M  END
> <Uni-Dock RESULT> 
ENERGY=   -3.165  LOWER_BOUND=    5.189  UPPER_BOUND=    6.730
INTER + INTRA:          -3.165
INTER:                  -3.165
INTRA:                   0.000
UNBOUND:                 0.000

$$$$

     RDKit          3D

 21 23  0  0  0  0  0  0  0  0999 V2000
   45.1197    8.0367   12.1631 C   0  0  0  0  0  0  0  0  0  0  0  0
   46.2527    7.8341   12.8026 N   0  0  0  0  0  0  0  0  0  0  0  0
   44.5970    9.4069   11.6470 C   0  0  0  0  0  0  0  0  0  0  0  0
   44.4231    6.8704   11.9935 N   0  0  0  0  0  0  0  0  0  0  0  0
   43.3857    9.5077   10.9833 N   0  0  0  0  0  0  0  0  0  0  0  0
   46.2846    6.4829   13.0537 C   0  0  0  0  0  0  0  0  0  0  0  0
   45.1474    5.8534   12.5561 C   0  0  0  0  0  0  0  0  0  0  0  0
   44.4124   11.8782   11.1203 S   0  0  0  0  0  0  0  0  0  0  0  0
   43.1869   10.7674   10.6590 C   0  0  0  0  0  0  0  0  0  0  0  0
   45.2948   10.5833   11.8154 C   0  0  0  0  0  0  0  0  0  0  0  0
   47.2598    5.7155   13.7068 C   0  0  0  0  0  0  0  0  0  0  0  0
   44.9165    4.4812   12.6706 C   0  0  0  0  0  0  0  0  0  0  0  0
   45.9015    3.7326   13.3257 C   0  0  0  0  0  0  0  0  0  0  0  0
   47.0541    4.3358   13.8361 C   0  0  0  0  0  0  0  0  0  0  0  0
   43.5296    6.8028   11.5287 H   0  0  0  0  0  0  0  0  0  0  0  0
   42.3018   11.0962   10.1299 H   0  0  0  0  0  0  0  0  0  0  0  0
   46.2502   10.7307   12.2995 H   0  0  0  0  0  0  0  0  0  0  0  0
   48.1518    6.1897   14.1005 H   0  0  0  0  0  0  0  0  0  0  0  0
   44.0223    4.0124   12.2749 H   0  0  0  0  0  0  0  0  0  0  0  0
   45.7665    2.6586   13.4397 H   0  0  0  0  0  0  0  0  0  0  0  0
   47.8026    3.7293   14.3405 H   0  0  0  0  0  0  0  0  0  0  0  0
  2  1  2  0
  3  1  1  0
  4  1  1  0
  5  3  1  0
  6  2  1  0
  7  4  1  0
  8 10  1  0
  9  5  2  0
 10  3  2  0
 11  6  2  0
 12  7  2  0
 13 12  1  0
 14 11  1  0
  6  7  1  0
  9  8  1  0
 14 13  2  0
  4 15  1  0
  9 16  1  0
 10 17  1  0
 11 18  1  0
 12 19  1  0
 13 20  1  0
 14 21  1  0
M  END
> <Uni-Dock RESULT> 
ENERGY=   -3.147  LOWER_BOUND=    5.142  UPPER_BOUND=    6.705
INTER + INTRA:          -3.147
INTER:                  -3.147
INTRA:                   0.000
UNBOUND:                 0.000

$$$$
