
     RDKit          3D

 21 23  0  0  0  0  0  0  0  0999 V2000
   44.9996    3.5695    9.3472 C   0  0  0  0  0  0  0  0  0  0  0  0
   45.3573    4.2863    8.3023 N   0  0  0  0  0  0  0  0  0  0  0  0
   44.1363    4.0664   10.5410 C   0  0  0  0  0  0  0  0  0  0  0  0
   45.4857    2.2921    9.2701 N   0  0  0  0  0  0  0  0  0  0  0  0
   43.8173    3.2250   11.5935 N   0  0  0  0  0  0  0  0  0  0  0  0
   46.1031    3.4344    7.5229 C   0  0  0  0  0  0  0  0  0  0  0  0
   46.1997    2.1750    8.1074 C   0  0  0  0  0  0  0  0  0  0  0  0
   42.7444    5.5302   12.0704 S   0  0  0  0  0  0  0  0  0  0  0  0
   43.0850    3.8927   12.4592 C   0  0  0  0  0  0  0  0  0  0  0  0
   43.6450    5.3515   10.6226 C   0  0  0  0  0  0  0  0  0  0  0  0
   46.7353    3.6670    6.2930 C   0  0  0  0  0  0  0  0  0  0  0  0
   46.8998    1.1127    7.5325 C   0  0  0  0  0  0  0  0  0  0  0  0
   47.5239    1.3647    6.3050 C   0  0  0  0  0  0  0  0  0  0  0  0
   47.4451    2.6187    5.6931 C   0  0  0  0  0  0  0  0  0  0  0  0
   45.3280    1.5793    9.9674 H   0  0  0  0  0  0  0  0  0  0  0  0
   42.7123    3.4433   13.3706 H   0  0  0  0  0  0  0  0  0  0  0  0
   43.7725    6.1622    9.9190 H   0  0  0  0  0  0  0  0  0  0  0  0
   46.6704    4.6421    5.8235 H   0  0  0  0  0  0  0  0  0  0  0  0
   46.9614    0.1394    8.0067 H   0  0  0  0  0  0  0  0  0  0  0  0
   48.0818    0.5676    5.8174 H   0  0  0  0  0  0  0  0  0  0  0  0
   47.9399    2.7859    4.7392 H   0  0  0  0  0  0  0  0  0  0  0  0
  2  1  2  0
  3  1  1  0
  4  1  1  0
  5  3  1  0
  6  2  1  0
  7  4  1  0
  8 10  1  0
  9  5  2  0
 10  3  2  0
 11  6  2  0
 12  7  2  0
 13 12  1  0
 14 11  1  0
  6  7  1  0
  9  8  1  0
 14 13  2  0
  4 15  1  0
  9 16  1  0
 10 17  1  0
 11 18  1  0
 12 19  1  0
 13 20  1  0
 14 21  1  0
M  END
> <Uni-Dock RESULT> 
ENERGY=   -6.124  LOWER_BOUND=    0.000  UPPER_BOUND=    0.000
INTER + INTRA:          -6.124
INTER:                  -6.124
INTRA:                   0.000
UNBOUND:                 0.000

$$$$

     RDKit          3D

 21 23  0  0  0  0  0  0  0  0999 V2000
   45.3316    3.3677    9.0590 C   0  0  0  0  0  0  0  0  0  0  0  0
   44.8126    4.5766    9.1120 N   0  0  0  0  0  0  0  0  0  0  0  0
   46.1713    2.7869    7.8865 C   0  0  0  0  0  0  0  0  0  0  0  0
   45.0437    2.6477   10.1872 N   0  0  0  0  0  0  0  0  0  0  0  0
   46.6717    1.4966    7.9340 N   0  0  0  0  0  0  0  0  0  0  0  0
   44.1654    4.6348   10.3232 C   0  0  0  0  0  0  0  0  0  0  0  0
   44.2947    3.4365   11.0191 C   0  0  0  0  0  0  0  0  0  0  0  0
   47.4024    2.5460    5.6852 S   0  0  0  0  0  0  0  0  0  0  0  0
   47.3383    1.2624    6.8240 C   0  0  0  0  0  0  0  0  0  0  0  0
   46.4634    3.5082    6.7489 C   0  0  0  0  0  0  0  0  0  0  0  0
   43.4398    5.6861   10.9020 C   0  0  0  0  0  0  0  0  0  0  0  0
   43.7359    3.2156   12.2793 C   0  0  0  0  0  0  0  0  0  0  0  0
   43.0155    4.2768   12.8402 C   0  0  0  0  0  0  0  0  0  0  0  0
   42.8680    5.4922   12.1662 C   0  0  0  0  0  0  0  0  0  0  0  0
   45.3461    1.6984   10.3499 H   0  0  0  0  0  0  0  0  0  0  0  0
   47.8240    0.3149    6.6292 H   0  0  0  0  0  0  0  0  0  0  0  0
   46.1755    4.5218    6.5074 H   0  0  0  0  0  0  0  0  0  0  0  0
   43.3292    6.6265   10.3739 H   0  0  0  0  0  0  0  0  0  0  0  0
   43.8498    2.2728   12.8029 H   0  0  0  0  0  0  0  0  0  0  0  0
   42.5610    4.1526   13.8212 H   0  0  0  0  0  0  0  0  0  0  0  0
   42.3029    6.2994   12.6262 H   0  0  0  0  0  0  0  0  0  0  0  0
  2  1  2  0
  3  1  1  0
  4  1  1  0
  5  3  1  0
  6  2  1  0
  7  4  1  0
  8 10  1  0
  9  5  2  0
 10  3  2  0
 11  6  2  0
 12  7  2  0
 13 12  1  0
 14 11  1  0
  6  7  1  0
  9  8  1  0
 14 13  2  0
  4 15  1  0
  9 16  1  0
 10 17  1  0
 11 18  1  0
 12 19  1  0
 13 20  1  0
 14 21  1  0
M  END
> <Uni-Dock RESULT> 
ENERGY=   -5.382  LOWER_BOUND=    2.447  UPPER_BOUND=    5.586
INTER + INTRA:          -5.382
INTER:                  -5.382
INTRA:                   0.000
UNBOUND:                 0.000

$$$$

     RDKit          3D

 21 23  0  0  0  0  0  0  0  0999 V2000
   45.3030    3.3383    9.0537 C   0  0  0  0  0  0  0  0  0  0  0  0
   45.0835    2.6212   10.1360 N   0  0  0  0  0  0  0  0  0  0  0  0
   46.1101    2.8815    7.8059 C   0  0  0  0  0  0  0  0  0  0  0  0
   44.7244    4.5756    9.1452 N   0  0  0  0  0  0  0  0  0  0  0  0
   46.2807    3.7196    6.7168 N   0  0  0  0  0  0  0  0  0  0  0  0
   44.3336    3.4310   10.9552 C   0  0  0  0  0  0  0  0  0  0  0  0
   44.0935    4.6647   10.3574 C   0  0  0  0  0  0  0  0  0  0  0  0
   47.4937    1.4939    6.1998 S   0  0  0  0  0  0  0  0  0  0  0  0
   46.9959    3.0902    5.8092 C   0  0  0  0  0  0  0  0  0  0  0  0
   46.6942    1.6369    7.7095 C   0  0  0  0  0  0  0  0  0  0  0  0
   43.8169    3.1796   12.2344 C   0  0  0  0  0  0  0  0  0  0  0  0
   43.3569    5.6829   10.9656 C   0  0  0  0  0  0  0  0  0  0  0  0
   42.8496    5.4127   12.2421 C   0  0  0  0  0  0  0  0  0  0  0  0
   43.0737    4.1837   12.8685 C   0  0  0  0  0  0  0  0  0  0  0  0
   44.7718    5.2815    8.4251 H   0  0  0  0  0  0  0  0  0  0  0  0
   47.2617    3.5452    4.8637 H   0  0  0  0  0  0  0  0  0  0  0  0
   46.6850    0.8358    8.4354 H   0  0  0  0  0  0  0  0  0  0  0  0
   43.9944    2.2240   12.7149 H   0  0  0  0  0  0  0  0  0  0  0  0
   43.1826    6.6368   10.4802 H   0  0  0  0  0  0  0  0  0  0  0  0
   42.2688    6.1756   12.7570 H   0  0  0  0  0  0  0  0  0  0  0  0
   42.6674    4.0016   13.8606 H   0  0  0  0  0  0  0  0  0  0  0  0
  2  1  2  0
  3  1  1  0
  4  1  1  0
  5  3  1  0
  6  2  1  0
  7  4  1  0
  8 10  1  0
  9  5  2  0
 10  3  2  0
 11  6  2  0
 12  7  2  0
 13 12  1  0
 14 11  1  0
  6  7  1  0
  9  8  1  0
 14 13  2  0
  4 15  1  0
  9 16  1  0
 10 17  1  0
 11 18  1  0
 12 19  1  0
 13 20  1  0
 14 21  1  0
M  END
> <Uni-Dock RESULT> 
ENERGY=   -4.921  LOWER_BOUND=    2.478  UPPER_BOUND=    5.896
INTER + INTRA:          -4.921
INTER:                  -4.921
INTRA:                   0.000
UNBOUND:                 0.000

$$$$

     RDKit          3D

 21 23  0  0  0  0  0  0  0  0999 V2000
   44.1009    7.5758   11.5160 C   0  0  0  0  0  0  0  0  0  0  0  0
   45.1307    7.0554   12.1503 N   0  0  0  0  0  0  0  0  0  0  0  0
   43.8884    9.0845   11.2068 C   0  0  0  0  0  0  0  0  0  0  0  0
   43.2021    6.6129   11.1429 N   0  0  0  0  0  0  0  0  0  0  0  0
   42.7635    9.5257   10.5302 N   0  0  0  0  0  0  0  0  0  0  0  0
   44.8829    5.7039   12.1856 C   0  0  0  0  0  0  0  0  0  0  0  0
   43.6779    5.3983   11.5599 C   0  0  0  0  0  0  0  0  0  0  0  0
   44.2221   11.5924   11.0716 S   0  0  0  0  0  0  0  0  0  0  0  0
   42.8346   10.8334   10.4029 C   0  0  0  0  0  0  0  0  0  0  0  0
   44.7905   10.0572   11.5805 C   0  0  0  0  0  0  0  0  0  0  0  0
   45.6474    4.6668   12.7393 C   0  0  0  0  0  0  0  0  0  0  0  0
   43.1772    4.0998   11.4491 C   0  0  0  0  0  0  0  0  0  0  0  0
   43.9548    3.0786   12.0079 C   0  0  0  0  0  0  0  0  0  0  0  0
   45.1690    3.3536   12.6426 C   0  0  0  0  0  0  0  0  0  0  0  0
   42.3431    6.7972   10.6456 H   0  0  0  0  0  0  0  0  0  0  0  0
   42.0652   11.4093    9.9052 H   0  0  0  0  0  0  0  0  0  0  0  0
   45.7243    9.9347   12.1112 H   0  0  0  0  0  0  0  0  0  0  0  0
   46.5886    4.8869   13.2304 H   0  0  0  0  0  0  0  0  0  0  0  0
   42.2351    3.8856   10.9566 H   0  0  0  0  0  0  0  0  0  0  0  0
   43.6062    2.0494   11.9466 H   0  0  0  0  0  0  0  0  0  0  0  0
   45.7522    2.5401   13.0678 H   0  0  0  0  0  0  0  0  0  0  0  0
  2  1  2  0
  3  1  1  0
  4  1  1  0
  5  3  1  0
  6  2  1  0
  7  4  1  0
  8 10  1  0
  9  5  2  0
 10  3  2  0
 11  6  2  0
 12  7  2  0
 13 12  1  0
 14 11  1  0
  6  7  1  0
  9  8  1  0
 14 13  2  0
  4 15  1  0
  9 16  1  0
 10 17  1  0
 11 18  1  0
 12 19  1  0
 13 20  1  0
 14 21  1  0
M  END
> <Uni-Dock RESULT> 
ENERGY=   -3.484  LOWER_BOUND=    4.834  UPPER_BOUND=    5.958
INTER + INTRA:          -3.484
INTER:                  -3.484
INTRA:                   0.000
UNBOUND:                 0.000

$$$$

     RDKit          3D

 21 23  0  0  0  0  0  0  0  0999 V2000
   44.3754    7.7077   11.6618 C   0  0  0  0  0  0  0  0  0  0  0  0
   43.3886    6.9366   11.2552 N   0  0  0  0  0  0  0  0  0  0  0  0
   44.4583    9.2503   11.4862 C   0  0  0  0  0  0  0  0  0  0  0  0
   45.3585    6.9819   12.2787 N   0  0  0  0  0  0  0  0  0  0  0  0
   45.5471    9.9670   11.9538 N   0  0  0  0  0  0  0  0  0  0  0  0
   43.7532    5.6643   11.6263 C   0  0  0  0  0  0  0  0  0  0  0  0
   44.9865    5.6639   12.2712 C   0  0  0  0  0  0  0  0  0  0  0  0
   43.9081   11.6426   10.8592 S   0  0  0  0  0  0  0  0  0  0  0  0
   45.3632   11.2402   11.6771 C   0  0  0  0  0  0  0  0  0  0  0  0
   43.4710    9.9849   10.8658 C   0  0  0  0  0  0  0  0  0  0  0  0
   43.0767    4.4493   11.4450 C   0  0  0  0  0  0  0  0  0  0  0  0
   45.5998    4.5072   12.7560 C   0  0  0  0  0  0  0  0  0  0  0  0
   44.9089    3.3046   12.5654 C   0  0  0  0  0  0  0  0  0  0  0  0
   43.6689    3.2725   11.9216 C   0  0  0  0  0  0  0  0  0  0  0  0
   46.2031    7.3786   12.6641 H   0  0  0  0  0  0  0  0  0  0  0  0
   46.0844   12.0011   11.9462 H   0  0  0  0  0  0  0  0  0  0  0  0
   42.5461    9.6306   10.4325 H   0  0  0  0  0  0  0  0  0  0  0  0
   42.1150    4.4313   10.9447 H   0  0  0  0  0  0  0  0  0  0  0  0
   46.5619    4.5312   13.2556 H   0  0  0  0  0  0  0  0  0  0  0  0
   45.3466    2.3758   12.9260 H   0  0  0  0  0  0  0  0  0  0  0  0
   43.1548    2.3237   11.7874 H   0  0  0  0  0  0  0  0  0  0  0  0
  2  1  2  0
  3  1  1  0
  4  1  1  0
  5  3  1  0
  6  2  1  0
  7  4  1  0
  8 10  1  0
  9  5  2  0
 10  3  2  0
 11  6  2  0
 12  7  2  0
 13 12  1  0
 14 11  1  0
  6  7  1  0
  9  8  1  0
 14 13  2  0
  4 15  1  0
  9 16  1  0
 10 17  1  0
 11 18  1  0
 12 19  1  0
 13 20  1  0
 14 21  1  0
M  END
> <Uni-Dock RESULT> 
ENERGY=   -3.422  LOWER_BOUND=    4.942  UPPER_BOUND=    6.060
INTER + INTRA:          -3.422
INTER:                  -3.422
INTRA:                   0.000
UNBOUND:                 0.000

$$$$

     RDKit          3D

 21 23  0  0  0  0  0  0  0  0999 V2000
   46.5997    6.4461   13.2903 C   0  0  0  0  0  0  0  0  0  0  0  0
   45.4006    6.8661   12.9449 N   0  0  0  0  0  0  0  0  0  0  0  0
   47.7643    7.3377   13.8058 C   0  0  0  0  0  0  0  0  0  0  0  0
   46.7188    5.0903   13.1424 N   0  0  0  0  0  0  0  0  0  0  0  0
   48.9908    6.7901   14.1427 N   0  0  0  0  0  0  0  0  0  0  0  0
   44.7226    5.7342   12.5598 C   0  0  0  0  0  0  0  0  0  0  0  0
   45.5272    4.6043   12.6740 C   0  0  0  0  0  0  0  0  0  0  0  0
   49.1274    9.3423   14.5425 S   0  0  0  0  0  0  0  0  0  0  0  0
   49.7874    7.7571   14.5449 C   0  0  0  0  0  0  0  0  0  0  0  0
   47.6488    8.7028   13.9562 C   0  0  0  0  0  0  0  0  0  0  0  0
   43.4065    5.5916   12.0970 C   0  0  0  0  0  0  0  0  0  0  0  0
   45.0948    3.3171   12.3500 C   0  0  0  0  0  0  0  0  0  0  0  0
   43.7782    3.1955   11.8900 C   0  0  0  0  0  0  0  0  0  0  0  0
   42.9458    4.3110   11.7644 C   0  0  0  0  0  0  0  0  0  0  0  0
   47.5556    4.5656   13.3513 H   0  0  0  0  0  0  0  0  0  0  0  0
   50.8058    7.5739   14.8623 H   0  0  0  0  0  0  0  0  0  0  0  0
   46.7901    9.3277   13.7538 H   0  0  0  0  0  0  0  0  0  0  0  0
   42.7659    6.4611   12.0020 H   0  0  0  0  0  0  0  0  0  0  0  0
   45.7400    2.4509   12.4471 H   0  0  0  0  0  0  0  0  0  0  0  0
   43.3952    2.2119   11.6247 H   0  0  0  0  0  0  0  0  0  0  0  0
   41.9272    4.1867   11.4044 H   0  0  0  0  0  0  0  0  0  0  0  0
  2  1  2  0
  3  1  1  0
  4  1  1  0
  5  3  1  0
  6  2  1  0
  7  4  1  0
  8 10  1  0
  9  5  2  0
 10  3  2  0
 11  6  2  0
 12  7  2  0
 13 12  1  0
 14 11  1  0
  6  7  1  0
  9  8  1  0
 14 13  2  0
  4 15  1  0
  9 16  1  0
 10 17  1  0
 11 18  1  0
 12 19  1  0
 13 20  1  0
 14 21  1  0
M  END
> <Uni-Dock RESULT> 
ENERGY=   -3.363  LOWER_BOUND=    5.014  UPPER_BOUND=    6.389
INTER + INTRA:          -3.363
INTER:                  -3.363
INTRA:                   0.000
UNBOUND:                 0.000

$$$$

     RDKit          3D

 21 23  0  0  0  0  0  0  0  0999 V2000
   45.7551    7.9920   12.4084 C   0  0  0  0  0  0  0  0  0  0  0  0
   46.1300    6.8803   13.0060 N   0  0  0  0  0  0  0  0  0  0  0  0
   46.5233    9.3435   12.4324 C   0  0  0  0  0  0  0  0  0  0  0  0
   44.5729    7.8276   11.7380 N   0  0  0  0  0  0  0  0  0  0  0  0
   46.0370   10.4559   11.7662 N   0  0  0  0  0  0  0  0  0  0  0  0
   45.1488    5.9654   12.7071 C   0  0  0  0  0  0  0  0  0  0  0  0
   44.1583    6.5340   11.9117 C   0  0  0  0  0  0  0  0  0  0  0  0
   48.2597   11.1262   12.9073 S   0  0  0  0  0  0  0  0  0  0  0  0
   46.8736   11.4550   11.9487 C   0  0  0  0  0  0  0  0  0  0  0  0
   47.7136    9.5134   13.1060 C   0  0  0  0  0  0  0  0  0  0  0  0
   45.0345    4.6190   13.0823 C   0  0  0  0  0  0  0  0  0  0  0  0
   43.0399    5.8322   11.4581 C   0  0  0  0  0  0  0  0  0  0  0  0
   42.9439    4.4897   11.8432 C   0  0  0  0  0  0  0  0  0  0  0  0
   43.9221    3.8904   12.6413 C   0  0  0  0  0  0  0  0  0  0  0  0
   44.1095    8.5549   11.2132 H   0  0  0  0  0  0  0  0  0  0  0  0
   46.7064   12.4354   11.5218 H   0  0  0  0  0  0  0  0  0  0  0  0
   48.2644    8.7851   13.6846 H   0  0  0  0  0  0  0  0  0  0  0  0
   45.7968    4.1600   13.7016 H   0  0  0  0  0  0  0  0  0  0  0  0
   42.2804    6.2965   10.8388 H   0  0  0  0  0  0  0  0  0  0  0  0
   42.0897    3.9009   11.5143 H   0  0  0  0  0  0  0  0  0  0  0  0
   43.8214    2.8454   12.9252 H   0  0  0  0  0  0  0  0  0  0  0  0
  2  1  2  0
  3  1  1  0
  4  1  1  0
  5  3  1  0
  6  2  1  0
  7  4  1  0
  8 10  1  0
  9  5  2  0
 10  3  2  0
 11  6  2  0
 12  7  2  0
 13 12  1  0
 14 11  1  0
  6  7  1  0
  9  8  1  0
 14 13  2  0
  4 15  1  0
  9 16  1  0
 10 17  1  0
 11 18  1  0
 12 19  1  0
 13 20  1  0
 14 21  1  0
M  END
> <Uni-Dock RESULT> 
ENERGY=   -3.307  LOWER_BOUND=    5.525  UPPER_BOUND=    6.883
INTER + INTRA:          -3.307
INTER:                  -3.307
INTRA:                   0.000
UNBOUND:                 0.000

$$$$

     RDKit          3D

 21 23  0  0  0  0  0  0  0  0999 V2000
   45.0142    7.6863   12.0020 C   0  0  0  0  0  0  0  0  0  0  0  0
   43.8629    7.1982   11.5897 N   0  0  0  0  0  0  0  0  0  0  0  0
   45.4331    9.1832   11.9711 C   0  0  0  0  0  0  0  0  0  0  0  0
   45.8356    6.7004   12.4789 N   0  0  0  0  0  0  0  0  0  0  0  0
   46.6742    9.5895   12.4319 N   0  0  0  0  0  0  0  0  0  0  0  0
   43.9489    5.8444   11.8110 C   0  0  0  0  0  0  0  0  0  0  0  0
   45.1777    5.5044   12.3690 C   0  0  0  0  0  0  0  0  0  0  0  0
   45.4063   11.6917   11.6161 S   0  0  0  0  0  0  0  0  0  0  0  0
   46.7686   10.8945   12.2923 C   0  0  0  0  0  0  0  0  0  0  0  0
   44.6095   10.1789   11.4918 C   0  0  0  0  0  0  0  0  0  0  0  0
   43.0100    4.8337   11.5588 C   0  0  0  0  0  0  0  0  0  0  0  0
   45.5367    4.1959   12.6977 C   0  0  0  0  0  0  0  0  0  0  0  0
   44.5861    3.2014   12.4385 C   0  0  0  0  0  0  0  0  0  0  0  0
   43.3436    3.5112   11.8789 C   0  0  0  0  0  0  0  0  0  0  0  0
   46.7637    6.8587   12.8434 H   0  0  0  0  0  0  0  0  0  0  0  0
   47.6530   11.4455   12.5848 H   0  0  0  0  0  0  0  0  0  0  0  0
   43.6107   10.0844   11.0891 H   0  0  0  0  0  0  0  0  0  0  0  0
   42.0478    5.0808   11.1245 H   0  0  0  0  0  0  0  0  0  0  0  0
   46.5006    3.9546   13.1320 H   0  0  0  0  0  0  0  0  0  0  0  0
   44.8198    2.1657   12.6777 H   0  0  0  0  0  0  0  0  0  0  0  0
   42.6245    2.7180   11.6884 H   0  0  0  0  0  0  0  0  0  0  0  0
  2  1  2  0
  3  1  1  0
  4  1  1  0
  5  3  1  0
  6  2  1  0
  7  4  1  0
  8 10  1  0
  9  5  2  0
 10  3  2  0
 11  6  2  0
 12  7  2  0
 13 12  1  0
 14 11  1  0
  6  7  1  0
  9  8  1  0
 14 13  2  0
  4 15  1  0
  9 16  1  0
 10 17  1  0
 11 18  1  0
 12 19  1  0
 13 20  1  0
 14 21  1  0
M  END
> <Uni-Dock RESULT> 
ENERGY=   -3.290  LOWER_BOUND=    5.038  UPPER_BOUND=    6.171
INTER + INTRA:          -3.290
INTER:                  -3.290
INTRA:                   0.000
UNBOUND:                 0.000

$$$$

     RDKit          3D

 21 23  0  0  0  0  0  0  0  0999 V2000
   51.2893    2.4803   17.7641 C   0  0  0  0  0  0  0  0  0  0  0  0
   51.0317    3.6298   18.3522 N   0  0  0  0  0  0  0  0  0  0  0  0
   52.6477    1.7247   17.7956 C   0  0  0  0  0  0  0  0  0  0  0  0
   50.1944    2.0014   17.0964 N   0  0  0  0  0  0  0  0  0  0  0  0
   52.8106    0.5161   17.1395 N   0  0  0  0  0  0  0  0  0  0  0  0
   49.7183    3.8996   18.0496 C   0  0  0  0  0  0  0  0  0  0  0  0
   49.1681    2.8929   17.2618 C   0  0  0  0  0  0  0  0  0  0  0  0
   55.0570    1.1069   18.2782 S   0  0  0  0  0  0  0  0  0  0  0  0
   54.0442    0.0984   17.3266 C   0  0  0  0  0  0  0  0  0  0  0  0
   53.7524    2.2031   18.4666 C   0  0  0  0  0  0  0  0  0  0  0  0
   48.9209    4.9938   18.4152 C   0  0  0  0  0  0  0  0  0  0  0  0
   47.8484    2.9080   16.8067 C   0  0  0  0  0  0  0  0  0  0  0  0
   47.0686    4.0084   17.1821 C   0  0  0  0  0  0  0  0  0  0  0  0
   47.5924    5.0351   17.9724 C   0  0  0  0  0  0  0  0  0  0  0  0
   50.1767    1.1349   16.5786 H   0  0  0  0  0  0  0  0  0  0  0  0
   54.4110   -0.8298   16.9077 H   0  0  0  0  0  0  0  0  0  0  0  0
   53.8442    3.1162   19.0379 H   0  0  0  0  0  0  0  0  0  0  0  0
   49.3334    5.7870   19.0285 H   0  0  0  0  0  0  0  0  0  0  0  0
   47.4411    2.1118   16.1934 H   0  0  0  0  0  0  0  0  0  0  0  0
   46.0332    4.0653   16.8516 H   0  0  0  0  0  0  0  0  0  0  0  0
   46.9634    5.8780   18.2488 H   0  0  0  0  0  0  0  0  0  0  0  0
  2  1  2  0
  3  1  1  0
  4  1  1  0
  5  3  1  0
  6  2  1  0
  7  4  1  0
  8 10  1  0
  9  5  2  0
 10  3  2  0
 11  6  2  0
 12  7  2  0
 13 12  1  0
 14 11  1  0
  6  7  1  0
  9  8  1  0
 14 13  2  0
  4 15  1  0
  9 16  1  0
 10 17  1  0
 11 18  1  0
 12 19  1  0
 13 20  1  0
 14 21  1  0
M  END
> <Uni-Dock RESULT> 
ENERGY=   -3.259  LOWER_BOUND=    9.861  UPPER_BOUND=   11.535
INTER + INTRA:          -3.259
INTER:                  -3.259
INTRA:                   0.000
UNBOUND:                 0.000

$$$$
