
     RDKit          3D

 21 23  0  0  0  0  0  0  0  0999 V2000
   45.3320    3.3668    9.0594 C   0  0  0  0  0  0  0  0  0  0  0  0
   44.8136    4.5759    9.1126 N   0  0  0  0  0  0  0  0  0  0  0  0
   46.1717    2.7860    7.8870 C   0  0  0  0  0  0  0  0  0  0  0  0
   45.0435    2.6466   10.1873 N   0  0  0  0  0  0  0  0  0  0  0  0
   46.6715    1.4953    7.9342 N   0  0  0  0  0  0  0  0  0  0  0  0
   44.1662    4.6341   10.3238 C   0  0  0  0  0  0  0  0  0  0  0  0
   44.2946    3.4355   11.0193 C   0  0  0  0  0  0  0  0  0  0  0  0
   47.4033    2.5452    5.6859 S   0  0  0  0  0  0  0  0  0  0  0  0
   47.3383    1.2611    6.8243 C   0  0  0  0  0  0  0  0  0  0  0  0
   46.4646    3.5074    6.7497 C   0  0  0  0  0  0  0  0  0  0  0  0
   43.4410    5.6857   10.9027 C   0  0  0  0  0  0  0  0  0  0  0  0
   43.7353    3.2145   12.2793 C   0  0  0  0  0  0  0  0  0  0  0  0
   43.0153    4.2761   12.8402 C   0  0  0  0  0  0  0  0  0  0  0  0
   42.8687    5.4916   12.1667 C   0  0  0  0  0  0  0  0  0  0  0  0
   45.3453    1.6972   10.3499 H   0  0  0  0  0  0  0  0  0  0  0  0
   47.8234    0.3135    6.6294 H   0  0  0  0  0  0  0  0  0  0  0  0
   46.1772    4.5213    6.5084 H   0  0  0  0  0  0  0  0  0  0  0  0
   43.3309    6.6262   10.3749 H   0  0  0  0  0  0  0  0  0  0  0  0
   43.8486    2.2715   12.8026 H   0  0  0  0  0  0  0  0  0  0  0  0
   42.5606    4.1517   13.8211 H   0  0  0  0  0  0  0  0  0  0  0  0
   42.3038    6.2990   12.6268 H   0  0  0  0  0  0  0  0  0  0  0  0
  2  1  2  0
  3  1  1  0
  4  1  1  0
  5  3  1  0
  6  2  1  0
  7  4  1  0
  8 10  1  0
  9  5  2  0
 10  3  2  0
 11  6  2  0
 12  7  2  0
 13 12  1  0
 14 11  1  0
  6  7  1  0
  9  8  1  0
 14 13  2  0
  4 15  1  0
  9 16  1  0
 10 17  1  0
 11 18  1  0
 12 19  1  0
 13 20  1  0
 14 21  1  0
M  END
> <Uni-Dock RESULT> 
ENERGY=   -5.384  LOWER_BOUND=    0.000  UPPER_BOUND=    0.000
INTER + INTRA:          -5.384
INTER:                  -5.384
INTRA:                   0.000
UNBOUND:                 0.000

$$$$

     RDKit          3D

 21 23  0  0  0  0  0  0  0  0999 V2000
   44.1008    7.5746   11.5168 C   0  0  0  0  0  0  0  0  0  0  0  0
   45.1305    7.0546   12.1514 N   0  0  0  0  0  0  0  0  0  0  0  0
   43.8880    9.0833   11.2076 C   0  0  0  0  0  0  0  0  0  0  0  0
   43.2024    6.6116   11.1432 N   0  0  0  0  0  0  0  0  0  0  0  0
   42.7633    9.5243   10.5305 N   0  0  0  0  0  0  0  0  0  0  0  0
   44.8830    5.7029   12.1866 C   0  0  0  0  0  0  0  0  0  0  0  0
   43.6783    5.3971   11.5603 C   0  0  0  0  0  0  0  0  0  0  0  0
   44.2212   11.5914   11.0727 S   0  0  0  0  0  0  0  0  0  0  0  0
   42.8341   10.8321   10.4033 C   0  0  0  0  0  0  0  0  0  0  0  0
   44.7897   10.0563   11.5817 C   0  0  0  0  0  0  0  0  0  0  0  0
   45.6476    4.6660   12.7405 C   0  0  0  0  0  0  0  0  0  0  0  0
   43.1781    4.0984   11.4492 C   0  0  0  0  0  0  0  0  0  0  0  0
   43.9557    3.0774   12.0083 C   0  0  0  0  0  0  0  0  0  0  0  0
   45.1695    3.3526   12.6436 C   0  0  0  0  0  0  0  0  0  0  0  0
   42.3436    6.7956   10.6456 H   0  0  0  0  0  0  0  0  0  0  0  0
   42.0647   11.4078    9.9054 H   0  0  0  0  0  0  0  0  0  0  0  0
   45.7233    9.9340   12.1128 H   0  0  0  0  0  0  0  0  0  0  0  0
   46.5885    4.8862   13.2320 H   0  0  0  0  0  0  0  0  0  0  0  0
   42.2362    3.8840   10.9564 H   0  0  0  0  0  0  0  0  0  0  0  0
   43.6074    2.0481   11.9468 H   0  0  0  0  0  0  0  0  0  0  0  0
   45.7528    2.5392   13.0690 H   0  0  0  0  0  0  0  0  0  0  0  0
  2  1  2  0
  3  1  1  0
  4  1  1  0
  5  3  1  0
  6  2  1  0
  7  4  1  0
  8 10  1  0
  9  5  2  0
 10  3  2  0
 11  6  2  0
 12  7  2  0
 13 12  1  0
 14 11  1  0
  6  7  1  0
  9  8  1  0
 14 13  2  0
  4 15  1  0
  9 16  1  0
 10 17  1  0
 11 18  1  0
 12 19  1  0
 13 20  1  0
 14 21  1  0
M  END
> <Uni-Dock RESULT> 
ENERGY=   -3.483  LOWER_BOUND=    4.745  UPPER_BOUND=    6.277
INTER + INTRA:          -3.483
INTER:                  -3.483
INTRA:                   0.000
UNBOUND:                 0.000

$$$$

     RDKit          3D

 21 23  0  0  0  0  0  0  0  0999 V2000
   45.2413    7.6586   12.4048 C   0  0  0  0  0  0  0  0  0  0  0  0
   46.4411    7.8163   12.9237 N   0  0  0  0  0  0  0  0  0  0  0  0
   44.4173    6.3403   12.3980 C   0  0  0  0  0  0  0  0  0  0  0  0
   44.7771    8.8212   11.8507 N   0  0  0  0  0  0  0  0  0  0  0  0
   43.1590    6.2848   11.8222 N   0  0  0  0  0  0  0  0  0  0  0  0
   46.7598    9.1334   12.6932 C   0  0  0  0  0  0  0  0  0  0  0  0
   45.7321    9.7879   12.0206 C   0  0  0  0  0  0  0  0  0  0  0  0
   43.7052    3.9355   12.7577 S   0  0  0  0  0  0  0  0  0  0  0  0
   42.6891    5.0628   11.9542 C   0  0  0  0  0  0  0  0  0  0  0  0
   44.8806    5.1677   12.9547 C   0  0  0  0  0  0  0  0  0  0  0  0
   47.9183    9.8475   13.0318 C   0  0  0  0  0  0  0  0  0  0  0  0
   45.7870   11.1348   11.6574 C   0  0  0  0  0  0  0  0  0  0  0  0
   46.9514   11.8303   12.0043 C   0  0  0  0  0  0  0  0  0  0  0  0
   48.0005   11.2010   12.6795 C   0  0  0  0  0  0  0  0  0  0  0  0
   43.8791    8.9189   11.4000 H   0  0  0  0  0  0  0  0  0  0  0  0
   41.7158    4.7733   11.5798 H   0  0  0  0  0  0  0  0  0  0  0  0
   45.8249    4.9901   13.4502 H   0  0  0  0  0  0  0  0  0  0  0  0
   48.7286    9.3534   13.5557 H   0  0  0  0  0  0  0  0  0  0  0  0
   44.9733   11.6239   11.1333 H   0  0  0  0  0  0  0  0  0  0  0  0
   47.0411   12.8829   11.7424 H   0  0  0  0  0  0  0  0  0  0  0  0
   48.8934   11.7663   12.9362 H   0  0  0  0  0  0  0  0  0  0  0  0
  2  1  2  0
  3  1  1  0
  4  1  1  0
  5  3  1  0
  6  2  1  0
  7  4  1  0
  8 10  1  0
  9  5  2  0
 10  3  2  0
 11  6  2  0
 12  7  2  0
 13 12  1  0
 14 11  1  0
  6  7  1  0
  9  8  1  0
 14 13  2  0
  4 15  1  0
  9 16  1  0
 10 17  1  0
 11 18  1  0
 12 19  1  0
 13 20  1  0
 14 21  1  0
M  END
> <Uni-Dock RESULT> 
ENERGY=   -3.401  LOWER_BOUND=    5.221  UPPER_BOUND=    6.939
INTER + INTRA:          -3.401
INTER:                  -3.401
INTRA:                   0.000
UNBOUND:                 0.000

$$$$

     RDKit          3D

 21 23  0  0  0  0  0  0  0  0999 V2000
   44.3047    6.8198   11.6668 C   0  0  0  0  0  0  0  0  0  0  0  0
   43.3811    7.5618   11.0924 N   0  0  0  0  0  0  0  0  0  0  0  0
   44.2678    5.2729   11.8169 C   0  0  0  0  0  0  0  0  0  0  0  0
   45.3408    7.5817   12.1361 N   0  0  0  0  0  0  0  0  0  0  0  0
   45.2974    4.5889   12.4415 N   0  0  0  0  0  0  0  0  0  0  0  0
   43.8431    8.8522   11.1972 C   0  0  0  0  0  0  0  0  0  0  0  0
   45.0722    8.8935   11.8488 C   0  0  0  0  0  0  0  0  0  0  0  0
   43.5340    2.8511   11.6911 S   0  0  0  0  0  0  0  0  0  0  0  0
   45.0155    3.3036   12.4321 C   0  0  0  0  0  0  0  0  0  0  0  0
   43.2269    4.5019   11.3460 C   0  0  0  0  0  0  0  0  0  0  0  0
   43.2630   10.0503   10.7561 C   0  0  0  0  0  0  0  0  0  0  0  0
   45.7731   10.0760   12.0930 C   0  0  0  0  0  0  0  0  0  0  0  0
   45.1776   11.2612   11.6451 C   0  0  0  0  0  0  0  0  0  0  0  0
   43.9445   11.2523   10.9879 C   0  0  0  0  0  0  0  0  0  0  0  0
   46.1517    7.2112   12.6096 H   0  0  0  0  0  0  0  0  0  0  0  0
   45.6752    2.5631   12.8656 H   0  0  0  0  0  0  0  0  0  0  0  0
   42.3327    4.8273   10.8330 H   0  0  0  0  0  0  0  0  0  0  0  0
   42.3060   10.0366   10.2469 H   0  0  0  0  0  0  0  0  0  0  0  0
   46.7301   10.0837   12.6030 H   0  0  0  0  0  0  0  0  0  0  0  0
   45.6859   12.2089   11.8123 H   0  0  0  0  0  0  0  0  0  0  0  0
   43.5056   12.1886   10.6509 H   0  0  0  0  0  0  0  0  0  0  0  0
  2  1  2  0
  3  1  1  0
  4  1  1  0
  5  3  1  0
  6  2  1  0
  7  4  1  0
  8 10  1  0
  9  5  2  0
 10  3  2  0
 11  6  2  0
 12  7  2  0
 13 12  1  0
 14 11  1  0
  6  7  1  0
  9  8  1  0
 14 13  2  0
  4 15  1  0
  9 16  1  0
 10 17  1  0
 11 18  1  0
 12 19  1  0
 13 20  1  0
 14 21  1  0
M  END
> <Uni-Dock RESULT> 
ENERGY=   -3.357  LOWER_BOUND=    4.108  UPPER_BOUND=    5.703
INTER + INTRA:          -3.357
INTER:                  -3.357
INTRA:                   0.000
UNBOUND:                 0.000

$$$$

     RDKit          3D

 21 23  0  0  0  0  0  0  0  0999 V2000
   46.5826    4.2343   14.2572 C   0  0  0  0  0  0  0  0  0  0  0  0
   46.0347    5.3899   13.9446 N   0  0  0  0  0  0  0  0  0  0  0  0
   47.5359    3.9725   15.4571 C   0  0  0  0  0  0  0  0  0  0  0  0
   46.2111    3.2492   13.3821 N   0  0  0  0  0  0  0  0  0  0  0  0
   48.0581    2.7123   15.6957 N   0  0  0  0  0  0  0  0  0  0  0  0
   45.2810    5.1364   12.8233 C   0  0  0  0  0  0  0  0  0  0  0  0
   45.3739    3.7993   12.4483 C   0  0  0  0  0  0  0  0  0  0  0  0
   48.9631    4.3027   17.5243 S   0  0  0  0  0  0  0  0  0  0  0  0
   48.8260    2.7698   16.7628 C   0  0  0  0  0  0  0  0  0  0  0  0
   47.9125    4.9611   16.3406 C   0  0  0  0  0  0  0  0  0  0  0  0
   44.4840    6.0051   12.0639 C   0  0  0  0  0  0  0  0  0  0  0  0
   44.7100    3.2632   11.3434 C   0  0  0  0  0  0  0  0  0  0  0  0
   43.9195    4.1463   10.5982 C   0  0  0  0  0  0  0  0  0  0  0  0
   43.8063    5.4941   10.9493 C   0  0  0  0  0  0  0  0  0  0  0  0
   46.5184    2.2895   13.4406 H   0  0  0  0  0  0  0  0  0  0  0  0
   49.3476    1.9032   17.1480 H   0  0  0  0  0  0  0  0  0  0  0  0
   47.6251    6.0033   16.3401 H   0  0  0  0  0  0  0  0  0  0  0  0
   44.4004    7.0498   12.3417 H   0  0  0  0  0  0  0  0  0  0  0  0
   44.7974    2.2174   11.0702 H   0  0  0  0  0  0  0  0  0  0  0  0
   43.3823    3.7751    9.7275 H   0  0  0  0  0  0  0  0  0  0  0  0
   43.1848    6.1572   10.3519 H   0  0  0  0  0  0  0  0  0  0  0  0
  2  1  2  0
  3  1  1  0
  4  1  1  0
  5  3  1  0
  6  2  1  0
  7  4  1  0
  8 10  1  0
  9  5  2  0
 10  3  2  0
 11  6  2  0
 12  7  2  0
 13 12  1  0
 14 11  1  0
  6  7  1  0
  9  8  1  0
 14 13  2  0
  4 15  1  0
  9 16  1  0
 10 17  1  0
 11 18  1  0
 12 19  1  0
 13 20  1  0
 14 21  1  0
M  END
> <Uni-Dock RESULT> 
ENERGY=   -3.342  LOWER_BOUND=    5.022  UPPER_BOUND=    6.323
INTER + INTRA:          -3.342
INTER:                  -3.342
INTRA:                   0.000
UNBOUND:                 0.000

$$$$

     RDKit          3D

 21 23  0  0  0  0  0  0  0  0999 V2000
   45.7559    7.9879   12.4085 C   0  0  0  0  0  0  0  0  0  0  0  0
   46.1288    6.8758   13.0066 N   0  0  0  0  0  0  0  0  0  0  0  0
   46.5260    9.3382   12.4328 C   0  0  0  0  0  0  0  0  0  0  0  0
   44.5741    7.8250   11.7370 N   0  0  0  0  0  0  0  0  0  0  0  0
   46.0419   10.4512   11.7659 N   0  0  0  0  0  0  0  0  0  0  0  0
   45.1465    5.9622   12.7070 C   0  0  0  0  0  0  0  0  0  0  0  0
   44.1575    6.5321   11.9107 C   0  0  0  0  0  0  0  0  0  0  0  0
   48.2647   11.1186   12.9088 S   0  0  0  0  0  0  0  0  0  0  0  0
   46.8798   11.4492   11.9488 C   0  0  0  0  0  0  0  0  0  0  0  0
   47.7161    9.5067   13.1073 C   0  0  0  0  0  0  0  0  0  0  0  0
   45.0300    4.6161   13.0825 C   0  0  0  0  0  0  0  0  0  0  0  0
   43.0384    5.8317   11.4564 C   0  0  0  0  0  0  0  0  0  0  0  0
   42.9403    4.4895   11.8419 C   0  0  0  0  0  0  0  0  0  0  0  0
   43.9168    3.8890   12.6408 C   0  0  0  0  0  0  0  0  0  0  0  0
   44.1121    8.5528   11.2118 H   0  0  0  0  0  0  0  0  0  0  0  0
   46.7143   12.4298   11.5217 H   0  0  0  0  0  0  0  0  0  0  0  0
   48.2654    8.7777   13.6865 H   0  0  0  0  0  0  0  0  0  0  0  0
   45.7911    4.1561   13.7025 H   0  0  0  0  0  0  0  0  0  0  0  0
   42.2801    6.2971   10.8364 H   0  0  0  0  0  0  0  0  0  0  0  0
   42.0855    3.9019   11.5123 H   0  0  0  0  0  0  0  0  0  0  0  0
   43.8144    2.8442   12.9248 H   0  0  0  0  0  0  0  0  0  0  0  0
  2  1  2  0
  3  1  1  0
  4  1  1  0
  5  3  1  0
  6  2  1  0
  7  4  1  0
  8 10  1  0
  9  5  2  0
 10  3  2  0
 11  6  2  0
 12  7  2  0
 13 12  1  0
 14 11  1  0
  6  7  1  0
  9  8  1  0
 14 13  2  0
  4 15  1  0
  9 16  1  0
 10 17  1  0
 11 18  1  0
 12 19  1  0
 13 20  1  0
 14 21  1  0
M  END
> <Uni-Dock RESULT> 
ENERGY=   -3.306  LOWER_BOUND=    5.147  UPPER_BOUND=    6.645
INTER + INTRA:          -3.306
INTER:                  -3.306
INTRA:                   0.000
UNBOUND:                 0.000

$$$$

     RDKit          3D

 21 23  0  0  0  0  0  0  0  0999 V2000
   51.5383    2.3557   17.7906 C   0  0  0  0  0  0  0  0  0  0  0  0
   51.2650    3.4909   18.3991 N   0  0  0  0  0  0  0  0  0  0  0  0
   52.8915    1.5925   17.8500 C   0  0  0  0  0  0  0  0  0  0  0  0
   50.4657    1.8999   17.0725 N   0  0  0  0  0  0  0  0  0  0  0  0
   53.0724    0.4006   17.1685 N   0  0  0  0  0  0  0  0  0  0  0  0
   49.9642    3.7751   18.0578 C   0  0  0  0  0  0  0  0  0  0  0  0
   49.4379    2.7921   17.2249 C   0  0  0  0  0  0  0  0  0  0  0  0
   55.2797    0.9502   18.4007 S   0  0  0  0  0  0  0  0  0  0  0  0
   54.2969   -0.0282   17.3880 C   0  0  0  0  0  0  0  0  0  0  0  0
   53.9740    2.0476   18.5717 C   0  0  0  0  0  0  0  0  0  0  0  0
   49.1591    4.8635   18.4236 C   0  0  0  0  0  0  0  0  0  0  0  0
   48.1351    2.8259   16.7243 C   0  0  0  0  0  0  0  0  0  0  0  0
   47.3473    3.9202   17.1009 C   0  0  0  0  0  0  0  0  0  0  0  0
   47.8472    4.9231   17.9356 C   0  0  0  0  0  0  0  0  0  0  0  0
   50.4626    1.0474   16.5319 H   0  0  0  0  0  0  0  0  0  0  0  0
   54.6743   -0.9469   16.9580 H   0  0  0  0  0  0  0  0  0  0  0  0
   54.0494    2.9451   19.1696 H   0  0  0  0  0  0  0  0  0  0  0  0
   49.5529    5.6384   19.0716 H   0  0  0  0  0  0  0  0  0  0  0  0
   47.7464    2.0479   16.0764 H   0  0  0  0  0  0  0  0  0  0  0  0
   46.3245    3.9909   16.7357 H   0  0  0  0  0  0  0  0  0  0  0  0
   47.2123    5.7618   18.2118 H   0  0  0  0  0  0  0  0  0  0  0  0
  2  1  2  0
  3  1  1  0
  4  1  1  0
  5  3  1  0
  6  2  1  0
  7  4  1  0
  8 10  1  0
  9  5  2  0
 10  3  2  0
 11  6  2  0
 12  7  2  0
 13 12  1  0
 14 11  1  0
  6  7  1  0
  9  8  1  0
 14 13  2  0
  4 15  1  0
  9 16  1  0
 10 17  1  0
 11 18  1  0
 12 19  1  0
 13 20  1  0
 14 21  1  0
M  END
> <Uni-Dock RESULT> 
ENERGY=   -3.262  LOWER_BOUND=    9.845  UPPER_BOUND=   10.576
INTER + INTRA:          -3.262
INTER:                  -3.262
INTRA:                   0.000
UNBOUND:                 0.000

$$$$

     RDKit          3D

 21 23  0  0  0  0  0  0  0  0999 V2000
   45.6599    8.0665   12.3492 C   0  0  0  0  0  0  0  0  0  0  0  0
   44.5189    7.9001   11.7137 N   0  0  0  0  0  0  0  0  0  0  0  0
   46.4770    9.3871   12.4245 C   0  0  0  0  0  0  0  0  0  0  0  0
   46.0676    6.9113   12.9602 N   0  0  0  0  0  0  0  0  0  0  0  0
   47.6705    9.4522   13.1238 N   0  0  0  0  0  0  0  0  0  0  0  0
   44.1805    6.5847   11.9254 C   0  0  0  0  0  0  0  0  0  0  0  0
   45.1362    5.9402   12.7053 C   0  0  0  0  0  0  0  0  0  0  0  0
   47.2179   11.7897   12.1120 S   0  0  0  0  0  0  0  0  0  0  0  0
   48.1494   10.6740   13.0264 C   0  0  0  0  0  0  0  0  0  0  0  0
   46.0703   10.5524   11.8110 C   0  0  0  0  0  0  0  0  0  0  0  0
   43.0633    5.8638   11.4795 C   0  0  0  0  0  0  0  0  0  0  0  0
   45.0470    4.5972   13.0760 C   0  0  0  0  0  0  0  0  0  0  0  0
   43.9246    3.8949   12.6211 C   0  0  0  0  0  0  0  0  0  0  0  0
   42.9481    4.5140   11.8365 C   0  0  0  0  0  0  0  0  0  0  0  0
   46.9157    6.8209   13.5001 H   0  0  0  0  0  0  0  0  0  0  0  0
   49.0796   10.9701   13.4937 H   0  0  0  0  0  0  0  0  0  0  0  0
   45.1806   10.7220   11.2208 H   0  0  0  0  0  0  0  0  0  0  0  0
   42.3092    6.3501   10.8710 H   0  0  0  0  0  0  0  0  0  0  0  0
   45.8044    4.1160   13.6848 H   0  0  0  0  0  0  0  0  0  0  0  0
   43.8107    2.8450   12.8842 H   0  0  0  0  0  0  0  0  0  0  0  0
   42.0865    3.9435   11.4973 H   0  0  0  0  0  0  0  0  0  0  0  0
  2  1  2  0
  3  1  1  0
  4  1  1  0
  5  3  1  0
  6  2  1  0
  7  4  1  0
  8 10  1  0
  9  5  2  0
 10  3  2  0
 11  6  2  0
 12  7  2  0
 13 12  1  0
 14 11  1  0
  6  7  1  0
  9  8  1  0
 14 13  2  0
  4 15  1  0
  9 16  1  0
 10 17  1  0
 11 18  1  0
 12 19  1  0
 13 20  1  0
 14 21  1  0
M  END
> <Uni-Dock RESULT> 
ENERGY=   -3.256  LOWER_BOUND=    5.147  UPPER_BOUND=    6.471
INTER + INTRA:          -3.256
INTER:                  -3.256
INTRA:                   0.000
UNBOUND:                 0.000

$$$$

     RDKit          3D

 21 23  0  0  0  0  0  0  0  0999 V2000
   45.3246    7.6752   12.4205 C   0  0  0  0  0  0  0  0  0  0  0  0
   44.5001    8.6196   12.0182 N   0  0  0  0  0  0  0  0  0  0  0  0
   44.9602    6.1797   12.6394 C   0  0  0  0  0  0  0  0  0  0  0  0
   46.5845    8.1661   12.6344 N   0  0  0  0  0  0  0  0  0  0  0  0
   45.9093    5.2661   13.0665 N   0  0  0  0  0  0  0  0  0  0  0  0
   45.2617    9.7629   11.9719 C   0  0  0  0  0  0  0  0  0  0  0  0
   46.5752    9.5065   12.3542 C   0  0  0  0  0  0  0  0  0  0  0  0
   43.6721    4.0017   12.7682 S   0  0  0  0  0  0  0  0  0  0  0  0
   45.3399    4.0842   13.1689 C   0  0  0  0  0  0  0  0  0  0  0  0
   43.6932    5.6812   12.4253 C   0  0  0  0  0  0  0  0  0  0  0  0
   44.8979   11.0681   11.6101 C   0  0  0  0  0  0  0  0  0  0  0  0
   47.5677   10.4873   12.3994 C   0  0  0  0  0  0  0  0  0  0  0  0
   47.1848   11.7836   12.0347 C   0  0  0  0  0  0  0  0  0  0  0  0
   45.8739   12.0725   11.6465 C   0  0  0  0  0  0  0  0  0  0  0  0
   47.3674    7.6101   12.9458 H   0  0  0  0  0  0  0  0  0  0  0  0
   45.8845    3.2050   13.4877 H   0  0  0  0  0  0  0  0  0  0  0  0
   42.8124    6.2134   12.0943 H   0  0  0  0  0  0  0  0  0  0  0  0
   43.8791   11.2856   11.3098 H   0  0  0  0  0  0  0  0  0  0  0  0
   48.5852   10.2639   12.7007 H   0  0  0  0  0  0  0  0  0  0  0  0
   47.9236   12.5825   12.0542 H   0  0  0  0  0  0  0  0  0  0  0  0
   45.6049   13.0889   11.3683 H   0  0  0  0  0  0  0  0  0  0  0  0
  2  1  2  0
  3  1  1  0
  4  1  1  0
  5  3  1  0
  6  2  1  0
  7  4  1  0
  8 10  1  0
  9  5  2  0
 10  3  2  0
 11  6  2  0
 12  7  2  0
 13 12  1  0
 14 11  1  0
  6  7  1  0
  9  8  1  0
 14 13  2  0
  4 15  1  0
  9 16  1  0
 10 17  1  0
 11 18  1  0
 12 19  1  0
 13 20  1  0
 14 21  1  0
M  END
> <Uni-Dock RESULT> 
ENERGY=   -3.165  LOWER_BOUND=    5.186  UPPER_BOUND=    6.727
INTER + INTRA:          -3.165
INTER:                  -3.165
INTRA:                   0.000
UNBOUND:                 0.000

$$$$
