
     RDKit          3D

 21 23  0  0  0  0  0  0  0  0999 V2000
   44.9522    3.7774    9.3920 C   0  0  0  0  0  0  0  0  0  0  0  0
   45.3872    4.4078    8.3195 N   0  0  0  0  0  0  0  0  0  0  0  0
   44.0944    4.4393   10.5287 C   0  0  0  0  0  0  0  0  0  0  0  0
   45.3521    2.4646    9.3782 N   0  0  0  0  0  0  0  0  0  0  0  0
   43.7284    5.7729   10.4734 N   0  0  0  0  0  0  0  0  0  0  0  0
   46.0859    3.4750    7.5961 C   0  0  0  0  0  0  0  0  0  0  0  0
   46.0805    2.2426    8.2384 C   0  0  0  0  0  0  0  0  0  0  0  0
   42.7473    4.8131   12.6551 S   0  0  0  0  0  0  0  0  0  0  0  0
   43.0196    6.0818   11.5347 C   0  0  0  0  0  0  0  0  0  0  0  0
   43.6498    3.7573   11.6442 C   0  0  0  0  0  0  0  0  0  0  0  0
   46.7575    3.6064    6.3725 C   0  0  0  0  0  0  0  0  0  0  0  0
   46.7151    1.1077    7.7293 C   0  0  0  0  0  0  0  0  0  0  0  0
   47.3805    1.2581    6.5066 C   0  0  0  0  0  0  0  0  0  0  0  0
   47.4034    2.4845    5.8372 C   0  0  0  0  0  0  0  0  0  0  0  0
   45.1453    1.7788   10.0865 H   0  0  0  0  0  0  0  0  0  0  0  0
   42.6283    7.0777   11.6966 H   0  0  0  0  0  0  0  0  0  0  0  0
   43.7959    2.7253   11.9228 H   0  0  0  0  0  0  0  0  0  0  0  0
   46.7701    4.5619    5.8602 H   0  0  0  0  0  0  0  0  0  0  0  0
   46.6987    0.1551    8.2470 H   0  0  0  0  0  0  0  0  0  0  0  0
   47.8907    0.4025    6.0682 H   0  0  0  0  0  0  0  0  0  0  0  0
   47.9280    2.5731    4.8887 H   0  0  0  0  0  0  0  0  0  0  0  0
  2  1  2  0
  3  1  1  0
  4  1  1  0
  5  3  1  0
  6  2  1  0
  7  4  1  0
  8 10  1  0
  9  5  2  0
 10  3  2  0
 11  6  2  0
 12  7  2  0
 13 12  1  0
 14 11  1  0
  6  7  1  0
  9  8  1  0
 14 13  2  0
  4 15  1  0
  9 16  1  0
 10 17  1  0
 11 18  1  0
 12 19  1  0
 13 20  1  0
 14 21  1  0
M  END
> <Uni-Dock RESULT> 
ENERGY=   -6.263  LOWER_BOUND=    0.000  UPPER_BOUND=    0.000
INTER + INTRA:          -6.263
INTER:                  -6.263
INTRA:                   0.000
UNBOUND:                 0.000

$$$$

     RDKit          3D

 21 23  0  0  0  0  0  0  0  0999 V2000
   44.9967    3.5167    9.3833 C   0  0  0  0  0  0  0  0  0  0  0  0
   45.4613    2.2855    9.3113 N   0  0  0  0  0  0  0  0  0  0  0  0
   44.1212    4.0716   10.5629 C   0  0  0  0  0  0  0  0  0  0  0  0
   45.3831    4.2455    8.2865 N   0  0  0  0  0  0  0  0  0  0  0  0
   43.7704    3.2746   11.6387 N   0  0  0  0  0  0  0  0  0  0  0  0
   46.1658    2.2207    8.1360 C   0  0  0  0  0  0  0  0  0  0  0  0
   46.1337    3.4400    7.4700 C   0  0  0  0  0  0  0  0  0  0  0  0
   42.7324    5.5972   12.0529 S   0  0  0  0  0  0  0  0  0  0  0  0
   43.0421    3.9670   12.4838 C   0  0  0  0  0  0  0  0  0  0  0  0
   43.6456    5.3670   10.6160 C   0  0  0  0  0  0  0  0  0  0  0  0
   46.8651    1.1475    7.5662 C   0  0  0  0  0  0  0  0  0  0  0  0
   46.7673    3.6642    6.2460 C   0  0  0  0  0  0  0  0  0  0  0  0
   47.4606    2.5810    5.6925 C   0  0  0  0  0  0  0  0  0  0  0  0
   47.5107    1.3429    6.3385 C   0  0  0  0  0  0  0  0  0  0  0  0
   45.1538    5.2106    8.1105 H   0  0  0  0  0  0  0  0  0  0  0  0
   42.6577    3.5377   13.3998 H   0  0  0  0  0  0  0  0  0  0  0  0
   43.7749    6.1764    9.9145 H   0  0  0  0  0  0  0  0  0  0  0  0
   46.8985    0.1904    8.0746 H   0  0  0  0  0  0  0  0  0  0  0  0
   46.7298    4.6239    5.7429 H   0  0  0  0  0  0  0  0  0  0  0  0
   47.9712    2.7054    4.7394 H   0  0  0  0  0  0  0  0  0  0  0  0
   48.0567    0.5185    5.8858 H   0  0  0  0  0  0  0  0  0  0  0  0
  2  1  2  0
  3  1  1  0
  4  1  1  0
  5  3  1  0
  6  2  1  0
  7  4  1  0
  8 10  1  0
  9  5  2  0
 10  3  2  0
 11  6  2  0
 12  7  2  0
 13 12  1  0
 14 11  1  0
  6  7  1  0
  9  8  1  0
 14 13  2  0
  4 15  1  0
  9 16  1  0
 10 17  1  0
 11 18  1  0
 12 19  1  0
 13 20  1  0
 14 21  1  0
M  END
> <Uni-Dock RESULT> 
ENERGY=   -6.045  LOWER_BOUND=    0.923  UPPER_BOUND=    1.923
INTER + INTRA:          -6.045
INTER:                  -6.045
INTRA:                   0.000
UNBOUND:                 0.000

$$$$

     RDKit          3D

 21 23  0  0  0  0  0  0  0  0999 V2000
   45.2966    3.4148    9.0082 C   0  0  0  0  0  0  0  0  0  0  0  0
   44.7265    4.5996    9.0983 N   0  0  0  0  0  0  0  0  0  0  0  0
   46.1201    2.9136    7.7686 C   0  0  0  0  0  0  0  0  0  0  0  0
   45.0713    2.6807   10.1456 N   0  0  0  0  0  0  0  0  0  0  0  0
   46.3055    3.7129    6.6540 N   0  0  0  0  0  0  0  0  0  0  0  0
   44.1179    4.6283   10.3273 C   0  0  0  0  0  0  0  0  0  0  0  0
   44.3183    3.4337   11.0087 C   0  0  0  0  0  0  0  0  0  0  0  0
   47.5183    1.4858    6.1931 S   0  0  0  0  0  0  0  0  0  0  0  0
   47.0235    3.0696    5.7625 C   0  0  0  0  0  0  0  0  0  0  0  0
   46.7087    1.6664    7.6975 C   0  0  0  0  0  0  0  0  0  0  0  0
   43.3706    5.6465   10.9358 C   0  0  0  0  0  0  0  0  0  0  0  0
   43.8110    3.1825   12.2852 C   0  0  0  0  0  0  0  0  0  0  0  0
   43.0674    4.2109   12.8768 C   0  0  0  0  0  0  0  0  0  0  0  0
   42.8490    5.4229   12.2165 C   0  0  0  0  0  0  0  0  0  0  0  0
   45.4033    1.7453   10.3179 H   0  0  0  0  0  0  0  0  0  0  0  0
   47.2896    3.5098    4.8102 H   0  0  0  0  0  0  0  0  0  0  0  0
   46.7136    0.8661    8.4209 H   0  0  0  0  0  0  0  0  0  0  0  0
   43.2062    6.5837   10.4159 H   0  0  0  0  0  0  0  0  0  0  0  0
   43.9792    2.2429   12.7994 H   0  0  0  0  0  0  0  0  0  0  0  0
   42.6506    4.0635   13.8713 H   0  0  0  0  0  0  0  0  0  0  0  0
   42.2675    6.2047   12.6996 H   0  0  0  0  0  0  0  0  0  0  0  0
  2  1  2  0
  3  1  1  0
  4  1  1  0
  5  3  1  0
  6  2  1  0
  7  4  1  0
  8 10  1  0
  9  5  2  0
 10  3  2  0
 11  6  2  0
 12  7  2  0
 13 12  1  0
 14 11  1  0
  6  7  1  0
  9  8  1  0
 14 13  2  0
  4 15  1  0
  9 16  1  0
 10 17  1  0
 11 18  1  0
 12 19  1  0
 13 20  1  0
 14 21  1  0
M  END
> <Uni-Dock RESULT> 
ENERGY=   -4.955  LOWER_BOUND=    2.514  UPPER_BOUND=    5.592
INTER + INTRA:          -4.955
INTER:                  -4.955
INTRA:                   0.000
UNBOUND:                 0.000

$$$$

     RDKit          3D

 21 23  0  0  0  0  0  0  0  0999 V2000
   44.4480    7.7094   11.6996 C   0  0  0  0  0  0  0  0  0  0  0  0
   45.4026    7.0190   12.2903 N   0  0  0  0  0  0  0  0  0  0  0  0
   44.4671    9.2669   11.4999 C   0  0  0  0  0  0  0  0  0  0  0  0
   43.4365    6.8803   11.2838 N   0  0  0  0  0  0  0  0  0  0  0  0
   45.5249   10.0392   11.9474 N   0  0  0  0  0  0  0  0  0  0  0  0
   44.9939    5.7101   12.2535 C   0  0  0  0  0  0  0  0  0  0  0  0
   43.7596    5.5928   11.6256 C   0  0  0  0  0  0  0  0  0  0  0  0
   43.8331   11.6439   10.8491 S   0  0  0  0  0  0  0  0  0  0  0  0
   45.3032   11.3015   11.6618 C   0  0  0  0  0  0  0  0  0  0  0  0
   43.4539    9.9686   10.8770 C   0  0  0  0  0  0  0  0  0  0  0  0
   45.6273    4.5575   12.7390 C   0  0  0  0  0  0  0  0  0  0  0  0
   43.1011    4.3746   11.4464 C   0  0  0  0  0  0  0  0  0  0  0  0
   43.7490    3.2347   11.9377 C   0  0  0  0  0  0  0  0  0  0  0  0
   44.9904    3.3209   12.5734 C   0  0  0  0  0  0  0  0  0  0  0  0
   42.5972    7.1689   10.8073 H   0  0  0  0  0  0  0  0  0  0  0  0
   46.0048   12.0833   11.9224 H   0  0  0  0  0  0  0  0  0  0  0  0
   42.5330    9.6089   10.4452 H   0  0  0  0  0  0  0  0  0  0  0  0
   46.5905    4.6340   13.2310 H   0  0  0  0  0  0  0  0  0  0  0  0
   42.1379    4.3052   10.9534 H   0  0  0  0  0  0  0  0  0  0  0  0
   43.2762    2.2612   11.8223 H   0  0  0  0  0  0  0  0  0  0  0  0
   45.4711    2.4192   12.9455 H   0  0  0  0  0  0  0  0  0  0  0  0
  2  1  2  0
  3  1  1  0
  4  1  1  0
  5  3  1  0
  6  2  1  0
  7  4  1  0
  8 10  1  0
  9  5  2  0
 10  3  2  0
 11  6  2  0
 12  7  2  0
 13 12  1  0
 14 11  1  0
  6  7  1  0
  9  8  1  0
 14 13  2  0
  4 15  1  0
  9 16  1  0
 10 17  1  0
 11 18  1  0
 12 19  1  0
 13 20  1  0
 14 21  1  0
M  END
> <Uni-Dock RESULT> 
ENERGY=   -3.431  LOWER_BOUND=    4.800  UPPER_BOUND=    5.830
INTER + INTRA:          -3.431
INTER:                  -3.431
INTRA:                   0.000
UNBOUND:                 0.000

$$$$

     RDKit          3D

 21 23  0  0  0  0  0  0  0  0999 V2000
   44.4102    7.6674   11.7028 C   0  0  0  0  0  0  0  0  0  0  0  0
   43.4301    6.8974   11.2746 N   0  0  0  0  0  0  0  0  0  0  0  0
   44.4624    9.2266   11.5234 C   0  0  0  0  0  0  0  0  0  0  0  0
   45.3773    6.9193   12.3261 N   0  0  0  0  0  0  0  0  0  0  0  0
   43.4468    9.9139   10.8819 N   0  0  0  0  0  0  0  0  0  0  0  0
   43.7764    5.6191   11.6322 C   0  0  0  0  0  0  0  0  0  0  0  0
   44.9974    5.6026   12.2957 C   0  0  0  0  0  0  0  0  0  0  0  0
   45.2012   11.6606   11.5995 S   0  0  0  0  0  0  0  0  0  0  0  0
   43.7247   11.1971   10.8617 C   0  0  0  0  0  0  0  0  0  0  0  0
   45.5013   10.0127   11.9814 C   0  0  0  0  0  0  0  0  0  0  0  0
   43.0942    4.4122   11.4235 C   0  0  0  0  0  0  0  0  0  0  0  0
   45.5960    4.4357   12.7751 C   0  0  0  0  0  0  0  0  0  0  0  0
   44.9001    3.2404   12.5574 C   0  0  0  0  0  0  0  0  0  0  0  0
   43.6706    3.2252   11.8936 C   0  0  0  0  0  0  0  0  0  0  0  0
   46.2245    7.2772   12.7372 H   0  0  0  0  0  0  0  0  0  0  0  0
   43.0634   11.9230   10.4069 H   0  0  0  0  0  0  0  0  0  0  0  0
   46.3999    9.7276   12.5060 H   0  0  0  0  0  0  0  0  0  0  0  0
   42.1407    4.4100   10.9073 H   0  0  0  0  0  0  0  0  0  0  0  0
   46.5499    4.4451   13.2904 H   0  0  0  0  0  0  0  0  0  0  0  0
   45.3253    2.3035   12.9123 H   0  0  0  0  0  0  0  0  0  0  0  0
   43.1516    2.2822   11.7381 H   0  0  0  0  0  0  0  0  0  0  0  0
  2  1  2  0
  3  1  1  0
  4  1  1  0
  5  3  1  0
  6  2  1  0
  7  4  1  0
  8 10  1  0
  9  5  2  0
 10  3  2  0
 11  6  2  0
 12  7  2  0
 13 12  1  0
 14 11  1  0
  6  7  1  0
  9  8  1  0
 14 13  2  0
  4 15  1  0
  9 16  1  0
 10 17  1  0
 11 18  1  0
 12 19  1  0
 13 20  1  0
 14 21  1  0
M  END
> <Uni-Dock RESULT> 
ENERGY=   -3.403  LOWER_BOUND=    4.823  UPPER_BOUND=    5.755
INTER + INTRA:          -3.403
INTER:                  -3.403
INTRA:                   0.000
UNBOUND:                 0.000

$$$$

     RDKit          3D

 21 23  0  0  0  0  0  0  0  0999 V2000
   46.6627    6.3637   13.3332 C   0  0  0  0  0  0  0  0  0  0  0  0
   46.7741    5.0589   13.1852 N   0  0  0  0  0  0  0  0  0  0  0  0
   47.8073    7.3025   13.8572 C   0  0  0  0  0  0  0  0  0  0  0  0
   45.4100    6.7879   12.9667 N   0  0  0  0  0  0  0  0  0  0  0  0
   49.0484    6.8008   14.2086 N   0  0  0  0  0  0  0  0  0  0  0  0
   45.5599    4.6322   12.7106 C   0  0  0  0  0  0  0  0  0  0  0  0
   44.6816    5.6991   12.5632 C   0  0  0  0  0  0  0  0  0  0  0  0
   49.1281    9.3474   14.5986 S   0  0  0  0  0  0  0  0  0  0  0  0
   49.8238    7.7806   14.6124 C   0  0  0  0  0  0  0  0  0  0  0  0
   47.6665    8.6684   14.0037 C   0  0  0  0  0  0  0  0  0  0  0  0
   45.1289    3.3399   12.3795 C   0  0  0  0  0  0  0  0  0  0  0  0
   43.3728    5.5586   12.0972 C   0  0  0  0  0  0  0  0  0  0  0  0
   42.9603    4.2607   11.7716 C   0  0  0  0  0  0  0  0  0  0  0  0
   43.8206    3.1682   11.9092 C   0  0  0  0  0  0  0  0  0  0  0  0
   45.0806    7.7396   12.9901 H   0  0  0  0  0  0  0  0  0  0  0  0
   50.8429    7.6132   14.9359 H   0  0  0  0  0  0  0  0  0  0  0  0
   46.8133    9.2973   13.8025 H   0  0  0  0  0  0  0  0  0  0  0  0
   45.8033    2.4981   12.4895 H   0  0  0  0  0  0  0  0  0  0  0  0
   42.7035    6.4048   11.9897 H   0  0  0  0  0  0  0  0  0  0  0  0
   41.9488    4.0991   11.4039 H   0  0  0  0  0  0  0  0  0  0  0  0
   43.4739    2.1708   11.6489 H   0  0  0  0  0  0  0  0  0  0  0  0
  2  1  2  0
  3  1  1  0
  4  1  1  0
  5  3  1  0
  6  2  1  0
  7  4  1  0
  8 10  1  0
  9  5  2  0
 10  3  2  0
 11  6  2  0
 12  7  2  0
 13 12  1  0
 14 11  1  0
  6  7  1  0
  9  8  1  0
 14 13  2  0
  4 15  1  0
  9 16  1  0
 10 17  1  0
 11 18  1  0
 12 19  1  0
 13 20  1  0
 14 21  1  0
M  END
> <Uni-Dock RESULT> 
ENERGY=   -3.377  LOWER_BOUND=    4.928  UPPER_BOUND=    6.461
INTER + INTRA:          -3.377
INTER:                  -3.377
INTRA:                   0.000
UNBOUND:                 0.000

$$$$

     RDKit          3D

 21 23  0  0  0  0  0  0  0  0999 V2000
   45.2385    7.6936   12.3925 C   0  0  0  0  0  0  0  0  0  0  0  0
   44.8262    8.8229   11.8525 N   0  0  0  0  0  0  0  0  0  0  0  0
   44.4185    6.3544   12.3938 C   0  0  0  0  0  0  0  0  0  0  0  0
   46.4815    7.8498   12.9528 N   0  0  0  0  0  0  0  0  0  0  0  0
   43.1676    6.2731   11.8072 N   0  0  0  0  0  0  0  0  0  0  0  0
   45.8315    9.7301   12.0714 C   0  0  0  0  0  0  0  0  0  0  0  0
   46.8863    9.1454   12.7619 C   0  0  0  0  0  0  0  0  0  0  0  0
   43.7015    3.9414   12.7672 S   0  0  0  0  0  0  0  0  0  0  0  0
   42.6941    5.0557   11.9410 C   0  0  0  0  0  0  0  0  0  0  0  0
   44.8723    5.1827   12.9668 C   0  0  0  0  0  0  0  0  0  0  0  0
   45.9166   11.0814   11.7077 C   0  0  0  0  0  0  0  0  0  0  0  0
   48.0460    9.8351   13.1215 C   0  0  0  0  0  0  0  0  0  0  0  0
   48.1130   11.1834   12.7498 C   0  0  0  0  0  0  0  0  0  0  0  0
   47.0684   11.7990   12.0550 C   0  0  0  0  0  0  0  0  0  0  0  0
   47.0085    7.1329   13.4253 H   0  0  0  0  0  0  0  0  0  0  0  0
   41.7252    4.7683   11.5539 H   0  0  0  0  0  0  0  0  0  0  0  0
   45.7999    4.9823   13.4799 H   0  0  0  0  0  0  0  0  0  0  0  0
   45.1012   11.5507   11.1688 H   0  0  0  0  0  0  0  0  0  0  0  0
   48.8577    9.3596   13.6606 H   0  0  0  0  0  0  0  0  0  0  0  0
   48.9966   11.7643   13.0072 H   0  0  0  0  0  0  0  0  0  0  0  0
   47.1469   12.8479   11.7788 H   0  0  0  0  0  0  0  0  0  0  0  0
  2  1  2  0
  3  1  1  0
  4  1  1  0
  5  3  1  0
  6  2  1  0
  7  4  1  0
  8 10  1  0
  9  5  2  0
 10  3  2  0
 11  6  2  0
 12  7  2  0
 13 12  1  0
 14 11  1  0
  6  7  1  0
  9  8  1  0
 14 13  2  0
  4 15  1  0
  9 16  1  0
 10 17  1  0
 11 18  1  0
 12 19  1  0
 13 20  1  0
 14 21  1  0
M  END
> <Uni-Dock RESULT> 
ENERGY=   -3.368  LOWER_BOUND=    5.080  UPPER_BOUND=    7.077
INTER + INTRA:          -3.368
INTER:                  -3.368
INTRA:                   0.000
UNBOUND:                 0.000

$$$$

     RDKit          3D

 21 23  0  0  0  0  0  0  0  0999 V2000
   44.3958    6.8651   11.7008 C   0  0  0  0  0  0  0  0  0  0  0  0
   45.3835    7.6003   12.1708 N   0  0  0  0  0  0  0  0  0  0  0  0
   44.3078    5.3026   11.8301 C   0  0  0  0  0  0  0  0  0  0  0  0
   43.4564    7.6527   11.0837 N   0  0  0  0  0  0  0  0  0  0  0  0
   45.2965    4.5741   12.4682 N   0  0  0  0  0  0  0  0  0  0  0  0
   45.0708    8.8961   11.8471 C   0  0  0  0  0  0  0  0  0  0  0  0
   43.8631    8.9594   11.1624 C   0  0  0  0  0  0  0  0  0  0  0  0
   43.5199    2.8885   11.6644 S   0  0  0  0  0  0  0  0  0  0  0  0
   44.9915    3.2972   12.4432 C   0  0  0  0  0  0  0  0  0  0  0  0
   43.2615    4.5535   11.3290 C   0  0  0  0  0  0  0  0  0  0  0  0
   45.7739   10.0811   12.1060 C   0  0  0  0  0  0  0  0  0  0  0  0
   43.2982   10.1531   10.7089 C   0  0  0  0  0  0  0  0  0  0  0  0
   44.0145   11.3260   10.9766 C   0  0  0  0  0  0  0  0  0  0  0  0
   45.2314   11.2942   11.6628 C   0  0  0  0  0  0  0  0  0  0  0  0
   42.6099    7.3259   10.6462 H   0  0  0  0  0  0  0  0  0  0  0  0
   45.6289    2.5435   12.8870 H   0  0  0  0  0  0  0  0  0  0  0  0
   42.3791    4.8738   10.7973 H   0  0  0  0  0  0  0  0  0  0  0  0
   46.7174   10.0469   12.6391 H   0  0  0  0  0  0  0  0  0  0  0  0
   42.3542   10.1801   10.1762 H   0  0  0  0  0  0  0  0  0  0  0  0
   43.6158   12.2822   10.6434 H   0  0  0  0  0  0  0  0  0  0  0  0
   45.7668   12.2206   11.8572 H   0  0  0  0  0  0  0  0  0  0  0  0
  2  1  2  0
  3  1  1  0
  4  1  1  0
  5  3  1  0
  6  2  1  0
  7  4  1  0
  8 10  1  0
  9  5  2  0
 10  3  2  0
 11  6  2  0
 12  7  2  0
 13 12  1  0
 14 11  1  0
  6  7  1  0
  9  8  1  0
 14 13  2  0
  4 15  1  0
  9 16  1  0
 10 17  1  0
 11 18  1  0
 12 19  1  0
 13 20  1  0
 14 21  1  0
M  END
> <Uni-Dock RESULT> 
ENERGY=   -3.363  LOWER_BOUND=    4.295  UPPER_BOUND=    6.744
INTER + INTRA:          -3.363
INTER:                  -3.363
INTRA:                   0.000
UNBOUND:                 0.000

$$$$

     RDKit          3D

 21 23  0  0  0  0  0  0  0  0999 V2000
   45.7132    8.0253   12.3767 C   0  0  0  0  0  0  0  0  0  0  0  0
   44.5787    7.8715   11.7240 N   0  0  0  0  0  0  0  0  0  0  0  0
   46.5330    9.3633   12.4368 C   0  0  0  0  0  0  0  0  0  0  0  0
   46.0786    6.8562   12.9957 N   0  0  0  0  0  0  0  0  0  0  0  0
   46.1001   10.5051   11.7851 N   0  0  0  0  0  0  0  0  0  0  0  0
   44.2042    6.5679   11.9287 C   0  0  0  0  0  0  0  0  0  0  0  0
   45.1295    5.9047   12.7257 C   0  0  0  0  0  0  0  0  0  0  0  0
   48.3151   11.1029   12.9598 S   0  0  0  0  0  0  0  0  0  0  0  0
   46.9544   11.4814   11.9881 C   0  0  0  0  0  0  0  0  0  0  0  0
   47.7205    9.5000   13.1283 C   0  0  0  0  0  0  0  0  0  0  0  0
   43.0790    5.8731   11.4632 C   0  0  0  0  0  0  0  0  0  0  0  0
   45.0036    4.5645   13.0970 C   0  0  0  0  0  0  0  0  0  0  0  0
   43.8737    3.8871   12.6227 C   0  0  0  0  0  0  0  0  0  0  0  0
   42.9260    4.5271   11.8197 C   0  0  0  0  0  0  0  0  0  0  0  0
   46.9054    6.7196   13.5548 H   0  0  0  0  0  0  0  0  0  0  0  0
   46.8118   12.4687   11.5684 H   0  0  0  0  0  0  0  0  0  0  0  0
   48.2650    8.7729   13.7102 H   0  0  0  0  0  0  0  0  0  0  0  0
   42.3488    6.3778   10.8405 H   0  0  0  0  0  0  0  0  0  0  0  0
   45.7377    4.0659   13.7200 H   0  0  0  0  0  0  0  0  0  0  0  0
   43.7303    2.8405   12.8847 H   0  0  0  0  0  0  0  0  0  0  0  0
   42.0576    3.9767   11.4651 H   0  0  0  0  0  0  0  0  0  0  0  0
  2  1  2  0
  3  1  1  0
  4  1  1  0
  5  3  1  0
  6  2  1  0
  7  4  1  0
  8 10  1  0
  9  5  2  0
 10  3  2  0
 11  6  2  0
 12  7  2  0
 13 12  1  0
 14 11  1  0
  6  7  1  0
  9  8  1  0
 14 13  2  0
  4 15  1  0
  9 16  1  0
 10 17  1  0
 11 18  1  0
 12 19  1  0
 13 20  1  0
 14 21  1  0
M  END
> <Uni-Dock RESULT> 
ENERGY=   -3.304  LOWER_BOUND=    5.384  UPPER_BOUND=    6.474
INTER + INTRA:          -3.304
INTER:                  -3.304
INTRA:                   0.000
UNBOUND:                 0.000

$$$$
