
     RDKit          3D

 21 23  0  0  0  0  0  0  0  0999 V2000
   45.3276    3.3098    9.1148 C   0  0  0  0  0  0  0  0  0  0  0  0
   45.0468    2.6201   10.2024 N   0  0  0  0  0  0  0  0  0  0  0  0
   46.1682    2.7648    7.9056 C   0  0  0  0  0  0  0  0  0  0  0  0
   44.7844    4.5682    9.1853 N   0  0  0  0  0  0  0  0  0  0  0  0
   46.6853    1.4810    7.9061 N   0  0  0  0  0  0  0  0  0  0  0  0
   44.3028    3.4579   10.9937 C   0  0  0  0  0  0  0  0  0  0  0  0
   44.1218    4.6909   10.3790 C   0  0  0  0  0  0  0  0  0  0  0  0
   47.3879    2.5745    5.6803 S   0  0  0  0  0  0  0  0  0  0  0  0
   47.3439    1.2686    6.7902 C   0  0  0  0  0  0  0  0  0  0  0  0
   46.4494    3.5074    6.7758 C   0  0  0  0  0  0  0  0  0  0  0  0
   43.7426    3.2349   12.2594 C   0  0  0  0  0  0  0  0  0  0  0  0
   43.4028    5.7394   10.9564 C   0  0  0  0  0  0  0  0  0  0  0  0
   42.8506    5.4984   12.2203 C   0  0  0  0  0  0  0  0  0  0  0  0
   43.0157    4.2688   12.8636 C   0  0  0  0  0  0  0  0  0  0  0  0
   44.8596    5.2822    8.4787 H   0  0  0  0  0  0  0  0  0  0  0  0
   47.8320    0.3260    6.5794 H   0  0  0  0  0  0  0  0  0  0  0  0
   46.1677    4.5195    6.5304 H   0  0  0  0  0  0  0  0  0  0  0  0
   43.8757    2.2777   12.7509 H   0  0  0  0  0  0  0  0  0  0  0  0
   43.2733    6.6943   10.4593 H   0  0  0  0  0  0  0  0  0  0  0  0
   42.2811    6.2846   12.7124 H   0  0  0  0  0  0  0  0  0  0  0  0
   42.5759    4.1087   13.8451 H   0  0  0  0  0  0  0  0  0  0  0  0
  2  1  2  0
  3  1  1  0
  4  1  1  0
  5  3  1  0
  6  2  1  0
  7  4  1  0
  8 10  1  0
  9  5  2  0
 10  3  2  0
 11  6  2  0
 12  7  2  0
 13 12  1  0
 14 11  1  0
  6  7  1  0
  9  8  1  0
 14 13  2  0
  4 15  1  0
  9 16  1  0
 10 17  1  0
 11 18  1  0
 12 19  1  0
 13 20  1  0
 14 21  1  0
M  END
> <Uni-Dock RESULT> 
ENERGY=   -5.332  LOWER_BOUND=    0.000  UPPER_BOUND=    0.000
INTER + INTRA:          -5.332
INTER:                  -5.332
INTRA:                   0.000
UNBOUND:                 0.000

$$$$

     RDKit          3D

 21 23  0  0  0  0  0  0  0  0999 V2000
   45.2963    3.4148    9.0086 C   0  0  0  0  0  0  0  0  0  0  0  0
   44.7264    4.5998    9.0987 N   0  0  0  0  0  0  0  0  0  0  0  0
   46.1199    2.9135    7.7691 C   0  0  0  0  0  0  0  0  0  0  0  0
   45.0708    2.6808   10.1461 N   0  0  0  0  0  0  0  0  0  0  0  0
   46.3054    3.7127    6.6544 N   0  0  0  0  0  0  0  0  0  0  0  0
   44.1178    4.6286   10.3277 C   0  0  0  0  0  0  0  0  0  0  0  0
   44.3179    3.4340   11.0090 C   0  0  0  0  0  0  0  0  0  0  0  0
   47.5179    1.4853    6.1937 S   0  0  0  0  0  0  0  0  0  0  0  0
   47.0233    3.0693    5.7630 C   0  0  0  0  0  0  0  0  0  0  0  0
   46.7082    1.6661    7.6980 C   0  0  0  0  0  0  0  0  0  0  0  0
   43.3706    5.6470   10.9361 C   0  0  0  0  0  0  0  0  0  0  0  0
   43.8105    3.1830   12.2855 C   0  0  0  0  0  0  0  0  0  0  0  0
   43.0671    4.2114   12.8771 C   0  0  0  0  0  0  0  0  0  0  0  0
   42.8489    5.4236   12.2168 C   0  0  0  0  0  0  0  0  0  0  0  0
   45.4026    1.7454   10.3184 H   0  0  0  0  0  0  0  0  0  0  0  0
   47.2896    3.5094    4.8108 H   0  0  0  0  0  0  0  0  0  0  0  0
   46.7128    0.8658    8.4215 H   0  0  0  0  0  0  0  0  0  0  0  0
   43.2065    6.5842   10.4163 H   0  0  0  0  0  0  0  0  0  0  0  0
   43.9785    2.2434   12.7998 H   0  0  0  0  0  0  0  0  0  0  0  0
   42.6503    4.0642   13.8717 H   0  0  0  0  0  0  0  0  0  0  0  0
   42.2676    6.2054   12.6998 H   0  0  0  0  0  0  0  0  0  0  0  0
  2  1  2  0
  3  1  1  0
  4  1  1  0
  5  3  1  0
  6  2  1  0
  7  4  1  0
  8 10  1  0
  9  5  2  0
 10  3  2  0
 11  6  2  0
 12  7  2  0
 13 12  1  0
 14 11  1  0
  6  7  1  0
  9  8  1  0
 14 13  2  0
  4 15  1  0
  9 16  1  0
 10 17  1  0
 11 18  1  0
 12 19  1  0
 13 20  1  0
 14 21  1  0
M  END
> <Uni-Dock RESULT> 
ENERGY=   -4.954  LOWER_BOUND=    0.895  UPPER_BOUND=    1.903
INTER + INTRA:          -4.954
INTER:                  -4.954
INTRA:                   0.000
UNBOUND:                 0.000

$$$$

     RDKit          3D

 21 23  0  0  0  0  0  0  0  0999 V2000
   44.0226    7.5648   11.4839 C   0  0  0  0  0  0  0  0  0  0  0  0
   43.1601    6.6341   11.1271 N   0  0  0  0  0  0  0  0  0  0  0  0
   43.8496    9.0986   11.1951 C   0  0  0  0  0  0  0  0  0  0  0  0
   45.0911    7.0088   12.1417 N   0  0  0  0  0  0  0  0  0  0  0  0
   42.7417    9.5865   10.5242 N   0  0  0  0  0  0  0  0  0  0  0  0
   43.6885    5.4473   11.5675 C   0  0  0  0  0  0  0  0  0  0  0  0
   44.9036    5.6526   12.2098 C   0  0  0  0  0  0  0  0  0  0  0  0
   44.2323   11.6122   11.0882 S   0  0  0  0  0  0  0  0  0  0  0  0
   42.8327   10.8913   10.4095 C   0  0  0  0  0  0  0  0  0  0  0  0
   44.7681   10.0555   11.5793 C   0  0  0  0  0  0  0  0  0  0  0  0
   43.1850    4.1437   11.4552 C   0  0  0  0  0  0  0  0  0  0  0  0
   45.6663    4.6203   12.7596 C   0  0  0  0  0  0  0  0  0  0  0  0
   45.1477    3.3255   12.6379 C   0  0  0  0  0  0  0  0  0  0  0  0
   43.9286    3.0876   11.9975 C   0  0  0  0  0  0  0  0  0  0  0  0
   45.8809    7.5122   12.5125 H   0  0  0  0  0  0  0  0  0  0  0  0
   42.0711   11.4812    9.9162 H   0  0  0  0  0  0  0  0  0  0  0  0
   45.7017    9.9397   12.1074 H   0  0  0  0  0  0  0  0  0  0  0  0
   42.2382    3.9686   10.9567 H   0  0  0  0  0  0  0  0  0  0  0  0
   46.6124    4.8023   13.2570 H   0  0  0  0  0  0  0  0  0  0  0  0
   45.7051    2.4866   13.0504 H   0  0  0  0  0  0  0  0  0  0  0  0
   43.5492    2.0717   11.9172 H   0  0  0  0  0  0  0  0  0  0  0  0
  2  1  2  0
  3  1  1  0
  4  1  1  0
  5  3  1  0
  6  2  1  0
  7  4  1  0
  8 10  1  0
  9  5  2  0
 10  3  2  0
 11  6  2  0
 12  7  2  0
 13 12  1  0
 14 11  1  0
  6  7  1  0
  9  8  1  0
 14 13  2  0
  4 15  1  0
  9 16  1  0
 10 17  1  0
 11 18  1  0
 12 19  1  0
 13 20  1  0
 14 21  1  0
M  END
> <Uni-Dock RESULT> 
ENERGY=   -3.451  LOWER_BOUND=    4.751  UPPER_BOUND=    6.296
INTER + INTRA:          -3.451
INTER:                  -3.451
INTRA:                   0.000
UNBOUND:                 0.000

$$$$

     RDKit          3D

 21 23  0  0  0  0  0  0  0  0999 V2000
   44.4548    7.7031   11.6980 C   0  0  0  0  0  0  0  0  0  0  0  0
   45.4084    7.0185   12.2972 N   0  0  0  0  0  0  0  0  0  0  0  0
   44.4665    9.2606   11.4977 C   0  0  0  0  0  0  0  0  0  0  0  0
   43.4517    6.8679   11.2739 N   0  0  0  0  0  0  0  0  0  0  0  0
   45.5157   10.0393   11.9540 N   0  0  0  0  0  0  0  0  0  0  0  0
   45.0076    5.7072   12.2574 C   0  0  0  0  0  0  0  0  0  0  0  0
   43.7795    5.5825   11.6191 C   0  0  0  0  0  0  0  0  0  0  0  0
   43.8240   11.6336   10.8405 S   0  0  0  0  0  0  0  0  0  0  0  0
   45.2892   11.3002   11.6659 C   0  0  0  0  0  0  0  0  0  0  0  0
   43.4544    9.9561   10.8660 C   0  0  0  0  0  0  0  0  0  0  0  0
   45.6437    4.5585   12.7488 C   0  0  0  0  0  0  0  0  0  0  0  0
   43.1298    4.3603   11.4348 C   0  0  0  0  0  0  0  0  0  0  0  0
   43.7800    3.2244   11.9320 C   0  0  0  0  0  0  0  0  0  0  0  0
   45.0155    3.3182   12.5783 C   0  0  0  0  0  0  0  0  0  0  0  0
   42.6149    7.1513   10.7901 H   0  0  0  0  0  0  0  0  0  0  0  0
   45.9839   12.0862   11.9321 H   0  0  0  0  0  0  0  0  0  0  0  0
   42.5394    9.5908   10.4265 H   0  0  0  0  0  0  0  0  0  0  0  0
   46.6022    4.6409   13.2489 H   0  0  0  0  0  0  0  0  0  0  0  0
   42.1713    4.2850   10.9336 H   0  0  0  0  0  0  0  0  0  0  0  0
   43.3141    2.2480   11.8130 H   0  0  0  0  0  0  0  0  0  0  0  0
   45.4984    2.4195   12.9548 H   0  0  0  0  0  0  0  0  0  0  0  0
  2  1  2  0
  3  1  1  0
  4  1  1  0
  5  3  1  0
  6  2  1  0
  7  4  1  0
  8 10  1  0
  9  5  2  0
 10  3  2  0
 11  6  2  0
 12  7  2  0
 13 12  1  0
 14 11  1  0
  6  7  1  0
  9  8  1  0
 14 13  2  0
  4 15  1  0
  9 16  1  0
 10 17  1  0
 11 18  1  0
 12 19  1  0
 13 20  1  0
 14 21  1  0
M  END
> <Uni-Dock RESULT> 
ENERGY=   -3.429  LOWER_BOUND=    4.793  UPPER_BOUND=    6.307
INTER + INTRA:          -3.429
INTER:                  -3.429
INTRA:                   0.000
UNBOUND:                 0.000

$$$$

     RDKit          3D

 21 23  0  0  0  0  0  0  0  0999 V2000
   45.2399    7.6933   12.3935 C   0  0  0  0  0  0  0  0  0  0  0  0
   44.8284    8.8229   11.8532 N   0  0  0  0  0  0  0  0  0  0  0  0
   44.4192    6.3544   12.3944 C   0  0  0  0  0  0  0  0  0  0  0  0
   46.4828    7.8487   12.9543 N   0  0  0  0  0  0  0  0  0  0  0  0
   43.1684    6.2739   11.8073 N   0  0  0  0  0  0  0  0  0  0  0  0
   45.8342    9.7294   12.0725 C   0  0  0  0  0  0  0  0  0  0  0  0
   46.8884    9.1441   12.7635 C   0  0  0  0  0  0  0  0  0  0  0  0
   43.7005    3.9419   12.7676 S   0  0  0  0  0  0  0  0  0  0  0  0
   42.6942    5.0568   11.9409 C   0  0  0  0  0  0  0  0  0  0  0  0
   44.8720    5.1825   12.9676 C   0  0  0  0  0  0  0  0  0  0  0  0
   45.9203   11.0807   11.7088 C   0  0  0  0  0  0  0  0  0  0  0  0
   48.0482    9.8332   13.1235 C   0  0  0  0  0  0  0  0  0  0  0  0
   48.1163   11.1814   12.7518 C   0  0  0  0  0  0  0  0  0  0  0  0
   47.0723   11.7976   12.0566 C   0  0  0  0  0  0  0  0  0  0  0  0
   47.0092    7.1316   13.4269 H   0  0  0  0  0  0  0  0  0  0  0  0
   41.7253    4.7699   11.5535 H   0  0  0  0  0  0  0  0  0  0  0  0
   45.7992    4.9817   13.4811 H   0  0  0  0  0  0  0  0  0  0  0  0
   45.1054   11.5504   11.1694 H   0  0  0  0  0  0  0  0  0  0  0  0
   48.8595    9.3572   13.6628 H   0  0  0  0  0  0  0  0  0  0  0  0
   49.0002   11.7618   13.0095 H   0  0  0  0  0  0  0  0  0  0  0  0
   47.1516   12.8464   11.7803 H   0  0  0  0  0  0  0  0  0  0  0  0
  2  1  2  0
  3  1  1  0
  4  1  1  0
  5  3  1  0
  6  2  1  0
  7  4  1  0
  8 10  1  0
  9  5  2  0
 10  3  2  0
 11  6  2  0
 12  7  2  0
 13 12  1  0
 14 11  1  0
  6  7  1  0
  9  8  1  0
 14 13  2  0
  4 15  1  0
  9 16  1  0
 10 17  1  0
 11 18  1  0
 12 19  1  0
 13 20  1  0
 14 21  1  0
M  END
> <Uni-Dock RESULT> 
ENERGY=   -3.369  LOWER_BOUND=    5.232  UPPER_BOUND=    6.955
INTER + INTRA:          -3.369
INTER:                  -3.369
INTRA:                   0.000
UNBOUND:                 0.000

$$$$

     RDKit          3D

 21 23  0  0  0  0  0  0  0  0999 V2000
   44.3996    6.8725   11.7010 C   0  0  0  0  0  0  0  0  0  0  0  0
   45.3913    7.6060   12.1653 N   0  0  0  0  0  0  0  0  0  0  0  0
   44.3097    5.3100   11.8303 C   0  0  0  0  0  0  0  0  0  0  0  0
   43.4578    7.6618   11.0898 N   0  0  0  0  0  0  0  0  0  0  0  0
   45.3012    4.5797   12.4621 N   0  0  0  0  0  0  0  0  0  0  0  0
   45.0787    8.9024   11.8440 C   0  0  0  0  0  0  0  0  0  0  0  0
   43.8671    8.9677   11.1666 C   0  0  0  0  0  0  0  0  0  0  0  0
   43.5170    2.8973   11.6684 S   0  0  0  0  0  0  0  0  0  0  0  0
   44.9939    3.3033   12.4385 C   0  0  0  0  0  0  0  0  0  0  0  0
   43.2593    4.5628   11.3350 C   0  0  0  0  0  0  0  0  0  0  0  0
   45.7853   10.0861   12.0990 C   0  0  0  0  0  0  0  0  0  0  0  0
   43.3014   10.1626   10.7169 C   0  0  0  0  0  0  0  0  0  0  0  0
   44.0212   11.3342   10.9807 C   0  0  0  0  0  0  0  0  0  0  0  0
   45.2422   11.3003   11.6597 C   0  0  0  0  0  0  0  0  0  0  0  0
   42.6082    7.3366   10.6573 H   0  0  0  0  0  0  0  0  0  0  0  0
   45.6327    2.5484   12.8782 H   0  0  0  0  0  0  0  0  0  0  0  0
   42.3743    4.8848   10.8088 H   0  0  0  0  0  0  0  0  0  0  0  0
   46.7318   10.0502   12.6266 H   0  0  0  0  0  0  0  0  0  0  0  0
   42.3543   10.1914   10.1900 H   0  0  0  0  0  0  0  0  0  0  0  0
   43.6220   12.2913   10.6504 H   0  0  0  0  0  0  0  0  0  0  0  0
   45.7802   12.2257   11.8512 H   0  0  0  0  0  0  0  0  0  0  0  0
  2  1  2  0
  3  1  1  0
  4  1  1  0
  5  3  1  0
  6  2  1  0
  7  4  1  0
  8 10  1  0
  9  5  2  0
 10  3  2  0
 11  6  2  0
 12  7  2  0
 13 12  1  0
 14 11  1  0
  6  7  1  0
  9  8  1  0
 14 13  2  0
  4 15  1  0
  9 16  1  0
 10 17  1  0
 11 18  1  0
 12 19  1  0
 13 20  1  0
 14 21  1  0
M  END
> <Uni-Dock RESULT> 
ENERGY=   -3.364  LOWER_BOUND=    4.118  UPPER_BOUND=    5.731
INTER + INTRA:          -3.364
INTER:                  -3.364
INTRA:                   0.000
UNBOUND:                 0.000

$$$$

     RDKit          3D

 21 23  0  0  0  0  0  0  0  0999 V2000
   46.5769    4.1546   14.2437 C   0  0  0  0  0  0  0  0  0  0  0  0
   46.2344    3.2244   13.3749 N   0  0  0  0  0  0  0  0  0  0  0  0
   47.5408    3.9252   15.4620 C   0  0  0  0  0  0  0  0  0  0  0  0
   45.9756    5.3495   13.9367 N   0  0  0  0  0  0  0  0  0  0  0  0
   48.1110    2.6884   15.7086 N   0  0  0  0  0  0  0  0  0  0  0  0
   45.3898    3.8380   12.4851 C   0  0  0  0  0  0  0  0  0  0  0  0
   45.2087    5.1760   12.8139 C   0  0  0  0  0  0  0  0  0  0  0  0
   48.9535    4.2856   17.5477 S   0  0  0  0  0  0  0  0  0  0  0  0
   48.8713    2.7565   16.7769 C   0  0  0  0  0  0  0  0  0  0  0  0
   47.8850    4.9166   16.3596 C   0  0  0  0  0  0  0  0  0  0  0  0
   44.7335    3.3139   11.3625 C   0  0  0  0  0  0  0  0  0  0  0  0
   44.3981    6.0448   12.0805 C   0  0  0  0  0  0  0  0  0  0  0  0
   43.7510    5.5038   10.9630 C   0  0  0  0  0  0  0  0  0  0  0  0
   43.9135    4.1621   10.6072 C   0  0  0  0  0  0  0  0  0  0  0  0
   46.0800    6.2099   14.4500 H   0  0  0  0  0  0  0  0  0  0  0  0
   49.4161    1.9000   17.1523 H   0  0  0  0  0  0  0  0  0  0  0  0
   47.5817    5.9514   16.3908 H   0  0  0  0  0  0  0  0  0  0  0  0
   44.8656    2.2718   11.0940 H   0  0  0  0  0  0  0  0  0  0  0  0
   44.2705    7.0861   12.3545 H   0  0  0  0  0  0  0  0  0  0  0  0
   43.1079    6.1408   10.3586 H   0  0  0  0  0  0  0  0  0  0  0  0
   43.3989    3.7681    9.7341 H   0  0  0  0  0  0  0  0  0  0  0  0
  2  1  2  0
  3  1  1  0
  4  1  1  0
  5  3  1  0
  6  2  1  0
  7  4  1  0
  8 10  1  0
  9  5  2  0
 10  3  2  0
 11  6  2  0
 12  7  2  0
 13 12  1  0
 14 11  1  0
  6  7  1  0
  9  8  1  0
 14 13  2  0
  4 15  1  0
  9 16  1  0
 10 17  1  0
 11 18  1  0
 12 19  1  0
 13 20  1  0
 14 21  1  0
M  END
> <Uni-Dock RESULT> 
ENERGY=   -3.347  LOWER_BOUND=    5.024  UPPER_BOUND=    6.321
INTER + INTRA:          -3.347
INTER:                  -3.347
INTRA:                   0.000
UNBOUND:                 0.000

$$$$

     RDKit          3D

 21 23  0  0  0  0  0  0  0  0999 V2000
   51.3638    2.3006   17.7021 C   0  0  0  0  0  0  0  0  0  0  0  0
   50.3531    1.8773   16.9696 N   0  0  0  0  0  0  0  0  0  0  0  0
   52.7565    1.5817   17.8002 C   0  0  0  0  0  0  0  0  0  0  0  0
   51.0312    3.4548   18.3661 N   0  0  0  0  0  0  0  0  0  0  0  0
   53.0191    0.4176   17.0992 N   0  0  0  0  0  0  0  0  0  0  0  0
   49.3430    2.7840   17.1680 C   0  0  0  0  0  0  0  0  0  0  0  0
   49.7416    3.7879   18.0424 C   0  0  0  0  0  0  0  0  0  0  0  0
   55.1528    0.9955   18.4245 S   0  0  0  0  0  0  0  0  0  0  0  0
   54.2446    0.0177   17.3483 C   0  0  0  0  0  0  0  0  0  0  0  0
   53.8011    2.0451   18.5755 C   0  0  0  0  0  0  0  0  0  0  0  0
   48.0479    2.8171   16.6321 C   0  0  0  0  0  0  0  0  0  0  0  0
   48.9150    4.8459   18.4259 C   0  0  0  0  0  0  0  0  0  0  0  0
   47.6255    4.8623   17.8807 C   0  0  0  0  0  0  0  0  0  0  0  0
   47.1961    3.8668   16.9988 C   0  0  0  0  0  0  0  0  0  0  0  0
   51.6334    3.9709   18.9871 H   0  0  0  0  0  0  0  0  0  0  0  0
   54.6611   -0.8762   16.9026 H   0  0  0  0  0  0  0  0  0  0  0  0
   53.8537    2.9171   19.2083 H   0  0  0  0  0  0  0  0  0  0  0  0
   47.7235    2.0405   15.9486 H   0  0  0  0  0  0  0  0  0  0  0  0
   49.2459    5.6194   19.1099 H   0  0  0  0  0  0  0  0  0  0  0  0
   46.9431    5.6667   18.1489 H   0  0  0  0  0  0  0  0  0  0  0  0
   46.1890    3.9042   16.5902 H   0  0  0  0  0  0  0  0  0  0  0  0
  2  1  2  0
  3  1  1  0
  4  1  1  0
  5  3  1  0
  6  2  1  0
  7  4  1  0
  8 10  1  0
  9  5  2  0
 10  3  2  0
 11  6  2  0
 12  7  2  0
 13 12  1  0
 14 11  1  0
  6  7  1  0
  9  8  1  0
 14 13  2  0
  4 15  1  0
  9 16  1  0
 10 17  1  0
 11 18  1  0
 12 19  1  0
 13 20  1  0
 14 21  1  0
M  END
> <Uni-Dock RESULT> 
ENERGY=   -3.345  LOWER_BOUND=    9.717  UPPER_BOUND=   10.454
INTER + INTRA:          -3.345
INTER:                  -3.345
INTRA:                   0.000
UNBOUND:                 0.000

$$$$

     RDKit          3D

 21 23  0  0  0  0  0  0  0  0999 V2000
   46.5411    6.5172   13.2646 C   0  0  0  0  0  0  0  0  0  0  0  0
   45.3224    6.8841   12.9222 N   0  0  0  0  0  0  0  0  0  0  0  0
   47.6582    7.4976   13.7715 C   0  0  0  0  0  0  0  0  0  0  0  0
   46.6987    5.1618   13.1170 N   0  0  0  0  0  0  0  0  0  0  0  0
   47.4248    8.8562   13.8948 N   0  0  0  0  0  0  0  0  0  0  0  0
   44.6786    5.7334   12.5442 C   0  0  0  0  0  0  0  0  0  0  0  0
   45.5206    4.6335   12.6566 C   0  0  0  0  0  0  0  0  0  0  0  0
   49.8613    8.4418   14.6261 S   0  0  0  0  0  0  0  0  0  0  0  0
   48.5083    9.4534   14.3346 C   0  0  0  0  0  0  0  0  0  0  0  0
   48.9291    7.0888   14.1246 C   0  0  0  0  0  0  0  0  0  0  0  0
   43.3654    5.5468   12.0899 C   0  0  0  0  0  0  0  0  0  0  0  0
   45.1302    3.3311   12.3386 C   0  0  0  0  0  0  0  0  0  0  0  0
   43.8155    3.1643   11.8869 C   0  0  0  0  0  0  0  0  0  0  0  0
   42.9455    4.2510   11.7634 C   0  0  0  0  0  0  0  0  0  0  0  0
   47.5387    4.6420   13.3139 H   0  0  0  0  0  0  0  0  0  0  0  0
   48.5491   10.5214   14.5046 H   0  0  0  0  0  0  0  0  0  0  0  0
   49.3595    6.0996   14.1195 H   0  0  0  0  0  0  0  0  0  0  0  0
   42.6975    6.3959   11.9974 H   0  0  0  0  0  0  0  0  0  0  0  0
   45.8033    2.4864   12.4337 H   0  0  0  0  0  0  0  0  0  0  0  0
   43.4633    2.1679   11.6263 H   0  0  0  0  0  0  0  0  0  0  0  0
   41.9294    4.0927   11.4100 H   0  0  0  0  0  0  0  0  0  0  0  0
  2  1  2  0
  3  1  1  0
  4  1  1  0
  5  3  1  0
  6  2  1  0
  7  4  1  0
  8 10  1  0
  9  5  2  0
 10  3  2  0
 11  6  2  0
 12  7  2  0
 13 12  1  0
 14 11  1  0
  6  7  1  0
  9  8  1  0
 14 13  2  0
  4 15  1  0
  9 16  1  0
 10 17  1  0
 11 18  1  0
 12 19  1  0
 13 20  1  0
 14 21  1  0
M  END
> <Uni-Dock RESULT> 
ENERGY=   -3.313  LOWER_BOUND=    5.045  UPPER_BOUND=    6.445
INTER + INTRA:          -3.313
INTER:                  -3.313
INTRA:                   0.000
UNBOUND:                 0.000

$$$$
