
     RDKit          3D

 21 23  0  0  0  0  0  0  0  0999 V2000
   44.9523    3.7775    9.3920 C   0  0  0  0  0  0  0  0  0  0  0  0
   45.3873    4.4078    8.3194 N   0  0  0  0  0  0  0  0  0  0  0  0
   44.0944    4.4393   10.5285 C   0  0  0  0  0  0  0  0  0  0  0  0
   45.3521    2.4646    9.3781 N   0  0  0  0  0  0  0  0  0  0  0  0
   43.7285    5.7730   10.4733 N   0  0  0  0  0  0  0  0  0  0  0  0
   46.0859    3.4750    7.5960 C   0  0  0  0  0  0  0  0  0  0  0  0
   46.0805    2.2426    8.2383 C   0  0  0  0  0  0  0  0  0  0  0  0
   42.7473    4.8133   12.6550 S   0  0  0  0  0  0  0  0  0  0  0  0
   43.0197    6.0819   11.5346 C   0  0  0  0  0  0  0  0  0  0  0  0
   43.6498    3.7573   11.6441 C   0  0  0  0  0  0  0  0  0  0  0  0
   46.7577    3.6064    6.3724 C   0  0  0  0  0  0  0  0  0  0  0  0
   46.7150    1.1078    7.7292 C   0  0  0  0  0  0  0  0  0  0  0  0
   47.3805    1.2580    6.5065 C   0  0  0  0  0  0  0  0  0  0  0  0
   47.4035    2.4845    5.8370 C   0  0  0  0  0  0  0  0  0  0  0  0
   45.1452    1.7788   10.0863 H   0  0  0  0  0  0  0  0  0  0  0  0
   42.6285    7.0779   11.6965 H   0  0  0  0  0  0  0  0  0  0  0  0
   43.7958    2.7253   11.9227 H   0  0  0  0  0  0  0  0  0  0  0  0
   46.7702    4.5618    5.8601 H   0  0  0  0  0  0  0  0  0  0  0  0
   46.6985    0.1551    8.2468 H   0  0  0  0  0  0  0  0  0  0  0  0
   47.8906    0.4024    6.0681 H   0  0  0  0  0  0  0  0  0  0  0  0
   47.9281    2.5730    4.8887 H   0  0  0  0  0  0  0  0  0  0  0  0
  2  1  2  0
  3  1  1  0
  4  1  1  0
  5  3  1  0
  6  2  1  0
  7  4  1  0
  8 10  1  0
  9  5  2  0
 10  3  2  0
 11  6  2  0
 12  7  2  0
 13 12  1  0
 14 11  1  0
  6  7  1  0
  9  8  1  0
 14 13  2  0
  4 15  1  0
  9 16  1  0
 10 17  1  0
 11 18  1  0
 12 19  1  0
 13 20  1  0
 14 21  1  0
M  END
> <Uni-Dock RESULT> 
ENERGY=   -6.264  LOWER_BOUND=    0.000  UPPER_BOUND=    0.000
INTER + INTRA:          -6.264
INTER:                  -6.264
INTRA:                   0.000
UNBOUND:                 0.000

$$$$

     RDKit          3D

 21 23  0  0  0  0  0  0  0  0999 V2000
   44.9979    3.5204    9.3861 C   0  0  0  0  0  0  0  0  0  0  0  0
   45.4634    2.2895    9.3149 N   0  0  0  0  0  0  0  0  0  0  0  0
   44.1234    4.0760   10.5661 C   0  0  0  0  0  0  0  0  0  0  0  0
   45.3825    4.2484    8.2879 N   0  0  0  0  0  0  0  0  0  0  0  0
   43.7744    3.2799   11.6431 N   0  0  0  0  0  0  0  0  0  0  0  0
   46.1667    2.2240    8.1390 C   0  0  0  0  0  0  0  0  0  0  0  0
   46.1329    3.4425    7.4716 C   0  0  0  0  0  0  0  0  0  0  0  0
   42.7349    5.6021   12.0558 S   0  0  0  0  0  0  0  0  0  0  0  0
   43.0464    3.9727   12.4881 C   0  0  0  0  0  0  0  0  0  0  0  0
   43.6467    5.3712   10.6182 C   0  0  0  0  0  0  0  0  0  0  0  0
   46.8663    1.1506    7.5696 C   0  0  0  0  0  0  0  0  0  0  0  0
   46.7650    3.6657    6.2467 C   0  0  0  0  0  0  0  0  0  0  0  0
   47.4586    2.5825    5.6935 C   0  0  0  0  0  0  0  0  0  0  0  0
   47.5104    1.3451    6.3409 C   0  0  0  0  0  0  0  0  0  0  0  0
   45.1524    5.2129    8.1112 H   0  0  0  0  0  0  0  0  0  0  0  0
   42.6633    3.5442   13.4051 H   0  0  0  0  0  0  0  0  0  0  0  0
   43.7747    6.1798    9.9156 H   0  0  0  0  0  0  0  0  0  0  0  0
   46.9011    0.1942    8.0790 H   0  0  0  0  0  0  0  0  0  0  0  0
   46.7261    4.6249    5.7425 H   0  0  0  0  0  0  0  0  0  0  0  0
   47.9680    2.7062    4.7398 H   0  0  0  0  0  0  0  0  0  0  0  0
   48.0564    0.5207    5.8886 H   0  0  0  0  0  0  0  0  0  0  0  0
  2  1  2  0
  3  1  1  0
  4  1  1  0
  5  3  1  0
  6  2  1  0
  7  4  1  0
  8 10  1  0
  9  5  2  0
 10  3  2  0
 11  6  2  0
 12  7  2  0
 13 12  1  0
 14 11  1  0
  6  7  1  0
  9  8  1  0
 14 13  2  0
  4 15  1  0
  9 16  1  0
 10 17  1  0
 11 18  1  0
 12 19  1  0
 13 20  1  0
 14 21  1  0
M  END
> <Uni-Dock RESULT> 
ENERGY=   -6.048  LOWER_BOUND=    0.922  UPPER_BOUND=    1.922
INTER + INTRA:          -6.048
INTER:                  -6.048
INTRA:                   0.000
UNBOUND:                 0.000

$$$$

     RDKit          3D

 21 23  0  0  0  0  0  0  0  0999 V2000
   45.2967    3.4148    9.0078 C   0  0  0  0  0  0  0  0  0  0  0  0
   44.7264    4.5996    9.0980 N   0  0  0  0  0  0  0  0  0  0  0  0
   46.1204    2.9139    7.7683 C   0  0  0  0  0  0  0  0  0  0  0  0
   45.0715    2.6806   10.1454 N   0  0  0  0  0  0  0  0  0  0  0  0
   46.3056    3.7132    6.6537 N   0  0  0  0  0  0  0  0  0  0  0  0
   44.1179    4.6282   10.3270 C   0  0  0  0  0  0  0  0  0  0  0  0
   44.3185    3.4336   11.0084 C   0  0  0  0  0  0  0  0  0  0  0  0
   47.5189    1.4863    6.1927 S   0  0  0  0  0  0  0  0  0  0  0  0
   47.0237    3.0701    5.7621 C   0  0  0  0  0  0  0  0  0  0  0  0
   46.7092    1.6667    7.6972 C   0  0  0  0  0  0  0  0  0  0  0  0
   43.3703    5.6463   10.9355 C   0  0  0  0  0  0  0  0  0  0  0  0
   43.8112    3.1824   12.2848 C   0  0  0  0  0  0  0  0  0  0  0  0
   43.0674    4.2105   12.8765 C   0  0  0  0  0  0  0  0  0  0  0  0
   42.8488    5.4226   12.2162 C   0  0  0  0  0  0  0  0  0  0  0  0
   45.4037    1.7454   10.3176 H   0  0  0  0  0  0  0  0  0  0  0  0
   47.2897    3.5103    4.8099 H   0  0  0  0  0  0  0  0  0  0  0  0
   46.7143    0.8664    8.4206 H   0  0  0  0  0  0  0  0  0  0  0  0
   43.2058    6.5834   10.4157 H   0  0  0  0  0  0  0  0  0  0  0  0
   43.9796    2.2426   12.7991 H   0  0  0  0  0  0  0  0  0  0  0  0
   42.6507    4.0631   13.8710 H   0  0  0  0  0  0  0  0  0  0  0  0
   42.2672    6.2041   12.6993 H   0  0  0  0  0  0  0  0  0  0  0  0
  2  1  2  0
  3  1  1  0
  4  1  1  0
  5  3  1  0
  6  2  1  0
  7  4  1  0
  8 10  1  0
  9  5  2  0
 10  3  2  0
 11  6  2  0
 12  7  2  0
 13 12  1  0
 14 11  1  0
  6  7  1  0
  9  8  1  0
 14 13  2  0
  4 15  1  0
  9 16  1  0
 10 17  1  0
 11 18  1  0
 12 19  1  0
 13 20  1  0
 14 21  1  0
M  END
> <Uni-Dock RESULT> 
ENERGY=   -4.953  LOWER_BOUND=    2.514  UPPER_BOUND=    5.592
INTER + INTRA:          -4.953
INTER:                  -4.953
INTRA:                   0.000
UNBOUND:                 0.000

$$$$

     RDKit          3D

 21 23  0  0  0  0  0  0  0  0999 V2000
   44.0213    7.5658   11.4837 C   0  0  0  0  0  0  0  0  0  0  0  0
   43.1585    6.6349   11.1287 N   0  0  0  0  0  0  0  0  0  0  0  0
   43.8477    9.0994   11.1943 C   0  0  0  0  0  0  0  0  0  0  0  0
   45.0909    7.0102   12.1403 N   0  0  0  0  0  0  0  0  0  0  0  0
   42.7388    9.5868   10.5247 N   0  0  0  0  0  0  0  0  0  0  0  0
   43.6875    5.4484   11.5690 C   0  0  0  0  0  0  0  0  0  0  0  0
   44.9036    5.6541   12.2095 C   0  0  0  0  0  0  0  0  0  0  0  0
   44.2300   11.6130   11.0854 S   0  0  0  0  0  0  0  0  0  0  0  0
   42.8296   10.8916   10.4092 C   0  0  0  0  0  0  0  0  0  0  0  0
   44.7668   10.0567   11.5767 C   0  0  0  0  0  0  0  0  0  0  0  0
   43.1840    4.1446   11.4582 C   0  0  0  0  0  0  0  0  0  0  0  0
   45.6672    4.6221   12.7588 C   0  0  0  0  0  0  0  0  0  0  0  0
   45.1485    3.3272   12.6386 C   0  0  0  0  0  0  0  0  0  0  0  0
   43.9285    3.0889   12.0000 C   0  0  0  0  0  0  0  0  0  0  0  0
   45.8811    7.5140   12.5097 H   0  0  0  0  0  0  0  0  0  0  0  0
   42.0672   11.4810    9.9166 H   0  0  0  0  0  0  0  0  0  0  0  0
   45.7011    9.9413   12.1035 H   0  0  0  0  0  0  0  0  0  0  0  0
   42.2365    3.9692   10.9611 H   0  0  0  0  0  0  0  0  0  0  0  0
   46.6141    4.8047   13.2547 H   0  0  0  0  0  0  0  0  0  0  0  0
   45.7066    2.4886   13.0507 H   0  0  0  0  0  0  0  0  0  0  0  0
   43.5491    2.0729   11.9208 H   0  0  0  0  0  0  0  0  0  0  0  0
  2  1  2  0
  3  1  1  0
  4  1  1  0
  5  3  1  0
  6  2  1  0
  7  4  1  0
  8 10  1  0
  9  5  2  0
 10  3  2  0
 11  6  2  0
 12  7  2  0
 13 12  1  0
 14 11  1  0
  6  7  1  0
  9  8  1  0
 14 13  2  0
  4 15  1  0
  9 16  1  0
 10 17  1  0
 11 18  1  0
 12 19  1  0
 13 20  1  0
 14 21  1  0
M  END
> <Uni-Dock RESULT> 
ENERGY=   -3.451  LOWER_BOUND=    4.736  UPPER_BOUND=    5.663
INTER + INTRA:          -3.451
INTER:                  -3.451
INTRA:                   0.000
UNBOUND:                 0.000

$$$$

     RDKit          3D

 21 23  0  0  0  0  0  0  0  0999 V2000
   44.2500    7.6590   11.5818 C   0  0  0  0  0  0  0  0  0  0  0  0
   45.2515    7.0577   12.1922 N   0  0  0  0  0  0  0  0  0  0  0  0
   44.1608    9.2060   11.3271 C   0  0  0  0  0  0  0  0  0  0  0  0
   43.2975    6.7476   11.2002 N   0  0  0  0  0  0  0  0  0  0  0  0
   45.1633   10.0651   11.7423 N   0  0  0  0  0  0  0  0  0  0  0  0
   44.9344    5.7232   12.2034 C   0  0  0  0  0  0  0  0  0  0  0  0
   43.7099    5.4985   11.5858 C   0  0  0  0  0  0  0  0  0  0  0  0
   43.3620   11.5089   10.5959 S   0  0  0  0  0  0  0  0  0  0  0  0
   44.8540   11.2981   11.4134 C   0  0  0  0  0  0  0  0  0  0  0  0
   43.0998    9.8133   10.6845 C   0  0  0  0  0  0  0  0  0  0  0  0
   45.6473    4.6351   12.7264 C   0  0  0  0  0  0  0  0  0  0  0  0
   43.1371    4.2320   11.4527 C   0  0  0  0  0  0  0  0  0  0  0  0
   43.8634    3.1578   11.9808 C   0  0  0  0  0  0  0  0  0  0  0  0
   45.0973    3.3523   12.6075 C   0  0  0  0  0  0  0  0  0  0  0  0
   42.4393    6.9603   10.7177 H   0  0  0  0  0  0  0  0  0  0  0  0
   45.5003   12.1353   11.6430 H   0  0  0  0  0  0  0  0  0  0  0  0
   42.2052    9.3756   10.2700 H   0  0  0  0  0  0  0  0  0  0  0  0
   46.6039    4.7955   13.2109 H   0  0  0  0  0  0  0  0  0  0  0  0
   42.1799    4.0787   10.9668 H   0  0  0  0  0  0  0  0  0  0  0  0
   43.4591    2.1504   11.9021 H   0  0  0  0  0  0  0  0  0  0  0  0
   45.6401    2.4999   13.0089 H   0  0  0  0  0  0  0  0  0  0  0  0
  2  1  2  0
  3  1  1  0
  4  1  1  0
  5  3  1  0
  6  2  1  0
  7  4  1  0
  8 10  1  0
  9  5  2  0
 10  3  2  0
 11  6  2  0
 12  7  2  0
 13 12  1  0
 14 11  1  0
  6  7  1  0
  9  8  1  0
 14 13  2  0
  4 15  1  0
  9 16  1  0
 10 17  1  0
 11 18  1  0
 12 19  1  0
 13 20  1  0
 14 21  1  0
M  END
> <Uni-Dock RESULT> 
ENERGY=   -3.425  LOWER_BOUND=    4.753  UPPER_BOUND=    5.755
INTER + INTRA:          -3.425
INTER:                  -3.425
INTRA:                   0.000
UNBOUND:                 0.000

$$$$

     RDKit          3D

 21 23  0  0  0  0  0  0  0  0999 V2000
   45.2256    7.7088   12.3820 C   0  0  0  0  0  0  0  0  0  0  0  0
   44.8081    8.8344   11.8381 N   0  0  0  0  0  0  0  0  0  0  0  0
   44.4119    6.3658   12.3877 C   0  0  0  0  0  0  0  0  0  0  0  0
   46.4681    7.8726   12.9417 N   0  0  0  0  0  0  0  0  0  0  0  0
   43.1613    6.2769   11.8016 N   0  0  0  0  0  0  0  0  0  0  0  0
   45.8092    9.7469   12.0539 C   0  0  0  0  0  0  0  0  0  0  0  0
   46.8668    9.1694   12.7463 C   0  0  0  0  0  0  0  0  0  0  0  0
   43.7059    3.9509   12.7694 S   0  0  0  0  0  0  0  0  0  0  0  0
   42.6935    5.0578   11.9396 C   0  0  0  0  0  0  0  0  0  0  0  0
   44.8711    5.1981   12.9647 C   0  0  0  0  0  0  0  0  0  0  0  0
   45.8881   11.0974   11.6856 C   0  0  0  0  0  0  0  0  0  0  0  0
   48.0233    9.8658   13.1034 C   0  0  0  0  0  0  0  0  0  0  0  0
   48.0841   11.2130   12.7272 C   0  0  0  0  0  0  0  0  0  0  0  0
   47.0366   11.8215   12.0304 C   0  0  0  0  0  0  0  0  0  0  0  0
   46.9983    7.1598   13.4163 H   0  0  0  0  0  0  0  0  0  0  0  0
   41.7258    4.7646   11.5536 H   0  0  0  0  0  0  0  0  0  0  0  0
   45.7997    5.0038   13.4784 H   0  0  0  0  0  0  0  0  0  0  0  0
   45.0706   11.5612   11.1451 H   0  0  0  0  0  0  0  0  0  0  0  0
   48.8373    9.3957   13.6440 H   0  0  0  0  0  0  0  0  0  0  0  0
   48.9651   11.7989   12.9825 H   0  0  0  0  0  0  0  0  0  0  0  0
   47.1103   12.8697   11.7507 H   0  0  0  0  0  0  0  0  0  0  0  0
  2  1  2  0
  3  1  1  0
  4  1  1  0
  5  3  1  0
  6  2  1  0
  7  4  1  0
  8 10  1  0
  9  5  2  0
 10  3  2  0
 11  6  2  0
 12  7  2  0
 13 12  1  0
 14 11  1  0
  6  7  1  0
  9  8  1  0
 14 13  2  0
  4 15  1  0
  9 16  1  0
 10 17  1  0
 11 18  1  0
 12 19  1  0
 13 20  1  0
 14 21  1  0
M  END
> <Uni-Dock RESULT> 
ENERGY=   -3.369  LOWER_BOUND=    5.083  UPPER_BOUND=    7.083
INTER + INTRA:          -3.369
INTER:                  -3.369
INTRA:                   0.000
UNBOUND:                 0.000

$$$$

     RDKit          3D

 21 23  0  0  0  0  0  0  0  0999 V2000
   51.3635    2.3010   17.7022 C   0  0  0  0  0  0  0  0  0  0  0  0
   50.3530    1.8776   16.9697 N   0  0  0  0  0  0  0  0  0  0  0  0
   52.7562    1.5822   17.8004 C   0  0  0  0  0  0  0  0  0  0  0  0
   51.0308    3.4552   18.3662 N   0  0  0  0  0  0  0  0  0  0  0  0
   53.0190    0.4182   17.0994 N   0  0  0  0  0  0  0  0  0  0  0  0
   49.3428    2.7842   17.1679 C   0  0  0  0  0  0  0  0  0  0  0  0
   49.7412    3.7882   18.0424 C   0  0  0  0  0  0  0  0  0  0  0  0
   55.1526    0.9962   18.4248 S   0  0  0  0  0  0  0  0  0  0  0  0
   54.2446    0.0184   17.3487 C   0  0  0  0  0  0  0  0  0  0  0  0
   53.8009    2.0458   18.5757 C   0  0  0  0  0  0  0  0  0  0  0  0
   48.0477    2.8172   16.6319 C   0  0  0  0  0  0  0  0  0  0  0  0
   48.9144    4.8461   18.4258 C   0  0  0  0  0  0  0  0  0  0  0  0
   47.6249    4.8624   17.8805 C   0  0  0  0  0  0  0  0  0  0  0  0
   47.1957    3.8669   16.9987 C   0  0  0  0  0  0  0  0  0  0  0  0
   51.6329    3.9714   18.9872 H   0  0  0  0  0  0  0  0  0  0  0  0
   54.6612   -0.8756   16.9030 H   0  0  0  0  0  0  0  0  0  0  0  0
   53.8533    2.9179   19.2085 H   0  0  0  0  0  0  0  0  0  0  0  0
   47.7233    2.0405   15.9485 H   0  0  0  0  0  0  0  0  0  0  0  0
   49.2453    5.6197   19.1099 H   0  0  0  0  0  0  0  0  0  0  0  0
   46.9425    5.6667   18.1486 H   0  0  0  0  0  0  0  0  0  0  0  0
   46.1887    3.9041   16.5900 H   0  0  0  0  0  0  0  0  0  0  0  0
  2  1  2  0
  3  1  1  0
  4  1  1  0
  5  3  1  0
  6  2  1  0
  7  4  1  0
  8 10  1  0
  9  5  2  0
 10  3  2  0
 11  6  2  0
 12  7  2  0
 13 12  1  0
 14 11  1  0
  6  7  1  0
  9  8  1  0
 14 13  2  0
  4 15  1  0
  9 16  1  0
 10 17  1  0
 11 18  1  0
 12 19  1  0
 13 20  1  0
 14 21  1  0
M  END
> <Uni-Dock RESULT> 
ENERGY=   -3.345  LOWER_BOUND=   10.031  UPPER_BOUND=   11.662
INTER + INTRA:          -3.345
INTER:                  -3.345
INTRA:                   0.000
UNBOUND:                 0.000

$$$$

     RDKit          3D

 21 23  0  0  0  0  0  0  0  0999 V2000
   45.6898    8.0285   12.3579 C   0  0  0  0  0  0  0  0  0  0  0  0
   44.5529    7.8631   11.7120 N   0  0  0  0  0  0  0  0  0  0  0  0
   46.4979    9.3738   12.4102 C   0  0  0  0  0  0  0  0  0  0  0  0
   46.0689    6.8640   12.9776 N   0  0  0  0  0  0  0  0  0  0  0  0
   46.0514   10.5101   11.7583 N   0  0  0  0  0  0  0  0  0  0  0  0
   44.1911    6.5568   11.9220 C   0  0  0  0  0  0  0  0  0  0  0  0
   45.1268    5.9036   12.7153 C   0  0  0  0  0  0  0  0  0  0  0  0
   48.2676   11.1304   12.9189 S   0  0  0  0  0  0  0  0  0  0  0  0
   46.8982   11.4943   11.9540 C   0  0  0  0  0  0  0  0  0  0  0  0
   47.6882    9.5226   13.0946 C   0  0  0  0  0  0  0  0  0  0  0  0
   43.0694    5.8509   11.4645 C   0  0  0  0  0  0  0  0  0  0  0  0
   45.0147    4.5633   13.0904 C   0  0  0  0  0  0  0  0  0  0  0  0
   43.8882    3.8748   12.6243 C   0  0  0  0  0  0  0  0  0  0  0  0
   42.9303    4.5044   11.8250 C   0  0  0  0  0  0  0  0  0  0  0  0
   46.9000    6.7362   13.5323 H   0  0  0  0  0  0  0  0  0  0  0  0
   46.7445   12.4794   11.5327 H   0  0  0  0  0  0  0  0  0  0  0  0
   48.2423    8.8017   13.6752 H   0  0  0  0  0  0  0  0  0  0  0  0
   42.3313    6.3476   10.8448 H   0  0  0  0  0  0  0  0  0  0  0  0
   45.7567    4.0727   13.7105 H   0  0  0  0  0  0  0  0  0  0  0  0
   43.7555    2.8276   12.8895 H   0  0  0  0  0  0  0  0  0  0  0  0
   42.0649    3.9457   11.4768 H   0  0  0  0  0  0  0  0  0  0  0  0
  2  1  2  0
  3  1  1  0
  4  1  1  0
  5  3  1  0
  6  2  1  0
  7  4  1  0
  8 10  1  0
  9  5  2  0
 10  3  2  0
 11  6  2  0
 12  7  2  0
 13 12  1  0
 14 11  1  0
  6  7  1  0
  9  8  1  0
 14 13  2  0
  4 15  1  0
  9 16  1  0
 10 17  1  0
 11 18  1  0
 12 19  1  0
 13 20  1  0
 14 21  1  0
M  END
> <Uni-Dock RESULT> 
ENERGY=   -3.306  LOWER_BOUND=    5.378  UPPER_BOUND=    6.463
INTER + INTRA:          -3.306
INTER:                  -3.306
INTRA:                   0.000
UNBOUND:                 0.000

$$$$
