
     RDKit          3D

 21 23  0  0  0  0  0  0  0  0999 V2000
   44.9527    3.7753    9.3926 C   0  0  0  0  0  0  0  0  0  0  0  0
   45.3844    4.4084    8.3203 N   0  0  0  0  0  0  0  0  0  0  0  0
   44.0952    4.4334   10.5317 C   0  0  0  0  0  0  0  0  0  0  0  0
   45.3557    2.4634    9.3762 N   0  0  0  0  0  0  0  0  0  0  0  0
   43.7259    5.7662   10.4790 N   0  0  0  0  0  0  0  0  0  0  0  0
   46.0841    3.4782    7.5943 C   0  0  0  0  0  0  0  0  0  0  0  0
   46.0827    2.2450    8.2348 C   0  0  0  0  0  0  0  0  0  0  0  0
   42.7509    4.8009   12.6609 S   0  0  0  0  0  0  0  0  0  0  0  0
   43.0183    6.0718   11.5420 C   0  0  0  0  0  0  0  0  0  0  0  0
   43.6542    3.7486   11.6469 C   0  0  0  0  0  0  0  0  0  0  0  0
   46.7534    3.6131    6.3698 C   0  0  0  0  0  0  0  0  0  0  0  0
   46.7191    1.1124    7.7229 C   0  0  0  0  0  0  0  0  0  0  0  0
   47.3821    1.2661    6.4994 C   0  0  0  0  0  0  0  0  0  0  0  0
   47.4009    2.4936    5.8316 C   0  0  0  0  0  0  0  0  0  0  0  0
   45.1517    1.7760   10.0837 H   0  0  0  0  0  0  0  0  0  0  0  0
   42.6248    7.0666   11.7061 H   0  0  0  0  0  0  0  0  0  0  0  0
   43.8032    2.7166   11.9238 H   0  0  0  0  0  0  0  0  0  0  0  0
   46.7627    4.5694    5.8589 H   0  0  0  0  0  0  0  0  0  0  0  0
   46.7058    0.1589    8.2391 H   0  0  0  0  0  0  0  0  0  0  0  0
   47.8935    0.4124    6.0587 H   0  0  0  0  0  0  0  0  0  0  0  0
   47.9238    2.5849    4.8825 H   0  0  0  0  0  0  0  0  0  0  0  0
  2  1  2  0
  3  1  1  0
  4  1  1  0
  5  3  1  0
  6  2  1  0
  7  4  1  0
  8 10  1  0
  9  5  2  0
 10  3  2  0
 11  6  2  0
 12  7  2  0
 13 12  1  0
 14 11  1  0
  6  7  1  0
  9  8  1  0
 14 13  2  0
  4 15  1  0
  9 16  1  0
 10 17  1  0
 11 18  1  0
 12 19  1  0
 13 20  1  0
 14 21  1  0
M  END
> <Uni-Dock RESULT> 
ENERGY=   -6.260  LOWER_BOUND=    0.000  UPPER_BOUND=    0.000
INTER + INTRA:          -6.260
INTER:                  -6.260
INTRA:                   0.000
UNBOUND:                 0.000

$$$$

     RDKit          3D

 21 23  0  0  0  0  0  0  0  0999 V2000
   44.9985    3.5129    9.3816 C   0  0  0  0  0  0  0  0  0  0  0  0
   45.4653    2.2825    9.3087 N   0  0  0  0  0  0  0  0  0  0  0  0
   44.1240    4.0663   10.5626 C   0  0  0  0  0  0  0  0  0  0  0  0
   45.3817    4.2425    8.2840 N   0  0  0  0  0  0  0  0  0  0  0  0
   43.7765    3.2687   11.6390 N   0  0  0  0  0  0  0  0  0  0  0  0
   46.1679    2.2191    8.1323 C   0  0  0  0  0  0  0  0  0  0  0  0
   46.1324    3.4383    7.4663 C   0  0  0  0  0  0  0  0  0  0  0  0
   42.7348    5.5893   12.0548 S   0  0  0  0  0  0  0  0  0  0  0  0
   43.0482    3.9598   12.4853 C   0  0  0  0  0  0  0  0  0  0  0  0
   43.6460    5.3608   10.6164 C   0  0  0  0  0  0  0  0  0  0  0  0
   46.8683    1.1472    7.5614 C   0  0  0  0  0  0  0  0  0  0  0  0
   46.7635    3.6635    6.2413 C   0  0  0  0  0  0  0  0  0  0  0  0
   47.4580    2.5817    5.6865 C   0  0  0  0  0  0  0  0  0  0  0  0
   47.5115    1.3437    6.3326 C   0  0  0  0  0  0  0  0  0  0  0  0
   45.1504    5.2071    8.1083 H   0  0  0  0  0  0  0  0  0  0  0  0
   42.6662    3.5299   13.4020 H   0  0  0  0  0  0  0  0  0  0  0  0
   43.7726    6.1704    9.9146 H   0  0  0  0  0  0  0  0  0  0  0  0
   46.9045    0.1902    8.0698 H   0  0  0  0  0  0  0  0  0  0  0  0
   46.7234    4.6232    5.7381 H   0  0  0  0  0  0  0  0  0  0  0  0
   47.9667    2.7070    4.7326 H   0  0  0  0  0  0  0  0  0  0  0  0
   48.0582    0.5202    5.8790 H   0  0  0  0  0  0  0  0  0  0  0  0
  2  1  2  0
  3  1  1  0
  4  1  1  0
  5  3  1  0
  6  2  1  0
  7  4  1  0
  8 10  1  0
  9  5  2  0
 10  3  2  0
 11  6  2  0
 12  7  2  0
 13 12  1  0
 14 11  1  0
  6  7  1  0
  9  8  1  0
 14 13  2  0
  4 15  1  0
  9 16  1  0
 10 17  1  0
 11 18  1  0
 12 19  1  0
 13 20  1  0
 14 21  1  0
M  END
> <Uni-Dock RESULT> 
ENERGY=   -6.049  LOWER_BOUND=    0.923  UPPER_BOUND=    1.923
INTER + INTRA:          -6.049
INTER:                  -6.049
INTRA:                   0.000
UNBOUND:                 0.000

$$$$

     RDKit          3D

 21 23  0  0  0  0  0  0  0  0999 V2000
   45.2969    3.4148    9.0078 C   0  0  0  0  0  0  0  0  0  0  0  0
   44.7267    4.5996    9.0981 N   0  0  0  0  0  0  0  0  0  0  0  0
   46.1204    2.9138    7.7683 C   0  0  0  0  0  0  0  0  0  0  0  0
   45.0717    2.6806   10.1454 N   0  0  0  0  0  0  0  0  0  0  0  0
   46.3057    3.7130    6.6537 N   0  0  0  0  0  0  0  0  0  0  0  0
   44.1181    4.6282   10.3271 C   0  0  0  0  0  0  0  0  0  0  0  0
   44.3186    3.4337   11.0084 C   0  0  0  0  0  0  0  0  0  0  0  0
   47.5187    1.4860    6.1927 S   0  0  0  0  0  0  0  0  0  0  0  0
   47.0237    3.0698    5.7621 C   0  0  0  0  0  0  0  0  0  0  0  0
   46.7091    1.6665    7.6972 C   0  0  0  0  0  0  0  0  0  0  0  0
   43.3707    5.6463   10.9356 C   0  0  0  0  0  0  0  0  0  0  0  0
   43.8114    3.1824   12.2849 C   0  0  0  0  0  0  0  0  0  0  0  0
   43.0677    4.2106   12.8766 C   0  0  0  0  0  0  0  0  0  0  0  0
   42.8492    5.4228   12.2163 C   0  0  0  0  0  0  0  0  0  0  0  0
   45.4037    1.7453   10.3177 H   0  0  0  0  0  0  0  0  0  0  0  0
   47.2898    3.5100    4.8099 H   0  0  0  0  0  0  0  0  0  0  0  0
   46.7141    0.8661    8.4206 H   0  0  0  0  0  0  0  0  0  0  0  0
   43.2063    6.5835   10.4158 H   0  0  0  0  0  0  0  0  0  0  0  0
   43.9797    2.2428   12.7992 H   0  0  0  0  0  0  0  0  0  0  0  0
   42.6510    4.0633   13.8711 H   0  0  0  0  0  0  0  0  0  0  0  0
   42.2676    6.2044   12.6994 H   0  0  0  0  0  0  0  0  0  0  0  0
  2  1  2  0
  3  1  1  0
  4  1  1  0
  5  3  1  0
  6  2  1  0
  7  4  1  0
  8 10  1  0
  9  5  2  0
 10  3  2  0
 11  6  2  0
 12  7  2  0
 13 12  1  0
 14 11  1  0
  6  7  1  0
  9  8  1  0
 14 13  2  0
  4 15  1  0
  9 16  1  0
 10 17  1  0
 11 18  1  0
 12 19  1  0
 13 20  1  0
 14 21  1  0
M  END
> <Uni-Dock RESULT> 
ENERGY=   -4.954  LOWER_BOUND=    2.513  UPPER_BOUND=    5.593
INTER + INTRA:          -4.954
INTER:                  -4.954
INTRA:                   0.000
UNBOUND:                 0.000

$$$$

     RDKit          3D

 21 23  0  0  0  0  0  0  0  0999 V2000
   44.0230    7.5643   11.4844 C   0  0  0  0  0  0  0  0  0  0  0  0
   43.1607    6.6337   11.1270 N   0  0  0  0  0  0  0  0  0  0  0  0
   43.8501    9.0980   11.1958 C   0  0  0  0  0  0  0  0  0  0  0  0
   45.0914    7.0081   12.1425 N   0  0  0  0  0  0  0  0  0  0  0  0
   42.7425    9.5861   10.5247 N   0  0  0  0  0  0  0  0  0  0  0  0
   43.6889    5.4467   11.5673 C   0  0  0  0  0  0  0  0  0  0  0  0
   44.9038    5.6519   12.2101 C   0  0  0  0  0  0  0  0  0  0  0  0
   44.2329   11.6117   11.0896 S   0  0  0  0  0  0  0  0  0  0  0  0
   42.8336   10.8910   10.4103 C   0  0  0  0  0  0  0  0  0  0  0  0
   44.7685   10.0550   11.5807 C   0  0  0  0  0  0  0  0  0  0  0  0
   43.1855    4.1431   11.4546 C   0  0  0  0  0  0  0  0  0  0  0  0
   45.6663    4.6195   12.7600 C   0  0  0  0  0  0  0  0  0  0  0  0
   45.1478    3.3247   12.6378 C   0  0  0  0  0  0  0  0  0  0  0  0
   43.9288    3.0870   11.9969 C   0  0  0  0  0  0  0  0  0  0  0  0
   45.8810    7.5114   12.5136 H   0  0  0  0  0  0  0  0  0  0  0  0
   42.0721   11.4810    9.9169 H   0  0  0  0  0  0  0  0  0  0  0  0
   45.7020    9.9390   12.1090 H   0  0  0  0  0  0  0  0  0  0  0  0
   42.2389    3.9682   10.9556 H   0  0  0  0  0  0  0  0  0  0  0  0
   46.6123    4.8014   13.2578 H   0  0  0  0  0  0  0  0  0  0  0  0
   45.7050    2.4857   13.0502 H   0  0  0  0  0  0  0  0  0  0  0  0
   43.5495    2.0710   11.9161 H   0  0  0  0  0  0  0  0  0  0  0  0
  2  1  2  0
  3  1  1  0
  4  1  1  0
  5  3  1  0
  6  2  1  0
  7  4  1  0
  8 10  1  0
  9  5  2  0
 10  3  2  0
 11  6  2  0
 12  7  2  0
 13 12  1  0
 14 11  1  0
  6  7  1  0
  9  8  1  0
 14 13  2  0
  4 15  1  0
  9 16  1  0
 10 17  1  0
 11 18  1  0
 12 19  1  0
 13 20  1  0
 14 21  1  0
M  END
> <Uni-Dock RESULT> 
ENERGY=   -3.448  LOWER_BOUND=    4.736  UPPER_BOUND=    5.665
INTER + INTRA:          -3.448
INTER:                  -3.448
INTRA:                   0.000
UNBOUND:                 0.000

$$$$

     RDKit          3D

 21 23  0  0  0  0  0  0  0  0999 V2000
   44.4705    7.7043   11.7064 C   0  0  0  0  0  0  0  0  0  0  0  0
   45.4178    7.0104   12.3050 N   0  0  0  0  0  0  0  0  0  0  0  0
   44.4958    9.2619   11.5088 C   0  0  0  0  0  0  0  0  0  0  0  0
   43.4604    6.8785   11.2804 N   0  0  0  0  0  0  0  0  0  0  0  0
   45.5515   10.0308   11.9668 N   0  0  0  0  0  0  0  0  0  0  0  0
   45.0057    5.7028   12.2628 C   0  0  0  0  0  0  0  0  0  0  0  0
   43.7769    5.5897   11.6237 C   0  0  0  0  0  0  0  0  0  0  0  0
   43.8743   11.6415   10.8552 S   0  0  0  0  0  0  0  0  0  0  0  0
   45.3360   11.2941   11.6808 C   0  0  0  0  0  0  0  0  0  0  0  0
   43.4902    9.9672   10.8776 C   0  0  0  0  0  0  0  0  0  0  0  0
   45.6315    4.5478   12.7527 C   0  0  0  0  0  0  0  0  0  0  0  0
   43.1167    4.3736   11.4370 C   0  0  0  0  0  0  0  0  0  0  0  0
   43.7567    3.2312   11.9327 C   0  0  0  0  0  0  0  0  0  0  0  0
   44.9927    3.3132   12.5798 C   0  0  0  0  0  0  0  0  0  0  0  0
   42.6263    7.1700   10.7967 H   0  0  0  0  0  0  0  0  0  0  0  0
   46.0374   12.0735   11.9487 H   0  0  0  0  0  0  0  0  0  0  0  0
   42.5722    9.6106   10.4370 H   0  0  0  0  0  0  0  0  0  0  0  0
   46.5904    4.6210   13.2535 H   0  0  0  0  0  0  0  0  0  0  0  0
   42.1578    4.3074   10.9352 H   0  0  0  0  0  0  0  0  0  0  0  0
   43.2824    2.2591   11.8118 H   0  0  0  0  0  0  0  0  0  0  0  0
   45.4675    2.4097   12.9552 H   0  0  0  0  0  0  0  0  0  0  0  0
  2  1  2  0
  3  1  1  0
  4  1  1  0
  5  3  1  0
  6  2  1  0
  7  4  1  0
  8 10  1  0
  9  5  2  0
 10  3  2  0
 11  6  2  0
 12  7  2  0
 13 12  1  0
 14 11  1  0
  6  7  1  0
  9  8  1  0
 14 13  2  0
  4 15  1  0
  9 16  1  0
 10 17  1  0
 11 18  1  0
 12 19  1  0
 13 20  1  0
 14 21  1  0
M  END
> <Uni-Dock RESULT> 
ENERGY=   -3.428  LOWER_BOUND=    4.794  UPPER_BOUND=    5.834
INTER + INTRA:          -3.428
INTER:                  -3.428
INTRA:                   0.000
UNBOUND:                 0.000

$$$$

     RDKit          3D

 21 23  0  0  0  0  0  0  0  0999 V2000
   45.2354    7.6957   12.3917 C   0  0  0  0  0  0  0  0  0  0  0  0
   44.8207    8.8226   11.8482 N   0  0  0  0  0  0  0  0  0  0  0  0
   44.4189    6.3545   12.3961 C   0  0  0  0  0  0  0  0  0  0  0  0
   46.4778    7.8565   12.9524 N   0  0  0  0  0  0  0  0  0  0  0  0
   43.1685    6.2685   11.8089 N   0  0  0  0  0  0  0  0  0  0  0  0
   45.8237    9.7329   12.0654 C   0  0  0  0  0  0  0  0  0  0  0  0
   46.8794    9.1526   12.7582 C   0  0  0  0  0  0  0  0  0  0  0  0
   43.7074    3.9409   12.7757 S   0  0  0  0  0  0  0  0  0  0  0  0
   42.6979    5.0503   11.9459 C   0  0  0  0  0  0  0  0  0  0  0  0
   44.8751    5.1855   12.9727 C   0  0  0  0  0  0  0  0  0  0  0  0
   45.9057   11.0834   11.6980 C   0  0  0  0  0  0  0  0  0  0  0  0
   48.0371    9.8462   13.1165 C   0  0  0  0  0  0  0  0  0  0  0  0
   48.1012   11.1936   12.7413 C   0  0  0  0  0  0  0  0  0  0  0  0
   47.0555   11.8048   12.0440 C   0  0  0  0  0  0  0  0  0  0  0  0
   47.0063    7.1423   13.4271 H   0  0  0  0  0  0  0  0  0  0  0  0
   41.7300    4.7595   11.5590 H   0  0  0  0  0  0  0  0  0  0  0  0
   45.8029    4.9889   13.4870 H   0  0  0  0  0  0  0  0  0  0  0  0
   45.0895   11.5492   11.1572 H   0  0  0  0  0  0  0  0  0  0  0  0
   48.8498    9.3742   13.6574 H   0  0  0  0  0  0  0  0  0  0  0  0
   48.9831   11.7775   12.9975 H   0  0  0  0  0  0  0  0  0  0  0  0
   47.1316   12.8531   11.7650 H   0  0  0  0  0  0  0  0  0  0  0  0
  2  1  2  0
  3  1  1  0
  4  1  1  0
  5  3  1  0
  6  2  1  0
  7  4  1  0
  8 10  1  0
  9  5  2  0
 10  3  2  0
 11  6  2  0
 12  7  2  0
 13 12  1  0
 14 11  1  0
  6  7  1  0
  9  8  1  0
 14 13  2  0
  4 15  1  0
  9 16  1  0
 10 17  1  0
 11 18  1  0
 12 19  1  0
 13 20  1  0
 14 21  1  0
M  END
> <Uni-Dock RESULT> 
ENERGY=   -3.370  LOWER_BOUND=    5.083  UPPER_BOUND=    7.077
INTER + INTRA:          -3.370
INTER:                  -3.370
INTRA:                   0.000
UNBOUND:                 0.000

$$$$

     RDKit          3D

 21 23  0  0  0  0  0  0  0  0999 V2000
   44.4017    6.8713   11.7013 C   0  0  0  0  0  0  0  0  0  0  0  0
   45.3934    7.6051   12.1653 N   0  0  0  0  0  0  0  0  0  0  0  0
   44.3123    5.3089   11.8306 C   0  0  0  0  0  0  0  0  0  0  0  0
   43.4594    7.6604   11.0903 N   0  0  0  0  0  0  0  0  0  0  0  0
   45.3041    4.5788   12.4622 N   0  0  0  0  0  0  0  0  0  0  0  0
   45.0803    8.9014   11.8440 C   0  0  0  0  0  0  0  0  0  0  0  0
   43.8685    8.9664   11.1669 C   0  0  0  0  0  0  0  0  0  0  0  0
   43.5203    2.8959   11.6689 S   0  0  0  0  0  0  0  0  0  0  0  0
   44.9972    3.3023   12.4385 C   0  0  0  0  0  0  0  0  0  0  0  0
   43.2619    4.5613   11.3357 C   0  0  0  0  0  0  0  0  0  0  0  0
   45.7866   10.0854   12.0988 C   0  0  0  0  0  0  0  0  0  0  0  0
   43.3023   10.1611   10.7175 C   0  0  0  0  0  0  0  0  0  0  0  0
   44.0218   11.3330   10.9810 C   0  0  0  0  0  0  0  0  0  0  0  0
   45.2430   11.2994   11.6597 C   0  0  0  0  0  0  0  0  0  0  0  0
   42.6097    7.3350   10.6581 H   0  0  0  0  0  0  0  0  0  0  0  0
   45.6363    2.5476   12.8780 H   0  0  0  0  0  0  0  0  0  0  0  0
   42.3766    4.8831   10.8097 H   0  0  0  0  0  0  0  0  0  0  0  0
   46.7334   10.0497   12.6261 H   0  0  0  0  0  0  0  0  0  0  0  0
   42.3549   10.1897   10.1908 H   0  0  0  0  0  0  0  0  0  0  0  0
   43.6223   12.2900   10.6508 H   0  0  0  0  0  0  0  0  0  0  0  0
   45.7810   12.2249   11.8510 H   0  0  0  0  0  0  0  0  0  0  0  0
  2  1  2  0
  3  1  1  0
  4  1  1  0
  5  3  1  0
  6  2  1  0
  7  4  1  0
  8 10  1  0
  9  5  2  0
 10  3  2  0
 11  6  2  0
 12  7  2  0
 13 12  1  0
 14 11  1  0
  6  7  1  0
  9  8  1  0
 14 13  2  0
  4 15  1  0
  9 16  1  0
 10 17  1  0
 11 18  1  0
 12 19  1  0
 13 20  1  0
 14 21  1  0
M  END
> <Uni-Dock RESULT> 
ENERGY=   -3.363  LOWER_BOUND=    4.296  UPPER_BOUND=    6.744
INTER + INTRA:          -3.363
INTER:                  -3.363
INTRA:                   0.000
UNBOUND:                 0.000

$$$$

     RDKit          3D

 21 23  0  0  0  0  0  0  0  0999 V2000
   46.5410    6.5172   13.2647 C   0  0  0  0  0  0  0  0  0  0  0  0
   45.3223    6.8841   12.9222 N   0  0  0  0  0  0  0  0  0  0  0  0
   47.6580    7.4975   13.7716 C   0  0  0  0  0  0  0  0  0  0  0  0
   46.6985    5.1617   13.1172 N   0  0  0  0  0  0  0  0  0  0  0  0
   47.4246    8.8561   13.8949 N   0  0  0  0  0  0  0  0  0  0  0  0
   44.6786    5.7333   12.5441 C   0  0  0  0  0  0  0  0  0  0  0  0
   45.5205    4.6335   12.6566 C   0  0  0  0  0  0  0  0  0  0  0  0
   49.8611    8.4418   14.6264 S   0  0  0  0  0  0  0  0  0  0  0  0
   48.5081    9.4534   14.3347 C   0  0  0  0  0  0  0  0  0  0  0  0
   48.9289    7.0887   14.1249 C   0  0  0  0  0  0  0  0  0  0  0  0
   43.3654    5.5468   12.0897 C   0  0  0  0  0  0  0  0  0  0  0  0
   45.1301    3.3310   12.3387 C   0  0  0  0  0  0  0  0  0  0  0  0
   43.8155    3.1642   11.8868 C   0  0  0  0  0  0  0  0  0  0  0  0
   42.9455    4.2509   11.7633 C   0  0  0  0  0  0  0  0  0  0  0  0
   47.5386    4.6418   13.3141 H   0  0  0  0  0  0  0  0  0  0  0  0
   48.5490   10.5214   14.5046 H   0  0  0  0  0  0  0  0  0  0  0  0
   49.3593    6.0994   14.1198 H   0  0  0  0  0  0  0  0  0  0  0  0
   42.6975    6.3958   11.9971 H   0  0  0  0  0  0  0  0  0  0  0  0
   45.8032    2.4863   12.4338 H   0  0  0  0  0  0  0  0  0  0  0  0
   43.4632    2.1679   11.6262 H   0  0  0  0  0  0  0  0  0  0  0  0
   41.9294    4.0927   11.4096 H   0  0  0  0  0  0  0  0  0  0  0  0
  2  1  2  0
  3  1  1  0
  4  1  1  0
  5  3  1  0
  6  2  1  0
  7  4  1  0
  8 10  1  0
  9  5  2  0
 10  3  2  0
 11  6  2  0
 12  7  2  0
 13 12  1  0
 14 11  1  0
  6  7  1  0
  9  8  1  0
 14 13  2  0
  4 15  1  0
  9 16  1  0
 10 17  1  0
 11 18  1  0
 12 19  1  0
 13 20  1  0
 14 21  1  0
M  END
> <Uni-Dock RESULT> 
ENERGY=   -3.313  LOWER_BOUND=    4.919  UPPER_BOUND=    6.224
INTER + INTRA:          -3.313
INTER:                  -3.313
INTRA:                   0.000
UNBOUND:                 0.000

$$$$

     RDKit          3D

 21 23  0  0  0  0  0  0  0  0999 V2000
   45.6900    8.0285   12.3581 C   0  0  0  0  0  0  0  0  0  0  0  0
   44.5532    7.8631   11.7119 N   0  0  0  0  0  0  0  0  0  0  0  0
   46.4983    9.3737   12.4104 C   0  0  0  0  0  0  0  0  0  0  0  0
   46.0690    6.8640   12.9780 N   0  0  0  0  0  0  0  0  0  0  0  0
   46.0520   10.5100   11.7584 N   0  0  0  0  0  0  0  0  0  0  0  0
   44.1913    6.5567   11.9219 C   0  0  0  0  0  0  0  0  0  0  0  0
   45.1268    5.9037   12.7154 C   0  0  0  0  0  0  0  0  0  0  0  0
   48.2681   11.1301   12.9193 S   0  0  0  0  0  0  0  0  0  0  0  0
   46.8989   11.4942   11.9542 C   0  0  0  0  0  0  0  0  0  0  0  0
   47.6884    9.5224   13.0950 C   0  0  0  0  0  0  0  0  0  0  0  0
   43.0697    5.8510   11.4643 C   0  0  0  0  0  0  0  0  0  0  0  0
   45.0145    4.5634   13.0906 C   0  0  0  0  0  0  0  0  0  0  0  0
   43.8881    3.8749   12.6243 C   0  0  0  0  0  0  0  0  0  0  0  0
   42.9303    4.5047   11.8249 C   0  0  0  0  0  0  0  0  0  0  0  0
   46.8999    6.7360   13.5328 H   0  0  0  0  0  0  0  0  0  0  0  0
   46.7453   12.4792   11.5329 H   0  0  0  0  0  0  0  0  0  0  0  0
   48.2425    8.8015   13.6757 H   0  0  0  0  0  0  0  0  0  0  0  0
   42.3317    6.3478   10.8445 H   0  0  0  0  0  0  0  0  0  0  0  0
   45.7563    4.0727   13.7109 H   0  0  0  0  0  0  0  0  0  0  0  0
   43.7551    2.8278   12.8896 H   0  0  0  0  0  0  0  0  0  0  0  0
   42.0648    3.9459   11.4764 H   0  0  0  0  0  0  0  0  0  0  0  0
  2  1  2  0
  3  1  1  0
  4  1  1  0
  5  3  1  0
  6  2  1  0
  7  4  1  0
  8 10  1  0
  9  5  2  0
 10  3  2  0
 11  6  2  0
 12  7  2  0
 13 12  1  0
 14 11  1  0
  6  7  1  0
  9  8  1  0
 14 13  2  0
  4 15  1  0
  9 16  1  0
 10 17  1  0
 11 18  1  0
 12 19  1  0
 13 20  1  0
 14 21  1  0
M  END
> <Uni-Dock RESULT> 
ENERGY=   -3.306  LOWER_BOUND=    5.379  UPPER_BOUND=    6.466
INTER + INTRA:          -3.306
INTER:                  -3.306
INTRA:                   0.000
UNBOUND:                 0.000

$$$$
