
     RDKit          3D

 21 23  0  0  0  0  0  0  0  0999 V2000
   44.9987    3.5666    9.3500 C   0  0  0  0  0  0  0  0  0  0  0  0
   45.3549    4.2845    8.3053 N   0  0  0  0  0  0  0  0  0  0  0  0
   44.1365    4.0620   10.5452 C   0  0  0  0  0  0  0  0  0  0  0  0
   45.4853    2.2895    9.2713 N   0  0  0  0  0  0  0  0  0  0  0  0
   43.8191    3.2196   11.5974 N   0  0  0  0  0  0  0  0  0  0  0  0
   46.1003    3.4336    7.5244 C   0  0  0  0  0  0  0  0  0  0  0  0
   46.1980    2.1737    8.1076 C   0  0  0  0  0  0  0  0  0  0  0  0
   42.7458    5.5239   12.0775 S   0  0  0  0  0  0  0  0  0  0  0  0
   43.0875    3.8861   12.4646 C   0  0  0  0  0  0  0  0  0  0  0  0
   43.6447    5.3468   10.6286 C   0  0  0  0  0  0  0  0  0  0  0  0
   46.7309    3.6677    6.2939 C   0  0  0  0  0  0  0  0  0  0  0  0
   46.8980    1.1123    7.5310 C   0  0  0  0  0  0  0  0  0  0  0  0
   47.5205    1.3658    6.3029 C   0  0  0  0  0  0  0  0  0  0  0  0
   47.4405    2.6202    5.6922 C   0  0  0  0  0  0  0  0  0  0  0  0
   45.3287    1.5760    9.9681 H   0  0  0  0  0  0  0  0  0  0  0  0
   42.7161    3.4358   13.3759 H   0  0  0  0  0  0  0  0  0  0  0  0
   43.7711    6.1582    9.9255 H   0  0  0  0  0  0  0  0  0  0  0  0
   46.6650    4.6431    5.8254 H   0  0  0  0  0  0  0  0  0  0  0  0
   46.9606    0.1386    8.0042 H   0  0  0  0  0  0  0  0  0  0  0  0
   48.0782    0.5693    5.8141 H   0  0  0  0  0  0  0  0  0  0  0  0
   47.9341    2.7885    4.7380 H   0  0  0  0  0  0  0  0  0  0  0  0
  2  1  2  0
  3  1  1  0
  4  1  1  0
  5  3  1  0
  6  2  1  0
  7  4  1  0
  8 10  1  0
  9  5  2  0
 10  3  2  0
 11  6  2  0
 12  7  2  0
 13 12  1  0
 14 11  1  0
  6  7  1  0
  9  8  1  0
 14 13  2  0
  4 15  1  0
  9 16  1  0
 10 17  1  0
 11 18  1  0
 12 19  1  0
 13 20  1  0
 14 21  1  0
M  END
> <Uni-Dock RESULT> 
ENERGY=   -6.131  LOWER_BOUND=    0.000  UPPER_BOUND=    0.000
INTER + INTRA:          -6.131
INTER:                  -6.131
INTRA:                   0.000
UNBOUND:                 0.000

$$$$

     RDKit          3D

 21 23  0  0  0  0  0  0  0  0999 V2000
   45.3319    3.3661    9.0594 C   0  0  0  0  0  0  0  0  0  0  0  0
   44.8130    4.5751    9.1124 N   0  0  0  0  0  0  0  0  0  0  0  0
   46.1717    2.7854    7.8869 C   0  0  0  0  0  0  0  0  0  0  0  0
   45.0441    2.6461   10.1875 N   0  0  0  0  0  0  0  0  0  0  0  0
   46.6721    1.4951    7.9343 N   0  0  0  0  0  0  0  0  0  0  0  0
   44.1658    4.6332   10.3238 C   0  0  0  0  0  0  0  0  0  0  0  0
   44.2951    3.4348   11.0196 C   0  0  0  0  0  0  0  0  0  0  0  0
   47.4026    2.5446    5.6855 S   0  0  0  0  0  0  0  0  0  0  0  0
   47.3386    1.2608    6.8242 C   0  0  0  0  0  0  0  0  0  0  0  0
   46.4638    3.5067    6.7493 C   0  0  0  0  0  0  0  0  0  0  0  0
   43.4403    5.6845   10.9026 C   0  0  0  0  0  0  0  0  0  0  0  0
   43.7363    3.2139   12.2797 C   0  0  0  0  0  0  0  0  0  0  0  0
   43.0160    4.2753   12.8406 C   0  0  0  0  0  0  0  0  0  0  0  0
   42.8685    5.4906   12.1668 C   0  0  0  0  0  0  0  0  0  0  0  0
   45.3465    1.6968   10.3503 H   0  0  0  0  0  0  0  0  0  0  0  0
   47.8242    0.3135    6.6295 H   0  0  0  0  0  0  0  0  0  0  0  0
   46.1758    4.5204    6.5079 H   0  0  0  0  0  0  0  0  0  0  0  0
   43.3297    6.6249   10.3746 H   0  0  0  0  0  0  0  0  0  0  0  0
   43.8503    2.2711   12.8034 H   0  0  0  0  0  0  0  0  0  0  0  0
   42.5616    4.1509   13.8218 H   0  0  0  0  0  0  0  0  0  0  0  0
   42.3034    6.2978   12.6269 H   0  0  0  0  0  0  0  0  0  0  0  0
  2  1  2  0
  3  1  1  0
  4  1  1  0
  5  3  1  0
  6  2  1  0
  7  4  1  0
  8 10  1  0
  9  5  2  0
 10  3  2  0
 11  6  2  0
 12  7  2  0
 13 12  1  0
 14 11  1  0
  6  7  1  0
  9  8  1  0
 14 13  2  0
  4 15  1  0
  9 16  1  0
 10 17  1  0
 11 18  1  0
 12 19  1  0
 13 20  1  0
 14 21  1  0
M  END
> <Uni-Dock RESULT> 
ENERGY=   -5.383  LOWER_BOUND=    2.448  UPPER_BOUND=    5.585
INTER + INTRA:          -5.383
INTER:                  -5.383
INTRA:                   0.000
UNBOUND:                 0.000

$$$$

     RDKit          3D

 21 23  0  0  0  0  0  0  0  0999 V2000
   45.3033    3.3378    9.0533 C   0  0  0  0  0  0  0  0  0  0  0  0
   45.0836    2.6206   10.1355 N   0  0  0  0  0  0  0  0  0  0  0  0
   46.1103    2.8809    7.8055 C   0  0  0  0  0  0  0  0  0  0  0  0
   44.7248    4.5751    9.1448 N   0  0  0  0  0  0  0  0  0  0  0  0
   46.2812    3.7190    6.7165 N   0  0  0  0  0  0  0  0  0  0  0  0
   44.3338    3.4306   10.9548 C   0  0  0  0  0  0  0  0  0  0  0  0
   44.0937    4.6643   10.3569 C   0  0  0  0  0  0  0  0  0  0  0  0
   47.4940    1.4933    6.1996 S   0  0  0  0  0  0  0  0  0  0  0  0
   46.9964    3.0897    5.8088 C   0  0  0  0  0  0  0  0  0  0  0  0
   46.6944    1.6362    7.7091 C   0  0  0  0  0  0  0  0  0  0  0  0
   43.8169    3.1790   12.2339 C   0  0  0  0  0  0  0  0  0  0  0  0
   43.3572    5.6824   10.9651 C   0  0  0  0  0  0  0  0  0  0  0  0
   42.8498    5.4121   12.2416 C   0  0  0  0  0  0  0  0  0  0  0  0
   43.0738    4.1832   12.8680 C   0  0  0  0  0  0  0  0  0  0  0  0
   44.7723    5.2810    8.4247 H   0  0  0  0  0  0  0  0  0  0  0  0
   47.2622    3.5446    4.8635 H   0  0  0  0  0  0  0  0  0  0  0  0
   46.6851    0.8352    8.4351 H   0  0  0  0  0  0  0  0  0  0  0  0
   43.9942    2.2235   12.7144 H   0  0  0  0  0  0  0  0  0  0  0  0
   43.1830    6.6364   10.4797 H   0  0  0  0  0  0  0  0  0  0  0  0
   42.2690    6.1751   12.7564 H   0  0  0  0  0  0  0  0  0  0  0  0
   42.6673    4.0010   13.8601 H   0  0  0  0  0  0  0  0  0  0  0  0
  2  1  2  0
  3  1  1  0
  4  1  1  0
  5  3  1  0
  6  2  1  0
  7  4  1  0
  8 10  1  0
  9  5  2  0
 10  3  2  0
 11  6  2  0
 12  7  2  0
 13 12  1  0
 14 11  1  0
  6  7  1  0
  9  8  1  0
 14 13  2  0
  4 15  1  0
  9 16  1  0
 10 17  1  0
 11 18  1  0
 12 19  1  0
 13 20  1  0
 14 21  1  0
M  END
> <Uni-Dock RESULT> 
ENERGY=   -4.921  LOWER_BOUND=    2.478  UPPER_BOUND=    5.895
INTER + INTRA:          -4.921
INTER:                  -4.921
INTRA:                   0.000
UNBOUND:                 0.000

$$$$

     RDKit          3D

 21 23  0  0  0  0  0  0  0  0999 V2000
   44.1012    7.5747   11.5161 C   0  0  0  0  0  0  0  0  0  0  0  0
   45.1309    7.0546   12.1508 N   0  0  0  0  0  0  0  0  0  0  0  0
   43.8887    9.0835   11.2067 C   0  0  0  0  0  0  0  0  0  0  0  0
   43.2028    6.6118   11.1426 N   0  0  0  0  0  0  0  0  0  0  0  0
   42.7641    9.5245   10.5296 N   0  0  0  0  0  0  0  0  0  0  0  0
   44.8831    5.7029   12.1861 C   0  0  0  0  0  0  0  0  0  0  0  0
   43.6785    5.3972   11.5597 C   0  0  0  0  0  0  0  0  0  0  0  0
   44.2223   11.5914   11.0718 S   0  0  0  0  0  0  0  0  0  0  0  0
   42.8350   10.8323   10.4024 C   0  0  0  0  0  0  0  0  0  0  0  0
   44.7905   10.0563   11.5809 C   0  0  0  0  0  0  0  0  0  0  0  0
   45.6476    4.6660   12.7402 C   0  0  0  0  0  0  0  0  0  0  0  0
   43.1781    4.0987   11.4488 C   0  0  0  0  0  0  0  0  0  0  0  0
   43.9555    3.0776   12.0080 C   0  0  0  0  0  0  0  0  0  0  0  0
   45.1695    3.3527   12.6433 C   0  0  0  0  0  0  0  0  0  0  0  0
   42.3440    6.7960   10.6449 H   0  0  0  0  0  0  0  0  0  0  0  0
   42.0658   11.4080    9.9043 H   0  0  0  0  0  0  0  0  0  0  0  0
   45.7241    9.9339   12.1120 H   0  0  0  0  0  0  0  0  0  0  0  0
   46.5885    4.8861   13.2317 H   0  0  0  0  0  0  0  0  0  0  0  0
   42.2362    3.8843   10.9559 H   0  0  0  0  0  0  0  0  0  0  0  0
   43.6071    2.0483   11.9466 H   0  0  0  0  0  0  0  0  0  0  0  0
   45.7526    2.5393   13.0688 H   0  0  0  0  0  0  0  0  0  0  0  0
  2  1  2  0
  3  1  1  0
  4  1  1  0
  5  3  1  0
  6  2  1  0
  7  4  1  0
  8 10  1  0
  9  5  2  0
 10  3  2  0
 11  6  2  0
 12  7  2  0
 13 12  1  0
 14 11  1  0
  6  7  1  0
  9  8  1  0
 14 13  2  0
  4 15  1  0
  9 16  1  0
 10 17  1  0
 11 18  1  0
 12 19  1  0
 13 20  1  0
 14 21  1  0
M  END
> <Uni-Dock RESULT> 
ENERGY=   -3.483  LOWER_BOUND=    4.834  UPPER_BOUND=    5.959
INTER + INTRA:          -3.483
INTER:                  -3.483
INTRA:                   0.000
UNBOUND:                 0.000

$$$$

     RDKit          3D

 21 23  0  0  0  0  0  0  0  0999 V2000
   44.2025    7.6464   11.5585 C   0  0  0  0  0  0  0  0  0  0  0  0
   43.2655    6.8006   11.1839 N   0  0  0  0  0  0  0  0  0  0  0  0
   44.1831    9.1851   11.3365 C   0  0  0  0  0  0  0  0  0  0  0  0
   45.2351    7.0053   12.1882 N   0  0  0  0  0  0  0  0  0  0  0  0
   45.2257    9.9851   11.7729 N   0  0  0  0  0  0  0  0  0  0  0  0
   43.7151    5.5666   11.5895 C   0  0  0  0  0  0  0  0  0  0  0  0
   44.9502    5.6662   12.2233 C   0  0  0  0  0  0  0  0  0  0  0  0
   43.4731   11.5163   10.6432 S   0  0  0  0  0  0  0  0  0  0  0  0
   44.9572   11.2347   11.4599 C   0  0  0  0  0  0  0  0  0  0  0  0
   43.1455    9.8347   10.7031 C   0  0  0  0  0  0  0  0  0  0  0  0
   43.1183    4.3052   11.4504 C   0  0  0  0  0  0  0  0  0  0  0  0
   45.6411    4.5672   12.7368 C   0  0  0  0  0  0  0  0  0  0  0  0
   45.0290    3.3169   12.5882 C   0  0  0  0  0  0  0  0  0  0  0  0
   43.7895    3.1845   11.9566 C   0  0  0  0  0  0  0  0  0  0  0  0
   46.0546    7.4677   12.5541 H   0  0  0  0  0  0  0  0  0  0  0  0
   45.6287   12.0487   11.6999 H   0  0  0  0  0  0  0  0  0  0  0  0
   42.2429    9.4077   10.2887 H   0  0  0  0  0  0  0  0  0  0  0  0
   42.1565    4.2093   10.9594 H   0  0  0  0  0  0  0  0  0  0  0  0
   46.6030    4.6691   13.2271 H   0  0  0  0  0  0  0  0  0  0  0  0
   45.5292    2.4300   12.9725 H   0  0  0  0  0  0  0  0  0  0  0  0
   43.3377    2.2005   11.8553 H   0  0  0  0  0  0  0  0  0  0  0  0
  2  1  2  0
  3  1  1  0
  4  1  1  0
  5  3  1  0
  6  2  1  0
  7  4  1  0
  8 10  1  0
  9  5  2  0
 10  3  2  0
 11  6  2  0
 12  7  2  0
 13 12  1  0
 14 11  1  0
  6  7  1  0
  9  8  1  0
 14 13  2  0
  4 15  1  0
  9 16  1  0
 10 17  1  0
 11 18  1  0
 12 19  1  0
 13 20  1  0
 14 21  1  0
M  END
> <Uni-Dock RESULT> 
ENERGY=   -3.422  LOWER_BOUND=    4.889  UPPER_BOUND=    6.003
INTER + INTRA:          -3.422
INTER:                  -3.422
INTRA:                   0.000
UNBOUND:                 0.000

$$$$

     RDKit          3D

 21 23  0  0  0  0  0  0  0  0999 V2000
   45.2488    7.6652   12.4092 C   0  0  0  0  0  0  0  0  0  0  0  0
   46.4490    7.8205   12.9280 N   0  0  0  0  0  0  0  0  0  0  0  0
   44.4224    6.3483   12.4022 C   0  0  0  0  0  0  0  0  0  0  0  0
   44.7867    8.8287   11.8554 N   0  0  0  0  0  0  0  0  0  0  0  0
   43.1641    6.2952   11.8265 N   0  0  0  0  0  0  0  0  0  0  0  0
   46.7701    9.1371   12.6978 C   0  0  0  0  0  0  0  0  0  0  0  0
   45.7434    9.7936   12.0256 C   0  0  0  0  0  0  0  0  0  0  0  0
   43.7061    3.9448   12.7613 S   0  0  0  0  0  0  0  0  0  0  0  0
   42.6920    5.0740   11.9581 C   0  0  0  0  0  0  0  0  0  0  0  0
   44.8838    5.1748   12.9585 C   0  0  0  0  0  0  0  0  0  0  0  0
   47.9299    9.8490   13.0365 C   0  0  0  0  0  0  0  0  0  0  0  0
   45.8008   11.1405   11.6627 C   0  0  0  0  0  0  0  0  0  0  0  0
   46.9665   11.8339   12.0096 C   0  0  0  0  0  0  0  0  0  0  0  0
   48.0146   11.2025   12.6847 C   0  0  0  0  0  0  0  0  0  0  0  0
   43.8888    8.9281   11.4049 H   0  0  0  0  0  0  0  0  0  0  0  0
   41.7181    4.7864   11.5839 H   0  0  0  0  0  0  0  0  0  0  0  0
   45.8278    4.9953   13.4539 H   0  0  0  0  0  0  0  0  0  0  0  0
   48.7394    9.3533   13.5603 H   0  0  0  0  0  0  0  0  0  0  0  0
   44.9879   11.6312   11.1389 H   0  0  0  0  0  0  0  0  0  0  0  0
   47.0580   12.8864   11.7480 H   0  0  0  0  0  0  0  0  0  0  0  0
   48.9085   11.7661   12.9414 H   0  0  0  0  0  0  0  0  0  0  0  0
  2  1  2  0
  3  1  1  0
  4  1  1  0
  5  3  1  0
  6  2  1  0
  7  4  1  0
  8 10  1  0
  9  5  2  0
 10  3  2  0
 11  6  2  0
 12  7  2  0
 13 12  1  0
 14 11  1  0
  6  7  1  0
  9  8  1  0
 14 13  2  0
  4 15  1  0
  9 16  1  0
 10 17  1  0
 11 18  1  0
 12 19  1  0
 13 20  1  0
 14 21  1  0
M  END
> <Uni-Dock RESULT> 
ENERGY=   -3.400  LOWER_BOUND=    5.256  UPPER_BOUND=    7.296
INTER + INTRA:          -3.400
INTER:                  -3.400
INTRA:                   0.000
UNBOUND:                 0.000

$$$$

     RDKit          3D

 21 23  0  0  0  0  0  0  0  0999 V2000
   46.5997    6.4463   13.2901 C   0  0  0  0  0  0  0  0  0  0  0  0
   45.4003    6.8660   12.9451 N   0  0  0  0  0  0  0  0  0  0  0  0
   47.7641    7.3383   13.8055 C   0  0  0  0  0  0  0  0  0  0  0  0
   46.7192    5.0906   13.1420 N   0  0  0  0  0  0  0  0  0  0  0  0
   48.9909    6.7911   14.1420 N   0  0  0  0  0  0  0  0  0  0  0  0
   44.7226    5.7338   12.5600 C   0  0  0  0  0  0  0  0  0  0  0  0
   45.5277    4.6042   12.6739 C   0  0  0  0  0  0  0  0  0  0  0  0
   49.1267    9.3433   14.5420 S   0  0  0  0  0  0  0  0  0  0  0  0
   49.7874    7.7583   14.5441 C   0  0  0  0  0  0  0  0  0  0  0  0
   47.6482    8.7033   13.9561 C   0  0  0  0  0  0  0  0  0  0  0  0
   43.4064    5.5910   12.0976 C   0  0  0  0  0  0  0  0  0  0  0  0
   45.0956    3.3169   12.3498 C   0  0  0  0  0  0  0  0  0  0  0  0
   43.7788    3.1950   11.8902 C   0  0  0  0  0  0  0  0  0  0  0  0
   42.9461    4.3103   11.7650 C   0  0  0  0  0  0  0  0  0  0  0  0
   47.5562    4.5662   13.3506 H   0  0  0  0  0  0  0  0  0  0  0  0
   50.8058    7.5754   14.8612 H   0  0  0  0  0  0  0  0  0  0  0  0
   46.7893    9.3278   13.7540 H   0  0  0  0  0  0  0  0  0  0  0  0
   42.7655    6.4602   12.0028 H   0  0  0  0  0  0  0  0  0  0  0  0
   45.7411    2.4509   12.4467 H   0  0  0  0  0  0  0  0  0  0  0  0
   43.3962    2.2113   11.6249 H   0  0  0  0  0  0  0  0  0  0  0  0
   41.9274    4.1856   11.4052 H   0  0  0  0  0  0  0  0  0  0  0  0
  2  1  2  0
  3  1  1  0
  4  1  1  0
  5  3  1  0
  6  2  1  0
  7  4  1  0
  8 10  1  0
  9  5  2  0
 10  3  2  0
 11  6  2  0
 12  7  2  0
 13 12  1  0
 14 11  1  0
  6  7  1  0
  9  8  1  0
 14 13  2  0
  4 15  1  0
  9 16  1  0
 10 17  1  0
 11 18  1  0
 12 19  1  0
 13 20  1  0
 14 21  1  0
M  END
> <Uni-Dock RESULT> 
ENERGY=   -3.364  LOWER_BOUND=    5.013  UPPER_BOUND=    6.389
INTER + INTRA:          -3.364
INTER:                  -3.364
INTRA:                   0.000
UNBOUND:                 0.000

$$$$

     RDKit          3D

 21 23  0  0  0  0  0  0  0  0999 V2000
   46.5870    6.4361   13.2927 C   0  0  0  0  0  0  0  0  0  0  0  0
   46.7524    5.1378   13.1493 N   0  0  0  0  0  0  0  0  0  0  0  0
   47.6610    7.4417   13.7951 C   0  0  0  0  0  0  0  0  0  0  0  0
   45.3223    6.8233   12.9396 N   0  0  0  0  0  0  0  0  0  0  0  0
   47.3799    8.7929   13.9088 N   0  0  0  0  0  0  0  0  0  0  0  0
   45.5448    4.6728   12.6855 C   0  0  0  0  0  0  0  0  0  0  0  0
   44.6284    5.7107   12.5445 C   0  0  0  0  0  0  0  0  0  0  0  0
   49.8310    8.4298   14.6519 S   0  0  0  0  0  0  0  0  0  0  0  0
   48.4537    9.4106   14.3523 C   0  0  0  0  0  0  0  0  0  0  0  0
   48.9353    7.0564   14.1516 C   0  0  0  0  0  0  0  0  0  0  0  0
   45.1530    3.3664   12.3594 C   0  0  0  0  0  0  0  0  0  0  0  0
   43.3212    5.5252   12.0907 C   0  0  0  0  0  0  0  0  0  0  0  0
   42.9492    4.2141   11.7704 C   0  0  0  0  0  0  0  0  0  0  0  0
   43.8467    3.1509   11.9013 C   0  0  0  0  0  0  0  0  0  0  0  0
   44.9869    7.7748   12.9749 H   0  0  0  0  0  0  0  0  0  0  0  0
   48.4781   10.4791   14.5225 H   0  0  0  0  0  0  0  0  0  0  0  0
   49.3615    6.0629   14.1396 H   0  0  0  0  0  0  0  0  0  0  0  0
   45.8541    2.5460   12.4632 H   0  0  0  0  0  0  0  0  0  0  0  0
   42.6241    6.3496   11.9889 H   0  0  0  0  0  0  0  0  0  0  0  0
   41.9402    4.0191   11.4122 H   0  0  0  0  0  0  0  0  0  0  0  0
   43.5301    2.1426   11.6450 H   0  0  0  0  0  0  0  0  0  0  0  0
  2  1  2  0
  3  1  1  0
  4  1  1  0
  5  3  1  0
  6  2  1  0
  7  4  1  0
  8 10  1  0
  9  5  2  0
 10  3  2  0
 11  6  2  0
 12  7  2  0
 13 12  1  0
 14 11  1  0
  6  7  1  0
  9  8  1  0
 14 13  2  0
  4 15  1  0
  9 16  1  0
 10 17  1  0
 11 18  1  0
 12 19  1  0
 13 20  1  0
 14 21  1  0
M  END
> <Uni-Dock RESULT> 
ENERGY=   -3.335  LOWER_BOUND=    5.048  UPPER_BOUND=    6.588
INTER + INTRA:          -3.335
INTER:                  -3.335
INTRA:                   0.000
UNBOUND:                 0.000

$$$$

     RDKit          3D

 21 23  0  0  0  0  0  0  0  0999 V2000
   45.7563    7.9858   12.4102 C   0  0  0  0  0  0  0  0  0  0  0  0
   46.1295    6.8742   13.0092 N   0  0  0  0  0  0  0  0  0  0  0  0
   46.5257    9.3366   12.4342 C   0  0  0  0  0  0  0  0  0  0  0  0
   44.5751    7.8219   11.7381 N   0  0  0  0  0  0  0  0  0  0  0  0
   46.0414   10.4489   11.7665 N   0  0  0  0  0  0  0  0  0  0  0  0
   45.1478    5.9599   12.7094 C   0  0  0  0  0  0  0  0  0  0  0  0
   44.1591    6.5288   11.9121 C   0  0  0  0  0  0  0  0  0  0  0  0
   48.2631   11.1181   12.9104 S   0  0  0  0  0  0  0  0  0  0  0  0
   46.8786   11.4475   11.9495 C   0  0  0  0  0  0  0  0  0  0  0  0
   47.7152    9.5060   13.1094 C   0  0  0  0  0  0  0  0  0  0  0  0
   45.0318    4.6139   13.0856 C   0  0  0  0  0  0  0  0  0  0  0  0
   43.0408    5.8276   11.4575 C   0  0  0  0  0  0  0  0  0  0  0  0
   42.9430    4.4855   11.8436 C   0  0  0  0  0  0  0  0  0  0  0  0
   43.9195    3.8859   12.6435 C   0  0  0  0  0  0  0  0  0  0  0  0
   44.1130    8.5492   11.2121 H   0  0  0  0  0  0  0  0  0  0  0  0
   46.7129   12.4276   11.5216 H   0  0  0  0  0  0  0  0  0  0  0  0
   48.2645    8.7776   13.6895 H   0  0  0  0  0  0  0  0  0  0  0  0
   45.7928    4.1547   13.7063 H   0  0  0  0  0  0  0  0  0  0  0  0
   42.2825    6.2922   10.8367 H   0  0  0  0  0  0  0  0  0  0  0  0
   42.0888    3.8972   11.5138 H   0  0  0  0  0  0  0  0  0  0  0  0
   43.8174    2.8413   12.9280 H   0  0  0  0  0  0  0  0  0  0  0  0
  2  1  2  0
  3  1  1  0
  4  1  1  0
  5  3  1  0
  6  2  1  0
  7  4  1  0
  8 10  1  0
  9  5  2  0
 10  3  2  0
 11  6  2  0
 12  7  2  0
 13 12  1  0
 14 11  1  0
  6  7  1  0
  9  8  1  0
 14 13  2  0
  4 15  1  0
  9 16  1  0
 10 17  1  0
 11 18  1  0
 12 19  1  0
 13 20  1  0
 14 21  1  0
M  END
> <Uni-Dock RESULT> 
ENERGY=   -3.306  LOWER_BOUND=    5.524  UPPER_BOUND=    6.881
INTER + INTRA:          -3.306
INTER:                  -3.306
INTRA:                   0.000
UNBOUND:                 0.000

$$$$
