
     RDKit          3D

 21 23  0  0  0  0  0  0  0  0999 V2000
   44.9445    3.7045    9.4352 C   0  0  0  0  0  0  0  0  0  0  0  0
   45.3120    2.4401    9.4282 N   0  0  0  0  0  0  0  0  0  0  0  0
   44.0961    4.4009   10.5362 C   0  0  0  0  0  0  0  0  0  0  0  0
   45.4051    4.3674    8.3295 N   0  0  0  0  0  0  0  0  0  0  0  0
   43.7649    5.7425   10.4440 N   0  0  0  0  0  0  0  0  0  0  0  0
   46.0378    2.2853    8.2711 C   0  0  0  0  0  0  0  0  0  0  0  0
   46.1120    3.4805    7.5620 C   0  0  0  0  0  0  0  0  0  0  0  0
   42.7396    4.8231   12.6339 S   0  0  0  0  0  0  0  0  0  0  0  0
   43.0494    6.0728   11.4978 C   0  0  0  0  0  0  0  0  0  0  0  0
   43.6304    3.7375   11.6509 C   0  0  0  0  0  0  0  0  0  0  0  0
   46.6694    1.1444    7.7554 C   0  0  0  0  0  0  0  0  0  0  0  0
   46.7888    3.6128    6.3480 C   0  0  0  0  0  0  0  0  0  0  0  0
   47.4126    2.4629    5.8498 C   0  0  0  0  0  0  0  0  0  0  0  0
   47.3560    1.2484    6.5387 C   0  0  0  0  0  0  0  0  0  0  0  0
   45.2363    5.3443    8.1394 H   0  0  0  0  0  0  0  0  0  0  0  0
   42.6718    7.0756   11.6499 H   0  0  0  0  0  0  0  0  0  0  0  0
   43.7709    2.6996   11.9186 H   0  0  0  0  0  0  0  0  0  0  0  0
   46.6217    0.2051    8.2948 H   0  0  0  0  0  0  0  0  0  0  0  0
   46.8332    4.5550    5.8128 H   0  0  0  0  0  0  0  0  0  0  0  0
   47.9528    2.5162    4.9064 H   0  0  0  0  0  0  0  0  0  0  0  0
   47.8501    0.3712    6.1276 H   0  0  0  0  0  0  0  0  0  0  0  0
  2  1  2  0
  3  1  1  0
  4  1  1  0
  5  3  1  0
  6  2  1  0
  7  4  1  0
  8 10  1  0
  9  5  2  0
 10  3  2  0
 11  6  2  0
 12  7  2  0
 13 12  1  0
 14 11  1  0
  6  7  1  0
  9  8  1  0
 14 13  2  0
  4 15  1  0
  9 16  1  0
 10 17  1  0
 11 18  1  0
 12 19  1  0
 13 20  1  0
 14 21  1  0
M  END
> <Uni-Dock RESULT> 
ENERGY=   -6.266  LOWER_BOUND=    0.000  UPPER_BOUND=    0.000
INTER + INTRA:          -6.266
INTER:                  -6.266
INTRA:                   0.000
UNBOUND:                 0.000

$$$$

     RDKit          3D

 21 23  0  0  0  0  0  0  0  0999 V2000
   44.9995    3.5697    9.3473 C   0  0  0  0  0  0  0  0  0  0  0  0
   45.3573    4.2864    8.3023 N   0  0  0  0  0  0  0  0  0  0  0  0
   44.1363    4.0667   10.5410 C   0  0  0  0  0  0  0  0  0  0  0  0
   45.4855    2.2922    9.2702 N   0  0  0  0  0  0  0  0  0  0  0  0
   43.8171    3.2253   11.5936 N   0  0  0  0  0  0  0  0  0  0  0  0
   46.1031    3.4344    7.5230 C   0  0  0  0  0  0  0  0  0  0  0  0
   46.1995    2.1750    8.1075 C   0  0  0  0  0  0  0  0  0  0  0  0
   42.7445    5.5306   12.0703 S   0  0  0  0  0  0  0  0  0  0  0  0
   43.0850    3.8931   12.4593 C   0  0  0  0  0  0  0  0  0  0  0  0
   43.6449    5.3518   10.6227 C   0  0  0  0  0  0  0  0  0  0  0  0
   46.7352    3.6670    6.2930 C   0  0  0  0  0  0  0  0  0  0  0  0
   46.8996    1.1127    7.5326 C   0  0  0  0  0  0  0  0  0  0  0  0
   47.5236    1.3648    6.3051 C   0  0  0  0  0  0  0  0  0  0  0  0
   47.4449    2.6186    5.6932 C   0  0  0  0  0  0  0  0  0  0  0  0
   45.3278    1.5795    9.9675 H   0  0  0  0  0  0  0  0  0  0  0  0
   42.7121    3.4437   13.3706 H   0  0  0  0  0  0  0  0  0  0  0  0
   43.7726    6.1625    9.9189 H   0  0  0  0  0  0  0  0  0  0  0  0
   46.6704    4.6421    5.8235 H   0  0  0  0  0  0  0  0  0  0  0  0
   46.9611    0.1393    8.0069 H   0  0  0  0  0  0  0  0  0  0  0  0
   48.0816    0.5675    5.8175 H   0  0  0  0  0  0  0  0  0  0  0  0
   47.9398    2.7857    4.7393 H   0  0  0  0  0  0  0  0  0  0  0  0
  2  1  2  0
  3  1  1  0
  4  1  1  0
  5  3  1  0
  6  2  1  0
  7  4  1  0
  8 10  1  0
  9  5  2  0
 10  3  2  0
 11  6  2  0
 12  7  2  0
 13 12  1  0
 14 11  1  0
  6  7  1  0
  9  8  1  0
 14 13  2  0
  4 15  1  0
  9 16  1  0
 10 17  1  0
 11 18  1  0
 12 19  1  0
 13 20  1  0
 14 21  1  0
M  END
> <Uni-Dock RESULT> 
ENERGY=   -6.127  LOWER_BOUND=    0.912  UPPER_BOUND=    1.926
INTER + INTRA:          -6.127
INTER:                  -6.127
INTRA:                   0.000
UNBOUND:                 0.000

$$$$

     RDKit          3D

 21 23  0  0  0  0  0  0  0  0999 V2000
   44.1185    7.5651   11.5179 C   0  0  0  0  0  0  0  0  0  0  0  0
   45.1428    7.0416   12.1583 N   0  0  0  0  0  0  0  0  0  0  0  0
   43.9117    9.0746   11.2087 C   0  0  0  0  0  0  0  0  0  0  0  0
   43.2198    6.6048   11.1379 N   0  0  0  0  0  0  0  0  0  0  0  0
   42.7924    9.5192   10.5251 N   0  0  0  0  0  0  0  0  0  0  0  0
   44.8914    5.6905   12.1907 C   0  0  0  0  0  0  0  0  0  0  0  0
   43.6898    5.3887   11.5568 C   0  0  0  0  0  0  0  0  0  0  0  0
   44.2527   11.5818   11.0781 S   0  0  0  0  0  0  0  0  0  0  0  0
   42.8676   10.8269   10.3997 C   0  0  0  0  0  0  0  0  0  0  0  0
   44.8138   10.0447   11.5892 C   0  0  0  0  0  0  0  0  0  0  0  0
   45.6499    4.6511   12.7484 C   0  0  0  0  0  0  0  0  0  0  0  0
   43.1867    4.0914   11.4414 C   0  0  0  0  0  0  0  0  0  0  0  0
   43.9582    3.0678   12.0044 C   0  0  0  0  0  0  0  0  0  0  0  0
   45.1688    3.3392   12.6473 C   0  0  0  0  0  0  0  0  0  0  0  0
   42.3646    6.7917   10.6352 H   0  0  0  0  0  0  0  0  0  0  0  0
   42.1029   11.4052    9.8974 H   0  0  0  0  0  0  0  0  0  0  0  0
   45.7438    9.9194   12.1260 H   0  0  0  0  0  0  0  0  0  0  0  0
   46.5883    4.8683   13.2459 H   0  0  0  0  0  0  0  0  0  0  0  0
   42.2472    3.8800   10.9426 H   0  0  0  0  0  0  0  0  0  0  0  0
   43.6074    2.0395   11.9399 H   0  0  0  0  0  0  0  0  0  0  0  0
   45.7472    2.5238   13.0755 H   0  0  0  0  0  0  0  0  0  0  0  0
  2  1  2  0
  3  1  1  0
  4  1  1  0
  5  3  1  0
  6  2  1  0
  7  4  1  0
  8 10  1  0
  9  5  2  0
 10  3  2  0
 11  6  2  0
 12  7  2  0
 13 12  1  0
 14 11  1  0
  6  7  1  0
  9  8  1  0
 14 13  2  0
  4 15  1  0
  9 16  1  0
 10 17  1  0
 11 18  1  0
 12 19  1  0
 13 20  1  0
 14 21  1  0
M  END
> <Uni-Dock RESULT> 
ENERGY=   -3.481  LOWER_BOUND=    4.709  UPPER_BOUND=    5.651
INTER + INTRA:          -3.481
INTER:                  -3.481
INTRA:                   0.000
UNBOUND:                 0.000

$$$$

     RDKit          3D

 21 23  0  0  0  0  0  0  0  0999 V2000
   44.3502    7.6925   11.6469 C   0  0  0  0  0  0  0  0  0  0  0  0
   43.3774    6.9057   11.2370 N   0  0  0  0  0  0  0  0  0  0  0  0
   44.4115    9.2355   11.4669 C   0  0  0  0  0  0  0  0  0  0  0  0
   45.3403    6.9832   12.2721 N   0  0  0  0  0  0  0  0  0  0  0  0
   45.4868    9.9698   11.9386 N   0  0  0  0  0  0  0  0  0  0  0  0
   43.7585    5.6400   11.6145 C   0  0  0  0  0  0  0  0  0  0  0  0
   44.9878    5.6600   12.2667 C   0  0  0  0  0  0  0  0  0  0  0  0
   43.8297   11.6175   10.8287 S   0  0  0  0  0  0  0  0  0  0  0  0
   45.2859   11.2392   11.6565 C   0  0  0  0  0  0  0  0  0  0  0  0
   43.4172    9.9537   10.8382 C   0  0  0  0  0  0  0  0  0  0  0  0
   43.1010    4.4146   11.4331 C   0  0  0  0  0  0  0  0  0  0  0  0
   45.6151    4.5138   12.7588 C   0  0  0  0  0  0  0  0  0  0  0  0
   44.9431    3.3007   12.5680 C   0  0  0  0  0  0  0  0  0  0  0  0
   43.7077    3.2483   11.9171 C   0  0  0  0  0  0  0  0  0  0  0  0
   46.1765    7.3935   12.6610 H   0  0  0  0  0  0  0  0  0  0  0  0
   45.9940   12.0116   11.9275 H   0  0  0  0  0  0  0  0  0  0  0  0
   42.5003    9.5842   10.4005 H   0  0  0  0  0  0  0  0  0  0  0  0
   42.1427    4.3808   10.9272 H   0  0  0  0  0  0  0  0  0  0  0  0
   46.5739    4.5537   13.2642 H   0  0  0  0  0  0  0  0  0  0  0  0
   45.3923    2.3795   12.9343 H   0  0  0  0  0  0  0  0  0  0  0  0
   43.2084    2.2915   11.7829 H   0  0  0  0  0  0  0  0  0  0  0  0
  2  1  2  0
  3  1  1  0
  4  1  1  0
  5  3  1  0
  6  2  1  0
  7  4  1  0
  8 10  1  0
  9  5  2  0
 10  3  2  0
 11  6  2  0
 12  7  2  0
 13 12  1  0
 14 11  1  0
  6  7  1  0
  9  8  1  0
 14 13  2  0
  4 15  1  0
  9 16  1  0
 10 17  1  0
 11 18  1  0
 12 19  1  0
 13 20  1  0
 14 21  1  0
M  END
> <Uni-Dock RESULT> 
ENERGY=   -3.425  LOWER_BOUND=    4.795  UPPER_BOUND=    5.817
INTER + INTRA:          -3.425
INTER:                  -3.425
INTRA:                   0.000
UNBOUND:                 0.000

$$$$

     RDKit          3D

 21 23  0  0  0  0  0  0  0  0999 V2000
   45.2493    7.6658   12.4097 C   0  0  0  0  0  0  0  0  0  0  0  0
   46.4492    7.8213   12.9288 N   0  0  0  0  0  0  0  0  0  0  0  0
   44.4229    6.3490   12.4029 C   0  0  0  0  0  0  0  0  0  0  0  0
   44.7872    8.8292   11.8554 N   0  0  0  0  0  0  0  0  0  0  0  0
   43.1646    6.2957   11.8268 N   0  0  0  0  0  0  0  0  0  0  0  0
   46.7704    9.1379   12.6983 C   0  0  0  0  0  0  0  0  0  0  0  0
   45.7439    9.7941   12.0256 C   0  0  0  0  0  0  0  0  0  0  0  0
   43.7063    3.9456   12.7626 S   0  0  0  0  0  0  0  0  0  0  0  0
   42.6926    5.0746   11.9587 C   0  0  0  0  0  0  0  0  0  0  0  0
   44.8839    5.1756   12.9597 C   0  0  0  0  0  0  0  0  0  0  0  0
   47.9301    9.8500   13.0372 C   0  0  0  0  0  0  0  0  0  0  0  0
   45.8014   11.1410   11.6622 C   0  0  0  0  0  0  0  0  0  0  0  0
   46.9670   11.8344   12.0093 C   0  0  0  0  0  0  0  0  0  0  0  0
   48.0148   11.2032   12.6848 C   0  0  0  0  0  0  0  0  0  0  0  0
   43.8895    8.9284   11.4046 H   0  0  0  0  0  0  0  0  0  0  0  0
   41.7187    4.7868   11.5843 H   0  0  0  0  0  0  0  0  0  0  0  0
   45.8279    4.9963   13.4554 H   0  0  0  0  0  0  0  0  0  0  0  0
   48.7394    9.3543   13.5613 H   0  0  0  0  0  0  0  0  0  0  0  0
   44.9886   11.6316   11.1379 H   0  0  0  0  0  0  0  0  0  0  0  0
   47.0586   12.8868   11.7473 H   0  0  0  0  0  0  0  0  0  0  0  0
   48.9086   11.7670   12.9416 H   0  0  0  0  0  0  0  0  0  0  0  0
  2  1  2  0
  3  1  1  0
  4  1  1  0
  5  3  1  0
  6  2  1  0
  7  4  1  0
  8 10  1  0
  9  5  2  0
 10  3  2  0
 11  6  2  0
 12  7  2  0
 13 12  1  0
 14 11  1  0
  6  7  1  0
  9  8  1  0
 14 13  2  0
  4 15  1  0
  9 16  1  0
 10 17  1  0
 11 18  1  0
 12 19  1  0
 13 20  1  0
 14 21  1  0
M  END
> <Uni-Dock RESULT> 
ENERGY=   -3.401  LOWER_BOUND=    5.077  UPPER_BOUND=    7.069
INTER + INTRA:          -3.401
INTER:                  -3.401
INTRA:                   0.000
UNBOUND:                 0.000

$$$$

     RDKit          3D

 21 23  0  0  0  0  0  0  0  0999 V2000
   46.6002    6.4462   13.2910 C   0  0  0  0  0  0  0  0  0  0  0  0
   45.4012    6.8663   12.9455 N   0  0  0  0  0  0  0  0  0  0  0  0
   47.7648    7.3378   13.8067 C   0  0  0  0  0  0  0  0  0  0  0  0
   46.7193    5.0905   13.1432 N   0  0  0  0  0  0  0  0  0  0  0  0
   48.9913    6.7901   14.1438 N   0  0  0  0  0  0  0  0  0  0  0  0
   44.7231    5.7343   12.5604 C   0  0  0  0  0  0  0  0  0  0  0  0
   45.5278    4.6045   12.6747 C   0  0  0  0  0  0  0  0  0  0  0  0
   49.1278    9.3424   14.5436 S   0  0  0  0  0  0  0  0  0  0  0  0
   49.7878    7.7572   14.5460 C   0  0  0  0  0  0  0  0  0  0  0  0
   47.6494    8.7030   13.9572 C   0  0  0  0  0  0  0  0  0  0  0  0
   43.4070    5.5919   12.0975 C   0  0  0  0  0  0  0  0  0  0  0  0
   45.0952    3.3172   12.3506 C   0  0  0  0  0  0  0  0  0  0  0  0
   43.7786    3.1959   11.8905 C   0  0  0  0  0  0  0  0  0  0  0  0
   42.9464    4.3113   11.7649 C   0  0  0  0  0  0  0  0  0  0  0  0
   47.5559    4.5657   13.3521 H   0  0  0  0  0  0  0  0  0  0  0  0
   50.8062    7.5739   14.8636 H   0  0  0  0  0  0  0  0  0  0  0  0
   46.7907    9.3278   13.7546 H   0  0  0  0  0  0  0  0  0  0  0  0
   42.7665    6.4614   12.0024 H   0  0  0  0  0  0  0  0  0  0  0  0
   45.7405    2.4510   12.4477 H   0  0  0  0  0  0  0  0  0  0  0  0
   43.3956    2.2122   11.6251 H   0  0  0  0  0  0  0  0  0  0  0  0
   41.9279    4.1870   11.4047 H   0  0  0  0  0  0  0  0  0  0  0  0
  2  1  2  0
  3  1  1  0
  4  1  1  0
  5  3  1  0
  6  2  1  0
  7  4  1  0
  8 10  1  0
  9  5  2  0
 10  3  2  0
 11  6  2  0
 12  7  2  0
 13 12  1  0
 14 11  1  0
  6  7  1  0
  9  8  1  0
 14 13  2  0
  4 15  1  0
  9 16  1  0
 10 17  1  0
 11 18  1  0
 12 19  1  0
 13 20  1  0
 14 21  1  0
M  END
> <Uni-Dock RESULT> 
ENERGY=   -3.363  LOWER_BOUND=    4.901  UPPER_BOUND=    6.438
INTER + INTRA:          -3.363
INTER:                  -3.363
INTRA:                   0.000
UNBOUND:                 0.000

$$$$

     RDKit          3D

 21 23  0  0  0  0  0  0  0  0999 V2000
   44.3404    6.8366   11.6775 C   0  0  0  0  0  0  0  0  0  0  0  0
   43.4230    7.5877   11.1050 N   0  0  0  0  0  0  0  0  0  0  0  0
   44.2907    5.2896   11.8234 C   0  0  0  0  0  0  0  0  0  0  0  0
   45.3826    7.5886   12.1489 N   0  0  0  0  0  0  0  0  0  0  0  0
   45.3145    4.5954   12.4462 N   0  0  0  0  0  0  0  0  0  0  0  0
   43.8956    8.8740   11.2134 C   0  0  0  0  0  0  0  0  0  0  0  0
   45.1250    8.9033   11.8650 C   0  0  0  0  0  0  0  0  0  0  0  0
   43.5370    2.8743   11.6910 S   0  0  0  0  0  0  0  0  0  0  0  0
   45.0220    3.3126   12.4334 C   0  0  0  0  0  0  0  0  0  0  0  0
   43.2436    4.5285   11.3503 C   0  0  0  0  0  0  0  0  0  0  0  0
   43.3255   10.0780   10.7753 C   0  0  0  0  0  0  0  0  0  0  0  0
   45.8355   10.0794   12.1125 C   0  0  0  0  0  0  0  0  0  0  0  0
   45.2499   11.2706   11.6678 C   0  0  0  0  0  0  0  0  0  0  0  0
   44.0168   11.2736   11.0104 C   0  0  0  0  0  0  0  0  0  0  0  0
   46.1904    7.2102   12.6215 H   0  0  0  0  0  0  0  0  0  0  0  0
   45.6755    2.5654   12.8648 H   0  0  0  0  0  0  0  0  0  0  0  0
   42.3520    4.8627   10.8382 H   0  0  0  0  0  0  0  0  0  0  0  0
   42.3684   10.0735   10.2660 H   0  0  0  0  0  0  0  0  0  0  0  0
   46.7926   10.0778   12.6226 H   0  0  0  0  0  0  0  0  0  0  0  0
   45.7660   12.2137   11.8376 H   0  0  0  0  0  0  0  0  0  0  0  0
   43.5858   12.2144   10.6760 H   0  0  0  0  0  0  0  0  0  0  0  0
  2  1  2  0
  3  1  1  0
  4  1  1  0
  5  3  1  0
  6  2  1  0
  7  4  1  0
  8 10  1  0
  9  5  2  0
 10  3  2  0
 11  6  2  0
 12  7  2  0
 13 12  1  0
 14 11  1  0
  6  7  1  0
  9  8  1  0
 14 13  2  0
  4 15  1  0
  9 16  1  0
 10 17  1  0
 11 18  1  0
 12 19  1  0
 13 20  1  0
 14 21  1  0
M  END
> <Uni-Dock RESULT> 
ENERGY=   -3.362  LOWER_BOUND=    4.283  UPPER_BOUND=    6.715
INTER + INTRA:          -3.362
INTER:                  -3.362
INTRA:                   0.000
UNBOUND:                 0.000

$$$$

     RDKit          3D

 21 23  0  0  0  0  0  0  0  0999 V2000
   51.3843    2.3902   17.7526 C   0  0  0  0  0  0  0  0  0  0  0  0
   51.0885    3.5145   18.3705 N   0  0  0  0  0  0  0  0  0  0  0  0
   52.7467    1.6443   17.8202 C   0  0  0  0  0  0  0  0  0  0  0  0
   50.3267    1.9285   17.0161 N   0  0  0  0  0  0  0  0  0  0  0  0
   52.9518    0.4627   17.1275 N   0  0  0  0  0  0  0  0  0  0  0  0
   49.7882    3.7855   18.0163 C   0  0  0  0  0  0  0  0  0  0  0  0
   49.2853    2.8051   17.1660 C   0  0  0  0  0  0  0  0  0  0  0  0
   55.1363    1.0272   18.3930 S   0  0  0  0  0  0  0  0  0  0  0  0
   54.1792    0.0477   17.3572 C   0  0  0  0  0  0  0  0  0  0  0  0
   53.8141    2.1053   18.5603 C   0  0  0  0  0  0  0  0  0  0  0  0
   48.9642    4.8589   18.3845 C   0  0  0  0  0  0  0  0  0  0  0  0
   47.9883    2.8275   16.6496 C   0  0  0  0  0  0  0  0  0  0  0  0
   47.1815    3.9069   17.0288 C   0  0  0  0  0  0  0  0  0  0  0  0
   47.6577    4.9067   17.8810 C   0  0  0  0  0  0  0  0  0  0  0  0
   50.3416    1.0823   16.4660 H   0  0  0  0  0  0  0  0  0  0  0  0
   54.5740   -0.8610   16.9217 H   0  0  0  0  0  0  0  0  0  0  0  0
   53.8702    2.9969   19.1691 H   0  0  0  0  0  0  0  0  0  0  0  0
   49.3397    5.6314   19.0460 H   0  0  0  0  0  0  0  0  0  0  0  0
   47.6180    2.0519   15.9882 H   0  0  0  0  0  0  0  0  0  0  0  0
   46.1623    3.9683   16.6518 H   0  0  0  0  0  0  0  0  0  0  0  0
   47.0083    5.7337   18.1586 H   0  0  0  0  0  0  0  0  0  0  0  0
  2  1  2  0
  3  1  1  0
  4  1  1  0
  5  3  1  0
  6  2  1  0
  7  4  1  0
  8 10  1  0
  9  5  2  0
 10  3  2  0
 11  6  2  0
 12  7  2  0
 13 12  1  0
 14 11  1  0
  6  7  1  0
  9  8  1  0
 14 13  2  0
  4 15  1  0
  9 16  1  0
 10 17  1  0
 11 18  1  0
 12 19  1  0
 13 20  1  0
 14 21  1  0
M  END
> <Uni-Dock RESULT> 
ENERGY=   -3.303  LOWER_BOUND=   10.030  UPPER_BOUND=   11.644
INTER + INTRA:          -3.303
INTER:                  -3.303
INTRA:                   0.000
UNBOUND:                 0.000

$$$$
