
     RDKit          3D

104107  0  0  0  0  0  0  0  0999 V2000
    0.1421    0.4139   -0.3907 C   0  0  0  0  0  0  0  0  0  0  0  0
   -0.2148    1.7580   -0.3706 N   0  0  0  0  0  0  0  0  0  0  0  0
    1.1422    1.4407    1.3874 N   0  0  0  0  0  0  0  0  0  0  0  0
    1.0268    0.2776    0.6729 C   0  0  0  0  0  0  0  0  0  0  0  0
    0.3793    2.3087    0.7654 C   0  0  0  0  0  0  0  0  0  0  0  0
   -0.2838   -0.5847   -1.4238 C   0  0  0  0  0  0  0  0  0  0  0  0
   -1.7452   -0.4934   -1.8512 C   0  0  0  0  0  0  0  0  0  0  0  0
   -0.9785    2.5255   -1.2561 C   0  0  0  0  0  0  0  0  0  0  0  0
    0.1223    3.6783    1.0501 C   0  0  0  0  0  0  0  0  0  0  0  0
    1.8291   -0.8861    1.0001 C   0  0  0  0  0  0  0  0  0  0  0  0
   -1.2025    3.8299   -1.0016 C   0  0  0  0  0  0  0  0  0  0  0  0
   -0.6327    4.4097    0.2101 C   0  0  0  0  0  0  0  0  0  0  0  0
   -2.7489   -0.8161   -0.9444 N   0  0  0  0  0  0  0  0  0  0  0  0
   -2.0088   -0.1508   -3.0091 O   0  0  0  0  0  0  0  0  0  0  0  0
    1.2566   -2.1239    1.3069 C   0  0  0  0  0  0  0  0  0  0  0  0
    3.2218   -0.7559    1.0373 C   0  0  0  0  0  0  0  0  0  0  0  0
    2.0654   -3.2215    1.6200 C   0  0  0  0  0  0  0  0  0  0  0  0
    4.0308   -1.8511    1.3513 C   0  0  0  0  0  0  0  0  0  0  0  0
    3.4586   -3.0912    1.6526 C   0  0  0  0  0  0  0  0  0  0  0  0
   -2.0036    4.7230   -1.8959 C   0  0  0  0  0  0  0  0  0  0  0  0
   -2.5051   -1.4756    0.3261 C   0  0  0  0  0  0  0  0  0  0  0  0
   -4.1199   -0.8583   -1.4304 C   0  0  0  0  0  0  0  0  0  0  0  0
    4.3300   -4.2716    1.9640 C   0  0  0  0  0  0  0  0  0  0  0  0
   -0.2820    0.7124   -0.4061 C   0  0  0  0  0  0  0  0  0  0  0  0
   -1.0026    1.8929   -0.3560 N   0  0  0  0  0  0  0  0  0  0  0  0
    1.1582    2.4669   -0.1952 N   0  0  0  0  0  0  0  0  0  0  0  0
    1.0394    1.0994   -0.2465 C   0  0  0  0  0  0  0  0  0  0  0  0
   -0.0735    2.9238   -0.2426 C   0  0  0  0  0  0  0  0  0  0  0  0
   -0.9041   -0.6311   -0.6230 C   0  0  0  0  0  0  0  0  0  0  0  0
   -1.5527   -1.1836    0.6470 C   0  0  0  0  0  0  0  0  0  0  0  0
   -2.3809    2.1155   -0.4272 C   0  0  0  0  0  0  0  0  0  0  0  0
   -0.5770    4.2530   -0.2013 C   0  0  0  0  0  0  0  0  0  0  0  0
    2.1931    0.2213   -0.2064 C   0  0  0  0  0  0  0  0  0  0  0  0
   -2.8591    3.3742   -0.3909 C   0  0  0  0  0  0  0  0  0  0  0  0
   -1.9035    4.4735   -0.2738 C   0  0  0  0  0  0  0  0  0  0  0  0
   -2.0253   -2.4954    0.5933 N   0  0  0  0  0  0  0  0  0  0  0  0
   -1.6773   -0.4982    1.6631 O   0  0  0  0  0  0  0  0  0  0  0  0
    3.2992    0.4979   -1.0175 C   0  0  0  0  0  0  0  0  0  0  0  0
    2.2329   -0.8891    0.6445 C   0  0  0  0  0  0  0  0  0  0  0  0
    4.4148   -0.3445   -1.0085 C   0  0  0  0  0  0  0  0  0  0  0  0
    3.3476   -1.7329    0.6538 C   0  0  0  0  0  0  0  0  0  0  0  0
    4.4487   -1.4648   -0.1694 C   0  0  0  0  0  0  0  0  0  0  0  0
   -4.3151    3.7115   -0.4485 C   0  0  0  0  0  0  0  0  0  0  0  0
   -2.5804   -3.0936    1.7990 C   0  0  0  0  0  0  0  0  0  0  0  0
   -1.8959   -3.3852   -0.5522 C   0  0  0  0  0  0  0  0  0  0  0  0
    5.6325   -2.3860   -0.1774 C   0  0  0  0  0  0  0  0  0  0  0  0
   -2.1449    1.0442    0.1122 O   0  0  0  0  0  0  0  0  0  0  0  0
   -1.3862    0.9861    2.2080 O   0  0  0  0  0  0  0  0  0  0  0  0
    2.2143    0.2476   -1.5141 O   0  0  0  0  0  0  0  0  0  0  0  0
    1.0482    1.7142   -0.2905 O   0  0  0  0  0  0  0  0  0  0  0  0
    0.5213   -0.9469    1.5844 O   0  0  0  0  0  0  0  0  0  0  0  0
    0.5814   -1.7533   -1.2358 O   0  0  0  0  0  0  0  0  0  0  0  0
   -1.3471    0.5376    1.0695 C   0  0  0  0  0  0  0  0  0  0  0  0
   -0.5138   -0.6620    0.6316 C   0  0  1  0  0  0  0  0  0  0  0  0
    0.0643   -0.4942   -0.7751 C   0  0  1  0  0  0  0  0  0  0  0  0
    1.1238    0.6046   -0.7913 C   0  0  0  0  0  0  0  0  0  0  0  0
   -0.0964   -1.6121   -1.0968 H   0  0  0  0  0  0  0  0  0  0  0  0
    0.3341   -0.4342   -2.3177 H   0  0  0  0  0  0  0  0  0  0  0  0
   -1.3634    2.0489   -2.1476 H   0  0  0  0  0  0  0  0  0  0  0  0
    0.5549    4.1068    1.9467 H   0  0  0  0  0  0  0  0  0  0  0  0
   -0.8262    5.4578    0.4238 H   0  0  0  0  0  0  0  0  0  0  0  0
    0.1801   -2.2483    1.3196 H   0  0  0  0  0  0  0  0  0  0  0  0
    3.6836    0.2061    0.8210 H   0  0  0  0  0  0  0  0  0  0  0  0
    1.5986   -4.1766    1.8504 H   0  0  0  0  0  0  0  0  0  0  0  0
    5.1107   -1.7240    1.3662 H   0  0  0  0  0  0  0  0  0  0  0  0
   -2.8717    5.1246   -1.3617 H   0  0  0  0  0  0  0  0  0  0  0  0
   -2.3729    4.1886   -2.7779 H   0  0  0  0  0  0  0  0  0  0  0  0
   -1.3938    5.5617   -2.2471 H   0  0  0  0  0  0  0  0  0  0  0  0
   -1.7036   -0.9796    0.8705 H   0  0  0  0  0  0  0  0  0  0  0  0
   -3.4049   -1.4422    0.9483 H   0  0  0  0  0  0  0  0  0  0  0  0
   -2.2301   -2.5169    0.1368 H   0  0  0  0  0  0  0  0  0  0  0  0
   -4.2559   -0.2415   -2.3221 H   0  0  0  0  0  0  0  0  0  0  0  0
   -4.7886   -0.4861   -0.6486 H   0  0  0  0  0  0  0  0  0  0  0  0
   -4.3766   -1.8944   -1.6724 H   0  0  0  0  0  0  0  0  0  0  0  0
    3.7918   -5.0115    2.5674 H   0  0  0  0  0  0  0  0  0  0  0  0
    5.2119   -3.9639    2.5376 H   0  0  0  0  0  0  0  0  0  0  0  0
    4.6570   -4.7483    1.0334 H   0  0  0  0  0  0  0  0  0  0  0  0
   -1.6707   -0.5604   -1.4024 H   0  0  0  0  0  0  0  0  0  0  0  0
   -0.1379   -1.3342   -0.9689 H   0  0  0  0  0  0  0  0  0  0  0  0
   -3.0234    1.2477   -0.5010 H   0  0  0  0  0  0  0  0  0  0  0  0
    0.1326    5.0665   -0.1117 H   0  0  0  0  0  0  0  0  0  0  0  0
   -2.2876    5.4892   -0.2419 H   0  0  0  0  0  0  0  0  0  0  0  0
    3.2908    1.3729   -1.6643 H   0  0  0  0  0  0  0  0  0  0  0  0
    1.4044   -1.0968    1.3174 H   0  0  0  0  0  0  0  0  0  0  0  0
    5.2571   -0.1147   -1.6575 H   0  0  0  0  0  0  0  0  0  0  0  0
    3.3550   -2.5952    1.3166 H   0  0  0  0  0  0  0  0  0  0  0  0
   -4.6246    4.2452    0.4565 H   0  0  0  0  0  0  0  0  0  0  0  0
   -4.5279    4.3453   -1.3154 H   0  0  0  0  0  0  0  0  0  0  0  0
   -4.9370    2.8139   -0.5343 H   0  0  0  0  0  0  0  0  0  0  0  0
   -1.9559   -3.9449    2.0884 H   0  0  0  0  0  0  0  0  0  0  0  0
   -2.6245   -2.3896    2.6346 H   0  0  0  0  0  0  0  0  0  0  0  0
   -3.5947   -3.4406    1.5786 H   0  0  0  0  0  0  0  0  0  0  0  0
   -1.0903   -4.0979   -0.3486 H   0  0  0  0  0  0  0  0  0  0  0  0
   -1.6756   -2.8507   -1.4770 H   0  0  0  0  0  0  0  0  0  0  0  0
   -2.8374   -3.9271   -0.6882 H   0  0  0  0  0  0  0  0  0  0  0  0
    6.5550   -1.8383   -0.3978 H   0  0  0  0  0  0  0  0  0  0  0  0
    5.4920   -3.1645   -0.9332 H   0  0  0  0  0  0  0  0  0  0  0  0
    5.7635   -2.8632    0.7997 H   0  0  0  0  0  0  0  0  0  0  0  0
   -2.6025    1.7929    0.5539 H   0  0  0  0  0  0  0  0  0  0  0  0
    2.8157    1.0188   -1.4230 H   0  0  0  0  0  0  0  0  0  0  0  0
    0.1243   -0.8162    2.4685 H   0  0  0  0  0  0  0  0  0  0  0  0
    1.3889   -1.5365   -1.7457 H   0  0  0  0  0  0  0  0  0  0  0  0
   -1.1827   -1.5316    0.6462 H   0  0  0  0  0  0  0  0  0  0  0  0
   -0.7048   -0.2054   -1.4988 H   0  0  0  0  0  0  0  0  0  0  0  0
 10  4  1  0
 11  8  2  0
 12 11  1  0
 13  7  1  0
 14  7  2  0
 15 10  2  0
 16 10  1  0
 17 15  1  0
 18 16  2  0
 19 18  1  0
 20 11  1  0
 21 13  1  0
 22 13  1  0
 23 19  1  0
  3  5  2  0
  9 12  2  0
 17 19  2  0
  2  1  1  0
  3  4  1  0
  4  1  2  0
  5  2  1  0
  6  1  1  0
  7  6  1  0
  8  2  1  0
  9  5  1  0
 33 27  1  0
 34 31  2  0
 35 34  1  0
 36 30  1  0
 37 30  2  0
 38 33  2  0
 39 33  1  0
 40 38  1  0
 41 39  2  0
 42 41  1  0
 43 34  1  0
 44 36  1  0
 45 36  1  0
 46 42  1  0
 26 28  2  0
 32 35  2  0
 40 42  2  0
 25 24  1  0
 26 27  1  0
 27 24  2  0
 28 25  1  0
 29 24  1  0
 30 29  1  0
 31 25  1  0
 32 28  1  0
 53 48  2  0
 54 51  1  0
 55 52  1  0
 53 47  1  0
 55 56  1  0
 54 55  1  0
 56 49  1  0
 53 54  1  0
 56 50  2  0
  6 57  1  0
  6 58  1  0
  8 59  1  0
  9 60  1  0
 12 61  1  0
 15 62  1  0
 16 63  1  0
 17 64  1  0
 18 65  1  0
 20 66  1  0
 20 67  1  0
 20 68  1  0
 21 69  1  0
 21 70  1  0
 21 71  1  0
 22 72  1  0
 22 73  1  0
 22 74  1  0
 23 75  1  0
 23 76  1  0
 23 77  1  0
 29 78  1  0
 29 79  1  0
 31 80  1  0
 32 81  1  0
 35 82  1  0
 38 83  1  0
 39 84  1  0
 40 85  1  0
 41 86  1  0
 43 87  1  0
 43 88  1  0
 43 89  1  0
 44 90  1  0
 44 91  1  0
 44 92  1  0
 45 93  1  0
 45 94  1  0
 45 95  1  0
 46 96  1  0
 46 97  1  0
 46 98  1  0
 47 99  1  0
 49100  1  0
 51101  1  0
 52102  1  0
 54103  1  6
 55104  1  6
M  END
$$$$
