
     RDKit          3D

104107  0  0  0  0  0  0  0  0999 V2000
   -0.3472    0.6346   -0.6350 C   0  0  0  0  0  0  0  0  0  0  0  0
   -1.2281    1.6846   -0.8301 N   0  0  0  0  0  0  0  0  0  0  0  0
    0.7066    2.6042   -0.1688 N   0  0  0  0  0  0  0  0  0  0  0  0
    0.8295    1.2399   -0.2263 C   0  0  0  0  0  0  0  0  0  0  0  0
   -0.5289    2.8547   -0.5414 C   0  0  0  0  0  0  0  0  0  0  0  0
   -0.7058   -0.8053   -0.8227 C   0  0  0  0  0  0  0  0  0  0  0  0
   -1.5285   -1.3499    0.3489 C   0  0  0  0  0  0  0  0  0  0  0  0
   -2.5629    1.6824   -1.2418 C   0  0  0  0  0  0  0  0  0  0  0  0
   -1.2247    4.0866   -0.6874 C   0  0  0  0  0  0  0  0  0  0  0  0
    2.0524    0.5561    0.1329 C   0  0  0  0  0  0  0  0  0  0  0  0
   -3.2240    2.8481   -1.3808 C   0  0  0  0  0  0  0  0  0  0  0  0
   -2.5095    4.0889   -1.0905 C   0  0  0  0  0  0  0  0  0  0  0  0
   -1.6346   -2.7400    0.4495 N   0  0  0  0  0  0  0  0  0  0  0  0
   -2.1061   -0.6028    1.1414 O   0  0  0  0  0  0  0  0  0  0  0  0
    2.7982   -0.1336   -0.8288 C   0  0  0  0  0  0  0  0  0  0  0  0
    2.4995    0.5939    1.4562 C   0  0  0  0  0  0  0  0  0  0  0  0
    3.9752   -0.7929   -0.4642 C   0  0  0  0  0  0  0  0  0  0  0  0
    3.6756   -0.0678    1.8195 C   0  0  0  0  0  0  0  0  0  0  0  0
    4.4281   -0.7567    0.8606 C   0  0  0  0  0  0  0  0  0  0  0  0
   -4.6561    2.9456   -1.8021 C   0  0  0  0  0  0  0  0  0  0  0  0
   -2.2547   -3.2959    1.6415 C   0  0  0  0  0  0  0  0  0  0  0  0
   -0.8801   -3.6746   -0.3712 C   0  0  0  0  0  0  0  0  0  0  0  0
    5.6799   -1.4844    1.2533 C   0  0  0  0  0  0  0  0  0  0  0  0
   -0.0888    0.7252    0.3342 C   0  0  0  0  0  0  0  0  0  0  0  0
   -0.6784    1.9767    0.3754 N   0  0  0  0  0  0  0  0  0  0  0  0
    1.4494    2.3036   -0.2478 N   0  0  0  0  0  0  0  0  0  0  0  0
    1.2021    0.9598   -0.1127 C   0  0  0  0  0  0  0  0  0  0  0  0
    0.3084    2.8952    0.0273 C   0  0  0  0  0  0  0  0  0  0  0  0
   -0.7839   -0.5337    0.7418 C   0  0  0  0  0  0  0  0  0  0  0  0
   -1.7533   -1.0397   -0.3254 C   0  0  0  0  0  0  0  0  0  0  0  0
   -1.9822    2.3532    0.7110 C   0  0  0  0  0  0  0  0  0  0  0  0
   -0.0507    4.2711    0.0267 C   0  0  0  0  0  0  0  0  0  0  0  0
    2.2218   -0.0422   -0.3543 C   0  0  0  0  0  0  0  0  0  0  0  0
   -2.3251    3.6562    0.7097 C   0  0  0  0  0  0  0  0  0  0  0  0
   -1.3054    4.6392    0.3512 C   0  0  0  0  0  0  0  0  0  0  0  0
   -2.3847   -2.2566   -0.0720 N   0  0  0  0  0  0  0  0  0  0  0  0
   -1.9810   -0.3995   -1.3538 O   0  0  0  0  0  0  0  0  0  0  0  0
    3.4875    0.1098    0.2212 C   0  0  0  0  0  0  0  0  0  0  0  0
    1.9696   -1.1548   -1.1649 C   0  0  0  0  0  0  0  0  0  0  0  0
    4.4801   -0.8521    0.0136 C   0  0  0  0  0  0  0  0  0  0  0  0
    2.9628   -2.1161   -1.3748 C   0  0  0  0  0  0  0  0  0  0  0  0
    4.2274   -1.9691   -0.7921 C   0  0  0  0  0  0  0  0  0  0  0  0
   -3.6948    4.1569    1.0455 C   0  0  0  0  0  0  0  0  0  0  0  0
   -3.3403   -2.7680   -1.0425 C   0  0  0  0  0  0  0  0  0  0  0  0
   -2.2495   -3.0379    1.1492 C   0  0  0  0  0  0  0  0  0  0  0  0
    5.2843   -3.0155   -0.9863 C   0  0  0  0  0  0  0  0  0  0  0  0
   -2.4726    0.1574    0.6348 O   0  0  0  0  0  0  0  0  0  0  0  0
   -0.8559    1.6050    1.1568 O   0  0  0  0  0  0  0  0  0  0  0  0
    2.0063    1.3389   -0.2012 O   0  0  0  0  0  0  0  0  0  0  0  0
    2.1868   -0.1961    1.4135 O   0  0  0  0  0  0  0  0  0  0  0  0
   -1.4289   -0.5891   -1.6667 O   0  0  0  0  0  0  0  0  0  0  0  0
    0.1981   -1.7917    0.3017 O   0  0  0  0  0  0  0  0  0  0  0  0
   -1.2798    0.7451    0.4000 C   0  0  0  0  0  0  0  0  0  0  0  0
   -0.5678    0.2034   -0.8384 C   0  0  1  0  0  0  0  0  0  0  0  0
    0.6415   -0.6321   -0.4212 C   0  0  1  0  0  0  0  0  0  0  0  0
    1.6576    0.1758    0.3761 C   0  0  0  0  0  0  0  0  0  0  0  0
   -1.2817   -0.9398   -1.7451 H   0  0  0  0  0  0  0  0  0  0  0  0
    0.2156   -1.3862   -0.9171 H   0  0  0  0  0  0  0  0  0  0  0  0
   -3.0268    0.7225   -1.4239 H   0  0  0  0  0  0  0  0  0  0  0  0
   -0.6956    5.0061   -0.4669 H   0  0  0  0  0  0  0  0  0  0  0  0
   -3.0417    5.0293   -1.2029 H   0  0  0  0  0  0  0  0  0  0  0  0
    2.4731   -0.1507   -1.8659 H   0  0  0  0  0  0  0  0  0  0  0  0
    1.9316    1.1407    2.2060 H   0  0  0  0  0  0  0  0  0  0  0  0
    4.5435   -1.3231   -1.2247 H   0  0  0  0  0  0  0  0  0  0  0  0
    4.0018   -0.0342    2.8565 H   0  0  0  0  0  0  0  0  0  0  0  0
   -5.2499    3.4563   -1.0356 H   0  0  0  0  0  0  0  0  0  0  0  0
   -5.0995    1.9561   -1.9615 H   0  0  0  0  0  0  0  0  0  0  0  0
   -4.7420    3.5044   -2.7405 H   0  0  0  0  0  0  0  0  0  0  0  0
   -1.4649   -3.6173    2.3266 H   0  0  0  0  0  0  0  0  0  0  0  0
   -2.8905   -2.5695    2.1532 H   0  0  0  0  0  0  0  0  0  0  0  0
   -2.8686   -4.1564    1.3605 H   0  0  0  0  0  0  0  0  0  0  0  0
    0.1134   -3.8037    0.0675 H   0  0  0  0  0  0  0  0  0  0  0  0
   -1.3977   -4.6375   -0.4030 H   0  0  0  0  0  0  0  0  0  0  0  0
   -0.7804   -3.3082   -1.3953 H   0  0  0  0  0  0  0  0  0  0  0  0
    6.4073   -1.4772    0.4334 H   0  0  0  0  0  0  0  0  0  0  0  0
    5.4431   -2.5223    1.5085 H   0  0  0  0  0  0  0  0  0  0  0  0
    6.1562   -1.0052    2.1159 H   0  0  0  0  0  0  0  0  0  0  0  0
   -1.3403   -0.3611    1.6699 H   0  0  0  0  0  0  0  0  0  0  0  0
   -0.0366   -1.3097    0.9371 H   0  0  0  0  0  0  0  0  0  0  0  0
   -2.6827    1.5642    0.9503 H   0  0  0  0  0  0  0  0  0  0  0  0
    0.7048    4.9984   -0.2451 H   0  0  0  0  0  0  0  0  0  0  0  0
   -1.5814    5.6898    0.3449 H   0  0  0  0  0  0  0  0  0  0  0  0
    3.7028    0.9820    0.8352 H   0  0  0  0  0  0  0  0  0  0  0  0
    1.0060   -1.2717   -1.6549 H   0  0  0  0  0  0  0  0  0  0  0  0
    5.4544   -0.7167    0.4776 H   0  0  0  0  0  0  0  0  0  0  0  0
    2.7442   -2.9737   -2.0073 H   0  0  0  0  0  0  0  0  0  0  0  0
   -3.6546    4.8522    1.8920 H   0  0  0  0  0  0  0  0  0  0  0  0
   -4.1363    4.6791    0.1885 H   0  0  0  0  0  0  0  0  0  0  0  0
   -4.3697    3.3375    1.3203 H   0  0  0  0  0  0  0  0  0  0  0  0
   -3.3691   -2.1719   -1.9576 H   0  0  0  0  0  0  0  0  0  0  0  0
   -3.0641   -3.7948   -1.3015 H   0  0  0  0  0  0  0  0  0  0  0  0
   -4.3362   -2.7639   -0.5896 H   0  0  0  0  0  0  0  0  0  0  0  0
   -1.4913   -2.6480    1.8293 H   0  0  0  0  0  0  0  0  0  0  0  0
   -3.2156   -3.0403    1.6667 H   0  0  0  0  0  0  0  0  0  0  0  0
   -1.9807   -4.0652    0.8792 H   0  0  0  0  0  0  0  0  0  0  0  0
    6.2811   -2.5612   -1.0089 H   0  0  0  0  0  0  0  0  0  0  0  0
    5.2444   -3.7439   -0.1699 H   0  0  0  0  0  0  0  0  0  0  0  0
    5.1457   -3.5425   -1.9366 H   0  0  0  0  0  0  0  0  0  0  0  0
   -2.8056    0.5925    1.4472 H   0  0  0  0  0  0  0  0  0  0  0  0
    2.6318    1.7528    0.4323 H   0  0  0  0  0  0  0  0  0  0  0  0
   -1.7683   -1.2900   -1.0734 H   0  0  0  0  0  0  0  0  0  0  0  0
    0.9760   -2.1242    0.7927 H   0  0  0  0  0  0  0  0  0  0  0  0
   -0.2724    1.0678   -1.4424 H   0  0  0  0  0  0  0  0  0  0  0  0
    1.1533   -1.0154   -1.3119 H   0  0  0  0  0  0  0  0  0  0  0  0
 10  4  1  0
 11  8  2  0
 12 11  1  0
 13  7  1  0
 14  7  2  0
 15 10  2  0
 16 10  1  0
 17 15  1  0
 18 16  2  0
 19 18  1  0
 20 11  1  0
 21 13  1  0
 22 13  1  0
 23 19  1  0
  3  5  2  0
  9 12  2  0
 17 19  2  0
  2  1  1  0
  3  4  1  0
  4  1  2  0
  5  2  1  0
  6  1  1  0
  7  6  1  0
  8  2  1  0
  9  5  1  0
 33 27  1  0
 34 31  2  0
 35 34  1  0
 36 30  1  0
 37 30  2  0
 38 33  2  0
 39 33  1  0
 40 38  1  0
 41 39  2  0
 42 41  1  0
 43 34  1  0
 44 36  1  0
 45 36  1  0
 46 42  1  0
 26 28  2  0
 32 35  2  0
 40 42  2  0
 25 24  1  0
 26 27  1  0
 27 24  2  0
 28 25  1  0
 29 24  1  0
 30 29  1  0
 31 25  1  0
 32 28  1  0
 53 48  2  0
 54 51  1  0
 55 52  1  0
 53 47  1  0
 55 56  1  0
 54 55  1  0
 56 49  1  0
 53 54  1  0
 56 50  2  0
  6 57  1  0
  6 58  1  0
  8 59  1  0
  9 60  1  0
 12 61  1  0
 15 62  1  0
 16 63  1  0
 17 64  1  0
 18 65  1  0
 20 66  1  0
 20 67  1  0
 20 68  1  0
 21 69  1  0
 21 70  1  0
 21 71  1  0
 22 72  1  0
 22 73  1  0
 22 74  1  0
 23 75  1  0
 23 76  1  0
 23 77  1  0
 29 78  1  0
 29 79  1  0
 31 80  1  0
 32 81  1  0
 35 82  1  0
 38 83  1  0
 39 84  1  0
 40 85  1  0
 41 86  1  0
 43 87  1  0
 43 88  1  0
 43 89  1  0
 44 90  1  0
 44 91  1  0
 44 92  1  0
 45 93  1  0
 45 94  1  0
 45 95  1  0
 46 96  1  0
 46 97  1  0
 46 98  1  0
 47 99  1  0
 49100  1  0
 51101  1  0
 52102  1  0
 54103  1  6
 55104  1  6
M  END
$$$$
