
     RDKit          3D

104107  0  0  0  0  0  0  0  0999 V2000
   -0.1232    0.4126   -0.7909 C   0  0  0  0  0  0  0  0  0  0  0  0
   -0.5245    1.7389   -0.7129 N   0  0  0  0  0  0  0  0  0  0  0  0
    1.3838    1.5925    0.4513 N   0  0  0  0  0  0  0  0  0  0  0  0
    1.1175    0.3917   -0.1635 C   0  0  0  0  0  0  0  0  0  0  0  0
    0.3934    2.3873    0.1081 C   0  0  0  0  0  0  0  0  0  0  0  0
   -0.9270   -0.6763   -1.4362 C   0  0  0  0  0  0  0  0  0  0  0  0
   -2.3608   -0.7524   -0.9108 C   0  0  0  0  0  0  0  0  0  0  0  0
   -1.6017    2.4000   -1.3084 C   0  0  0  0  0  0  0  0  0  0  0  0
    0.1479    3.7556    0.4120 C   0  0  0  0  0  0  0  0  0  0  0  0
    2.0367   -0.7323   -0.0753 C   0  0  0  0  0  0  0  0  0  0  0  0
   -1.8118    3.7080   -1.0581 C   0  0  0  0  0  0  0  0  0  0  0  0
   -0.9052    4.3902   -0.1398 C   0  0  0  0  0  0  0  0  0  0  0  0
   -2.5933   -1.2269    0.3782 N   0  0  0  0  0  0  0  0  0  0  0  0
   -3.2866   -0.4060   -1.6540 O   0  0  0  0  0  0  0  0  0  0  0  0
    2.7086   -0.9838    1.1272 C   0  0  0  0  0  0  0  0  0  0  0  0
    2.3112   -1.5437   -1.1851 C   0  0  0  0  0  0  0  0  0  0  0  0
    3.6153   -2.0437    1.2251 C   0  0  0  0  0  0  0  0  0  0  0  0
    3.2071   -2.6138   -1.0792 C   0  0  0  0  0  0  0  0  0  0  0  0
    3.8588   -2.8774    0.1292 C   0  0  0  0  0  0  0  0  0  0  0  0
   -2.9179    4.4998   -1.6749 C   0  0  0  0  0  0  0  0  0  0  0  0
   -1.5579   -1.5323    1.3591 C   0  0  0  0  0  0  0  0  0  0  0  0
   -3.9478   -1.1565    0.9027 C   0  0  0  0  0  0  0  0  0  0  0  0
    4.8595   -3.9940    0.2246 C   0  0  0  0  0  0  0  0  0  0  0  0
   -0.1655    0.8382   -0.2712 C   0  0  0  0  0  0  0  0  0  0  0  0
   -0.7067    2.1034   -0.1178 N   0  0  0  0  0  0  0  0  0  0  0  0
    1.4154    2.2311    0.5947 N   0  0  0  0  0  0  0  0  0  0  0  0
    1.1211    0.9392    0.2355 C   0  0  0  0  0  0  0  0  0  0  0  0
    0.3081    2.9101    0.3892 C   0  0  0  0  0  0  0  0  0  0  0  0
   -0.8956   -0.3013   -0.9001 C   0  0  0  0  0  0  0  0  0  0  0  0
   -1.8645   -0.9776    0.0724 C   0  0  0  0  0  0  0  0  0  0  0  0
   -1.9858    2.5845   -0.4110 C   0  0  0  0  0  0  0  0  0  0  0  0
    0.0036    4.2805    0.6118 C   0  0  0  0  0  0  0  0  0  0  0  0
    2.0977   -0.1292    0.3263 C   0  0  0  0  0  0  0  0  0  0  0  0
   -2.2764    3.8840   -0.2075 C   0  0  0  0  0  0  0  0  0  0  0  0
   -1.2252    4.7502    0.3230 C   0  0  0  0  0  0  0  0  0  0  0  0
   -2.2896   -2.2647   -0.2562 N   0  0  0  0  0  0  0  0  0  0  0  0
   -2.2759   -0.4076    1.0832 O   0  0  0  0  0  0  0  0  0  0  0  0
    3.3846    0.0664   -0.1884 C   0  0  0  0  0  0  0  0  0  0  0  0
    1.7828   -1.3459    0.9424 C   0  0  0  0  0  0  0  0  0  0  0  0
    4.3348   -0.9538   -0.1155 C   0  0  0  0  0  0  0  0  0  0  0  0
    2.7337   -2.3687    1.0060 C   0  0  0  0  0  0  0  0  0  0  0  0
    4.0116   -2.1861    0.4642 C   0  0  0  0  0  0  0  0  0  0  0  0
   -3.6207    4.4863   -0.4745 C   0  0  0  0  0  0  0  0  0  0  0  0
   -1.8807   -2.9884   -1.4492 C   0  0  0  0  0  0  0  0  0  0  0  0
   -3.0844   -3.0130    0.7085 C   0  0  0  0  0  0  0  0  0  0  0  0
    5.0448   -3.2703    0.5574 C   0  0  0  0  0  0  0  0  0  0  0  0
   -2.4424    0.7920    0.1463 O   0  0  0  0  0  0  0  0  0  0  0  0
   -1.8331   -0.2719   -1.7262 O   0  0  0  0  0  0  0  0  0  0  0  0
    2.4630    0.9113    0.1458 O   0  0  0  0  0  0  0  0  0  0  0  0
    0.7816    1.5961   -1.1550 O   0  0  0  0  0  0  0  0  0  0  0  0
   -0.4437   -0.0430    1.6235 O   0  0  0  0  0  0  0  0  0  0  0  0
    1.6639   -1.5704    0.3805 O   0  0  0  0  0  0  0  0  0  0  0  0
   -1.6426   -0.0543   -0.5432 C   0  0  0  0  0  0  0  0  0  0  0  0
   -0.5812   -0.6895    0.3507 C   0  0  1  0  0  0  0  0  0  0  0  0
    0.7696   -0.7281   -0.3585 C   0  0  1  0  0  0  0  0  0  0  0  0
    1.3102    0.6933   -0.5246 C   0  0  0  0  0  0  0  0  0  0  0  0
   -0.4701   -1.6646   -1.3035 H   0  0  0  0  0  0  0  0  0  0  0  0
   -0.9617   -0.5015   -2.5209 H   0  0  0  0  0  0  0  0  0  0  0  0
   -2.2301    1.8307   -1.9770 H   0  0  0  0  0  0  0  0  0  0  0  0
    0.8256    4.2582    1.0855 H   0  0  0  0  0  0  0  0  0  0  0  0
   -1.0927    5.4357    0.0880 H   0  0  0  0  0  0  0  0  0  0  0  0
    2.5363   -0.3407    1.9879 H   0  0  0  0  0  0  0  0  0  0  0  0
    1.8440   -1.3458   -2.1464 H   0  0  0  0  0  0  0  0  0  0  0  0
    4.1280   -2.2121    2.1693 H   0  0  0  0  0  0  0  0  0  0  0  0
    3.4104   -3.2264   -1.9551 H   0  0  0  0  0  0  0  0  0  0  0  0
   -3.4830    3.9116   -2.4070 H   0  0  0  0  0  0  0  0  0  0  0  0
   -3.6200    4.8526   -0.9118 H   0  0  0  0  0  0  0  0  0  0  0  0
   -2.5151    5.3723   -2.1972 H   0  0  0  0  0  0  0  0  0  0  0  0
   -0.6019   -1.7879    0.8890 H   0  0  0  0  0  0  0  0  0  0  0  0
   -1.4350   -0.6618    2.0103 H   0  0  0  0  0  0  0  0  0  0  0  0
   -1.8847   -2.3878    1.9556 H   0  0  0  0  0  0  0  0  0  0  0  0
   -4.1786   -2.0987    1.4066 H   0  0  0  0  0  0  0  0  0  0  0  0
   -3.9962   -0.3362    1.6250 H   0  0  0  0  0  0  0  0  0  0  0  0
   -4.6950   -0.9877    0.1243 H   0  0  0  0  0  0  0  0  0  0  0  0
    4.5062   -4.8734   -0.3215 H   0  0  0  0  0  0  0  0  0  0  0  0
    5.8175   -3.6752   -0.1925 H   0  0  0  0  0  0  0  0  0  0  0  0
    5.0141   -4.2989    1.2641 H   0  0  0  0  0  0  0  0  0  0  0  0
   -1.4652    0.0475   -1.7678 H   0  0  0  0  0  0  0  0  0  0  0  0
   -0.1615   -1.0264   -1.2615 H   0  0  0  0  0  0  0  0  0  0  0  0
   -2.7087    1.8749   -0.7886 H   0  0  0  0  0  0  0  0  0  0  0  0
    0.7791    4.9183    1.0176 H   0  0  0  0  0  0  0  0  0  0  0  0
   -1.4601    5.7960    0.4958 H   0  0  0  0  0  0  0  0  0  0  0  0
    3.6481    1.0195   -0.6455 H   0  0  0  0  0  0  0  0  0  0  0  0
    0.8018   -1.4990    1.3871 H   0  0  0  0  0  0  0  0  0  0  0  0
    5.3251   -0.7860   -0.5335 H   0  0  0  0  0  0  0  0  0  0  0  0
    2.4660   -3.3046    1.4891 H   0  0  0  0  0  0  0  0  0  0  0  0
   -4.0328    4.9220    0.4430 H   0  0  0  0  0  0  0  0  0  0  0  0
   -3.5453    5.2709   -1.2353 H   0  0  0  0  0  0  0  0  0  0  0  0
   -4.3373    3.7394   -0.8348 H   0  0  0  0  0  0  0  0  0  0  0  0
   -2.7085   -3.6212   -1.7887 H   0  0  0  0  0  0  0  0  0  0  0  0
   -1.6177   -2.3120   -2.2633 H   0  0  0  0  0  0  0  0  0  0  0  0
   -1.0159   -3.6134   -1.2031 H   0  0  0  0  0  0  0  0  0  0  0  0
   -2.5397   -3.9232    0.9799 H   0  0  0  0  0  0  0  0  0  0  0  0
   -4.0369   -3.2862    0.2420 H   0  0  0  0  0  0  0  0  0  0  0  0
   -3.2844   -2.4388    1.6159 H   0  0  0  0  0  0  0  0  0  0  0  0
    5.6514   -3.2971   -0.3526 H   0  0  0  0  0  0  0  0  0  0  0  0
    4.5754   -4.2530    0.6667 H   0  0  0  0  0  0  0  0  0  0  0  0
    5.6998   -3.0950    1.4142 H   0  0  0  0  0  0  0  0  0  0  0  0
   -3.0415    1.1565   -0.5418 H   0  0  0  0  0  0  0  0  0  0  0  0
    2.6824    1.8484   -0.0383 H   0  0  0  0  0  0  0  0  0  0  0  0
   -1.3337    0.3055    1.8351 H   0  0  0  0  0  0  0  0  0  0  0  0
    1.8784   -1.0701    1.1933 H   0  0  0  0  0  0  0  0  0  0  0  0
   -0.9196   -1.7096    0.5700 H   0  0  0  0  0  0  0  0  0  0  0  0
    0.6887   -1.1662   -1.3576 H   0  0  0  0  0  0  0  0  0  0  0  0
 10  4  1  0
 11  8  2  0
 12 11  1  0
 13  7  1  0
 14  7  2  0
 15 10  2  0
 16 10  1  0
 17 15  1  0
 18 16  2  0
 19 18  1  0
 20 11  1  0
 21 13  1  0
 22 13  1  0
 23 19  1  0
  3  5  2  0
  9 12  2  0
 17 19  2  0
  2  1  1  0
  3  4  1  0
  4  1  2  0
  5  2  1  0
  6  1  1  0
  7  6  1  0
  8  2  1  0
  9  5  1  0
 33 27  1  0
 34 31  2  0
 35 34  1  0
 36 30  1  0
 37 30  2  0
 38 33  2  0
 39 33  1  0
 40 38  1  0
 41 39  2  0
 42 41  1  0
 43 34  1  0
 44 36  1  0
 45 36  1  0
 46 42  1  0
 26 28  2  0
 32 35  2  0
 40 42  2  0
 25 24  1  0
 26 27  1  0
 27 24  2  0
 28 25  1  0
 29 24  1  0
 30 29  1  0
 31 25  1  0
 32 28  1  0
 53 48  2  0
 54 51  1  0
 55 52  1  0
 53 47  1  0
 55 56  1  0
 54 55  1  0
 56 49  1  0
 53 54  1  0
 56 50  2  0
  6 57  1  0
  6 58  1  0
  8 59  1  0
  9 60  1  0
 12 61  1  0
 15 62  1  0
 16 63  1  0
 17 64  1  0
 18 65  1  0
 20 66  1  0
 20 67  1  0
 20 68  1  0
 21 69  1  0
 21 70  1  0
 21 71  1  0
 22 72  1  0
 22 73  1  0
 22 74  1  0
 23 75  1  0
 23 76  1  0
 23 77  1  0
 29 78  1  0
 29 79  1  0
 31 80  1  0
 32 81  1  0
 35 82  1  0
 38 83  1  0
 39 84  1  0
 40 85  1  0
 41 86  1  0
 43 87  1  0
 43 88  1  0
 43 89  1  0
 44 90  1  0
 44 91  1  0
 44 92  1  0
 45 93  1  0
 45 94  1  0
 45 95  1  0
 46 96  1  0
 46 97  1  0
 46 98  1  0
 47 99  1  0
 49100  1  0
 51101  1  0
 52102  1  0
 54103  1  1
 55104  1  6
M  END
$$$$
