
     RDKit          2D

 56 59  0  0  0  0  0  0  0  0999 V2000
   10.5800  -14.5358    0.0000 C   0  0  0  0  0  0  0  0  0  0  0  0
   11.4034  -14.2887    0.0000 N   0  0  0  0  0  0  0  0  0  0  0  0
   10.5799  -13.2183    0.0000 N   0  0  0  0  0  0  0  0  0  0  0  0
   10.1295  -13.9061    0.0000 C   0  0  0  0  0  0  0  0  0  0  0  0
   11.4033  -13.4508    0.0000 C   0  0  0  0  0  0  0  0  0  0  0  0
   10.5703  -15.3834    0.0000 C   0  0  0  0  0  0  0  0  0  0  0  0
    9.8583  -15.7709    0.0000 C   0  0  0  0  0  0  0  0  0  0  0  0
   12.1154  -14.7051    0.0000 C   0  0  0  0  0  0  0  0  0  0  0  0
   12.1153  -13.0439    0.0000 C   0  0  0  0  0  0  0  0  0  0  0  0
    9.3206  -13.9061    0.0000 C   0  0  0  0  0  0  0  0  0  0  0  0
   12.8323  -14.2886    0.0000 C   0  0  0  0  0  0  0  0  0  0  0  0
   12.8322  -13.4507    0.0000 C   0  0  0  0  0  0  0  0  0  0  0  0
    9.8584  -16.5943    0.0000 N   0  0  0  0  0  0  0  0  0  0  0  0
    9.1657  -15.3737    0.0000 O   0  0  0  0  0  0  0  0  0  0  0  0
    8.9040  -13.1894    0.0000 C   0  0  0  0  0  0  0  0  0  0  0  0
    8.9041  -14.6279    0.0000 C   0  0  0  0  0  0  0  0  0  0  0  0
    8.0709  -13.1894    0.0000 C   0  0  0  0  0  0  0  0  0  0  0  0
    8.0710  -14.6280    0.0000 C   0  0  0  0  0  0  0  0  0  0  0  0
    7.6593  -13.9353    0.0000 C   0  0  0  0  0  0  0  0  0  0  0  0
   13.5298  -14.6905    0.0000 C   0  0  0  0  0  0  0  0  0  0  0  0
    9.1658  -16.9915    0.0000 C   0  0  0  0  0  0  0  0  0  0  0  0
   10.5704  -16.9915    0.0000 C   0  0  0  0  0  0  0  0  0  0  0  0
    6.8358  -13.9354    0.0000 C   0  0  0  0  0  0  0  0  0  0  0  0
   16.5415  -10.0682    0.0000 C   0  0  0  0  0  0  0  0  0  0  0  0
   17.3649   -9.8211    0.0000 N   0  0  0  0  0  0  0  0  0  0  0  0
   16.5414   -8.7507    0.0000 N   0  0  0  0  0  0  0  0  0  0  0  0
   16.0910   -9.4385    0.0000 C   0  0  0  0  0  0  0  0  0  0  0  0
   17.3648   -8.9832    0.0000 C   0  0  0  0  0  0  0  0  0  0  0  0
   16.5318  -10.9158    0.0000 C   0  0  0  0  0  0  0  0  0  0  0  0
   15.8198  -11.3033    0.0000 C   0  0  0  0  0  0  0  0  0  0  0  0
   18.0769  -10.2375    0.0000 C   0  0  0  0  0  0  0  0  0  0  0  0
   18.0768   -8.5763    0.0000 C   0  0  0  0  0  0  0  0  0  0  0  0
   15.2821   -9.4385    0.0000 C   0  0  0  0  0  0  0  0  0  0  0  0
   18.7938   -9.8210    0.0000 C   0  0  0  0  0  0  0  0  0  0  0  0
   18.7937   -8.9831    0.0000 C   0  0  0  0  0  0  0  0  0  0  0  0
   15.8199  -12.1267    0.0000 N   0  0  0  0  0  0  0  0  0  0  0  0
   15.1272  -10.9061    0.0000 O   0  0  0  0  0  0  0  0  0  0  0  0
   14.8655   -8.7218    0.0000 C   0  0  0  0  0  0  0  0  0  0  0  0
   14.8656  -10.1603    0.0000 C   0  0  0  0  0  0  0  0  0  0  0  0
   14.0324   -8.7218    0.0000 C   0  0  0  0  0  0  0  0  0  0  0  0
   14.0325  -10.1604    0.0000 C   0  0  0  0  0  0  0  0  0  0  0  0
   13.6208   -9.4677    0.0000 C   0  0  0  0  0  0  0  0  0  0  0  0
   19.4913  -10.2229    0.0000 C   0  0  0  0  0  0  0  0  0  0  0  0
   15.1273  -12.5239    0.0000 C   0  0  0  0  0  0  0  0  0  0  0  0
   16.5319  -12.5239    0.0000 C   0  0  0  0  0  0  0  0  0  0  0  0
   12.7973   -9.4678    0.0000 C   0  0  0  0  0  0  0  0  0  0  0  0
    8.2918  -10.2963    0.0000 O   0  0  0  0  0  0  0  0  0  0  0  0
    9.0098  -11.5362    0.0000 O   0  0  0  0  0  0  0  0  0  0  0  0
   11.8766  -10.7078    0.0000 O   0  0  0  0  0  0  0  0  0  0  0  0
   11.1586   -9.4679    0.0000 O   0  0  0  0  0  0  0  0  0  0  0  0
    9.7276   -9.4679    0.0000 O   0  0  0  0  0  0  0  0  0  0  0  0
   10.4408  -11.5362    0.0000 O   0  0  0  0  0  0  0  0  0  0  0  0
    9.0125  -10.7083    0.0000 C   0  0  0  0  0  0  0  0  0  0  0  0
    9.7270  -10.2958    0.0000 C   0  0  0  0  0  0  0  0  0  0  0  0
   10.4414  -10.7083    0.0000 C   0  0  0  0  0  0  0  0  0  0  0  0
   11.1559  -10.2958    0.0000 C   0  0  0  0  0  0  0  0  0  0  0  0
 10  4  1  0
 11  8  2  0
 12 11  1  0
 13  7  1  0
 14  7  2  0
 15 10  2  0
 16 10  1  0
 17 15  1  0
 18 16  2  0
 19 18  1  0
 20 11  1  0
 21 13  1  0
 22 13  1  0
 23 19  1  0
  3  5  2  0
  9 12  2  0
 17 19  2  0
  2  1  1  0
  3  4  1  0
  4  1  2  0
  5  2  1  0
  6  1  1  0
  7  6  1  0
  8  2  1  0
  9  5  1  0
 33 27  1  0
 34 31  2  0
 35 34  1  0
 36 30  1  0
 37 30  2  0
 38 33  2  0
 39 33  1  0
 40 38  1  0
 41 39  2  0
 42 41  1  0
 43 34  1  0
 44 36  1  0
 45 36  1  0
 46 42  1  0
 26 28  2  0
 32 35  2  0
 40 42  2  0
 25 24  1  0
 26 27  1  0
 27 24  2  0
 28 25  1  0
 29 24  1  0
 30 29  1  0
 31 25  1  0
 32 28  1  0
 53 48  2  0
 54 51  1  0
 55 52  1  0
 53 47  1  0
 55 56  1  0
 54 55  1  0
 56 49  1  0
 53 54  1  0
 56 50  2  0
M  END
> <chembl_id>
CHEMBL3989820

> <chembl_pref_name>
ZOLPIDEM TARTRATE
