
     RDKit          3D

104107  0  0  0  0  0  0  0  0999 V2000
   -0.1446    0.8182    0.1042 C   0  0  0  0  0  0  0  0  0  0  0  0
   -0.7759    1.9230   -0.4445 N   0  0  0  0  0  0  0  0  0  0  0  0
    1.2559    1.8305   -1.3850 N   0  0  0  0  0  0  0  0  0  0  0  0
    1.1069    0.8011   -0.4907 C   0  0  0  0  0  0  0  0  0  0  0  0
    0.1269    2.5002   -1.3338 C   0  0  0  0  0  0  0  0  0  0  0  0
   -0.7824   -0.0943    1.1015 C   0  0  0  0  0  0  0  0  0  0  0  0
   -1.8548   -0.9923    0.4803 C   0  0  0  0  0  0  0  0  0  0  0  0
   -2.0494    2.4501   -0.2083 C   0  0  0  0  0  0  0  0  0  0  0  0
   -0.2879    3.6759   -2.0197 C   0  0  0  0  0  0  0  0  0  0  0  0
    2.1645   -0.1591   -0.2524 C   0  0  0  0  0  0  0  0  0  0  0  0
   -2.4430    3.5646   -0.8549 C   0  0  0  0  0  0  0  0  0  0  0  0
   -1.5127    4.1875   -1.7929 C   0  0  0  0  0  0  0  0  0  0  0  0
   -2.3150   -2.0511    1.2647 N   0  0  0  0  0  0  0  0  0  0  0  0
   -2.3193   -0.7752   -0.6398 O   0  0  0  0  0  0  0  0  0  0  0  0
    2.6814   -0.3666    1.0316 C   0  0  0  0  0  0  0  0  0  0  0  0
    2.7081   -0.8661   -1.3283 C   0  0  0  0  0  0  0  0  0  0  0  0
    3.7144   -1.2854    1.2392 C   0  0  0  0  0  0  0  0  0  0  0  0
    3.7379   -1.7879   -1.1210 C   0  0  0  0  0  0  0  0  0  0  0  0
    4.2556   -1.9961    0.1626 C   0  0  0  0  0  0  0  0  0  0  0  0
   -3.7864    4.1966   -0.6735 C   0  0  0  0  0  0  0  0  0  0  0  0
   -3.2429   -3.0095    0.6840 C   0  0  0  0  0  0  0  0  0  0  0  0
   -1.8534   -2.3586    2.6134 C   0  0  0  0  0  0  0  0  0  0  0  0
    5.3420   -3.0041    0.3874 C   0  0  0  0  0  0  0  0  0  0  0  0
   -0.0893    0.6601    0.5649 C   0  0  0  0  0  0  0  0  0  0  0  0
   -0.5670    1.9132    0.2043 N   0  0  0  0  0  0  0  0  0  0  0  0
    1.2387    1.5396   -1.0672 N   0  0  0  0  0  0  0  0  0  0  0  0
    1.0690    0.5045   -0.1832 C   0  0  0  0  0  0  0  0  0  0  0  0
    0.2571    2.3751   -0.8185 C   0  0  0  0  0  0  0  0  0  0  0  0
   -0.7608   -0.2378    1.5569 C   0  0  0  0  0  0  0  0  0  0  0  0
   -2.1867   -0.5939    1.1378 C   0  0  0  0  0  0  0  0  0  0  0  0
   -1.6428    2.6570    0.6941 C   0  0  0  0  0  0  0  0  0  0  0  0
   -0.0594    3.6320   -1.4049 C   0  0  0  0  0  0  0  0  0  0  0  0
    1.9970   -0.6104   -0.1378 C   0  0  0  0  0  0  0  0  0  0  0  0
   -1.9364    3.8544    0.1511 C   0  0  0  0  0  0  0  0  0  0  0  0
   -1.1085    4.3406   -0.9487 C   0  0  0  0  0  0  0  0  0  0  0  0
   -2.3883   -1.5483    0.1455 N   0  0  0  0  0  0  0  0  0  0  0  0
   -3.1333   -0.0336    1.7003 O   0  0  0  0  0  0  0  0  0  0  0  0
    2.4961   -1.0953    1.0756 C   0  0  0  0  0  0  0  0  0  0  0  0
    2.4295   -1.1953   -1.3351 C   0  0  0  0  0  0  0  0  0  0  0  0
    3.3891   -2.1713    1.0945 C   0  0  0  0  0  0  0  0  0  0  0  0
    3.3200   -2.2733   -1.3167 C   0  0  0  0  0  0  0  0  0  0  0  0
    3.7978   -2.7766   -0.0991 C   0  0  0  0  0  0  0  0  0  0  0  0
   -3.0687    4.7146    0.6125 C   0  0  0  0  0  0  0  0  0  0  0  0
   -1.3250   -2.1025   -0.6748 C   0  0  0  0  0  0  0  0  0  0  0  0
   -3.7409   -1.7289   -0.3589 C   0  0  0  0  0  0  0  0  0  0  0  0
    4.7747   -3.9159   -0.0831 C   0  0  0  0  0  0  0  0  0  0  0  0
    2.5069   -0.2189   -0.6198 O   0  0  0  0  0  0  0  0  0  0  0  0
    0.9802    1.1410   -1.5154 O   0  0  0  0  0  0  0  0  0  0  0  0
   -1.8529    1.5728   -0.0673 O   0  0  0  0  0  0  0  0  0  0  0  0
   -2.2190   -0.1970   -1.3857 O   0  0  0  0  0  0  0  0  0  0  0  0
    1.3660   -0.4021    1.7473 O   0  0  0  0  0  0  0  0  0  0  0  0
   -0.4190   -1.7885    0.0270 O   0  0  0  0  0  0  0  0  0  0  0  0
    1.3472    0.4705   -0.5630 C   0  0  0  0  0  0  0  0  0  0  0  0
    0.5955    0.2910    0.7557 C   0  0  1  0  0  0  0  0  0  0  0  0
   -0.7088   -0.4668    0.5115 C   0  0  1  0  0  0  0  0  0  0  0  0
   -1.6426    0.2926   -0.4248 C   0  0  0  0  0  0  0  0  0  0  0  0
   -0.0143   -0.7332    1.5470 H   0  0  0  0  0  0  0  0  0  0  0  0
   -1.2407    0.4956    1.9023 H   0  0  0  0  0  0  0  0  0  0  0  0
   -2.6833    1.9213    0.4915 H   0  0  0  0  0  0  0  0  0  0  0  0
    0.4009    4.1358   -2.7181 H   0  0  0  0  0  0  0  0  0  0  0  0
   -1.8340    5.0823   -2.3186 H   0  0  0  0  0  0  0  0  0  0  0  0
    2.2934    0.1970    1.8763 H   0  0  0  0  0  0  0  0  0  0  0  0
    2.3280   -0.7024   -2.3349 H   0  0  0  0  0  0  0  0  0  0  0  0
    4.1016   -1.4316    2.2450 H   0  0  0  0  0  0  0  0  0  0  0  0
    4.1406   -2.3310   -1.9735 H   0  0  0  0  0  0  0  0  0  0  0  0
   -4.3226    4.2382   -1.6273 H   0  0  0  0  0  0  0  0  0  0  0  0
   -4.4046    3.6349    0.0346 H   0  0  0  0  0  0  0  0  0  0  0  0
   -3.6831    5.2157   -0.2883 H   0  0  0  0  0  0  0  0  0  0  0  0
   -2.7777   -4.0027    0.7013 H   0  0  0  0  0  0  0  0  0  0  0  0
   -3.5112   -2.7599   -0.3485 H   0  0  0  0  0  0  0  0  0  0  0  0
   -4.1560   -3.0268    1.2891 H   0  0  0  0  0  0  0  0  0  0  0  0
   -2.7159   -2.6274    3.2328 H   0  0  0  0  0  0  0  0  0  0  0  0
   -1.1656   -3.2081    2.5590 H   0  0  0  0  0  0  0  0  0  0  0  0
   -1.3479   -1.5138    3.0823 H   0  0  0  0  0  0  0  0  0  0  0  0
    5.9983   -3.0720   -0.4858 H   0  0  0  0  0  0  0  0  0  0  0  0
    4.9012   -3.9866    0.5784 H   0  0  0  0  0  0  0  0  0  0  0  0
    5.9670   -2.7265    1.2416 H   0  0  0  0  0  0  0  0  0  0  0  0
   -0.2074   -1.1629    1.7336 H   0  0  0  0  0  0  0  0  0  0  0  0
   -0.8078    0.2661    2.5309 H   0  0  0  0  0  0  0  0  0  0  0  0
   -2.2135    2.2393    1.5114 H   0  0  0  0  0  0  0  0  0  0  0  0
    0.5632    3.9932   -2.2163 H   0  0  0  0  0  0  0  0  0  0  0  0
   -1.3543    5.3008   -1.3973 H   0  0  0  0  0  0  0  0  0  0  0  0
    2.2127   -0.6270    2.0156 H   0  0  0  0  0  0  0  0  0  0  0  0
    2.0775   -0.8031   -2.2863 H   0  0  0  0  0  0  0  0  0  0  0  0
    3.7735   -2.5244    2.0486 H   0  0  0  0  0  0  0  0  0  0  0  0
    3.6464   -2.7104   -2.2593 H   0  0  0  0  0  0  0  0  0  0  0  0
   -3.6058    4.2628    1.4534 H   0  0  0  0  0  0  0  0  0  0  0  0
   -2.6977    5.6898    0.9453 H   0  0  0  0  0  0  0  0  0  0  0  0
   -3.7893    4.8742   -0.1980 H   0  0  0  0  0  0  0  0  0  0  0  0
   -0.4197   -2.2643   -0.0903 H   0  0  0  0  0  0  0  0  0  0  0  0
   -1.1199   -1.4163   -1.5021 H   0  0  0  0  0  0  0  0  0  0  0  0
   -1.6390   -3.0720   -1.0739 H   0  0  0  0  0  0  0  0  0  0  0  0
   -3.8656   -1.1063   -1.2530 H   0  0  0  0  0  0  0  0  0  0  0  0
   -3.8976   -2.7804   -0.6202 H   0  0  0  0  0  0  0  0  0  0  0  0
   -4.4898   -1.4400    0.3847 H   0  0  0  0  0  0  0  0  0  0  0  0
    5.7484   -3.5834   -0.4593 H   0  0  0  0  0  0  0  0  0  0  0  0
    4.4103   -4.7375   -0.7072 H   0  0  0  0  0  0  0  0  0  0  0  0
    4.9135   -4.3064    0.9304 H   0  0  0  0  0  0  0  0  0  0  0  0
    2.8815   -0.0029   -1.4997 H   0  0  0  0  0  0  0  0  0  0  0  0
   -2.4279    1.9384   -0.7743 H   0  0  0  0  0  0  0  0  0  0  0  0
    1.6280   -1.2433    1.3184 H   0  0  0  0  0  0  0  0  0  0  0  0
   -1.2064   -2.0750   -0.4791 H   0  0  0  0  0  0  0  0  0  0  0  0
    0.4109    1.2946    1.1563 H   0  0  0  0  0  0  0  0  0  0  0  0
   -1.2398   -0.6065    1.4604 H   0  0  0  0  0  0  0  0  0  0  0  0
 10  4  1  0
 11  8  2  0
 12 11  1  0
 13  7  1  0
 14  7  2  0
 15 10  2  0
 16 10  1  0
 17 15  1  0
 18 16  2  0
 19 18  1  0
 20 11  1  0
 21 13  1  0
 22 13  1  0
 23 19  1  0
  3  5  2  0
  9 12  2  0
 17 19  2  0
  2  1  1  0
  3  4  1  0
  4  1  2  0
  5  2  1  0
  6  1  1  0
  7  6  1  0
  8  2  1  0
  9  5  1  0
 33 27  1  0
 34 31  2  0
 35 34  1  0
 36 30  1  0
 37 30  2  0
 38 33  2  0
 39 33  1  0
 40 38  1  0
 41 39  2  0
 42 41  1  0
 43 34  1  0
 44 36  1  0
 45 36  1  0
 46 42  1  0
 26 28  2  0
 32 35  2  0
 40 42  2  0
 25 24  1  0
 26 27  1  0
 27 24  2  0
 28 25  1  0
 29 24  1  0
 30 29  1  0
 31 25  1  0
 32 28  1  0
 53 48  2  0
 54 51  1  0
 55 52  1  0
 53 47  1  0
 55 56  1  0
 54 55  1  0
 56 49  1  0
 53 54  1  0
 56 50  2  0
  6 57  1  0
  6 58  1  0
  8 59  1  0
  9 60  1  0
 12 61  1  0
 15 62  1  0
 16 63  1  0
 17 64  1  0
 18 65  1  0
 20 66  1  0
 20 67  1  0
 20 68  1  0
 21 69  1  0
 21 70  1  0
 21 71  1  0
 22 72  1  0
 22 73  1  0
 22 74  1  0
 23 75  1  0
 23 76  1  0
 23 77  1  0
 29 78  1  0
 29 79  1  0
 31 80  1  0
 32 81  1  0
 35 82  1  0
 38 83  1  0
 39 84  1  0
 40 85  1  0
 41 86  1  0
 43 87  1  0
 43 88  1  0
 43 89  1  0
 44 90  1  0
 44 91  1  0
 44 92  1  0
 45 93  1  0
 45 94  1  0
 45 95  1  0
 46 96  1  0
 46 97  1  0
 46 98  1  0
 47 99  1  0
 49100  1  0
 51101  1  0
 52102  1  0
 54103  1  1
 55104  1  1
M  END
$$$$
