
     RDKit          3D

 56 59  0  0  0  0  0  0  0  0999 V2000
   -0.6673    0.2412   -0.3215 C   0  0  0  0  0  0  0  0  0  0  0  0
   -1.6453    1.1340   -0.0304 N   0  0  0  0  0  0  0  0  0  0  0  0
    0.2621    2.0915    0.4891 N   0  0  0  0  0  0  0  0  0  0  0  0
    0.5279    0.8427    0.0042 C   0  0  0  0  0  0  0  0  0  0  0  0
   -1.0934    2.2594    0.4619 C   0  0  0  0  0  0  0  0  0  0  0  0
   -0.8966   -1.0957   -0.8624 C   0  0  0  0  0  0  0  0  0  0  0  0
   -0.8055   -2.1558    0.1812 C   0  0  0  0  0  0  0  0  0  0  0  0
   -2.9786    1.0841   -0.1442 C   0  0  0  0  0  0  0  0  0  0  0  0
   -1.8927    3.3287    0.8365 C   0  0  0  0  0  0  0  0  0  0  0  0
    1.8762    0.3285   -0.1178 C   0  0  0  0  0  0  0  0  0  0  0  0
   -3.8282    2.1243    0.2152 C   0  0  0  0  0  0  0  0  0  0  0  0
   -3.2472    3.2890    0.7254 C   0  0  0  0  0  0  0  0  0  0  0  0
   -0.9759   -3.5236   -0.1500 N   0  0  0  0  0  0  0  0  0  0  0  0
   -0.5770   -1.8862    1.3873 O   0  0  0  0  0  0  0  0  0  0  0  0
    2.8252    1.2027   -0.6616 C   0  0  0  0  0  0  0  0  0  0  0  0
    2.2800   -0.9304    0.2543 C   0  0  0  0  0  0  0  0  0  0  0  0
    4.1333    0.7968   -0.8153 C   0  0  0  0  0  0  0  0  0  0  0  0
    3.6070   -1.3339    0.0952 C   0  0  0  0  0  0  0  0  0  0  0  0
    4.5406   -0.4734   -0.4401 C   0  0  0  0  0  0  0  0  0  0  0  0
   -5.2972    2.0089    0.0655 C   0  0  0  0  0  0  0  0  0  0  0  0
   -0.8719   -4.4910    0.9447 C   0  0  0  0  0  0  0  0  0  0  0  0
   -1.2415   -4.0149   -1.4750 C   0  0  0  0  0  0  0  0  0  0  0  0
    5.9660   -0.8269   -0.6421 C   0  0  0  0  0  0  0  0  0  0  0  0
   -0.6548   -0.2851    0.3436 C   0  0  0  0  0  0  0  0  0  0  0  0
   -1.3941   -1.4297    0.3383 N   0  0  0  0  0  0  0  0  0  0  0  0
    0.7159   -2.0328    0.2571 N   0  0  0  0  0  0  0  0  0  0  0  0
    0.6831   -0.6673    0.2924 C   0  0  0  0  0  0  0  0  0  0  0  0
   -0.5483   -2.4962    0.2850 C   0  0  0  0  0  0  0  0  0  0  0  0
   -1.1710    1.0867    0.3786 C   0  0  0  0  0  0  0  0  0  0  0  0
   -1.1579    1.7288   -0.9643 C   0  0  0  0  0  0  0  0  0  0  0  0
   -2.7261   -1.5647    0.3755 C   0  0  0  0  0  0  0  0  0  0  0  0
   -1.1572   -3.7337    0.2710 C   0  0  0  0  0  0  0  0  0  0  0  0
    1.8773    0.1573    0.2875 C   0  0  0  0  0  0  0  0  0  0  0  0
   -3.3413   -2.7968    0.3618 C   0  0  0  0  0  0  0  0  0  0  0  0
   -2.5216   -3.9338    0.3074 C   0  0  0  0  0  0  0  0  0  0  0  0
   -1.5924    3.0725   -1.1207 N   0  0  0  0  0  0  0  0  0  0  0  0
   -0.7510    1.0552   -1.9737 O   0  0  0  0  0  0  0  0  0  0  0  0
    2.9083   -0.2380    1.1461 C   0  0  0  0  0  0  0  0  0  0  0  0
    2.0812    1.2654   -0.4657 C   0  0  0  0  0  0  0  0  0  0  0  0
    4.0997    0.4511    1.2472 C   0  0  0  0  0  0  0  0  0  0  0  0
    3.2523    1.9792   -0.3946 C   0  0  0  0  0  0  0  0  0  0  0  0
    4.2684    1.5702    0.4670 C   0  0  0  0  0  0  0  0  0  0  0  0
   -4.7924   -3.0107    0.4004 C   0  0  0  0  0  0  0  0  0  0  0  0
   -2.0524    3.8344    0.0416 C   0  0  0  0  0  0  0  0  0  0  0  0
   -1.5715    3.6660   -2.4469 C   0  0  0  0  0  0  0  0  0  0  0  0
    5.5458    2.3220    0.5655 C   0  0  0  0  0  0  0  0  0  0  0  0
   -2.6351    0.3910   -0.6567 O   0  0  0  0  0  0  0  0  0  0  0  0
   -0.7438   -0.3091   -1.6903 O   0  0  0  0  0  0  0  0  0  0  0  0
    2.4027    0.5754   -0.8724 O   0  0  0  0  0  0  0  0  0  0  0  0
    1.5963   -1.5100   -0.5026 O   0  0  0  0  0  0  0  0  0  0  0  0
   -1.5679   -0.0464    1.7941 O   0  0  0  0  0  0  0  0  0  0  0  0
    0.8049    1.4957    1.0702 O   0  0  0  0  0  0  0  0  0  0  0  0
   -1.3287   -0.1034   -0.5968 C   0  0  0  0  0  0  0  0  0  0  0  0
   -0.7509   -0.3402    0.7272 C   0  0  0  0  0  0  0  0  0  0  0  0
    0.6582    0.1469    0.9055 C   0  0  0  0  0  0  0  0  0  0  0  0
    1.5642   -0.2999   -0.1782 C   0  0  0  0  0  0  0  0  0  0  0  0
 10  4  1  0
 11  8  2  0
 12 11  1  0
 13  7  1  0
 14  7  2  0
 15 10  2  0
 16 10  1  0
 17 15  1  0
 18 16  2  0
 19 18  1  0
 20 11  1  0
 21 13  1  0
 22 13  1  0
 23 19  1  0
  3  5  2  0
  9 12  2  0
 17 19  2  0
  2  1  1  0
  3  4  1  0
  4  1  2  0
  5  2  1  0
  6  1  1  0
  7  6  1  0
  8  2  1  0
  9  5  1  0
 33 27  1  0
 34 31  2  0
 35 34  1  0
 36 30  1  0
 37 30  2  0
 38 33  2  0
 39 33  1  0
 40 38  1  0
 41 39  2  0
 42 41  1  0
 43 34  1  0
 44 36  1  0
 45 36  1  0
 46 42  1  0
 26 28  2  0
 32 35  2  0
 40 42  2  0
 25 24  1  0
 26 27  1  0
 27 24  2  0
 28 25  1  0
 29 24  1  0
 30 29  1  0
 31 25  1  0
 32 28  1  0
 53 48  2  0
 54 51  1  0
 55 52  1  0
 53 47  1  0
 55 56  1  0
 54 55  1  0
 56 49  1  0
 53 54  1  0
 56 50  2  0
M  END
