
     RDKit          3D

104107  0  0  0  0  0  0  0  0999 V2000
   -0.4245   -0.6909   -0.3418 C   0  0  0  0  0  0  0  0  0  0  0  0
   -1.3687   -1.6982   -0.2532 N   0  0  0  0  0  0  0  0  0  0  0  0
    0.6021   -2.6371    0.2529 N   0  0  0  0  0  0  0  0  0  0  0  0
    0.7657   -1.2911    0.0378 C   0  0  0  0  0  0  0  0  0  0  0  0
   -0.6832   -2.8600    0.0917 C   0  0  0  0  0  0  0  0  0  0  0  0
   -0.7338    0.7008   -0.7918 C   0  0  0  0  0  0  0  0  0  0  0  0
   -1.3600    1.5465    0.3173 C   0  0  0  0  0  0  0  0  0  0  0  0
   -2.7486   -1.6675   -0.4693 C   0  0  0  0  0  0  0  0  0  0  0  0
   -1.4423   -4.0573    0.2073 C   0  0  0  0  0  0  0  0  0  0  0  0
    2.0567   -0.6409    0.1489 C   0  0  0  0  0  0  0  0  0  0  0  0
   -3.4701   -2.7993   -0.3542 C   0  0  0  0  0  0  0  0  0  0  0  0
   -2.7714   -4.0343   -0.0064 C   0  0  0  0  0  0  0  0  0  0  0  0
   -1.5153    2.9094    0.0501 N   0  0  0  0  0  0  0  0  0  0  0  0
   -1.7347    1.0530    1.3825 O   0  0  0  0  0  0  0  0  0  0  0  0
    2.2165    0.5294    0.9003 C   0  0  0  0  0  0  0  0  0  0  0  0
    3.1717   -1.2040   -0.4797 C   0  0  0  0  0  0  0  0  0  0  0  0
    3.4673    1.1481    0.9891 C   0  0  0  0  0  0  0  0  0  0  0  0
    4.4220   -0.5847   -0.3917 C   0  0  0  0  0  0  0  0  0  0  0  0
    4.5760    0.6056    0.3291 C   0  0  0  0  0  0  0  0  0  0  0  0
   -4.9510   -2.8615   -0.5520 C   0  0  0  0  0  0  0  0  0  0  0  0
   -0.9129    3.5819   -1.0908 C   0  0  0  0  0  0  0  0  0  0  0  0
   -1.9643    3.7696    1.1328 C   0  0  0  0  0  0  0  0  0  0  0  0
    5.9248    1.2499    0.4535 C   0  0  0  0  0  0  0  0  0  0  0  0
   -0.1975    0.7495   -0.3348 C   0  0  0  0  0  0  0  0  0  0  0  0
   -0.8361    1.9695   -0.1865 N   0  0  0  0  0  0  0  0  0  0  0  0
    1.3318    2.3401    0.2440 N   0  0  0  0  0  0  0  0  0  0  0  0
    1.1342    1.0186   -0.0647 C   0  0  0  0  0  0  0  0  0  0  0  0
    0.1444    2.8969    0.1569 C   0  0  0  0  0  0  0  0  0  0  0  0
   -0.9012   -0.5242   -0.6818 C   0  0  0  0  0  0  0  0  0  0  0  0
   -1.6801   -1.0989    0.5030 C   0  0  0  0  0  0  0  0  0  0  0  0
   -2.1825    2.3121   -0.3376 C   0  0  0  0  0  0  0  0  0  0  0  0
   -0.2669    4.2447    0.3504 C   0  0  0  0  0  0  0  0  0  0  0  0
    2.2148    0.0560   -0.0651 C   0  0  0  0  0  0  0  0  0  0  0  0
   -2.5752    3.5877   -0.1538 C   0  0  0  0  0  0  0  0  0  0  0  0
   -1.5624    4.5798    0.1996 C   0  0  0  0  0  0  0  0  0  0  0  0
   -2.1693   -2.3978    0.3632 N   0  0  0  0  0  0  0  0  0  0  0  0
   -1.8897   -0.4424    1.5250 O   0  0  0  0  0  0  0  0  0  0  0  0
    2.5943   -0.6002   -1.2409 C   0  0  0  0  0  0  0  0  0  0  0  0
    2.9066   -0.2036    1.1210 C   0  0  0  0  0  0  0  0  0  0  0  0
    3.6404   -1.5272   -1.2230 C   0  0  0  0  0  0  0  0  0  0  0  0
    3.9512   -1.1314    1.1385 C   0  0  0  0  0  0  0  0  0  0  0  0
    4.3159   -1.8115   -0.0297 C   0  0  0  0  0  0  0  0  0  0  0  0
   -3.9930    4.0474   -0.2815 C   0  0  0  0  0  0  0  0  0  0  0  0
   -2.1567   -3.1740   -0.8690 C   0  0  0  0  0  0  0  0  0  0  0  0
   -2.8779   -2.9975    1.4836 C   0  0  0  0  0  0  0  0  0  0  0  0
    5.4640   -2.7770   -0.0191 C   0  0  0  0  0  0  0  0  0  0  0  0
    2.0898    0.9716   -0.7477 O   0  0  0  0  0  0  0  0  0  0  0  0
    2.1504   -1.2621   -0.7660 O   0  0  0  0  0  0  0  0  0  0  0  0
   -2.4555   -0.2447   -0.6381 O   0  0  0  0  0  0  0  0  0  0  0  0
   -0.7810    0.3452   -1.9919 O   0  0  0  0  0  0  0  0  0  0  0  0
    0.0807   -1.4646    1.0859 O   0  0  0  0  0  0  0  0  0  0  0  0
   -1.4440    0.8651    1.5270 O   0  0  0  0  0  0  0  0  0  0  0  0
    1.6597   -0.2315   -0.3287 C   0  0  0  0  0  0  0  0  0  0  0  0
    0.6060   -0.1656    0.7689 C   0  0  1  0  0  0  0  0  0  0  0  0
   -0.5441    0.7757    0.4137 C   0  0  1  0  0  0  0  0  0  0  0  0
   -1.2383    0.2968   -0.8606 C   0  0  0  0  0  0  0  0  0  0  0  0
    0.1921    1.1779   -1.1289 H   0  0  0  0  0  0  0  0  0  0  0  0
   -1.4244    0.6762   -1.6421 H   0  0  0  0  0  0  0  0  0  0  0  0
   -3.1952   -0.7119   -0.7102 H   0  0  0  0  0  0  0  0  0  0  0  0
   -0.9245   -4.9715    0.4715 H   0  0  0  0  0  0  0  0  0  0  0  0
   -3.3534   -4.9471    0.0843 H   0  0  0  0  0  0  0  0  0  0  0  0
    1.3755    0.9528    1.4449 H   0  0  0  0  0  0  0  0  0  0  0  0
    3.0692   -2.1334   -1.0364 H   0  0  0  0  0  0  0  0  0  0  0  0
    3.5714    2.0506    1.5869 H   0  0  0  0  0  0  0  0  0  0  0  0
    5.2755   -1.0433   -0.8859 H   0  0  0  0  0  0  0  0  0  0  0  0
   -5.3693   -1.8788   -0.7934 H   0  0  0  0  0  0  0  0  0  0  0  0
   -5.2024   -3.5414   -1.3725 H   0  0  0  0  0  0  0  0  0  0  0  0
   -5.4450   -3.2160    0.3581 H   0  0  0  0  0  0  0  0  0  0  0  0
   -1.4772    4.4904   -1.3201 H   0  0  0  0  0  0  0  0  0  0  0  0
   -0.9188    2.9441   -1.9774 H   0  0  0  0  0  0  0  0  0  0  0  0
    0.1192    3.8412   -0.8372 H   0  0  0  0  0  0  0  0  0  0  0  0
   -1.0859    4.2156    1.6103 H   0  0  0  0  0  0  0  0  0  0  0  0
   -2.6032    4.5582    0.7239 H   0  0  0  0  0  0  0  0  0  0  0  0
   -2.5352    3.2165    1.8841 H   0  0  0  0  0  0  0  0  0  0  0  0
    5.8300    2.3345    0.5713 H   0  0  0  0  0  0  0  0  0  0  0  0
    6.4554    0.8447    1.3205 H   0  0  0  0  0  0  0  0  0  0  0  0
    6.5242    1.0730   -0.4460 H   0  0  0  0  0  0  0  0  0  0  0  0
   -1.5982   -0.3525   -1.5089 H   0  0  0  0  0  0  0  0  0  0  0  0
   -0.1654   -1.2668   -1.0052 H   0  0  0  0  0  0  0  0  0  0  0  0
   -2.8735    1.5190   -0.5891 H   0  0  0  0  0  0  0  0  0  0  0  0
    0.4851    4.9781    0.6173 H   0  0  0  0  0  0  0  0  0  0  0  0
   -1.8770    5.6088    0.3490 H   0  0  0  0  0  0  0  0  0  0  0  0
    2.0892   -0.3818   -2.1782 H   0  0  0  0  0  0  0  0  0  0  0  0
    2.6332    0.3208    2.0342 H   0  0  0  0  0  0  0  0  0  0  0  0
    3.9295   -2.0200   -2.1479 H   0  0  0  0  0  0  0  0  0  0  0  0
    4.4802   -1.3143    2.0709 H   0  0  0  0  0  0  0  0  0  0  0  0
   -4.3455    4.4777    0.6615 H   0  0  0  0  0  0  0  0  0  0  0  0
   -4.0821    4.8081   -1.0636 H   0  0  0  0  0  0  0  0  0  0  0  0
   -4.6657    3.2233   -0.5424 H   0  0  0  0  0  0  0  0  0  0  0  0
   -3.1915   -3.3947   -1.1502 H   0  0  0  0  0  0  0  0  0  0  0  0
   -1.6834   -2.6525   -1.7012 H   0  0  0  0  0  0  0  0  0  0  0  0
   -1.6229   -4.1120   -0.6865 H   0  0  0  0  0  0  0  0  0  0  0  0
   -2.5329   -4.0272    1.6143 H   0  0  0  0  0  0  0  0  0  0  0  0
   -3.9483   -2.9962    1.2598 H   0  0  0  0  0  0  0  0  0  0  0  0
   -2.7098   -2.4533    2.4165 H   0  0  0  0  0  0  0  0  0  0  0  0
    5.3135   -3.5704   -0.7591 H   0  0  0  0  0  0  0  0  0  0  0  0
    5.5603   -3.2601    0.9590 H   0  0  0  0  0  0  0  0  0  0  0  0
    6.3961   -2.2509   -0.2478 H   0  0  0  0  0  0  0  0  0  0  0  0
    2.7318    0.7690   -1.4624 H   0  0  0  0  0  0  0  0  0  0  0  0
   -2.7708   -0.5112   -1.5267 H   0  0  0  0  0  0  0  0  0  0  0  0
    0.8297   -2.0901    1.0174 H   0  0  0  0  0  0  0  0  0  0  0  0
   -1.8294   -0.0319    1.6060 H   0  0  0  0  0  0  0  0  0  0  0  0
    1.1045    0.1840    1.6802 H   0  0  0  0  0  0  0  0  0  0  0  0
   -0.1895    1.7944    0.2232 H   0  0  0  0  0  0  0  0  0  0  0  0
 10  4  1  0
 11  8  2  0
 12 11  1  0
 13  7  1  0
 14  7  2  0
 15 10  2  0
 16 10  1  0
 17 15  1  0
 18 16  2  0
 19 18  1  0
 20 11  1  0
 21 13  1  0
 22 13  1  0
 23 19  1  0
  3  5  2  0
  9 12  2  0
 17 19  2  0
  2  1  1  0
  3  4  1  0
  4  1  2  0
  5  2  1  0
  6  1  1  0
  7  6  1  0
  8  2  1  0
  9  5  1  0
 33 27  1  0
 34 31  2  0
 35 34  1  0
 36 30  1  0
 37 30  2  0
 38 33  2  0
 39 33  1  0
 40 38  1  0
 41 39  2  0
 42 41  1  0
 43 34  1  0
 44 36  1  0
 45 36  1  0
 46 42  1  0
 26 28  2  0
 32 35  2  0
 40 42  2  0
 25 24  1  0
 26 27  1  0
 27 24  2  0
 28 25  1  0
 29 24  1  0
 30 29  1  0
 31 25  1  0
 32 28  1  0
 53 48  2  0
 54 51  1  0
 55 52  1  0
 53 47  1  0
 55 56  1  0
 54 55  1  0
 56 49  1  0
 53 54  1  0
 56 50  2  0
  6 57  1  0
  6 58  1  0
  8 59  1  0
  9 60  1  0
 12 61  1  0
 15 62  1  0
 16 63  1  0
 17 64  1  0
 18 65  1  0
 20 66  1  0
 20 67  1  0
 20 68  1  0
 21 69  1  0
 21 70  1  0
 21 71  1  0
 22 72  1  0
 22 73  1  0
 22 74  1  0
 23 75  1  0
 23 76  1  0
 23 77  1  0
 29 78  1  0
 29 79  1  0
 31 80  1  0
 32 81  1  0
 35 82  1  0
 38 83  1  0
 39 84  1  0
 40 85  1  0
 41 86  1  0
 43 87  1  0
 43 88  1  0
 43 89  1  0
 44 90  1  0
 44 91  1  0
 44 92  1  0
 45 93  1  0
 45 94  1  0
 45 95  1  0
 46 96  1  0
 46 97  1  0
 46 98  1  0
 47 99  1  0
 49100  1  0
 51101  1  0
 52102  1  0
 54103  1  1
 55104  1  6
M  END
$$$$
