
     RDKit          3D

104107  0  0  0  0  0  0  0  0999 V2000
    0.0377    0.7575    0.6146 C   0  0  0  0  0  0  0  0  0  0  0  0
   -0.1531    2.1273    0.4707 N   0  0  0  0  0  0  0  0  0  0  0  0
    1.4351    1.5558   -1.0026 N   0  0  0  0  0  0  0  0  0  0  0  0
    1.0676    0.4579   -0.2672 C   0  0  0  0  0  0  0  0  0  0  0  0
    0.7086    2.5459   -0.5399 C   0  0  0  0  0  0  0  0  0  0  0  0
   -0.7573   -0.0869    1.5578 C   0  0  0  0  0  0  0  0  0  0  0  0
   -2.1857   -0.2840    1.0463 C   0  0  0  0  0  0  0  0  0  0  0  0
   -1.0031    3.0062    1.1486 C   0  0  0  0  0  0  0  0  0  0  0  0
    0.6862    3.9236   -0.8965 C   0  0  0  0  0  0  0  0  0  0  0  0
    1.7026   -0.8296   -0.4751 C   0  0  0  0  0  0  0  0  0  0  0  0
   -1.0197    4.3129    0.8205 C   0  0  0  0  0  0  0  0  0  0  0  0
   -0.1363    4.7709   -0.2499 C   0  0  0  0  0  0  0  0  0  0  0  0
   -2.5083   -1.4351    0.3340 N   0  0  0  0  0  0  0  0  0  0  0  0
   -3.0361    0.5830    1.2870 O   0  0  0  0  0  0  0  0  0  0  0  0
    2.2095   -1.5755    0.5932 C   0  0  0  0  0  0  0  0  0  0  0  0
    1.8472   -1.3205   -1.7767 C   0  0  0  0  0  0  0  0  0  0  0  0
    2.8200   -2.8119    0.3659 C   0  0  0  0  0  0  0  0  0  0  0  0
    2.4551   -2.5557   -2.0085 C   0  0  0  0  0  0  0  0  0  0  0  0
    2.9358   -3.3164   -0.9354 C   0  0  0  0  0  0  0  0  0  0  0  0
   -1.9054    5.3203    1.4866 C   0  0  0  0  0  0  0  0  0  0  0  0
   -1.5259   -2.3471   -0.2306 C   0  0  0  0  0  0  0  0  0  0  0  0
   -3.8443   -1.5210   -0.2420 C   0  0  0  0  0  0  0  0  0  0  0  0
    3.6374   -4.6178   -1.1874 C   0  0  0  0  0  0  0  0  0  0  0  0
   -0.7720   -0.4028    0.2873 C   0  0  0  0  0  0  0  0  0  0  0  0
   -1.9966   -0.9581   -0.0405 N   0  0  0  0  0  0  0  0  0  0  0  0
   -0.4998   -2.6255   -0.1446 N   0  0  0  0  0  0  0  0  0  0  0  0
    0.1214   -1.4588    0.2153 C   0  0  0  0  0  0  0  0  0  0  0  0
   -1.7669   -2.3089   -0.2905 C   0  0  0  0  0  0  0  0  0  0  0  0
   -0.5622    1.0426    0.6032 C   0  0  0  0  0  0  0  0  0  0  0  0
   -0.6169    1.9144   -0.6524 C   0  0  0  0  0  0  0  0  0  0  0  0
   -3.2645   -0.3761   -0.1251 C   0  0  0  0  0  0  0  0  0  0  0  0
   -2.8861   -3.1076   -0.6521 C   0  0  0  0  0  0  0  0  0  0  0  0
    1.5458   -1.3876    0.4609 C   0  0  0  0  0  0  0  0  0  0  0  0
   -4.3267   -1.1316   -0.4649 C   0  0  0  0  0  0  0  0  0  0  0  0
   -4.1093   -2.5507   -0.7365 C   0  0  0  0  0  0  0  0  0  0  0  0
   -0.0273    3.1780   -0.5728 N   0  0  0  0  0  0  0  0  0  0  0  0
   -1.2021    1.5439   -1.6728 O   0  0  0  0  0  0  0  0  0  0  0  0
    2.0333   -1.1679    1.7546 C   0  0  0  0  0  0  0  0  0  0  0  0
    2.4465   -1.5579   -0.5936 C   0  0  0  0  0  0  0  0  0  0  0  0
    3.4105   -1.1043    1.9879 C   0  0  0  0  0  0  0  0  0  0  0  0
    3.8240   -1.4894   -0.3625 C   0  0  0  0  0  0  0  0  0  0  0  0
    4.3153   -1.2721    0.9310 C   0  0  0  0  0  0  0  0  0  0  0  0
   -5.7156   -0.5955   -0.6022 C   0  0  0  0  0  0  0  0  0  0  0  0
    0.0928    3.9602   -1.7937 C   0  0  0  0  0  0  0  0  0  0  0  0
    0.7753    3.6185    0.5533 C   0  0  0  0  0  0  0  0  0  0  0  0
    5.7928   -1.1803    1.1740 C   0  0  0  0  0  0  0  0  0  0  0  0
   -1.9403    0.6558    1.6162 O   0  0  0  0  0  0  0  0  0  0  0  0
   -1.9211    1.3261   -0.5203 O   0  0  0  0  0  0  0  0  0  0  0  0
    1.2048    1.6296   -0.0206 O   0  0  0  0  0  0  0  0  0  0  0  0
    2.7227    0.0764   -0.5303 O   0  0  0  0  0  0  0  0  0  0  0  0
    0.0100   -1.1076    1.3249 O   0  0  0  0  0  0  0  0  0  0  0  0
    0.8566   -1.6851   -1.4908 O   0  0  0  0  0  0  0  0  0  0  0  0
   -1.5307    0.5397    0.3252 C   0  0  0  0  0  0  0  0  0  0  0  0
   -0.6355   -0.6791    0.1197 C   0  0  1  0  0  0  0  0  0  0  0  0
    0.3805   -0.4199   -0.9915 C   0  0  1  0  0  0  0  0  0  0  0  0
    1.5474    0.4194   -0.4937 C   0  0  0  0  0  0  0  0  0  0  0  0
   -0.8261    0.4080    2.5351 H   0  0  0  0  0  0  0  0  0  0  0  0
   -0.2790   -1.0430    1.7701 H   0  0  0  0  0  0  0  0  0  0  0  0
   -1.6394    2.5934    1.9230 H   0  0  0  0  0  0  0  0  0  0  0  0
    1.3489    4.2696   -1.6810 H   0  0  0  0  0  0  0  0  0  0  0  0
   -0.1540    5.8245   -0.5165 H   0  0  0  0  0  0  0  0  0  0  0  0
    2.1570   -1.1938    1.6085 H   0  0  0  0  0  0  0  0  0  0  0  0
    1.5026   -0.7242   -2.6202 H   0  0  0  0  0  0  0  0  0  0  0  0
    3.2280   -3.3672    1.2083 H   0  0  0  0  0  0  0  0  0  0  0  0
    2.5680   -2.9083   -3.0315 H   0  0  0  0  0  0  0  0  0  0  0  0
   -1.3109    6.1174    1.9435 H   0  0  0  0  0  0  0  0  0  0  0  0
   -2.5860    5.7722    0.7597 H   0  0  0  0  0  0  0  0  0  0  0  0
   -2.5192    4.8647    2.2711 H   0  0  0  0  0  0  0  0  0  0  0  0
   -1.9935   -3.3234   -0.3973 H   0  0  0  0  0  0  0  0  0  0  0  0
   -0.6807   -2.4955    0.4376 H   0  0  0  0  0  0  0  0  0  0  0  0
   -1.1789   -1.9441   -1.1842 H   0  0  0  0  0  0  0  0  0  0  0  0
   -3.7958   -1.2128   -1.2937 H   0  0  0  0  0  0  0  0  0  0  0  0
   -4.1990   -2.5566   -0.1806 H   0  0  0  0  0  0  0  0  0  0  0  0
   -4.5641   -0.8826    0.2868 H   0  0  0  0  0  0  0  0  0  0  0  0
    3.1809   -5.1547   -2.0265 H   0  0  0  0  0  0  0  0  0  0  0  0
    4.6897   -4.4318   -1.4157 H   0  0  0  0  0  0  0  0  0  0  0  0
    3.5841   -5.2717   -0.3098 H   0  0  0  0  0  0  0  0  0  0  0  0
    0.4116    1.1555    1.0858 H   0  0  0  0  0  0  0  0  0  0  0  0
   -1.3220    1.4010    1.3050 H   0  0  0  0  0  0  0  0  0  0  0  0
   -3.3372    0.6863    0.0699 H   0  0  0  0  0  0  0  0  0  0  0  0
   -2.7212   -4.1610   -0.8522 H   0  0  0  0  0  0  0  0  0  0  0  0
   -4.9626   -3.1616   -1.0196 H   0  0  0  0  0  0  0  0  0  0  0  0
    1.3426   -1.0583    2.5872 H   0  0  0  0  0  0  0  0  0  0  0  0
    2.0775   -1.7456   -1.5996 H   0  0  0  0  0  0  0  0  0  0  0  0
    3.7710   -0.9319    3.0018 H   0  0  0  0  0  0  0  0  0  0  0  0
    4.5091   -1.6244   -1.1958 H   0  0  0  0  0  0  0  0  0  0  0  0
   -5.7556    0.4802   -0.3996 H   0  0  0  0  0  0  0  0  0  0  0  0
   -6.0963   -0.7521   -1.6164 H   0  0  0  0  0  0  0  0  0  0  0  0
   -6.3890   -1.0928    0.1038 H   0  0  0  0  0  0  0  0  0  0  0  0
   -0.6121    3.6381   -2.5612 H   0  0  0  0  0  0  0  0  0  0  0  0
    1.1097    3.8468   -2.1790 H   0  0  0  0  0  0  0  0  0  0  0  0
   -0.1049    5.0126   -1.5684 H   0  0  0  0  0  0  0  0  0  0  0  0
    0.3403    3.2863    1.4983 H   0  0  0  0  0  0  0  0  0  0  0  0
    0.8244    4.7116    0.5692 H   0  0  0  0  0  0  0  0  0  0  0  0
    1.7828    3.2072    0.4466 H   0  0  0  0  0  0  0  0  0  0  0  0
    6.1380   -0.1581    0.9873 H   0  0  0  0  0  0  0  0  0  0  0  0
    6.0445   -1.4537    2.2053 H   0  0  0  0  0  0  0  0  0  0  0  0
    6.3376   -1.8688    0.5179 H   0  0  0  0  0  0  0  0  0  0  0  0
   -2.4927    1.4693    1.6151 H   0  0  0  0  0  0  0  0  0  0  0  0
    2.0637    2.0301    0.2494 H   0  0  0  0  0  0  0  0  0  0  0  0
   -0.6832   -1.0729    2.0167 H   0  0  0  0  0  0  0  0  0  0  0  0
    1.7872   -1.7760   -1.1934 H   0  0  0  0  0  0  0  0  0  0  0  0
   -1.2998   -1.4987   -0.1778 H   0  0  0  0  0  0  0  0  0  0  0  0
   -0.0694    0.0929   -1.8487 H   0  0  0  0  0  0  0  0  0  0  0  0
 10  4  1  0
 11  8  2  0
 12 11  1  0
 13  7  1  0
 14  7  2  0
 15 10  2  0
 16 10  1  0
 17 15  1  0
 18 16  2  0
 19 18  1  0
 20 11  1  0
 21 13  1  0
 22 13  1  0
 23 19  1  0
  3  5  2  0
  9 12  2  0
 17 19  2  0
  2  1  1  0
  3  4  1  0
  4  1  2  0
  5  2  1  0
  6  1  1  0
  7  6  1  0
  8  2  1  0
  9  5  1  0
 33 27  1  0
 34 31  2  0
 35 34  1  0
 36 30  1  0
 37 30  2  0
 38 33  2  0
 39 33  1  0
 40 38  1  0
 41 39  2  0
 42 41  1  0
 43 34  1  0
 44 36  1  0
 45 36  1  0
 46 42  1  0
 26 28  2  0
 32 35  2  0
 40 42  2  0
 25 24  1  0
 26 27  1  0
 27 24  2  0
 28 25  1  0
 29 24  1  0
 30 29  1  0
 31 25  1  0
 32 28  1  0
 53 48  2  0
 54 51  1  0
 55 52  1  0
 53 47  1  0
 55 56  1  0
 54 55  1  0
 56 49  1  0
 53 54  1  0
 56 50  2  0
  6 57  1  0
  6 58  1  0
  8 59  1  0
  9 60  1  0
 12 61  1  0
 15 62  1  0
 16 63  1  0
 17 64  1  0
 18 65  1  0
 20 66  1  0
 20 67  1  0
 20 68  1  0
 21 69  1  0
 21 70  1  0
 21 71  1  0
 22 72  1  0
 22 73  1  0
 22 74  1  0
 23 75  1  0
 23 76  1  0
 23 77  1  0
 29 78  1  0
 29 79  1  0
 31 80  1  0
 32 81  1  0
 35 82  1  0
 38 83  1  0
 39 84  1  0
 40 85  1  0
 41 86  1  0
 43 87  1  0
 43 88  1  0
 43 89  1  0
 44 90  1  0
 44 91  1  0
 44 92  1  0
 45 93  1  0
 45 94  1  0
 45 95  1  0
 46 96  1  0
 46 97  1  0
 46 98  1  0
 47 99  1  0
 49100  1  0
 51101  1  0
 52102  1  0
 54103  1  6
 55104  1  6
M  END
$$$$
