
     RDKit          3D

110109  0  0  0  0  0  0  0  0999 V2000
   44.7608   12.6009    8.1954 C   0  0  0  0  0  0  0  0  0  0  0  0
   42.2516   11.0977   10.6686 C   0  0  0  0  0  0  0  0  0  0  0  0
   44.0172   11.6647    9.0430 C   0  0  0  0  0  0  0  0  0  0  0  0
   42.9928   12.0377    9.8223 C   0  0  0  0  0  0  0  0  0  0  0  0
   45.6793   12.2839    7.4615 O   0  0  0  0  0  0  0  0  0  0  0  0
   41.3105   11.4054   11.3772 O   0  0  0  0  0  0  0  0  0  0  0  0
   42.6904    9.8328   10.5924 O   0  0  0  0  0  0  0  0  0  0  0  0
   44.3352   13.8693    8.2824 O   0  0  0  0  0  0  0  0  0  0  0  0
   47.4601   13.4177   10.3685 C   0  0  0  0  0  0  0  0  0  0  0  0
   46.8175   12.4736   11.1445 C   0  0  0  0  0  0  0  0  0  0  0  0
   45.7081   11.8001   10.7595 N   0  0  0  0  0  0  0  0  0  0  0  0
   45.1655   12.0666    9.5469 C   0  0  0  0  0  0  0  0  0  0  0  0
   45.7863   12.9869    8.7019 C   0  0  0  0  0  0  0  0  0  0  0  0
   46.9335   13.6685    9.1149 C   0  0  0  0  0  0  0  0  0  0  0  0
   44.0136   11.3731    9.1439 N   0  0  0  0  0  0  0  0  0  0  0  0
   42.9039   12.1958    8.6263 C   0  0  0  0  0  0  0  0  0  0  0  0
   43.6123   10.2722   10.0410 C   0  0  0  0  0  0  0  0  0  0  0  0
   42.9016   10.7150   11.3490 C   0  0  0  0  0  0  0  0  0  0  0  0
   41.4645   11.0594   11.2122 N   0  0  0  0  0  0  0  0  0  0  0  0
   41.0069   11.7573   12.4181 C   0  0  0  0  0  0  0  0  0  0  0  0
   40.6472    9.8626   10.9996 C   0  0  0  0  0  0  0  0  0  0  0  0
   42.9394   12.5047    7.1487 C   0  0  0  0  0  0  0  0  0  0  0  0
   43.3152   11.6859    6.1019 C   0  0  0  0  0  0  0  0  0  0  0  0
   43.2204   12.3279    4.8367 C   0  0  0  0  0  0  0  0  0  0  0  0
   42.7579   13.6198    4.9538 C   0  0  0  0  0  0  0  0  0  0  0  0
   42.4412   14.0478    6.5797 S   0  0  0  0  0  0  0  0  0  0  0  0
   42.7486   12.1543    9.6206 N   0  0  0  0  0  0  0  0  0  0  0  0
   41.3685   12.2724    9.4754 C   0  0  0  0  0  0  0  0  0  0  0  0
   43.7435   10.4447   11.1807 C   0  0  0  0  0  0  0  0  0  0  0  0
   45.2113   10.1987   12.0280 S   0  0  0  0  0  0  0  0  0  0  0  0
   43.1846   11.8335   10.9924 C   0  0  0  0  0  0  0  0  0  0  0  0
   40.5897   11.5105   10.2731 N   0  0  0  0  0  0  0  0  0  0  0  0
   45.1191    8.5048   11.8203 C   0  0  0  0  0  0  0  0  0  0  0  0
   43.1914    9.2465   10.7742 C   0  0  0  0  0  0  0  0  0  0  0  0
   43.6745   12.9143    8.7632 C   0  0  0  0  0  0  0  0  0  0  0  0
   43.9851    8.1242   11.1359 C   0  0  0  0  0  0  0  0  0  0  0  0
   45.9923   12.9739    7.7335 N   0  0  0  0  0  0  0  0  0  0  0  0
   45.0705   12.2534    8.6437 C   0  0  0  0  0  0  0  0  0  0  0  0
   40.7646   13.1211    8.5464 C   0  0  0  0  0  0  0  0  0  0  0  0
   39.2424   11.5871   10.1613 C   0  0  0  0  0  0  0  0  0  0  0  0
   46.4584   14.2261    8.3407 C   0  0  0  0  0  0  0  0  0  0  0  0
   47.1465   12.1182    7.4304 C   0  0  0  0  0  0  0  0  0  0  0  0
   39.3699   13.1973    8.4473 C   0  0  0  0  0  0  0  0  0  0  0  0
   38.5898   12.4105    9.2759 C   0  0  0  0  0  0  0  0  0  0  0  0
   42.7411   10.4625   10.6139 C   0  0  0  0  0  0  0  0  0  0  0  0
   44.4881   12.8315    8.2117 C   0  0  0  0  0  0  0  0  0  0  0  0
   43.6325   11.0527    9.6097 C   0  0  0  0  0  0  0  0  0  0  0  0
   43.5477   12.3304    9.2166 C   0  0  0  0  0  0  0  0  0  0  0  0
   42.7904    9.3038   10.9843 O   0  0  0  0  0  0  0  0  0  0  0  0
   45.3801   12.2179    7.6604 O   0  0  0  0  0  0  0  0  0  0  0  0
   44.2416   14.1257    7.9544 O   0  0  0  0  0  0  0  0  0  0  0  0
   41.8220   11.3171   11.0897 O   0  0  0  0  0  0  0  0  0  0  0  0
   44.6895   12.7879    8.3699 C   0  0  0  0  0  0  0  0  0  0  0  0
   42.5312   10.5072   10.5022 C   0  0  0  0  0  0  0  0  0  0  0  0
   43.5957   12.3252    9.2243 C   0  0  0  0  0  0  0  0  0  0  0  0
   43.5859   11.0529    9.6432 C   0  0  0  0  0  0  0  0  0  0  0  0
   45.6417   12.1412    7.9776 O   0  0  0  0  0  0  0  0  0  0  0  0
   42.5003    9.3594   10.9071 O   0  0  0  0  0  0  0  0  0  0  0  0
   41.5671   11.3889   10.8074 O   0  0  0  0  0  0  0  0  0  0  0  0
   44.5195   14.0807    8.0511 O   0  0  0  0  0  0  0  0  0  0  0  0
   44.3559   10.6368    8.9830 H   0  0  0  0  0  0  0  0  0  0  0  0
   42.6567   13.0656    9.8897 H   0  0  0  0  0  0  0  0  0  0  0  0
   42.0926    9.3464   11.1981 H   0  0  0  0  0  0  0  0  0  0  0  0
   44.9197   14.3553    7.6639 H   0  0  0  0  0  0  0  0  0  0  0  0
   48.3447   13.9310   10.7249 H   0  0  0  0  0  0  0  0  0  0  0  0
   47.1915   12.2295   12.1353 H   0  0  0  0  0  0  0  0  0  0  0  0
   45.4049   13.1779    7.7015 H   0  0  0  0  0  0  0  0  0  0  0  0
   47.4072   14.3813    8.4480 H   0  0  0  0  0  0  0  0  0  0  0  0
   42.8067   13.1092    9.2227 H   0  0  0  0  0  0  0  0  0  0  0  0
   41.9571   11.6584    8.7651 H   0  0  0  0  0  0  0  0  0  0  0  0
   44.4903    9.6620   10.2978 H   0  0  0  0  0  0  0  0  0  0  0  0
   42.9725    9.5866    9.4743 H   0  0  0  0  0  0  0  0  0  0  0  0
   43.4252   11.5812   11.7670 H   0  0  0  0  0  0  0  0  0  0  0  0
   43.0063    9.9095   12.0875 H   0  0  0  0  0  0  0  0  0  0  0  0
   39.9513   12.0309   12.3262 H   0  0  0  0  0  0  0  0  0  0  0  0
   41.1207   11.1452   13.3210 H   0  0  0  0  0  0  0  0  0  0  0  0
   41.5547   12.6963   12.5562 H   0  0  0  0  0  0  0  0  0  0  0  0
   40.9019    9.3617   10.0624 H   0  0  0  0  0  0  0  0  0  0  0  0
   40.7540    9.1393   11.8155 H   0  0  0  0  0  0  0  0  0  0  0  0
   39.5895   10.1333   10.9199 H   0  0  0  0  0  0  0  0  0  0  0  0
   43.6559   10.6708    6.2484 H   0  0  0  0  0  0  0  0  0  0  0  0
   43.4769   11.8704    3.8888 H   0  0  0  0  0  0  0  0  0  0  0  0
   42.5873   14.3302    4.1535 H   0  0  0  0  0  0  0  0  0  0  0  0
   42.3752   11.9686   11.7231 H   0  0  0  0  0  0  0  0  0  0  0  0
   43.9331   12.5786   11.2986 H   0  0  0  0  0  0  0  0  0  0  0  0
   45.8952    7.8660   12.2137 H   0  0  0  0  0  0  0  0  0  0  0  0
   42.2541    9.1901   10.2301 H   0  0  0  0  0  0  0  0  0  0  0  0
   43.2879   12.9718    7.7384 H   0  0  0  0  0  0  0  0  0  0  0  0
   43.7513   13.9376    9.1492 H   0  0  0  0  0  0  0  0  0  0  0  0
   43.7345    7.0942   10.9109 H   0  0  0  0  0  0  0  0  0  0  0  0
   44.9067   11.2382    8.2585 H   0  0  0  0  0  0  0  0  0  0  0  0
   45.5391   12.1461    9.6298 H   0  0  0  0  0  0  0  0  0  0  0  0
   41.3467   13.7528    7.8836 H   0  0  0  0  0  0  0  0  0  0  0  0
   38.6914   10.9366   10.8455 H   0  0  0  0  0  0  0  0  0  0  0  0
   45.6283   14.9260    8.5102 H   0  0  0  0  0  0  0  0  0  0  0  0
   46.9668   14.0501    9.2997 H   0  0  0  0  0  0  0  0  0  0  0  0
   47.1594   14.7336    7.6685 H   0  0  0  0  0  0  0  0  0  0  0  0
   47.6957   11.8202    8.3339 H   0  0  0  0  0  0  0  0  0  0  0  0
   46.8201   11.2120    6.9029 H   0  0  0  0  0  0  0  0  0  0  0  0
   47.8426   12.6361    6.7626 H   0  0  0  0  0  0  0  0  0  0  0  0
   38.9078   13.8640    7.7327 H   0  0  0  0  0  0  0  0  0  0  0  0
   37.5064   12.4258    9.2287 H   0  0  0  0  0  0  0  0  0  0  0  0
   44.3826   10.3769    9.2112 H   0  0  0  0  0  0  0  0  0  0  0  0
   42.8174   13.0260    9.6126 H   0  0  0  0  0  0  0  0  0  0  0  0
   44.9152   14.3729    7.2878 H   0  0  0  0  0  0  0  0  0  0  0  0
   41.3043   10.7793   11.7250 H   0  0  0  0  0  0  0  0  0  0  0  0
   42.8278   13.0413    9.4838 H   0  0  0  0  0  0  0  0  0  0  0  0
   44.3701   10.3530    9.3732 H   0  0  0  0  0  0  0  0  0  0  0  0
   40.9442   10.8696   11.3572 H   0  0  0  0  0  0  0  0  0  0  0  0
   45.2896   14.2893    7.4803 H   0  0  0  0  0  0  0  0  0  0  0  0
  2  4  1  0
  3  1  1  0
  4  3  2  0
  5  1  2  0
  6  2  2  0
  7  2  1  0
  8  1  1  0
 15 17  1  0
 12 15  1  0
 17 18  1  0
 11 12  1  0
 18 19  1  0
 15 16  1  0
 19 20  1  0
 19 21  1  0
 16 22  1  0
 23 24  1  0
 12 13  2  0
 10 11  2  0
 13 14  1  0
 22 23  2  0
 24 25  2  0
 25 26  1  0
 26 22  1  0
 14  9  2  0
  9 10  1  0
 28 27  1  0
 29 31  1  0
 30 29  1  0
 31 27  1  0
 32 28  2  0
 33 30  1  0
 34 29  2  0
 35 27  1  0
 36 34  1  0
 37 38  1  0
 38 35  1  0
 39 28  1  0
 40 32  1  0
 41 37  1  0
 42 37  1  0
 43 39  2  0
 44 40  2  0
 36 33  2  0
 43 44  1  0
 46 48  1  0
 47 45  1  0
 48 47  2  0
 49 45  2  0
 50 46  2  0
 51 46  1  0
 52 45  1  0
 54 56  1  0
 55 53  1  0
 56 55  2  0
 57 53  2  0
 58 54  2  0
 59 54  1  0
 60 53  1  0
  3 61  1  0
  4 62  1  0
  7 63  1  0
  8 64  1  0
  9 65  1  0
 10 66  1  0
 13 67  1  0
 14 68  1  0
 16 69  1  0
 16 70  1  0
 17 71  1  0
 17 72  1  0
 18 73  1  0
 18 74  1  0
 20 75  1  0
 20 76  1  0
 20 77  1  0
 21 78  1  0
 21 79  1  0
 21 80  1  0
 23 81  1  0
 24 82  1  0
 25 83  1  0
 31 84  1  0
 31 85  1  0
 33 86  1  0
 34 87  1  0
 35 88  1  0
 35 89  1  0
 36 90  1  0
 38 91  1  0
 38 92  1  0
 39 93  1  0
 40 94  1  0
 41 95  1  0
 41 96  1  0
 41 97  1  0
 42 98  1  0
 42 99  1  0
 42100  1  0
 43101  1  0
 44102  1  0
 47103  1  0
 48104  1  0
 51105  1  0
 52106  1  0
 55107  1  0
 56108  1  0
 59109  1  0
 60110  1  0
M  END
> <Uni-Dock RESULT> 
ENERGY=   -6.219  LOWER_BOUND=    0.000  UPPER_BOUND=    0.000
INTER + INTRA:          -6.219
INTER:                  -6.219
INTRA:                   0.000
UNBOUND:                 0.000

$$$$

     RDKit          3D

110109  0  0  0  0  0  0  0  0999 V2000
   48.3740    5.5287   18.2513 C   0  0  0  0  0  0  0  0  0  0  0  0
   49.0565    9.2414   17.6008 C   0  0  0  0  0  0  0  0  0  0  0  0
   49.0228    6.7928   17.8919 C   0  0  0  0  0  0  0  0  0  0  0  0
   48.4036    7.9792   17.9612 C   0  0  0  0  0  0  0  0  0  0  0  0
   48.9209    4.4413   18.2195 O   0  0  0  0  0  0  0  0  0  0  0  0
   48.5233   10.3341   17.6646 O   0  0  0  0  0  0  0  0  0  0  0  0
   50.3274    9.1017   17.1964 O   0  0  0  0  0  0  0  0  0  0  0  0
   47.0979    5.6635   18.6399 O   0  0  0  0  0  0  0  0  0  0  0  0
   47.2282    4.4711   15.0506 C   0  0  0  0  0  0  0  0  0  0  0  0
   47.9087    5.6154   14.6849 C   0  0  0  0  0  0  0  0  0  0  0  0
   48.5818    6.4094   15.5504 N   0  0  0  0  0  0  0  0  0  0  0  0
   48.5858    6.0904   16.8673 C   0  0  0  0  0  0  0  0  0  0  0  0
   47.9437    4.9286   17.2964 C   0  0  0  0  0  0  0  0  0  0  0  0
   47.2585    4.1190   16.3874 C   0  0  0  0  0  0  0  0  0  0  0  0
   49.2798    6.9118   17.7695 N   0  0  0  0  0  0  0  0  0  0  0  0
   48.5382    7.3313   18.9738 C   0  0  0  0  0  0  0  0  0  0  0  0
   50.0983    7.9654   17.1387 C   0  0  0  0  0  0  0  0  0  0  0  0
   49.3024    9.1926   16.6163 C   0  0  0  0  0  0  0  0  0  0  0  0
   48.9085   10.1862   17.6460 N   0  0  0  0  0  0  0  0  0  0  0  0
   47.9076   11.1028   17.0905 C   0  0  0  0  0  0  0  0  0  0  0  0
   50.0646   10.9516   18.1183 C   0  0  0  0  0  0  0  0  0  0  0  0
   48.6043    6.3927   20.1548 C   0  0  0  0  0  0  0  0  0  0  0  0
   49.6777    5.6565   20.6165 C   0  0  0  0  0  0  0  0  0  0  0  0
   49.3609    4.8769   21.7627 C   0  0  0  0  0  0  0  0  0  0  0  0
   48.0522    5.0535   22.1537 C   0  0  0  0  0  0  0  0  0  0  0  0
   47.2186    6.1535   21.1426 S   0  0  0  0  0  0  0  0  0  0  0  0
   48.3243    8.0339   18.2846 N   0  0  0  0  0  0  0  0  0  0  0  0
   48.1550    9.0225   19.2509 C   0  0  0  0  0  0  0  0  0  0  0  0
   49.6604    8.4815   16.1964 C   0  0  0  0  0  0  0  0  0  0  0  0
   49.7869    7.8520   14.6087 S   0  0  0  0  0  0  0  0  0  0  0  0
   48.3266    8.5399   16.8994 C   0  0  0  0  0  0  0  0  0  0  0  0
   48.6452   10.2511   18.9791 N   0  0  0  0  0  0  0  0  0  0  0  0
   51.4702    8.1439   14.5607 C   0  0  0  0  0  0  0  0  0  0  0  0
   50.8829    8.9254   16.6595 C   0  0  0  0  0  0  0  0  0  0  0  0
   47.8603    6.6548   18.5138 C   0  0  0  0  0  0  0  0  0  0  0  0
   51.9317    8.7270   15.7209 C   0  0  0  0  0  0  0  0  0  0  0  0
   48.2074    4.2113   17.9261 N   0  0  0  0  0  0  0  0  0  0  0  0
   48.6205    5.6097   17.6594 C   0  0  0  0  0  0  0  0  0  0  0  0
   47.5224    8.7990   20.4747 C   0  0  0  0  0  0  0  0  0  0  0  0
   48.5101   11.2412   19.8929 C   0  0  0  0  0  0  0  0  0  0  0  0
   46.8779    3.9403   17.3668 C   0  0  0  0  0  0  0  0  0  0  0  0
   49.1852    3.2917   17.3307 C   0  0  0  0  0  0  0  0  0  0  0  0
   47.3814    9.8341   21.4072 C   0  0  0  0  0  0  0  0  0  0  0  0
   47.8880   11.0864   21.1082 C   0  0  0  0  0  0  0  0  0  0  0  0
   49.7164    8.9482   17.2478 C   0  0  0  0  0  0  0  0  0  0  0  0
   48.1291    5.7086   18.4397 C   0  0  0  0  0  0  0  0  0  0  0  0
   49.4505    7.5459   17.5858 C   0  0  0  0  0  0  0  0  0  0  0  0
   48.3055    7.1323   18.1447 C   0  0  0  0  0  0  0  0  0  0  0  0
   50.7495    9.3530   16.7468 O   0  0  0  0  0  0  0  0  0  0  0  0
   48.9164    4.8063   18.2346 O   0  0  0  0  0  0  0  0  0  0  0  0
   46.9243    5.4982   18.9929 O   0  0  0  0  0  0  0  0  0  0  0  0
   48.7128    9.7805   17.5660 O   0  0  0  0  0  0  0  0  0  0  0  0
   48.1456    5.6483   18.1875 C   0  0  0  0  0  0  0  0  0  0  0  0
   49.6868    9.0416   17.4689 C   0  0  0  0  0  0  0  0  0  0  0  0
   48.3118    7.0997   18.1089 C   0  0  0  0  0  0  0  0  0  0  0  0
   49.4390    7.6020   17.5879 C   0  0  0  0  0  0  0  0  0  0  0  0
   48.9299    4.7961   17.8166 O   0  0  0  0  0  0  0  0  0  0  0  0
   50.6957    9.5278   16.9912 O   0  0  0  0  0  0  0  0  0  0  0  0
   48.6959    9.8064   17.9519 O   0  0  0  0  0  0  0  0  0  0  0  0
   46.9622    5.3421   18.7422 O   0  0  0  0  0  0  0  0  0  0  0  0
   50.0539    6.6946   17.5726 H   0  0  0  0  0  0  0  0  0  0  0  0
   47.3708    8.0796   18.2732 H   0  0  0  0  0  0  0  0  0  0  0  0
   50.6101   10.0212   17.0083 H   0  0  0  0  0  0  0  0  0  0  0  0
   46.8179    4.7472   18.8459 H   0  0  0  0  0  0  0  0  0  0  0  0
   46.7023    3.8712   14.3182 H   0  0  0  0  0  0  0  0  0  0  0  0
   47.9264    5.9363   13.6467 H   0  0  0  0  0  0  0  0  0  0  0  0
   47.9793    4.6185   18.3383 H   0  0  0  0  0  0  0  0  0  0  0  0
   46.7637    3.2177   16.7337 H   0  0  0  0  0  0  0  0  0  0  0  0
   47.5020    7.5687   18.7102 H   0  0  0  0  0  0  0  0  0  0  0  0
   48.9618    8.2698   19.3533 H   0  0  0  0  0  0  0  0  0  0  0  0
   50.6831    7.5377   16.3115 H   0  0  0  0  0  0  0  0  0  0  0  0
   50.8584    8.2846   17.8604 H   0  0  0  0  0  0  0  0  0  0  0  0
   48.3965    8.8441   16.1094 H   0  0  0  0  0  0  0  0  0  0  0  0
   49.9072    9.6944   15.8498 H   0  0  0  0  0  0  0  0  0  0  0  0
   47.5963   11.8334   17.8434 H   0  0  0  0  0  0  0  0  0  0  0  0
   48.2857   11.6532   16.2205 H   0  0  0  0  0  0  0  0  0  0  0  0
   47.0015   10.5599   16.7989 H   0  0  0  0  0  0  0  0  0  0  0  0
   50.7957   10.3111   18.6175 H   0  0  0  0  0  0  0  0  0  0  0  0
   50.5711   11.4799   17.3029 H   0  0  0  0  0  0  0  0  0  0  0  0
   49.7528   11.6915   18.8624 H   0  0  0  0  0  0  0  0  0  0  0  0
   50.6460    5.6727   20.1367 H   0  0  0  0  0  0  0  0  0  0  0  0
   50.0527    4.2201   22.2760 H   0  0  0  0  0  0  0  0  0  0  0  0
   47.5502    4.5875   22.9933 H   0  0  0  0  0  0  0  0  0  0  0  0
   47.9636    9.5751   16.8392 H   0  0  0  0  0  0  0  0  0  0  0  0
   47.5800    7.9728   16.3248 H   0  0  0  0  0  0  0  0  0  0  0  0
   52.0425    7.8812   13.6840 H   0  0  0  0  0  0  0  0  0  0  0  0
   51.0094    9.3682   17.6422 H   0  0  0  0  0  0  0  0  0  0  0  0
   48.0307    6.3615   19.5569 H   0  0  0  0  0  0  0  0  0  0  0  0
   46.7809    6.6113   18.3267 H   0  0  0  0  0  0  0  0  0  0  0  0
   52.9667    9.0022   15.8864 H   0  0  0  0  0  0  0  0  0  0  0  0
   49.6861    5.7212   17.8998 H   0  0  0  0  0  0  0  0  0  0  0  0
   48.5132    5.8256   16.5892 H   0  0  0  0  0  0  0  0  0  0  0  0
   47.1121    7.8302   20.7397 H   0  0  0  0  0  0  0  0  0  0  0  0
   48.9352   12.2014   19.5896 H   0  0  0  0  0  0  0  0  0  0  0  0
   46.1048    4.5568   17.8461 H   0  0  0  0  0  0  0  0  0  0  0  0
   46.8462    4.1226   16.2829 H   0  0  0  0  0  0  0  0  0  0  0  0
   46.5980    2.8964   17.5477 H   0  0  0  0  0  0  0  0  0  0  0  0
   49.2879    3.4341   16.2463 H   0  0  0  0  0  0  0  0  0  0  0  0
   50.1697    3.4287   17.7977 H   0  0  0  0  0  0  0  0  0  0  0  0
   48.8937    2.2522   17.5127 H   0  0  0  0  0  0  0  0  0  0  0  0
   46.8816    9.6574   22.3493 H   0  0  0  0  0  0  0  0  0  0  0  0
   47.8136   11.9163   21.8024 H   0  0  0  0  0  0  0  0  0  0  0  0
   50.2511    6.8563   17.3374 H   0  0  0  0  0  0  0  0  0  0  0  0
   47.4876    7.8008   18.3862 H   0  0  0  0  0  0  0  0  0  0  0  0
   46.8929    4.5313   19.1450 H   0  0  0  0  0  0  0  0  0  0  0  0
   49.0432   10.6637   17.2984 H   0  0  0  0  0  0  0  0  0  0  0  0
   47.5051    7.7155   18.4829 H   0  0  0  0  0  0  0  0  0  0  0  0
   50.2336    6.9641   17.2147 H   0  0  0  0  0  0  0  0  0  0  0  0
   49.0224   10.7203   17.8176 H   0  0  0  0  0  0  0  0  0  0  0  0
   46.9511    4.3613   18.7552 H   0  0  0  0  0  0  0  0  0  0  0  0
  2  4  1  0
  3  1  1  0
  4  3  2  0
  5  1  2  0
  6  2  2  0
  7  2  1  0
  8  1  1  0
 15 17  1  0
 12 15  1  0
 17 18  1  0
 11 12  1  0
 18 19  1  0
 15 16  1  0
 19 20  1  0
 19 21  1  0
 16 22  1  0
 23 24  1  0
 12 13  2  0
 10 11  2  0
 13 14  1  0
 22 23  2  0
 24 25  2  0
 25 26  1  0
 26 22  1  0
 14  9  2  0
  9 10  1  0
 28 27  1  0
 29 31  1  0
 30 29  1  0
 31 27  1  0
 32 28  2  0
 33 30  1  0
 34 29  2  0
 35 27  1  0
 36 34  1  0
 37 38  1  0
 38 35  1  0
 39 28  1  0
 40 32  1  0
 41 37  1  0
 42 37  1  0
 43 39  2  0
 44 40  2  0
 36 33  2  0
 43 44  1  0
 46 48  1  0
 47 45  1  0
 48 47  2  0
 49 45  2  0
 50 46  2  0
 51 46  1  0
 52 45  1  0
 54 56  1  0
 55 53  1  0
 56 55  2  0
 57 53  2  0
 58 54  2  0
 59 54  1  0
 60 53  1  0
  3 61  1  0
  4 62  1  0
  7 63  1  0
  8 64  1  0
  9 65  1  0
 10 66  1  0
 13 67  1  0
 14 68  1  0
 16 69  1  0
 16 70  1  0
 17 71  1  0
 17 72  1  0
 18 73  1  0
 18 74  1  0
 20 75  1  0
 20 76  1  0
 20 77  1  0
 21 78  1  0
 21 79  1  0
 21 80  1  0
 23 81  1  0
 24 82  1  0
 25 83  1  0
 31 84  1  0
 31 85  1  0
 33 86  1  0
 34 87  1  0
 35 88  1  0
 35 89  1  0
 36 90  1  0
 38 91  1  0
 38 92  1  0
 39 93  1  0
 40 94  1  0
 41 95  1  0
 41 96  1  0
 41 97  1  0
 42 98  1  0
 42 99  1  0
 42100  1  0
 43101  1  0
 44102  1  0
 47103  1  0
 48104  1  0
 51105  1  0
 52106  1  0
 55107  1  0
 56108  1  0
 59109  1  0
 60110  1  0
M  END
> <Uni-Dock RESULT> 
ENERGY=   -6.128  LOWER_BOUND=    9.521  UPPER_BOUND=   12.038
INTER + INTRA:          -6.128
INTER:                  -6.128
INTRA:                   0.000
UNBOUND:                 0.000

$$$$

     RDKit          3D

110109  0  0  0  0  0  0  0  0999 V2000
   45.3954   12.9811   11.0000 C   0  0  0  0  0  0  0  0  0  0  0  0
   48.1246   10.5044   12.0437 C   0  0  0  0  0  0  0  0  0  0  0  0
   46.6272   12.1882   11.0418 C   0  0  0  0  0  0  0  0  0  0  0  0
   46.8910   11.2956   12.0059 C   0  0  0  0  0  0  0  0  0  0  0  0
   45.1214   13.7810   10.1237 O   0  0  0  0  0  0  0  0  0  0  0  0
   48.3860    9.6788   12.8996 O   0  0  0  0  0  0  0  0  0  0  0  0
   48.9638   10.7540   11.0280 O   0  0  0  0  0  0  0  0  0  0  0  0
   44.5620   12.7459   12.0236 O   0  0  0  0  0  0  0  0  0  0  0  0
   46.4904   15.9419   12.6464 C   0  0  0  0  0  0  0  0  0  0  0  0
   47.6799   15.2415   12.6172 C   0  0  0  0  0  0  0  0  0  0  0  0
   47.8297   14.0204   12.0524 N   0  0  0  0  0  0  0  0  0  0  0  0
   46.7528   13.4199   11.4905 C   0  0  0  0  0  0  0  0  0  0  0  0
   45.5294   14.0896   11.4589 C   0  0  0  0  0  0  0  0  0  0  0  0
   45.3955   15.3516   12.0425 C   0  0  0  0  0  0  0  0  0  0  0  0
   46.9020   12.1524   10.9061 N   0  0  0  0  0  0  0  0  0  0  0  0
   45.9181   11.1289   11.3067 C   0  0  0  0  0  0  0  0  0  0  0  0
   48.2963   11.6784   10.8112 C   0  0  0  0  0  0  0  0  0  0  0  0
   48.9034   11.1496   12.1394 C   0  0  0  0  0  0  0  0  0  0  0  0
   48.5132    9.7684   12.5169 N   0  0  0  0  0  0  0  0  0  0  0  0
   48.8791    9.5164   13.9146 C   0  0  0  0  0  0  0  0  0  0  0  0
   49.1608    8.7768   11.6550 C   0  0  0  0  0  0  0  0  0  0  0  0
   44.6425   11.0823   10.4999 C   0  0  0  0  0  0  0  0  0  0  0  0
   44.4719   11.2501    9.1397 C   0  0  0  0  0  0  0  0  0  0  0  0
   43.1132   11.1395    8.7354 C   0  0  0  0  0  0  0  0  0  0  0  0
   42.2838   10.8737    9.8023 C   0  0  0  0  0  0  0  0  0  0  0  0
   43.1442   10.7584   11.2766 S   0  0  0  0  0  0  0  0  0  0  0  0
   46.6561   11.0539   11.9879 N   0  0  0  0  0  0  0  0  0  0  0  0
   46.4189    9.6966   12.1908 C   0  0  0  0  0  0  0  0  0  0  0  0
   49.0009   11.9282   11.6984 C   0  0  0  0  0  0  0  0  0  0  0  0
   49.8348   13.4135   11.8755 S   0  0  0  0  0  0  0  0  0  0  0  0
   47.8811   11.5550   12.6383 C   0  0  0  0  0  0  0  0  0  0  0  0
   47.4927    8.8891   12.3269 N   0  0  0  0  0  0  0  0  0  0  0  0
   50.8577   13.0682   10.5505 C   0  0  0  0  0  0  0  0  0  0  0  0
   49.5199   11.1817   10.6595 C   0  0  0  0  0  0  0  0  0  0  0  0
   45.5462   12.0011   11.7859 C   0  0  0  0  0  0  0  0  0  0  0  0
   50.5880   11.8384    9.9901 C   0  0  0  0  0  0  0  0  0  0  0  0
   44.8497   14.2092   10.7489 N   0  0  0  0  0  0  0  0  0  0  0  0
   45.9702   13.2760   11.0145 C   0  0  0  0  0  0  0  0  0  0  0  0
   45.1398    9.1410   12.2455 C   0  0  0  0  0  0  0  0  0  0  0  0
   47.3096    7.5612   12.5183 C   0  0  0  0  0  0  0  0  0  0  0  0
   44.4344   14.8953   11.9779 C   0  0  0  0  0  0  0  0  0  0  0  0
   45.2680   15.2027    9.7517 C   0  0  0  0  0  0  0  0  0  0  0  0
   44.9644    7.7673   12.4529 C   0  0  0  0  0  0  0  0  0  0  0  0
   46.0775    6.9576   12.5929 C   0  0  0  0  0  0  0  0  0  0  0  0
   48.5442   10.8938   11.4795 C   0  0  0  0  0  0  0  0  0  0  0  0
   45.2370   12.7457   11.2175 C   0  0  0  0  0  0  0  0  0  0  0  0
   47.4453   11.7710   11.0617 C   0  0  0  0  0  0  0  0  0  0  0  0
   46.2727   11.8328   11.7065 C   0  0  0  0  0  0  0  0  0  0  0  0
   49.6164   10.8118   10.9088 O   0  0  0  0  0  0  0  0  0  0  0  0
   45.2993   13.4934   10.2619 O   0  0  0  0  0  0  0  0  0  0  0  0
   44.1448   12.6617   11.9933 O   0  0  0  0  0  0  0  0  0  0  0  0
   48.2594   10.1468   12.5576 O   0  0  0  0  0  0  0  0  0  0  0  0
   45.3884   12.9517   11.2639 C   0  0  0  0  0  0  0  0  0  0  0  0
   48.4251   10.6837   11.4674 C   0  0  0  0  0  0  0  0  0  0  0  0
   46.2837   11.8801   11.7004 C   0  0  0  0  0  0  0  0  0  0  0  0
   47.4674   11.7279   11.0924 C   0  0  0  0  0  0  0  0  0  0  0  0
   45.5902   13.7676   10.3850 O   0  0  0  0  0  0  0  0  0  0  0  0
   49.5117   10.5269   10.9409 O   0  0  0  0  0  0  0  0  0  0  0  0
   47.9972    9.8815   12.4541 O   0  0  0  0  0  0  0  0  0  0  0  0
   44.2558   12.9378   11.9841 O   0  0  0  0  0  0  0  0  0  0  0  0
   47.3099   12.3736   10.2206 H   0  0  0  0  0  0  0  0  0  0  0  0
   46.2137   11.1134   12.8318 H   0  0  0  0  0  0  0  0  0  0  0  0
   49.7149   10.1474   11.1974 H   0  0  0  0  0  0  0  0  0  0  0  0
   43.8015   13.3382   11.8472 H   0  0  0  0  0  0  0  0  0  0  0  0
   46.4229   16.9165   13.1140 H   0  0  0  0  0  0  0  0  0  0  0  0
   48.5755   15.6601   13.0687 H   0  0  0  0  0  0  0  0  0  0  0  0
   44.6634   13.6555   10.9644 H   0  0  0  0  0  0  0  0  0  0  0  0
   44.4387   15.8622   12.0106 H   0  0  0  0  0  0  0  0  0  0  0  0
   45.7094   11.2111   12.3787 H   0  0  0  0  0  0  0  0  0  0  0  0
   46.3560   10.1315   11.1735 H   0  0  0  0  0  0  0  0  0  0  0  0
   48.9367   12.4810   10.4177 H   0  0  0  0  0  0  0  0  0  0  0  0
   48.3411   10.9034   10.0379 H   0  0  0  0  0  0  0  0  0  0  0  0
   48.6221   11.8226   12.9561 H   0  0  0  0  0  0  0  0  0  0  0  0
   49.9972   11.2027   12.0632 H   0  0  0  0  0  0  0  0  0  0  0  0
   48.5843    8.5054   14.2123 H   0  0  0  0  0  0  0  0  0  0  0  0
   49.9573    9.6194   14.0868 H   0  0  0  0  0  0  0  0  0  0  0  0
   48.3468   10.1998   14.5858 H   0  0  0  0  0  0  0  0  0  0  0  0
   48.8439    8.8789   10.6142 H   0  0  0  0  0  0  0  0  0  0  0  0
   50.2534    8.8500   11.6901 H   0  0  0  0  0  0  0  0  0  0  0  0
   48.8767    7.7644   11.9596 H   0  0  0  0  0  0  0  0  0  0  0  0
   45.2943   11.4568    8.4696 H   0  0  0  0  0  0  0  0  0  0  0  0
   42.7586   11.2485    7.7177 H   0  0  0  0  0  0  0  0  0  0  0  0
   41.2091   10.7371    9.7791 H   0  0  0  0  0  0  0  0  0  0  0  0
   48.2831   10.8372   13.3666 H   0  0  0  0  0  0  0  0  0  0  0  0
   47.6117   12.4236   13.2566 H   0  0  0  0  0  0  0  0  0  0  0  0
   51.6124   13.7778   10.2472 H   0  0  0  0  0  0  0  0  0  0  0  0
   49.1333   10.2031   10.3935 H   0  0  0  0  0  0  0  0  0  0  0  0
   44.7552   11.5413   11.1811 H   0  0  0  0  0  0  0  0  0  0  0  0
   45.1164   12.2526   12.7627 H   0  0  0  0  0  0  0  0  0  0  0  0
   51.1318   11.4282    9.1473 H   0  0  0  0  0  0  0  0  0  0  0  0
   46.3918   12.9399   10.0579 H   0  0  0  0  0  0  0  0  0  0  0  0
   46.7710   13.8066   11.5444 H   0  0  0  0  0  0  0  0  0  0  0  0
   44.2462    9.7475   12.1419 H   0  0  0  0  0  0  0  0  0  0  0  0
   48.2327    6.9844   12.6185 H   0  0  0  0  0  0  0  0  0  0  0  0
   44.0400   14.1886   12.7213 H   0  0  0  0  0  0  0  0  0  0  0  0
   45.2648   15.4534   12.4343 H   0  0  0  0  0  0  0  0  0  0  0  0
   43.6247   15.6011   11.7611 H   0  0  0  0  0  0  0  0  0  0  0  0
   46.1447   15.7792   10.0771 H   0  0  0  0  0  0  0  0  0  0  0  0
   45.5056   14.7094    8.7997 H   0  0  0  0  0  0  0  0  0  0  0  0
   44.4540   15.9054    9.5461 H   0  0  0  0  0  0  0  0  0  0  0  0
   43.9709    7.3442   12.5044 H   0  0  0  0  0  0  0  0  0  0  0  0
   45.9931    5.8869   12.7437 H   0  0  0  0  0  0  0  0  0  0  0  0
   47.6554   12.3829   10.1902 H   0  0  0  0  0  0  0  0  0  0  0  0
   46.0479   11.2429   12.5872 H   0  0  0  0  0  0  0  0  0  0  0  0
   43.5187   13.3045   11.6009 H   0  0  0  0  0  0  0  0  0  0  0  0
   49.0703    9.6146   12.6983 H   0  0  0  0  0  0  0  0  0  0  0  0
   45.9451   11.2445   12.5074 H   0  0  0  0  0  0  0  0  0  0  0  0
   47.7879   12.3809   10.2871 H   0  0  0  0  0  0  0  0  0  0  0  0
   48.7300    9.2408   12.5657 H   0  0  0  0  0  0  0  0  0  0  0  0
   43.7289   13.6784   11.6151 H   0  0  0  0  0  0  0  0  0  0  0  0
  2  4  1  0
  3  1  1  0
  4  3  2  0
  5  1  2  0
  6  2  2  0
  7  2  1  0
  8  1  1  0
 15 17  1  0
 12 15  1  0
 17 18  1  0
 11 12  1  0
 18 19  1  0
 15 16  1  0
 19 20  1  0
 19 21  1  0
 16 22  1  0
 23 24  1  0
 12 13  2  0
 10 11  2  0
 13 14  1  0
 22 23  2  0
 24 25  2  0
 25 26  1  0
 26 22  1  0
 14  9  2  0
  9 10  1  0
 28 27  1  0
 29 31  1  0
 30 29  1  0
 31 27  1  0
 32 28  2  0
 33 30  1  0
 34 29  2  0
 35 27  1  0
 36 34  1  0
 37 38  1  0
 38 35  1  0
 39 28  1  0
 40 32  1  0
 41 37  1  0
 42 37  1  0
 43 39  2  0
 44 40  2  0
 36 33  2  0
 43 44  1  0
 46 48  1  0
 47 45  1  0
 48 47  2  0
 49 45  2  0
 50 46  2  0
 51 46  1  0
 52 45  1  0
 54 56  1  0
 55 53  1  0
 56 55  2  0
 57 53  2  0
 58 54  2  0
 59 54  1  0
 60 53  1  0
  3 61  1  0
  4 62  1  0
  7 63  1  0
  8 64  1  0
  9 65  1  0
 10 66  1  0
 13 67  1  0
 14 68  1  0
 16 69  1  0
 16 70  1  0
 17 71  1  0
 17 72  1  0
 18 73  1  0
 18 74  1  0
 20 75  1  0
 20 76  1  0
 20 77  1  0
 21 78  1  0
 21 79  1  0
 21 80  1  0
 23 81  1  0
 24 82  1  0
 25 83  1  0
 31 84  1  0
 31 85  1  0
 33 86  1  0
 34 87  1  0
 35 88  1  0
 35 89  1  0
 36 90  1  0
 38 91  1  0
 38 92  1  0
 39 93  1  0
 40 94  1  0
 41 95  1  0
 41 96  1  0
 41 97  1  0
 42 98  1  0
 42 99  1  0
 42100  1  0
 43101  1  0
 44102  1  0
 47103  1  0
 48104  1  0
 51105  1  0
 52106  1  0
 55107  1  0
 56108  1  0
 59109  1  0
 60110  1  0
M  END
> <Uni-Dock RESULT> 
ENERGY=   -6.114  LOWER_BOUND=    2.889  UPPER_BOUND=    5.469
INTER + INTRA:          -6.114
INTER:                  -6.114
INTRA:                   0.000
UNBOUND:                 0.000

$$$$

     RDKit          3D

110109  0  0  0  0  0  0  0  0999 V2000
   52.7937    6.8935   16.5181 C   0  0  0  0  0  0  0  0  0  0  0  0
   50.3711    4.9431   18.7540 C   0  0  0  0  0  0  0  0  0  0  0  0
   51.9244    5.8487   17.0662 C   0  0  0  0  0  0  0  0  0  0  0  0
   51.2397    5.9910   18.2094 C   0  0  0  0  0  0  0  0  0  0  0  0
   53.4077    6.7984   15.4709 O   0  0  0  0  0  0  0  0  0  0  0  0
   49.7288    5.0484   19.7830 O   0  0  0  0  0  0  0  0  0  0  0  0
   50.3234    3.8311   18.0061 O   0  0  0  0  0  0  0  0  0  0  0  0
   52.8566    8.0000   17.2726 O   0  0  0  0  0  0  0  0  0  0  0  0
   55.9322    5.8731   17.8538 C   0  0  0  0  0  0  0  0  0  0  0  0
   55.1413    4.8356   18.3061 C   0  0  0  0  0  0  0  0  0  0  0  0
   53.8192    4.7159   18.0411 N   0  0  0  0  0  0  0  0  0  0  0  0
   53.2079    5.6733   17.3024 C   0  0  0  0  0  0  0  0  0  0  0  0
   53.9588    6.7308   16.7885 C   0  0  0  0  0  0  0  0  0  0  0  0
   55.3234    6.8346   17.0686 C   0  0  0  0  0  0  0  0  0  0  0  0
   51.8366    5.5555   17.0271 N   0  0  0  0  0  0  0  0  0  0  0  0
   51.0121    6.7491   17.2947 C   0  0  0  0  0  0  0  0  0  0  0  0
   51.2341    4.2725   17.4378 C   0  0  0  0  0  0  0  0  0  0  0  0
   50.9518    4.1352   18.9589 C   0  0  0  0  0  0  0  0  0  0  0  0
   49.7229    4.8098   19.4458 N   0  0  0  0  0  0  0  0  0  0  0  0
   49.7456    4.8807   20.9105 C   0  0  0  0  0  0  0  0  0  0  0  0
   48.5172    4.1022   19.0087 C   0  0  0  0  0  0  0  0  0  0  0  0
   50.9044    7.7481   16.1675 C   0  0  0  0  0  0  0  0  0  0  0  0
   50.7908    7.5140   14.8111 C   0  0  0  0  0  0  0  0  0  0  0  0
   50.7144    8.7115   14.0482 C   0  0  0  0  0  0  0  0  0  0  0  0
   50.7565    9.8304   14.8500 C   0  0  0  0  0  0  0  0  0  0  0  0
   50.8858    9.4322   16.5088 S   0  0  0  0  0  0  0  0  0  0  0  0
   51.0212    6.2445   18.1663 N   0  0  0  0  0  0  0  0  0  0  0  0
   49.7648    6.7224   18.5306 C   0  0  0  0  0  0  0  0  0  0  0  0
   51.6062    3.8089   18.4341 C   0  0  0  0  0  0  0  0  0  0  0  0
   53.0169    2.8489   18.5805 S   0  0  0  0  0  0  0  0  0  0  0  0
   51.5419    5.1849   19.0499 C   0  0  0  0  0  0  0  0  0  0  0  0
   48.9152    5.8558   19.1228 N   0  0  0  0  0  0  0  0  0  0  0  0
   52.3082    1.5640   17.7042 C   0  0  0  0  0  0  0  0  0  0  0  0
   50.6122    3.1396   17.7488 C   0  0  0  0  0  0  0  0  0  0  0  0
   51.9957    7.1072   17.4764 C   0  0  0  0  0  0  0  0  0  0  0  0
   51.0149    1.8456   17.3201 C   0  0  0  0  0  0  0  0  0  0  0  0
   53.9819    7.1656   15.8992 N   0  0  0  0  0  0  0  0  0  0  0  0
   53.0338    6.3081   16.6494 C   0  0  0  0  0  0  0  0  0  0  0  0
   49.3469    8.0343   18.3019 C   0  0  0  0  0  0  0  0  0  0  0  0
   47.6802    6.2749   19.4871 C   0  0  0  0  0  0  0  0  0  0  0  0
   54.9490    7.7970   16.8046 C   0  0  0  0  0  0  0  0  0  0  0  0
   54.6984    6.3509   14.9095 C   0  0  0  0  0  0  0  0  0  0  0  0
   48.0701    8.4571   18.6917 C   0  0  0  0  0  0  0  0  0  0  0  0
   47.2159    7.5544   19.2997 C   0  0  0  0  0  0  0  0  0  0  0  0
   50.5927    4.3334   18.2795 C   0  0  0  0  0  0  0  0  0  0  0  0
   52.6250    7.1378   16.7174 C   0  0  0  0  0  0  0  0  0  0  0  0
   51.4517    5.1368   17.4032 C   0  0  0  0  0  0  0  0  0  0  0  0
   51.7518    6.4191   17.6481 C   0  0  0  0  0  0  0  0  0  0  0  0
   50.2975    3.1696   18.0778 O   0  0  0  0  0  0  0  0  0  0  0  0
   53.1421    6.7087   15.7051 O   0  0  0  0  0  0  0  0  0  0  0  0
   52.8043    8.4007   17.1354 O   0  0  0  0  0  0  0  0  0  0  0  0
   50.1217    5.0074   19.3403 O   0  0  0  0  0  0  0  0  0  0  0  0
   52.8222    6.9766   16.7687 C   0  0  0  0  0  0  0  0  0  0  0  0
   50.3959    4.4738   18.2706 C   0  0  0  0  0  0  0  0  0  0  0  0
   51.7956    6.4002   17.6372 C   0  0  0  0  0  0  0  0  0  0  0  0
   51.4144    5.1303   17.4463 C   0  0  0  0  0  0  0  0  0  0  0  0
   53.4100    6.4260   15.8576 O   0  0  0  0  0  0  0  0  0  0  0  0
   50.0362    3.3194   18.1281 O   0  0  0  0  0  0  0  0  0  0  0  0
   49.8641    5.2669   19.2131 O   0  0  0  0  0  0  0  0  0  0  0  0
   53.0613    8.2526   17.1099 O   0  0  0  0  0  0  0  0  0  0  0  0
   51.8694    4.9481   16.4657 H   0  0  0  0  0  0  0  0  0  0  0  0
   51.2983    6.8873   18.8154 H   0  0  0  0  0  0  0  0  0  0  0  0
   49.7044    3.2512   18.4974 H   0  0  0  0  0  0  0  0  0  0  0  0
   53.4610    8.5890   16.7744 H   0  0  0  0  0  0  0  0  0  0  0  0
   56.9864    5.9238   18.0967 H   0  0  0  0  0  0  0  0  0  0  0  0
   55.5677    4.0468   18.9202 H   0  0  0  0  0  0  0  0  0  0  0  0
   53.5056    7.4819   16.1456 H   0  0  0  0  0  0  0  0  0  0  0  0
   55.8963    7.6616   16.6623 H   0  0  0  0  0  0  0  0  0  0  0  0
   51.3400    7.2288   18.2231 H   0  0  0  0  0  0  0  0  0  0  0  0
   49.9752    6.4410   17.4797 H   0  0  0  0  0  0  0  0  0  0  0  0
   51.8750    3.4395   17.1146 H   0  0  0  0  0  0  0  0  0  0  0  0
   50.3105    4.1308   16.8656 H   0  0  0  0  0  0  0  0  0  0  0  0
   51.8061    4.5284   19.5199 H   0  0  0  0  0  0  0  0  0  0  0  0
   50.8922    3.0665   19.2030 H   0  0  0  0  0  0  0  0  0  0  0  0
   48.8515    5.3891   21.2842 H   0  0  0  0  0  0  0  0  0  0  0  0
   49.7892    3.8877   21.3739 H   0  0  0  0  0  0  0  0  0  0  0  0
   50.6006    5.4713   21.2586 H   0  0  0  0  0  0  0  0  0  0  0  0
   48.4208    4.1041   17.9203 H   0  0  0  0  0  0  0  0  0  0  0  0
   48.5011    3.0622   19.3531 H   0  0  0  0  0  0  0  0  0  0  0  0
   47.6222    4.6025   19.3923 H   0  0  0  0  0  0  0  0  0  0  0  0
   50.7768    6.5187   14.3899 H   0  0  0  0  0  0  0  0  0  0  0  0
   50.6330    8.7545   12.9689 H   0  0  0  0  0  0  0  0  0  0  0  0
   50.7119   10.8658   14.5335 H   0  0  0  0  0  0  0  0  0  0  0  0
   50.9648    5.1060   19.9816 H   0  0  0  0  0  0  0  0  0  0  0  0
   52.5428    5.4842   19.3931 H   0  0  0  0  0  0  0  0  0  0  0  0
   52.8680    0.6605   17.5162 H   0  0  0  0  0  0  0  0  0  0  0  0
   49.6367    3.5764   17.5607 H   0  0  0  0  0  0  0  0  0  0  0  0
   51.4872    7.7607   16.7570 H   0  0  0  0  0  0  0  0  0  0  0  0
   52.4870    7.7466   18.2192 H   0  0  0  0  0  0  0  0  0  0  0  0
   50.3879    1.1575   16.7654 H   0  0  0  0  0  0  0  0  0  0  0  0
   52.4651    5.6944   15.9383 H   0  0  0  0  0  0  0  0  0  0  0  0
   53.5941    5.6146   17.2887 H   0  0  0  0  0  0  0  0  0  0  0  0
   49.9923    8.7676   17.8298 H   0  0  0  0  0  0  0  0  0  0  0  0
   47.0605    5.5081   19.9593 H   0  0  0  0  0  0  0  0  0  0  0  0
   54.4551    8.4779   17.5117 H   0  0  0  0  0  0  0  0  0  0  0  0
   55.5177    7.0514   17.3787 H   0  0  0  0  0  0  0  0  0  0  0  0
   55.6594    8.4053   16.2335 H   0  0  0  0  0  0  0  0  0  0  0  0
   55.2529    5.5227   15.3712 H   0  0  0  0  0  0  0  0  0  0  0  0
   53.9937    5.9362   14.1763 H   0  0  0  0  0  0  0  0  0  0  0  0
   55.4086    6.9668   14.3482 H   0  0  0  0  0  0  0  0  0  0  0  0
   47.7558    9.4772   18.5209 H   0  0  0  0  0  0  0  0  0  0  0  0
   46.2139    7.8312   19.6088 H   0  0  0  0  0  0  0  0  0  0  0  0
   51.8420    4.6099   16.5381 H   0  0  0  0  0  0  0  0  0  0  0  0
   51.3863    6.9593   18.5134 H   0  0  0  0  0  0  0  0  0  0  0  0
   53.3999    8.7954   16.4656 H   0  0  0  0  0  0  0  0  0  0  0  0
   49.5638    4.3520   19.8092 H   0  0  0  0  0  0  0  0  0  0  0  0
   51.3797    7.0351   18.4078 H   0  0  0  0  0  0  0  0  0  0  0  0
   51.8493    4.5106   16.6687 H   0  0  0  0  0  0  0  0  0  0  0  0
   49.2012    4.6936   19.6510 H   0  0  0  0  0  0  0  0  0  0  0  0
   53.7485    8.5452   16.4739 H   0  0  0  0  0  0  0  0  0  0  0  0
  2  4  1  0
  3  1  1  0
  4  3  2  0
  5  1  2  0
  6  2  2  0
  7  2  1  0
  8  1  1  0
 15 17  1  0
 12 15  1  0
 17 18  1  0
 11 12  1  0
 18 19  1  0
 15 16  1  0
 19 20  1  0
 19 21  1  0
 16 22  1  0
 23 24  1  0
 12 13  2  0
 10 11  2  0
 13 14  1  0
 22 23  2  0
 24 25  2  0
 25 26  1  0
 26 22  1  0
 14  9  2  0
  9 10  1  0
 28 27  1  0
 29 31  1  0
 30 29  1  0
 31 27  1  0
 32 28  2  0
 33 30  1  0
 34 29  2  0
 35 27  1  0
 36 34  1  0
 37 38  1  0
 38 35  1  0
 39 28  1  0
 40 32  1  0
 41 37  1  0
 42 37  1  0
 43 39  2  0
 44 40  2  0
 36 33  2  0
 43 44  1  0
 46 48  1  0
 47 45  1  0
 48 47  2  0
 49 45  2  0
 50 46  2  0
 51 46  1  0
 52 45  1  0
 54 56  1  0
 55 53  1  0
 56 55  2  0
 57 53  2  0
 58 54  2  0
 59 54  1  0
 60 53  1  0
  3 61  1  0
  4 62  1  0
  7 63  1  0
  8 64  1  0
  9 65  1  0
 10 66  1  0
 13 67  1  0
 14 68  1  0
 16 69  1  0
 16 70  1  0
 17 71  1  0
 17 72  1  0
 18 73  1  0
 18 74  1  0
 20 75  1  0
 20 76  1  0
 20 77  1  0
 21 78  1  0
 21 79  1  0
 21 80  1  0
 23 81  1  0
 24 82  1  0
 25 83  1  0
 31 84  1  0
 31 85  1  0
 33 86  1  0
 34 87  1  0
 35 88  1  0
 35 89  1  0
 36 90  1  0
 38 91  1  0
 38 92  1  0
 39 93  1  0
 40 94  1  0
 41 95  1  0
 41 96  1  0
 41 97  1  0
 42 98  1  0
 42 99  1  0
 42100  1  0
 43101  1  0
 44102  1  0
 47103  1  0
 48104  1  0
 51105  1  0
 52106  1  0
 55107  1  0
 56108  1  0
 59109  1  0
 60110  1  0
M  END
> <Uni-Dock RESULT> 
ENERGY=   -6.072  LOWER_BOUND=   10.658  UPPER_BOUND=   12.983
INTER + INTRA:          -6.072
INTER:                  -6.072
INTRA:                   0.000
UNBOUND:                 0.000

$$$$

     RDKit          3D

110109  0  0  0  0  0  0  0  0999 V2000
   49.0593    8.2395   16.0783 C   0  0  0  0  0  0  0  0  0  0  0  0
   48.4867   11.7055   17.6051 C   0  0  0  0  0  0  0  0  0  0  0  0
   48.5047    9.3605   16.8422 C   0  0  0  0  0  0  0  0  0  0  0  0
   49.0450   10.5869   16.8395 C   0  0  0  0  0  0  0  0  0  0  0  0
   48.5749    7.1228   16.0453 O   0  0  0  0  0  0  0  0  0  0  0  0
   48.9488   12.8319   17.6128 O   0  0  0  0  0  0  0  0  0  0  0  0
   47.3882   11.3914   18.3071 O   0  0  0  0  0  0  0  0  0  0  0  0
   50.1675    8.5464   15.3888 O   0  0  0  0  0  0  0  0  0  0  0  0
   51.0989    6.7209   18.5702 C   0  0  0  0  0  0  0  0  0  0  0  0
   50.5190    7.7208   19.3254 C   0  0  0  0  0  0  0  0  0  0  0  0
   49.6052    8.5995   18.8506 N   0  0  0  0  0  0  0  0  0  0  0  0
   49.2350    8.5235   17.5494 C   0  0  0  0  0  0  0  0  0  0  0  0
   49.7605    7.5147   16.7417 C   0  0  0  0  0  0  0  0  0  0  0  0
   50.6988    6.6139   17.2510 C   0  0  0  0  0  0  0  0  0  0  0  0
   48.2900    9.4340   17.0512 N   0  0  0  0  0  0  0  0  0  0  0  0
   48.6456   10.1229   15.7962 C   0  0  0  0  0  0  0  0  0  0  0  0
   47.6560   10.2859   18.0760 C   0  0  0  0  0  0  0  0  0  0  0  0
   48.5330   11.4603   18.5899 C   0  0  0  0  0  0  0  0  0  0  0  0
   48.5891   12.6519   17.7070 N   0  0  0  0  0  0  0  0  0  0  0  0
   49.6807   13.5328   18.1350 C   0  0  0  0  0  0  0  0  0  0  0  0
   47.3254   13.3922   17.7294 C   0  0  0  0  0  0  0  0  0  0  0  0
   48.2721    9.4100   14.5186 C   0  0  0  0  0  0  0  0  0  0  0  0
   47.1327    8.6832   14.2340 C   0  0  0  0  0  0  0  0  0  0  0  0
   47.1314    8.1513   12.9153 C   0  0  0  0  0  0  0  0  0  0  0  0
   48.2689    8.5024   12.2228 C   0  0  0  0  0  0  0  0  0  0  0  0
   49.3249    9.4672   13.1616 S   0  0  0  0  0  0  0  0  0  0  0  0
   49.0272   10.7052   16.5240 N   0  0  0  0  0  0  0  0  0  0  0  0
   48.8863   11.8621   15.7614 C   0  0  0  0  0  0  0  0  0  0  0  0
   48.3296   10.6583   18.9442 C   0  0  0  0  0  0  0  0  0  0  0  0
   48.6785    9.7451   20.3503 S   0  0  0  0  0  0  0  0  0  0  0  0
   49.4056   10.9517   17.9278 C   0  0  0  0  0  0  0  0  0  0  0  0
   48.4597   12.9772   16.3924 N   0  0  0  0  0  0  0  0  0  0  0  0
   47.0712    9.8842   20.9144 C   0  0  0  0  0  0  0  0  0  0  0  0
   47.0139   11.0763   18.9304 C   0  0  0  0  0  0  0  0  0  0  0  0
   49.4451    9.4328   15.9108 C   0  0  0  0  0  0  0  0  0  0  0  0
   46.2820   10.6266   20.0629 C   0  0  0  0  0  0  0  0  0  0  0  0
   49.3486    6.9033   16.0807 N   0  0  0  0  0  0  0  0  0  0  0  0
   48.9896    8.1921   16.7190 C   0  0  0  0  0  0  0  0  0  0  0  0
   49.1500   11.9153   14.3919 C   0  0  0  0  0  0  0  0  0  0  0  0
   48.3010   14.1233   15.6889 C   0  0  0  0  0  0  0  0  0  0  0  0
   50.7894    6.6462   16.1895 C   0  0  0  0  0  0  0  0  0  0  0  0
   48.6072    5.8143   16.7293 C   0  0  0  0  0  0  0  0  0  0  0  0
   48.9903   13.1093   13.6780 C   0  0  0  0  0  0  0  0  0  0  0  0
   48.5551   14.2414   14.3437 C   0  0  0  0  0  0  0  0  0  0  0  0
   47.9632   11.3003   18.0610 C   0  0  0  0  0  0  0  0  0  0  0  0
   49.2353    8.4698   15.8689 C   0  0  0  0  0  0  0  0  0  0  0  0
   48.1610   10.0085   17.3951 C   0  0  0  0  0  0  0  0  0  0  0  0
   49.1104    9.7978   16.4739 C   0  0  0  0  0  0  0  0  0  0  0  0
   47.1048   11.5221   18.8954 O   0  0  0  0  0  0  0  0  0  0  0  0
   48.5647    7.4837   16.1012 O   0  0  0  0  0  0  0  0  0  0  0  0
   50.2379    8.4622   14.9765 O   0  0  0  0  0  0  0  0  0  0  0  0
   48.8109   12.2560   17.6491 O   0  0  0  0  0  0  0  0  0  0  0  0
   49.2930    8.3639   16.0991 C   0  0  0  0  0  0  0  0  0  0  0  0
   47.9260   11.4342   17.8630 C   0  0  0  0  0  0  0  0  0  0  0  0
   49.1155    9.7588   16.5030 C   0  0  0  0  0  0  0  0  0  0  0  0
   48.1699   10.0648   17.4010 C   0  0  0  0  0  0  0  0  0  0  0  0
   48.6712    7.3974   16.4965 O   0  0  0  0  0  0  0  0  0  0  0  0
   47.0819   11.7419   18.6847 O   0  0  0  0  0  0  0  0  0  0  0  0
   48.7163   12.3522   17.2863 O   0  0  0  0  0  0  0  0  0  0  0  0
   50.2773    8.2610   15.1923 O   0  0  0  0  0  0  0  0  0  0  0  0
   47.6105    9.1220   17.4064 H   0  0  0  0  0  0  0  0  0  0  0  0
   49.9428   10.8263   16.2821 H   0  0  0  0  0  0  0  0  0  0  0  0
   47.1452   12.2356   18.7418 H   0  0  0  0  0  0  0  0  0  0  0  0
   50.4027    7.7083   14.9386 H   0  0  0  0  0  0  0  0  0  0  0  0
   51.8284    6.0443   18.9980 H   0  0  0  0  0  0  0  0  0  0  0  0
   50.7890    7.8471   20.3705 H   0  0  0  0  0  0  0  0  0  0  0  0
   49.4382    7.3954   15.7099 H   0  0  0  0  0  0  0  0  0  0  0  0
   51.0994    5.8334   16.6127 H   0  0  0  0  0  0  0  0  0  0  0  0
   49.7068   10.3934   15.8066 H   0  0  0  0  0  0  0  0  0  0  0  0
   48.1053   11.0764   15.7388 H   0  0  0  0  0  0  0  0  0  0  0  0
   47.3434    9.6698   18.9314 H   0  0  0  0  0  0  0  0  0  0  0  0
   46.7131   10.6663   17.6676 H   0  0  0  0  0  0  0  0  0  0  0  0
   49.5552   11.1019   18.7504 H   0  0  0  0  0  0  0  0  0  0  0  0
   48.1579   11.7645   19.5757 H   0  0  0  0  0  0  0  0  0  0  0  0
   49.7440   14.4100   17.4838 H   0  0  0  0  0  0  0  0  0  0  0  0
   49.5509   13.8846   19.1656 H   0  0  0  0  0  0  0  0  0  0  0  0
   50.6472   13.0226   18.0546 H   0  0  0  0  0  0  0  0  0  0  0  0
   46.5006   12.7941   17.3344 H   0  0  0  0  0  0  0  0  0  0  0  0
   47.0577   13.7217   18.7395 H   0  0  0  0  0  0  0  0  0  0  0  0
   47.3913   14.2770   17.0882 H   0  0  0  0  0  0  0  0  0  0  0  0
   46.3412    8.5331   14.9546 H   0  0  0  0  0  0  0  0  0  0  0  0
   46.3407    7.5431   12.4932 H   0  0  0  0  0  0  0  0  0  0  0  0
   48.5237    8.2380   11.2034 H   0  0  0  0  0  0  0  0  0  0  0  0
   49.7415   11.9855   18.0877 H   0  0  0  0  0  0  0  0  0  0  0  0
   50.3006   10.3537   18.1530 H   0  0  0  0  0  0  0  0  0  0  0  0
   46.7800    9.4219   21.8454 H   0  0  0  0  0  0  0  0  0  0  0  0
   46.6003   11.6767   18.1266 H   0  0  0  0  0  0  0  0  0  0  0  0
   48.9929    9.3189   14.9180 H   0  0  0  0  0  0  0  0  0  0  0  0
   50.5339    9.4452   15.7824 H   0  0  0  0  0  0  0  0  0  0  0  0
   45.2355   10.8411   20.2448 H   0  0  0  0  0  0  0  0  0  0  0  0
   47.8969    8.2570   16.8068 H   0  0  0  0  0  0  0  0  0  0  0  0
   49.3913    8.2199   17.7394 H   0  0  0  0  0  0  0  0  0  0  0  0
   49.4947   11.0470   13.8402 H   0  0  0  0  0  0  0  0  0  0  0  0
   47.9532   14.9750   16.2792 H   0  0  0  0  0  0  0  0  0  0  0  0
   51.3762    7.4004   15.6470 H   0  0  0  0  0  0  0  0  0  0  0  0
   51.1235    6.6324   17.2370 H   0  0  0  0  0  0  0  0  0  0  0  0
   51.0353    5.6785   15.7380 H   0  0  0  0  0  0  0  0  0  0  0  0
   48.8138    5.7503   17.8063 H   0  0  0  0  0  0  0  0  0  0  0  0
   47.5270    5.9517   16.5865 H   0  0  0  0  0  0  0  0  0  0  0  0
   48.8637    4.8520   16.2744 H   0  0  0  0  0  0  0  0  0  0  0  0
   49.2057   13.1468   12.6194 H   0  0  0  0  0  0  0  0  0  0  0  0
   48.4053   15.1860   13.8323 H   0  0  0  0  0  0  0  0  0  0  0  0
   47.4840    9.2220   17.7136 H   0  0  0  0  0  0  0  0  0  0  0  0
   49.8065   10.5638   16.1532 H   0  0  0  0  0  0  0  0  0  0  0  0
   50.2517    7.5444   14.6352 H   0  0  0  0  0  0  0  0  0  0  0  0
   48.5458   13.0464   18.1647 H   0  0  0  0  0  0  0  0  0  0  0  0
   49.7646   10.4961   16.0502 H   0  0  0  0  0  0  0  0  0  0  0  0
   47.5327    9.3070   17.8454 H   0  0  0  0  0  0  0  0  0  0  0  0
   48.4162   13.1971   17.6813 H   0  0  0  0  0  0  0  0  0  0  0  0
   50.3118    7.3028   14.9849 H   0  0  0  0  0  0  0  0  0  0  0  0
  2  4  1  0
  3  1  1  0
  4  3  2  0
  5  1  2  0
  6  2  2  0
  7  2  1  0
  8  1  1  0
 15 17  1  0
 12 15  1  0
 17 18  1  0
 11 12  1  0
 18 19  1  0
 15 16  1  0
 19 20  1  0
 19 21  1  0
 16 22  1  0
 23 24  1  0
 12 13  2  0
 10 11  2  0
 13 14  1  0
 22 23  2  0
 24 25  2  0
 25 26  1  0
 26 22  1  0
 14  9  2  0
  9 10  1  0
 28 27  1  0
 29 31  1  0
 30 29  1  0
 31 27  1  0
 32 28  2  0
 33 30  1  0
 34 29  2  0
 35 27  1  0
 36 34  1  0
 37 38  1  0
 38 35  1  0
 39 28  1  0
 40 32  1  0
 41 37  1  0
 42 37  1  0
 43 39  2  0
 44 40  2  0
 36 33  2  0
 43 44  1  0
 46 48  1  0
 47 45  1  0
 48 47  2  0
 49 45  2  0
 50 46  2  0
 51 46  1  0
 52 45  1  0
 54 56  1  0
 55 53  1  0
 56 55  2  0
 57 53  2  0
 58 54  2  0
 59 54  1  0
 60 53  1  0
  3 61  1  0
  4 62  1  0
  7 63  1  0
  8 64  1  0
  9 65  1  0
 10 66  1  0
 13 67  1  0
 14 68  1  0
 16 69  1  0
 16 70  1  0
 17 71  1  0
 17 72  1  0
 18 73  1  0
 18 74  1  0
 20 75  1  0
 20 76  1  0
 20 77  1  0
 21 78  1  0
 21 79  1  0
 21 80  1  0
 23 81  1  0
 24 82  1  0
 25 83  1  0
 31 84  1  0
 31 85  1  0
 33 86  1  0
 34 87  1  0
 35 88  1  0
 35 89  1  0
 36 90  1  0
 38 91  1  0
 38 92  1  0
 39 93  1  0
 40 94  1  0
 41 95  1  0
 41 96  1  0
 41 97  1  0
 42 98  1  0
 42 99  1  0
 42100  1  0
 43101  1  0
 44102  1  0
 47103  1  0
 48104  1  0
 51105  1  0
 52106  1  0
 55107  1  0
 56108  1  0
 59109  1  0
 60110  1  0
M  END
> <Uni-Dock RESULT> 
ENERGY=   -5.765  LOWER_BOUND=    7.592  UPPER_BOUND=    9.947
INTER + INTRA:          -5.765
INTER:                  -5.765
INTRA:                   0.000
UNBOUND:                 0.000

$$$$

     RDKit          3D

110109  0  0  0  0  0  0  0  0999 V2000
   50.6394    7.3833   16.2990 C   0  0  0  0  0  0  0  0  0  0  0  0
   52.0464    4.5698   18.4846 C   0  0  0  0  0  0  0  0  0  0  0  0
   50.9172    6.4904   17.4274 C   0  0  0  0  0  0  0  0  0  0  0  0
   51.7715    5.4605   17.3531 C   0  0  0  0  0  0  0  0  0  0  0  0
   49.8863    8.3389   16.3469 O   0  0  0  0  0  0  0  0  0  0  0  0
   52.8251    3.6345   18.4499 O   0  0  0  0  0  0  0  0  0  0  0  0
   51.3673    4.8784   19.5990 O   0  0  0  0  0  0  0  0  0  0  0  0
   51.3043    7.0670   15.1785 O   0  0  0  0  0  0  0  0  0  0  0  0
   47.7388    5.8193   14.9513 C   0  0  0  0  0  0  0  0  0  0  0  0
   47.9376    5.0198   16.0594 C   0  0  0  0  0  0  0  0  0  0  0  0
   48.9267    5.2068   16.9644 N   0  0  0  0  0  0  0  0  0  0  0  0
   49.8005    6.2261   16.7815 C   0  0  0  0  0  0  0  0  0  0  0  0
   49.6342    7.0897   15.6986 C   0  0  0  0  0  0  0  0  0  0  0  0
   48.6042    6.8836   14.7778 C   0  0  0  0  0  0  0  0  0  0  0  0
   50.8297    6.4227   17.7154 N   0  0  0  0  0  0  0  0  0  0  0  0
   52.1894    6.5800   17.1652 C   0  0  0  0  0  0  0  0  0  0  0  0
   50.7357    5.5785   18.9222 C   0  0  0  0  0  0  0  0  0  0  0  0
   51.1782    4.1023   18.7287 C   0  0  0  0  0  0  0  0  0  0  0  0
   52.6434    3.8661   18.7397 N   0  0  0  0  0  0  0  0  0  0  0  0
   52.9305    2.5204   18.2324 C   0  0  0  0  0  0  0  0  0  0  0  0
   53.1965    4.0091   20.0884 C   0  0  0  0  0  0  0  0  0  0  0  0
   52.5945    7.9848   16.7875 C   0  0  0  0  0  0  0  0  0  0  0  0
   52.3175    9.1705   17.4393 C   0  0  0  0  0  0  0  0  0  0  0  0
   52.8672   10.3045   16.7808 C   0  0  0  0  0  0  0  0  0  0  0  0
   53.5646    9.9481   15.6480 C   0  0  0  0  0  0  0  0  0  0  0  0
   53.5533    8.2571   15.3877 S   0  0  0  0  0  0  0  0  0  0  0  0
   52.0780    5.5869   17.2903 N   0  0  0  0  0  0  0  0  0  0  0  0
   53.4406    5.3959   17.5061 C   0  0  0  0  0  0  0  0  0  0  0  0
   50.3665    4.4882   18.7770 C   0  0  0  0  0  0  0  0  0  0  0  0
   48.7172    4.0340   18.6968 S   0  0  0  0  0  0  0  0  0  0  0  0
   51.2527    4.3947   17.5594 C   0  0  0  0  0  0  0  0  0  0  0  0
   53.8033    4.5246   18.4720 N   0  0  0  0  0  0  0  0  0  0  0  0
   48.4742    4.3924   20.3502 C   0  0  0  0  0  0  0  0  0  0  0  0
   50.7180    4.8802   20.0531 C   0  0  0  0  0  0  0  0  0  0  0  0
   51.5914    6.5499   16.2876 C   0  0  0  0  0  0  0  0  0  0  0  0
   49.6273    4.8323   20.9634 C   0  0  0  0  0  0  0  0  0  0  0  0
   49.6790    8.0754   15.6151 N   0  0  0  0  0  0  0  0  0  0  0  0
   50.1576    7.0580   16.5811 C   0  0  0  0  0  0  0  0  0  0  0  0
   54.4325    6.0651   16.7876 C   0  0  0  0  0  0  0  0  0  0  0  0
   55.1173    4.3133   18.7216 C   0  0  0  0  0  0  0  0  0  0  0  0
   49.3706    7.4637   14.3172 C   0  0  0  0  0  0  0  0  0  0  0  0
   48.4749    8.7256   16.1477 C   0  0  0  0  0  0  0  0  0  0  0  0
   55.7879    5.8306   17.0498 C   0  0  0  0  0  0  0  0  0  0  0  0
   56.1385    4.9319   18.0415 C   0  0  0  0  0  0  0  0  0  0  0  0
   51.4560    4.8028   18.9777 C   0  0  0  0  0  0  0  0  0  0  0  0
   50.9442    7.2802   16.1430 C   0  0  0  0  0  0  0  0  0  0  0  0
   51.0002    5.9179   18.1409 C   0  0  0  0  0  0  0  0  0  0  0  0
   51.4660    6.1438   16.9055 C   0  0  0  0  0  0  0  0  0  0  0  0
   51.0561    4.5782   20.1055 O   0  0  0  0  0  0  0  0  0  0  0  0
   50.1035    8.0843   16.4934 O   0  0  0  0  0  0  0  0  0  0  0  0
   51.5321    7.3355   14.9375 O   0  0  0  0  0  0  0  0  0  0  0  0
   52.3953    4.0400   18.3969 O   0  0  0  0  0  0  0  0  0  0  0  0
   50.7052    7.1783   16.1434 C   0  0  0  0  0  0  0  0  0  0  0  0
   51.6916    4.8577   18.9804 C   0  0  0  0  0  0  0  0  0  0  0  0
   51.4177    6.1480   16.8992 C   0  0  0  0  0  0  0  0  0  0  0  0
   51.0358    5.8748   18.1536 C   0  0  0  0  0  0  0  0  0  0  0  0
   49.7606    7.8461   16.5187 O   0  0  0  0  0  0  0  0  0  0  0  0
   51.3611    4.5800   20.1188 O   0  0  0  0  0  0  0  0  0  0  0  0
   52.7221    4.2466   18.3763 O   0  0  0  0  0  0  0  0  0  0  0  0
   51.2361    7.3109   14.9177 O   0  0  0  0  0  0  0  0  0  0  0  0
   50.3817    6.7351   18.3374 H   0  0  0  0  0  0  0  0  0  0  0  0
   52.3027    5.2092   16.4428 H   0  0  0  0  0  0  0  0  0  0  0  0
   51.6694    4.2057   20.2447 H   0  0  0  0  0  0  0  0  0  0  0  0
   51.0178    7.7491   14.5357 H   0  0  0  0  0  0  0  0  0  0  0  0
   46.9324    5.6249   14.2549 H   0  0  0  0  0  0  0  0  0  0  0  0
   47.2830    4.1738   16.2513 H   0  0  0  0  0  0  0  0  0  0  0  0
   50.2861    7.9490   15.5594 H   0  0  0  0  0  0  0  0  0  0  0  0
   48.4852    7.5629   13.9401 H   0  0  0  0  0  0  0  0  0  0  0  0
   52.3378    5.8843   16.3324 H   0  0  0  0  0  0  0  0  0  0  0  0
   52.9253    6.2836   17.9235 H   0  0  0  0  0  0  0  0  0  0  0  0
   49.7073    5.5974   19.3109 H   0  0  0  0  0  0  0  0  0  0  0  0
   51.3253    6.0510   19.7157 H   0  0  0  0  0  0  0  0  0  0  0  0
   50.7758    3.7278   17.7816 H   0  0  0  0  0  0  0  0  0  0  0  0
   50.7138    3.4973   19.5182 H   0  0  0  0  0  0  0  0  0  0  0  0
   54.0092    2.3365   18.2209 H   0  0  0  0  0  0  0  0  0  0  0  0
   52.4599    1.7381   18.8402 H   0  0  0  0  0  0  0  0  0  0  0  0
   52.5916    2.4144   17.1957 H   0  0  0  0  0  0  0  0  0  0  0  0
   53.0778    5.0273   20.4670 H   0  0  0  0  0  0  0  0  0  0  0  0
   52.7293    3.3209   20.8015 H   0  0  0  0  0  0  0  0  0  0  0  0
   54.2735    3.8132   20.0807 H   0  0  0  0  0  0  0  0  0  0  0  0
   51.7313    9.2146   18.3462 H   0  0  0  0  0  0  0  0  0  0  0  0
   52.7592   11.3288   17.1165 H   0  0  0  0  0  0  0  0  0  0  0  0
   54.0851   10.6077   14.9638 H   0  0  0  0  0  0  0  0  0  0  0  0
   51.8629    3.4866   17.6608 H   0  0  0  0  0  0  0  0  0  0  0  0
   50.6392    4.1930   16.6694 H   0  0  0  0  0  0  0  0  0  0  0  0
   47.5012    4.2587   20.7979 H   0  0  0  0  0  0  0  0  0  0  0  0
   51.7238    5.1958   20.3110 H   0  0  0  0  0  0  0  0  0  0  0  0
   52.2242    7.4458   16.2778 H   0  0  0  0  0  0  0  0  0  0  0  0
   51.6532    6.0865   15.2959 H   0  0  0  0  0  0  0  0  0  0  0  0
   49.6875    5.1007   22.0115 H   0  0  0  0  0  0  0  0  0  0  0  0
   50.1793    7.4997   17.5862 H   0  0  0  0  0  0  0  0  0  0  0  0
   49.4459    6.2239   16.6172 H   0  0  0  0  0  0  0  0  0  0  0  0
   54.1921    6.7741   16.0023 H   0  0  0  0  0  0  0  0  0  0  0  0
   55.3188    3.5928   19.5185 H   0  0  0  0  0  0  0  0  0  0  0  0
   50.2676    7.0341   13.8499 H   0  0  0  0  0  0  0  0  0  0  0  0
   48.6127    6.6724   14.4087 H   0  0  0  0  0  0  0  0  0  0  0  0
   48.9926    8.2224   13.6226 H   0  0  0  0  0  0  0  0  0  0  0  0
   47.6650    8.0102   16.3449 H   0  0  0  0  0  0  0  0  0  0  0  0
   48.7099    9.2560   17.0802 H   0  0  0  0  0  0  0  0  0  0  0  0
   48.1028    9.4778   15.4444 H   0  0  0  0  0  0  0  0  0  0  0  0
   56.5516    6.3446   16.4832 H   0  0  0  0  0  0  0  0  0  0  0  0
   57.1740    4.7254   18.2891 H   0  0  0  0  0  0  0  0  0  0  0  0
   50.2410    6.5480   18.5935 H   0  0  0  0  0  0  0  0  0  0  0  0
   52.2116    5.5185   16.4288 H   0  0  0  0  0  0  0  0  0  0  0  0
   51.1199    8.1098   14.5021 H   0  0  0  0  0  0  0  0  0  0  0  0
   52.6031    3.3627   19.0743 H   0  0  0  0  0  0  0  0  0  0  0  0
   52.2374    5.6439   16.4054 H   0  0  0  0  0  0  0  0  0  0  0  0
   50.2070    6.3910   18.6273 H   0  0  0  0  0  0  0  0  0  0  0  0
   53.0544    3.6257   19.0574 H   0  0  0  0  0  0  0  0  0  0  0  0
   50.7004    8.0190   14.5007 H   0  0  0  0  0  0  0  0  0  0  0  0
  2  4  1  0
  3  1  1  0
  4  3  2  0
  5  1  2  0
  6  2  2  0
  7  2  1  0
  8  1  1  0
 15 17  1  0
 12 15  1  0
 17 18  1  0
 11 12  1  0
 18 19  1  0
 15 16  1  0
 19 20  1  0
 19 21  1  0
 16 22  1  0
 23 24  1  0
 12 13  2  0
 10 11  2  0
 13 14  1  0
 22 23  2  0
 24 25  2  0
 25 26  1  0
 26 22  1  0
 14  9  2  0
  9 10  1  0
 28 27  1  0
 29 31  1  0
 30 29  1  0
 31 27  1  0
 32 28  2  0
 33 30  1  0
 34 29  2  0
 35 27  1  0
 36 34  1  0
 37 38  1  0
 38 35  1  0
 39 28  1  0
 40 32  1  0
 41 37  1  0
 42 37  1  0
 43 39  2  0
 44 40  2  0
 36 33  2  0
 43 44  1  0
 46 48  1  0
 47 45  1  0
 48 47  2  0
 49 45  2  0
 50 46  2  0
 51 46  1  0
 52 45  1  0
 54 56  1  0
 55 53  1  0
 56 55  2  0
 57 53  2  0
 58 54  2  0
 59 54  1  0
 60 53  1  0
  3 61  1  0
  4 62  1  0
  7 63  1  0
  8 64  1  0
  9 65  1  0
 10 66  1  0
 13 67  1  0
 14 68  1  0
 16 69  1  0
 16 70  1  0
 17 71  1  0
 17 72  1  0
 18 73  1  0
 18 74  1  0
 20 75  1  0
 20 76  1  0
 20 77  1  0
 21 78  1  0
 21 79  1  0
 21 80  1  0
 23 81  1  0
 24 82  1  0
 25 83  1  0
 31 84  1  0
 31 85  1  0
 33 86  1  0
 34 87  1  0
 35 88  1  0
 35 89  1  0
 36 90  1  0
 38 91  1  0
 38 92  1  0
 39 93  1  0
 40 94  1  0
 41 95  1  0
 41 96  1  0
 41 97  1  0
 42 98  1  0
 42 99  1  0
 42100  1  0
 43101  1  0
 44102  1  0
 47103  1  0
 48104  1  0
 51105  1  0
 52106  1  0
 55107  1  0
 56108  1  0
 59109  1  0
 60110  1  0
M  END
> <Uni-Dock RESULT> 
ENERGY=   -5.707  LOWER_BOUND=    9.898  UPPER_BOUND=   13.304
INTER + INTRA:          -5.707
INTER:                  -5.707
INTRA:                   0.000
UNBOUND:                 0.000

$$$$

     RDKit          3D

110109  0  0  0  0  0  0  0  0999 V2000
   50.4166    6.6431   17.1228 C   0  0  0  0  0  0  0  0  0  0  0  0
   48.6515    8.0339   14.0208 C   0  0  0  0  0  0  0  0  0  0  0  0
   49.7247    7.5297   16.1831 C   0  0  0  0  0  0  0  0  0  0  0  0
   49.3436    7.1437   14.9577 C   0  0  0  0  0  0  0  0  0  0  0  0
   50.7525    6.9617   18.2490 O   0  0  0  0  0  0  0  0  0  0  0  0
   48.2835    7.7079   12.9070 O   0  0  0  0  0  0  0  0  0  0  0  0
   48.4342    9.2673   14.5002 O   0  0  0  0  0  0  0  0  0  0  0  0
   50.6502    5.4143   16.6400 O   0  0  0  0  0  0  0  0  0  0  0  0
   53.8019    7.4983   16.4266 C   0  0  0  0  0  0  0  0  0  0  0  0
   53.1620    8.3990   15.5985 C   0  0  0  0  0  0  0  0  0  0  0  0
   51.8172    8.5198   15.5012 N   0  0  0  0  0  0  0  0  0  0  0  0
   51.0289    7.7023   16.2403 C   0  0  0  0  0  0  0  0  0  0  0  0
   51.6145    6.7925   17.1209 C   0  0  0  0  0  0  0  0  0  0  0  0
   53.0043    6.6858   17.2112 C   0  0  0  0  0  0  0  0  0  0  0  0
   49.6339    7.8215   16.1409 N   0  0  0  0  0  0  0  0  0  0  0  0
   48.8858    6.5696   15.9190 C   0  0  0  0  0  0  0  0  0  0  0  0
   49.1694    8.9779   15.3504 C   0  0  0  0  0  0  0  0  0  0  0  0
   49.2756    8.8073   13.8103 C   0  0  0  0  0  0  0  0  0  0  0  0
   48.1972    8.0070   13.1785 N   0  0  0  0  0  0  0  0  0  0  0  0
   48.5820    7.6543   11.8080 C   0  0  0  0  0  0  0  0  0  0  0  0
   46.9302    8.7418   13.1575 C   0  0  0  0  0  0  0  0  0  0  0  0
   48.4883    5.8049   17.1588 C   0  0  0  0  0  0  0  0  0  0  0  0
   48.0445    6.2932   18.3721 C   0  0  0  0  0  0  0  0  0  0  0  0
   47.7651    5.2644   19.3130 C   0  0  0  0  0  0  0  0  0  0  0  0
   47.9901    4.0135   18.7827 C   0  0  0  0  0  0  0  0  0  0  0  0
   48.5326    4.0870   17.1617 S   0  0  0  0  0  0  0  0  0  0  0  0
   49.1178    6.8956   14.9947 N   0  0  0  0  0  0  0  0  0  0  0  0
   47.9850    6.3109   14.4339 C   0  0  0  0  0  0  0  0  0  0  0  0
   49.7834    9.2527   14.4051 C   0  0  0  0  0  0  0  0  0  0  0  0
   51.1989   10.2165   14.4245 S   0  0  0  0  0  0  0  0  0  0  0  0
   49.8557    7.7820   14.0757 C   0  0  0  0  0  0  0  0  0  0  0  0
   47.3207    7.0149   13.4922 N   0  0  0  0  0  0  0  0  0  0  0  0
   50.3119   11.6204   14.8289 C   0  0  0  0  0  0  0  0  0  0  0  0
   48.6593   10.0057   14.6793 C   0  0  0  0  0  0  0  0  0  0  0  0
   49.8789    6.2189   16.0590 C   0  0  0  0  0  0  0  0  0  0  0  0
   48.9602   11.3719   14.9306 C   0  0  0  0  0  0  0  0  0  0  0  0
   51.4102    6.5395   18.0561 N   0  0  0  0  0  0  0  0  0  0  0  0
   50.6896    7.2003   16.9421 C   0  0  0  0  0  0  0  0  0  0  0  0
   47.5060    5.0540   14.8062 C   0  0  0  0  0  0  0  0  0  0  0  0
   46.2094    6.4887   12.9251 C   0  0  0  0  0  0  0  0  0  0  0  0
   52.5634    5.7799   17.5590 C   0  0  0  0  0  0  0  0  0  0  0  0
   51.8692    7.5559   19.0114 C   0  0  0  0  0  0  0  0  0  0  0  0
   46.3605    4.5177   14.2053 C   0  0  0  0  0  0  0  0  0  0  0  0
   45.6961    5.2538   13.2405 C   0  0  0  0  0  0  0  0  0  0  0  0
   48.7563    8.7317   14.4057 C   0  0  0  0  0  0  0  0  0  0  0  0
   50.2995    6.3589   16.9402 C   0  0  0  0  0  0  0  0  0  0  0  0
   49.3601    8.1451   15.6069 C   0  0  0  0  0  0  0  0  0  0  0  0
   49.6945    6.8514   15.7006 C   0  0  0  0  0  0  0  0  0  0  0  0
   48.4358    9.9010   14.2955 O   0  0  0  0  0  0  0  0  0  0  0  0
   50.5546    6.9945   17.9437 O   0  0  0  0  0  0  0  0  0  0  0  0
   50.5602    5.0463   16.8362 O   0  0  0  0  0  0  0  0  0  0  0  0
   48.5546    7.8482   13.4157 O   0  0  0  0  0  0  0  0  0  0  0  0
   50.5054    6.5141   16.9083 C   0  0  0  0  0  0  0  0  0  0  0  0
   48.5617    8.5887   14.3934 C   0  0  0  0  0  0  0  0  0  0  0  0
   49.7344    6.8736   15.7180 C   0  0  0  0  0  0  0  0  0  0  0  0
   49.3347    8.1417   15.5555 C   0  0  0  0  0  0  0  0  0  0  0  0
   50.8558    7.2519   17.8093 O   0  0  0  0  0  0  0  0  0  0  0  0
   48.1933    9.7350   14.2129 O   0  0  0  0  0  0  0  0  0  0  0  0
   48.2701    7.6091   13.5241 O   0  0  0  0  0  0  0  0  0  0  0  0
   50.8048    5.2057   16.8944 O   0  0  0  0  0  0  0  0  0  0  0  0
   49.5343    8.5270   16.5623 H   0  0  0  0  0  0  0  0  0  0  0  0
   49.5389    6.1496   14.5733 H   0  0  0  0  0  0  0  0  0  0  0  0
   47.9645    9.7182   13.7674 H   0  0  0  0  0  0  0  0  0  0  0  0
   51.1041    4.9554   17.3774 H   0  0  0  0  0  0  0  0  0  0  0  0
   54.8826    7.4397   16.4654 H   0  0  0  0  0  0  0  0  0  0  0  0
   53.7379    9.0687   14.9653 H   0  0  0  0  0  0  0  0  0  0  0  0
   51.0059    6.1643   17.7673 H   0  0  0  0  0  0  0  0  0  0  0  0
   53.4474    5.9746   17.9005 H   0  0  0  0  0  0  0  0  0  0  0  0
   49.4276    5.9312   15.2129 H   0  0  0  0  0  0  0  0  0  0  0  0
   47.9315    6.7982   15.4276 H   0  0  0  0  0  0  0  0  0  0  0  0
   49.7210    9.8804   15.6509 H   0  0  0  0  0  0  0  0  0  0  0  0
   48.1345    9.1942   15.6383 H   0  0  0  0  0  0  0  0  0  0  0  0
   50.2371    8.3440   13.5655 H   0  0  0  0  0  0  0  0  0  0  0  0
   49.2927    9.8055   13.3536 H   0  0  0  0  0  0  0  0  0  0  0  0
   47.8020    7.0510   11.3334 H   0  0  0  0  0  0  0  0  0  0  0  0
   48.7526    8.5396   11.1836 H   0  0  0  0  0  0  0  0  0  0  0  0
   49.4887    7.0389   11.8042 H   0  0  0  0  0  0  0  0  0  0  0  0
   46.5666    8.9475   14.1672 H   0  0  0  0  0  0  0  0  0  0  0  0
   47.0140    9.6940   12.6220 H   0  0  0  0  0  0  0  0  0  0  0  0
   46.1520    8.1445   12.6717 H   0  0  0  0  0  0  0  0  0  0  0  0
   47.9396    7.3501   18.5726 H   0  0  0  0  0  0  0  0  0  0  0  0
   47.4176    5.4286   20.3258 H   0  0  0  0  0  0  0  0  0  0  0  0
   47.8545    3.0582   19.2758 H   0  0  0  0  0  0  0  0  0  0  0  0
   49.5292    7.6578   13.0340 H   0  0  0  0  0  0  0  0  0  0  0  0
   50.9065    7.4583   14.0551 H   0  0  0  0  0  0  0  0  0  0  0  0
   50.8195   12.5629   14.9672 H   0  0  0  0  0  0  0  0  0  0  0  0
   47.6619    9.5786   14.7037 H   0  0  0  0  0  0  0  0  0  0  0  0
   49.1991    5.6993   16.7452 H   0  0  0  0  0  0  0  0  0  0  0  0
   50.5307    5.4659   15.6007 H   0  0  0  0  0  0  0  0  0  0  0  0
   48.2243   12.1313   15.1674 H   0  0  0  0  0  0  0  0  0  0  0  0
   49.9703    7.9192   17.3563 H   0  0  0  0  0  0  0  0  0  0  0  0
   51.4003    7.7765   16.3368 H   0  0  0  0  0  0  0  0  0  0  0  0
   48.0041    4.4500   15.5574 H   0  0  0  0  0  0  0  0  0  0  0  0
   45.7367    7.1264   12.1736 H   0  0  0  0  0  0  0  0  0  0  0  0
   52.2515    4.9574   16.9004 H   0  0  0  0  0  0  0  0  0  0  0  0
   53.2667    6.4202   17.0073 H   0  0  0  0  0  0  0  0  0  0  0  0
   53.1015    5.3200   18.3955 H   0  0  0  0  0  0  0  0  0  0  0  0
   52.5320    8.2985   18.5466 H   0  0  0  0  0  0  0  0  0  0  0  0
   51.0102    8.0791   19.4522 H   0  0  0  0  0  0  0  0  0  0  0  0
   52.4095    7.0868   19.8400 H   0  0  0  0  0  0  0  0  0  0  0  0
   46.0001    3.5393   14.4908 H   0  0  0  0  0  0  0  0  0  0  0  0
   44.7987    4.8862   12.7550 H   0  0  0  0  0  0  0  0  0  0  0  0
   49.5302    8.8435   16.4202 H   0  0  0  0  0  0  0  0  0  0  0  0
   49.5482    6.1408   14.8958 H   0  0  0  0  0  0  0  0  0  0  0  0
   50.9654    4.8107   17.6961 H   0  0  0  0  0  0  0  0  0  0  0  0
   48.1394    8.3796   12.7045 H   0  0  0  0  0  0  0  0  0  0  0  0
   49.5145    6.0868   15.0093 H   0  0  0  0  0  0  0  0  0  0  0  0
   49.5711    8.9158   16.2785 H   0  0  0  0  0  0  0  0  0  0  0  0
   47.7444    8.0623   12.8326 H   0  0  0  0  0  0  0  0  0  0  0  0
   51.3085    5.0671   17.7247 H   0  0  0  0  0  0  0  0  0  0  0  0
  2  4  1  0
  3  1  1  0
  4  3  2  0
  5  1  2  0
  6  2  2  0
  7  2  1  0
  8  1  1  0
 15 17  1  0
 12 15  1  0
 17 18  1  0
 11 12  1  0
 18 19  1  0
 15 16  1  0
 19 20  1  0
 19 21  1  0
 16 22  1  0
 23 24  1  0
 12 13  2  0
 10 11  2  0
 13 14  1  0
 22 23  2  0
 24 25  2  0
 25 26  1  0
 26 22  1  0
 14  9  2  0
  9 10  1  0
 28 27  1  0
 29 31  1  0
 30 29  1  0
 31 27  1  0
 32 28  2  0
 33 30  1  0
 34 29  2  0
 35 27  1  0
 36 34  1  0
 37 38  1  0
 38 35  1  0
 39 28  1  0
 40 32  1  0
 41 37  1  0
 42 37  1  0
 43 39  2  0
 44 40  2  0
 36 33  2  0
 43 44  1  0
 46 48  1  0
 47 45  1  0
 48 47  2  0
 49 45  2  0
 50 46  2  0
 51 46  1  0
 52 45  1  0
 54 56  1  0
 55 53  1  0
 56 55  2  0
 57 53  2  0
 58 54  2  0
 59 54  1  0
 60 53  1  0
  3 61  1  0
  4 62  1  0
  7 63  1  0
  8 64  1  0
  9 65  1  0
 10 66  1  0
 13 67  1  0
 14 68  1  0
 16 69  1  0
 16 70  1  0
 17 71  1  0
 17 72  1  0
 18 73  1  0
 18 74  1  0
 20 75  1  0
 20 76  1  0
 20 77  1  0
 21 78  1  0
 21 79  1  0
 21 80  1  0
 23 81  1  0
 24 82  1  0
 25 83  1  0
 31 84  1  0
 31 85  1  0
 33 86  1  0
 34 87  1  0
 35 88  1  0
 35 89  1  0
 36 90  1  0
 38 91  1  0
 38 92  1  0
 39 93  1  0
 40 94  1  0
 41 95  1  0
 41 96  1  0
 41 97  1  0
 42 98  1  0
 42 99  1  0
 42100  1  0
 43101  1  0
 44102  1  0
 47103  1  0
 48104  1  0
 51105  1  0
 52106  1  0
 55107  1  0
 56108  1  0
 59109  1  0
 60110  1  0
M  END
> <Uni-Dock RESULT> 
ENERGY=   -5.624  LOWER_BOUND=    7.211  UPPER_BOUND=   10.672
INTER + INTRA:          -5.624
INTER:                  -5.624
INTRA:                   0.000
UNBOUND:                 0.000

$$$$

     RDKit          3D

110109  0  0  0  0  0  0  0  0999 V2000
   50.1386    8.8150   12.2050 C   0  0  0  0  0  0  0  0  0  0  0  0
   47.8843   11.8146   11.4347 C   0  0  0  0  0  0  0  0  0  0  0  0
   49.5326   10.1494   12.2040 C   0  0  0  0  0  0  0  0  0  0  0  0
   48.4875   10.4783   11.4324 C   0  0  0  0  0  0  0  0  0  0  0  0
   51.0728    8.4840   12.9125 O   0  0  0  0  0  0  0  0  0  0  0  0
   46.9283   12.1386   10.7540 O   0  0  0  0  0  0  0  0  0  0  0  0
   48.4718   12.6765   12.2775 O   0  0  0  0  0  0  0  0  0  0  0  0
   49.5640    7.9559   11.3509 O   0  0  0  0  0  0  0  0  0  0  0  0
   52.7648    9.3088    9.8523 C   0  0  0  0  0  0  0  0  0  0  0  0
   52.2584   10.5923    9.9048 C   0  0  0  0  0  0  0  0  0  0  0  0
   51.2311   10.9725   10.7002 N   0  0  0  0  0  0  0  0  0  0  0  0
   50.6342   10.0472   11.4897 C   0  0  0  0  0  0  0  0  0  0  0  0
   51.1202    8.7397   11.5065 C   0  0  0  0  0  0  0  0  0  0  0  0
   52.1848    8.3673   10.6823 C   0  0  0  0  0  0  0  0  0  0  0  0
   49.5667   10.4356   12.3142 N   0  0  0  0  0  0  0  0  0  0  0  0
   48.3543    9.5975   12.2507 C   0  0  0  0  0  0  0  0  0  0  0  0
   49.3215   11.8901   12.3599 C   0  0  0  0  0  0  0  0  0  0  0  0
   48.5905   12.4735   11.1199 C   0  0  0  0  0  0  0  0  0  0  0  0
   47.1196   12.2779   11.0926 N   0  0  0  0  0  0  0  0  0  0  0  0
   46.6066   12.5752    9.7512 C   0  0  0  0  0  0  0  0  0  0  0  0
   46.4494   13.1342   12.0738 C   0  0  0  0  0  0  0  0  0  0  0  0
   48.3202    8.4076   13.1798 C   0  0  0  0  0  0  0  0  0  0  0  0
   48.7701    8.3130   14.4821 C   0  0  0  0  0  0  0  0  0  0  0  0
   48.5708    7.0217   15.0432 C   0  0  0  0  0  0  0  0  0  0  0  0
   47.9574    6.1682   14.1532 C   0  0  0  0  0  0  0  0  0  0  0  0
   47.6261    6.9257   12.6553 S   0  0  0  0  0  0  0  0  0  0  0  0
   48.2267   10.2862   11.5270 N   0  0  0  0  0  0  0  0  0  0  0  0
   46.8397   10.2503   11.6477 C   0  0  0  0  0  0  0  0  0  0  0  0
   49.4552   12.4799   11.3698 C   0  0  0  0  0  0  0  0  0  0  0  0
   50.9599   13.0555   10.7890 S   0  0  0  0  0  0  0  0  0  0  0  0
   48.7278   11.3665   10.6572 C   0  0  0  0  0  0  0  0  0  0  0  0
   46.1765   11.4244   11.5752 N   0  0  0  0  0  0  0  0  0  0  0  0
   51.0698   14.2142   12.0406 C   0  0  0  0  0  0  0  0  0  0  0  0
   49.0441   13.1842   12.4838 C   0  0  0  0  0  0  0  0  0  0  0  0
   49.0347    9.0594   11.6372 C   0  0  0  0  0  0  0  0  0  0  0  0
   49.9760   14.1824   12.8783 C   0  0  0  0  0  0  0  0  0  0  0  0
   51.3054    8.1035   12.2423 N   0  0  0  0  0  0  0  0  0  0  0  0
   50.4978    9.3339   12.0661 C   0  0  0  0  0  0  0  0  0  0  0  0
   46.1172    9.0735   11.8506 C   0  0  0  0  0  0  0  0  0  0  0  0
   44.8278   11.4381   11.6951 C   0  0  0  0  0  0  0  0  0  0  0  0
   51.6288    7.4969   10.9457 C   0  0  0  0  0  0  0  0  0  0  0  0
   52.5483    8.4330   12.9516 C   0  0  0  0  0  0  0  0  0  0  0  0
   44.7218    9.1007   11.9640 C   0  0  0  0  0  0  0  0  0  0  0  0
   44.0611   10.3137   11.8839 C   0  0  0  0  0  0  0  0  0  0  0  0
   48.4461   12.2081   11.8538 C   0  0  0  0  0  0  0  0  0  0  0  0
   49.8402    8.6799   12.0615 C   0  0  0  0  0  0  0  0  0  0  0  0
   49.2374   11.0190   12.1874 C   0  0  0  0  0  0  0  0  0  0  0  0
   48.9896    9.8072   11.6732 C   0  0  0  0  0  0  0  0  0  0  0  0
   48.6438   13.3189   12.3112 O   0  0  0  0  0  0  0  0  0  0  0  0
   50.7882    8.6942   12.8214 O   0  0  0  0  0  0  0  0  0  0  0  0
   49.4329    7.5604   11.4429 O   0  0  0  0  0  0  0  0  0  0  0  0
   47.4404   11.9656   10.9986 O   0  0  0  0  0  0  0  0  0  0  0  0
   50.0488    8.7934   11.9560 C   0  0  0  0  0  0  0  0  0  0  0  0
   48.2300   12.1247   11.9235 C   0  0  0  0  0  0  0  0  0  0  0  0
   49.0380    9.8110   11.6677 C   0  0  0  0  0  0  0  0  0  0  0  0
   49.1918   11.0454   12.1646 C   0  0  0  0  0  0  0  0  0  0  0  0
   51.0639    8.9287   12.6118 O   0  0  0  0  0  0  0  0  0  0  0  0
   48.3475   13.2580   12.3525 O   0  0  0  0  0  0  0  0  0  0  0  0
   47.1726   11.7565   11.1842 O   0  0  0  0  0  0  0  0  0  0  0  0
   49.7162    7.6272   11.3806 O   0  0  0  0  0  0  0  0  0  0  0  0
   49.9923   10.8529   12.8885 H   0  0  0  0  0  0  0  0  0  0  0  0
   48.0305    9.7793   10.7421 H   0  0  0  0  0  0  0  0  0  0  0  0
   47.9508   13.4989   12.1637 H   0  0  0  0  0  0  0  0  0  0  0  0
   50.0716    7.1270   11.4756 H   0  0  0  0  0  0  0  0  0  0  0  0
   53.5878    9.0554    9.1956 H   0  0  0  0  0  0  0  0  0  0  0  0
   52.6806   11.3757    9.2809 H   0  0  0  0  0  0  0  0  0  0  0  0
   50.6970    7.9910   12.1723 H   0  0  0  0  0  0  0  0  0  0  0  0
   52.5538    7.3472   10.7052 H   0  0  0  0  0  0  0  0  0  0  0  0
   48.1597    9.3005   11.2146 H   0  0  0  0  0  0  0  0  0  0  0  0
   47.4831   10.1948   12.5482 H   0  0  0  0  0  0  0  0  0  0  0  0
   50.2724   12.4240   12.5007 H   0  0  0  0  0  0  0  0  0  0  0  0
   48.7576   12.1124   13.2727 H   0  0  0  0  0  0  0  0  0  0  0  0
   49.0139   12.0310   10.2121 H   0  0  0  0  0  0  0  0  0  0  0  0
   48.8082   13.5481   11.0658 H   0  0  0  0  0  0  0  0  0  0  0  0
   45.5239   12.4214    9.7114 H   0  0  0  0  0  0  0  0  0  0  0  0
   46.8134   13.6084    9.4469 H   0  0  0  0  0  0  0  0  0  0  0  0
   47.0391   11.8947    9.0091 H   0  0  0  0  0  0  0  0  0  0  0  0
   46.7429   12.8824   13.0959 H   0  0  0  0  0  0  0  0  0  0  0  0
   46.6608   14.1964   11.9077 H   0  0  0  0  0  0  0  0  0  0  0  0
   45.3652   12.9907   12.0266 H   0  0  0  0  0  0  0  0  0  0  0  0
   49.2348    9.1398   15.0005 H   0  0  0  0  0  0  0  0  0  0  0  0
   48.8606    6.7301   16.0454 H   0  0  0  0  0  0  0  0  0  0  0  0
   47.6846    5.1329   14.3196 H   0  0  0  0  0  0  0  0  0  0  0  0
   47.9239   11.8214   10.0621 H   0  0  0  0  0  0  0  0  0  0  0  0
   49.3867   10.9197    9.8985 H   0  0  0  0  0  0  0  0  0  0  0  0
   51.9260   14.8686   12.1017 H   0  0  0  0  0  0  0  0  0  0  0  0
   48.1092   12.9762   12.9940 H   0  0  0  0  0  0  0  0  0  0  0  0
   48.6221    8.3967   12.4077 H   0  0  0  0  0  0  0  0  0  0  0  0
   48.9948    8.5250   10.6807 H   0  0  0  0  0  0  0  0  0  0  0  0
   49.8476   14.8440   13.7268 H   0  0  0  0  0  0  0  0  0  0  0  0
   50.4503    9.8720   13.0222 H   0  0  0  0  0  0  0  0  0  0  0  0
   50.9970   10.0006   11.3521 H   0  0  0  0  0  0  0  0  0  0  0  0
   46.6038    8.1060   11.9158 H   0  0  0  0  0  0  0  0  0  0  0  0
   44.3748   12.4303   11.6237 H   0  0  0  0  0  0  0  0  0  0  0  0
   50.7237    7.1646   10.4184 H   0  0  0  0  0  0  0  0  0  0  0  0
   52.1754    8.1938   10.2941 H   0  0  0  0  0  0  0  0  0  0  0  0
   52.2484    6.6047   11.0904 H   0  0  0  0  0  0  0  0  0  0  0  0
   53.1489    9.1823   12.4182 H   0  0  0  0  0  0  0  0  0  0  0  0
   52.3231    8.8141   13.9567 H   0  0  0  0  0  0  0  0  0  0  0  0
   53.1617    7.5363   13.0865 H   0  0  0  0  0  0  0  0  0  0  0  0
   44.1669    8.1848   12.1110 H   0  0  0  0  0  0  0  0  0  0  0  0
   42.9831   10.3872   11.9773 H   0  0  0  0  0  0  0  0  0  0  0  0
   50.0553   11.1940   12.8792 H   0  0  0  0  0  0  0  0  0  0  0  0
   48.1888    9.6136   10.9694 H   0  0  0  0  0  0  0  0  0  0  0  0
   50.0569    6.8719   11.7520 H   0  0  0  0  0  0  0  0  0  0  0  0
   47.0058   12.8374   10.8903 H   0  0  0  0  0  0  0  0  0  0  0  0
   48.1946    9.5179   11.0574 H   0  0  0  0  0  0  0  0  0  0  0  0
   50.0493   11.3178   12.7715 H   0  0  0  0  0  0  0  0  0  0  0  0
   46.6294   12.5705   11.1358 H   0  0  0  0  0  0  0  0  0  0  0  0
   50.4428    7.0193   11.6353 H   0  0  0  0  0  0  0  0  0  0  0  0
  2  4  1  0
  3  1  1  0
  4  3  2  0
  5  1  2  0
  6  2  2  0
  7  2  1  0
  8  1  1  0
 15 17  1  0
 12 15  1  0
 17 18  1  0
 11 12  1  0
 18 19  1  0
 15 16  1  0
 19 20  1  0
 19 21  1  0
 16 22  1  0
 23 24  1  0
 12 13  2  0
 10 11  2  0
 13 14  1  0
 22 23  2  0
 24 25  2  0
 25 26  1  0
 26 22  1  0
 14  9  2  0
  9 10  1  0
 28 27  1  0
 29 31  1  0
 30 29  1  0
 31 27  1  0
 32 28  2  0
 33 30  1  0
 34 29  2  0
 35 27  1  0
 36 34  1  0
 37 38  1  0
 38 35  1  0
 39 28  1  0
 40 32  1  0
 41 37  1  0
 42 37  1  0
 43 39  2  0
 44 40  2  0
 36 33  2  0
 43 44  1  0
 46 48  1  0
 47 45  1  0
 48 47  2  0
 49 45  2  0
 50 46  2  0
 51 46  1  0
 52 45  1  0
 54 56  1  0
 55 53  1  0
 56 55  2  0
 57 53  2  0
 58 54  2  0
 59 54  1  0
 60 53  1  0
  3 61  1  0
  4 62  1  0
  7 63  1  0
  8 64  1  0
  9 65  1  0
 10 66  1  0
 13 67  1  0
 14 68  1  0
 16 69  1  0
 16 70  1  0
 17 71  1  0
 17 72  1  0
 18 73  1  0
 18 74  1  0
 20 75  1  0
 20 76  1  0
 20 77  1  0
 21 78  1  0
 21 79  1  0
 21 80  1  0
 23 81  1  0
 24 82  1  0
 25 83  1  0
 31 84  1  0
 31 85  1  0
 33 86  1  0
 34 87  1  0
 35 88  1  0
 35 89  1  0
 36 90  1  0
 38 91  1  0
 38 92  1  0
 39 93  1  0
 40 94  1  0
 41 95  1  0
 41 96  1  0
 41 97  1  0
 42 98  1  0
 42 99  1  0
 42100  1  0
 43101  1  0
 44102  1  0
 47103  1  0
 48104  1  0
 51105  1  0
 52106  1  0
 55107  1  0
 56108  1  0
 59109  1  0
 60110  1  0
M  END
> <Uni-Dock RESULT> 
ENERGY=   -5.622  LOWER_BOUND=    4.533  UPPER_BOUND=    7.434
INTER + INTRA:          -5.622
INTER:                  -5.622
INTRA:                   0.000
UNBOUND:                 0.000

$$$$

     RDKit          3D

110109  0  0  0  0  0  0  0  0999 V2000
   48.9406    7.7678   14.3263 C   0  0  0  0  0  0  0  0  0  0  0  0
   50.5603    6.2542   17.4501 C   0  0  0  0  0  0  0  0  0  0  0  0
   49.2120    7.3636   15.7086 C   0  0  0  0  0  0  0  0  0  0  0  0
   50.2927    6.6564   16.0660 C   0  0  0  0  0  0  0  0  0  0  0  0
   47.9792    8.4295   13.9790 O   0  0  0  0  0  0  0  0  0  0  0  0
   51.5384    5.6223   17.8057 O   0  0  0  0  0  0  0  0  0  0  0  0
   49.6275    6.6575   18.3251 O   0  0  0  0  0  0  0  0  0  0  0  0
   49.8629    7.3514   13.4467 O   0  0  0  0  0  0  0  0  0  0  0  0
   46.8271    5.0975   13.2876 C   0  0  0  0  0  0  0  0  0  0  0  0
   47.0041    4.7491   14.6119 C   0  0  0  0  0  0  0  0  0  0  0  0
   47.7262    5.4734   15.4987 N   0  0  0  0  0  0  0  0  0  0  0  0
   48.3387    6.6063   15.0776 C   0  0  0  0  0  0  0  0  0  0  0  0
   48.1719    7.0299   13.7589 C   0  0  0  0  0  0  0  0  0  0  0  0
   47.4187    6.2717   12.8595 C   0  0  0  0  0  0  0  0  0  0  0  0
   49.0910    7.3595   15.9925 N   0  0  0  0  0  0  0  0  0  0  0  0
   50.4482    7.7446   15.5611 C   0  0  0  0  0  0  0  0  0  0  0  0
   48.9822    6.9126   17.3947 C   0  0  0  0  0  0  0  0  0  0  0  0
   49.8049    5.6431   17.7465 C   0  0  0  0  0  0  0  0  0  0  0  0
   51.2534    5.8635   17.9825 N   0  0  0  0  0  0  0  0  0  0  0  0
   51.9556    4.5760   17.9811 C   0  0  0  0  0  0  0  0  0  0  0  0
   51.4881    6.5476   19.2563 C   0  0  0  0  0  0  0  0  0  0  0  0
   50.5567    9.0338   14.7824 C   0  0  0  0  0  0  0  0  0  0  0  0
   49.8764   10.2204   14.9735 C   0  0  0  0  0  0  0  0  0  0  0  0
   50.2426   11.2245   14.0356 C   0  0  0  0  0  0  0  0  0  0  0  0
   51.2081   10.7776   13.1610 C   0  0  0  0  0  0  0  0  0  0  0  0
   51.6655    9.1592   13.4755 S   0  0  0  0  0  0  0  0  0  0  0  0
   50.5646    6.8437   15.9961 N   0  0  0  0  0  0  0  0  0  0  0  0
   51.8657    7.1343   16.3990 C   0  0  0  0  0  0  0  0  0  0  0  0
   48.9289    5.7689   17.5822 C   0  0  0  0  0  0  0  0  0  0  0  0
   47.4895    4.8455   17.4912 S   0  0  0  0  0  0  0  0  0  0  0  0
   50.0247    5.5926   16.5601 C   0  0  0  0  0  0  0  0  0  0  0  0
   52.2431    6.7278   17.6302 N   0  0  0  0  0  0  0  0  0  0  0  0
   46.8567    5.5790   18.8993 C   0  0  0  0  0  0  0  0  0  0  0  0
   48.9241    6.5992   18.6852 C   0  0  0  0  0  0  0  0  0  0  0  0
   50.0536    7.2865   14.6874 C   0  0  0  0  0  0  0  0  0  0  0  0
   47.7273    6.4974   19.4452 C   0  0  0  0  0  0  0  0  0  0  0  0
   47.9862    7.9164   13.3588 N   0  0  0  0  0  0  0  0  0  0  0  0
   48.5099    7.4111   14.6501 C   0  0  0  0  0  0  0  0  0  0  0  0
   52.7785    7.8283   15.6033 C   0  0  0  0  0  0  0  0  0  0  0  0
   53.4967    6.9954   18.0667 C   0  0  0  0  0  0  0  0  0  0  0  0
   48.0905    6.8926   12.3125 C   0  0  0  0  0  0  0  0  0  0  0  0
   46.5802    8.3075   13.5219 C   0  0  0  0  0  0  0  0  0  0  0  0
   54.0747    8.0905   16.0634 C   0  0  0  0  0  0  0  0  0  0  0  0
   54.4426    7.6630   17.3268 C   0  0  0  0  0  0  0  0  0  0  0  0
   49.8482    6.4350   17.7761 C   0  0  0  0  0  0  0  0  0  0  0  0
   49.2853    7.7186   14.2448 C   0  0  0  0  0  0  0  0  0  0  0  0
   49.2974    7.0735   16.5759 C   0  0  0  0  0  0  0  0  0  0  0  0
   49.9181    7.0587   15.3890 C   0  0  0  0  0  0  0  0  0  0  0  0
   49.3102    6.4391   18.8683 O   0  0  0  0  0  0  0  0  0  0  0  0
   48.2210    8.3042   14.2226 O   0  0  0  0  0  0  0  0  0  0  0  0
   50.0585    7.5933   13.1547 O   0  0  0  0  0  0  0  0  0  0  0  0
   51.0396    5.8494   17.5784 O   0  0  0  0  0  0  0  0  0  0  0  0
   49.0833    7.5555   14.2549 C   0  0  0  0  0  0  0  0  0  0  0  0
   50.0579    6.5552   17.7842 C   0  0  0  0  0  0  0  0  0  0  0  0
   49.8723    7.0464   15.3768 C   0  0  0  0  0  0  0  0  0  0  0  0
   49.3395    7.0483   16.6057 C   0  0  0  0  0  0  0  0  0  0  0  0
   47.9494    7.9934   14.2907 O   0  0  0  0  0  0  0  0  0  0  0  0
   49.5970    6.5346   18.9109 O   0  0  0  0  0  0  0  0  0  0  0  0
   51.3028    6.1280   17.5236 O   0  0  0  0  0  0  0  0  0  0  0  0
   49.7870    7.4779   13.1145 O   0  0  0  0  0  0  0  0  0  0  0  0
   48.4701    7.6919   16.4274 H   0  0  0  0  0  0  0  0  0  0  0  0
   51.0322    6.3207   15.3486 H   0  0  0  0  0  0  0  0  0  0  0  0
   49.9588    6.3213   19.1841 H   0  0  0  0  0  0  0  0  0  0  0  0
   49.5435    7.7017   12.5890 H   0  0  0  0  0  0  0  0  0  0  0  0
   46.2410    4.4809   12.6173 H   0  0  0  0  0  0  0  0  0  0  0  0
   46.5554    3.8412   15.0061 H   0  0  0  0  0  0  0  0  0  0  0  0
   48.6049    7.9644   13.4095 H   0  0  0  0  0  0  0  0  0  0  0  0
   47.2961    6.6124   11.8368 H   0  0  0  0  0  0  0  0  0  0  0  0
   50.9192    6.9137   15.0250 H   0  0  0  0  0  0  0  0  0  0  0  0
   51.0772    7.9115   16.4448 H   0  0  0  0  0  0  0  0  0  0  0  0
   47.9267    6.7390   17.6495 H   0  0  0  0  0  0  0  0  0  0  0  0
   49.2751    7.7467   18.0421 H   0  0  0  0  0  0  0  0  0  0  0  0
   49.6947    4.9090   16.9414 H   0  0  0  0  0  0  0  0  0  0  0  0
   49.3639    5.1838   18.6407 H   0  0  0  0  0  0  0  0  0  0  0  0
   53.0283    4.7235   18.1399 H   0  0  0  0  0  0  0  0  0  0  0  0
   51.5871    3.9009   18.7630 H   0  0  0  0  0  0  0  0  0  0  0  0
   51.8562    4.0792   17.0094 H   0  0  0  0  0  0  0  0  0  0  0  0
   51.0514    7.5493   19.2624 H   0  0  0  0  0  0  0  0  0  0  0  0
   51.0796    5.9896   20.1061 H   0  0  0  0  0  0  0  0  0  0  0  0
   52.5614    6.6847   19.4224 H   0  0  0  0  0  0  0  0  0  0  0  0
   49.1367   10.3503   15.7507 H   0  0  0  0  0  0  0  0  0  0  0  0
   49.8228   12.2225   14.0005 H   0  0  0  0  0  0  0  0  0  0  0  0
   51.6689   11.3335   12.3531 H   0  0  0  0  0  0  0  0  0  0  0  0
   50.8102    4.9752   17.0174 H   0  0  0  0  0  0  0  0  0  0  0  0
   49.6603    4.9701   15.7301 H   0  0  0  0  0  0  0  0  0  0  0  0
   45.8805    5.2998   19.2657 H   0  0  0  0  0  0  0  0  0  0  0  0
   49.7528    7.2580   18.9239 H   0  0  0  0  0  0  0  0  0  0  0  0
   50.4349    8.2861   14.4454 H   0  0  0  0  0  0  0  0  0  0  0  0
   50.4150    6.5955   13.9167 H   0  0  0  0  0  0  0  0  0  0  0  0
   47.5194    7.0631   20.3457 H   0  0  0  0  0  0  0  0  0  0  0  0
   48.2308    8.1108   15.4491 H   0  0  0  0  0  0  0  0  0  0  0  0
   48.0334    6.4521   14.8885 H   0  0  0  0  0  0  0  0  0  0  0  0
   52.5233    8.1754   14.6075 H   0  0  0  0  0  0  0  0  0  0  0  0
   53.7157    6.6297   19.0733 H   0  0  0  0  0  0  0  0  0  0  0  0
   49.1377    6.6307   12.1067 H   0  0  0  0  0  0  0  0  0  0  0  0
   47.5490    5.9749   12.5841 H   0  0  0  0  0  0  0  0  0  0  0  0
   47.6750    7.2706   11.3716 H   0  0  0  0  0  0  0  0  0  0  0  0
   45.9505    7.4742   13.8622 H   0  0  0  0  0  0  0  0  0  0  0  0
   46.4955    9.1298   14.2448 H   0  0  0  0  0  0  0  0  0  0  0  0
   46.1735    8.6788   12.5756 H   0  0  0  0  0  0  0  0  0  0  0  0
   54.7805    8.6198   15.4386 H   0  0  0  0  0  0  0  0  0  0  0  0
   55.4307    7.8522   17.7316 H   0  0  0  0  0  0  0  0  0  0  0  0
   48.3343    7.5542   16.7154 H   0  0  0  0  0  0  0  0  0  0  0  0
   50.8717    6.5714   15.2239 H   0  0  0  0  0  0  0  0  0  0  0  0
   49.5575    8.0506   12.4483 H   0  0  0  0  0  0  0  0  0  0  0  0
   51.2764    5.4902   18.4591 H   0  0  0  0  0  0  0  0  0  0  0  0
   50.8696    6.6863   15.1630 H   0  0  0  0  0  0  0  0  0  0  0  0
   48.3344    7.4110   16.7957 H   0  0  0  0  0  0  0  0  0  0  0  0
   51.6433    5.8579   18.4017 H   0  0  0  0  0  0  0  0  0  0  0  0
   49.1817    7.8437   12.4348 H   0  0  0  0  0  0  0  0  0  0  0  0
  2  4  1  0
  3  1  1  0
  4  3  2  0
  5  1  2  0
  6  2  2  0
  7  2  1  0
  8  1  1  0
 15 17  1  0
 12 15  1  0
 17 18  1  0
 11 12  1  0
 18 19  1  0
 15 16  1  0
 19 20  1  0
 19 21  1  0
 16 22  1  0
 23 24  1  0
 12 13  2  0
 10 11  2  0
 13 14  1  0
 22 23  2  0
 24 25  2  0
 25 26  1  0
 26 22  1  0
 14  9  2  0
  9 10  1  0
 28 27  1  0
 29 31  1  0
 30 29  1  0
 31 27  1  0
 32 28  2  0
 33 30  1  0
 34 29  2  0
 35 27  1  0
 36 34  1  0
 37 38  1  0
 38 35  1  0
 39 28  1  0
 40 32  1  0
 41 37  1  0
 42 37  1  0
 43 39  2  0
 44 40  2  0
 36 33  2  0
 43 44  1  0
 46 48  1  0
 47 45  1  0
 48 47  2  0
 49 45  2  0
 50 46  2  0
 51 46  1  0
 52 45  1  0
 54 56  1  0
 55 53  1  0
 56 55  2  0
 57 53  2  0
 58 54  2  0
 59 54  1  0
 60 53  1  0
  3 61  1  0
  4 62  1  0
  7 63  1  0
  8 64  1  0
  9 65  1  0
 10 66  1  0
 13 67  1  0
 14 68  1  0
 16 69  1  0
 16 70  1  0
 17 71  1  0
 17 72  1  0
 18 73  1  0
 18 74  1  0
 20 75  1  0
 20 76  1  0
 20 77  1  0
 21 78  1  0
 21 79  1  0
 21 80  1  0
 23 81  1  0
 24 82  1  0
 25 83  1  0
 31 84  1  0
 31 85  1  0
 33 86  1  0
 34 87  1  0
 35 88  1  0
 35 89  1  0
 36 90  1  0
 38 91  1  0
 38 92  1  0
 39 93  1  0
 40 94  1  0
 41 95  1  0
 41 96  1  0
 41 97  1  0
 42 98  1  0
 42 99  1  0
 42100  1  0
 43101  1  0
 44102  1  0
 47103  1  0
 48104  1  0
 51105  1  0
 52106  1  0
 55107  1  0
 56108  1  0
 59109  1  0
 60110  1  0
M  END
> <Uni-Dock RESULT> 
ENERGY=   -5.617  LOWER_BOUND=    7.636  UPPER_BOUND=   10.997
INTER + INTRA:          -5.617
INTER:                  -5.617
INTRA:                   0.000
UNBOUND:                 0.000

$$$$
