
     RDKit          3D

110109  0  0  0  0  0  0  0  0999 V2000
   48.4857    6.1404   17.6605 C   0  0  0  0  0  0  0  0  0  0  0  0
   50.7161    7.6551   14.9378 C   0  0  0  0  0  0  0  0  0  0  0  0
   49.0185    6.5748   16.3656 C   0  0  0  0  0  0  0  0  0  0  0  0
   50.1810    7.2287   16.2336 C   0  0  0  0  0  0  0  0  0  0  0  0
   47.4474    5.5213   17.8041 O   0  0  0  0  0  0  0  0  0  0  0  0
   51.7661    8.2542   14.7904 O   0  0  0  0  0  0  0  0  0  0  0  0
   49.9389    7.3243   13.8954 O   0  0  0  0  0  0  0  0  0  0  0  0
   49.2498    6.4862   18.7079 O   0  0  0  0  0  0  0  0  0  0  0  0
   54.0926    8.3132   16.1562 C   0  0  0  0  0  0  0  0  0  0  0  0
   53.1210    9.1860   15.7095 C   0  0  0  0  0  0  0  0  0  0  0  0
   51.8216    8.8546   15.5578 N   0  0  0  0  0  0  0  0  0  0  0  0
   51.4260    7.6019   15.8839 C   0  0  0  0  0  0  0  0  0  0  0  0
   52.3526    6.6665   16.3545 C   0  0  0  0  0  0  0  0  0  0  0  0
   53.6944    7.0236   16.4817 C   0  0  0  0  0  0  0  0  0  0  0  0
   50.0719    7.3134   15.6817 N   0  0  0  0  0  0  0  0  0  0  0  0
   49.8184    7.2356   14.2313 C   0  0  0  0  0  0  0  0  0  0  0  0
   49.4380    6.2788   16.5146 C   0  0  0  0  0  0  0  0  0  0  0  0
   49.3398    6.7174   17.9954 C   0  0  0  0  0  0  0  0  0  0  0  0
   48.6926    5.7188   18.8862 N   0  0  0  0  0  0  0  0  0  0  0  0
   47.2625    5.5777   18.5893 C   0  0  0  0  0  0  0  0  0  0  0  0
   48.8565    6.1439   20.2812 C   0  0  0  0  0  0  0  0  0  0  0  0
   48.3770    7.2403   13.7921 C   0  0  0  0  0  0  0  0  0  0  0  0
   47.6539    6.2117   13.2240 C   0  0  0  0  0  0  0  0  0  0  0  0
   46.3233    6.6036   12.8958 C   0  0  0  0  0  0  0  0  0  0  0  0
   46.0759    7.9157   13.2157 C   0  0  0  0  0  0  0  0  0  0  0  0
   47.4339    8.6679   13.9356 S   0  0  0  0  0  0  0  0  0  0  0  0
   49.2915    7.1893   16.5989 N   0  0  0  0  0  0  0  0  0  0  0  0
   48.6031    6.0232   16.9340 C   0  0  0  0  0  0  0  0  0  0  0  0
   50.1834    7.8791   18.8601 C   0  0  0  0  0  0  0  0  0  0  0  0
   49.4991    8.2089   20.4022 S   0  0  0  0  0  0  0  0  0  0  0  0
   49.4551    8.2666   17.5917 C   0  0  0  0  0  0  0  0  0  0  0  0
   48.9623    4.8975   16.2755 N   0  0  0  0  0  0  0  0  0  0  0  0
   50.8203    7.4931   21.2101 C   0  0  0  0  0  0  0  0  0  0  0  0
   51.4178    7.2707   18.9759 C   0  0  0  0  0  0  0  0  0  0  0  0
   48.9947    7.6226   15.2219 C   0  0  0  0  0  0  0  0  0  0  0  0
   51.7900    7.0526   20.3307 C   0  0  0  0  0  0  0  0  0  0  0  0
   50.0742    8.4771   13.0970 N   0  0  0  0  0  0  0  0  0  0  0  0
   50.2957    7.8149   14.4069 C   0  0  0  0  0  0  0  0  0  0  0  0
   47.5791    5.9936   17.8875 C   0  0  0  0  0  0  0  0  0  0  0  0
   48.3333    3.7401   16.5884 C   0  0  0  0  0  0  0  0  0  0  0  0
   51.3514    8.8937   12.5103 C   0  0  0  0  0  0  0  0  0  0  0  0
   49.3679    7.5949   12.1595 C   0  0  0  0  0  0  0  0  0  0  0  0
   46.9316    4.7919   18.1826 C   0  0  0  0  0  0  0  0  0  0  0  0
   47.3219    3.6371   17.5286 C   0  0  0  0  0  0  0  0  0  0  0  0
   49.7591    6.2777   18.0471 C   0  0  0  0  0  0  0  0  0  0  0  0
   49.1161    6.8379   14.3525 C   0  0  0  0  0  0  0  0  0  0  0  0
   49.9878    6.6504   16.6513 C   0  0  0  0  0  0  0  0  0  0  0  0
   48.9947    6.4840   15.7683 C   0  0  0  0  0  0  0  0  0  0  0  0
   48.7435    5.8154   18.5289 O   0  0  0  0  0  0  0  0  0  0  0  0
   48.2332    6.7030   13.5256 O   0  0  0  0  0  0  0  0  0  0  0  0
   50.3199    7.3349   14.0288 O   0  0  0  0  0  0  0  0  0  0  0  0
   50.8634    6.5091   18.7726 O   0  0  0  0  0  0  0  0  0  0  0  0
   48.7976    6.4607   17.9683 C   0  0  0  0  0  0  0  0  0  0  0  0
   50.2637    7.9804   14.7719 C   0  0  0  0  0  0  0  0  0  0  0  0
   48.9684    6.9318   16.5909 C   0  0  0  0  0  0  0  0  0  0  0  0
   50.0941    7.5106   16.1494 C   0  0  0  0  0  0  0  0  0  0  0  0
   47.7847    5.9394   18.3975 O   0  0  0  0  0  0  0  0  0  0  0  0
   51.2734    8.5101   14.3440 O   0  0  0  0  0  0  0  0  0  0  0  0
   49.1956    7.7659   13.9904 O   0  0  0  0  0  0  0  0  0  0  0  0
   49.8713    6.6585   18.7461 O   0  0  0  0  0  0  0  0  0  0  0  0
   48.4015    6.3146   15.5119 H   0  0  0  0  0  0  0  0  0  0  0  0
   50.7939    7.4952   17.0859 H   0  0  0  0  0  0  0  0  0  0  0  0
   50.4222    7.6931   13.1263 H   0  0  0  0  0  0  0  0  0  0  0  0
   48.7569    6.1393   19.4815 H   0  0  0  0  0  0  0  0  0  0  0  0
   55.1259    8.6194   16.2442 H   0  0  0  0  0  0  0  0  0  0  0  0
   53.3710   10.2130   15.4408 H   0  0  0  0  0  0  0  0  0  0  0  0
   52.0657    5.6479   16.5976 H   0  0  0  0  0  0  0  0  0  0  0  0
   54.4270    6.2920   16.8239 H   0  0  0  0  0  0  0  0  0  0  0  0
   50.2784    6.3148   13.8471 H   0  0  0  0  0  0  0  0  0  0  0  0
   50.3104    8.0613   13.6991 H   0  0  0  0  0  0  0  0  0  0  0  0
   49.9469    5.3146   16.4160 H   0  0  0  0  0  0  0  0  0  0  0  0
   48.4184    6.1174   16.1545 H   0  0  0  0  0  0  0  0  0  0  0  0
   48.8124    7.6819   18.0629 H   0  0  0  0  0  0  0  0  0  0  0  0
   50.3560    6.9063   18.3723 H   0  0  0  0  0  0  0  0  0  0  0  0
   46.7396    6.5406   18.6200 H   0  0  0  0  0  0  0  0  0  0  0  0
   46.7910    4.9032   19.3171 H   0  0  0  0  0  0  0  0  0  0  0  0
   47.1042    5.1211   17.6076 H   0  0  0  0  0  0  0  0  0  0  0  0
   48.3848    7.1120   20.4685 H   0  0  0  0  0  0  0  0  0  0  0  0
   48.4123    5.4062   20.9559 H   0  0  0  0  0  0  0  0  0  0  0  0
   49.9161    6.2066   20.5458 H   0  0  0  0  0  0  0  0  0  0  0  0
   48.0594    5.2240   13.0449 H   0  0  0  0  0  0  0  0  0  0  0  0
   45.5927    5.9496   12.4322 H   0  0  0  0  0  0  0  0  0  0  0  0
   45.1683    8.4814   13.0662 H   0  0  0  0  0  0  0  0  0  0  0  0
   50.0619    9.0620   17.1295 H   0  0  0  0  0  0  0  0  0  0  0  0
   48.4883    8.7341   17.8114 H   0  0  0  0  0  0  0  0  0  0  0  0
   50.8307    7.4452   22.2884 H   0  0  0  0  0  0  0  0  0  0  0  0
   52.0129    6.9755   18.1132 H   0  0  0  0  0  0  0  0  0  0  0  0
   48.3527    6.9029   14.6970 H   0  0  0  0  0  0  0  0  0  0  0  0
   48.4250    8.5650   15.2503 H   0  0  0  0  0  0  0  0  0  0  0  0
   52.7102    6.5757   20.6476 H   0  0  0  0  0  0  0  0  0  0  0  0
   50.9780    8.4378   15.0031 H   0  0  0  0  0  0  0  0  0  0  0  0
   50.7929    6.8435   14.2780 H   0  0  0  0  0  0  0  0  0  0  0  0
   47.2582    6.8950   18.3920 H   0  0  0  0  0  0  0  0  0  0  0  0
   48.6771    2.8625   16.0569 H   0  0  0  0  0  0  0  0  0  0  0  0
   51.8478    9.6202   13.1667 H   0  0  0  0  0  0  0  0  0  0  0  0
   51.1896    9.3988   11.5442 H   0  0  0  0  0  0  0  0  0  0  0  0
   52.0237    8.0413   12.3414 H   0  0  0  0  0  0  0  0  0  0  0  0
   48.3676    7.3616   12.5241 H   0  0  0  0  0  0  0  0  0  0  0  0
   49.9131    6.6630   11.9751 H   0  0  0  0  0  0  0  0  0  0  0  0
   49.2197    8.0957   11.1990 H   0  0  0  0  0  0  0  0  0  0  0  0
   46.1345    4.7741   18.9170 H   0  0  0  0  0  0  0  0  0  0  0  0
   46.8588    2.6812   17.7517 H   0  0  0  0  0  0  0  0  0  0  0  0
   50.9583    7.0508   16.3904 H   0  0  0  0  0  0  0  0  0  0  0  0
   48.0316    6.0793   16.0559 H   0  0  0  0  0  0  0  0  0  0  0  0
   50.2554    7.5201   13.0688 H   0  0  0  0  0  0  0  0  0  0  0  0
   50.6197    6.2285   19.6794 H   0  0  0  0  0  0  0  0  0  0  0  0
   48.1113    6.7642   15.9469 H   0  0  0  0  0  0  0  0  0  0  0  0
   50.9489    7.6783   16.7945 H   0  0  0  0  0  0  0  0  0  0  0  0
   49.4705    8.1172   13.1180 H   0  0  0  0  0  0  0  0  0  0  0  0
   49.6010    6.2863   19.6110 H   0  0  0  0  0  0  0  0  0  0  0  0
  2  4  1  0
  3  1  1  0
  4  3  2  0
  5  1  2  0
  6  2  2  0
  7  2  1  0
  8  1  1  0
 15 17  1  0
 12 15  1  0
 17 18  1  0
 11 12  1  0
 18 19  1  0
 15 16  1  0
 19 20  1  0
 19 21  1  0
 16 22  1  0
 23 24  1  0
 12 13  2  0
 10 11  2  0
 13 14  1  0
 22 23  2  0
 24 25  2  0
 25 26  1  0
 26 22  1  0
 14  9  2  0
  9 10  1  0
 28 27  1  0
 29 31  1  0
 30 29  1  0
 31 27  1  0
 32 28  2  0
 33 30  1  0
 34 29  2  0
 35 27  1  0
 36 34  1  0
 37 38  1  0
 38 35  1  0
 39 28  1  0
 40 32  1  0
 41 37  1  0
 42 37  1  0
 43 39  2  0
 44 40  2  0
 36 33  2  0
 43 44  1  0
 46 48  1  0
 47 45  1  0
 48 47  2  0
 49 45  2  0
 50 46  2  0
 51 46  1  0
 52 45  1  0
 54 56  1  0
 55 53  1  0
 56 55  2  0
 57 53  2  0
 58 54  2  0
 59 54  1  0
 60 53  1  0
  3 61  1  0
  4 62  1  0
  7 63  1  0
  8 64  1  0
  9 65  1  0
 10 66  1  0
 13 67  1  0
 14 68  1  0
 16 69  1  0
 16 70  1  0
 17 71  1  0
 17 72  1  0
 18 73  1  0
 18 74  1  0
 20 75  1  0
 20 76  1  0
 20 77  1  0
 21 78  1  0
 21 79  1  0
 21 80  1  0
 23 81  1  0
 24 82  1  0
 25 83  1  0
 31 84  1  0
 31 85  1  0
 33 86  1  0
 34 87  1  0
 35 88  1  0
 35 89  1  0
 36 90  1  0
 38 91  1  0
 38 92  1  0
 39 93  1  0
 40 94  1  0
 41 95  1  0
 41 96  1  0
 41 97  1  0
 42 98  1  0
 42 99  1  0
 42100  1  0
 43101  1  0
 44102  1  0
 47103  1  0
 48104  1  0
 51105  1  0
 52106  1  0
 55107  1  0
 56108  1  0
 59109  1  0
 60110  1  0
M  END
> <Uni-Dock RESULT> 
ENERGY=   -5.800  LOWER_BOUND=    0.000  UPPER_BOUND=    0.000
INTER + INTRA:          -5.800
INTER:                  -5.800
INTRA:                   0.000
UNBOUND:                 0.000

$$$$

     RDKit          3D

110109  0  0  0  0  0  0  0  0999 V2000
   49.5822    7.9738   16.8530 C   0  0  0  0  0  0  0  0  0  0  0  0
   52.9315    6.1138   16.7865 C   0  0  0  0  0  0  0  0  0  0  0  0
   50.9218    7.5114   16.4777 C   0  0  0  0  0  0  0  0  0  0  0  0
   51.5959    6.5807   17.1676 C   0  0  0  0  0  0  0  0  0  0  0  0
   48.9384    8.7964   16.2278 O   0  0  0  0  0  0  0  0  0  0  0  0
   53.5672    5.2740   17.3978 O   0  0  0  0  0  0  0  0  0  0  0  0
   53.4143    6.6982   15.6795 O   0  0  0  0  0  0  0  0  0  0  0  0
   49.1031    7.4066   17.9707 O   0  0  0  0  0  0  0  0  0  0  0  0
   52.8836    3.1502   18.9156 C   0  0  0  0  0  0  0  0  0  0  0  0
   53.6366    4.3032   19.0107 C   0  0  0  0  0  0  0  0  0  0  0  0
   53.3629    5.4403   18.3375 N   0  0  0  0  0  0  0  0  0  0  0  0
   52.2725    5.4773   17.5365 C   0  0  0  0  0  0  0  0  0  0  0  0
   51.4556    4.3508   17.3997 C   0  0  0  0  0  0  0  0  0  0  0  0
   51.7701    3.1789   18.0868 C   0  0  0  0  0  0  0  0  0  0  0  0
   52.0567    6.6761   16.8479 N   0  0  0  0  0  0  0  0  0  0  0  0
   53.0843    6.8081   15.7988 C   0  0  0  0  0  0  0  0  0  0  0  0
   50.6809    7.0342   16.4671 C   0  0  0  0  0  0  0  0  0  0  0  0
   49.8069    7.3440   17.7059 C   0  0  0  0  0  0  0  0  0  0  0  0
   48.4074    7.7287   17.3848 N   0  0  0  0  0  0  0  0  0  0  0  0
   48.3459    9.0369   16.7227 C   0  0  0  0  0  0  0  0  0  0  0  0
   47.6273    7.7791   18.6267 C   0  0  0  0  0  0  0  0  0  0  0  0
   53.2217    8.1604   15.1484 C   0  0  0  0  0  0  0  0  0  0  0  0
   52.9112    8.5208   13.8533 C   0  0  0  0  0  0  0  0  0  0  0  0
   53.2216    9.8855   13.5830 C   0  0  0  0  0  0  0  0  0  0  0  0
   53.7639   10.5192   14.6736 C   0  0  0  0  0  0  0  0  0  0  0  0
   53.8738    9.4816   16.0299 S   0  0  0  0  0  0  0  0  0  0  0  0
   51.1663    7.4416   17.1424 N   0  0  0  0  0  0  0  0  0  0  0  0
   50.0822    7.7839   16.3341 C   0  0  0  0  0  0  0  0  0  0  0  0
   49.9902    6.9248   19.3182 C   0  0  0  0  0  0  0  0  0  0  0  0
   48.9187    7.7671   20.3657 S   0  0  0  0  0  0  0  0  0  0  0  0
   51.1032    7.6557   18.5995 C   0  0  0  0  0  0  0  0  0  0  0  0
   49.9320    7.0764   15.1910 N   0  0  0  0  0  0  0  0  0  0  0  0
   48.0362    6.3472   20.7057 C   0  0  0  0  0  0  0  0  0  0  0  0
   49.6935    5.5768   19.2711 C   0  0  0  0  0  0  0  0  0  0  0  0
   52.4517    7.7667   16.4991 C   0  0  0  0  0  0  0  0  0  0  0  0
   48.5705    5.2404   20.0756 C   0  0  0  0  0  0  0  0  0  0  0  0
   54.7676    6.8526   16.0389 N   0  0  0  0  0  0  0  0  0  0  0  0
   53.3796    6.5295   16.4540 C   0  0  0  0  0  0  0  0  0  0  0  0
   49.1889    8.8117   16.6572 C   0  0  0  0  0  0  0  0  0  0  0  0
   48.8787    7.3630   14.3900 C   0  0  0  0  0  0  0  0  0  0  0  0
   55.6576    5.7165   16.2960 C   0  0  0  0  0  0  0  0  0  0  0  0
   54.8344    7.2167   14.6179 C   0  0  0  0  0  0  0  0  0  0  0  0
   48.1189    9.1022   15.8081 C   0  0  0  0  0  0  0  0  0  0  0  0
   47.9515    8.3569   14.6547 C   0  0  0  0  0  0  0  0  0  0  0  0
   49.5505    6.8198   17.5291 C   0  0  0  0  0  0  0  0  0  0  0  0
   52.6436    7.3720   15.4066 C   0  0  0  0  0  0  0  0  0  0  0  0
   50.8861    6.6241   16.9659 C   0  0  0  0  0  0  0  0  0  0  0  0
   51.3195    7.4718   16.0239 C   0  0  0  0  0  0  0  0  0  0  0  0
   48.7490    7.6864   17.2394 O   0  0  0  0  0  0  0  0  0  0  0  0
   53.0691    8.1269   14.5518 O   0  0  0  0  0  0  0  0  0  0  0  0
   53.3721    6.3451   15.8710 O   0  0  0  0  0  0  0  0  0  0  0  0
   49.2944    5.8749   18.4462 O   0  0  0  0  0  0  0  0  0  0  0  0
   49.5907    7.7866   17.3624 C   0  0  0  0  0  0  0  0  0  0  0  0
   53.1990    6.6298   16.7989 C   0  0  0  0  0  0  0  0  0  0  0  0
   50.9657    7.6757   16.8672 C   0  0  0  0  0  0  0  0  0  0  0  0
   51.8249    6.7399   17.2954 C   0  0  0  0  0  0  0  0  0  0  0  0
   48.7929    8.6304   16.9972 O   0  0  0  0  0  0  0  0  0  0  0  0
   54.0007    5.7916   17.1702 O   0  0  0  0  0  0  0  0  0  0  0  0
   53.5138    7.5415   15.8676 O   0  0  0  0  0  0  0  0  0  0  0  0
   49.2690    6.8645   18.2807 O   0  0  0  0  0  0  0  0  0  0  0  0
   51.3266    7.9744   15.5838 H   0  0  0  0  0  0  0  0  0  0  0  0
   51.1955    6.1234   18.0640 H   0  0  0  0  0  0  0  0  0  0  0  0
   54.3027    6.2960   15.5799 H   0  0  0  0  0  0  0  0  0  0  0  0
   48.2235    7.8245   18.0864 H   0  0  0  0  0  0  0  0  0  0  0  0
   53.1531    2.2562   19.4610 H   0  0  0  0  0  0  0  0  0  0  0  0
   54.5212    4.3438   19.6473 H   0  0  0  0  0  0  0  0  0  0  0  0
   50.5908    4.3462   16.7433 H   0  0  0  0  0  0  0  0  0  0  0  0
   51.1523    2.2888   17.9654 H   0  0  0  0  0  0  0  0  0  0  0  0
   52.8664    6.0800   15.0054 H   0  0  0  0  0  0  0  0  0  0  0  0
   54.0787    6.5435   16.1838 H   0  0  0  0  0  0  0  0  0  0  0  0
   50.2238    6.2641   15.8375 H   0  0  0  0  0  0  0  0  0  0  0  0
   50.7128    7.9403   15.8562 H   0  0  0  0  0  0  0  0  0  0  0  0
   50.2854    8.1300   18.3110 H   0  0  0  0  0  0  0  0  0  0  0  0
   49.7789    6.4500   18.3466 H   0  0  0  0  0  0  0  0  0  0  0  0
   48.8523    9.8159   17.3043 H   0  0  0  0  0  0  0  0  0  0  0  0
   47.2991    9.3373   16.5776 H   0  0  0  0  0  0  0  0  0  0  0  0
   48.7902    8.9973   15.7235 H   0  0  0  0  0  0  0  0  0  0  0  0
   48.0242    8.5201   19.3255 H   0  0  0  0  0  0  0  0  0  0  0  0
   46.5855    8.0318   18.4089 H   0  0  0  0  0  0  0  0  0  0  0  0
   47.6125    6.8005   19.1155 H   0  0  0  0  0  0  0  0  0  0  0  0
   52.4865    7.8378   13.1285 H   0  0  0  0  0  0  0  0  0  0  0  0
   53.0647   10.3672   12.6240 H   0  0  0  0  0  0  0  0  0  0  0  0
   54.1055   11.5405   14.7528 H   0  0  0  0  0  0  0  0  0  0  0  0
   52.0411    7.2770   19.0371 H   0  0  0  0  0  0  0  0  0  0  0  0
   51.0921    8.7276   18.8284 H   0  0  0  0  0  0  0  0  0  0  0  0
   47.1810    6.3887   21.3631 H   0  0  0  0  0  0  0  0  0  0  0  0
   50.2534    4.8709   18.6598 H   0  0  0  0  0  0  0  0  0  0  0  0
   52.3131    8.1412   15.4763 H   0  0  0  0  0  0  0  0  0  0  0  0
   52.9406    8.5844   17.0524 H   0  0  0  0  0  0  0  0  0  0  0  0
   48.1578    4.2427   20.1709 H   0  0  0  0  0  0  0  0  0  0  0  0
   53.4086    6.0929   17.4628 H   0  0  0  0  0  0  0  0  0  0  0  0
   52.9395    5.7666   15.7969 H   0  0  0  0  0  0  0  0  0  0  0  0
   49.3219    9.4085   17.5494 H   0  0  0  0  0  0  0  0  0  0  0  0
   48.7845    6.7495   13.5037 H   0  0  0  0  0  0  0  0  0  0  0  0
   55.6793    5.4912   17.3702 H   0  0  0  0  0  0  0  0  0  0  0  0
   56.6920    5.9582   16.0023 H   0  0  0  0  0  0  0  0  0  0  0  0
   55.3474    4.8182   15.7448 H   0  0  0  0  0  0  0  0  0  0  0  0
   54.2684    8.1276   14.4233 H   0  0  0  0  0  0  0  0  0  0  0  0
   54.4684    6.4160   13.9664 H   0  0  0  0  0  0  0  0  0  0  0  0
   55.8637    7.4445   14.3283 H   0  0  0  0  0  0  0  0  0  0  0  0
   47.4329    9.9033   16.0583 H   0  0  0  0  0  0  0  0  0  0  0  0
   47.1165    8.5376   13.9853 H   0  0  0  0  0  0  0  0  0  0  0  0
   51.4733    5.7961   17.3401 H   0  0  0  0  0  0  0  0  0  0  0  0
   50.7102    8.2930   15.6655 H   0  0  0  0  0  0  0  0  0  0  0  0
   54.2150    6.4021   15.3748 H   0  0  0  0  0  0  0  0  0  0  0  0
   48.3892    6.0820   18.7596 H   0  0  0  0  0  0  0  0  0  0  0  0
   51.2342    8.4076   16.1124 H   0  0  0  0  0  0  0  0  0  0  0  0
   51.5554    6.0104   18.0505 H   0  0  0  0  0  0  0  0  0  0  0  0
   54.4414    7.3271   15.6355 H   0  0  0  0  0  0  0  0  0  0  0  0
   48.3348    7.0680   18.4941 H   0  0  0  0  0  0  0  0  0  0  0  0
  2  4  1  0
  3  1  1  0
  4  3  2  0
  5  1  2  0
  6  2  2  0
  7  2  1  0
  8  1  1  0
 15 17  1  0
 12 15  1  0
 17 18  1  0
 11 12  1  0
 18 19  1  0
 15 16  1  0
 19 20  1  0
 19 21  1  0
 16 22  1  0
 23 24  1  0
 12 13  2  0
 10 11  2  0
 13 14  1  0
 22 23  2  0
 24 25  2  0
 25 26  1  0
 26 22  1  0
 14  9  2  0
  9 10  1  0
 28 27  1  0
 29 31  1  0
 30 29  1  0
 31 27  1  0
 32 28  2  0
 33 30  1  0
 34 29  2  0
 35 27  1  0
 36 34  1  0
 37 38  1  0
 38 35  1  0
 39 28  1  0
 40 32  1  0
 41 37  1  0
 42 37  1  0
 43 39  2  0
 44 40  2  0
 36 33  2  0
 43 44  1  0
 46 48  1  0
 47 45  1  0
 48 47  2  0
 49 45  2  0
 50 46  2  0
 51 46  1  0
 52 45  1  0
 54 56  1  0
 55 53  1  0
 56 55  2  0
 57 53  2  0
 58 54  2  0
 59 54  1  0
 60 53  1  0
  3 61  1  0
  4 62  1  0
  7 63  1  0
  8 64  1  0
  9 65  1  0
 10 66  1  0
 13 67  1  0
 14 68  1  0
 16 69  1  0
 16 70  1  0
 17 71  1  0
 17 72  1  0
 18 73  1  0
 18 74  1  0
 20 75  1  0
 20 76  1  0
 20 77  1  0
 21 78  1  0
 21 79  1  0
 21 80  1  0
 23 81  1  0
 24 82  1  0
 25 83  1  0
 31 84  1  0
 31 85  1  0
 33 86  1  0
 34 87  1  0
 35 88  1  0
 35 89  1  0
 36 90  1  0
 38 91  1  0
 38 92  1  0
 39 93  1  0
 40 94  1  0
 41 95  1  0
 41 96  1  0
 41 97  1  0
 42 98  1  0
 42 99  1  0
 42100  1  0
 43101  1  0
 44102  1  0
 47103  1  0
 48104  1  0
 51105  1  0
 52106  1  0
 55107  1  0
 56108  1  0
 59109  1  0
 60110  1  0
M  END
> <Uni-Dock RESULT> 
ENERGY=   -4.970  LOWER_BOUND=    2.074  UPPER_BOUND=    3.917
INTER + INTRA:          -4.970
INTER:                  -4.970
INTRA:                   0.000
UNBOUND:                 0.000

$$$$

     RDKit          3D

110109  0  0  0  0  0  0  0  0999 V2000
   48.2514   10.5086   20.6372 C   0  0  0  0  0  0  0  0  0  0  0  0
   48.4578    8.2047   17.5825 C   0  0  0  0  0  0  0  0  0  0  0  0
   48.3226   10.0078   19.2612 C   0  0  0  0  0  0  0  0  0  0  0  0
   48.3948    8.7040   18.9586 C   0  0  0  0  0  0  0  0  0  0  0  0
   48.1571   11.6848   20.9368 O   0  0  0  0  0  0  0  0  0  0  0  0
   48.5287    7.0271   17.2803 O   0  0  0  0  0  0  0  0  0  0  0  0
   48.4293    9.1721   16.6533 O   0  0  0  0  0  0  0  0  0  0  0  0
   48.2995    9.5459   21.5707 O   0  0  0  0  0  0  0  0  0  0  0  0
   47.6606    4.7461   18.4314 C   0  0  0  0  0  0  0  0  0  0  0  0
   48.8371    5.3016   17.9705 C   0  0  0  0  0  0  0  0  0  0  0  0
   49.0951    6.6262   17.9666 N   0  0  0  0  0  0  0  0  0  0  0  0
   48.1645    7.4729   18.4659 C   0  0  0  0  0  0  0  0  0  0  0  0
   46.9529    6.9815   18.9614 C   0  0  0  0  0  0  0  0  0  0  0  0
   46.6979    5.6109   18.9344 C   0  0  0  0  0  0  0  0  0  0  0  0
   48.4814    8.8347   18.4117 N   0  0  0  0  0  0  0  0  0  0  0  0
   48.4246    9.2759   17.0059 C   0  0  0  0  0  0  0  0  0  0  0  0
   47.8842    9.7390   19.4075 C   0  0  0  0  0  0  0  0  0  0  0  0
   48.4200    9.4558   20.8313 C   0  0  0  0  0  0  0  0  0  0  0  0
   47.8650   10.3495   21.8815 N   0  0  0  0  0  0  0  0  0  0  0  0
   48.3409   11.7286   21.7231 C   0  0  0  0  0  0  0  0  0  0  0  0
   48.2688    9.8479   23.2001 C   0  0  0  0  0  0  0  0  0  0  0  0
   49.0268   10.6208   16.6910 C   0  0  0  0  0  0  0  0  0  0  0  0
   48.3800   11.7774   16.3067 C   0  0  0  0  0  0  0  0  0  0  0  0
   49.2891   12.8444   16.0480 C   0  0  0  0  0  0  0  0  0  0  0  0
   50.5962   12.4681   16.2352 C   0  0  0  0  0  0  0  0  0  0  0  0
   50.7286   10.8411   16.7485 S   0  0  0  0  0  0  0  0  0  0  0  0
   48.7711    9.4726   19.3990 N   0  0  0  0  0  0  0  0  0  0  0  0
   48.0464   10.5439   19.9216 C   0  0  0  0  0  0  0  0  0  0  0  0
   49.1537    8.0977   21.4840 C   0  0  0  0  0  0  0  0  0  0  0  0
   49.8511    8.3785   23.0300 S   0  0  0  0  0  0  0  0  0  0  0  0
   49.7337    8.7440   20.2449 C   0  0  0  0  0  0  0  0  0  0  0  0
   46.8352   10.7827   19.3685 N   0  0  0  0  0  0  0  0  0  0  0  0
   48.6875    7.3978   23.8014 C   0  0  0  0  0  0  0  0  0  0  0  0
   48.0780    7.2354   21.5652 C   0  0  0  0  0  0  0  0  0  0  0  0
   49.1970    9.7262   18.0111 C   0  0  0  0  0  0  0  0  0  0  0  0
   47.8111    6.8256   22.9002 C   0  0  0  0  0  0  0  0  0  0  0  0
   49.3518    8.6601   15.7198 N   0  0  0  0  0  0  0  0  0  0  0  0
   48.7487    8.5798   17.0737 C   0  0  0  0  0  0  0  0  0  0  0  0
   48.5294   11.3554   20.9544 C   0  0  0  0  0  0  0  0  0  0  0  0
   46.0908   11.7998   19.8631 C   0  0  0  0  0  0  0  0  0  0  0  0
   49.1305    7.4112   14.9847 C   0  0  0  0  0  0  0  0  0  0  0  0
   48.8044    9.7854   14.9515 C   0  0  0  0  0  0  0  0  0  0  0  0
   47.7522   12.4101   21.4380 C   0  0  0  0  0  0  0  0  0  0  0  0
   46.5017   12.6330   20.8900 C   0  0  0  0  0  0  0  0  0  0  0  0
   47.8463    9.2605   20.8979 C   0  0  0  0  0  0  0  0  0  0  0  0
   48.3814   10.0595   17.2301 C   0  0  0  0  0  0  0  0  0  0  0  0
   47.9877    9.0711   19.4544 C   0  0  0  0  0  0  0  0  0  0  0  0
   48.2115   10.1422   18.6822 C   0  0  0  0  0  0  0  0  0  0  0  0
   47.9056   10.3075   21.5124 O   0  0  0  0  0  0  0  0  0  0  0  0
   48.5892   11.0115   16.5007 O   0  0  0  0  0  0  0  0  0  0  0  0
   48.2819    8.8094   16.7523 O   0  0  0  0  0  0  0  0  0  0  0  0
   47.6220    8.0816   21.4973 O   0  0  0  0  0  0  0  0  0  0  0  0
   48.4238   10.0544   20.8792 C   0  0  0  0  0  0  0  0  0  0  0  0
   48.9357    8.4925   17.4187 C   0  0  0  0  0  0  0  0  0  0  0  0
   48.6800    9.8728   19.4475 C   0  0  0  0  0  0  0  0  0  0  0  0
   48.6800    8.6726   18.8502 C   0  0  0  0  0  0  0  0  0  0  0  0
   48.4255   11.1305   21.4482 O   0  0  0  0  0  0  0  0  0  0  0  0
   48.9431    7.4156   16.8503 O   0  0  0  0  0  0  0  0  0  0  0  0
   49.1556    9.6388   16.7588 O   0  0  0  0  0  0  0  0  0  0  0  0
   48.1861    8.9108   21.5369 O   0  0  0  0  0  0  0  0  0  0  0  0
   48.3003   10.7780   18.4973 H   0  0  0  0  0  0  0  0  0  0  0  0
   48.4244    7.9350   19.7207 H   0  0  0  0  0  0  0  0  0  0  0  0
   48.4984    8.6780   15.8094 H   0  0  0  0  0  0  0  0  0  0  0  0
   48.2544   10.0388   22.4173 H   0  0  0  0  0  0  0  0  0  0  0  0
   47.4916    3.6786   18.3972 H   0  0  0  0  0  0  0  0  0  0  0  0
   49.6323    4.6741   17.5661 H   0  0  0  0  0  0  0  0  0  0  0  0
   46.1796    7.6415   19.3425 H   0  0  0  0  0  0  0  0  0  0  0  0
   45.7452    5.2227   19.2956 H   0  0  0  0  0  0  0  0  0  0  0  0
   47.3720    9.3032   16.6926 H   0  0  0  0  0  0  0  0  0  0  0  0
   48.9161    8.5501   16.3436 H   0  0  0  0  0  0  0  0  0  0  0  0
   46.7905    9.7053   19.3777 H   0  0  0  0  0  0  0  0  0  0  0  0
   48.1590   10.7666   19.1546 H   0  0  0  0  0  0  0  0  0  0  0  0
   49.5201    9.5100   20.8318 H   0  0  0  0  0  0  0  0  0  0  0  0
   48.1725    8.4175   21.0980 H   0  0  0  0  0  0  0  0  0  0  0  0
   49.4351   11.7839   21.6870 H   0  0  0  0  0  0  0  0  0  0  0  0
   47.9894   12.3473   22.5601 H   0  0  0  0  0  0  0  0  0  0  0  0
   47.9341   12.1872   20.8167 H   0  0  0  0  0  0  0  0  0  0  0  0
   49.3559    9.8356   23.3141 H   0  0  0  0  0  0  0  0  0  0  0  0
   47.8450   10.4756   23.9894 H   0  0  0  0  0  0  0  0  0  0  0  0
   47.8816    8.8383   23.3664 H   0  0  0  0  0  0  0  0  0  0  0  0
   47.3047   11.8563   16.2085 H   0  0  0  0  0  0  0  0  0  0  0  0
   48.9889   13.8353   15.7249 H   0  0  0  0  0  0  0  0  0  0  0  0
   51.4891   13.0598   16.0983 H   0  0  0  0  0  0  0  0  0  0  0  0
   50.1527    7.9194   19.6457 H   0  0  0  0  0  0  0  0  0  0  0  0
   50.5890    9.3843   20.4896 H   0  0  0  0  0  0  0  0  0  0  0  0
   48.7123    7.2743   24.8734 H   0  0  0  0  0  0  0  0  0  0  0  0
   47.4961    6.9352   20.6953 H   0  0  0  0  0  0  0  0  0  0  0  0
   48.7952   10.6732   17.6274 H   0  0  0  0  0  0  0  0  0  0  0  0
   50.2930    9.8325   17.9790 H   0  0  0  0  0  0  0  0  0  0  0  0
   47.0036    6.1640   23.1917 H   0  0  0  0  0  0  0  0  0  0  0  0
   49.0509    7.6289   17.5357 H   0  0  0  0  0  0  0  0  0  0  0  0
   47.6515    8.5633   17.0157 H   0  0  0  0  0  0  0  0  0  0  0  0
   49.5122   11.1968   21.3775 H   0  0  0  0  0  0  0  0  0  0  0  0
   45.1177   11.9312   19.4086 H   0  0  0  0  0  0  0  0  0  0  0  0
   49.6107    6.5754   15.5099 H   0  0  0  0  0  0  0  0  0  0  0  0
   49.5897    7.4620   13.9841 H   0  0  0  0  0  0  0  0  0  0  0  0
   48.0613    7.1922   14.8589 H   0  0  0  0  0  0  0  0  0  0  0  0
   49.0548   10.7358   15.4227 H   0  0  0  0  0  0  0  0  0  0  0  0
   47.7181    9.7160   14.8301 H   0  0  0  0  0  0  0  0  0  0  0  0
   49.2541    9.8250   13.9558 H   0  0  0  0  0  0  0  0  0  0  0  0
   48.1324   13.0407   22.2335 H   0  0  0  0  0  0  0  0  0  0  0  0
   45.8600   13.4269   21.2589 H   0  0  0  0  0  0  0  0  0  0  0  0
   47.9073    8.0634   19.0693 H   0  0  0  0  0  0  0  0  0  0  0  0
   48.2865   11.1418   19.0936 H   0  0  0  0  0  0  0  0  0  0  0  0
   48.4119    8.9082   15.7862 H   0  0  0  0  0  0  0  0  0  0  0  0
   47.5369    8.3064   22.4475 H   0  0  0  0  0  0  0  0  0  0  0  0
   48.8595   10.7927   18.9007 H   0  0  0  0  0  0  0  0  0  0  0  0
   48.5019    7.7545   19.3983 H   0  0  0  0  0  0  0  0  0  0  0  0
   49.2929    9.3517   15.8321 H   0  0  0  0  0  0  0  0  0  0  0  0
   48.0277    9.2035   22.4582 H   0  0  0  0  0  0  0  0  0  0  0  0
  2  4  1  0
  3  1  1  0
  4  3  2  0
  5  1  2  0
  6  2  2  0
  7  2  1  0
  8  1  1  0
 15 17  1  0
 12 15  1  0
 17 18  1  0
 11 12  1  0
 18 19  1  0
 15 16  1  0
 19 20  1  0
 19 21  1  0
 16 22  1  0
 23 24  1  0
 12 13  2  0
 10 11  2  0
 13 14  1  0
 22 23  2  0
 24 25  2  0
 25 26  1  0
 26 22  1  0
 14  9  2  0
  9 10  1  0
 28 27  1  0
 29 31  1  0
 30 29  1  0
 31 27  1  0
 32 28  2  0
 33 30  1  0
 34 29  2  0
 35 27  1  0
 36 34  1  0
 37 38  1  0
 38 35  1  0
 39 28  1  0
 40 32  1  0
 41 37  1  0
 42 37  1  0
 43 39  2  0
 44 40  2  0
 36 33  2  0
 43 44  1  0
 46 48  1  0
 47 45  1  0
 48 47  2  0
 49 45  2  0
 50 46  2  0
 51 46  1  0
 52 45  1  0
 54 56  1  0
 55 53  1  0
 56 55  2  0
 57 53  2  0
 58 54  2  0
 59 54  1  0
 60 53  1  0
  3 61  1  0
  4 62  1  0
  7 63  1  0
  8 64  1  0
  9 65  1  0
 10 66  1  0
 13 67  1  0
 14 68  1  0
 16 69  1  0
 16 70  1  0
 17 71  1  0
 17 72  1  0
 18 73  1  0
 18 74  1  0
 20 75  1  0
 20 76  1  0
 20 77  1  0
 21 78  1  0
 21 79  1  0
 21 80  1  0
 23 81  1  0
 24 82  1  0
 25 83  1  0
 31 84  1  0
 31 85  1  0
 33 86  1  0
 34 87  1  0
 35 88  1  0
 35 89  1  0
 36 90  1  0
 38 91  1  0
 38 92  1  0
 39 93  1  0
 40 94  1  0
 41 95  1  0
 41 96  1  0
 41 97  1  0
 42 98  1  0
 42 99  1  0
 42100  1  0
 43101  1  0
 44102  1  0
 47103  1  0
 48104  1  0
 51105  1  0
 52106  1  0
 55107  1  0
 56108  1  0
 59109  1  0
 60110  1  0
M  END
> <Uni-Dock RESULT> 
ENERGY=   -4.888  LOWER_BOUND=    3.345  UPPER_BOUND=    5.113
INTER + INTRA:          -4.888
INTER:                  -4.888
INTRA:                   0.000
UNBOUND:                 0.000

$$$$

     RDKit          3D

110109  0  0  0  0  0  0  0  0999 V2000
   45.1455   11.8396   10.5788 C   0  0  0  0  0  0  0  0  0  0  0  0
   42.0820   12.5838    8.4009 C   0  0  0  0  0  0  0  0  0  0  0  0
   43.7671   12.0003   10.1061 C   0  0  0  0  0  0  0  0  0  0  0  0
   43.4602   12.4314    8.8746 C   0  0  0  0  0  0  0  0  0  0  0  0
   45.4501   11.4237   11.6817 O   0  0  0  0  0  0  0  0  0  0  0  0
   41.7758   12.9776    7.2899 O   0  0  0  0  0  0  0  0  0  0  0  0
   41.1559   12.2453    9.3107 O   0  0  0  0  0  0  0  0  0  0  0  0
   46.0752   12.1956    9.6792 O   0  0  0  0  0  0  0  0  0  0  0  0
   42.9562   12.8417    4.8671 C   0  0  0  0  0  0  0  0  0  0  0  0
   42.4514   13.7922    5.7315 C   0  0  0  0  0  0  0  0  0  0  0  0
   42.4395   13.6599    7.0745 N   0  0  0  0  0  0  0  0  0  0  0  0
   42.9750   12.5450    7.6243 C   0  0  0  0  0  0  0  0  0  0  0  0
   43.5157   11.5440    6.8117 C   0  0  0  0  0  0  0  0  0  0  0  0
   43.4967   11.6911    5.4252 C   0  0  0  0  0  0  0  0  0  0  0  0
   42.9107   12.4566    9.0193 N   0  0  0  0  0  0  0  0  0  0  0  0
   41.5086   12.2241    9.4122 C   0  0  0  0  0  0  0  0  0  0  0  0
   43.9297   11.6629    9.7245 C   0  0  0  0  0  0  0  0  0  0  0  0
   45.3317   12.3095    9.6201 C   0  0  0  0  0  0  0  0  0  0  0  0
   46.4034   11.5610   10.3278 N   0  0  0  0  0  0  0  0  0  0  0  0
   46.2288   11.6161   11.7838 C   0  0  0  0  0  0  0  0  0  0  0  0
   47.7050   12.1400    9.9754 C   0  0  0  0  0  0  0  0  0  0  0  0
   41.1727   12.4041   10.8701 C   0  0  0  0  0  0  0  0  0  0  0  0
   40.8149   11.4396   11.7895 C   0  0  0  0  0  0  0  0  0  0  0  0
   40.5232   11.9951   13.0695 C   0  0  0  0  0  0  0  0  0  0  0  0
   40.6599   13.3612   13.0847 C   0  0  0  0  0  0  0  0  0  0  0  0
   41.1655   13.9726   11.5686 S   0  0  0  0  0  0  0  0  0  0  0  0
   43.8870   12.5879    9.7229 N   0  0  0  0  0  0  0  0  0  0  0  0
   44.4383   11.6067   10.5471 C   0  0  0  0  0  0  0  0  0  0  0  0
   45.9540   13.4248    8.5350 C   0  0  0  0  0  0  0  0  0  0  0  0
   47.4727   14.0692    9.0184 S   0  0  0  0  0  0  0  0  0  0  0  0
   44.6945   13.7494    9.3082 C   0  0  0  0  0  0  0  0  0  0  0  0
   43.9322   10.3583   10.4241 N   0  0  0  0  0  0  0  0  0  0  0  0
   48.2866   13.2643    7.7534 C   0  0  0  0  0  0  0  0  0  0  0  0
   46.0751   12.6447    7.4019 C   0  0  0  0  0  0  0  0  0  0  0  0
   42.4842   12.8719   10.0743 C   0  0  0  0  0  0  0  0  0  0  0  0
   47.4188   12.5557    6.9457 C   0  0  0  0  0  0  0  0  0  0  0  0
   40.1872   13.2406    9.0750 N   0  0  0  0  0  0  0  0  0  0  0  0
   41.5630   12.7362    8.8386 C   0  0  0  0  0  0  0  0  0  0  0  0
   45.4530   11.8751   11.4728 C   0  0  0  0  0  0  0  0  0  0  0  0
   44.4561    9.3727   11.1905 C   0  0  0  0  0  0  0  0  0  0  0  0
   39.4594   13.3591    7.8080 C   0  0  0  0  0  0  0  0  0  0  0  0
   39.4419   12.3660    9.9892 C   0  0  0  0  0  0  0  0  0  0  0  0
   45.9673   10.8470   12.2657 C   0  0  0  0  0  0  0  0  0  0  0  0
   45.4677    9.5656   12.1162 C   0  0  0  0  0  0  0  0  0  0  0  0
   45.4198   11.8185    9.2696 C   0  0  0  0  0  0  0  0  0  0  0  0
   41.7353   11.9668   10.1528 C   0  0  0  0  0  0  0  0  0  0  0  0
   43.9717   11.9549    9.1147 C   0  0  0  0  0  0  0  0  0  0  0  0
   43.1929   11.8340   10.1975 C   0  0  0  0  0  0  0  0  0  0  0  0
   46.0330   11.5984   10.2956 O   0  0  0  0  0  0  0  0  0  0  0  0
   40.9998   11.8662   11.1174 O   0  0  0  0  0  0  0  0  0  0  0  0
   41.2600   12.2116    8.9220 O   0  0  0  0  0  0  0  0  0  0  0  0
   46.0258   11.9633    8.0816 O   0  0  0  0  0  0  0  0  0  0  0  0
   45.3801   12.1435   10.1953 C   0  0  0  0  0  0  0  0  0  0  0  0
   41.9006   12.9529    8.8118 C   0  0  0  0  0  0  0  0  0  0  0  0
   43.9395   12.3880   10.0807 C   0  0  0  0  0  0  0  0  0  0  0  0
   43.3410   12.7095    8.9250 C   0  0  0  0  0  0  0  0  0  0  0  0
   45.9501   11.8582   11.2323 O   0  0  0  0  0  0  0  0  0  0  0  0
   41.3308   13.2472    7.7765 O   0  0  0  0  0  0  0  0  0  0  0  0
   41.2343   12.8110    9.9666 O   0  0  0  0  0  0  0  0  0  0  0  0
   46.0449   12.2676    9.0378 O   0  0  0  0  0  0  0  0  0  0  0  0
   43.0057   11.7303   10.8303 H   0  0  0  0  0  0  0  0  0  0  0  0
   44.2196   12.7080    8.1535 H   0  0  0  0  0  0  0  0  0  0  0  0
   40.3093   12.4217    8.8489 H   0  0  0  0  0  0  0  0  0  0  0  0
   46.9235   12.0426   10.1467 H   0  0  0  0  0  0  0  0  0  0  0  0
   42.9270   12.9842    3.7956 H   0  0  0  0  0  0  0  0  0  0  0  0
   42.0162   14.7182    5.3538 H   0  0  0  0  0  0  0  0  0  0  0  0
   43.9269   10.6287    7.2265 H   0  0  0  0  0  0  0  0  0  0  0  0
   43.8935   10.9034    4.7842 H   0  0  0  0  0  0  0  0  0  0  0  0
   41.2357   11.1969    9.1342 H   0  0  0  0  0  0  0  0  0  0  0  0
   40.8271   12.8780    8.8510 H   0  0  0  0  0  0  0  0  0  0  0  0
   43.9416   10.6242    9.3790 H   0  0  0  0  0  0  0  0  0  0  0  0
   43.6679   11.6225   10.7853 H   0  0  0  0  0  0  0  0  0  0  0  0
   45.2903   13.3472    9.9868 H   0  0  0  0  0  0  0  0  0  0  0  0
   45.6062   12.3796    8.5571 H   0  0  0  0  0  0  0  0  0  0  0  0
   46.1511   12.6466   12.1495 H   0  0  0  0  0  0  0  0  0  0  0  0
   47.0794   11.1334   12.2842 H   0  0  0  0  0  0  0  0  0  0  0  0
   45.3392   11.0619   12.0981 H   0  0  0  0  0  0  0  0  0  0  0  0
   47.7774   13.1885   10.2757 H   0  0  0  0  0  0  0  0  0  0  0  0
   48.5107   11.5837   10.4632 H   0  0  0  0  0  0  0  0  0  0  0  0
   47.8846   12.0644    8.8989 H   0  0  0  0  0  0  0  0  0  0  0  0
   40.7579   10.3839   11.5566 H   0  0  0  0  0  0  0  0  0  0  0  0
   40.2131   11.4121   13.9299 H   0  0  0  0  0  0  0  0  0  0  0  0
   40.4898   14.0417   13.9057 H   0  0  0  0  0  0  0  0  0  0  0  0
   44.0787   14.3644    8.6322 H   0  0  0  0  0  0  0  0  0  0  0  0
   44.9073   14.3940   10.1688 H   0  0  0  0  0  0  0  0  0  0  0  0
   49.3567   13.3631    7.6525 H   0  0  0  0  0  0  0  0  0  0  0  0
   45.2276   12.1413    6.9394 H   0  0  0  0  0  0  0  0  0  0  0  0
   42.1174   12.2019   10.8631 H   0  0  0  0  0  0  0  0  0  0  0  0
   42.4104   13.8897   10.4894 H   0  0  0  0  0  0  0  0  0  0  0  0
   47.7400   11.9827    6.0836 H   0  0  0  0  0  0  0  0  0  0  0  0
   42.0119   13.3147    8.0183 H   0  0  0  0  0  0  0  0  0  0  0  0
   41.5469   11.6883    8.5084 H   0  0  0  0  0  0  0  0  0  0  0  0
   45.8380   12.8771   11.6060 H   0  0  0  0  0  0  0  0  0  0  0  0
   44.0393    8.3867   11.0336 H   0  0  0  0  0  0  0  0  0  0  0  0
   39.9649   14.0775    7.1496 H   0  0  0  0  0  0  0  0  0  0  0  0
   38.4421   13.7472    7.9783 H   0  0  0  0  0  0  0  0  0  0  0  0
   39.3742   12.3934    7.2911 H   0  0  0  0  0  0  0  0  0  0  0  0
   39.9044   12.3512   10.9760 H   0  0  0  0  0  0  0  0  0  0  0  0
   39.3619   11.3413    9.6108 H   0  0  0  0  0  0  0  0  0  0  0  0
   38.4298   12.7485   10.1463 H   0  0  0  0  0  0  0  0  0  0  0  0
   46.7486   11.0599   12.9863 H   0  0  0  0  0  0  0  0  0  0  0  0
   45.8619    8.7377   12.6969 H   0  0  0  0  0  0  0  0  0  0  0  0
   43.5886   12.1520    8.1223 H   0  0  0  0  0  0  0  0  0  0  0  0
   43.6026   11.6350   11.1807 H   0  0  0  0  0  0  0  0  0  0  0  0
   40.2898   12.2721    9.0445 H   0  0  0  0  0  0  0  0  0  0  0  0
   46.9788   11.8527    8.2818 H   0  0  0  0  0  0  0  0  0  0  0  0
   43.3875   12.2764   11.0082 H   0  0  0  0  0  0  0  0  0  0  0  0
   43.8943   12.8219    7.9997 H   0  0  0  0  0  0  0  0  0  0  0  0
   40.3026   12.9904    9.7219 H   0  0  0  0  0  0  0  0  0  0  0  0
   46.9720   12.0662    9.2819 H   0  0  0  0  0  0  0  0  0  0  0  0
  2  4  1  0
  3  1  1  0
  4  3  2  0
  5  1  2  0
  6  2  2  0
  7  2  1  0
  8  1  1  0
 15 17  1  0
 12 15  1  0
 17 18  1  0
 11 12  1  0
 18 19  1  0
 15 16  1  0
 19 20  1  0
 19 21  1  0
 16 22  1  0
 23 24  1  0
 12 13  2  0
 10 11  2  0
 13 14  1  0
 22 23  2  0
 24 25  2  0
 25 26  1  0
 26 22  1  0
 14  9  2  0
  9 10  1  0
 28 27  1  0
 29 31  1  0
 30 29  1  0
 31 27  1  0
 32 28  2  0
 33 30  1  0
 34 29  2  0
 35 27  1  0
 36 34  1  0
 37 38  1  0
 38 35  1  0
 39 28  1  0
 40 32  1  0
 41 37  1  0
 42 37  1  0
 43 39  2  0
 44 40  2  0
 36 33  2  0
 43 44  1  0
 46 48  1  0
 47 45  1  0
 48 47  2  0
 49 45  2  0
 50 46  2  0
 51 46  1  0
 52 45  1  0
 54 56  1  0
 55 53  1  0
 56 55  2  0
 57 53  2  0
 58 54  2  0
 59 54  1  0
 60 53  1  0
  3 61  1  0
  4 62  1  0
  7 63  1  0
  8 64  1  0
  9 65  1  0
 10 66  1  0
 13 67  1  0
 14 68  1  0
 16 69  1  0
 16 70  1  0
 17 71  1  0
 17 72  1  0
 18 73  1  0
 18 74  1  0
 20 75  1  0
 20 76  1  0
 20 77  1  0
 21 78  1  0
 21 79  1  0
 21 80  1  0
 23 81  1  0
 24 82  1  0
 25 83  1  0
 31 84  1  0
 31 85  1  0
 33 86  1  0
 34 87  1  0
 35 88  1  0
 35 89  1  0
 36 90  1  0
 38 91  1  0
 38 92  1  0
 39 93  1  0
 40 94  1  0
 41 95  1  0
 41 96  1  0
 41 97  1  0
 42 98  1  0
 42 99  1  0
 42100  1  0
 43101  1  0
 44102  1  0
 47103  1  0
 48104  1  0
 51105  1  0
 52106  1  0
 55107  1  0
 56108  1  0
 59109  1  0
 60110  1  0
M  END
> <Uni-Dock RESULT> 
ENERGY=   -4.873  LOWER_BOUND=    7.622  UPPER_BOUND=   11.286
INTER + INTRA:          -4.873
INTER:                  -4.873
INTRA:                   0.000
UNBOUND:                 0.000

$$$$

     RDKit          3D

110109  0  0  0  0  0  0  0  0999 V2000
   49.3280    9.8685   15.6406 C   0  0  0  0  0  0  0  0  0  0  0  0
   48.0049    9.1816   19.1703 C   0  0  0  0  0  0  0  0  0  0  0  0
   48.7922    9.2034   16.8321 C   0  0  0  0  0  0  0  0  0  0  0  0
   48.5480    9.8462   17.9827 C   0  0  0  0  0  0  0  0  0  0  0  0
   49.5319    9.3133   14.5764 O   0  0  0  0  0  0  0  0  0  0  0  0
   47.7785    9.7404   20.2285 O   0  0  0  0  0  0  0  0  0  0  0  0
   47.7677    7.8724   18.9977 O   0  0  0  0  0  0  0  0  0  0  0  0
   49.5853   11.1739   15.8143 O   0  0  0  0  0  0  0  0  0  0  0  0
   47.0870   12.2604   20.9014 C   0  0  0  0  0  0  0  0  0  0  0  0
   48.0664   11.3326   21.1932 C   0  0  0  0  0  0  0  0  0  0  0  0
   48.4976   10.3930   20.3258 N   0  0  0  0  0  0  0  0  0  0  0  0
   47.9661   10.3617   19.0814 C   0  0  0  0  0  0  0  0  0  0  0  0
   46.9775   11.2781   18.7102 C   0  0  0  0  0  0  0  0  0  0  0  0
   46.5303   12.2259   19.6300 C   0  0  0  0  0  0  0  0  0  0  0  0
   48.4373    9.3498   18.2376 N   0  0  0  0  0  0  0  0  0  0  0  0
   47.9138    8.0567   18.7151 C   0  0  0  0  0  0  0  0  0  0  0  0
   48.4083    9.5723   16.7832 C   0  0  0  0  0  0  0  0  0  0  0  0
   49.3991   10.6809   16.3543 C   0  0  0  0  0  0  0  0  0  0  0  0
   49.4277   10.9414   14.8911 N   0  0  0  0  0  0  0  0  0  0  0  0
   50.0067    9.8128   14.1533 C   0  0  0  0  0  0  0  0  0  0  0  0
   50.2254   12.1461   14.6344 C   0  0  0  0  0  0  0  0  0  0  0  0
   48.5429    6.8145   18.1392 C   0  0  0  0  0  0  0  0  0  0  0  0
   47.9786    5.8876   17.2872 C   0  0  0  0  0  0  0  0  0  0  0  0
   48.8677    4.8132   16.9920 C   0  0  0  0  0  0  0  0  0  0  0  0
   50.0752    4.9497   17.6312 C   0  0  0  0  0  0  0  0  0  0  0  0
   50.1497    6.3826   18.5634 S   0  0  0  0  0  0  0  0  0  0  0  0
   49.1741    9.5751   17.3039 N   0  0  0  0  0  0  0  0  0  0  0  0
   48.8727    9.3707   15.9573 C   0  0  0  0  0  0  0  0  0  0  0  0
   50.1154   11.9187   17.2281 C   0  0  0  0  0  0  0  0  0  0  0  0
   51.3843   12.7061   16.3766 S   0  0  0  0  0  0  0  0  0  0  0  0
   50.2667   10.4860   17.6906 C   0  0  0  0  0  0  0  0  0  0  0  0
   47.5924    9.0457   15.6660 N   0  0  0  0  0  0  0  0  0  0  0  0
   50.4720   14.1390   16.2179 C   0  0  0  0  0  0  0  0  0  0  0  0
   49.0370   12.7604   17.4173 C   0  0  0  0  0  0  0  0  0  0  0  0
   49.0696    8.3283   18.0826 C   0  0  0  0  0  0  0  0  0  0  0  0
   49.2429   14.0436   16.8407 C   0  0  0  0  0  0  0  0  0  0  0  0
   48.1757    7.3695   20.2488 N   0  0  0  0  0  0  0  0  0  0  0  0
   48.1315    8.5097   19.2995 C   0  0  0  0  0  0  0  0  0  0  0  0
   49.8290    9.4754   14.9409 C   0  0  0  0  0  0  0  0  0  0  0  0
   47.2542    8.8613   14.3679 C   0  0  0  0  0  0  0  0  0  0  0  0
   47.5067    7.7213   21.5048 C   0  0  0  0  0  0  0  0  0  0  0  0
   47.5505    6.1691   19.6792 C   0  0  0  0  0  0  0  0  0  0  0  0
   49.4624    9.2642   13.6100 C   0  0  0  0  0  0  0  0  0  0  0  0
   48.1458    8.9610   13.3131 C   0  0  0  0  0  0  0  0  0  0  0  0
   48.8722   10.9692   16.2492 C   0  0  0  0  0  0  0  0  0  0  0  0
   48.0769    7.7007   17.9990 C   0  0  0  0  0  0  0  0  0  0  0  0
   48.4211   10.0337   17.2791 C   0  0  0  0  0  0  0  0  0  0  0  0
   48.4895    8.7193   17.0313 C   0  0  0  0  0  0  0  0  0  0  0  0
   49.3174   10.6971   15.1514 O   0  0  0  0  0  0  0  0  0  0  0  0
   48.1293    6.4999   17.8071 O   0  0  0  0  0  0  0  0  0  0  0  0
   47.6171    8.2147   19.1503 O   0  0  0  0  0  0  0  0  0  0  0  0
   48.7212   12.2319   16.6758 O   0  0  0  0  0  0  0  0  0  0  0  0
   49.5101   10.3134   15.8925 C   0  0  0  0  0  0  0  0  0  0  0  0
   48.4209    8.7799   19.2299 C   0  0  0  0  0  0  0  0  0  0  0  0
   49.1693    9.3592   16.9516 C   0  0  0  0  0  0  0  0  0  0  0  0
   48.7620    9.7350   18.1723 C   0  0  0  0  0  0  0  0  0  0  0  0
   49.8896   10.0002   14.7790 O   0  0  0  0  0  0  0  0  0  0  0  0
   48.0498    9.0924   20.3469 O   0  0  0  0  0  0  0  0  0  0  0  0
   48.5400    7.4965   18.8606 O   0  0  0  0  0  0  0  0  0  0  0  0
   49.3744   11.5969   16.2547 O   0  0  0  0  0  0  0  0  0  0  0  0
   48.5946    8.1437   16.7089 H   0  0  0  0  0  0  0  0  0  0  0  0
   48.7518   10.9024   18.1088 H   0  0  0  0  0  0  0  0  0  0  0  0
   47.4344    7.5850   19.8737 H   0  0  0  0  0  0  0  0  0  0  0  0
   49.9414   11.4594   14.9463 H   0  0  0  0  0  0  0  0  0  0  0  0
   46.7607   12.9835   21.6363 H   0  0  0  0  0  0  0  0  0  0  0  0
   48.5434   11.3109   22.1738 H   0  0  0  0  0  0  0  0  0  0  0  0
   46.5164   11.2571   17.7274 H   0  0  0  0  0  0  0  0  0  0  0  0
   45.7418   12.9273   19.3560 H   0  0  0  0  0  0  0  0  0  0  0  0
   46.8381    8.0150   18.4956 H   0  0  0  0  0  0  0  0  0  0  0  0
   48.0005    7.9740   19.8072 H   0  0  0  0  0  0  0  0  0  0  0  0
   47.3945    9.7827   16.4279 H   0  0  0  0  0  0  0  0  0  0  0  0
   48.7154    8.6499   16.2830 H   0  0  0  0  0  0  0  0  0  0  0  0
   50.4105   10.4345   16.7140 H   0  0  0  0  0  0  0  0  0  0  0  0
   49.1207   11.6152   16.8641 H   0  0  0  0  0  0  0  0  0  0  0  0
   50.9989    9.5406   14.5314 H   0  0  0  0  0  0  0  0  0  0  0  0
   50.0984   10.0658   13.0881 H   0  0  0  0  0  0  0  0  0  0  0  0
   49.3575    8.9332   14.2001 H   0  0  0  0  0  0  0  0  0  0  0  0
   51.2585   12.0283   14.9717 H   0  0  0  0  0  0  0  0  0  0  0  0
   50.2343   12.3727   13.5643 H   0  0  0  0  0  0  0  0  0  0  0  0
   49.7854   13.0159   15.1311 H   0  0  0  0  0  0  0  0  0  0  0  0
   46.9722    5.9699   16.8965 H   0  0  0  0  0  0  0  0  0  0  0  0
   48.6180    3.9750   16.3506 H   0  0  0  0  0  0  0  0  0  0  0  0
   50.9253    4.2842   17.6049 H   0  0  0  0  0  0  0  0  0  0  0  0
   50.2968   10.5286   18.7914 H   0  0  0  0  0  0  0  0  0  0  0  0
   51.2357   10.0688   17.3929 H   0  0  0  0  0  0  0  0  0  0  0  0
   50.8861   14.9859   15.6923 H   0  0  0  0  0  0  0  0  0  0  0  0
   48.1289   12.4489   17.9311 H   0  0  0  0  0  0  0  0  0  0  0  0
   48.6976    7.4953   17.4715 H   0  0  0  0  0  0  0  0  0  0  0  0
   50.0726    8.0244   18.4220 H   0  0  0  0  0  0  0  0  0  0  0  0
   48.5194   14.8505   16.8588 H   0  0  0  0  0  0  0  0  0  0  0  0
   48.4419    9.4205   19.8317 H   0  0  0  0  0  0  0  0  0  0  0  0
   47.1063    8.6891   18.9469 H   0  0  0  0  0  0  0  0  0  0  0  0
   50.8634    9.6972   15.1667 H   0  0  0  0  0  0  0  0  0  0  0  0
   46.2127    8.6334   14.1838 H   0  0  0  0  0  0  0  0  0  0  0  0
   48.0209    8.5663   21.9811 H   0  0  0  0  0  0  0  0  0  0  0  0
   47.5504    6.8818   22.2175 H   0  0  0  0  0  0  0  0  0  0  0  0
   46.4510    7.9823   21.3492 H   0  0  0  0  0  0  0  0  0  0  0  0
   48.1007    5.8224   18.8046 H   0  0  0  0  0  0  0  0  0  0  0  0
   46.5031    6.3363   19.4060 H   0  0  0  0  0  0  0  0  0  0  0  0
   47.5858    5.3424   20.3937 H   0  0  0  0  0  0  0  0  0  0  0  0
   50.2073    9.3396   12.8261 H   0  0  0  0  0  0  0  0  0  0  0  0
   47.8200    8.8164   12.2879 H   0  0  0  0  0  0  0  0  0  0  0  0
   48.0503   10.4480   18.2071 H   0  0  0  0  0  0  0  0  0  0  0  0
   48.8643    8.3303   16.0920 H   0  0  0  0  0  0  0  0  0  0  0  0
   47.3810    7.4306   19.6884 H   0  0  0  0  0  0  0  0  0  0  0  0
   49.0405   12.7791   15.9281 H   0  0  0  0  0  0  0  0  0  0  0  0
   49.2609    8.3163   16.6663 H   0  0  0  0  0  0  0  0  0  0  0  0
   48.6722   10.7773   18.4559 H   0  0  0  0  0  0  0  0  0  0  0  0
   48.2680    6.9979   19.6591 H   0  0  0  0  0  0  0  0  0  0  0  0
   49.6258   12.0919   15.4476 H   0  0  0  0  0  0  0  0  0  0  0  0
  2  4  1  0
  3  1  1  0
  4  3  2  0
  5  1  2  0
  6  2  2  0
  7  2  1  0
  8  1  1  0
 15 17  1  0
 12 15  1  0
 17 18  1  0
 11 12  1  0
 18 19  1  0
 15 16  1  0
 19 20  1  0
 19 21  1  0
 16 22  1  0
 23 24  1  0
 12 13  2  0
 10 11  2  0
 13 14  1  0
 22 23  2  0
 24 25  2  0
 25 26  1  0
 26 22  1  0
 14  9  2  0
  9 10  1  0
 28 27  1  0
 29 31  1  0
 30 29  1  0
 31 27  1  0
 32 28  2  0
 33 30  1  0
 34 29  2  0
 35 27  1  0
 36 34  1  0
 37 38  1  0
 38 35  1  0
 39 28  1  0
 40 32  1  0
 41 37  1  0
 42 37  1  0
 43 39  2  0
 44 40  2  0
 36 33  2  0
 43 44  1  0
 46 48  1  0
 47 45  1  0
 48 47  2  0
 49 45  2  0
 50 46  2  0
 51 46  1  0
 52 45  1  0
 54 56  1  0
 55 53  1  0
 56 55  2  0
 57 53  2  0
 58 54  2  0
 59 54  1  0
 60 53  1  0
  3 61  1  0
  4 62  1  0
  7 63  1  0
  8 64  1  0
  9 65  1  0
 10 66  1  0
 13 67  1  0
 14 68  1  0
 16 69  1  0
 16 70  1  0
 17 71  1  0
 17 72  1  0
 18 73  1  0
 18 74  1  0
 20 75  1  0
 20 76  1  0
 20 77  1  0
 21 78  1  0
 21 79  1  0
 21 80  1  0
 23 81  1  0
 24 82  1  0
 25 83  1  0
 31 84  1  0
 31 85  1  0
 33 86  1  0
 34 87  1  0
 35 88  1  0
 35 89  1  0
 36 90  1  0
 38 91  1  0
 38 92  1  0
 39 93  1  0
 40 94  1  0
 41 95  1  0
 41 96  1  0
 41 97  1  0
 42 98  1  0
 42 99  1  0
 42100  1  0
 43101  1  0
 44102  1  0
 47103  1  0
 48104  1  0
 51105  1  0
 52106  1  0
 55107  1  0
 56108  1  0
 59109  1  0
 60110  1  0
M  END
> <Uni-Dock RESULT> 
ENERGY=   -4.760  LOWER_BOUND=    3.013  UPPER_BOUND=    5.774
INTER + INTRA:          -4.760
INTER:                  -4.760
INTRA:                   0.000
UNBOUND:                 0.000

$$$$

     RDKit          3D

110109  0  0  0  0  0  0  0  0999 V2000
   49.5538    7.9849   14.5385 C   0  0  0  0  0  0  0  0  0  0  0  0
   48.4277    7.9833   18.2009 C   0  0  0  0  0  0  0  0  0  0  0  0
   48.9919    7.5853   15.8322 C   0  0  0  0  0  0  0  0  0  0  0  0
   48.9970    8.3812   16.9107 C   0  0  0  0  0  0  0  0  0  0  0  0
   49.5365    7.2918   13.5377 O   0  0  0  0  0  0  0  0  0  0  0  0
   48.4234    8.6844   19.1967 O   0  0  0  0  0  0  0  0  0  0  0  0
   47.8946    6.7521   18.2013 O   0  0  0  0  0  0  0  0  0  0  0  0
   50.1058    9.2079   14.5384 O   0  0  0  0  0  0  0  0  0  0  0  0
   48.3642   11.3511   19.6054 C   0  0  0  0  0  0  0  0  0  0  0  0
   49.1377   10.2592   19.9442 C   0  0  0  0  0  0  0  0  0  0  0  0
   49.2740    9.1622   19.1701 N   0  0  0  0  0  0  0  0  0  0  0  0
   48.6413    9.1256   17.9741 C   0  0  0  0  0  0  0  0  0  0  0  0
   47.8494   10.2004   17.5586 C   0  0  0  0  0  0  0  0  0  0  0  0
   47.7039   11.3143   18.3846 C   0  0  0  0  0  0  0  0  0  0  0  0
   48.8028    7.9520   17.2296 N   0  0  0  0  0  0  0  0  0  0  0  0
   48.0521    6.8683   17.8901 C   0  0  0  0  0  0  0  0  0  0  0  0
   48.6957    8.0250   15.7636 C   0  0  0  0  0  0  0  0  0  0  0  0
   49.8641    8.8284   15.1441 C   0  0  0  0  0  0  0  0  0  0  0  0
   49.8205    8.9242   13.6613 N   0  0  0  0  0  0  0  0  0  0  0  0
   50.0703    7.6238   13.0290 C   0  0  0  0  0  0  0  0  0  0  0  0
   50.8375    9.8824   13.2129 C   0  0  0  0  0  0  0  0  0  0  0  0
   48.3400    5.4630   17.4287 C   0  0  0  0  0  0  0  0  0  0  0  0
   47.5132    4.6070   16.7306 C   0  0  0  0  0  0  0  0  0  0  0  0
   48.1152    3.3337   16.5110 C   0  0  0  0  0  0  0  0  0  0  0  0
   49.3746    3.2559   17.0524 C   0  0  0  0  0  0  0  0  0  0  0  0
   49.8436    4.7218   17.8001 S   0  0  0  0  0  0  0  0  0  0  0  0
   49.4861    7.9064   16.2313 N   0  0  0  0  0  0  0  0  0  0  0  0
   49.0300    7.6393   14.9403 C   0  0  0  0  0  0  0  0  0  0  0  0
   50.9087    9.9530   15.8170 C   0  0  0  0  0  0  0  0  0  0  0  0
   52.2396   10.3387   14.7997 S   0  0  0  0  0  0  0  0  0  0  0  0
   50.7817    8.5787   16.4371 C   0  0  0  0  0  0  0  0  0  0  0  0
   47.6890    7.5867   14.7707 N   0  0  0  0  0  0  0  0  0  0  0  0
   51.6540   11.9179   14.5282 C   0  0  0  0  0  0  0  0  0  0  0  0
   50.0623   11.0334   15.9713 C   0  0  0  0  0  0  0  0  0  0  0  0
   49.1792    6.8028   17.1586 C   0  0  0  0  0  0  0  0  0  0  0  0
   50.4935   12.1698   15.2336 C   0  0  0  0  0  0  0  0  0  0  0  0
   48.2905    6.3003   19.4756 N   0  0  0  0  0  0  0  0  0  0  0  0
   48.4145    7.3171   18.4014 C   0  0  0  0  0  0  0  0  0  0  0  0
   49.8928    7.4183   13.8608 C   0  0  0  0  0  0  0  0  0  0  0  0
   47.2059    7.3523   13.5278 C   0  0  0  0  0  0  0  0  0  0  0  0
   47.8282    6.9223   20.7199 C   0  0  0  0  0  0  0  0  0  0  0  0
   47.3693    5.2224   19.0939 C   0  0  0  0  0  0  0  0  0  0  0  0
   49.3733    7.1611   12.5904 C   0  0  0  0  0  0  0  0  0  0  0  0
   48.0013    7.1375   12.4148 C   0  0  0  0  0  0  0  0  0  0  0  0
   49.4062    9.2169   15.0384 C   0  0  0  0  0  0  0  0  0  0  0  0
   48.0695    6.4131   17.2129 C   0  0  0  0  0  0  0  0  0  0  0  0
   48.8530    8.5196   16.1990 C   0  0  0  0  0  0  0  0  0  0  0  0
   48.6090    7.2060   16.1064 C   0  0  0  0  0  0  0  0  0  0  0  0
   49.6825    8.7395   13.9554 O   0  0  0  0  0  0  0  0  0  0  0  0
   47.8398    5.2188   17.1631 O   0  0  0  0  0  0  0  0  0  0  0  0
   47.8368    7.1335   18.3210 O   0  0  0  0  0  0  0  0  0  0  0  0
   49.5743   10.5178   15.3196 O   0  0  0  0  0  0  0  0  0  0  0  0
   49.8506    8.3999   14.7235 C   0  0  0  0  0  0  0  0  0  0  0  0
   48.7490    7.5056   18.2819 C   0  0  0  0  0  0  0  0  0  0  0  0
   49.4030    7.6624   15.9083 C   0  0  0  0  0  0  0  0  0  0  0  0
   49.1971    8.2441   17.0984 C   0  0  0  0  0  0  0  0  0  0  0  0
   50.0527    7.8960   13.6339 O   0  0  0  0  0  0  0  0  0  0  0  0
   48.5552    8.0073   19.3746 O   0  0  0  0  0  0  0  0  0  0  0  0
   48.5503    6.1980   18.0621 O   0  0  0  0  0  0  0  0  0  0  0  0
   50.0325    9.7107   14.9374 O   0  0  0  0  0  0  0  0  0  0  0  0
   48.5564    6.5917   15.8492 H   0  0  0  0  0  0  0  0  0  0  0  0
   49.4380    9.3703   16.8965 H   0  0  0  0  0  0  0  0  0  0  0  0
   47.5847    6.6396   19.1246 H   0  0  0  0  0  0  0  0  0  0  0  0
   50.4382    9.3143   13.6219 H   0  0  0  0  0  0  0  0  0  0  0  0
   48.2705   12.2009   20.2675 H   0  0  0  0  0  0  0  0  0  0  0  0
   49.6826   10.2299   20.8885 H   0  0  0  0  0  0  0  0  0  0  0  0
   47.3104   10.1845   16.6162 H   0  0  0  0  0  0  0  0  0  0  0  0
   47.0677   12.1453   18.0785 H   0  0  0  0  0  0  0  0  0  0  0  0
   46.9785    7.0508   17.7449 H   0  0  0  0  0  0  0  0  0  0  0  0
   48.2143    6.8803   18.9766 H   0  0  0  0  0  0  0  0  0  0  0  0
   47.7256    8.4236   15.4499 H   0  0  0  0  0  0  0  0  0  0  0  0
   48.7474    7.0106   15.3592 H   0  0  0  0  0  0  0  0  0  0  0  0
   50.8243    8.3960   15.4666 H   0  0  0  0  0  0  0  0  0  0  0  0
   49.8435    9.8488   15.5549 H   0  0  0  0  0  0  0  0  0  0  0  0
   51.0078    7.1726   13.3741 H   0  0  0  0  0  0  0  0  0  0  0  0
   50.1214    7.7387   11.9376 H   0  0  0  0  0  0  0  0  0  0  0  0
   49.2505    6.9250   13.2212 H   0  0  0  0  0  0  0  0  0  0  0  0
   51.8451    9.5671   13.4965 H   0  0  0  0  0  0  0  0  0  0  0  0
   50.8019    9.9901   12.1249 H   0  0  0  0  0  0  0  0  0  0  0  0
   50.6447   10.8758   13.6286 H   0  0  0  0  0  0  0  0  0  0  0  0
   46.5192    4.8763   16.3967 H   0  0  0  0  0  0  0  0  0  0  0  0
   47.6322    2.5134   15.9914 H   0  0  0  0  0  0  0  0  0  0  0  0
   50.0521    2.4150   17.0527 H   0  0  0  0  0  0  0  0  0  0  0  0
   50.9171    8.7258   17.5209 H   0  0  0  0  0  0  0  0  0  0  0  0
   51.6054    7.9233   16.1314 H   0  0  0  0  0  0  0  0  0  0  0  0
   52.1961   12.5897   13.8801 H   0  0  0  0  0  0  0  0  0  0  0  0
   49.1568   10.9916   16.5745 H   0  0  0  0  0  0  0  0  0  0  0  0
   48.5811    6.0185   16.6760 H   0  0  0  0  0  0  0  0  0  0  0  0
   50.1169    6.3145   17.4684 H   0  0  0  0  0  0  0  0  0  0  0  0
   49.9694   13.1179   15.2004 H   0  0  0  0  0  0  0  0  0  0  0  0
   48.9630    8.1827   18.8003 H   0  0  0  0  0  0  0  0  0  0  0  0
   47.4268    7.6885   18.0947 H   0  0  0  0  0  0  0  0  0  0  0  0
   50.9664    7.4203   13.9933 H   0  0  0  0  0  0  0  0  0  0  0  0
   46.1277    7.3504   13.4378 H   0  0  0  0  0  0  0  0  0  0  0  0
   48.5552    7.6719   21.0585 H   0  0  0  0  0  0  0  0  0  0  0  0
   47.7489    6.1725   21.5237 H   0  0  0  0  0  0  0  0  0  0  0  0
   46.8460    7.3999   20.6005 H   0  0  0  0  0  0  0  0  0  0  0  0
   47.7509    4.6715   18.2343 H   0  0  0  0  0  0  0  0  0  0  0  0
   46.3644    5.5951   18.8687 H   0  0  0  0  0  0  0  0  0  0  0  0
   47.2849    4.4870   19.8985 H   0  0  0  0  0  0  0  0  0  0  0  0
   50.0447    6.9839   11.7580 H   0  0  0  0  0  0  0  0  0  0  0  0
   47.5629    6.9667   11.4367 H   0  0  0  0  0  0  0  0  0  0  0  0
   48.6652    9.1005   17.0922 H   0  0  0  0  0  0  0  0  0  0  0  0
   48.8051    6.6477   15.1987 H   0  0  0  0  0  0  0  0  0  0  0  0
   47.4825    6.4834   18.9627 H   0  0  0  0  0  0  0  0  0  0  0  0
   49.9390   10.8981   14.4932 H   0  0  0  0  0  0  0  0  0  0  0  0
   49.2380    6.6024   15.7447 H   0  0  0  0  0  0  0  0  0  0  0  0
   49.3638    9.3029   17.2604 H   0  0  0  0  0  0  0  0  0  0  0  0
   48.2468    5.8590   18.9299 H   0  0  0  0  0  0  0  0  0  0  0  0
   50.3145   10.0499   14.0627 H   0  0  0  0  0  0  0  0  0  0  0  0
  2  4  1  0
  3  1  1  0
  4  3  2  0
  5  1  2  0
  6  2  2  0
  7  2  1  0
  8  1  1  0
 15 17  1  0
 12 15  1  0
 17 18  1  0
 11 12  1  0
 18 19  1  0
 15 16  1  0
 19 20  1  0
 19 21  1  0
 16 22  1  0
 23 24  1  0
 12 13  2  0
 10 11  2  0
 13 14  1  0
 22 23  2  0
 24 25  2  0
 25 26  1  0
 26 22  1  0
 14  9  2  0
  9 10  1  0
 28 27  1  0
 29 31  1  0
 30 29  1  0
 31 27  1  0
 32 28  2  0
 33 30  1  0
 34 29  2  0
 35 27  1  0
 36 34  1  0
 37 38  1  0
 38 35  1  0
 39 28  1  0
 40 32  1  0
 41 37  1  0
 42 37  1  0
 43 39  2  0
 44 40  2  0
 36 33  2  0
 43 44  1  0
 46 48  1  0
 47 45  1  0
 48 47  2  0
 49 45  2  0
 50 46  2  0
 51 46  1  0
 52 45  1  0
 54 56  1  0
 55 53  1  0
 56 55  2  0
 57 53  2  0
 58 54  2  0
 59 54  1  0
 60 53  1  0
  3 61  1  0
  4 62  1  0
  7 63  1  0
  8 64  1  0
  9 65  1  0
 10 66  1  0
 13 67  1  0
 14 68  1  0
 16 69  1  0
 16 70  1  0
 17 71  1  0
 17 72  1  0
 18 73  1  0
 18 74  1  0
 20 75  1  0
 20 76  1  0
 20 77  1  0
 21 78  1  0
 21 79  1  0
 21 80  1  0
 23 81  1  0
 24 82  1  0
 25 83  1  0
 31 84  1  0
 31 85  1  0
 33 86  1  0
 34 87  1  0
 35 88  1  0
 35 89  1  0
 36 90  1  0
 38 91  1  0
 38 92  1  0
 39 93  1  0
 40 94  1  0
 41 95  1  0
 41 96  1  0
 41 97  1  0
 42 98  1  0
 42 99  1  0
 42100  1  0
 43101  1  0
 44102  1  0
 47103  1  0
 48104  1  0
 51105  1  0
 52106  1  0
 55107  1  0
 56108  1  0
 59109  1  0
 60110  1  0
M  END
> <Uni-Dock RESULT> 
ENERGY=   -4.738  LOWER_BOUND=    1.861  UPPER_BOUND=    5.043
INTER + INTRA:          -4.738
INTER:                  -4.738
INTRA:                   0.000
UNBOUND:                 0.000

$$$$

     RDKit          3D

110109  0  0  0  0  0  0  0  0999 V2000
   47.0648   13.1236    9.1970 C   0  0  0  0  0  0  0  0  0  0  0  0
   44.5598   13.8038   12.0155 C   0  0  0  0  0  0  0  0  0  0  0  0
   46.4619   13.5429   10.4658 C   0  0  0  0  0  0  0  0  0  0  0  0
   45.1594   13.3915   10.7437 C   0  0  0  0  0  0  0  0  0  0  0  0
   48.2487   13.2246    8.9317 O   0  0  0  0  0  0  0  0  0  0  0  0
   43.3799   13.6822   12.2914 O   0  0  0  0  0  0  0  0  0  0  0  0
   45.4357   14.3401   12.8787 O   0  0  0  0  0  0  0  0  0  0  0  0
   46.1893   12.6046    8.3227 O   0  0  0  0  0  0  0  0  0  0  0  0
   41.4595   11.9333   11.5600 C   0  0  0  0  0  0  0  0  0  0  0  0
   41.6858   13.2949   11.5642 C   0  0  0  0  0  0  0  0  0  0  0  0
   42.9080   13.8567   11.4551 N   0  0  0  0  0  0  0  0  0  0  0  0
   43.9849   13.0505   11.3056 C   0  0  0  0  0  0  0  0  0  0  0  0
   43.8315   11.6610   11.2805 C   0  0  0  0  0  0  0  0  0  0  0  0
   42.5618   11.1012   11.4180 C   0  0  0  0  0  0  0  0  0  0  0  0
   45.2255   13.6922   11.2220 N   0  0  0  0  0  0  0  0  0  0  0  0
   45.5633   14.2388   12.5491 C   0  0  0  0  0  0  0  0  0  0  0  0
   46.3158   13.0292   10.4890 C   0  0  0  0  0  0  0  0  0  0  0  0
   46.0192   12.9486    8.9723 C   0  0  0  0  0  0  0  0  0  0  0  0
   47.0934   12.3020    8.1737 N   0  0  0  0  0  0  0  0  0  0  0  0
   48.3054   13.1281    8.1308 C   0  0  0  0  0  0  0  0  0  0  0  0
   46.6086   12.0847    6.8058 C   0  0  0  0  0  0  0  0  0  0  0  0
   46.7009   15.2252   12.6084 C   0  0  0  0  0  0  0  0  0  0  0  0
   47.9461   15.0595   13.1789 C   0  0  0  0  0  0  0  0  0  0  0  0
   48.7461   16.2353   13.0809 C   0  0  0  0  0  0  0  0  0  0  0  0
   48.0864   17.2594   12.4477 C   0  0  0  0  0  0  0  0  0  0  0  0
   46.5163   16.7988   11.9468 S   0  0  0  0  0  0  0  0  0  0  0  0
   45.8475   13.7684   10.1862 N   0  0  0  0  0  0  0  0  0  0  0  0
   47.0950   13.1958    9.9381 C   0  0  0  0  0  0  0  0  0  0  0  0
   44.5778   13.0498    8.1233 C   0  0  0  0  0  0  0  0  0  0  0  0
   44.7984   13.2121    6.4262 S   0  0  0  0  0  0  0  0  0  0  0  0
   44.9760   14.1649    9.0653 C   0  0  0  0  0  0  0  0  0  0  0  0
   47.5722   12.3517   10.8813 N   0  0  0  0  0  0  0  0  0  0  0  0
   44.1798   11.6492    6.1340 C   0  0  0  0  0  0  0  0  0  0  0  0
   44.0026   11.8356    8.4431 C   0  0  0  0  0  0  0  0  0  0  0  0
   45.8907   14.6990   11.3282 C   0  0  0  0  0  0  0  0  0  0  0  0
   43.7665   11.0286    7.2966 C   0  0  0  0  0  0  0  0  0  0  0  0
   44.6531   15.3727   13.4318 N   0  0  0  0  0  0  0  0  0  0  0  0
   44.8172   14.3365   12.3818 C   0  0  0  0  0  0  0  0  0  0  0  0
   47.8429   13.4738    8.7883 C   0  0  0  0  0  0  0  0  0  0  0  0
   48.7698   11.7576   10.6673 C   0  0  0  0  0  0  0  0  0  0  0  0
   43.4415   15.1198   14.2173 C   0  0  0  0  0  0  0  0  0  0  0  0
   45.8165   15.4227   14.3264 C   0  0  0  0  0  0  0  0  0  0  0  0
   49.0840   12.8632    8.5956 C   0  0  0  0  0  0  0  0  0  0  0  0
   49.5553   11.9778    9.5483 C   0  0  0  0  0  0  0  0  0  0  0  0
   45.9705   12.3583    9.1170 C   0  0  0  0  0  0  0  0  0  0  0  0
   46.3491   14.3153   12.3425 C   0  0  0  0  0  0  0  0  0  0  0  0
   45.6477   12.9415   10.4189 C   0  0  0  0  0  0  0  0  0  0  0  0
   46.5760   13.6770   11.0443 C   0  0  0  0  0  0  0  0  0  0  0  0
   47.0159   12.4567    8.5049 O   0  0  0  0  0  0  0  0  0  0  0  0
   47.1689   14.9920   12.9354 O   0  0  0  0  0  0  0  0  0  0  0  0
   45.1264   14.0828   12.8443 O   0  0  0  0  0  0  0  0  0  0  0  0
   44.9253   11.6557    8.6551 O   0  0  0  0  0  0  0  0  0  0  0  0
   46.6018   13.0832    8.9168 C   0  0  0  0  0  0  0  0  0  0  0  0
   44.7137   14.3640   11.9942 C   0  0  0  0  0  0  0  0  0  0  0  0
   46.2602   13.7680   10.1668 C   0  0  0  0  0  0  0  0  0  0  0  0
   45.0536   13.6794   10.7442 C   0  0  0  0  0  0  0  0  0  0  0  0
   47.6858   13.1525    8.3672 O   0  0  0  0  0  0  0  0  0  0  0  0
   43.6268   14.3025   12.5400 O   0  0  0  0  0  0  0  0  0  0  0  0
   45.7239   15.0756   12.5148 O   0  0  0  0  0  0  0  0  0  0  0  0
   45.5982   12.3570    8.4046 O   0  0  0  0  0  0  0  0  0  0  0  0
   47.1574   13.9787   11.1754 H   0  0  0  0  0  0  0  0  0  0  0  0
   44.4632   12.9633   10.0331 H   0  0  0  0  0  0  0  0  0  0  0  0
   44.8787   14.5741   13.6508 H   0  0  0  0  0  0  0  0  0  0  0  0
   46.7396   12.3911    7.5396 H   0  0  0  0  0  0  0  0  0  0  0  0
   40.4626   11.5287   11.6689 H   0  0  0  0  0  0  0  0  0  0  0  0
   40.8602   13.9998   11.6697 H   0  0  0  0  0  0  0  0  0  0  0  0
   44.6817   10.9920   11.1884 H   0  0  0  0  0  0  0  0  0  0  0  0
   42.4374   10.0180   11.4248 H   0  0  0  0  0  0  0  0  0  0  0  0
   45.8155   13.4025   13.2154 H   0  0  0  0  0  0  0  0  0  0  0  0
   44.6953   14.7345   13.0052 H   0  0  0  0  0  0  0  0  0  0  0  0
   46.5395   12.0420   10.9057 H   0  0  0  0  0  0  0  0  0  0  0  0
   47.2279   13.6194   10.6114 H   0  0  0  0  0  0  0  0  0  0  0  0
   45.8118   13.9567    8.5804 H   0  0  0  0  0  0  0  0  0  0  0  0
   45.0913   12.3756    8.8275 H   0  0  0  0  0  0  0  0  0  0  0  0
   48.0978   14.1440    7.7752 H   0  0  0  0  0  0  0  0  0  0  0  0
   49.0494   12.6719    7.4635 H   0  0  0  0  0  0  0  0  0  0  0  0
   48.7794   13.1887    9.1153 H   0  0  0  0  0  0  0  0  0  0  0  0
   46.3481   13.0252    6.3134 H   0  0  0  0  0  0  0  0  0  0  0  0
   47.3748   11.5819    6.2085 H   0  0  0  0  0  0  0  0  0  0  0  0
   45.7341   11.4274    6.8039 H   0  0  0  0  0  0  0  0  0  0  0  0
   48.2696   14.1406   13.6512 H   0  0  0  0  0  0  0  0  0  0  0  0
   49.7534   16.3208   13.4738 H   0  0  0  0  0  0  0  0  0  0  0  0
   48.4385   18.2608   12.2492 H   0  0  0  0  0  0  0  0  0  0  0  0
   44.0341   14.5486    9.4897 H   0  0  0  0  0  0  0  0  0  0  0  0
   45.4122   15.0115    8.5227 H   0  0  0  0  0  0  0  0  0  0  0  0
   44.1329   11.2682    5.1251 H   0  0  0  0  0  0  0  0  0  0  0  0
   43.7854   11.5377    9.4676 H   0  0  0  0  0  0  0  0  0  0  0  0
   46.8751   14.7030   11.8145 H   0  0  0  0  0  0  0  0  0  0  0  0
   45.7322   15.7277   10.9673 H   0  0  0  0  0  0  0  0  0  0  0  0
   43.3377   10.0335    7.3214 H   0  0  0  0  0  0  0  0  0  0  0  0
   43.8583   14.2142   11.8577 H   0  0  0  0  0  0  0  0  0  0  0  0
   45.0562   13.3602   12.8258 H   0  0  0  0  0  0  0  0  0  0  0  0
   47.4879   14.1764    8.0464 H   0  0  0  0  0  0  0  0  0  0  0  0
   49.0938   11.0680   11.4355 H   0  0  0  0  0  0  0  0  0  0  0  0
   42.5567   15.1650   13.5691 H   0  0  0  0  0  0  0  0  0  0  0  0
   43.3087   15.8957   14.9887 H   0  0  0  0  0  0  0  0  0  0  0  0
   43.4727   14.1424   14.7180 H   0  0  0  0  0  0  0  0  0  0  0  0
   46.7126   15.7201   13.7820 H   0  0  0  0  0  0  0  0  0  0  0  0
   45.9971   14.4653   14.8268 H   0  0  0  0  0  0  0  0  0  0  0  0
   45.6755   16.1856   15.0967 H   0  0  0  0  0  0  0  0  0  0  0  0
   49.6634   13.0861    7.7070 H   0  0  0  0  0  0  0  0  0  0  0  0
   50.5032   11.4652    9.4188 H   0  0  0  0  0  0  0  0  0  0  0  0
   44.6621   12.7538   10.8235 H   0  0  0  0  0  0  0  0  0  0  0  0
   47.5569   13.8486   10.6172 H   0  0  0  0  0  0  0  0  0  0  0  0
   45.1205   14.5608   13.6996 H   0  0  0  0  0  0  0  0  0  0  0  0
   45.2328   11.3039    7.7936 H   0  0  0  0  0  0  0  0  0  0  0  0
   47.0690   14.3477   10.5996 H   0  0  0  0  0  0  0  0  0  0  0  0
   44.2464   13.1009   10.3097 H   0  0  0  0  0  0  0  0  0  0  0  0
   45.3453   15.4512   13.3368 H   0  0  0  0  0  0  0  0  0  0  0  0
   45.9868   11.9655    7.5951 H   0  0  0  0  0  0  0  0  0  0  0  0
  2  4  1  0
  3  1  1  0
  4  3  2  0
  5  1  2  0
  6  2  2  0
  7  2  1  0
  8  1  1  0
 15 17  1  0
 12 15  1  0
 17 18  1  0
 11 12  1  0
 18 19  1  0
 15 16  1  0
 19 20  1  0
 19 21  1  0
 16 22  1  0
 23 24  1  0
 12 13  2  0
 10 11  2  0
 13 14  1  0
 22 23  2  0
 24 25  2  0
 25 26  1  0
 26 22  1  0
 14  9  2  0
  9 10  1  0
 28 27  1  0
 29 31  1  0
 30 29  1  0
 31 27  1  0
 32 28  2  0
 33 30  1  0
 34 29  2  0
 35 27  1  0
 36 34  1  0
 37 38  1  0
 38 35  1  0
 39 28  1  0
 40 32  1  0
 41 37  1  0
 42 37  1  0
 43 39  2  0
 44 40  2  0
 36 33  2  0
 43 44  1  0
 46 48  1  0
 47 45  1  0
 48 47  2  0
 49 45  2  0
 50 46  2  0
 51 46  1  0
 52 45  1  0
 54 56  1  0
 55 53  1  0
 56 55  2  0
 57 53  2  0
 58 54  2  0
 59 54  1  0
 60 53  1  0
  3 61  1  0
  4 62  1  0
  7 63  1  0
  8 64  1  0
  9 65  1  0
 10 66  1  0
 13 67  1  0
 14 68  1  0
 16 69  1  0
 16 70  1  0
 17 71  1  0
 17 72  1  0
 18 73  1  0
 18 74  1  0
 20 75  1  0
 20 76  1  0
 20 77  1  0
 21 78  1  0
 21 79  1  0
 21 80  1  0
 23 81  1  0
 24 82  1  0
 25 83  1  0
 31 84  1  0
 31 85  1  0
 33 86  1  0
 34 87  1  0
 35 88  1  0
 35 89  1  0
 36 90  1  0
 38 91  1  0
 38 92  1  0
 39 93  1  0
 40 94  1  0
 41 95  1  0
 41 96  1  0
 41 97  1  0
 42 98  1  0
 42 99  1  0
 42100  1  0
 43101  1  0
 44102  1  0
 47103  1  0
 48104  1  0
 51105  1  0
 52106  1  0
 55107  1  0
 56108  1  0
 59109  1  0
 60110  1  0
M  END
> <Uni-Dock RESULT> 
ENERGY=   -4.645  LOWER_BOUND=    8.449  UPPER_BOUND=   11.013
INTER + INTRA:          -4.645
INTER:                  -4.645
INTRA:                   0.000
UNBOUND:                 0.000

$$$$

     RDKit          3D

110109  0  0  0  0  0  0  0  0999 V2000
   48.4330    9.2697   20.5752 C   0  0  0  0  0  0  0  0  0  0  0  0
   48.6032    7.4222   17.2227 C   0  0  0  0  0  0  0  0  0  0  0  0
   48.4849    8.9689   19.1414 C   0  0  0  0  0  0  0  0  0  0  0  0
   48.5595    7.7216   18.6564 C   0  0  0  0  0  0  0  0  0  0  0  0
   48.3371   10.3910   21.0396 O   0  0  0  0  0  0  0  0  0  0  0  0
   48.6757    6.2997   16.7561 O   0  0  0  0  0  0  0  0  0  0  0  0
   48.5545    8.5110   16.4402 O   0  0  0  0  0  0  0  0  0  0  0  0
   48.5013    8.1852   21.3625 O   0  0  0  0  0  0  0  0  0  0  0  0
   47.8386    3.8723   17.5861 C   0  0  0  0  0  0  0  0  0  0  0  0
   49.0046    4.4964   17.1906 C   0  0  0  0  0  0  0  0  0  0  0  0
   49.2551    5.8103   17.3702 N   0  0  0  0  0  0  0  0  0  0  0  0
   48.3280    6.5707   17.9981 C   0  0  0  0  0  0  0  0  0  0  0  0
   47.1273    6.0049   18.4373 C   0  0  0  0  0  0  0  0  0  0  0  0
   46.8794    4.6499   18.2207 C   0  0  0  0  0  0  0  0  0  0  0  0
   48.6365    7.9289   18.1323 N   0  0  0  0  0  0  0  0  0  0  0  0
   48.5548    8.5639   16.8040 C   0  0  0  0  0  0  0  0  0  0  0  0
   48.0504    8.6788   19.2548 C   0  0  0  0  0  0  0  0  0  0  0  0
   48.6105    8.2014   20.6161 C   0  0  0  0  0  0  0  0  0  0  0  0
   48.0674    8.9335   21.7902 N   0  0  0  0  0  0  0  0  0  0  0  0
   48.5331   10.3247   21.8213 C   0  0  0  0  0  0  0  0  0  0  0  0
   48.4950    8.2537   23.0184 C   0  0  0  0  0  0  0  0  0  0  0  0
   49.1445    9.9444   16.6733 C   0  0  0  0  0  0  0  0  0  0  0  0
   48.4853   11.1386   16.4662 C   0  0  0  0  0  0  0  0  0  0  0  0
   49.3843   12.2384   16.3473 C   0  0  0  0  0  0  0  0  0  0  0  0
   50.6963   11.8496   16.4597 C   0  0  0  0  0  0  0  0  0  0  0  0
   50.8458   10.1675   16.7357 S   0  0  0  0  0  0  0  0  0  0  0  0
   48.9385    8.4231   19.1953 N   0  0  0  0  0  0  0  0  0  0  0  0
   48.2164    9.4042   19.8750 C   0  0  0  0  0  0  0  0  0  0  0  0
   49.3620    6.7704   21.0590 C   0  0  0  0  0  0  0  0  0  0  0  0
   50.0825    6.8353   22.6184 S   0  0  0  0  0  0  0  0  0  0  0  0
   49.9185    7.5897   19.9151 C   0  0  0  0  0  0  0  0  0  0  0  0
   46.9952    9.7094   19.3796 N   0  0  0  0  0  0  0  0  0  0  0  0
   48.9368    5.7465   23.2609 C   0  0  0  0  0  0  0  0  0  0  0  0
   48.2925    5.8970   21.0337 C   0  0  0  0  0  0  0  0  0  0  0  0
   49.3407    8.8735   17.8510 C   0  0  0  0  0  0  0  0  0  0  0  0
   48.0492    5.3006   22.3012 C   0  0  0  0  0  0  0  0  0  0  0  0
   49.4647    8.1431   15.4299 N   0  0  0  0  0  0  0  0  0  0  0  0
   48.8838    7.8677   16.7678 C   0  0  0  0  0  0  0  0  0  0  0  0
   48.7114   10.0654   21.0048 C   0  0  0  0  0  0  0  0  0  0  0  0
   46.2532   10.6407   20.0242 C   0  0  0  0  0  0  0  0  0  0  0  0
   49.2385    7.0090   14.5290 C   0  0  0  0  0  0  0  0  0  0  0  0
   48.8988    9.3614   14.8368 C   0  0  0  0  0  0  0  0  0  0  0  0
   47.9363   11.0351   21.6443 C   0  0  0  0  0  0  0  0  0  0  0  0
   46.6759   11.3235   21.1523 C   0  0  0  0  0  0  0  0  0  0  0  0
   48.0390    7.9943   20.6629 C   0  0  0  0  0  0  0  0  0  0  0  0
   48.5109    9.3075   17.1373 C   0  0  0  0  0  0  0  0  0  0  0  0
   48.1584    8.0118   19.2053 C   0  0  0  0  0  0  0  0  0  0  0  0
   48.3638    9.1830   18.5889 C   0  0  0  0  0  0  0  0  0  0  0  0
   48.1024    8.9443   21.4184 O   0  0  0  0  0  0  0  0  0  0  0  0
   48.7017   10.3546   16.5468 O   0  0  0  0  0  0  0  0  0  0  0  0
   48.4106    8.1368   16.4892 O   0  0  0  0  0  0  0  0  0  0  0  0
   47.8308    6.7408   21.0930 O   0  0  0  0  0  0  0  0  0  0  0  0
   48.6117    8.7873   20.7480 C   0  0  0  0  0  0  0  0  0  0  0  0
   49.0767    7.7340   17.0942 C   0  0  0  0  0  0  0  0  0  0  0  0
   48.8460    8.8117   19.3014 C   0  0  0  0  0  0  0  0  0  0  0  0
   48.8431    7.7080   18.5404 C   0  0  0  0  0  0  0  0  0  0  0  0
   48.6166    9.7722   21.4634 O   0  0  0  0  0  0  0  0  0  0  0  0
   49.0809    6.7482   16.3791 O   0  0  0  0  0  0  0  0  0  0  0  0
   49.2798    8.9636   16.5997 O   0  0  0  0  0  0  0  0  0  0  0  0
   48.3909    7.5604   21.2409 O   0  0  0  0  0  0  0  0  0  0  0  0
   48.4462    9.8392   18.4945 H   0  0  0  0  0  0  0  0  0  0  0  0
   48.6054    6.8529   19.3016 H   0  0  0  0  0  0  0  0  0  0  0  0
   48.6128    8.1416   15.5340 H   0  0  0  0  0  0  0  0  0  0  0  0
   48.4671    8.5532   22.2708 H   0  0  0  0  0  0  0  0  0  0  0  0
   47.6750    2.8191   17.4038 H   0  0  0  0  0  0  0  0  0  0  0  0
   49.7966    3.9385   16.6896 H   0  0  0  0  0  0  0  0  0  0  0  0
   46.3565    6.5985   18.9195 H   0  0  0  0  0  0  0  0  0  0  0  0
   45.9347    4.2072   18.5377 H   0  0  0  0  0  0  0  0  0  0  0  0
   47.4972    8.6270   16.5135 H   0  0  0  0  0  0  0  0  0  0  0  0
   49.0396    7.9427   16.0384 H   0  0  0  0  0  0  0  0  0  0  0  0
   46.9566    8.6412   19.2370 H   0  0  0  0  0  0  0  0  0  0  0  0
   48.3155    9.7339   19.1456 H   0  0  0  0  0  0  0  0  0  0  0  0
   49.7101    8.2635   20.6076 H   0  0  0  0  0  0  0  0  0  0  0  0
   48.3730    7.1340   20.7369 H   0  0  0  0  0  0  0  0  0  0  0  0
   49.6263   10.3930   21.7769 H   0  0  0  0  0  0  0  0  0  0  0  0
   48.1917   10.8163   22.7426 H   0  0  0  0  0  0  0  0  0  0  0  0
   48.1094   10.9036   20.9951 H   0  0  0  0  0  0  0  0  0  0  0  0
   49.5839    8.2338   23.1132 H   0  0  0  0  0  0  0  0  0  0  0  0
   48.0805    8.7603   23.8949 H   0  0  0  0  0  0  0  0  0  0  0  0
   48.1161    7.2278   23.0462 H   0  0  0  0  0  0  0  0  0  0  0  0
   47.4082   11.2223   16.3964 H   0  0  0  0  0  0  0  0  0  0  0  0
   49.0734   13.2627   16.1721 H   0  0  0  0  0  0  0  0  0  0  0  0
   51.5836   12.4615   16.3944 H   0  0  0  0  0  0  0  0  0  0  0  0
   50.3324    6.8613   19.1991 H   0  0  0  0  0  0  0  0  0  0  0  0
   50.7741    8.1956   20.2350 H   0  0  0  0  0  0  0  0  0  0  0  0
   48.9794    5.4730   24.3042 H   0  0  0  0  0  0  0  0  0  0  0  0
   47.6984    5.7182   20.1389 H   0  0  0  0  0  0  0  0  0  0  0  0
   48.9276    9.8622   17.6111 H   0  0  0  0  0  0  0  0  0  0  0  0
   50.4355    8.9917   17.8177 H   0  0  0  0  0  0  0  0  0  0  0  0
   47.2501    4.5983   22.5084 H   0  0  0  0  0  0  0  0  0  0  0  0
   49.1985    6.8633   17.0861 H   0  0  0  0  0  0  0  0  0  0  0  0
   47.7859    7.8510   16.7246 H   0  0  0  0  0  0  0  0  0  0  0  0
   49.7017    9.8561   21.3863 H   0  0  0  0  0  0  0  0  0  0  0  0
   45.2723   10.8275   19.6076 H   0  0  0  0  0  0  0  0  0  0  0  0
   49.7317    6.1110   14.9235 H   0  0  0  0  0  0  0  0  0  0  0  0
   49.6813    7.2041   13.5388 H   0  0  0  0  0  0  0  0  0  0  0  0
   48.1687    6.8017   14.3896 H   0  0  0  0  0  0  0  0  0  0  0  0
   49.1516   10.2376   15.4338 H   0  0  0  0  0  0  0  0  0  0  0  0
   47.8111    9.3015   14.7232 H   0  0  0  0  0  0  0  0  0  0  0  0
   49.3323    9.5448   13.8501 H   0  0  0  0  0  0  0  0  0  0  0  0
   48.3257   11.5498   22.5152 H   0  0  0  0  0  0  0  0  0  0  0  0
   46.0359   12.0524   21.6393 H   0  0  0  0  0  0  0  0  0  0  0  0
   48.0772    7.0680   18.6828 H   0  0  0  0  0  0  0  0  0  0  0  0
   48.4399   10.1149   19.1364 H   0  0  0  0  0  0  0  0  0  0  0  0
   48.5246    8.3721   15.5449 H   0  0  0  0  0  0  0  0  0  0  0  0
   47.7597    6.8284   22.0665 H   0  0  0  0  0  0  0  0  0  0  0  0
   49.0117    9.8010   18.8874 H   0  0  0  0  0  0  0  0  0  0  0  0
   48.6787    6.7204   18.9558 H   0  0  0  0  0  0  0  0  0  0  0  0
   49.4038    8.8114   15.6397 H   0  0  0  0  0  0  0  0  0  0  0  0
   48.2456    7.7188   22.1966 H   0  0  0  0  0  0  0  0  0  0  0  0
  2  4  1  0
  3  1  1  0
  4  3  2  0
  5  1  2  0
  6  2  2  0
  7  2  1  0
  8  1  1  0
 15 17  1  0
 12 15  1  0
 17 18  1  0
 11 12  1  0
 18 19  1  0
 15 16  1  0
 19 20  1  0
 19 21  1  0
 16 22  1  0
 23 24  1  0
 12 13  2  0
 10 11  2  0
 13 14  1  0
 22 23  2  0
 24 25  2  0
 25 26  1  0
 26 22  1  0
 14  9  2  0
  9 10  1  0
 28 27  1  0
 29 31  1  0
 30 29  1  0
 31 27  1  0
 32 28  2  0
 33 30  1  0
 34 29  2  0
 35 27  1  0
 36 34  1  0
 37 38  1  0
 38 35  1  0
 39 28  1  0
 40 32  1  0
 41 37  1  0
 42 37  1  0
 43 39  2  0
 44 40  2  0
 36 33  2  0
 43 44  1  0
 46 48  1  0
 47 45  1  0
 48 47  2  0
 49 45  2  0
 50 46  2  0
 51 46  1  0
 52 45  1  0
 54 56  1  0
 55 53  1  0
 56 55  2  0
 57 53  2  0
 58 54  2  0
 59 54  1  0
 60 53  1  0
  3 61  1  0
  4 62  1  0
  7 63  1  0
  8 64  1  0
  9 65  1  0
 10 66  1  0
 13 67  1  0
 14 68  1  0
 16 69  1  0
 16 70  1  0
 17 71  1  0
 17 72  1  0
 18 73  1  0
 18 74  1  0
 20 75  1  0
 20 76  1  0
 20 77  1  0
 21 78  1  0
 21 79  1  0
 21 80  1  0
 23 81  1  0
 24 82  1  0
 25 83  1  0
 31 84  1  0
 31 85  1  0
 33 86  1  0
 34 87  1  0
 35 88  1  0
 35 89  1  0
 36 90  1  0
 38 91  1  0
 38 92  1  0
 39 93  1  0
 40 94  1  0
 41 95  1  0
 41 96  1  0
 41 97  1  0
 42 98  1  0
 42 99  1  0
 42100  1  0
 43101  1  0
 44102  1  0
 47103  1  0
 48104  1  0
 51105  1  0
 52106  1  0
 55107  1  0
 56108  1  0
 59109  1  0
 60110  1  0
M  END
> <Uni-Dock RESULT> 
ENERGY=   -4.614  LOWER_BOUND=    2.704  UPPER_BOUND=    4.539
INTER + INTRA:          -4.614
INTER:                  -4.614
INTRA:                   0.000
UNBOUND:                 0.000

$$$$

     RDKit          3D

110109  0  0  0  0  0  0  0  0999 V2000
   49.4026   13.8539   16.9935 C   0  0  0  0  0  0  0  0  0  0  0  0
   48.3513   10.2150   17.5717 C   0  0  0  0  0  0  0  0  0  0  0  0
   49.0164   12.4557   16.7815 C   0  0  0  0  0  0  0  0  0  0  0  0
   48.7451   11.6101   17.7855 C   0  0  0  0  0  0  0  0  0  0  0  0
   49.6268   14.6487   16.0989 O   0  0  0  0  0  0  0  0  0  0  0  0
   48.1042    9.4251   18.4650 O   0  0  0  0  0  0  0  0  0  0  0  0
   48.2804    9.8642   16.2786 O   0  0  0  0  0  0  0  0  0  0  0  0
   49.4941   14.2043   18.2856 O   0  0  0  0  0  0  0  0  0  0  0  0
   47.1203    9.6780   20.9650 C   0  0  0  0  0  0  0  0  0  0  0  0
   48.2261    9.1549   20.3254 C   0  0  0  0  0  0  0  0  0  0  0  0
   48.7351    9.6460   19.1761 N   0  0  0  0  0  0  0  0  0  0  0  0
   48.1535   10.7332   18.6177 C   0  0  0  0  0  0  0  0  0  0  0  0
   47.0364   11.3245   19.2156 C   0  0  0  0  0  0  0  0  0  0  0  0
   46.5130   10.7865   20.3907 C   0  0  0  0  0  0  0  0  0  0  0  0
   48.7129   11.1794   17.4153 N   0  0  0  0  0  0  0  0  0  0  0  0
   48.3873   10.2075   16.3553 C   0  0  0  0  0  0  0  0  0  0  0  0
   48.5855   12.6023   17.0620 C   0  0  0  0  0  0  0  0  0  0  0  0
   49.4004   13.5045   18.0194 C   0  0  0  0  0  0  0  0  0  0  0  0
   49.3245   14.9551   17.7037 N   0  0  0  0  0  0  0  0  0  0  0  0
   50.0110   15.2701   16.4455 C   0  0  0  0  0  0  0  0  0  0  0  0
   49.9438   15.7160   18.7951 C   0  0  0  0  0  0  0  0  0  0  0  0
   49.1460   10.3353   15.0597 C   0  0  0  0  0  0  0  0  0  0  0  0
   48.6684   10.7235   13.8249 C   0  0  0  0  0  0  0  0  0  0  0  0
   49.6760   10.6792   12.8175 C   0  0  0  0  0  0  0  0  0  0  0  0
   50.8841   10.2534   13.3116 C   0  0  0  0  0  0  0  0  0  0  0  0
   50.8140    9.9337   14.9912 S   0  0  0  0  0  0  0  0  0  0  0  0
   49.3682   12.1946   17.3424 N   0  0  0  0  0  0  0  0  0  0  0  0
   49.0324   13.3333   16.6100 C   0  0  0  0  0  0  0  0  0  0  0  0
   49.9885   13.2264   19.5639 C   0  0  0  0  0  0  0  0  0  0  0  0
   51.1008   14.4252   20.0939 S   0  0  0  0  0  0  0  0  0  0  0  0
   50.3488   12.2798   18.4398 C   0  0  0  0  0  0  0  0  0  0  0  0
   47.7934   13.3608   16.0676 N   0  0  0  0  0  0  0  0  0  0  0  0
   50.0015   15.0199   21.2551 C   0  0  0  0  0  0  0  0  0  0  0  0
   48.8191   13.2641   20.2975 C   0  0  0  0  0  0  0  0  0  0  0  0
   49.4658   11.0012   16.4832 C   0  0  0  0  0  0  0  0  0  0  0  0
   48.8268   14.2939   21.2778 C   0  0  0  0  0  0  0  0  0  0  0  0
   48.8102    8.5601   16.3360 N   0  0  0  0  0  0  0  0  0  0  0  0
   48.5712    9.8572   17.0168 C   0  0  0  0  0  0  0  0  0  0  0  0
   49.9170   14.4005   16.4175 C   0  0  0  0  0  0  0  0  0  0  0  0
   47.4209   14.4586   15.3682 C   0  0  0  0  0  0  0  0  0  0  0  0
   48.1615    7.4688   17.0689 C   0  0  0  0  0  0  0  0  0  0  0  0
   48.3217    8.5799   14.9514 C   0  0  0  0  0  0  0  0  0  0  0  0
   49.5183   15.5160   15.6780 C   0  0  0  0  0  0  0  0  0  0  0  0
   48.2402   15.5534   15.1499 C   0  0  0  0  0  0  0  0  0  0  0  0
   48.8357   13.6594   18.1895 C   0  0  0  0  0  0  0  0  0  0  0  0
   48.5614   10.7512   15.7721 C   0  0  0  0  0  0  0  0  0  0  0  0
   48.5612   12.3176   17.6763 C   0  0  0  0  0  0  0  0  0  0  0  0
   48.7898   12.0630   16.3814 C   0  0  0  0  0  0  0  0  0  0  0  0
   49.2599   14.6134   17.5671 O   0  0  0  0  0  0  0  0  0  0  0  0
   48.7620   10.4859   14.6012 O   0  0  0  0  0  0  0  0  0  0  0  0
   48.0935    9.8367   16.6356 O   0  0  0  0  0  0  0  0  0  0  0  0
   48.5405   13.7220   19.4966 O   0  0  0  0  0  0  0  0  0  0  0  0
   49.5365   13.8043   17.5172 C   0  0  0  0  0  0  0  0  0  0  0  0
   48.8189   10.0494   17.2685 C   0  0  0  0  0  0  0  0  0  0  0  0
   49.3750   12.4390   17.0093 C   0  0  0  0  0  0  0  0  0  0  0  0
   48.9806   11.4138   17.7778 C   0  0  0  0  0  0  0  0  0  0  0  0
   49.9003   14.7512   16.8441 O   0  0  0  0  0  0  0  0  0  0  0  0
   48.4637    9.0998   17.9430 O   0  0  0  0  0  0  0  0  0  0  0  0
   49.0879    9.9232   15.9610 O   0  0  0  0  0  0  0  0  0  0  0  0
   49.2507   13.9355   18.8203 O   0  0  0  0  0  0  0  0  0  0  0  0
   48.9542   12.1560   15.7406 H   0  0  0  0  0  0  0  0  0  0  0  0
   48.8140   11.9065   18.8249 H   0  0  0  0  0  0  0  0  0  0  0  0
   48.0300    8.9170   16.3142 H   0  0  0  0  0  0  0  0  0  0  0  0
   49.7677   15.1454   18.2538 H   0  0  0  0  0  0  0  0  0  0  0  0
   46.7373    9.2383   21.8756 H   0  0  0  0  0  0  0  0  0  0  0  0
   48.7480    8.2864   20.7288 H   0  0  0  0  0  0  0  0  0  0  0  0
   46.5357   12.1806   18.7737 H   0  0  0  0  0  0  0  0  0  0  0  0
   45.6269   11.2268   20.8488 H   0  0  0  0  0  0  0  0  0  0  0  0
   47.3172   10.2935   16.1218 H   0  0  0  0  0  0  0  0  0  0  0  0
   48.5362    9.1766   16.7047 H   0  0  0  0  0  0  0  0  0  0  0  0
   47.5370   12.9134   17.0148 H   0  0  0  0  0  0  0  0  0  0  0  0
   48.9869   12.7491   16.0557 H   0  0  0  0  0  0  0  0  0  0  0  0
   50.4514   13.1757   18.0350 H   0  0  0  0  0  0  0  0  0  0  0  0
   49.0261   13.3558   19.0432 H   0  0  0  0  0  0  0  0  0  0  0  0
   51.0473   14.9128   16.4424 H   0  0  0  0  0  0  0  0  0  0  0  0
   50.0177   16.3563   16.2812 H   0  0  0  0  0  0  0  0  0  0  0  0
   49.4860   14.8380   15.5881 H   0  0  0  0  0  0  0  0  0  0  0  0
   50.9983   15.4578   18.9224 H   0  0  0  0  0  0  0  0  0  0  0  0
   49.8717   16.7892   18.5960 H   0  0  0  0  0  0  0  0  0  0  0  0
   49.4175   15.5402   19.7379 H   0  0  0  0  0  0  0  0  0  0  0  0
   47.6425   11.0202   13.6473 H   0  0  0  0  0  0  0  0  0  0  0  0
   49.5083   10.9354   11.7770 H   0  0  0  0  0  0  0  0  0  0  0  0
   51.8121   10.1096   12.7784 H   0  0  0  0  0  0  0  0  0  0  0  0
   50.4256   11.2822   18.9018 H   0  0  0  0  0  0  0  0  0  0  0  0
   51.3489   12.4902   18.0435 H   0  0  0  0  0  0  0  0  0  0  0  0
   50.2752   15.8598   21.8756 H   0  0  0  0  0  0  0  0  0  0  0  0
   47.9854   12.5883   20.1133 H   0  0  0  0  0  0  0  0  0  0  0  0
   49.1778   11.2200   15.4465 H   0  0  0  0  0  0  0  0  0  0  0  0
   50.5152   10.6689   16.4374 H   0  0  0  0  0  0  0  0  0  0  0  0
   48.0052   14.5099   21.9509 H   0  0  0  0  0  0  0  0  0  0  0  0
   48.7843    9.7346   18.0886 H   0  0  0  0  0  0  0  0  0  0  0  0
   47.5157   10.1532   16.9409 H   0  0  0  0  0  0  0  0  0  0  0  0
   50.9228   14.3719   16.8145 H   0  0  0  0  0  0  0  0  0  0  0  0
   46.4108   14.4458   14.9807 H   0  0  0  0  0  0  0  0  0  0  0  0
   48.5823    7.3923   18.0800 H   0  0  0  0  0  0  0  0  0  0  0  0
   48.3491    6.5021   16.5741 H   0  0  0  0  0  0  0  0  0  0  0  0
   47.0743    7.6105   17.1400 H   0  0  0  0  0  0  0  0  0  0  0  0
   48.8703    9.3098   14.3563 H   0  0  0  0  0  0  0  0  0  0  0  0
   47.2496    8.7959   14.8922 H   0  0  0  0  0  0  0  0  0  0  0  0
   48.4994    7.6155   14.4680 H   0  0  0  0  0  0  0  0  0  0  0  0
   50.2085   16.3378   15.5255 H   0  0  0  0  0  0  0  0  0  0  0  0
   47.8878   16.4153   14.5923 H   0  0  0  0  0  0  0  0  0  0  0  0
   48.1838   11.5805   18.3724 H   0  0  0  0  0  0  0  0  0  0  0  0
   49.1672   12.8204   15.7047 H   0  0  0  0  0  0  0  0  0  0  0  0
   47.9885    9.0255   16.0961 H   0  0  0  0  0  0  0  0  0  0  0  0
   48.7490   14.6462   19.7471 H   0  0  0  0  0  0  0  0  0  0  0  0
   49.5893   12.3223   15.9519 H   0  0  0  0  0  0  0  0  0  0  0  0
   48.7683   11.5319   18.8341 H   0  0  0  0  0  0  0  0  0  0  0  0
   48.9223    8.9747   15.7793 H   0  0  0  0  0  0  0  0  0  0  0  0
   49.3960   14.8887   18.9932 H   0  0  0  0  0  0  0  0  0  0  0  0
  2  4  1  0
  3  1  1  0
  4  3  2  0
  5  1  2  0
  6  2  2  0
  7  2  1  0
  8  1  1  0
 15 17  1  0
 12 15  1  0
 17 18  1  0
 11 12  1  0
 18 19  1  0
 15 16  1  0
 19 20  1  0
 19 21  1  0
 16 22  1  0
 23 24  1  0
 12 13  2  0
 10 11  2  0
 13 14  1  0
 22 23  2  0
 24 25  2  0
 25 26  1  0
 26 22  1  0
 14  9  2  0
  9 10  1  0
 28 27  1  0
 29 31  1  0
 30 29  1  0
 31 27  1  0
 32 28  2  0
 33 30  1  0
 34 29  2  0
 35 27  1  0
 36 34  1  0
 37 38  1  0
 38 35  1  0
 39 28  1  0
 40 32  1  0
 41 37  1  0
 42 37  1  0
 43 39  2  0
 44 40  2  0
 36 33  2  0
 43 44  1  0
 46 48  1  0
 47 45  1  0
 48 47  2  0
 49 45  2  0
 50 46  2  0
 51 46  1  0
 52 45  1  0
 54 56  1  0
 55 53  1  0
 56 55  2  0
 57 53  2  0
 58 54  2  0
 59 54  1  0
 60 53  1  0
  3 61  1  0
  4 62  1  0
  7 63  1  0
  8 64  1  0
  9 65  1  0
 10 66  1  0
 13 67  1  0
 14 68  1  0
 16 69  1  0
 16 70  1  0
 17 71  1  0
 17 72  1  0
 18 73  1  0
 18 74  1  0
 20 75  1  0
 20 76  1  0
 20 77  1  0
 21 78  1  0
 21 79  1  0
 21 80  1  0
 23 81  1  0
 24 82  1  0
 25 83  1  0
 31 84  1  0
 31 85  1  0
 33 86  1  0
 34 87  1  0
 35 88  1  0
 35 89  1  0
 36 90  1  0
 38 91  1  0
 38 92  1  0
 39 93  1  0
 40 94  1  0
 41 95  1  0
 41 96  1  0
 41 97  1  0
 42 98  1  0
 42 99  1  0
 42100  1  0
 43101  1  0
 44102  1  0
 47103  1  0
 48104  1  0
 51105  1  0
 52106  1  0
 55107  1  0
 56108  1  0
 59109  1  0
 60110  1  0
M  END
> <Uni-Dock RESULT> 
ENERGY=   -4.544  LOWER_BOUND=    4.891  UPPER_BOUND=    6.720
INTER + INTRA:          -4.544
INTER:                  -4.544
INTRA:                   0.000
UNBOUND:                 0.000

$$$$
