
     RDKit          3D

110109  0  0  0  0  0  0  0  0999 V2000
   52.3847    7.2411   16.8356 C   0  0  0  0  0  0  0  0  0  0  0  0
   50.7962    4.1299   18.2419 C   0  0  0  0  0  0  0  0  0  0  0  0
   51.8310    5.8908   16.9480 C   0  0  0  0  0  0  0  0  0  0  0  0
   51.3584    5.4771   18.1307 C   0  0  0  0  0  0  0  0  0  0  0  0
   52.4757    8.0752   17.7151 O   0  0  0  0  0  0  0  0  0  0  0  0
   50.6965    3.2987   17.3610 O   0  0  0  0  0  0  0  0  0  0  0  0
   50.3785    3.9023   19.4955 O   0  0  0  0  0  0  0  0  0  0  0  0
   52.8073    7.4672   15.5832 O   0  0  0  0  0  0  0  0  0  0  0  0
   47.4604    5.8136   19.2193 C   0  0  0  0  0  0  0  0  0  0  0  0
   48.3860    5.0552   19.9031 C   0  0  0  0  0  0  0  0  0  0  0  0
   49.6887    4.9593   19.5537 N   0  0  0  0  0  0  0  0  0  0  0  0
   50.1406    5.6334   18.4710 C   0  0  0  0  0  0  0  0  0  0  0  0
   49.2515    6.4261   17.7428 C   0  0  0  0  0  0  0  0  0  0  0  0
   47.9078    6.5166   18.1159 C   0  0  0  0  0  0  0  0  0  0  0  0
   51.4790    5.5156   18.1447 N   0  0  0  0  0  0  0  0  0  0  0  0
   52.3102    4.5829   18.9162 C   0  0  0  0  0  0  0  0  0  0  0  0
   52.0559    6.0631   16.9152 C   0  0  0  0  0  0  0  0  0  0  0  0
   52.5256    7.5208   17.1295 C   0  0  0  0  0  0  0  0  0  0  0  0
   52.9367    8.2122   15.8886 N   0  0  0  0  0  0  0  0  0  0  0  0
   54.1450    7.6171   15.3132 C   0  0  0  0  0  0  0  0  0  0  0  0
   53.1669    9.6342   16.1645 C   0  0  0  0  0  0  0  0  0  0  0  0
   52.4215    3.1927   18.3360 C   0  0  0  0  0  0  0  0  0  0  0  0
   51.4048    2.3343   17.9638 C   0  0  0  0  0  0  0  0  0  0  0  0
   51.8938    1.1013   17.4436 C   0  0  0  0  0  0  0  0  0  0  0  0
   53.2691    1.0530   17.4487 C   0  0  0  0  0  0  0  0  0  0  0  0
   53.9622    2.4877   18.0695 S   0  0  0  0  0  0  0  0  0  0  0  0
   51.7199    6.4499   17.6765 N   0  0  0  0  0  0  0  0  0  0  0  0
   50.5974    7.2334   18.0422 C   0  0  0  0  0  0  0  0  0  0  0  0
   53.9260    6.7171   16.5056 C   0  0  0  0  0  0  0  0  0  0  0  0
   54.5925    6.5390   14.9356 S   0  0  0  0  0  0  0  0  0  0  0  0
   52.5093    7.2097   16.6820 C   0  0  0  0  0  0  0  0  0  0  0  0
   49.3987    7.0346   17.4524 N   0  0  0  0  0  0  0  0  0  0  0  0
   56.0887    6.0028   15.5625 C   0  0  0  0  0  0  0  0  0  0  0  0
   54.8400    6.3746   17.4832 C   0  0  0  0  0  0  0  0  0  0  0  0
   51.3304    5.1001   17.1998 C   0  0  0  0  0  0  0  0  0  0  0  0
   56.0882    5.9588   16.9387 C   0  0  0  0  0  0  0  0  0  0  0  0
   50.5205    2.7935   18.0632 N   0  0  0  0  0  0  0  0  0  0  0  0
   50.7619    4.2242   18.3465 C   0  0  0  0  0  0  0  0  0  0  0  0
   50.7715    8.2095   19.0247 C   0  0  0  0  0  0  0  0  0  0  0  0
   48.3649    7.8124   17.8439 C   0  0  0  0  0  0  0  0  0  0  0  0
   49.5767    2.5985   16.9645 C   0  0  0  0  0  0  0  0  0  0  0  0
   51.7595    2.0547   17.8265 C   0  0  0  0  0  0  0  0  0  0  0  0
   49.6932    9.0023   19.4085 C   0  0  0  0  0  0  0  0  0  0  0  0
   48.4614    8.8030   18.8054 C   0  0  0  0  0  0  0  0  0  0  0  0
   50.7261    4.1024   18.1807 C   0  0  0  0  0  0  0  0  0  0  0  0
   52.4575    7.2679   16.8978 C   0  0  0  0  0  0  0  0  0  0  0  0
   51.3941    5.0836   17.3229 C   0  0  0  0  0  0  0  0  0  0  0  0
   51.7882    6.2884   17.7574 C   0  0  0  0  0  0  0  0  0  0  0  0
   50.3611    3.0018   17.8110 O   0  0  0  0  0  0  0  0  0  0  0  0
   52.8267    8.3684   17.2650 O   0  0  0  0  0  0  0  0  0  0  0  0
   52.6378    6.8496   15.6363 O   0  0  0  0  0  0  0  0  0  0  0  0
   50.5466    4.5176   19.4427 O   0  0  0  0  0  0  0  0  0  0  0  0
   52.0917    7.1809   16.4937 C   0  0  0  0  0  0  0  0  0  0  0  0
   51.0137    4.1604   18.4618 C   0  0  0  0  0  0  0  0  0  0  0  0
   51.9305    6.2124   17.5786 C   0  0  0  0  0  0  0  0  0  0  0  0
   51.1745    5.1264   17.3755 C   0  0  0  0  0  0  0  0  0  0  0  0
   51.6053    7.1294   15.3817 O   0  0  0  0  0  0  0  0  0  0  0  0
   51.4928    4.2186   19.5773 O   0  0  0  0  0  0  0  0  0  0  0  0
   50.2346    3.1448   18.0641 O   0  0  0  0  0  0  0  0  0  0  0  0
   52.8802    8.1915   16.8857 O   0  0  0  0  0  0  0  0  0  0  0  0
   51.8218    5.2699   16.0594 H   0  0  0  0  0  0  0  0  0  0  0  0
   51.3698    6.0967   19.0202 H   0  0  0  0  0  0  0  0  0  0  0  0
   50.0277    2.9876   19.4691 H   0  0  0  0  0  0  0  0  0  0  0  0
   53.1586    8.3820   15.6107 H   0  0  0  0  0  0  0  0  0  0  0  0
   46.4257    5.8572   19.5379 H   0  0  0  0  0  0  0  0  0  0  0  0
   48.1031    4.4813   20.7805 H   0  0  0  0  0  0  0  0  0  0  0  0
   49.5777    6.9924   16.8783 H   0  0  0  0  0  0  0  0  0  0  0  0
   47.2265    7.1377   17.5424 H   0  0  0  0  0  0  0  0  0  0  0  0
   51.9847    4.5000   19.9614 H   0  0  0  0  0  0  0  0  0  0  0  0
   53.3131    5.0263   18.9890 H   0  0  0  0  0  0  0  0  0  0  0  0
   52.9145    5.4519   16.6146 H   0  0  0  0  0  0  0  0  0  0  0  0
   51.3499    5.9941   16.0808 H   0  0  0  0  0  0  0  0  0  0  0  0
   51.6959    8.0823   17.5756 H   0  0  0  0  0  0  0  0  0  0  0  0
   53.3376    7.5350   17.8690 H   0  0  0  0  0  0  0  0  0  0  0  0
   54.4566    8.1667   14.4175 H   0  0  0  0  0  0  0  0  0  0  0  0
   53.9607    6.5884   14.9913 H   0  0  0  0  0  0  0  0  0  0  0  0
   54.9802    7.6144   16.0221 H   0  0  0  0  0  0  0  0  0  0  0  0
   53.9666    9.7918   16.8981 H   0  0  0  0  0  0  0  0  0  0  0  0
   52.2541   10.1076   16.5434 H   0  0  0  0  0  0  0  0  0  0  0  0
   53.4308   10.1671   15.2441 H   0  0  0  0  0  0  0  0  0  0  0  0
   50.3556    2.5926   18.0576 H   0  0  0  0  0  0  0  0  0  0  0  0
   51.2685    0.2917   17.0895 H   0  0  0  0  0  0  0  0  0  0  0  0
   53.9039    0.2422   17.1188 H   0  0  0  0  0  0  0  0  0  0  0  0
   52.5974    8.2647   16.9791 H   0  0  0  0  0  0  0  0  0  0  0  0
   51.9815    7.2065   15.7181 H   0  0  0  0  0  0  0  0  0  0  0  0
   56.8960    5.7437   14.8935 H   0  0  0  0  0  0  0  0  0  0  0  0
   54.6113    6.4136   18.5435 H   0  0  0  0  0  0  0  0  0  0  0  0
   52.2275    4.6074   16.8094 H   0  0  0  0  0  0  0  0  0  0  0  0
   50.6252    5.1579   16.3600 H   0  0  0  0  0  0  0  0  0  0  0  0
   56.9403    5.6412   17.5266 H   0  0  0  0  0  0  0  0  0  0  0  0
   51.4306    4.2961   19.2159 H   0  0  0  0  0  0  0  0  0  0  0  0
   49.8115    4.6483   18.6959 H   0  0  0  0  0  0  0  0  0  0  0  0
   51.7400    8.3388   19.4949 H   0  0  0  0  0  0  0  0  0  0  0  0
   47.4214    7.6097   17.3439 H   0  0  0  0  0  0  0  0  0  0  0  0
   49.9866    2.9143   15.9970 H   0  0  0  0  0  0  0  0  0  0  0  0
   49.3025    1.5416   16.8825 H   0  0  0  0  0  0  0  0  0  0  0  0
   48.6459    3.1500   17.1456 H   0  0  0  0  0  0  0  0  0  0  0  0
   52.2689    2.3618   16.9064 H   0  0  0  0  0  0  0  0  0  0  0  0
   52.4524    2.1838   18.6659 H   0  0  0  0  0  0  0  0  0  0  0  0
   51.5540    0.9808   17.7568 H   0  0  0  0  0  0  0  0  0  0  0  0
   49.8200    9.7629   20.1757 H   0  0  0  0  0  0  0  0  0  0  0  0
   47.5971    9.3990   19.0785 H   0  0  0  0  0  0  0  0  0  0  0  0
   51.5467    4.7582   16.3000 H   0  0  0  0  0  0  0  0  0  0  0  0
   51.6344    6.6160   18.7797 H   0  0  0  0  0  0  0  0  0  0  0  0
   53.0886    7.6027   15.1998 H   0  0  0  0  0  0  0  0  0  0  0  0
   50.0984    3.7618   19.8770 H   0  0  0  0  0  0  0  0  0  0  0  0
   52.4346    6.4158   18.5162 H   0  0  0  0  0  0  0  0  0  0  0  0
   50.6726    4.9263   16.4361 H   0  0  0  0  0  0  0  0  0  0  0  0
   50.1840    2.5591   18.8485 H   0  0  0  0  0  0  0  0  0  0  0  0
   52.9239    8.7835   16.1052 H   0  0  0  0  0  0  0  0  0  0  0  0
  2  4  1  0
  3  1  1  0
  4  3  2  0
  5  1  2  0
  6  2  2  0
  7  2  1  0
  8  1  1  0
 15 17  1  0
 12 15  1  0
 17 18  1  0
 11 12  1  0
 18 19  1  0
 15 16  1  0
 19 20  1  0
 19 21  1  0
 16 22  1  0
 23 24  1  0
 12 13  2  0
 10 11  2  0
 13 14  1  0
 22 23  2  0
 24 25  2  0
 25 26  1  0
 26 22  1  0
 14  9  2  0
  9 10  1  0
 28 27  1  0
 29 31  1  0
 30 29  1  0
 31 27  1  0
 32 28  2  0
 33 30  1  0
 34 29  2  0
 35 27  1  0
 36 34  1  0
 37 38  1  0
 38 35  1  0
 39 28  1  0
 40 32  1  0
 41 37  1  0
 42 37  1  0
 43 39  2  0
 44 40  2  0
 36 33  2  0
 43 44  1  0
 46 48  1  0
 47 45  1  0
 48 47  2  0
 49 45  2  0
 50 46  2  0
 51 46  1  0
 52 45  1  0
 54 56  1  0
 55 53  1  0
 56 55  2  0
 57 53  2  0
 58 54  2  0
 59 54  1  0
 60 53  1  0
  3 61  1  0
  4 62  1  0
  7 63  1  0
  8 64  1  0
  9 65  1  0
 10 66  1  0
 13 67  1  0
 14 68  1  0
 16 69  1  0
 16 70  1  0
 17 71  1  0
 17 72  1  0
 18 73  1  0
 18 74  1  0
 20 75  1  0
 20 76  1  0
 20 77  1  0
 21 78  1  0
 21 79  1  0
 21 80  1  0
 23 81  1  0
 24 82  1  0
 25 83  1  0
 31 84  1  0
 31 85  1  0
 33 86  1  0
 34 87  1  0
 35 88  1  0
 35 89  1  0
 36 90  1  0
 38 91  1  0
 38 92  1  0
 39 93  1  0
 40 94  1  0
 41 95  1  0
 41 96  1  0
 41 97  1  0
 42 98  1  0
 42 99  1  0
 42100  1  0
 43101  1  0
 44102  1  0
 47103  1  0
 48104  1  0
 51105  1  0
 52106  1  0
 55107  1  0
 56108  1  0
 59109  1  0
 60110  1  0
M  END
> <Uni-Dock RESULT> 
ENERGY=   -6.679  LOWER_BOUND=    0.000  UPPER_BOUND=    0.000
INTER + INTRA:          -6.679
INTER:                  -6.679
INTRA:                   0.000
UNBOUND:                 0.000

$$$$

     RDKit          3D

110109  0  0  0  0  0  0  0  0999 V2000
   51.3539    5.8325   21.6100 C   0  0  0  0  0  0  0  0  0  0  0  0
   51.3110    4.3955   18.1296 C   0  0  0  0  0  0  0  0  0  0  0  0
   51.1432    4.9221   20.4833 C   0  0  0  0  0  0  0  0  0  0  0  0
   51.5131    5.3089   19.2557 C   0  0  0  0  0  0  0  0  0  0  0  0
   51.8435    6.9446   21.5766 O   0  0  0  0  0  0  0  0  0  0  0  0
   50.8300    3.2799   18.1635 O   0  0  0  0  0  0  0  0  0  0  0  0
   51.7415    4.9583   16.9912 O   0  0  0  0  0  0  0  0  0  0  0  0
   50.9187    5.2719   22.7478 O   0  0  0  0  0  0  0  0  0  0  0  0
   55.1424    4.4569   17.6448 C   0  0  0  0  0  0  0  0  0  0  0  0
   54.0783    4.9514   16.9219 C   0  0  0  0  0  0  0  0  0  0  0  0
   52.8761    5.2552   17.4612 N   0  0  0  0  0  0  0  0  0  0  0  0
   52.6733    5.0706   18.7863 C   0  0  0  0  0  0  0  0  0  0  0  0
   53.7174    4.5804   19.5728 C   0  0  0  0  0  0  0  0  0  0  0  0
   54.9550    4.2714   19.0021 C   0  0  0  0  0  0  0  0  0  0  0  0
   51.4334    5.3952   19.3049 N   0  0  0  0  0  0  0  0  0  0  0  0
   50.3729    5.8129   18.3793 C   0  0  0  0  0  0  0  0  0  0  0  0
   51.0372    5.0965   20.6825 C   0  0  0  0  0  0  0  0  0  0  0  0
   51.4248    6.2556   21.6300 C   0  0  0  0  0  0  0  0  0  0  0  0
   51.2407    5.9507   23.0653 N   0  0  0  0  0  0  0  0  0  0  0  0
   49.8260    5.7811   23.4046 C   0  0  0  0  0  0  0  0  0  0  0  0
   51.8214    7.0231   23.8801 C   0  0  0  0  0  0  0  0  0  0  0  0
   49.4731    4.7021   17.8916 C   0  0  0  0  0  0  0  0  0  0  0  0
   49.8305    3.5055   17.3003 C   0  0  0  0  0  0  0  0  0  0  0  0
   48.7026    2.6963   16.9794 C   0  0  0  0  0  0  0  0  0  0  0  0
   47.5190    3.3081   17.3239 C   0  0  0  0  0  0  0  0  0  0  0  0
   47.7698    4.8429   18.0350 S   0  0  0  0  0  0  0  0  0  0  0  0
   51.6382    5.6857   20.3167 N   0  0  0  0  0  0  0  0  0  0  0  0
   53.0448    5.8500   20.2718 C   0  0  0  0  0  0  0  0  0  0  0  0
   49.7332    6.0274   21.9178 C   0  0  0  0  0  0  0  0  0  0  0  0
   48.8350    5.1370   23.0759 S   0  0  0  0  0  0  0  0  0  0  0  0
   51.2087    5.7652   21.7305 C   0  0  0  0  0  0  0  0  0  0  0  0
   53.8612    4.7753   20.2191 N   0  0  0  0  0  0  0  0  0  0  0  0
   47.3952    5.9756   22.6976 C   0  0  0  0  0  0  0  0  0  0  0  0
   48.9387    6.9486   21.2632 C   0  0  0  0  0  0  0  0  0  0  0  0
   51.1976    4.4382   19.6455 C   0  0  0  0  0  0  0  0  0  0  0  0
   47.5875    6.9166   21.7110 C   0  0  0  0  0  0  0  0  0  0  0  0
   50.8279    3.4167   17.2913 N   0  0  0  0  0  0  0  0  0  0  0  0
   51.4048    4.5043   18.1098 C   0  0  0  0  0  0  0  0  0  0  0  0
   53.5535    7.1498   20.2840 C   0  0  0  0  0  0  0  0  0  0  0  0
   55.1942    4.9956   20.1769 C   0  0  0  0  0  0  0  0  0  0  0  0
   51.3520    2.1048   17.6655 C   0  0  0  0  0  0  0  0  0  0  0  0
   49.3661    3.4209   17.3083 C   0  0  0  0  0  0  0  0  0  0  0  0
   54.9305    7.3523   20.2449 C   0  0  0  0  0  0  0  0  0  0  0  0
   55.7725    6.2528   20.1918 C   0  0  0  0  0  0  0  0  0  0  0  0
   51.3465    4.3052   18.1345 C   0  0  0  0  0  0  0  0  0  0  0  0
   51.3159    5.9243   21.6046 C   0  0  0  0  0  0  0  0  0  0  0  0
   51.1546    4.5450   19.5665 C   0  0  0  0  0  0  0  0  0  0  0  0
   51.5101    5.6861   20.1722 C   0  0  0  0  0  0  0  0  0  0  0  0
   51.0302    3.2796   17.5609 O   0  0  0  0  0  0  0  0  0  0  0  0
   51.6283    6.9501   22.1811 O   0  0  0  0  0  0  0  0  0  0  0  0
   50.7521    4.8955   22.2545 O   0  0  0  0  0  0  0  0  0  0  0  0
   51.9082    5.3331   17.4825 O   0  0  0  0  0  0  0  0  0  0  0  0
   51.5166    5.4249   21.7270 C   0  0  0  0  0  0  0  0  0  0  0  0
   51.1776    4.6666   18.0569 C   0  0  0  0  0  0  0  0  0  0  0  0
   51.3231    5.5850   20.2855 C   0  0  0  0  0  0  0  0  0  0  0  0
   51.3700    4.5038   19.4976 C   0  0  0  0  0  0  0  0  0  0  0  0
   51.7269    4.3925   22.3319 O   0  0  0  0  0  0  0  0  0  0  0  0
   50.9776    5.7016   17.4520 O   0  0  0  0  0  0  0  0  0  0  0  0
   51.2499    3.4764   17.4447 O   0  0  0  0  0  0  0  0  0  0  0  0
   51.4330    6.6127   22.3424 O   0  0  0  0  0  0  0  0  0  0  0  0
   50.6929    3.9574   20.6870 H   0  0  0  0  0  0  0  0  0  0  0  0
   51.9610    6.2746   19.0511 H   0  0  0  0  0  0  0  0  0  0  0  0
   51.5623    4.2809   16.3060 H   0  0  0  0  0  0  0  0  0  0  0  0
   51.0976    5.9504   23.4324 H   0  0  0  0  0  0  0  0  0  0  0  0
   56.0869    4.2267   17.1662 H   0  0  0  0  0  0  0  0  0  0  0  0
   54.1581    5.1244   15.8528 H   0  0  0  0  0  0  0  0  0  0  0  0
   53.5991    4.4323   20.6398 H   0  0  0  0  0  0  0  0  0  0  0  0
   55.7597    3.8923   19.6247 H   0  0  0  0  0  0  0  0  0  0  0  0
   50.7675    6.3508   17.5074 H   0  0  0  0  0  0  0  0  0  0  0  0
   49.7669    6.5677   18.8998 H   0  0  0  0  0  0  0  0  0  0  0  0
   49.9519    4.9498   20.7235 H   0  0  0  0  0  0  0  0  0  0  0  0
   51.4668    4.1482   21.0221 H   0  0  0  0  0  0  0  0  0  0  0  0
   52.4829    6.4908   21.4629 H   0  0  0  0  0  0  0  0  0  0  0  0
   50.8628    7.1566   21.3494 H   0  0  0  0  0  0  0  0  0  0  0  0
   49.7065    5.5954   24.4783 H   0  0  0  0  0  0  0  0  0  0  0  0
   49.4017    4.9114   22.8954 H   0  0  0  0  0  0  0  0  0  0  0  0
   49.2309    6.6622   23.1405 H   0  0  0  0  0  0  0  0  0  0  0  0
   51.3427    7.9921   23.6952 H   0  0  0  0  0  0  0  0  0  0  0  0
   52.8937    7.1249   23.6783 H   0  0  0  0  0  0  0  0  0  0  0  0
   51.7298    6.7888   24.9466 H   0  0  0  0  0  0  0  0  0  0  0  0
   50.8626    3.2276   17.1165 H   0  0  0  0  0  0  0  0  0  0  0  0
   48.7579    1.7195   16.5160 H   0  0  0  0  0  0  0  0  0  0  0  0
   46.5151    2.9290   17.1909 H   0  0  0  0  0  0  0  0  0  0  0  0
   51.7237    6.5874   22.2478 H   0  0  0  0  0  0  0  0  0  0  0  0
   51.5018    4.8440   22.2530 H   0  0  0  0  0  0  0  0  0  0  0  0
   46.4770    5.7381   23.2141 H   0  0  0  0  0  0  0  0  0  0  0  0
   49.3169    7.6080   20.4884 H   0  0  0  0  0  0  0  0  0  0  0  0
   50.1268    4.3105   19.8381 H   0  0  0  0  0  0  0  0  0  0  0  0
   51.6910    3.5553   20.0731 H   0  0  0  0  0  0  0  0  0  0  0  0
   46.7973    7.5495   21.3269 H   0  0  0  0  0  0  0  0  0  0  0  0
   51.0135    5.4615   17.7375 H   0  0  0  0  0  0  0  0  0  0  0  0
   52.4789    4.5413   17.8856 H   0  0  0  0  0  0  0  0  0  0  0  0
   52.8768    7.9967   20.3102 H   0  0  0  0  0  0  0  0  0  0  0  0
   55.8073    4.0995   20.1296 H   0  0  0  0  0  0  0  0  0  0  0  0
   51.0182    1.7869   18.6612 H   0  0  0  0  0  0  0  0  0  0  0  0
   51.0264    1.3464   16.9458 H   0  0  0  0  0  0  0  0  0  0  0  0
   52.4488    2.1021   17.6482 H   0  0  0  0  0  0  0  0  0  0  0  0
   48.9512    3.1774   18.2927 H   0  0  0  0  0  0  0  0  0  0  0  0
   48.9792    4.3994   17.0015 H   0  0  0  0  0  0  0  0  0  0  0  0
   48.9758    2.6937   16.5878 H   0  0  0  0  0  0  0  0  0  0  0  0
   55.3346    8.3622   20.2507 H   0  0  0  0  0  0  0  0  0  0  0  0
   56.8505    6.3694   20.1584 H   0  0  0  0  0  0  0  0  0  0  0  0
   50.6990    3.7211   20.1043 H   0  0  0  0  0  0  0  0  0  0  0  0
   51.9677    6.5102   19.6359 H   0  0  0  0  0  0  0  0  0  0  0  0
   50.6915    5.2065   23.1821 H   0  0  0  0  0  0  0  0  0  0  0  0
   51.9648    5.0203   16.5553 H   0  0  0  0  0  0  0  0  0  0  0  0
   51.1490    6.5858   19.9075 H   0  0  0  0  0  0  0  0  0  0  0  0
   51.5437    3.5047   19.8797 H   0  0  0  0  0  0  0  0  0  0  0  0
   51.1133    3.6849   16.4967 H   0  0  0  0  0  0  0  0  0  0  0  0
   51.5793    6.4071   23.2900 H   0  0  0  0  0  0  0  0  0  0  0  0
  2  4  1  0
  3  1  1  0
  4  3  2  0
  5  1  2  0
  6  2  2  0
  7  2  1  0
  8  1  1  0
 15 17  1  0
 12 15  1  0
 17 18  1  0
 11 12  1  0
 18 19  1  0
 15 16  1  0
 19 20  1  0
 19 21  1  0
 16 22  1  0
 23 24  1  0
 12 13  2  0
 10 11  2  0
 13 14  1  0
 22 23  2  0
 24 25  2  0
 25 26  1  0
 26 22  1  0
 14  9  2  0
  9 10  1  0
 28 27  1  0
 29 31  1  0
 30 29  1  0
 31 27  1  0
 32 28  2  0
 33 30  1  0
 34 29  2  0
 35 27  1  0
 36 34  1  0
 37 38  1  0
 38 35  1  0
 39 28  1  0
 40 32  1  0
 41 37  1  0
 42 37  1  0
 43 39  2  0
 44 40  2  0
 36 33  2  0
 43 44  1  0
 46 48  1  0
 47 45  1  0
 48 47  2  0
 49 45  2  0
 50 46  2  0
 51 46  1  0
 52 45  1  0
 54 56  1  0
 55 53  1  0
 56 55  2  0
 57 53  2  0
 58 54  2  0
 59 54  1  0
 60 53  1  0
  3 61  1  0
  4 62  1  0
  7 63  1  0
  8 64  1  0
  9 65  1  0
 10 66  1  0
 13 67  1  0
 14 68  1  0
 16 69  1  0
 16 70  1  0
 17 71  1  0
 17 72  1  0
 18 73  1  0
 18 74  1  0
 20 75  1  0
 20 76  1  0
 20 77  1  0
 21 78  1  0
 21 79  1  0
 21 80  1  0
 23 81  1  0
 24 82  1  0
 25 83  1  0
 31 84  1  0
 31 85  1  0
 33 86  1  0
 34 87  1  0
 35 88  1  0
 35 89  1  0
 36 90  1  0
 38 91  1  0
 38 92  1  0
 39 93  1  0
 40 94  1  0
 41 95  1  0
 41 96  1  0
 41 97  1  0
 42 98  1  0
 42 99  1  0
 42100  1  0
 43101  1  0
 44102  1  0
 47103  1  0
 48104  1  0
 51105  1  0
 52106  1  0
 55107  1  0
 56108  1  0
 59109  1  0
 60110  1  0
M  END
> <Uni-Dock RESULT> 
ENERGY=   -6.333  LOWER_BOUND=    2.678  UPPER_BOUND=    5.259
INTER + INTRA:          -6.333
INTER:                  -6.333
INTRA:                   0.000
UNBOUND:                 0.000

$$$$

     RDKit          3D

110109  0  0  0  0  0  0  0  0999 V2000
   43.5217   12.2034    7.4606 C   0  0  0  0  0  0  0  0  0  0  0  0
   44.2821   11.5191   11.0847 C   0  0  0  0  0  0  0  0  0  0  0  0
   44.0221   11.5696    8.6814 C   0  0  0  0  0  0  0  0  0  0  0  0
   43.7897   12.1569    9.8623 C   0  0  0  0  0  0  0  0  0  0  0  0
   42.8933   13.2403    7.3736 O   0  0  0  0  0  0  0  0  0  0  0  0
   44.9025   10.4778   11.1733 O   0  0  0  0  0  0  0  0  0  0  0  0
   43.9525   12.2530   12.1574 O   0  0  0  0  0  0  0  0  0  0  0  0
   43.8556   11.4723    6.3872 O   0  0  0  0  0  0  0  0  0  0  0  0
   40.5948   11.2693   12.2070 C   0  0  0  0  0  0  0  0  0  0  0  0
   41.6760   12.0113   12.6311 C   0  0  0  0  0  0  0  0  0  0  0  0
   42.7304   12.3252   11.8449 N   0  0  0  0  0  0  0  0  0  0  0  0
   42.7568   11.8970   10.5615 C   0  0  0  0  0  0  0  0  0  0  0  0
   41.6851   11.1483   10.0717 C   0  0  0  0  0  0  0  0  0  0  0  0
   40.6014   10.8320   10.8953 C   0  0  0  0  0  0  0  0  0  0  0  0
   43.8484   12.2393    9.7851 N   0  0  0  0  0  0  0  0  0  0  0  0
   44.9670   12.9476   10.4199 C   0  0  0  0  0  0  0  0  0  0  0  0
   44.0721   11.7100    8.4382 C   0  0  0  0  0  0  0  0  0  0  0  0
   43.3907   12.6035    7.3758 C   0  0  0  0  0  0  0  0  0  0  0  0
   43.3990   12.0338    6.0112 N   0  0  0  0  0  0  0  0  0  0  0  0
   44.7569   11.9504    5.4686 C   0  0  0  0  0  0  0  0  0  0  0  0
   42.5603   12.8493    5.1265 C   0  0  0  0  0  0  0  0  0  0  0  0
   46.0745   12.0619   10.9398 C   0  0  0  0  0  0  0  0  0  0  0  0
   45.9786   10.9799   11.7937 C   0  0  0  0  0  0  0  0  0  0  0  0
   47.2428   10.3780   12.0571 C   0  0  0  0  0  0  0  0  0  0  0  0
   48.2655   11.0293   11.4062 C   0  0  0  0  0  0  0  0  0  0  0  0
   47.7013   12.3512   10.4797 S   0  0  0  0  0  0  0  0  0  0  0  0
   43.4566   12.2939    8.7883 N   0  0  0  0  0  0  0  0  0  0  0  0
   42.0634   12.3130    9.0454 C   0  0  0  0  0  0  0  0  0  0  0  0
   45.0355   12.5031    6.8458 C   0  0  0  0  0  0  0  0  0  0  0  0
   45.8654   11.4962    5.7330 S   0  0  0  0  0  0  0  0  0  0  0  0
   43.6552   12.1288    7.3312 C   0  0  0  0  0  0  0  0  0  0  0  0
   41.4209   11.1909    9.4355 N   0  0  0  0  0  0  0  0  0  0  0  0
   47.2153   12.5429    5.6953 C   0  0  0  0  0  0  0  0  0  0  0  0
   45.7835   13.6177    7.1721 C   0  0  0  0  0  0  0  0  0  0  0  0
   44.1610   11.2637    9.5904 C   0  0  0  0  0  0  0  0  0  0  0  0
   47.0439   13.6393    6.5103 C   0  0  0  0  0  0  0  0  0  0  0  0
   45.0157   10.7890   11.9917 N   0  0  0  0  0  0  0  0  0  0  0  0
   44.1781   11.6190   11.1000 C   0  0  0  0  0  0  0  0  0  0  0  0
   41.3836   13.5212    8.8832 C   0  0  0  0  0  0  0  0  0  0  0  0
   40.0916   11.2718    9.6671 C   0  0  0  0  0  0  0  0  0  0  0  0
   44.6285    9.3801   11.9616 C   0  0  0  0  0  0  0  0  0  0  0  0
   46.4438   10.9455   11.7209 C   0  0  0  0  0  0  0  0  0  0  0  0
   40.0132   13.5795    9.1227 C   0  0  0  0  0  0  0  0  0  0  0  0
   39.3491   12.4305    9.5220 C   0  0  0  0  0  0  0  0  0  0  0  0
   44.2591   11.4265   11.1026 C   0  0  0  0  0  0  0  0  0  0  0  0
   43.5470   12.2979    7.4424 C   0  0  0  0  0  0  0  0  0  0  0  0
   44.2001   11.3883    9.6398 C   0  0  0  0  0  0  0  0  0  0  0  0
   43.6035   12.3374    8.9057 C   0  0  0  0  0  0  0  0  0  0  0  0
   44.7965   10.5790   11.7912 O   0  0  0  0  0  0  0  0  0  0  0  0
   43.0130   13.1454    6.7503 O   0  0  0  0  0  0  0  0  0  0  0  0
   44.1445   11.2242    6.9048 O   0  0  0  0  0  0  0  0  0  0  0  0
   43.6641   12.4998   11.6421 O   0  0  0  0  0  0  0  0  0  0  0  0
   43.4014   11.7655    7.4505 C   0  0  0  0  0  0  0  0  0  0  0  0
   44.3860   11.8120   11.0820 C   0  0  0  0  0  0  0  0  0  0  0  0
   43.7837   12.2359    8.7823 C   0  0  0  0  0  0  0  0  0  0  0  0
   44.0052   11.3393    9.7513 C   0  0  0  0  0  0  0  0  0  0  0  0
   43.2482   10.6151    7.0914 O   0  0  0  0  0  0  0  0  0  0  0  0
   44.5287   12.9639   11.4424 O   0  0  0  0  0  0  0  0  0  0  0  0
   44.5714   10.7708   11.9055 O   0  0  0  0  0  0  0  0  0  0  0  0
   43.2268   12.8049    6.6224 O   0  0  0  0  0  0  0  0  0  0  0  0
   44.5662   10.6372    8.5834 H   0  0  0  0  0  0  0  0  0  0  0  0
   43.2479   13.0907    9.9606 H   0  0  0  0  0  0  0  0  0  0  0  0
   44.3240   11.7526   12.9137 H   0  0  0  0  0  0  0  0  0  0  0  0
   43.4843   11.9739    5.6312 H   0  0  0  0  0  0  0  0  0  0  0  0
   39.7734   11.0422   12.8762 H   0  0  0  0  0  0  0  0  0  0  0  0
   41.7334   12.3891   13.6475 H   0  0  0  0  0  0  0  0  0  0  0  0
   41.6622   10.7992    9.0459 H   0  0  0  0  0  0  0  0  0  0  0  0
   39.7731   10.2504   10.5021 H   0  0  0  0  0  0  0  0  0  0  0  0
   44.6362   13.6068   11.2332 H   0  0  0  0  0  0  0  0  0  0  0  0
   45.3781   13.6406    9.6725 H   0  0  0  0  0  0  0  0  0  0  0  0
   45.1488   11.6745    8.2373 H   0  0  0  0  0  0  0  0  0  0  0  0
   43.7321   10.6721    8.3584 H   0  0  0  0  0  0  0  0  0  0  0  0
   42.3471   12.7537    7.6778 H   0  0  0  0  0  0  0  0  0  0  0  0
   43.8580   13.5974    7.3843 H   0  0  0  0  0  0  0  0  0  0  0  0
   44.7394   11.5634    4.4432 H   0  0  0  0  0  0  0  0  0  0  0  0
   45.3687   11.2530    6.0475 H   0  0  0  0  0  0  0  0  0  0  0  0
   45.2569   12.9251    5.4590 H   0  0  0  0  0  0  0  0  0  0  0  0
   42.9224   13.8811    5.0443 H   0  0  0  0  0  0  0  0  0  0  0  0
   41.5265   12.8753    5.4891 H   0  0  0  0  0  0  0  0  0  0  0  0
   42.5233   12.4137    4.1217 H   0  0  0  0  0  0  0  0  0  0  0  0
   45.0340   10.6369   12.2016 H   0  0  0  0  0  0  0  0  0  0  0  0
   47.3931    9.5160   12.6945 H   0  0  0  0  0  0  0  0  0  0  0  0
   49.3207   10.7946   11.4303 H   0  0  0  0  0  0  0  0  0  0  0  0
   42.9599   12.7686    6.7689 H   0  0  0  0  0  0  0  0  0  0  0  0
   43.4178   11.0945    7.0457 H   0  0  0  0  0  0  0  0  0  0  0  0
   48.0701   12.3043    5.0799 H   0  0  0  0  0  0  0  0  0  0  0  0
   45.4375   14.3770    7.8662 H   0  0  0  0  0  0  0  0  0  0  0  0
   45.1982   11.2143    9.2417 H   0  0  0  0  0  0  0  0  0  0  0  0
   43.7364   10.2647    9.4244 H   0  0  0  0  0  0  0  0  0  0  0  0
   47.7873   14.4177    6.6287 H   0  0  0  0  0  0  0  0  0  0  0  0
   44.4842   12.6682   11.2165 H   0  0  0  0  0  0  0  0  0  0  0  0
   43.1549   11.5862   11.4965 H   0  0  0  0  0  0  0  0  0  0  0  0
   41.9249   14.4122    8.5848 H   0  0  0  0  0  0  0  0  0  0  0  0
   39.6225   10.3440    9.9838 H   0  0  0  0  0  0  0  0  0  0  0  0
   44.8507    8.9033   10.9987 H   0  0  0  0  0  0  0  0  0  0  0  0
   45.1596    8.8235   12.7408 H   0  0  0  0  0  0  0  0  0  0  0  0
   43.5576    9.2640   12.1691 H   0  0  0  0  0  0  0  0  0  0  0  0
   46.7368   10.5520   10.7412 H   0  0  0  0  0  0  0  0  0  0  0  0
   46.7328   12.0014   11.7709 H   0  0  0  0  0  0  0  0  0  0  0  0
   47.0341   10.4262   12.4839 H   0  0  0  0  0  0  0  0  0  0  0  0
   39.4769   14.5180    9.0016 H   0  0  0  0  0  0  0  0  0  0  0  0
   38.2825   12.4360    9.7199 H   0  0  0  0  0  0  0  0  0  0  0  0
   44.6800   10.5255    9.1917 H   0  0  0  0  0  0  0  0  0  0  0  0
   43.1214   13.2000    9.3526 H   0  0  0  0  0  0  0  0  0  0  0  0
   44.0223   11.3443    5.9396 H   0  0  0  0  0  0  0  0  0  0  0  0
   43.7904   12.3784   12.6065 H   0  0  0  0  0  0  0  0  0  0  0  0
   43.8720   13.3055    8.9339 H   0  0  0  0  0  0  0  0  0  0  0  0
   43.9164   10.2705    9.5953 H   0  0  0  0  0  0  0  0  0  0  0  0
   44.8177   11.1816   12.7608 H   0  0  0  0  0  0  0  0  0  0  0  0
   42.9708   12.3960    5.7687 H   0  0  0  0  0  0  0  0  0  0  0  0
  2  4  1  0
  3  1  1  0
  4  3  2  0
  5  1  2  0
  6  2  2  0
  7  2  1  0
  8  1  1  0
 15 17  1  0
 12 15  1  0
 17 18  1  0
 11 12  1  0
 18 19  1  0
 15 16  1  0
 19 20  1  0
 19 21  1  0
 16 22  1  0
 23 24  1  0
 12 13  2  0
 10 11  2  0
 13 14  1  0
 22 23  2  0
 24 25  2  0
 25 26  1  0
 26 22  1  0
 14  9  2  0
  9 10  1  0
 28 27  1  0
 29 31  1  0
 30 29  1  0
 31 27  1  0
 32 28  2  0
 33 30  1  0
 34 29  2  0
 35 27  1  0
 36 34  1  0
 37 38  1  0
 38 35  1  0
 39 28  1  0
 40 32  1  0
 41 37  1  0
 42 37  1  0
 43 39  2  0
 44 40  2  0
 36 33  2  0
 43 44  1  0
 46 48  1  0
 47 45  1  0
 48 47  2  0
 49 45  2  0
 50 46  2  0
 51 46  1  0
 52 45  1  0
 54 56  1  0
 55 53  1  0
 56 55  2  0
 57 53  2  0
 58 54  2  0
 59 54  1  0
 60 53  1  0
  3 61  1  0
  4 62  1  0
  7 63  1  0
  8 64  1  0
  9 65  1  0
 10 66  1  0
 13 67  1  0
 14 68  1  0
 16 69  1  0
 16 70  1  0
 17 71  1  0
 17 72  1  0
 18 73  1  0
 18 74  1  0
 20 75  1  0
 20 76  1  0
 20 77  1  0
 21 78  1  0
 21 79  1  0
 21 80  1  0
 23 81  1  0
 24 82  1  0
 25 83  1  0
 31 84  1  0
 31 85  1  0
 33 86  1  0
 34 87  1  0
 35 88  1  0
 35 89  1  0
 36 90  1  0
 38 91  1  0
 38 92  1  0
 39 93  1  0
 40 94  1  0
 41 95  1  0
 41 96  1  0
 41 97  1  0
 42 98  1  0
 42 99  1  0
 42100  1  0
 43101  1  0
 44102  1  0
 47103  1  0
 48104  1  0
 51105  1  0
 52106  1  0
 55107  1  0
 56108  1  0
 59109  1  0
 60110  1  0
M  END
> <Uni-Dock RESULT> 
ENERGY=   -6.302  LOWER_BOUND=   10.993  UPPER_BOUND=   13.149
INTER + INTRA:          -6.302
INTER:                  -6.302
INTRA:                   0.000
UNBOUND:                 0.000

$$$$

     RDKit          3D

110109  0  0  0  0  0  0  0  0999 V2000
   48.3819    9.6112   18.5699 C   0  0  0  0  0  0  0  0  0  0  0  0
   49.3485    7.0740   15.9607 C   0  0  0  0  0  0  0  0  0  0  0  0
   48.4412    8.8590   17.3157 C   0  0  0  0  0  0  0  0  0  0  0  0
   49.2949    7.8325   17.2117 C   0  0  0  0  0  0  0  0  0  0  0  0
   49.0353    9.4174   19.5764 O   0  0  0  0  0  0  0  0  0  0  0  0
   48.6891    7.2614   14.9572 O   0  0  0  0  0  0  0  0  0  0  0  0
   50.2575    6.0924   16.0505 O   0  0  0  0  0  0  0  0  0  0  0  0
   47.4765   10.5962   18.4786 O   0  0  0  0  0  0  0  0  0  0  0  0
   48.2699    3.9857   18.0142 C   0  0  0  0  0  0  0  0  0  0  0  0
   49.4370    4.3531   17.3798 C   0  0  0  0  0  0  0  0  0  0  0  0
   49.7890    5.6347   17.1310 N   0  0  0  0  0  0  0  0  0  0  0  0
   48.9660    6.6389   17.5122 C   0  0  0  0  0  0  0  0  0  0  0  0
   47.7728    6.3292   18.1675 C   0  0  0  0  0  0  0  0  0  0  0  0
   47.4220    5.0001   18.4188 C   0  0  0  0  0  0  0  0  0  0  0  0
   49.3589    7.9373   17.2453 N   0  0  0  0  0  0  0  0  0  0  0  0
   50.5851    8.1538   16.4672 C   0  0  0  0  0  0  0  0  0  0  0  0
   48.4929    9.0980   17.4626 C   0  0  0  0  0  0  0  0  0  0  0  0
   48.6539    9.6429   18.9008 C   0  0  0  0  0  0  0  0  0  0  0  0
   47.6726   10.6875   19.2649 N   0  0  0  0  0  0  0  0  0  0  0  0
   47.8712   11.9112   18.4848 C   0  0  0  0  0  0  0  0  0  0  0  0
   47.7757   10.9895   20.6965 C   0  0  0  0  0  0  0  0  0  0  0  0
   50.3824    8.2956   14.9771 C   0  0  0  0  0  0  0  0  0  0  0  0
   49.7165    7.4438   14.1169 C   0  0  0  0  0  0  0  0  0  0  0  0
   49.7220    7.9122   12.7713 C   0  0  0  0  0  0  0  0  0  0  0  0
   50.4046    9.1004   12.6456 C   0  0  0  0  0  0  0  0  0  0  0  0
   51.0264    9.6479   14.1416 S   0  0  0  0  0  0  0  0  0  0  0  0
   48.9143    8.5147   18.0321 N   0  0  0  0  0  0  0  0  0  0  0  0
   48.5455    7.4934   18.9423 C   0  0  0  0  0  0  0  0  0  0  0  0
   48.9406   11.0228   17.8957 C   0  0  0  0  0  0  0  0  0  0  0  0
   47.9518   12.3024   17.3248 S   0  0  0  0  0  0  0  0  0  0  0  0
   48.3164    9.7859   18.4971 C   0  0  0  0  0  0  0  0  0  0  0  0
   47.4909    6.6902   18.6838 N   0  0  0  0  0  0  0  0  0  0  0  0
   49.3099   13.2292   16.8602 C   0  0  0  0  0  0  0  0  0  0  0  0
   50.2818   11.3110   17.7335 C   0  0  0  0  0  0  0  0  0  0  0  0
   48.5492    8.1787   16.6340 C   0  0  0  0  0  0  0  0  0  0  0  0
   50.4953   12.5840   17.1323 C   0  0  0  0  0  0  0  0  0  0  0  0
   49.2917    6.7011   14.6371 N   0  0  0  0  0  0  0  0  0  0  0  0
   49.4051    7.0108   16.0782 C   0  0  0  0  0  0  0  0  0  0  0  0
   49.3031    7.3472   20.1055 C   0  0  0  0  0  0  0  0  0  0  0  0
   47.1884    5.7332   19.5893 C   0  0  0  0  0  0  0  0  0  0  0  0
   47.9248    6.3564   14.2511 C   0  0  0  0  0  0  0  0  0  0  0  0
   49.8200    7.7714   13.7931 C   0  0  0  0  0  0  0  0  0  0  0  0
   48.9697    6.3575   21.0263 C   0  0  0  0  0  0  0  0  0  0  0  0
   47.8877    5.5315   20.7663 C   0  0  0  0  0  0  0  0  0  0  0  0
   49.2667    7.0368   15.9240 C   0  0  0  0  0  0  0  0  0  0  0  0
   48.4660    9.6502   18.6060 C   0  0  0  0  0  0  0  0  0  0  0  0
   48.6886    8.1745   16.6424 C   0  0  0  0  0  0  0  0  0  0  0  0
   49.0447    8.5108   17.8897 C   0  0  0  0  0  0  0  0  0  0  0  0
   48.9622    6.7127   14.7912 O   0  0  0  0  0  0  0  0  0  0  0  0
   48.7704    9.9791   19.7380 O   0  0  0  0  0  0  0  0  0  0  0  0
   47.5459   10.3244   17.9005 O   0  0  0  0  0  0  0  0  0  0  0  0
   50.1880    6.3625   16.6266 O   0  0  0  0  0  0  0  0  0  0  0  0
   47.9568    9.5047   18.4503 C   0  0  0  0  0  0  0  0  0  0  0  0
   49.6375    7.1665   16.0279 C   0  0  0  0  0  0  0  0  0  0  0  0
   48.9740    8.7053   17.7666 C   0  0  0  0  0  0  0  0  0  0  0  0
   48.6192    7.9657   16.7089 C   0  0  0  0  0  0  0  0  0  0  0  0
   46.7767    9.5877   18.1741 O   0  0  0  0  0  0  0  0  0  0  0  0
   50.8158    7.0765   16.3119 O   0  0  0  0  0  0  0  0  0  0  0  0
   49.0925    6.5082   14.9954 O   0  0  0  0  0  0  0  0  0  0  0  0
   48.5023   10.1730   19.4762 O   0  0  0  0  0  0  0  0  0  0  0  0
   47.7831    9.1627   16.5096 H   0  0  0  0  0  0  0  0  0  0  0  0
   49.9551    7.5301   18.0166 H   0  0  0  0  0  0  0  0  0  0  0  0
   50.2218    5.6516   15.1760 H   0  0  0  0  0  0  0  0  0  0  0  0
   47.5135   11.0370   19.3534 H   0  0  0  0  0  0  0  0  0  0  0  0
   48.0311    2.9434   18.1895 H   0  0  0  0  0  0  0  0  0  0  0  0
   50.1493    3.6076   17.0393 H   0  0  0  0  0  0  0  0  0  0  0  0
   47.0939    7.1054   18.5011 H   0  0  0  0  0  0  0  0  0  0  0  0
   46.4920    4.7722   18.9308 H   0  0  0  0  0  0  0  0  0  0  0  0
   51.3357    7.3725   16.6447 H   0  0  0  0  0  0  0  0  0  0  0  0
   51.0596    9.0654   16.8565 H   0  0  0  0  0  0  0  0  0  0  0  0
   48.7593    9.8869   16.7500 H   0  0  0  0  0  0  0  0  0  0  0  0
   47.4466    8.8583   17.2456 H   0  0  0  0  0  0  0  0  0  0  0  0
   48.5348    8.8037   19.5967 H   0  0  0  0  0  0  0  0  0  0  0  0
   49.6801   10.0101   19.0366 H   0  0  0  0  0  0  0  0  0  0  0  0
   47.1613   12.6863   18.7959 H   0  0  0  0  0  0  0  0  0  0  0  0
   47.6832   11.7340   17.4222 H   0  0  0  0  0  0  0  0  0  0  0  0
   48.8854   12.3101   18.5958 H   0  0  0  0  0  0  0  0  0  0  0  0
   48.7661   11.3718   20.9710 H   0  0  0  0  0  0  0  0  0  0  0  0
   47.5738   10.0948   21.2962 H   0  0  0  0  0  0  0  0  0  0  0  0
   47.0244   11.7318   20.9885 H   0  0  0  0  0  0  0  0  0  0  0  0
   49.2411    6.5277   14.4503 H   0  0  0  0  0  0  0  0  0  0  0  0
   49.2538    7.4009   11.9399 H   0  0  0  0  0  0  0  0  0  0  0  0
   50.5713    9.6758   11.7454 H   0  0  0  0  0  0  0  0  0  0  0  0
   48.4318    9.8950   19.5851 H   0  0  0  0  0  0  0  0  0  0  0  0
   47.2347    9.7721   18.3041 H   0  0  0  0  0  0  0  0  0  0  0  0
   49.1751   14.2009   16.4086 H   0  0  0  0  0  0  0  0  0  0  0  0
   51.0714   10.6268   18.0272 H   0  0  0  0  0  0  0  0  0  0  0  0
   48.7370    9.0619   16.0138 H   0  0  0  0  0  0  0  0  0  0  0  0
   47.4768    7.9627   16.5390 H   0  0  0  0  0  0  0  0  0  0  0  0
   51.4685   13.0029   16.9087 H   0  0  0  0  0  0  0  0  0  0  0  0
   50.4628    7.2022   16.3081 H   0  0  0  0  0  0  0  0  0  0  0  0
   49.1681    6.0891   16.6255 H   0  0  0  0  0  0  0  0  0  0  0  0
   50.1552    7.9942   20.2824 H   0  0  0  0  0  0  0  0  0  0  0  0
   46.3357    5.1102   19.3327 H   0  0  0  0  0  0  0  0  0  0  0  0
   47.2417    7.2128   14.3129 H   0  0  0  0  0  0  0  0  0  0  0  0
   47.9033    5.9851   13.2212 H   0  0  0  0  0  0  0  0  0  0  0  0
   47.5314    5.5503   14.8826 H   0  0  0  0  0  0  0  0  0  0  0  0
   49.2275    8.6912   13.8514 H   0  0  0  0  0  0  0  0  0  0  0  0
   50.8539    8.0070   14.0703 H   0  0  0  0  0  0  0  0  0  0  0  0
   49.8454    7.4516   12.7456 H   0  0  0  0  0  0  0  0  0  0  0  0
   49.5572    6.2352   21.9336 H   0  0  0  0  0  0  0  0  0  0  0  0
   47.5977    4.7479   21.4581 H   0  0  0  0  0  0  0  0  0  0  0  0
   47.9432    8.7290   16.0834 H   0  0  0  0  0  0  0  0  0  0  0  0
   49.7885    7.9559   18.4509 H   0  0  0  0  0  0  0  0  0  0  0  0
   47.2620   11.0409   18.5062 H   0  0  0  0  0  0  0  0  0  0  0  0
   50.4719    5.6489   16.0175 H   0  0  0  0  0  0  0  0  0  0  0  0
   49.9873    8.7429   18.1496 H   0  0  0  0  0  0  0  0  0  0  0  0
   47.6049    7.9314   16.3287 H   0  0  0  0  0  0  0  0  0  0  0  0
   49.8405    6.0063   14.6086 H   0  0  0  0  0  0  0  0  0  0  0  0
   47.7532   10.6681   19.8704 H   0  0  0  0  0  0  0  0  0  0  0  0
  2  4  1  0
  3  1  1  0
  4  3  2  0
  5  1  2  0
  6  2  2  0
  7  2  1  0
  8  1  1  0
 15 17  1  0
 12 15  1  0
 17 18  1  0
 11 12  1  0
 18 19  1  0
 15 16  1  0
 19 20  1  0
 19 21  1  0
 16 22  1  0
 23 24  1  0
 12 13  2  0
 10 11  2  0
 13 14  1  0
 22 23  2  0
 24 25  2  0
 25 26  1  0
 26 22  1  0
 14  9  2  0
  9 10  1  0
 28 27  1  0
 29 31  1  0
 30 29  1  0
 31 27  1  0
 32 28  2  0
 33 30  1  0
 34 29  2  0
 35 27  1  0
 36 34  1  0
 37 38  1  0
 38 35  1  0
 39 28  1  0
 40 32  1  0
 41 37  1  0
 42 37  1  0
 43 39  2  0
 44 40  2  0
 36 33  2  0
 43 44  1  0
 46 48  1  0
 47 45  1  0
 48 47  2  0
 49 45  2  0
 50 46  2  0
 51 46  1  0
 52 45  1  0
 54 56  1  0
 55 53  1  0
 56 55  2  0
 57 53  2  0
 58 54  2  0
 59 54  1  0
 60 53  1  0
  3 61  1  0
  4 62  1  0
  7 63  1  0
  8 64  1  0
  9 65  1  0
 10 66  1  0
 13 67  1  0
 14 68  1  0
 16 69  1  0
 16 70  1  0
 17 71  1  0
 17 72  1  0
 18 73  1  0
 18 74  1  0
 20 75  1  0
 20 76  1  0
 20 77  1  0
 21 78  1  0
 21 79  1  0
 21 80  1  0
 23 81  1  0
 24 82  1  0
 25 83  1  0
 31 84  1  0
 31 85  1  0
 33 86  1  0
 34 87  1  0
 35 88  1  0
 35 89  1  0
 36 90  1  0
 38 91  1  0
 38 92  1  0
 39 93  1  0
 40 94  1  0
 41 95  1  0
 41 96  1  0
 41 97  1  0
 42 98  1  0
 42 99  1  0
 42100  1  0
 43101  1  0
 44102  1  0
 47103  1  0
 48104  1  0
 51105  1  0
 52106  1  0
 55107  1  0
 56108  1  0
 59109  1  0
 60110  1  0
M  END
> <Uni-Dock RESULT> 
ENERGY=   -6.275  LOWER_BOUND=    3.030  UPPER_BOUND=    5.335
INTER + INTRA:          -6.275
INTER:                  -6.275
INTRA:                   0.000
UNBOUND:                 0.000

$$$$

     RDKit          3D

110109  0  0  0  0  0  0  0  0999 V2000
   48.5232    9.1967   18.2455 C   0  0  0  0  0  0  0  0  0  0  0  0
   48.6210    8.7917   21.9880 C   0  0  0  0  0  0  0  0  0  0  0  0
   48.9555    9.2709   19.6419 C   0  0  0  0  0  0  0  0  0  0  0  0
   48.1851    8.7257   20.5920 C   0  0  0  0  0  0  0  0  0  0  0  0
   47.5103    8.6809   17.8146 O   0  0  0  0  0  0  0  0  0  0  0  0
   49.6379    9.2991   22.4186 O   0  0  0  0  0  0  0  0  0  0  0  0
   47.7226    8.1947   22.7845 O   0  0  0  0  0  0  0  0  0  0  0  0
   49.4190    9.7982   17.4492 O   0  0  0  0  0  0  0  0  0  0  0  0
   48.6673    4.9297   21.9523 C   0  0  0  0  0  0  0  0  0  0  0  0
   47.8727    5.8716   22.5696 C   0  0  0  0  0  0  0  0  0  0  0  0
   47.6949    7.1292   22.1059 N   0  0  0  0  0  0  0  0  0  0  0  0
   48.3236    7.5178   20.9724 C   0  0  0  0  0  0  0  0  0  0  0  0
   49.1354    6.6044   20.2972 C   0  0  0  0  0  0  0  0  0  0  0  0
   49.3095    5.3074   20.7875 C   0  0  0  0  0  0  0  0  0  0  0  0
   48.1164    8.8094   20.5249 N   0  0  0  0  0  0  0  0  0  0  0  0
   47.3215    9.7215   21.3569 C   0  0  0  0  0  0  0  0  0  0  0  0
   48.8563    9.3994   19.4074 C   0  0  0  0  0  0  0  0  0  0  0  0
   48.1412    9.1192   18.0652 C   0  0  0  0  0  0  0  0  0  0  0  0
   48.9227    9.5073   16.8712 N   0  0  0  0  0  0  0  0  0  0  0  0
   49.0995   10.9589   16.7894 C   0  0  0  0  0  0  0  0  0  0  0  0
   48.2551    9.0196   15.6597 C   0  0  0  0  0  0  0  0  0  0  0  0
   48.1183   10.5712   22.3184 C   0  0  0  0  0  0  0  0  0  0  0  0
   49.0487   10.1640   23.2552 C   0  0  0  0  0  0  0  0  0  0  0  0
   49.6074   11.2555   23.9807 C   0  0  0  0  0  0  0  0  0  0  0  0
   49.0746   12.4605   23.5834 C   0  0  0  0  0  0  0  0  0  0  0  0
   47.9155   12.2742   22.3400 S   0  0  0  0  0  0  0  0  0  0  0  0
   48.2205    8.7397   19.4598 N   0  0  0  0  0  0  0  0  0  0  0  0
   48.1526    7.3369   19.2723 C   0  0  0  0  0  0  0  0  0  0  0  0
   48.3344   10.8393   18.0856 C   0  0  0  0  0  0  0  0  0  0  0  0
   49.5114   11.9099   17.4459 S   0  0  0  0  0  0  0  0  0  0  0  0
   48.6184    9.3587   18.1760 C   0  0  0  0  0  0  0  0  0  0  0  0
   49.1941    6.5468   19.6119 N   0  0  0  0  0  0  0  0  0  0  0  0
   48.4917   13.2632   17.6653 C   0  0  0  0  0  0  0  0  0  0  0  0
   47.1859   11.5135   18.4527 C   0  0  0  0  0  0  0  0  0  0  0  0
   49.1124    9.1127   20.5851 C   0  0  0  0  0  0  0  0  0  0  0  0
   47.2778   12.9140   18.2132 C   0  0  0  0  0  0  0  0  0  0  0  0
   49.2000    9.1773   23.1755 N   0  0  0  0  0  0  0  0  0  0  0  0
   48.5194    8.6935   21.9556 C   0  0  0  0  0  0  0  0  0  0  0  0
   46.9824    6.8041   18.7290 C   0  0  0  0  0  0  0  0  0  0  0  0
   49.0698    5.2160   19.4105 C   0  0  0  0  0  0  0  0  0  0  0  0
   50.5934    8.7412   23.2417 C   0  0  0  0  0  0  0  0  0  0  0  0
   49.0969   10.6269   23.3344 C   0  0  0  0  0  0  0  0  0  0  0  0
   46.8790    5.4306   18.5259 C   0  0  0  0  0  0  0  0  0  0  0  0
   47.9453    4.6157   18.8717 C   0  0  0  0  0  0  0  0  0  0  0  0
   48.7094    8.7594   22.0119 C   0  0  0  0  0  0  0  0  0  0  0  0
   48.4330    9.2313   18.2218 C   0  0  0  0  0  0  0  0  0  0  0  0
   48.9816    9.1418   20.6246 C   0  0  0  0  0  0  0  0  0  0  0  0
   48.1594    8.8465   19.6086 C   0  0  0  0  0  0  0  0  0  0  0  0
   49.4383    9.0176   22.9516 O   0  0  0  0  0  0  0  0  0  0  0  0
   47.7047    8.9774   17.2798 O   0  0  0  0  0  0  0  0  0  0  0  0
   49.5823    9.9039   18.0617 O   0  0  0  0  0  0  0  0  0  0  0  0
   47.5602    8.0887   22.1746 O   0  0  0  0  0  0  0  0  0  0  0  0
   48.9564    9.0614   18.2654 C   0  0  0  0  0  0  0  0  0  0  0  0
   48.3329    8.9073   21.9731 C   0  0  0  0  0  0  0  0  0  0  0  0
   48.2804    9.0497   19.5631 C   0  0  0  0  0  0  0  0  0  0  0  0
   49.0110    8.9200   20.6772 C   0  0  0  0  0  0  0  0  0  0  0  0
   50.1487    8.9613   18.0548 O   0  0  0  0  0  0  0  0  0  0  0  0
   47.1389    8.9971   22.1814 O   0  0  0  0  0  0  0  0  0  0  0  0
   49.2294    8.7792   22.9613 O   0  0  0  0  0  0  0  0  0  0  0  0
   48.0625    9.2011   17.2764 O   0  0  0  0  0  0  0  0  0  0  0  0
   49.8945    9.7678   19.8573 H   0  0  0  0  0  0  0  0  0  0  0  0
   47.2447    8.2311   20.3774 H   0  0  0  0  0  0  0  0  0  0  0  0
   48.0972    8.2933   23.6847 H   0  0  0  0  0  0  0  0  0  0  0  0
   49.0432    9.6997   16.5492 H   0  0  0  0  0  0  0  0  0  0  0  0
   48.7795    3.9339   22.3642 H   0  0  0  0  0  0  0  0  0  0  0  0
   47.3369    5.6405   23.4854 H   0  0  0  0  0  0  0  0  0  0  0  0
   49.6445    6.8727   19.3788 H   0  0  0  0  0  0  0  0  0  0  0  0
   49.9421    4.6058   20.2524 H   0  0  0  0  0  0  0  0  0  0  0  0
   46.5385    9.1974   21.9204 H   0  0  0  0  0  0  0  0  0  0  0  0
   46.7597   10.3756   20.6754 H   0  0  0  0  0  0  0  0  0  0  0  0
   48.9294   10.4830   19.5535 H   0  0  0  0  0  0  0  0  0  0  0  0
   49.8917    9.0434   19.3853 H   0  0  0  0  0  0  0  0  0  0  0  0
   47.9388    8.0429   18.0070 H   0  0  0  0  0  0  0  0  0  0  0  0
   47.1614    9.6155   18.0659 H   0  0  0  0  0  0  0  0  0  0  0  0
   49.6460   11.2301   15.8787 H   0  0  0  0  0  0  0  0  0  0  0  0
   49.6982   11.3292   17.6262 H   0  0  0  0  0  0  0  0  0  0  0  0
   48.1417   11.4907   16.7861 H   0  0  0  0  0  0  0  0  0  0  0  0
   47.2519    9.4450   15.5373 H   0  0  0  0  0  0  0  0  0  0  0  0
   48.1657    7.9276   15.6802 H   0  0  0  0  0  0  0  0  0  0  0  0
   48.8462    9.2634   14.7698 H   0  0  0  0  0  0  0  0  0  0  0  0
   49.3166    9.1232   23.4014 H   0  0  0  0  0  0  0  0  0  0  0  0
   50.3566   11.1598   24.7562 H   0  0  0  0  0  0  0  0  0  0  0  0
   49.3082   13.4451   23.9645 H   0  0  0  0  0  0  0  0  0  0  0  0
   48.0733    8.9008   17.3380 H   0  0  0  0  0  0  0  0  0  0  0  0
   49.6837    9.1626   17.9914 H   0  0  0  0  0  0  0  0  0  0  0  0
   48.8307   14.2494   17.3845 H   0  0  0  0  0  0  0  0  0  0  0  0
   46.3232   11.0163   18.8845 H   0  0  0  0  0  0  0  0  0  0  0  0
   49.2227   10.2025   20.5823 H   0  0  0  0  0  0  0  0  0  0  0  0
   50.1227    8.7042   20.4502 H   0  0  0  0  0  0  0  0  0  0  0  0
   46.4945   13.6283   18.4342 H   0  0  0  0  0  0  0  0  0  0  0  0
   47.4668    9.0067   22.0001 H   0  0  0  0  0  0  0  0  0  0  0  0
   48.4825    7.5982   22.0201 H   0  0  0  0  0  0  0  0  0  0  0  0
   46.1539    7.4577   18.4796 H   0  0  0  0  0  0  0  0  0  0  0  0
   49.9321    4.6236   19.7049 H   0  0  0  0  0  0  0  0  0  0  0  0
   51.2197    9.2170   22.4767 H   0  0  0  0  0  0  0  0  0  0  0  0
   51.0205    8.9820   24.2208 H   0  0  0  0  0  0  0  0  0  0  0  0
   50.6687    7.6529   23.1265 H   0  0  0  0  0  0  0  0  0  0  0  0
   49.6441   11.1795   22.5627 H   0  0  0  0  0  0  0  0  0  0  0  0
   48.0482   10.9443   23.3102 H   0  0  0  0  0  0  0  0  0  0  0  0
   49.4901   10.9308   24.3107 H   0  0  0  0  0  0  0  0  0  0  0  0
   45.9692    5.0074   18.1061 H   0  0  0  0  0  0  0  0  0  0  0  0
   47.9023    3.5410   18.7305 H   0  0  0  0  0  0  0  0  0  0  0  0
   49.9078    9.6868   20.4807 H   0  0  0  0  0  0  0  0  0  0  0  0
   47.2337    8.2998   19.7507 H   0  0  0  0  0  0  0  0  0  0  0  0
   49.6181   10.0848   17.0989 H   0  0  0  0  0  0  0  0  0  0  0  0
   47.5258    7.9118   23.1381 H   0  0  0  0  0  0  0  0  0  0  0  0
   47.2009    9.1461   19.5709 H   0  0  0  0  0  0  0  0  0  0  0  0
   50.0904    8.8245   20.6650 H   0  0  0  0  0  0  0  0  0  0  0  0
   48.6880    8.7784   23.7784 H   0  0  0  0  0  0  0  0  0  0  0  0
   48.6017    9.1923   16.4575 H   0  0  0  0  0  0  0  0  0  0  0  0
  2  4  1  0
  3  1  1  0
  4  3  2  0
  5  1  2  0
  6  2  2  0
  7  2  1  0
  8  1  1  0
 15 17  1  0
 12 15  1  0
 17 18  1  0
 11 12  1  0
 18 19  1  0
 15 16  1  0
 19 20  1  0
 19 21  1  0
 16 22  1  0
 23 24  1  0
 12 13  2  0
 10 11  2  0
 13 14  1  0
 22 23  2  0
 24 25  2  0
 25 26  1  0
 26 22  1  0
 14  9  2  0
  9 10  1  0
 28 27  1  0
 29 31  1  0
 30 29  1  0
 31 27  1  0
 32 28  2  0
 33 30  1  0
 34 29  2  0
 35 27  1  0
 36 34  1  0
 37 38  1  0
 38 35  1  0
 39 28  1  0
 40 32  1  0
 41 37  1  0
 42 37  1  0
 43 39  2  0
 44 40  2  0
 36 33  2  0
 43 44  1  0
 46 48  1  0
 47 45  1  0
 48 47  2  0
 49 45  2  0
 50 46  2  0
 51 46  1  0
 52 45  1  0
 54 56  1  0
 55 53  1  0
 56 55  2  0
 57 53  2  0
 58 54  2  0
 59 54  1  0
 60 53  1  0
  3 61  1  0
  4 62  1  0
  7 63  1  0
  8 64  1  0
  9 65  1  0
 10 66  1  0
 13 67  1  0
 14 68  1  0
 16 69  1  0
 16 70  1  0
 17 71  1  0
 17 72  1  0
 18 73  1  0
 18 74  1  0
 20 75  1  0
 20 76  1  0
 20 77  1  0
 21 78  1  0
 21 79  1  0
 21 80  1  0
 23 81  1  0
 24 82  1  0
 25 83  1  0
 31 84  1  0
 31 85  1  0
 33 86  1  0
 34 87  1  0
 35 88  1  0
 35 89  1  0
 36 90  1  0
 38 91  1  0
 38 92  1  0
 39 93  1  0
 40 94  1  0
 41 95  1  0
 41 96  1  0
 41 97  1  0
 42 98  1  0
 42 99  1  0
 42100  1  0
 43101  1  0
 44102  1  0
 47103  1  0
 48104  1  0
 51105  1  0
 52106  1  0
 55107  1  0
 56108  1  0
 59109  1  0
 60110  1  0
M  END
> <Uni-Dock RESULT> 
ENERGY=   -6.126  LOWER_BOUND=    4.260  UPPER_BOUND=    6.606
INTER + INTRA:          -6.126
INTER:                  -6.126
INTRA:                   0.000
UNBOUND:                 0.000

$$$$

     RDKit          3D

110109  0  0  0  0  0  0  0  0999 V2000
   48.4812    7.5885   13.1942 C   0  0  0  0  0  0  0  0  0  0  0  0
   50.0714   10.7682   11.9529 C   0  0  0  0  0  0  0  0  0  0  0  0
   49.0374    8.6116   12.3075 C   0  0  0  0  0  0  0  0  0  0  0  0
   49.5068    9.7480   12.8382 C   0  0  0  0  0  0  0  0  0  0  0  0
   48.3855    7.6364   14.4050 O   0  0  0  0  0  0  0  0  0  0  0  0
   50.1758   10.7172   10.7432 O   0  0  0  0  0  0  0  0  0  0  0  0
   50.4854   11.8255   12.6662 O   0  0  0  0  0  0  0  0  0  0  0  0
   48.0624    6.5331   12.4806 O   0  0  0  0  0  0  0  0  0  0  0  0
   53.4003   10.2968   13.8539 C   0  0  0  0  0  0  0  0  0  0  0  0
   52.4740   11.3149   13.7841 C   0  0  0  0  0  0  0  0  0  0  0  0
   51.1727   11.1303   13.4666 N   0  0  0  0  0  0  0  0  0  0  0  0
   50.7230    9.8839   13.1923 C   0  0  0  0  0  0  0  0  0  0  0  0
   51.6130    8.8101   13.2555 C   0  0  0  0  0  0  0  0  0  0  0  0
   52.9552    9.0155   13.5858 C   0  0  0  0  0  0  0  0  0  0  0  0
   49.3860    9.7310   12.8750 N   0  0  0  0  0  0  0  0  0  0  0  0
   48.5542   10.9337   12.7420 C   0  0  0  0  0  0  0  0  0  0  0  0
   48.8122    8.4677   12.4072 C   0  0  0  0  0  0  0  0  0  0  0  0
   48.3387    7.6037   13.5990 C   0  0  0  0  0  0  0  0  0  0  0  0
   47.9304    6.2320   13.2270 N   0  0  0  0  0  0  0  0  0  0  0  0
   46.7253    6.2338   12.3944 C   0  0  0  0  0  0  0  0  0  0  0  0
   47.6962    5.4371   14.4372 C   0  0  0  0  0  0  0  0  0  0  0  0
   48.4478   11.4879   11.3409 C   0  0  0  0  0  0  0  0  0  0  0  0
   49.4675   11.8212   10.4702 C   0  0  0  0  0  0  0  0  0  0  0  0
   48.9829   12.3084    9.2222 C   0  0  0  0  0  0  0  0  0  0  0  0
   47.6077   12.3444    9.1858 C   0  0  0  0  0  0  0  0  0  0  0  0
   46.9095   11.7875   10.6440 S   0  0  0  0  0  0  0  0  0  0  0  0
   49.1448    8.7435   13.2167 N   0  0  0  0  0  0  0  0  0  0  0  0
   50.2644    8.4599   14.0375 C   0  0  0  0  0  0  0  0  0  0  0  0
   46.9421    7.7162   12.5826 C   0  0  0  0  0  0  0  0  0  0  0  0
   46.2813    6.7151   11.3570 S   0  0  0  0  0  0  0  0  0  0  0  0
   48.3572    7.5002   13.0640 C   0  0  0  0  0  0  0  0  0  0  0  0
   51.4655    8.1773   13.4882 N   0  0  0  0  0  0  0  0  0  0  0  0
   44.7841    7.5369   11.4045 C   0  0  0  0  0  0  0  0  0  0  0  0
   46.0255    8.6546   13.0158 C   0  0  0  0  0  0  0  0  0  0  0  0
   49.5387    9.3442   11.9187 C   0  0  0  0  0  0  0  0  0  0  0  0
   44.7801    8.5534   12.3332 C   0  0  0  0  0  0  0  0  0  0  0  0
   50.3506   11.5730   10.8719 N   0  0  0  0  0  0  0  0  0  0  0  0
   50.1051   10.7774   12.0936 C   0  0  0  0  0  0  0  0  0  0  0  0
   50.0849    8.4824   15.4215 C   0  0  0  0  0  0  0  0  0  0  0  0
   52.4964    7.9161   14.3226 C   0  0  0  0  0  0  0  0  0  0  0  0
   51.2984   10.9228    9.9693 C   0  0  0  0  0  0  0  0  0  0  0  0
   49.1138   11.9177   10.1728 C   0  0  0  0  0  0  0  0  0  0  0  0
   51.1602    8.2053   16.2614 C   0  0  0  0  0  0  0  0  0  0  0  0
   52.3945    7.9135   15.7027 C   0  0  0  0  0  0  0  0  0  0  0  0
   50.1418   10.7436   11.8908 C   0  0  0  0  0  0  0  0  0  0  0  0
   48.4081    7.6143   13.2565 C   0  0  0  0  0  0  0  0  0  0  0  0
   49.4746    9.4439   11.9925 C   0  0  0  0  0  0  0  0  0  0  0  0
   49.0766    8.9141   13.1572 C   0  0  0  0  0  0  0  0  0  0  0  0
   50.5103   11.2471   10.8459 O   0  0  0  0  0  0  0  0  0  0  0  0
   48.0354    7.1091   14.2996 O   0  0  0  0  0  0  0  0  0  0  0  0
   48.2330    7.0023   12.0760 O   0  0  0  0  0  0  0  0  0  0  0  0
   50.3162   11.3581   13.0694 O   0  0  0  0  0  0  0  0  0  0  0  0
   48.7754    7.3858   12.9137 C   0  0  0  0  0  0  0  0  0  0  0  0
   49.8531   10.9043   12.1273 C   0  0  0  0  0  0  0  0  0  0  0  0
   48.9351    8.8389   12.9774 C   0  0  0  0  0  0  0  0  0  0  0  0
   49.6940    9.4519   12.0608 C   0  0  0  0  0  0  0  0  0  0  0  0
   49.2658    6.6256   12.1028 O   0  0  0  0  0  0  0  0  0  0  0  0
   49.3701   11.6622   12.9455 O   0  0  0  0  0  0  0  0  0  0  0  0
   50.6357   11.3287   11.1254 O   0  0  0  0  0  0  0  0  0  0  0  0
   47.9835    6.9607   13.9081 O   0  0  0  0  0  0  0  0  0  0  0  0
   49.0508    8.4084   11.2428 H   0  0  0  0  0  0  0  0  0  0  0  0
   49.4911    9.9529   13.9026 H   0  0  0  0  0  0  0  0  0  0  0  0
   50.8381   12.4451   11.9938 H   0  0  0  0  0  0  0  0  0  0  0  0
   47.7090    5.9142   13.1538 H   0  0  0  0  0  0  0  0  0  0  0  0
   54.4339   10.4956   14.1115 H   0  0  0  0  0  0  0  0  0  0  0  0
   52.7551   12.3441   13.9863 H   0  0  0  0  0  0  0  0  0  0  0  0
   51.2885    7.7953   13.0567 H   0  0  0  0  0  0  0  0  0  0  0  0
   53.6372    8.1719   13.6333 H   0  0  0  0  0  0  0  0  0  0  0  0
   48.8763   11.7405   13.4132 H   0  0  0  0  0  0  0  0  0  0  0  0
   47.5501   10.6755   13.1066 H   0  0  0  0  0  0  0  0  0  0  0  0
   47.9559    8.6780   11.7563 H   0  0  0  0  0  0  0  0  0  0  0  0
   49.5211    7.9188   11.7783 H   0  0  0  0  0  0  0  0  0  0  0  0
   49.1657    7.5323   14.3158 H   0  0  0  0  0  0  0  0  0  0  0  0
   47.5242    8.1227   14.1221 H   0  0  0  0  0  0  0  0  0  0  0  0
   46.4156    5.2084   12.1620 H   0  0  0  0  0  0  0  0  0  0  0  0
   46.9128    6.7212   11.4336 H   0  0  0  0  0  0  0  0  0  0  0  0
   45.8877    6.7427   12.8839 H   0  0  0  0  0  0  0  0  0  0  0  0
   46.8938    5.8520   15.0589 H   0  0  0  0  0  0  0  0  0  0  0  0
   48.6068    5.3791   15.0442 H   0  0  0  0  0  0  0  0  0  0  0  0
   47.4344    4.4057   14.1757 H   0  0  0  0  0  0  0  0  0  0  0  0
   50.5158   11.7092   10.7248 H   0  0  0  0  0  0  0  0  0  0  0  0
   49.6111   12.6203    8.3975 H   0  0  0  0  0  0  0  0  0  0  0  0
   46.9757   12.6733    8.3723 H   0  0  0  0  0  0  0  0  0  0  0  0
   48.2659    6.9768   14.0267 H   0  0  0  0  0  0  0  0  0  0  0  0
   48.8882    6.8124   12.3913 H   0  0  0  0  0  0  0  0  0  0  0  0
   43.9796    7.2376   10.7491 H   0  0  0  0  0  0  0  0  0  0  0  0
   46.2505    9.3871   13.7844 H   0  0  0  0  0  0  0  0  0  0  0  0
   48.6440    9.4074   11.2899 H   0  0  0  0  0  0  0  0  0  0  0  0
   50.2466    8.7030   11.3769 H   0  0  0  0  0  0  0  0  0  0  0  0
   43.9267    9.1953   12.5125 H   0  0  0  0  0  0  0  0  0  0  0  0
   49.4334   11.3494   12.7491 H   0  0  0  0  0  0  0  0  0  0  0  0
   51.0535   10.7326   12.6449 H   0  0  0  0  0  0  0  0  0  0  0  0
   49.1145    8.7282   15.8385 H   0  0  0  0  0  0  0  0  0  0  0  0
   53.4419    7.7002   13.8321 H   0  0  0  0  0  0  0  0  0  0  0  0
   50.8912   10.0090    9.5189 H   0  0  0  0  0  0  0  0  0  0  0  0
   51.5752   11.6018    9.1560 H   0  0  0  0  0  0  0  0  0  0  0  0
   52.2275   10.6686   10.4943 H   0  0  0  0  0  0  0  0  0  0  0  0
   48.6069   11.0438    9.7487 H   0  0  0  0  0  0  0  0  0  0  0  0
   48.4179   12.4282   10.8482 H   0  0  0  0  0  0  0  0  0  0  0  0
   49.3218   12.6172    9.3557 H   0  0  0  0  0  0  0  0  0  0  0  0
   51.0292    8.2240   17.3411 H   0  0  0  0  0  0  0  0  0  0  0  0
   53.2566    7.6941   16.3235 H   0  0  0  0  0  0  0  0  0  0  0  0
   49.3262    8.9380   11.0451 H   0  0  0  0  0  0  0  0  0  0  0  0
   49.2262    9.4179   14.1058 H   0  0  0  0  0  0  0  0  0  0  0  0
   47.7821    6.1637   12.3092 H   0  0  0  0  0  0  0  0  0  0  0  0
   50.7644   12.1971   12.8328 H   0  0  0  0  0  0  0  0  0  0  0  0
   48.4273    9.3681   13.7755 H   0  0  0  0  0  0  0  0  0  0  0  0
   50.1995    8.9190   11.2639 H   0  0  0  0  0  0  0  0  0  0  0  0
   50.6848   12.2994   11.2533 H   0  0  0  0  0  0  0  0  0  0  0  0
   47.9413    5.9885   13.7873 H   0  0  0  0  0  0  0  0  0  0  0  0
  2  4  1  0
  3  1  1  0
  4  3  2  0
  5  1  2  0
  6  2  2  0
  7  2  1  0
  8  1  1  0
 15 17  1  0
 12 15  1  0
 17 18  1  0
 11 12  1  0
 18 19  1  0
 15 16  1  0
 19 20  1  0
 19 21  1  0
 16 22  1  0
 23 24  1  0
 12 13  2  0
 10 11  2  0
 13 14  1  0
 22 23  2  0
 24 25  2  0
 25 26  1  0
 26 22  1  0
 14  9  2  0
  9 10  1  0
 28 27  1  0
 29 31  1  0
 30 29  1  0
 31 27  1  0
 32 28  2  0
 33 30  1  0
 34 29  2  0
 35 27  1  0
 36 34  1  0
 37 38  1  0
 38 35  1  0
 39 28  1  0
 40 32  1  0
 41 37  1  0
 42 37  1  0
 43 39  2  0
 44 40  2  0
 36 33  2  0
 43 44  1  0
 46 48  1  0
 47 45  1  0
 48 47  2  0
 49 45  2  0
 50 46  2  0
 51 46  1  0
 52 45  1  0
 54 56  1  0
 55 53  1  0
 56 55  2  0
 57 53  2  0
 58 54  2  0
 59 54  1  0
 60 53  1  0
  3 61  1  0
  4 62  1  0
  7 63  1  0
  8 64  1  0
  9 65  1  0
 10 66  1  0
 13 67  1  0
 14 68  1  0
 16 69  1  0
 16 70  1  0
 17 71  1  0
 17 72  1  0
 18 73  1  0
 18 74  1  0
 20 75  1  0
 20 76  1  0
 20 77  1  0
 21 78  1  0
 21 79  1  0
 21 80  1  0
 23 81  1  0
 24 82  1  0
 25 83  1  0
 31 84  1  0
 31 85  1  0
 33 86  1  0
 34 87  1  0
 35 88  1  0
 35 89  1  0
 36 90  1  0
 38 91  1  0
 38 92  1  0
 39 93  1  0
 40 94  1  0
 41 95  1  0
 41 96  1  0
 41 97  1  0
 42 98  1  0
 42 99  1  0
 42100  1  0
 43101  1  0
 44102  1  0
 47103  1  0
 48104  1  0
 51105  1  0
 52106  1  0
 55107  1  0
 56108  1  0
 59109  1  0
 60110  1  0
M  END
> <Uni-Dock RESULT> 
ENERGY=   -6.058  LOWER_BOUND=    5.382  UPPER_BOUND=    8.501
INTER + INTRA:          -6.058
INTER:                  -6.058
INTRA:                   0.000
UNBOUND:                 0.000

$$$$

     RDKit          3D

110109  0  0  0  0  0  0  0  0999 V2000
   49.3094    7.7565   18.8367 C   0  0  0  0  0  0  0  0  0  0  0  0
   47.7388   10.2241   21.2082 C   0  0  0  0  0  0  0  0  0  0  0  0
   49.0903    8.9416   19.6674 C   0  0  0  0  0  0  0  0  0  0  0  0
   47.9549    9.0433   20.3701 C   0  0  0  0  0  0  0  0  0  0  0  0
   48.5621    6.8083   18.6947 O   0  0  0  0  0  0  0  0  0  0  0  0
   48.4894   11.1682   21.3578 O   0  0  0  0  0  0  0  0  0  0  0  0
   46.5531   10.1432   21.8290 O   0  0  0  0  0  0  0  0  0  0  0  0
   50.4929    7.8396   18.2117 O   0  0  0  0  0  0  0  0  0  0  0  0
   47.5972    7.8164   24.2249 C   0  0  0  0  0  0  0  0  0  0  0  0
   46.6622    8.5944   23.5767 C   0  0  0  0  0  0  0  0  0  0  0  0
   46.7702    8.9858   22.2870 N   0  0  0  0  0  0  0  0  0  0  0  0
   47.8506    8.6105   21.5639 C   0  0  0  0  0  0  0  0  0  0  0  0
   48.8278    7.8140   22.1637 C   0  0  0  0  0  0  0  0  0  0  0  0
   48.7028    7.4161   23.4974 C   0  0  0  0  0  0  0  0  0  0  0  0
   47.9269    9.0254   20.2472 N   0  0  0  0  0  0  0  0  0  0  0  0
   46.8962    9.9391   19.7383 C   0  0  0  0  0  0  0  0  0  0  0  0
   49.1104    8.8216   19.4094 C   0  0  0  0  0  0  0  0  0  0  0  0
   49.0414    7.4587   18.6819 C   0  0  0  0  0  0  0  0  0  0  0  0
   50.2853    7.0877   17.9736 N   0  0  0  0  0  0  0  0  0  0  0  0
   50.5545    7.9854   16.8480 C   0  0  0  0  0  0  0  0  0  0  0  0
   50.1910    5.7049   17.4939 C   0  0  0  0  0  0  0  0  0  0  0  0
   47.2346   11.4077   19.8394 C   0  0  0  0  0  0  0  0  0  0  0  0
   47.6389   12.1205   20.9518 C   0  0  0  0  0  0  0  0  0  0  0  0
   47.8792   13.4947   20.6626 C   0  0  0  0  0  0  0  0  0  0  0  0
   47.6368   13.7896   19.3404 C   0  0  0  0  0  0  0  0  0  0  0  0
   47.1307   12.4163   18.4560 S   0  0  0  0  0  0  0  0  0  0  0  0
   48.4827    8.2499   19.7577 N   0  0  0  0  0  0  0  0  0  0  0  0
   48.4317    7.2233   20.7330 C   0  0  0  0  0  0  0  0  0  0  0  0
   49.2944    8.6016   17.4067 C   0  0  0  0  0  0  0  0  0  0  0  0
   50.6860    9.1767   16.5861 S   0  0  0  0  0  0  0  0  0  0  0  0
   49.4335    7.8370   18.7017 C   0  0  0  0  0  0  0  0  0  0  0  0
   49.1773    7.3045   21.8562 N   0  0  0  0  0  0  0  0  0  0  0  0
   49.7443    9.8534   15.3313 C   0  0  0  0  0  0  0  0  0  0  0  0
   48.1375    8.9225   16.7234 C   0  0  0  0  0  0  0  0  0  0  0  0
   48.8103    9.5702   20.3497 C   0  0  0  0  0  0  0  0  0  0  0  0
   48.3968    9.6484   15.5264 C   0  0  0  0  0  0  0  0  0  0  0  0
   47.7589   11.4985   21.7274 N   0  0  0  0  0  0  0  0  0  0  0  0
   47.6567   10.1079   21.2361 C   0  0  0  0  0  0  0  0  0  0  0  0
   47.5915    6.1344   20.4950 C   0  0  0  0  0  0  0  0  0  0  0  0
   49.0854    6.2948   22.7502 C   0  0  0  0  0  0  0  0  0  0  0  0
   48.9583   11.7137   22.5343 C   0  0  0  0  0  0  0  0  0  0  0  0
   47.6714   12.4798   20.6473 C   0  0  0  0  0  0  0  0  0  0  0  0
   47.5168    5.1036   21.4279 C   0  0  0  0  0  0  0  0  0  0  0  0
   48.2808    5.1816   22.5816 C   0  0  0  0  0  0  0  0  0  0  0  0
   47.8061   10.2490   21.2736 C   0  0  0  0  0  0  0  0  0  0  0  0
   49.2406    7.7326   18.7689 C   0  0  0  0  0  0  0  0  0  0  0  0
   48.6771    9.5755   20.3080 C   0  0  0  0  0  0  0  0  0  0  0  0
   48.3683    8.4038   19.7358 C   0  0  0  0  0  0  0  0  0  0  0  0
   48.0625   11.3135   21.8048 O   0  0  0  0  0  0  0  0  0  0  0  0
   48.9859    6.6693   18.2334 O   0  0  0  0  0  0  0  0  0  0  0  0
   50.3770    8.3964   18.5107 O   0  0  0  0  0  0  0  0  0  0  0  0
   46.6686    9.5882   21.5319 O   0  0  0  0  0  0  0  0  0  0  0  0
   49.6826    7.8231   19.0870 C   0  0  0  0  0  0  0  0  0  0  0  0
   47.4927   10.1945   21.0208 C   0  0  0  0  0  0  0  0  0  0  0  0
   48.5073    8.5353   19.5895 C   0  0  0  0  0  0  0  0  0  0  0  0
   48.6690    9.4849   20.5190 C   0  0  0  0  0  0  0  0  0  0  0  0
   50.8399    7.9847   19.4192 O   0  0  0  0  0  0  0  0  0  0  0  0
   46.3342   10.0244   20.6948 O   0  0  0  0  0  0  0  0  0  0  0  0
   47.8585   11.1068   21.9321 O   0  0  0  0  0  0  0  0  0  0  0  0
   49.3200    6.9182   18.1669 O   0  0  0  0  0  0  0  0  0  0  0  0
   49.8646    9.7000   19.6848 H   0  0  0  0  0  0  0  0  0  0  0  0
   47.1791    8.2864   20.3510 H   0  0  0  0  0  0  0  0  0  0  0  0
   46.5005   10.9689   22.3543 H   0  0  0  0  0  0  0  0  0  0  0  0
   50.5443    7.0137   17.6860 H   0  0  0  0  0  0  0  0  0  0  0  0
   47.4664    7.5295   25.2616 H   0  0  0  0  0  0  0  0  0  0  0  0
   45.7687    8.9403   24.0876 H   0  0  0  0  0  0  0  0  0  0  0  0
   49.7005    7.4809   21.6141 H   0  0  0  0  0  0  0  0  0  0  0  0
   49.4687    6.7952   23.9522 H   0  0  0  0  0  0  0  0  0  0  0  0
   45.9198    9.7724   20.2117 H   0  0  0  0  0  0  0  0  0  0  0  0
   46.7238    9.6788   18.6846 H   0  0  0  0  0  0  0  0  0  0  0  0
   49.1680    9.6220   18.6630 H   0  0  0  0  0  0  0  0  0  0  0  0
   50.0313    8.9105   19.9954 H   0  0  0  0  0  0  0  0  0  0  0  0
   48.8297    6.6853   19.4302 H   0  0  0  0  0  0  0  0  0  0  0  0
   48.1870    7.4590   17.9917 H   0  0  0  0  0  0  0  0  0  0  0  0
   51.4575    7.6714   16.3118 H   0  0  0  0  0  0  0  0  0  0  0  0
   50.7449    9.0045   17.1957 H   0  0  0  0  0  0  0  0  0  0  0  0
   49.7235    8.0118   16.1346 H   0  0  0  0  0  0  0  0  0  0  0  0
   49.3658    5.5654   16.7852 H   0  0  0  0  0  0  0  0  0  0  0  0
   50.0455    5.0137   18.3318 H   0  0  0  0  0  0  0  0  0  0  0  0
   51.1235    5.4028   17.0041 H   0  0  0  0  0  0  0  0  0  0  0  0
   47.7619   11.6639   21.9279 H   0  0  0  0  0  0  0  0  0  0  0  0
   48.2076   14.2280   21.3881 H   0  0  0  0  0  0  0  0  0  0  0  0
   47.7304   14.7478   18.8483 H   0  0  0  0  0  0  0  0  0  0  0  0
   49.2874    6.7795   18.4385 H   0  0  0  0  0  0  0  0  0  0  0  0
   50.4606    7.9177   19.0840 H   0  0  0  0  0  0  0  0  0  0  0  0
   50.2222   10.3703   14.5123 H   0  0  0  0  0  0  0  0  0  0  0  0
   47.1484    8.6527   17.0799 H   0  0  0  0  0  0  0  0  0  0  0  0
   48.9666   10.2792   19.5295 H   0  0  0  0  0  0  0  0  0  0  0  0
   49.7553    9.5375   20.9080 H   0  0  0  0  0  0  0  0  0  0  0  0
   47.6337   10.0042   14.8454 H   0  0  0  0  0  0  0  0  0  0  0  0
   46.7084   10.0033   20.6904 H   0  0  0  0  0  0  0  0  0  0  0  0
   47.5390    9.4629   22.1166 H   0  0  0  0  0  0  0  0  0  0  0  0
   46.9905    6.1003   19.5930 H   0  0  0  0  0  0  0  0  0  0  0  0
   49.7002    6.4099   23.6390 H   0  0  0  0  0  0  0  0  0  0  0  0
   49.8798   11.6565   21.9415 H   0  0  0  0  0  0  0  0  0  0  0  0
   48.9258   12.7007   23.0073 H   0  0  0  0  0  0  0  0  0  0  0  0
   49.0203   10.9793   23.3468 H   0  0  0  0  0  0  0  0  0  0  0  0
   48.5287   12.4405   19.9663 H   0  0  0  0  0  0  0  0  0  0  0  0
   46.7568   12.3295   20.0623 H   0  0  0  0  0  0  0  0  0  0  0  0
   47.6128   13.4934   21.0589 H   0  0  0  0  0  0  0  0  0  0  0  0
   46.8619    4.2532   21.2513 H   0  0  0  0  0  0  0  0  0  0  0  0
   48.2487    4.3997   23.3329 H   0  0  0  0  0  0  0  0  0  0  0  0
   49.5996   10.1017   20.0895 H   0  0  0  0  0  0  0  0  0  0  0  0
   47.4470    7.8754   19.9548 H   0  0  0  0  0  0  0  0  0  0  0  0
   50.8397    7.8284   17.8594 H   0  0  0  0  0  0  0  0  0  0  0  0
   46.2072   10.1598   22.1808 H   0  0  0  0  0  0  0  0  0  0  0  0
   47.5397    8.2613   19.1853 H   0  0  0  0  0  0  0  0  0  0  0  0
   49.6385    9.7563   20.9202 H   0  0  0  0  0  0  0  0  0  0  0  0
   47.0148   11.5230   22.2077 H   0  0  0  0  0  0  0  0  0  0  0  0
   50.1620    6.4941   17.8972 H   0  0  0  0  0  0  0  0  0  0  0  0
  2  4  1  0
  3  1  1  0
  4  3  2  0
  5  1  2  0
  6  2  2  0
  7  2  1  0
  8  1  1  0
 15 17  1  0
 12 15  1  0
 17 18  1  0
 11 12  1  0
 18 19  1  0
 15 16  1  0
 19 20  1  0
 19 21  1  0
 16 22  1  0
 23 24  1  0
 12 13  2  0
 10 11  2  0
 13 14  1  0
 22 23  2  0
 24 25  2  0
 25 26  1  0
 26 22  1  0
 14  9  2  0
  9 10  1  0
 28 27  1  0
 29 31  1  0
 30 29  1  0
 31 27  1  0
 32 28  2  0
 33 30  1  0
 34 29  2  0
 35 27  1  0
 36 34  1  0
 37 38  1  0
 38 35  1  0
 39 28  1  0
 40 32  1  0
 41 37  1  0
 42 37  1  0
 43 39  2  0
 44 40  2  0
 36 33  2  0
 43 44  1  0
 46 48  1  0
 47 45  1  0
 48 47  2  0
 49 45  2  0
 50 46  2  0
 51 46  1  0
 52 45  1  0
 54 56  1  0
 55 53  1  0
 56 55  2  0
 57 53  2  0
 58 54  2  0
 59 54  1  0
 60 53  1  0
  3 61  1  0
  4 62  1  0
  7 63  1  0
  8 64  1  0
  9 65  1  0
 10 66  1  0
 13 67  1  0
 14 68  1  0
 16 69  1  0
 16 70  1  0
 17 71  1  0
 17 72  1  0
 18 73  1  0
 18 74  1  0
 20 75  1  0
 20 76  1  0
 20 77  1  0
 21 78  1  0
 21 79  1  0
 21 80  1  0
 23 81  1  0
 24 82  1  0
 25 83  1  0
 31 84  1  0
 31 85  1  0
 33 86  1  0
 34 87  1  0
 35 88  1  0
 35 89  1  0
 36 90  1  0
 38 91  1  0
 38 92  1  0
 39 93  1  0
 40 94  1  0
 41 95  1  0
 41 96  1  0
 41 97  1  0
 42 98  1  0
 42 99  1  0
 42100  1  0
 43101  1  0
 44102  1  0
 47103  1  0
 48104  1  0
 51105  1  0
 52106  1  0
 55107  1  0
 56108  1  0
 59109  1  0
 60110  1  0
M  END
> <Uni-Dock RESULT> 
ENERGY=   -5.913  LOWER_BOUND=    3.813  UPPER_BOUND=    6.835
INTER + INTRA:          -5.913
INTER:                  -5.913
INTRA:                   0.000
UNBOUND:                 0.000

$$$$

     RDKit          3D

110109  0  0  0  0  0  0  0  0999 V2000
   48.2784    9.9907   12.6532 C   0  0  0  0  0  0  0  0  0  0  0  0
   46.5231   12.6614   10.6616 C   0  0  0  0  0  0  0  0  0  0  0  0
   47.7078   10.7432   11.5348 C   0  0  0  0  0  0  0  0  0  0  0  0
   47.0862   11.9037   11.7805 C   0  0  0  0  0  0  0  0  0  0  0  0
   48.2621   10.2948   13.8300 O   0  0  0  0  0  0  0  0  0  0  0  0
   46.5470   12.3626    9.4839 O   0  0  0  0  0  0  0  0  0  0  0  0
   45.9458   13.7871   11.1060 O   0  0  0  0  0  0  0  0  0  0  0  0
   48.8513    8.8623   12.2096 O   0  0  0  0  0  0  0  0  0  0  0  0
   48.9469   15.5101   11.6250 C   0  0  0  0  0  0  0  0  0  0  0  0
   47.5792   15.3539   11.6915 C   0  0  0  0  0  0  0  0  0  0  0  0
   46.9597   14.1542   11.7646 N   0  0  0  0  0  0  0  0  0  0  0  0
   47.6988   13.0207   11.7713 C   0  0  0  0  0  0  0  0  0  0  0  0
   49.0906   13.1155   11.7150 C   0  0  0  0  0  0  0  0  0  0  0  0
   49.7175   14.3622   11.6406 C   0  0  0  0  0  0  0  0  0  0  0  0
   47.0329   11.8116   11.8506 N   0  0  0  0  0  0  0  0  0  0  0  0
   45.5652   11.8146   11.8092 C   0  0  0  0  0  0  0  0  0  0  0  0
   47.7019   10.5169   11.7083 C   0  0  0  0  0  0  0  0  0  0  0  0
   48.2099   10.0067   13.0768 C   0  0  0  0  0  0  0  0  0  0  0  0
   49.0687    8.8058   12.9936 N   0  0  0  0  0  0  0  0  0  0  0  0
   48.3196    7.6369   12.5268 C   0  0  0  0  0  0  0  0  0  0  0  0
   49.6594    8.5247   14.3063 C   0  0  0  0  0  0  0  0  0  0  0  0
   44.9621   11.6414   10.4353 C   0  0  0  0  0  0  0  0  0  0  0  0
   45.2218   12.3643    9.2868 C   0  0  0  0  0  0  0  0  0  0  0  0
   44.4653   11.9059    8.1699 C   0  0  0  0  0  0  0  0  0  0  0  0
   43.6416   10.8558    8.5057 C   0  0  0  0  0  0  0  0  0  0  0  0
   43.7872   10.4240   10.1539 S   0  0  0  0  0  0  0  0  0  0  0  0
   47.7207   11.1643   12.3584 N   0  0  0  0  0  0  0  0  0  0  0  0
   48.6495   12.1039   12.8703 C   0  0  0  0  0  0  0  0  0  0  0  0
   47.2485    8.6998   12.4736 C   0  0  0  0  0  0  0  0  0  0  0  0
   47.6049    7.2674   11.6006 S   0  0  0  0  0  0  0  0  0  0  0  0
   48.2705    9.8073   12.5730 C   0  0  0  0  0  0  0  0  0  0  0  0
   49.5363   12.7100   12.0516 N   0  0  0  0  0  0  0  0  0  0  0  0
   46.0759    6.5937   11.9577 C   0  0  0  0  0  0  0  0  0  0  0  0
   45.9837    8.6514   13.0271 C   0  0  0  0  0  0  0  0  0  0  0  0
   47.3746   11.4328   10.9410 C   0  0  0  0  0  0  0  0  0  0  0  0
   45.3049    7.4365   12.7265 C   0  0  0  0  0  0  0  0  0  0  0  0
   45.9585   13.0203    9.4589 N   0  0  0  0  0  0  0  0  0  0  0  0
   46.5441   12.7334   10.7857 C   0  0  0  0  0  0  0  0  0  0  0  0
   48.6168   12.3792   14.2384 C   0  0  0  0  0  0  0  0  0  0  0  0
   50.3966   13.5980   12.5981 C   0  0  0  0  0  0  0  0  0  0  0  0
   46.9762   13.1204    8.4148 C   0  0  0  0  0  0  0  0  0  0  0  0
   44.9203   12.0603    9.0878 C   0  0  0  0  0  0  0  0  0  0  0  0
   49.5160   13.2939   14.7799 C   0  0  0  0  0  0  0  0  0  0  0  0
   50.4287   13.9177   13.9441 C   0  0  0  0  0  0  0  0  0  0  0  0
   46.5797   12.6838   10.5860 C   0  0  0  0  0  0  0  0  0  0  0  0
   48.2192    9.9670   12.7296 C   0  0  0  0  0  0  0  0  0  0  0  0
   47.2612   11.4614   11.0174 C   0  0  0  0  0  0  0  0  0  0  0  0
   47.5386   11.1912   12.3002 C   0  0  0  0  0  0  0  0  0  0  0  0
   46.3144   12.9509    9.4287 O   0  0  0  0  0  0  0  0  0  0  0  0
   48.4834    9.6952   13.8865 O   0  0  0  0  0  0  0  0  0  0  0  0
   48.5412    9.1428   11.7217 O   0  0  0  0  0  0  0  0  0  0  0  0
   46.2552   13.5083   11.5920 O   0  0  0  0  0  0  0  0  0  0  0  0
   48.5950   10.0212   12.3288 C   0  0  0  0  0  0  0  0  0  0  0  0
   46.2977   12.6209   10.8717 C   0  0  0  0  0  0  0  0  0  0  0  0
   47.5068   10.9874   12.1759 C   0  0  0  0  0  0  0  0  0  0  0  0
   47.3854   11.6547   11.0218 C   0  0  0  0  0  0  0  0  0  0  0  0
   49.4447    9.7328   11.5099 O   0  0  0  0  0  0  0  0  0  0  0  0
   45.4545   12.9159   11.6958 O   0  0  0  0  0  0  0  0  0  0  0  0
   46.3381   13.1749    9.6518 O   0  0  0  0  0  0  0  0  0  0  0  0
   48.5492    9.4576   13.5441 O   0  0  0  0  0  0  0  0  0  0  0  0
   47.8128   10.3299   10.5382 H   0  0  0  0  0  0  0  0  0  0  0  0
   46.9787   12.3161   12.7773 H   0  0  0  0  0  0  0  0  0  0  0  0
   45.6007   14.2160   10.2951 H   0  0  0  0  0  0  0  0  0  0  0  0
   49.1955    8.4337   13.0213 H   0  0  0  0  0  0  0  0  0  0  0  0
   49.3967   16.4941   11.5660 H   0  0  0  0  0  0  0  0  0  0  0  0
   46.9153   16.2132   11.6873 H   0  0  0  0  0  0  0  0  0  0  0  0
   49.7179   12.2319   11.7325 H   0  0  0  0  0  0  0  0  0  0  0  0
   50.8008   14.4228   11.5989 H   0  0  0  0  0  0  0  0  0  0  0  0
   45.1363   12.7152   12.2678 H   0  0  0  0  0  0  0  0  0  0  0  0
   45.2207   10.9998   12.4614 H   0  0  0  0  0  0  0  0  0  0  0  0
   46.9954    9.7878   11.2954 H   0  0  0  0  0  0  0  0  0  0  0  0
   48.5170   10.5696   10.9789 H   0  0  0  0  0  0  0  0  0  0  0  0
   48.7906   10.8112   13.5443 H   0  0  0  0  0  0  0  0  0  0  0  0
   47.3515    9.8250   13.7375 H   0  0  0  0  0  0  0  0  0  0  0  0
   48.9619    6.7489   12.5094 H   0  0  0  0  0  0  0  0  0  0  0  0
   47.9686    7.7798   11.5010 H   0  0  0  0  0  0  0  0  0  0  0  0
   47.4539    7.4219   13.1628 H   0  0  0  0  0  0  0  0  0  0  0  0
   48.8992    8.3217   15.0701 H   0  0  0  0  0  0  0  0  0  0  0  0
   50.2702    9.3693   14.6447 H   0  0  0  0  0  0  0  0  0  0  0  0
   50.3323    7.6618   14.2489 H   0  0  0  0  0  0  0  0  0  0  0  0
   45.9333   13.1824    9.2573 H   0  0  0  0  0  0  0  0  0  0  0  0
   44.5199   12.3282    7.1746 H   0  0  0  0  0  0  0  0  0  0  0  0
   42.9573   10.3198    7.8626 H   0  0  0  0  0  0  0  0  0  0  0  0
   48.7064    9.7187   13.5786 H   0  0  0  0  0  0  0  0  0  0  0  0
   49.0936    9.6314   11.8665 H   0  0  0  0  0  0  0  0  0  0  0  0
   45.8143    5.6140   11.5861 H   0  0  0  0  0  0  0  0  0  0  0  0
   45.5658    9.4632   13.6139 H   0  0  0  0  0  0  0  0  0  0  0  0
   46.7673   10.5970   10.5770 H   0  0  0  0  0  0  0  0  0  0  0  0
   48.2700   11.4576   10.3059 H   0  0  0  0  0  0  0  0  0  0  0  0
   44.3018    7.1950   13.0551 H   0  0  0  0  0  0  0  0  0  0  0  0
   45.7332   12.7302   11.5277 H   0  0  0  0  0  0  0  0  0  0  0  0
   47.1623   13.5986   11.0589 H   0  0  0  0  0  0  0  0  0  0  0  0
   47.8844   11.8915   14.8722 H   0  0  0  0  0  0  0  0  0  0  0  0
   51.0855   14.0622   11.8973 H   0  0  0  0  0  0  0  0  0  0  0  0
   47.4575   12.1575    8.2028 H   0  0  0  0  0  0  0  0  0  0  0  0
   46.5300   13.4835    7.4831 H   0  0  0  0  0  0  0  0  0  0  0  0
   47.7522   13.8442    8.6928 H   0  0  0  0  0  0  0  0  0  0  0  0
   45.3133   11.0508    8.9235 H   0  0  0  0  0  0  0  0  0  0  0  0
   44.1469   12.0093    9.8627 H   0  0  0  0  0  0  0  0  0  0  0  0
   44.4175   12.3810    8.1688 H   0  0  0  0  0  0  0  0  0  0  0  0
   49.4947   13.5162   15.8444 H   0  0  0  0  0  0  0  0  0  0  0  0
   51.1440   14.6374   14.3278 H   0  0  0  0  0  0  0  0  0  0  0  0
   47.5270   10.7855   10.2124 H   0  0  0  0  0  0  0  0  0  0  0  0
   47.2752   11.8672   13.1062 H   0  0  0  0  0  0  0  0  0  0  0  0
   48.9799    8.3869   12.1655 H   0  0  0  0  0  0  0  0  0  0  0  0
   45.8144   14.2614   11.1455 H   0  0  0  0  0  0  0  0  0  0  0  0
   46.8344   11.1276   13.0143 H   0  0  0  0  0  0  0  0  0  0  0  0
   48.0595   11.5111   10.1855 H   0  0  0  0  0  0  0  0  0  0  0  0
   45.5836   13.8006    9.6468 H   0  0  0  0  0  0  0  0  0  0  0  0
   49.3095    8.8383   13.5543 H   0  0  0  0  0  0  0  0  0  0  0  0
  2  4  1  0
  3  1  1  0
  4  3  2  0
  5  1  2  0
  6  2  2  0
  7  2  1  0
  8  1  1  0
 15 17  1  0
 12 15  1  0
 17 18  1  0
 11 12  1  0
 18 19  1  0
 15 16  1  0
 19 20  1  0
 19 21  1  0
 16 22  1  0
 23 24  1  0
 12 13  2  0
 10 11  2  0
 13 14  1  0
 22 23  2  0
 24 25  2  0
 25 26  1  0
 26 22  1  0
 14  9  2  0
  9 10  1  0
 28 27  1  0
 29 31  1  0
 30 29  1  0
 31 27  1  0
 32 28  2  0
 33 30  1  0
 34 29  2  0
 35 27  1  0
 36 34  1  0
 37 38  1  0
 38 35  1  0
 39 28  1  0
 40 32  1  0
 41 37  1  0
 42 37  1  0
 43 39  2  0
 44 40  2  0
 36 33  2  0
 43 44  1  0
 46 48  1  0
 47 45  1  0
 48 47  2  0
 49 45  2  0
 50 46  2  0
 51 46  1  0
 52 45  1  0
 54 56  1  0
 55 53  1  0
 56 55  2  0
 57 53  2  0
 58 54  2  0
 59 54  1  0
 60 53  1  0
  3 61  1  0
  4 62  1  0
  7 63  1  0
  8 64  1  0
  9 65  1  0
 10 66  1  0
 13 67  1  0
 14 68  1  0
 16 69  1  0
 16 70  1  0
 17 71  1  0
 17 72  1  0
 18 73  1  0
 18 74  1  0
 20 75  1  0
 20 76  1  0
 20 77  1  0
 21 78  1  0
 21 79  1  0
 21 80  1  0
 23 81  1  0
 24 82  1  0
 25 83  1  0
 31 84  1  0
 31 85  1  0
 33 86  1  0
 34 87  1  0
 35 88  1  0
 35 89  1  0
 36 90  1  0
 38 91  1  0
 38 92  1  0
 39 93  1  0
 40 94  1  0
 41 95  1  0
 41 96  1  0
 41 97  1  0
 42 98  1  0
 42 99  1  0
 42100  1  0
 43101  1  0
 44102  1  0
 47103  1  0
 48104  1  0
 51105  1  0
 52106  1  0
 55107  1  0
 56108  1  0
 59109  1  0
 60110  1  0
M  END
> <Uni-Dock RESULT> 
ENERGY=   -5.862  LOWER_BOUND=    7.669  UPPER_BOUND=   10.377
INTER + INTRA:          -5.862
INTER:                  -5.862
INTRA:                   0.000
UNBOUND:                 0.000

$$$$

     RDKit          3D

110109  0  0  0  0  0  0  0  0999 V2000
   48.1048    8.8989   20.2392 C   0  0  0  0  0  0  0  0  0  0  0  0
   49.2108   10.4141   16.9741 C   0  0  0  0  0  0  0  0  0  0  0  0
   48.9229    9.2661   19.0823 C   0  0  0  0  0  0  0  0  0  0  0  0
   48.3904   10.0390   18.1271 C   0  0  0  0  0  0  0  0  0  0  0  0
   46.9525    9.2185   20.4574 O   0  0  0  0  0  0  0  0  0  0  0  0
   50.3657   10.1026   16.7596 O   0  0  0  0  0  0  0  0  0  0  0  0
   48.5062   11.1849   16.1330 O   0  0  0  0  0  0  0  0  0  0  0  0
   48.8076    8.1238   21.0780 O   0  0  0  0  0  0  0  0  0  0  0  0
   48.7365   14.0850   18.0774 C   0  0  0  0  0  0  0  0  0  0  0  0
   48.2818   13.3400   17.0108 C   0  0  0  0  0  0  0  0  0  0  0  0
   48.1463   11.9949   17.0335 N   0  0  0  0  0  0  0  0  0  0  0  0
   48.4715   11.3102   18.1544 C   0  0  0  0  0  0  0  0  0  0  0  0
   48.9296   12.0114   19.2713 C   0  0  0  0  0  0  0  0  0  0  0  0
   49.0640   13.4018   19.2340 C   0  0  0  0  0  0  0  0  0  0  0  0
   48.3170    9.9362   18.1440 N   0  0  0  0  0  0  0  0  0  0  0  0
   47.9194    9.2841   16.8900 C   0  0  0  0  0  0  0  0  0  0  0  0
   48.7787    9.0691   19.2298 C   0  0  0  0  0  0  0  0  0  0  0  0
   47.6805    8.9026   20.3057 C   0  0  0  0  0  0  0  0  0  0  0  0
   48.1333    8.2065   21.5293 N   0  0  0  0  0  0  0  0  0  0  0  0
   48.4688    6.8061   21.2617 C   0  0  0  0  0  0  0  0  0  0  0  0
   47.0901    8.2791   22.5578 C   0  0  0  0  0  0  0  0  0  0  0  0
   49.0617    8.7968   16.0302 C   0  0  0  0  0  0  0  0  0  0  0  0
   50.1584    9.5054   15.5783 C   0  0  0  0  0  0  0  0  0  0  0  0
   51.0391    8.7069   14.7931 C   0  0  0  0  0  0  0  0  0  0  0  0
   50.5786    7.4170   14.6594 C   0  0  0  0  0  0  0  0  0  0  0  0
   49.0993    7.1723   15.4816 S   0  0  0  0  0  0  0  0  0  0  0  0
   48.1032    9.6868   19.1648 N   0  0  0  0  0  0  0  0  0  0  0  0
   47.8009   10.9642   19.6981 C   0  0  0  0  0  0  0  0  0  0  0  0
   48.0960    7.2779   19.8767 C   0  0  0  0  0  0  0  0  0  0  0  0
   49.1721    6.1146   20.5321 S   0  0  0  0  0  0  0  0  0  0  0  0
   48.1966    8.7277   20.2877 C   0  0  0  0  0  0  0  0  0  0  0  0
   48.7825   11.8626   19.9291 N   0  0  0  0  0  0  0  0  0  0  0  0
   48.4445    4.8485   19.6450 C   0  0  0  0  0  0  0  0  0  0  0  0
   47.1989    6.6978   19.0009 C   0  0  0  0  0  0  0  0  0  0  0  0
   49.3197    9.7070   18.3160 C   0  0  0  0  0  0  0  0  0  0  0  0
   47.4020    5.2952   18.8643 C   0  0  0  0  0  0  0  0  0  0  0  0
   50.1496   10.4279   15.9678 N   0  0  0  0  0  0  0  0  0  0  0  0
   49.0921   10.4936   16.9989 C   0  0  0  0  0  0  0  0  0  0  0  0
   46.4649   11.2596   19.9744 C   0  0  0  0  0  0  0  0  0  0  0  0
   48.4321   13.0649   20.4378 C   0  0  0  0  0  0  0  0  0  0  0  0
   51.4340   10.9215   16.4603 C   0  0  0  0  0  0  0  0  0  0  0  0
   50.2876    9.0902   15.3946 C   0  0  0  0  0  0  0  0  0  0  0  0
   46.1281   12.5030   20.5028 C   0  0  0  0  0  0  0  0  0  0  0  0
   47.1319   13.4279   20.7426 C   0  0  0  0  0  0  0  0  0  0  0  0
   49.2972   10.4557   16.9887 C   0  0  0  0  0  0  0  0  0  0  0  0
   48.0170    8.8550   20.2232 C   0  0  0  0  0  0  0  0  0  0  0  0
   49.2107    9.6857   18.2314 C   0  0  0  0  0  0  0  0  0  0  0  0
   48.1017    9.6272   18.9812 C   0  0  0  0  0  0  0  0  0  0  0  0
   50.2910   10.5228   16.2894 O   0  0  0  0  0  0  0  0  0  0  0  0
   47.0236    8.7833   20.9236 O   0  0  0  0  0  0  0  0  0  0  0  0
   49.1510    8.2141   20.5425 O   0  0  0  0  0  0  0  0  0  0  0  0
   48.1642   11.0957   16.6666 O   0  0  0  0  0  0  0  0  0  0  0  0
   48.5040    9.0519   20.3928 C   0  0  0  0  0  0  0  0  0  0  0  0
   48.9482   10.2874   16.8665 C   0  0  0  0  0  0  0  0  0  0  0  0
   48.2303    9.4249   19.0047 C   0  0  0  0  0  0  0  0  0  0  0  0
   49.2244    9.9140   18.2533 C   0  0  0  0  0  0  0  0  0  0  0  0
   49.5628    9.1338   20.9827 O   0  0  0  0  0  0  0  0  0  0  0  0
   47.8856   10.2146   16.2809 O   0  0  0  0  0  0  0  0  0  0  0  0
   50.0641   10.7440   16.2809 O   0  0  0  0  0  0  0  0  0  0  0  0
   47.3918    8.5841   20.9767 O   0  0  0  0  0  0  0  0  0  0  0  0
   49.9412    8.8966   19.0424 H   0  0  0  0  0  0  0  0  0  0  0  0
   47.3713   10.4065   18.1653 H   0  0  0  0  0  0  0  0  0  0  0  0
   49.1313   11.3772   15.4031 H   0  0  0  0  0  0  0  0  0  0  0  0
   48.1813    7.9314   21.8073 H   0  0  0  0  0  0  0  0  0  0  0  0
   48.8294   15.1625   18.0098 H   0  0  0  0  0  0  0  0  0  0  0  0
   48.0037   13.8131   16.0738 H   0  0  0  0  0  0  0  0  0  0  0  0
   49.1866   11.5009   20.1922 H   0  0  0  0  0  0  0  0  0  0  0  0
   49.4200   13.9359   20.1098 H   0  0  0  0  0  0  0  0  0  0  0  0
   47.2676    9.9202   16.2769 H   0  0  0  0  0  0  0  0  0  0  0  0
   47.2778    8.4325   17.1565 H   0  0  0  0  0  0  0  0  0  0  0  0
   49.0324    8.0835   18.8232 H   0  0  0  0  0  0  0  0  0  0  0  0
   49.7087    9.4448   19.6694 H   0  0  0  0  0  0  0  0  0  0  0  0
   47.3301    9.9022   20.5901 H   0  0  0  0  0  0  0  0  0  0  0  0
   46.8157    8.3890   19.8645 H   0  0  0  0  0  0  0  0  0  0  0  0
   48.7639    6.2967   22.1863 H   0  0  0  0  0  0  0  0  0  0  0  0
   49.3245    6.7300   20.5850 H   0  0  0  0  0  0  0  0  0  0  0  0
   47.6285    6.2584   20.8213 H   0  0  0  0  0  0  0  0  0  0  0  0
   46.1587    7.7949   22.2408 H   0  0  0  0  0  0  0  0  0  0  0  0
   46.8674    9.3220   22.8101 H   0  0  0  0  0  0  0  0  0  0  0  0
   47.4298    7.8039   23.4849 H   0  0  0  0  0  0  0  0  0  0  0  0
   50.3175   10.5522   15.8133 H   0  0  0  0  0  0  0  0  0  0  0  0
   51.9589    9.0625   14.3466 H   0  0  0  0  0  0  0  0  0  0  0  0
   51.0385    6.6032   14.1159 H   0  0  0  0  0  0  0  0  0  0  0  0
   47.3801    8.8892   21.0062 H   0  0  0  0  0  0  0  0  0  0  0  0
   49.1298    8.9035   20.8408 H   0  0  0  0  0  0  0  0  0  0  0  0
   48.8160    3.8386   19.7362 H   0  0  0  0  0  0  0  0  0  0  0  0
   46.4373    7.2654   18.4755 H   0  0  0  0  0  0  0  0  0  0  0  0
   49.5671    8.6723   18.0547 H   0  0  0  0  0  0  0  0  0  0  0  0
   50.1869   10.0978   18.8648 H   0  0  0  0  0  0  0  0  0  0  0  0
   46.8153    4.6484   18.2241 H   0  0  0  0  0  0  0  0  0  0  0  0
   48.1466   10.1646   16.5452 H   0  0  0  0  0  0  0  0  0  0  0  0
   48.9314   11.5552   17.2283 H   0  0  0  0  0  0  0  0  0  0  0  0
   45.6931   10.5272   19.7649 H   0  0  0  0  0  0  0  0  0  0  0  0
   49.2568   13.7539   20.6001 H   0  0  0  0  0  0  0  0  0  0  0  0
   51.8734   10.2644   17.2212 H   0  0  0  0  0  0  0  0  0  0  0  0
   52.1503   11.0043   15.6362 H   0  0  0  0  0  0  0  0  0  0  0  0
   51.3296   11.9270   16.8863 H   0  0  0  0  0  0  0  0  0  0  0  0
   50.6600    8.3544   16.1160 H   0  0  0  0  0  0  0  0  0  0  0  0
   49.3267    8.7367   15.0036 H   0  0  0  0  0  0  0  0  0  0  0  0
   50.9791    9.1105   14.5451 H   0  0  0  0  0  0  0  0  0  0  0  0
   45.0890   12.7420   20.7177 H   0  0  0  0  0  0  0  0  0  0  0  0
   46.9095   14.4077   21.1518 H   0  0  0  0  0  0  0  0  0  0  0  0
   50.1208    9.1618   18.5013 H   0  0  0  0  0  0  0  0  0  0  0  0
   47.1913   10.1522   18.7135 H   0  0  0  0  0  0  0  0  0  0  0  0
   48.9345    7.7537   21.3804 H   0  0  0  0  0  0  0  0  0  0  0  0
   48.3829   11.5525   15.8274 H   0  0  0  0  0  0  0  0  0  0  0  0
   47.2203    9.2903   18.6353 H   0  0  0  0  0  0  0  0  0  0  0  0
   50.2333   10.0465   18.6263 H   0  0  0  0  0  0  0  0  0  0  0  0
   49.7827   10.9679   15.3689 H   0  0  0  0  0  0  0  0  0  0  0  0
   47.6693    8.3688   21.8923 H   0  0  0  0  0  0  0  0  0  0  0  0
  2  4  1  0
  3  1  1  0
  4  3  2  0
  5  1  2  0
  6  2  2  0
  7  2  1  0
  8  1  1  0
 15 17  1  0
 12 15  1  0
 17 18  1  0
 11 12  1  0
 18 19  1  0
 15 16  1  0
 19 20  1  0
 19 21  1  0
 16 22  1  0
 23 24  1  0
 12 13  2  0
 10 11  2  0
 13 14  1  0
 22 23  2  0
 24 25  2  0
 25 26  1  0
 26 22  1  0
 14  9  2  0
  9 10  1  0
 28 27  1  0
 29 31  1  0
 30 29  1  0
 31 27  1  0
 32 28  2  0
 33 30  1  0
 34 29  2  0
 35 27  1  0
 36 34  1  0
 37 38  1  0
 38 35  1  0
 39 28  1  0
 40 32  1  0
 41 37  1  0
 42 37  1  0
 43 39  2  0
 44 40  2  0
 36 33  2  0
 43 44  1  0
 46 48  1  0
 47 45  1  0
 48 47  2  0
 49 45  2  0
 50 46  2  0
 51 46  1  0
 52 45  1  0
 54 56  1  0
 55 53  1  0
 56 55  2  0
 57 53  2  0
 58 54  2  0
 59 54  1  0
 60 53  1  0
  3 61  1  0
  4 62  1  0
  7 63  1  0
  8 64  1  0
  9 65  1  0
 10 66  1  0
 13 67  1  0
 14 68  1  0
 16 69  1  0
 16 70  1  0
 17 71  1  0
 17 72  1  0
 18 73  1  0
 18 74  1  0
 20 75  1  0
 20 76  1  0
 20 77  1  0
 21 78  1  0
 21 79  1  0
 21 80  1  0
 23 81  1  0
 24 82  1  0
 25 83  1  0
 31 84  1  0
 31 85  1  0
 33 86  1  0
 34 87  1  0
 35 88  1  0
 35 89  1  0
 36 90  1  0
 38 91  1  0
 38 92  1  0
 39 93  1  0
 40 94  1  0
 41 95  1  0
 41 96  1  0
 41 97  1  0
 42 98  1  0
 42 99  1  0
 42100  1  0
 43101  1  0
 44102  1  0
 47103  1  0
 48104  1  0
 51105  1  0
 52106  1  0
 55107  1  0
 56108  1  0
 59109  1  0
 60110  1  0
M  END
> <Uni-Dock RESULT> 
ENERGY=   -5.795  LOWER_BOUND=    3.943  UPPER_BOUND=    6.782
INTER + INTRA:          -5.795
INTER:                  -5.795
INTRA:                   0.000
UNBOUND:                 0.000

$$$$
