
     RDKit          3D

110109  0  0  0  0  0  0  0  0999 V2000
   48.1485    9.6769   17.5168 C   0  0  0  0  0  0  0  0  0  0  0  0
   48.7524    8.6970   21.1678 C   0  0  0  0  0  0  0  0  0  0  0  0
   48.2547    9.7172   18.9763 C   0  0  0  0  0  0  0  0  0  0  0  0
   48.6242    8.6583   19.7067 C   0  0  0  0  0  0  0  0  0  0  0  0
   47.9682   10.6521   16.8112 O   0  0  0  0  0  0  0  0  0  0  0  0
   49.1707    7.7713   21.8412 O   0  0  0  0  0  0  0  0  0  0  0  0
   48.3512    9.8505   21.7201 O   0  0  0  0  0  0  0  0  0  0  0  0
   48.2531    8.4441   17.0021 O   0  0  0  0  0  0  0  0  0  0  0  0
   49.3567    4.6923   20.8334 C   0  0  0  0  0  0  0  0  0  0  0  0
   49.6940    5.3737   19.6809 C   0  0  0  0  0  0  0  0  0  0  0  0
   49.2784    6.6275   19.3988 N   0  0  0  0  0  0  0  0  0  0  0  0
   48.5129    7.2905   20.3000 C   0  0  0  0  0  0  0  0  0  0  0  0
   48.1304    6.6514   21.4868 C   0  0  0  0  0  0  0  0  0  0  0  0
   48.5449    5.3448   21.7489 C   0  0  0  0  0  0  0  0  0  0  0  0
   48.1432    8.6033   19.9811 N   0  0  0  0  0  0  0  0  0  0  0  0
   47.7037    9.4691   21.0784 C   0  0  0  0  0  0  0  0  0  0  0  0
   47.4048    8.6618   18.7018 C   0  0  0  0  0  0  0  0  0  0  0  0
   47.7942    9.8399   17.7693 C   0  0  0  0  0  0  0  0  0  0  0  0
   49.2054    9.9413   17.3514 N   0  0  0  0  0  0  0  0  0  0  0  0
   49.4417   11.2039   16.6540 C   0  0  0  0  0  0  0  0  0  0  0  0
   49.6092    8.8116   16.5204 C   0  0  0  0  0  0  0  0  0  0  0  0
   47.8242   10.9573   20.8927 C   0  0  0  0  0  0  0  0  0  0  0  0
   46.8135   11.8920   20.7641 C   0  0  0  0  0  0  0  0  0  0  0  0
   47.3190   13.2170   20.6291 C   0  0  0  0  0  0  0  0  0  0  0  0
   48.6953   13.2496   20.6521 C   0  0  0  0  0  0  0  0  0  0  0  0
   49.3736   11.6975   20.8761 S   0  0  0  0  0  0  0  0  0  0  0  0
   48.2275    9.4156   20.1172 N   0  0  0  0  0  0  0  0  0  0  0  0
   48.0472   10.8099   19.9491 C   0  0  0  0  0  0  0  0  0  0  0  0
   47.6645    7.6146   21.7828 C   0  0  0  0  0  0  0  0  0  0  0  0
   48.9801    7.5188   22.8777 S   0  0  0  0  0  0  0  0  0  0  0  0
   47.2933    8.9373   21.1597 C   0  0  0  0  0  0  0  0  0  0  0  0
   47.2861   11.2824   18.9371 N   0  0  0  0  0  0  0  0  0  0  0  0
   48.7536    5.8400   23.1002 C   0  0  0  0  0  0  0  0  0  0  0  0
   47.0624    6.3836   21.6078 C   0  0  0  0  0  0  0  0  0  0  0  0
   48.1255    8.6698   18.8396 C   0  0  0  0  0  0  0  0  0  0  0  0
   47.6985    5.3568   22.3595 C   0  0  0  0  0  0  0  0  0  0  0  0
   49.3624    8.1249   16.6887 N   0  0  0  0  0  0  0  0  0  0  0  0
   49.3358    8.9524   17.9181 C   0  0  0  0  0  0  0  0  0  0  0  0
   48.6719   11.6725   20.8515 C   0  0  0  0  0  0  0  0  0  0  0  0
   47.1342   12.6198   18.8273 C   0  0  0  0  0  0  0  0  0  0  0  0
   50.6602    8.2787   16.0237 C   0  0  0  0  0  0  0  0  0  0  0  0
   48.2901    8.5024   15.7686 C   0  0  0  0  0  0  0  0  0  0  0  0
   48.5080   13.0478   20.7168 C   0  0  0  0  0  0  0  0  0  0  0  0
   47.7189   13.5353   19.6841 C   0  0  0  0  0  0  0  0  0  0  0  0
   49.8568    9.1501   17.8703 C   0  0  0  0  0  0  0  0  0  0  0  0
   47.7859    9.3091   21.0459 C   0  0  0  0  0  0  0  0  0  0  0  0
   49.4173    9.2527   19.2640 C   0  0  0  0  0  0  0  0  0  0  0  0
   48.1280    9.1846   19.6274 C   0  0  0  0  0  0  0  0  0  0  0  0
   51.0169    9.2010   17.5057 O   0  0  0  0  0  0  0  0  0  0  0  0
   48.5488    9.4797   21.9767 O   0  0  0  0  0  0  0  0  0  0  0  0
   46.4591    9.2105   21.2151 O   0  0  0  0  0  0  0  0  0  0  0  0
   48.8539    8.9897   16.9950 O   0  0  0  0  0  0  0  0  0  0  0  0
   48.3805    9.2975   21.3165 C   0  0  0  0  0  0  0  0  0  0  0  0
   48.8013    8.7973   17.5789 C   0  0  0  0  0  0  0  0  0  0  0  0
   48.8325    8.8564   19.9949 C   0  0  0  0  0  0  0  0  0  0  0  0
   48.2891    9.2993   18.8530 C   0  0  0  0  0  0  0  0  0  0  0  0
   48.8326    8.8917   22.3721 O   0  0  0  0  0  0  0  0  0  0  0  0
   49.7087    8.0040   17.4145 O   0  0  0  0  0  0  0  0  0  0  0  0
   48.1157    9.3333   16.5586 O   0  0  0  0  0  0  0  0  0  0  0  0
   47.4019   10.2153   21.2818 O   0  0  0  0  0  0  0  0  0  0  0  0
   48.0358   10.6829   19.4173 H   0  0  0  0  0  0  0  0  0  0  0  0
   48.8679    7.6980   19.2636 H   0  0  0  0  0  0  0  0  0  0  0  0
   48.4883    9.7235   22.6852 H   0  0  0  0  0  0  0  0  0  0  0  0
   48.1437    8.5821   16.0377 H   0  0  0  0  0  0  0  0  0  0  0  0
   49.7164    3.6880   21.0133 H   0  0  0  0  0  0  0  0  0  0  0  0
   50.3319    4.9227   18.9233 H   0  0  0  0  0  0  0  0  0  0  0  0
   47.4873    7.1411   22.2116 H   0  0  0  0  0  0  0  0  0  0  0  0
   48.2398    4.8500   22.6693 H   0  0  0  0  0  0  0  0  0  0  0  0
   46.6606    9.2302   21.3211 H   0  0  0  0  0  0  0  0  0  0  0  0
   48.2847    9.2504   21.9851 H   0  0  0  0  0  0  0  0  0  0  0  0
   47.4886    7.7340   18.1229 H   0  0  0  0  0  0  0  0  0  0  0  0
   46.3314    8.7419   18.9256 H   0  0  0  0  0  0  0  0  0  0  0  0
   47.5066   10.7713   18.2633 H   0  0  0  0  0  0  0  0  0  0  0  0
   47.1499    9.7800   16.8802 H   0  0  0  0  0  0  0  0  0  0  0  0
   49.2277   12.0549   17.3132 H   0  0  0  0  0  0  0  0  0  0  0  0
   50.4920   11.2931   16.3607 H   0  0  0  0  0  0  0  0  0  0  0  0
   48.8223   11.2978   15.7550 H   0  0  0  0  0  0  0  0  0  0  0  0
   49.5322    7.8626   17.0556 H   0  0  0  0  0  0  0  0  0  0  0  0
   49.0131    8.7408   15.6032 H   0  0  0  0  0  0  0  0  0  0  0  0
   50.6611    8.9066   16.2309 H   0  0  0  0  0  0  0  0  0  0  0  0
   45.7598   11.6370   20.7532 H   0  0  0  0  0  0  0  0  0  0  0  0
   46.7051   14.1024   20.5142 H   0  0  0  0  0  0  0  0  0  0  0  0
   49.3428   14.1118   20.5624 H   0  0  0  0  0  0  0  0  0  0  0  0
   46.2781    8.8575   20.7401 H   0  0  0  0  0  0  0  0  0  0  0  0
   47.2077    9.6602   21.9852 H   0  0  0  0  0  0  0  0  0  0  0  0
   49.4101    5.2913   23.7608 H   0  0  0  0  0  0  0  0  0  0  0  0
   46.2075    6.2240   20.9641 H   0  0  0  0  0  0  0  0  0  0  0  0
   48.1284    7.5935   19.0536 H   0  0  0  0  0  0  0  0  0  0  0  0
   47.1722    8.8764   18.3387 H   0  0  0  0  0  0  0  0  0  0  0  0
   47.3963    4.3169   22.3620 H   0  0  0  0  0  0  0  0  0  0  0  0
   49.3898   10.0178   17.6582 H   0  0  0  0  0  0  0  0  0  0  0  0
   50.2372    8.7397   18.5065 H   0  0  0  0  0  0  0  0  0  0  0  0
   49.2940   11.2662   21.6425 H   0  0  0  0  0  0  0  0  0  0  0  0
   46.5075   12.9435   18.0013 H   0  0  0  0  0  0  0  0  0  0  0  0
   50.8708    9.3204   15.7602 H   0  0  0  0  0  0  0  0  0  0  0  0
   51.4690    7.9148   16.6647 H   0  0  0  0  0  0  0  0  0  0  0  0
   50.7006    7.6742   15.1139 H   0  0  0  0  0  0  0  0  0  0  0  0
   48.3275    9.5674   15.5085 H   0  0  0  0  0  0  0  0  0  0  0  0
   47.3057    8.2795   16.1967 H   0  0  0  0  0  0  0  0  0  0  0  0
   48.3563    7.9210   14.8429 H   0  0  0  0  0  0  0  0  0  0  0  0
   48.9974   13.7261   21.4088 H   0  0  0  0  0  0  0  0  0  0  0  0
   47.5676   14.5995   19.5473 H   0  0  0  0  0  0  0  0  0  0  0  0
   50.2178    9.3928   19.9847 H   0  0  0  0  0  0  0  0  0  0  0  0
   47.3111    9.0546   18.9256 H   0  0  0  0  0  0  0  0  0  0  0  0
   46.3312    9.3090   22.1825 H   0  0  0  0  0  0  0  0  0  0  0  0
   49.3108    8.9422   16.1297 H   0  0  0  0  0  0  0  0  0  0  0  0
   49.6423    8.1326   20.0125 H   0  0  0  0  0  0  0  0  0  0  0  0
   47.4731   10.0117   18.8188 H   0  0  0  0  0  0  0  0  0  0  0  0
   48.5290    8.9404   15.7625 H   0  0  0  0  0  0  0  0  0  0  0  0
   47.2276   10.4007   22.2284 H   0  0  0  0  0  0  0  0  0  0  0  0
  2  4  1  0
  3  1  1  0
  4  3  2  0
  5  1  2  0
  6  2  2  0
  7  2  1  0
  8  1  1  0
 15 17  1  0
 12 15  1  0
 17 18  1  0
 11 12  1  0
 18 19  1  0
 15 16  1  0
 19 20  1  0
 19 21  1  0
 16 22  1  0
 23 24  1  0
 12 13  2  0
 10 11  2  0
 13 14  1  0
 22 23  2  0
 24 25  2  0
 25 26  1  0
 26 22  1  0
 14  9  2  0
  9 10  1  0
 28 27  1  0
 29 31  1  0
 30 29  1  0
 31 27  1  0
 32 28  2  0
 33 30  1  0
 34 29  2  0
 35 27  1  0
 36 34  1  0
 37 38  1  0
 38 35  1  0
 39 28  1  0
 40 32  1  0
 41 37  1  0
 42 37  1  0
 43 39  2  0
 44 40  2  0
 36 33  2  0
 43 44  1  0
 46 48  1  0
 47 45  1  0
 48 47  2  0
 49 45  2  0
 50 46  2  0
 51 46  1  0
 52 45  1  0
 54 56  1  0
 55 53  1  0
 56 55  2  0
 57 53  2  0
 58 54  2  0
 59 54  1  0
 60 53  1  0
  3 61  1  0
  4 62  1  0
  7 63  1  0
  8 64  1  0
  9 65  1  0
 10 66  1  0
 13 67  1  0
 14 68  1  0
 16 69  1  0
 16 70  1  0
 17 71  1  0
 17 72  1  0
 18 73  1  0
 18 74  1  0
 20 75  1  0
 20 76  1  0
 20 77  1  0
 21 78  1  0
 21 79  1  0
 21 80  1  0
 23 81  1  0
 24 82  1  0
 25 83  1  0
 31 84  1  0
 31 85  1  0
 33 86  1  0
 34 87  1  0
 35 88  1  0
 35 89  1  0
 36 90  1  0
 38 91  1  0
 38 92  1  0
 39 93  1  0
 40 94  1  0
 41 95  1  0
 41 96  1  0
 41 97  1  0
 42 98  1  0
 42 99  1  0
 42100  1  0
 43101  1  0
 44102  1  0
 47103  1  0
 48104  1  0
 51105  1  0
 52106  1  0
 55107  1  0
 56108  1  0
 59109  1  0
 60110  1  0
M  END
> <Uni-Dock RESULT> 
ENERGY=   -6.563  LOWER_BOUND=    0.000  UPPER_BOUND=    0.000
INTER + INTRA:          -6.563
INTER:                  -6.563
INTRA:                   0.000
UNBOUND:                 0.000

$$$$

     RDKit          3D

110109  0  0  0  0  0  0  0  0999 V2000
   50.9535    4.7542   19.6414 C   0  0  0  0  0  0  0  0  0  0  0  0
   48.3001    7.4892   19.2757 C   0  0  0  0  0  0  0  0  0  0  0  0
   49.7492    5.4916   19.2551 C   0  0  0  0  0  0  0  0  0  0  0  0
   49.4947    6.7367   19.6748 C   0  0  0  0  0  0  0  0  0  0  0  0
   51.2938    3.6889   19.1609 O   0  0  0  0  0  0  0  0  0  0  0  0
   48.0940    8.6524   19.5757 O   0  0  0  0  0  0  0  0  0  0  0  0
   47.4249    6.7787   18.5507 O   0  0  0  0  0  0  0  0  0  0  0  0
   51.6668    5.3528   20.6051 O   0  0  0  0  0  0  0  0  0  0  0  0
   49.6014   10.2345   21.9747 C   0  0  0  0  0  0  0  0  0  0  0  0
   50.6283    9.4562   21.4785 C   0  0  0  0  0  0  0  0  0  0  0  0
   50.4418    8.2740   20.8524 N   0  0  0  0  0  0  0  0  0  0  0  0
   49.1797    7.8198   20.6561 C   0  0  0  0  0  0  0  0  0  0  0  0
   48.0939    8.5603   21.1421 C   0  0  0  0  0  0  0  0  0  0  0  0
   48.3065    9.7657   21.8126 C   0  0  0  0  0  0  0  0  0  0  0  0
   49.0364    6.6105   19.9640 N   0  0  0  0  0  0  0  0  0  0  0  0
   47.7282    6.3197   19.3715 C   0  0  0  0  0  0  0  0  0  0  0  0
   49.7617    5.5125   20.6376 C   0  0  0  0  0  0  0  0  0  0  0  0
   50.5361    4.5564   19.6914 C   0  0  0  0  0  0  0  0  0  0  0  0
   51.5604    5.1499   18.8112 N   0  0  0  0  0  0  0  0  0  0  0  0
   52.0442    4.1595   17.8511 C   0  0  0  0  0  0  0  0  0  0  0  0
   52.6710    5.7136   19.5719 C   0  0  0  0  0  0  0  0  0  0  0  0
   47.6773    5.3609   18.2132 C   0  0  0  0  0  0  0  0  0  0  0  0
   47.1282    4.0928   18.1706 C   0  0  0  0  0  0  0  0  0  0  0  0
   47.2502    3.4958   16.8830 C   0  0  0  0  0  0  0  0  0  0  0  0
   47.8929    4.3225   15.9890 C   0  0  0  0  0  0  0  0  0  0  0  0
   48.3103    5.8257   16.6860 S   0  0  0  0  0  0  0  0  0  0  0  0
   48.8144    6.2121   19.2731 N   0  0  0  0  0  0  0  0  0  0  0  0
   48.6194    5.1385   18.3709 C   0  0  0  0  0  0  0  0  0  0  0  0
   47.4409    7.8083   20.6517 C   0  0  0  0  0  0  0  0  0  0  0  0
   47.1603    9.1925   19.6801 S   0  0  0  0  0  0  0  0  0  0  0  0
   47.5552    6.4462   20.0134 C   0  0  0  0  0  0  0  0  0  0  0  0
   49.0303    3.8922   18.6942 N   0  0  0  0  0  0  0  0  0  0  0  0
   47.1626   10.2253   21.0412 C   0  0  0  0  0  0  0  0  0  0  0  0
   47.5202    8.1387   21.9907 C   0  0  0  0  0  0  0  0  0  0  0  0
   49.9922    6.0114   20.1513 C   0  0  0  0  0  0  0  0  0  0  0  0
   47.3710    9.5357   22.2145 C   0  0  0  0  0  0  0  0  0  0  0  0
   52.5310    6.0793   20.2102 N   0  0  0  0  0  0  0  0  0  0  0  0
   51.3173    6.1270   19.3608 C   0  0  0  0  0  0  0  0  0  0  0  0
   47.9952    5.4032   17.1506 C   0  0  0  0  0  0  0  0  0  0  0  0
   48.8095    2.8997   17.8054 C   0  0  0  0  0  0  0  0  0  0  0  0
   53.7022    6.4525   19.4107 C   0  0  0  0  0  0  0  0  0  0  0  0
   52.7294    4.7481   20.7823 C   0  0  0  0  0  0  0  0  0  0  0  0
   47.7829    4.3676   16.2458 C   0  0  0  0  0  0  0  0  0  0  0  0
   48.1954    3.0849   16.5794 C   0  0  0  0  0  0  0  0  0  0  0  0
   51.5754    6.2955   18.8942 C   0  0  0  0  0  0  0  0  0  0  0  0
   47.8248    6.4556   19.4467 C   0  0  0  0  0  0  0  0  0  0  0  0
   50.1513    6.6302   18.8170 C   0  0  0  0  0  0  0  0  0  0  0  0
   49.2267    6.0637   19.6065 C   0  0  0  0  0  0  0  0  0  0  0  0
   52.4414    6.7939   18.1991 O   0  0  0  0  0  0  0  0  0  0  0  0
   47.3682    7.2565   18.6545 O   0  0  0  0  0  0  0  0  0  0  0  0
   47.0536    5.7926   20.3211 O   0  0  0  0  0  0  0  0  0  0  0  0
   51.8662    5.3688   19.8185 O   0  0  0  0  0  0  0  0  0  0  0  0
   47.8841    6.9538   19.0281 C   0  0  0  0  0  0  0  0  0  0  0  0
   51.3759    5.7382   19.8806 C   0  0  0  0  0  0  0  0  0  0  0  0
   49.3136    6.8757   19.3378 C   0  0  0  0  0  0  0  0  0  0  0  0
   49.9468    5.7183   19.5723 C   0  0  0  0  0  0  0  0  0  0  0  0
   47.2737    7.9908   18.8402 O   0  0  0  0  0  0  0  0  0  0  0  0
   52.1000    6.7137   19.9397 O   0  0  0  0  0  0  0  0  0  0  0  0
   51.8192    4.4935   20.1103 O   0  0  0  0  0  0  0  0  0  0  0  0
   47.2732    5.7607   18.9596 O   0  0  0  0  0  0  0  0  0  0  0  0
   49.0917    4.9575   18.5790 H   0  0  0  0  0  0  0  0  0  0  0  0
   50.1652    7.2814   20.3319 H   0  0  0  0  0  0  0  0  0  0  0  0
   46.6888    7.4042   18.3688 H   0  0  0  0  0  0  0  0  0  0  0  0
   52.4138    4.7373   20.7610 H   0  0  0  0  0  0  0  0  0  0  0  0
   49.8032   11.1756   22.4685 H   0  0  0  0  0  0  0  0  0  0  0  0
   51.6673    9.7672   21.5671 H   0  0  0  0  0  0  0  0  0  0  0  0
   47.0735    8.2058   21.0343 H   0  0  0  0  0  0  0  0  0  0  0  0
   47.4602   10.3342   22.1942 H   0  0  0  0  0  0  0  0  0  0  0  0
   47.0572    5.9533   20.1587 H   0  0  0  0  0  0  0  0  0  0  0  0
   47.2741    7.2453   18.9913 H   0  0  0  0  0  0  0  0  0  0  0  0
   50.4649    5.8744   21.3975 H   0  0  0  0  0  0  0  0  0  0  0  0
   49.0346    4.9164   21.2074 H   0  0  0  0  0  0  0  0  0  0  0  0
   49.8059    4.0277   19.0736 H   0  0  0  0  0  0  0  0  0  0  0  0
   50.9946    3.7773   20.3175 H   0  0  0  0  0  0  0  0  0  0  0  0
   51.2230    3.8057   17.2148 H   0  0  0  0  0  0  0  0  0  0  0  0
   52.7889    4.6011   17.1821 H   0  0  0  0  0  0  0  0  0  0  0  0
   52.4955    3.2935   18.3477 H   0  0  0  0  0  0  0  0  0  0  0  0
   52.3468    6.5243   20.2280 H   0  0  0  0  0  0  0  0  0  0  0  0
   53.1790    4.9573   20.1815 H   0  0  0  0  0  0  0  0  0  0  0  0
   53.4122    6.1542   18.8967 H   0  0  0  0  0  0  0  0  0  0  0  0
   46.6719    3.6087   19.0267 H   0  0  0  0  0  0  0  0  0  0  0  0
   46.8909    2.5065   16.6255 H   0  0  0  0  0  0  0  0  0  0  0  0
   48.1286    4.1268   14.9514 H   0  0  0  0  0  0  0  0  0  0  0  0
   47.4357    5.6790   20.7945 H   0  0  0  0  0  0  0  0  0  0  0  0
   46.6772    6.3311   19.3598 H   0  0  0  0  0  0  0  0  0  0  0  0
   47.0151   11.2881   20.9105 H   0  0  0  0  0  0  0  0  0  0  0  0
   47.6846    7.4122   22.7755 H   0  0  0  0  0  0  0  0  0  0  0  0
   50.0046    6.7977   20.9168 H   0  0  0  0  0  0  0  0  0  0  0  0
   49.9206    5.0614   20.6942 H   0  0  0  0  0  0  0  0  0  0  0  0
   47.4096   10.0122   23.1861 H   0  0  0  0  0  0  0  0  0  0  0  0
   51.3737    5.3602   18.5769 H   0  0  0  0  0  0  0  0  0  0  0  0
   51.2899    7.0912   18.8378 H   0  0  0  0  0  0  0  0  0  0  0  0
   47.6939    6.4174   16.9086 H   0  0  0  0  0  0  0  0  0  0  0  0
   49.1534    1.9185   18.1193 H   0  0  0  0  0  0  0  0  0  0  0  0
   53.8421    5.7942   18.5470 H   0  0  0  0  0  0  0  0  0  0  0  0
   53.6121    7.4813   19.0492 H   0  0  0  0  0  0  0  0  0  0  0  0
   54.6091    6.4247   20.0203 H   0  0  0  0  0  0  0  0  0  0  0  0
   52.7781    3.9715   20.0092 H   0  0  0  0  0  0  0  0  0  0  0  0
   51.9254    4.4959   21.4838 H   0  0  0  0  0  0  0  0  0  0  0  0
   53.6583    4.7138   21.3615 H   0  0  0  0  0  0  0  0  0  0  0  0
   47.3063    4.5663   15.2909 H   0  0  0  0  0  0  0  0  0  0  0  0
   48.0472    2.2531   15.9011 H   0  0  0  0  0  0  0  0  0  0  0  0
   49.8982    7.3728   18.0658 H   0  0  0  0  0  0  0  0  0  0  0  0
   49.4539    5.3137   20.3566 H   0  0  0  0  0  0  0  0  0  0  0  0
   46.1462    6.1153   20.1357 H   0  0  0  0  0  0  0  0  0  0  0  0
   52.8368    5.2625   19.7385 H   0  0  0  0  0  0  0  0  0  0  0  0
   49.8222    7.8350   19.3700 H   0  0  0  0  0  0  0  0  0  0  0  0
   49.4514    4.7545   19.5561 H   0  0  0  0  0  0  0  0  0  0  0  0
   52.7717    4.6128   20.3039 H   0  0  0  0  0  0  0  0  0  0  0  0
   46.3454    5.9903   18.7421 H   0  0  0  0  0  0  0  0  0  0  0  0
  2  4  1  0
  3  1  1  0
  4  3  2  0
  5  1  2  0
  6  2  2  0
  7  2  1  0
  8  1  1  0
 15 17  1  0
 12 15  1  0
 17 18  1  0
 11 12  1  0
 18 19  1  0
 15 16  1  0
 19 20  1  0
 19 21  1  0
 16 22  1  0
 23 24  1  0
 12 13  2  0
 10 11  2  0
 13 14  1  0
 22 23  2  0
 24 25  2  0
 25 26  1  0
 26 22  1  0
 14  9  2  0
  9 10  1  0
 28 27  1  0
 29 31  1  0
 30 29  1  0
 31 27  1  0
 32 28  2  0
 33 30  1  0
 34 29  2  0
 35 27  1  0
 36 34  1  0
 37 38  1  0
 38 35  1  0
 39 28  1  0
 40 32  1  0
 41 37  1  0
 42 37  1  0
 43 39  2  0
 44 40  2  0
 36 33  2  0
 43 44  1  0
 46 48  1  0
 47 45  1  0
 48 47  2  0
 49 45  2  0
 50 46  2  0
 51 46  1  0
 52 45  1  0
 54 56  1  0
 55 53  1  0
 56 55  2  0
 57 53  2  0
 58 54  2  0
 59 54  1  0
 60 53  1  0
  3 61  1  0
  4 62  1  0
  7 63  1  0
  8 64  1  0
  9 65  1  0
 10 66  1  0
 13 67  1  0
 14 68  1  0
 16 69  1  0
 16 70  1  0
 17 71  1  0
 17 72  1  0
 18 73  1  0
 18 74  1  0
 20 75  1  0
 20 76  1  0
 20 77  1  0
 21 78  1  0
 21 79  1  0
 21 80  1  0
 23 81  1  0
 24 82  1  0
 25 83  1  0
 31 84  1  0
 31 85  1  0
 33 86  1  0
 34 87  1  0
 35 88  1  0
 35 89  1  0
 36 90  1  0
 38 91  1  0
 38 92  1  0
 39 93  1  0
 40 94  1  0
 41 95  1  0
 41 96  1  0
 41 97  1  0
 42 98  1  0
 42 99  1  0
 42100  1  0
 43101  1  0
 44102  1  0
 47103  1  0
 48104  1  0
 51105  1  0
 52106  1  0
 55107  1  0
 56108  1  0
 59109  1  0
 60110  1  0
M  END
> <Uni-Dock RESULT> 
ENERGY=   -6.157  LOWER_BOUND=    2.678  UPPER_BOUND=    5.455
INTER + INTRA:          -6.157
INTER:                  -6.157
INTRA:                   0.000
UNBOUND:                 0.000

$$$$

     RDKit          3D

110109  0  0  0  0  0  0  0  0999 V2000
   48.2431    8.9000   14.0606 C   0  0  0  0  0  0  0  0  0  0  0  0
   50.2210    6.4420   16.2287 C   0  0  0  0  0  0  0  0  0  0  0  0
   49.2886    8.2890   14.8833 C   0  0  0  0  0  0  0  0  0  0  0  0
   49.1693    7.0689   15.4201 C   0  0  0  0  0  0  0  0  0  0  0  0
   48.3762    9.9338   13.4319 O   0  0  0  0  0  0  0  0  0  0  0  0
   50.1675    5.3004   16.6521 O   0  0  0  0  0  0  0  0  0  0  0  0
   51.2635    7.2446   16.4846 O   0  0  0  0  0  0  0  0  0  0  0  0
   47.0877    8.2213   14.0647 O   0  0  0  0  0  0  0  0  0  0  0  0
   47.4483    3.5454   16.8894 C   0  0  0  0  0  0  0  0  0  0  0  0
   47.2269    4.2268   15.7090 C   0  0  0  0  0  0  0  0  0  0  0  0
   47.7687    5.4302   15.4216 N   0  0  0  0  0  0  0  0  0  0  0  0
   48.6107    6.0080   16.3132 C   0  0  0  0  0  0  0  0  0  0  0  0
   48.8711    5.3701   17.5333 C   0  0  0  0  0  0  0  0  0  0  0  0
   48.2796    4.1404   17.8262 C   0  0  0  0  0  0  0  0  0  0  0  0
   49.1807    7.2350   15.9511 N   0  0  0  0  0  0  0  0  0  0  0  0
   50.3859    7.6602   16.6678 C   0  0  0  0  0  0  0  0  0  0  0  0
   48.1442    8.2476   15.6582 C   0  0  0  0  0  0  0  0  0  0  0  0
   48.4238    9.1369   14.4171 C   0  0  0  0  0  0  0  0  0  0  0  0
   48.6117    8.4588   13.1205 N   0  0  0  0  0  0  0  0  0  0  0  0
   49.0641    9.4107   12.1077 C   0  0  0  0  0  0  0  0  0  0  0  0
   47.3974    7.7789   12.6811 C   0  0  0  0  0  0  0  0  0  0  0  0
   51.3048    8.6356   15.9835 C   0  0  0  0  0  0  0  0  0  0  0  0
   51.5643    9.9517   16.3183 C   0  0  0  0  0  0  0  0  0  0  0  0
   52.5164   10.5520   15.4451 C   0  0  0  0  0  0  0  0  0  0  0  0
   52.9461    9.6792   14.4708 C   0  0  0  0  0  0  0  0  0  0  0  0
   52.2373    8.1328   14.6321 S   0  0  0  0  0  0  0  0  0  0  0  0
   49.8482    7.6629   15.7128 N   0  0  0  0  0  0  0  0  0  0  0  0
   50.6296    8.7629   15.2837 C   0  0  0  0  0  0  0  0  0  0  0  0
   49.5926    6.1889   17.7369 C   0  0  0  0  0  0  0  0  0  0  0  0
   50.6433    4.8524   17.5166 S   0  0  0  0  0  0  0  0  0  0  0  0
   49.9630    7.5422   17.1827 C   0  0  0  0  0  0  0  0  0  0  0  0
   50.0487    9.9586   15.0395 N   0  0  0  0  0  0  0  0  0  0  0  0
   49.5898    3.8053   18.3610 C   0  0  0  0  0  0  0  0  0  0  0  0
   48.4670    5.8336   18.4547 C   0  0  0  0  0  0  0  0  0  0  0  0
   48.4482    7.7354   15.2294 C   0  0  0  0  0  0  0  0  0  0  0  0
   48.4599    4.4547   18.8050 C   0  0  0  0  0  0  0  0  0  0  0  0
   46.9749    7.4196   13.1843 N   0  0  0  0  0  0  0  0  0  0  0  0
   48.3611    7.5024   13.7023 C   0  0  0  0  0  0  0  0  0  0  0  0
   52.0038    8.5774   15.1235 C   0  0  0  0  0  0  0  0  0  0  0  0
   50.8389   10.9802   14.6451 C   0  0  0  0  0  0  0  0  0  0  0  0
   46.9989    6.9454   11.7969 C   0  0  0  0  0  0  0  0  0  0  0  0
   46.3030    8.7171   13.2494 C   0  0  0  0  0  0  0  0  0  0  0  0
   52.7995    9.6414   14.7098 C   0  0  0  0  0  0  0  0  0  0  0  0
   52.2068   10.8731   14.4676 C   0  0  0  0  0  0  0  0  0  0  0  0
   48.6114    7.3161   13.2382 C   0  0  0  0  0  0  0  0  0  0  0  0
   50.2787    7.5146   16.6409 C   0  0  0  0  0  0  0  0  0  0  0  0
   49.4991    7.1229   14.3873 C   0  0  0  0  0  0  0  0  0  0  0  0
   49.3315    7.7657   15.5526 C   0  0  0  0  0  0  0  0  0  0  0  0
   48.7296    6.7456   12.1696 O   0  0  0  0  0  0  0  0  0  0  0  0
   51.2418    6.7732   16.6246 O   0  0  0  0  0  0  0  0  0  0  0  0
   49.9484    8.2372   17.7215 O   0  0  0  0  0  0  0  0  0  0  0  0
   47.6244    8.1970   13.4564 O   0  0  0  0  0  0  0  0  0  0  0  0
   50.6234    7.0189   16.3911 C   0  0  0  0  0  0  0  0  0  0  0  0
   47.8740    7.8763   13.9207 C   0  0  0  0  0  0  0  0  0  0  0  0
   49.5582    6.9530   15.3878 C   0  0  0  0  0  0  0  0  0  0  0  0
   48.9312    8.0397   14.9174 C   0  0  0  0  0  0  0  0  0  0  0  0
   51.1910    6.0490   16.8605 O   0  0  0  0  0  0  0  0  0  0  0  0
   47.4827    6.8342   13.4305 O   0  0  0  0  0  0  0  0  0  0  0  0
   47.3520    9.0685   13.5970 O   0  0  0  0  0  0  0  0  0  0  0  0
   50.9441    8.2667   16.7672 O   0  0  0  0  0  0  0  0  0  0  0  0
   50.1801    8.8941   15.0010 H   0  0  0  0  0  0  0  0  0  0  0  0
   48.2869    6.4523   15.2818 H   0  0  0  0  0  0  0  0  0  0  0  0
   51.8696    6.6964   17.0309 H   0  0  0  0  0  0  0  0  0  0  0  0
   46.4975    8.7588   13.4955 H   0  0  0  0  0  0  0  0  0  0  0  0
   46.9907    2.5822   17.0717 H   0  0  0  0  0  0  0  0  0  0  0  0
   46.5897    3.8148   14.9290 H   0  0  0  0  0  0  0  0  0  0  0  0
   49.5109    5.8238   18.2840 H   0  0  0  0  0  0  0  0  0  0  0  0
   48.4797    3.6518   18.7782 H   0  0  0  0  0  0  0  0  0  0  0  0
   50.0908    8.0792   17.6380 H   0  0  0  0  0  0  0  0  0  0  0  0
   51.0166    6.7888   16.8919 H   0  0  0  0  0  0  0  0  0  0  0  0
   47.1465    7.8082   15.5380 H   0  0  0  0  0  0  0  0  0  0  0  0
   48.0444    8.9036   16.5347 H   0  0  0  0  0  0  0  0  0  0  0  0
   49.3084    9.7428   14.6279 H   0  0  0  0  0  0  0  0  0  0  0  0
   47.5978    9.8587   14.3394 H   0  0  0  0  0  0  0  0  0  0  0  0
   50.0269    9.8518   12.3953 H   0  0  0  0  0  0  0  0  0  0  0  0
   49.2253    8.9081   11.1493 H   0  0  0  0  0  0  0  0  0  0  0  0
   48.3430   10.2216   11.9561 H   0  0  0  0  0  0  0  0  0  0  0  0
   47.0935    6.9945   13.3777 H   0  0  0  0  0  0  0  0  0  0  0  0
   46.5588    8.4735   12.5550 H   0  0  0  0  0  0  0  0  0  0  0  0
   47.5656    7.2777   11.7220 H   0  0  0  0  0  0  0  0  0  0  0  0
   51.0837   10.4658   17.1430 H   0  0  0  0  0  0  0  0  0  0  0  0
   52.8648   11.5751   15.5225 H   0  0  0  0  0  0  0  0  0  0  0  0
   53.6551    9.8656   13.6751 H   0  0  0  0  0  0  0  0  0  0  0  0
   49.3357    8.3064   17.6679 H   0  0  0  0  0  0  0  0  0  0  0  0
   50.9881    7.7515   17.5244 H   0  0  0  0  0  0  0  0  0  0  0  0
   49.8515    2.7639   18.4848 H   0  0  0  0  0  0  0  0  0  0  0  0
   47.6795    6.5295   18.7120 H   0  0  0  0  0  0  0  0  0  0  0  0
   47.8633    6.9411   15.7101 H   0  0  0  0  0  0  0  0  0  0  0  0
   47.9779    8.6802   15.5272 H   0  0  0  0  0  0  0  0  0  0  0  0
   47.6696    3.9631   19.3586 H   0  0  0  0  0  0  0  0  0  0  0  0
   48.9238    8.2710   13.1562 H   0  0  0  0  0  0  0  0  0  0  0  0
   48.8717    6.5529   13.4981 H   0  0  0  0  0  0  0  0  0  0  0  0
   52.4405    7.6010   15.3070 H   0  0  0  0  0  0  0  0  0  0  0  0
   50.3211   11.9188   14.4698 H   0  0  0  0  0  0  0  0  0  0  0  0
   47.5876    7.5990   11.1449 H   0  0  0  0  0  0  0  0  0  0  0  0
   47.4160    5.9354   11.7404 H   0  0  0  0  0  0  0  0  0  0  0  0
   45.9843    6.8761   11.3962 H   0  0  0  0  0  0  0  0  0  0  0  0
   46.8605    9.4960   12.7150 H   0  0  0  0  0  0  0  0  0  0  0  0
   46.1610    9.0365   14.2886 H   0  0  0  0  0  0  0  0  0  0  0  0
   45.3006    8.6525   12.8129 H   0  0  0  0  0  0  0  0  0  0  0  0
   53.8677    9.5035   14.5741 H   0  0  0  0  0  0  0  0  0  0  0  0
   52.7935   11.7248   14.1446 H   0  0  0  0  0  0  0  0  0  0  0  0
   50.3100    6.4191   14.2230 H   0  0  0  0  0  0  0  0  0  0  0  0
   48.5357    8.4793   15.7370 H   0  0  0  0  0  0  0  0  0  0  0  0
   50.6335    8.0071   18.3844 H   0  0  0  0  0  0  0  0  0  0  0  0
   47.1367    8.2093   12.6069 H   0  0  0  0  0  0  0  0  0  0  0  0
   49.3093    5.9483   15.0580 H   0  0  0  0  0  0  0  0  0  0  0  0
   49.1592    9.0473   15.2449 H   0  0  0  0  0  0  0  0  0  0  0  0
   46.6642    8.8542   12.9337 H   0  0  0  0  0  0  0  0  0  0  0  0
   51.6610    8.1317   17.4220 H   0  0  0  0  0  0  0  0  0  0  0  0
  2  4  1  0
  3  1  1  0
  4  3  2  0
  5  1  2  0
  6  2  2  0
  7  2  1  0
  8  1  1  0
 15 17  1  0
 12 15  1  0
 17 18  1  0
 11 12  1  0
 18 19  1  0
 15 16  1  0
 19 20  1  0
 19 21  1  0
 16 22  1  0
 23 24  1  0
 12 13  2  0
 10 11  2  0
 13 14  1  0
 22 23  2  0
 24 25  2  0
 25 26  1  0
 26 22  1  0
 14  9  2  0
  9 10  1  0
 28 27  1  0
 29 31  1  0
 30 29  1  0
 31 27  1  0
 32 28  2  0
 33 30  1  0
 34 29  2  0
 35 27  1  0
 36 34  1  0
 37 38  1  0
 38 35  1  0
 39 28  1  0
 40 32  1  0
 41 37  1  0
 42 37  1  0
 43 39  2  0
 44 40  2  0
 36 33  2  0
 43 44  1  0
 46 48  1  0
 47 45  1  0
 48 47  2  0
 49 45  2  0
 50 46  2  0
 51 46  1  0
 52 45  1  0
 54 56  1  0
 55 53  1  0
 56 55  2  0
 57 53  2  0
 58 54  2  0
 59 54  1  0
 60 53  1  0
  3 61  1  0
  4 62  1  0
  7 63  1  0
  8 64  1  0
  9 65  1  0
 10 66  1  0
 13 67  1  0
 14 68  1  0
 16 69  1  0
 16 70  1  0
 17 71  1  0
 17 72  1  0
 18 73  1  0
 18 74  1  0
 20 75  1  0
 20 76  1  0
 20 77  1  0
 21 78  1  0
 21 79  1  0
 21 80  1  0
 23 81  1  0
 24 82  1  0
 25 83  1  0
 31 84  1  0
 31 85  1  0
 33 86  1  0
 34 87  1  0
 35 88  1  0
 35 89  1  0
 36 90  1  0
 38 91  1  0
 38 92  1  0
 39 93  1  0
 40 94  1  0
 41 95  1  0
 41 96  1  0
 41 97  1  0
 42 98  1  0
 42 99  1  0
 42100  1  0
 43101  1  0
 44102  1  0
 47103  1  0
 48104  1  0
 51105  1  0
 52106  1  0
 55107  1  0
 56108  1  0
 59109  1  0
 60110  1  0
M  END
> <Uni-Dock RESULT> 
ENERGY=   -6.126  LOWER_BOUND=    3.987  UPPER_BOUND=    5.277
INTER + INTRA:          -6.126
INTER:                  -6.126
INTRA:                   0.000
UNBOUND:                 0.000

$$$$

     RDKit          3D

110109  0  0  0  0  0  0  0  0999 V2000
   49.7054    4.9376   18.0405 C   0  0  0  0  0  0  0  0  0  0  0  0
   48.5456    8.0285   16.1024 C   0  0  0  0  0  0  0  0  0  0  0  0
   49.4387    6.3218   17.6454 C   0  0  0  0  0  0  0  0  0  0  0  0
   48.8343    6.6448   16.4958 C   0  0  0  0  0  0  0  0  0  0  0  0
   50.1087    4.5992   19.1380 O   0  0  0  0  0  0  0  0  0  0  0  0
   47.9195    8.3379   15.1036 O   0  0  0  0  0  0  0  0  0  0  0  0
   49.0472    8.9488   16.9378 O   0  0  0  0  0  0  0  0  0  0  0  0
   49.4789    4.0453   17.0668 O   0  0  0  0  0  0  0  0  0  0  0  0
   47.3958    6.3761   12.5722 C   0  0  0  0  0  0  0  0  0  0  0  0
   47.2987    5.4885   13.6254 C   0  0  0  0  0  0  0  0  0  0  0  0
   47.9256    5.6548   14.8102 N   0  0  0  0  0  0  0  0  0  0  0  0
   48.6720    6.7678   15.0146 C   0  0  0  0  0  0  0  0  0  0  0  0
   48.8158    7.7043   13.9823 C   0  0  0  0  0  0  0  0  0  0  0  0
   48.1844    7.5021   12.7542 C   0  0  0  0  0  0  0  0  0  0  0  0
   49.2668    6.9156   16.2740 N   0  0  0  0  0  0  0  0  0  0  0  0
   49.7006    8.2594   16.6652 C   0  0  0  0  0  0  0  0  0  0  0  0
   50.1484    5.7727   16.5934 C   0  0  0  0  0  0  0  0  0  0  0  0
   50.0484    5.2508   18.0517 C   0  0  0  0  0  0  0  0  0  0  0  0
   48.7257    4.8020   18.5264 N   0  0  0  0  0  0  0  0  0  0  0  0
   48.7616    4.5388   19.9638 C   0  0  0  0  0  0  0  0  0  0  0  0
   48.2572    3.6262   17.8001 C   0  0  0  0  0  0  0  0  0  0  0  0
   49.8247    8.5596   18.1342 C   0  0  0  0  0  0  0  0  0  0  0  0
   50.9710    8.8039   18.8677 C   0  0  0  0  0  0  0  0  0  0  0  0
   50.6869    9.0752   20.2370 C   0  0  0  0  0  0  0  0  0  0  0  0
   49.3373    9.0224   20.5048 C   0  0  0  0  0  0  0  0  0  0  0  0
   48.4147    8.6884   19.1060 S   0  0  0  0  0  0  0  0  0  0  0  0
   49.2891    7.3025   17.0057 N   0  0  0  0  0  0  0  0  0  0  0  0
   49.6926    7.6073   18.3281 C   0  0  0  0  0  0  0  0  0  0  0  0
   49.3823    8.3250   14.7077 C   0  0  0  0  0  0  0  0  0  0  0  0
   47.9496    9.2460   14.5130 S   0  0  0  0  0  0  0  0  0  0  0  0
   50.0153    8.1890   16.0703 C   0  0  0  0  0  0  0  0  0  0  0  0
   50.6270    6.8525   18.9476 N   0  0  0  0  0  0  0  0  0  0  0  0
   47.8971    8.9254   12.8356 C   0  0  0  0  0  0  0  0  0  0  0  0
   49.8110    7.7976   13.5050 C   0  0  0  0  0  0  0  0  0  0  0  0
   49.4258    5.8609   16.6863 C   0  0  0  0  0  0  0  0  0  0  0  0
   48.9471    8.1347   12.4261 C   0  0  0  0  0  0  0  0  0  0  0  0
   48.3782    3.5774   17.0627 N   0  0  0  0  0  0  0  0  0  0  0  0
   48.3853    5.0080   17.4505 C   0  0  0  0  0  0  0  0  0  0  0  0
   49.1031    8.7004   18.9657 C   0  0  0  0  0  0  0  0  0  0  0  0
   50.9875    7.1921   20.2039 C   0  0  0  0  0  0  0  0  0  0  0  0
   47.2031    2.9195   17.6426 C   0  0  0  0  0  0  0  0  0  0  0  0
   49.5935    2.8977   17.5096 C   0  0  0  0  0  0  0  0  0  0  0  0
   49.4839    9.0296   20.2630 C   0  0  0  0  0  0  0  0  0  0  0  0
   50.4504    8.2618   20.8979 C   0  0  0  0  0  0  0  0  0  0  0  0
   47.9086    4.9949   17.7425 C   0  0  0  0  0  0  0  0  0  0  0  0
   49.5998    8.1717   16.5403 C   0  0  0  0  0  0  0  0  0  0  0  0
   48.1947    6.3707   17.3290 C   0  0  0  0  0  0  0  0  0  0  0  0
   49.4090    6.7713   16.9238 C   0  0  0  0  0  0  0  0  0  0  0  0
   46.8188    4.5956   18.1090 O   0  0  0  0  0  0  0  0  0  0  0  0
   48.7685    9.0585   16.5472 O   0  0  0  0  0  0  0  0  0  0  0  0
   50.8688    8.3815   16.1602 O   0  0  0  0  0  0  0  0  0  0  0  0
   48.9707    4.1786   17.6854 O   0  0  0  0  0  0  0  0  0  0  0  0
   48.9828    8.3867   16.5514 C   0  0  0  0  0  0  0  0  0  0  0  0
   48.9264    4.6705   17.3156 C   0  0  0  0  0  0  0  0  0  0  0  0
   48.6259    6.9682   16.6286 C   0  0  0  0  0  0  0  0  0  0  0  0
   49.3571    6.0677   17.2993 C   0  0  0  0  0  0  0  0  0  0  0  0
   48.3568    9.2234   15.9258 O   0  0  0  0  0  0  0  0  0  0  0  0
   47.9364    4.2019   16.7866 O   0  0  0  0  0  0  0  0  0  0  0  0
   49.7971    3.9237   18.0104 O   0  0  0  0  0  0  0  0  0  0  0  0
   50.0844    8.7122   17.2457 O   0  0  0  0  0  0  0  0  0  0  0  0
   49.7463    7.0648   18.3721 H   0  0  0  0  0  0  0  0  0  0  0  0
   48.5034    5.8999   15.7791 H   0  0  0  0  0  0  0  0  0  0  0  0
   48.7824    9.8101   16.5448 H   0  0  0  0  0  0  0  0  0  0  0  0
   49.7181    3.1866   17.4748 H   0  0  0  0  0  0  0  0  0  0  0  0
   46.8726    6.1978   11.6423 H   0  0  0  0  0  0  0  0  0  0  0  0
   46.6926    4.5877   13.5519 H   0  0  0  0  0  0  0  0  0  0  0  0
   49.4366    8.5870   14.1012 H   0  0  0  0  0  0  0  0  0  0  0  0
   48.3044    8.2292   11.9529 H   0  0  0  0  0  0  0  0  0  0  0  0
   50.6616    8.4754   16.1815 H   0  0  0  0  0  0  0  0  0  0  0  0
   48.9929    9.0084   16.2834 H   0  0  0  0  0  0  0  0  0  0  0  0
   49.9950    4.9201   15.9208 H   0  0  0  0  0  0  0  0  0  0  0  0
   51.1887    6.0763   16.4084 H   0  0  0  0  0  0  0  0  0  0  0  0
   50.4123    6.0370   18.7178 H   0  0  0  0  0  0  0  0  0  0  0  0
   50.7750    4.4320   18.1565 H   0  0  0  0  0  0  0  0  0  0  0  0
   49.0221    5.4503   20.5167 H   0  0  0  0  0  0  0  0  0  0  0  0
   47.7772    4.2260   20.3244 H   0  0  0  0  0  0  0  0  0  0  0  0
   49.4876    3.7590   20.2197 H   0  0  0  0  0  0  0  0  0  0  0  0
   48.1301    3.8282   16.7343 H   0  0  0  0  0  0  0  0  0  0  0  0
   48.9379    2.7743   17.9119 H   0  0  0  0  0  0  0  0  0  0  0  0
   47.2716    3.3188   18.1653 H   0  0  0  0  0  0  0  0  0  0  0  0
   51.9693    8.7760   18.4457 H   0  0  0  0  0  0  0  0  0  0  0  0
   51.4346    9.2919   20.9906 H   0  0  0  0  0  0  0  0  0  0  0  0
   48.8398    9.1775   21.4530 H   0  0  0  0  0  0  0  0  0  0  0  0
   51.0489    7.8297   15.9453 H   0  0  0  0  0  0  0  0  0  0  0  0
   50.1115    9.2080   16.4749 H   0  0  0  0  0  0  0  0  0  0  0  0
   47.0946    9.3303   12.2353 H   0  0  0  0  0  0  0  0  0  0  0  0
   50.7013    7.1910   13.4034 H   0  0  0  0  0  0  0  0  0  0  0  0
   49.2384    5.7135   15.6151 H   0  0  0  0  0  0  0  0  0  0  0  0
   50.4506    5.5140   16.8650 H   0  0  0  0  0  0  0  0  0  0  0  0
   49.0892    7.8183   11.4003 H   0  0  0  0  0  0  0  0  0  0  0  0
   48.5206    5.1050   18.5358 H   0  0  0  0  0  0  0  0  0  0  0  0
   47.4006    5.4387   17.2298 H   0  0  0  0  0  0  0  0  0  0  0  0
   48.3404    9.2767   18.4518 H   0  0  0  0  0  0  0  0  0  0  0  0
   51.7464    6.5563   20.6507 H   0  0  0  0  0  0  0  0  0  0  0  0
   47.1814    2.9957   18.7347 H   0  0  0  0  0  0  0  0  0  0  0  0
   46.2807    3.3565   17.2480 H   0  0  0  0  0  0  0  0  0  0  0  0
   47.1786    1.8621   17.3668 H   0  0  0  0  0  0  0  0  0  0  0  0
   49.7450    2.9955   18.5916 H   0  0  0  0  0  0  0  0  0  0  0  0
   50.4779    3.2903   16.9940 H   0  0  0  0  0  0  0  0  0  0  0  0
   49.5490    1.8312   17.2648 H   0  0  0  0  0  0  0  0  0  0  0  0
   49.0241    9.8726   20.7694 H   0  0  0  0  0  0  0  0  0  0  0  0
   50.7728    8.4873   21.9074 H   0  0  0  0  0  0  0  0  0  0  0  0
   47.3461    7.0470   17.3789 H   0  0  0  0  0  0  0  0  0  0  0  0
   50.2729    6.1172   16.8745 H   0  0  0  0  0  0  0  0  0  0  0  0
   50.8974    9.3344   15.9300 H   0  0  0  0  0  0  0  0  0  0  0  0
   48.6147    3.3182   17.9900 H   0  0  0  0  0  0  0  0  0  0  0  0
   47.7209    6.6999   16.0908 H   0  0  0  0  0  0  0  0  0  0  0  0
   50.2683    6.3169   17.8304 H   0  0  0  0  0  0  0  0  0  0  0  0
   49.4246    3.0193   17.9631 H   0  0  0  0  0  0  0  0  0  0  0  0
   50.1739    9.6765   17.0949 H   0  0  0  0  0  0  0  0  0  0  0  0
  2  4  1  0
  3  1  1  0
  4  3  2  0
  5  1  2  0
  6  2  2  0
  7  2  1  0
  8  1  1  0
 15 17  1  0
 12 15  1  0
 17 18  1  0
 11 12  1  0
 18 19  1  0
 15 16  1  0
 19 20  1  0
 19 21  1  0
 16 22  1  0
 23 24  1  0
 12 13  2  0
 10 11  2  0
 13 14  1  0
 22 23  2  0
 24 25  2  0
 25 26  1  0
 26 22  1  0
 14  9  2  0
  9 10  1  0
 28 27  1  0
 29 31  1  0
 30 29  1  0
 31 27  1  0
 32 28  2  0
 33 30  1  0
 34 29  2  0
 35 27  1  0
 36 34  1  0
 37 38  1  0
 38 35  1  0
 39 28  1  0
 40 32  1  0
 41 37  1  0
 42 37  1  0
 43 39  2  0
 44 40  2  0
 36 33  2  0
 43 44  1  0
 46 48  1  0
 47 45  1  0
 48 47  2  0
 49 45  2  0
 50 46  2  0
 51 46  1  0
 52 45  1  0
 54 56  1  0
 55 53  1  0
 56 55  2  0
 57 53  2  0
 58 54  2  0
 59 54  1  0
 60 53  1  0
  3 61  1  0
  4 62  1  0
  7 63  1  0
  8 64  1  0
  9 65  1  0
 10 66  1  0
 13 67  1  0
 14 68  1  0
 16 69  1  0
 16 70  1  0
 17 71  1  0
 17 72  1  0
 18 73  1  0
 18 74  1  0
 20 75  1  0
 20 76  1  0
 20 77  1  0
 21 78  1  0
 21 79  1  0
 21 80  1  0
 23 81  1  0
 24 82  1  0
 25 83  1  0
 31 84  1  0
 31 85  1  0
 33 86  1  0
 34 87  1  0
 35 88  1  0
 35 89  1  0
 36 90  1  0
 38 91  1  0
 38 92  1  0
 39 93  1  0
 40 94  1  0
 41 95  1  0
 41 96  1  0
 41 97  1  0
 42 98  1  0
 42 99  1  0
 42100  1  0
 43101  1  0
 44102  1  0
 47103  1  0
 48104  1  0
 51105  1  0
 52106  1  0
 55107  1  0
 56108  1  0
 59109  1  0
 60110  1  0
M  END
> <Uni-Dock RESULT> 
ENERGY=   -5.943  LOWER_BOUND=    2.782  UPPER_BOUND=    5.792
INTER + INTRA:          -5.943
INTER:                  -5.943
INTRA:                   0.000
UNBOUND:                 0.000

$$$$

     RDKit          3D

110109  0  0  0  0  0  0  0  0999 V2000
   48.8187    6.0710   21.8934 C   0  0  0  0  0  0  0  0  0  0  0  0
   48.5331    8.9381   19.3729 C   0  0  0  0  0  0  0  0  0  0  0  0
   48.7177    6.8326   20.6472 C   0  0  0  0  0  0  0  0  0  0  0  0
   48.6144    8.1667   20.6183 C   0  0  0  0  0  0  0  0  0  0  0  0
   49.0682    4.8813   21.9562 O   0  0  0  0  0  0  0  0  0  0  0  0
   48.5269   10.1559   19.3233 O   0  0  0  0  0  0  0  0  0  0  0  0
   48.4497    8.1834   18.2684 O   0  0  0  0  0  0  0  0  0  0  0  0
   48.5937    6.8030   22.9929 O   0  0  0  0  0  0  0  0  0  0  0  0
   47.8540   12.1018   21.8315 C   0  0  0  0  0  0  0  0  0  0  0  0
   48.5580   11.0914   22.4559 C   0  0  0  0  0  0  0  0  0  0  0  0
   48.6154    9.8212   22.0001 N   0  0  0  0  0  0  0  0  0  0  0  0
   47.9819    9.5023   20.8449 C   0  0  0  0  0  0  0  0  0  0  0  0
   47.2444   10.4817   20.1665 C   0  0  0  0  0  0  0  0  0  0  0  0
   47.1717   11.7823   20.6673 C   0  0  0  0  0  0  0  0  0  0  0  0
   48.1068    8.1831   20.3909 N   0  0  0  0  0  0  0  0  0  0  0  0
   47.8149    7.9217   18.9791 C   0  0  0  0  0  0  0  0  0  0  0  0
   47.6222    7.2162   21.3987 C   0  0  0  0  0  0  0  0  0  0  0  0
   48.5031    5.9504   21.5744 C   0  0  0  0  0  0  0  0  0  0  0  0
   49.9165    6.1494   21.9473 N   0  0  0  0  0  0  0  0  0  0  0  0
   50.6471    4.8856   21.8715 C   0  0  0  0  0  0  0  0  0  0  0  0
   50.0509    6.7421   23.2741 C   0  0  0  0  0  0  0  0  0  0  0  0
   48.4352    6.7065   18.3450 C   0  0  0  0  0  0  0  0  0  0  0  0
   47.8108    5.5563   17.8992 C   0  0  0  0  0  0  0  0  0  0  0  0
   48.7310    4.6296   17.3303 C   0  0  0  0  0  0  0  0  0  0  0  0
   50.0252    5.0983   17.3666 C   0  0  0  0  0  0  0  0  0  0  0  0
   50.1255    6.6633   18.0449 S   0  0  0  0  0  0  0  0  0  0  0  0
   48.4279    7.6493   19.8457 N   0  0  0  0  0  0  0  0  0  0  0  0
   48.7342    6.4110   19.2312 C   0  0  0  0  0  0  0  0  0  0  0  0
   47.0764    9.7200   19.3764 C   0  0  0  0  0  0  0  0  0  0  0  0
   48.1156   10.8229   18.5748 S   0  0  0  0  0  0  0  0  0  0  0  0
   47.2475    8.2350   19.1736 C   0  0  0  0  0  0  0  0  0  0  0  0
   48.3231    5.2514   19.7906 N   0  0  0  0  0  0  0  0  0  0  0  0
   47.3292   12.1689   19.2743 C   0  0  0  0  0  0  0  0  0  0  0  0
   46.1416   10.3790   20.1512 C   0  0  0  0  0  0  0  0  0  0  0  0
   48.2786    7.5339   21.3165 C   0  0  0  0  0  0  0  0  0  0  0  0
   46.2948   11.7925   20.1013 C   0  0  0  0  0  0  0  0  0  0  0  0
   49.5737    7.2786   23.4869 N   0  0  0  0  0  0  0  0  0  0  0  0
   49.6364    7.2602   22.0062 C   0  0  0  0  0  0  0  0  0  0  0  0
   49.4649    6.4241   18.0418 C   0  0  0  0  0  0  0  0  0  0  0  0
   48.6289    4.0977   19.1590 C   0  0  0  0  0  0  0  0  0  0  0  0
   50.9342    7.2690   24.0340 C   0  0  0  0  0  0  0  0  0  0  0  0
   48.8275    6.1317   24.0033 C   0  0  0  0  0  0  0  0  0  0  0  0
   49.7754    5.2238   17.4101 C   0  0  0  0  0  0  0  0  0  0  0  0
   49.3460    4.0319   17.9776 C   0  0  0  0  0  0  0  0  0  0  0  0
   50.1943    7.2638   21.9682 C   0  0  0  0  0  0  0  0  0  0  0  0
   47.8448    8.0586   19.0966 C   0  0  0  0  0  0  0  0  0  0  0  0
   49.6127    7.7515   20.7153 C   0  0  0  0  0  0  0  0  0  0  0  0
   48.3319    7.5410   20.3770 C   0  0  0  0  0  0  0  0  0  0  0  0
   51.3488    7.4418   22.3099 O   0  0  0  0  0  0  0  0  0  0  0  0
   48.4772    8.6749   18.2612 O   0  0  0  0  0  0  0  0  0  0  0  0
   46.5476    7.7582   18.9362 O   0  0  0  0  0  0  0  0  0  0  0  0
   49.3327    6.5842   22.7386 O   0  0  0  0  0  0  0  0  0  0  0  0
   48.3576    8.4162   18.9062 C   0  0  0  0  0  0  0  0  0  0  0  0
   49.1361    7.0183   22.3468 C   0  0  0  0  0  0  0  0  0  0  0  0
   48.8310    8.2344   20.2804 C   0  0  0  0  0  0  0  0  0  0  0  0
   48.6329    7.1069   20.9768 C   0  0  0  0  0  0  0  0  0  0  0  0
   48.4949    9.4380   18.2579 O   0  0  0  0  0  0  0  0  0  0  0  0
   49.7524    7.8702   22.9583 O   0  0  0  0  0  0  0  0  0  0  0  0
   48.8172    5.8313   22.8833 O   0  0  0  0  0  0  0  0  0  0  0  0
   47.7439    7.3390   18.3920 O   0  0  0  0  0  0  0  0  0  0  0  0
   48.7602    6.2307   19.7468 H   0  0  0  0  0  0  0  0  0  0  0  0
   48.5969    8.7720   21.5190 H   0  0  0  0  0  0  0  0  0  0  0  0
   48.3958    8.8304   17.5303 H   0  0  0  0  0  0  0  0  0  0  0  0
   48.6770    6.1575   23.7260 H   0  0  0  0  0  0  0  0  0  0  0  0
   47.8397   13.1047   22.2368 H   0  0  0  0  0  0  0  0  0  0  0  0
   49.1195   11.2745   23.3698 H   0  0  0  0  0  0  0  0  0  0  0  0
   46.6952   10.2495   19.2592 H   0  0  0  0  0  0  0  0  0  0  0  0
   46.5920   12.5382   20.1403 H   0  0  0  0  0  0  0  0  0  0  0  0
   46.7269    7.8684   18.8471 H   0  0  0  0  0  0  0  0  0  0  0  0
   48.1550    8.7656   18.3629 H   0  0  0  0  0  0  0  0  0  0  0  0
   47.4857    7.6697   22.3879 H   0  0  0  0  0  0  0  0  0  0  0  0
   46.6117    6.8934   21.1101 H   0  0  0  0  0  0  0  0  0  0  0  0
   48.4627    5.3786   20.6440 H   0  0  0  0  0  0  0  0  0  0  0  0
   48.0113    5.3108   22.3216 H   0  0  0  0  0  0  0  0  0  0  0  0
   50.6255    4.4880   20.8489 H   0  0  0  0  0  0  0  0  0  0  0  0
   51.7009    5.0323   22.1267 H   0  0  0  0  0  0  0  0  0  0  0  0
   50.2298    4.1297   22.5460 H   0  0  0  0  0  0  0  0  0  0  0  0
   49.5942    7.7328   23.3271 H   0  0  0  0  0  0  0  0  0  0  0  0
   49.6047    6.1134   24.0535 H   0  0  0  0  0  0  0  0  0  0  0  0
   51.1075    6.8866   23.5231 H   0  0  0  0  0  0  0  0  0  0  0  0
   46.7448    5.3803   17.9890 H   0  0  0  0  0  0  0  0  0  0  0  0
   48.4597    3.6640   16.9204 H   0  0  0  0  0  0  0  0  0  0  0  0
   50.9221    4.6060   17.0148 H   0  0  0  0  0  0  0  0  0  0  0  0
   46.3339    7.7242   19.5161 H   0  0  0  0  0  0  0  0  0  0  0  0
   47.2802    8.0685   18.0861 H   0  0  0  0  0  0  0  0  0  0  0  0
   47.6693   13.1692   19.0462 H   0  0  0  0  0  0  0  0  0  0  0  0
   45.3848    9.8705   20.7338 H   0  0  0  0  0  0  0  0  0  0  0  0
   47.9025    8.4856   21.7127 H   0  0  0  0  0  0  0  0  0  0  0  0
   47.5271    6.7791   21.5774 H   0  0  0  0  0  0  0  0  0  0  0  0
   45.6761   12.4993   20.6400 H   0  0  0  0  0  0  0  0  0  0  0  0
   50.0688    6.3131   21.6575 H   0  0  0  0  0  0  0  0  0  0  0  0
   50.3245    8.0469   21.6720 H   0  0  0  0  0  0  0  0  0  0  0  0
   49.7998    7.3689   17.6258 H   0  0  0  0  0  0  0  0  0  0  0  0
   48.2682    3.1977   19.6484 H   0  0  0  0  0  0  0  0  0  0  0  0
   51.5059    6.3934   23.7095 H   0  0  0  0  0  0  0  0  0  0  0  0
   51.4792    8.1684   23.7316 H   0  0  0  0  0  0  0  0  0  0  0  0
   50.9098    7.2836   25.1267 H   0  0  0  0  0  0  0  0  0  0  0  0
   49.2444    5.1790   23.6542 H   0  0  0  0  0  0  0  0  0  0  0  0
   47.7724    6.1824   23.7095 H   0  0  0  0  0  0  0  0  0  0  0  0
   48.8370    6.1291   25.0984 H   0  0  0  0  0  0  0  0  0  0  0  0
   50.3509    5.2244   16.4896 H   0  0  0  0  0  0  0  0  0  0  0  0
   49.5681    3.0776   17.5149 H   0  0  0  0  0  0  0  0  0  0  0  0
   50.3011    8.2960   20.0753 H   0  0  0  0  0  0  0  0  0  0  0  0
   47.6288    6.9927   20.9947 H   0  0  0  0  0  0  0  0  0  0  0  0
   46.3184    8.1375   18.0614 H   0  0  0  0  0  0  0  0  0  0  0  0
   49.8711    6.3332   23.5176 H   0  0  0  0  0  0  0  0  0  0  0  0
   49.3520    9.0921   20.6963 H   0  0  0  0  0  0  0  0  0  0  0  0
   48.1049    6.2473   20.5808 H   0  0  0  0  0  0  0  0  0  0  0  0
   49.1932    5.8705   23.7866 H   0  0  0  0  0  0  0  0  0  0  0  0
   47.5023    7.6235   17.4857 H   0  0  0  0  0  0  0  0  0  0  0  0
  2  4  1  0
  3  1  1  0
  4  3  2  0
  5  1  2  0
  6  2  2  0
  7  2  1  0
  8  1  1  0
 15 17  1  0
 12 15  1  0
 17 18  1  0
 11 12  1  0
 18 19  1  0
 15 16  1  0
 19 20  1  0
 19 21  1  0
 16 22  1  0
 23 24  1  0
 12 13  2  0
 10 11  2  0
 13 14  1  0
 22 23  2  0
 24 25  2  0
 25 26  1  0
 26 22  1  0
 14  9  2  0
  9 10  1  0
 28 27  1  0
 29 31  1  0
 30 29  1  0
 31 27  1  0
 32 28  2  0
 33 30  1  0
 34 29  2  0
 35 27  1  0
 36 34  1  0
 37 38  1  0
 38 35  1  0
 39 28  1  0
 40 32  1  0
 41 37  1  0
 42 37  1  0
 43 39  2  0
 44 40  2  0
 36 33  2  0
 43 44  1  0
 46 48  1  0
 47 45  1  0
 48 47  2  0
 49 45  2  0
 50 46  2  0
 51 46  1  0
 52 45  1  0
 54 56  1  0
 55 53  1  0
 56 55  2  0
 57 53  2  0
 58 54  2  0
 59 54  1  0
 60 53  1  0
  3 61  1  0
  4 62  1  0
  7 63  1  0
  8 64  1  0
  9 65  1  0
 10 66  1  0
 13 67  1  0
 14 68  1  0
 16 69  1  0
 16 70  1  0
 17 71  1  0
 17 72  1  0
 18 73  1  0
 18 74  1  0
 20 75  1  0
 20 76  1  0
 20 77  1  0
 21 78  1  0
 21 79  1  0
 21 80  1  0
 23 81  1  0
 24 82  1  0
 25 83  1  0
 31 84  1  0
 31 85  1  0
 33 86  1  0
 34 87  1  0
 35 88  1  0
 35 89  1  0
 36 90  1  0
 38 91  1  0
 38 92  1  0
 39 93  1  0
 40 94  1  0
 41 95  1  0
 41 96  1  0
 41 97  1  0
 42 98  1  0
 42 99  1  0
 42100  1  0
 43101  1  0
 44102  1  0
 47103  1  0
 48104  1  0
 51105  1  0
 52106  1  0
 55107  1  0
 56108  1  0
 59109  1  0
 60110  1  0
M  END
> <Uni-Dock RESULT> 
ENERGY=   -5.847  LOWER_BOUND=    1.840  UPPER_BOUND=    5.538
INTER + INTRA:          -5.847
INTER:                  -5.847
INTRA:                   0.000
UNBOUND:                 0.000

$$$$

     RDKit          3D

110109  0  0  0  0  0  0  0  0999 V2000
   48.8096   10.5214   16.6083 C   0  0  0  0  0  0  0  0  0  0  0  0
   48.7278    7.9968   19.4848 C   0  0  0  0  0  0  0  0  0  0  0  0
   48.5761    9.8893   17.9079 C   0  0  0  0  0  0  0  0  0  0  0  0
   48.9403    8.6302   18.1785 C   0  0  0  0  0  0  0  0  0  0  0  0
   48.6352   11.7033   16.3748 O   0  0  0  0  0  0  0  0  0  0  0  0
   49.1298    6.8842   19.7776 O   0  0  0  0  0  0  0  0  0  0  0  0
   48.0285    8.7474   20.3475 O   0  0  0  0  0  0  0  0  0  0  0  0
   49.2285    9.6703   15.6618 O   0  0  0  0  0  0  0  0  0  0  0  0
   50.0413    4.6272   17.6314 C   0  0  0  0  0  0  0  0  0  0  0  0
   50.5131    5.7770   17.0298 C   0  0  0  0  0  0  0  0  0  0  0  0
   49.9715    7.0004   17.2157 N   0  0  0  0  0  0  0  0  0  0  0  0
   48.9244    7.1395   18.0653 C   0  0  0  0  0  0  0  0  0  0  0  0
   48.3946    6.0094   18.7022 C   0  0  0  0  0  0  0  0  0  0  0  0
   48.9483    4.7485   18.4760 C   0  0  0  0  0  0  0  0  0  0  0  0
   48.4256    8.4341   18.2578 N   0  0  0  0  0  0  0  0  0  0  0  0
   47.6139    8.6769   19.4533 C   0  0  0  0  0  0  0  0  0  0  0  0
   47.9951    9.0432   16.9814 C   0  0  0  0  0  0  0  0  0  0  0  0
   48.3857   10.5342   16.7980 C   0  0  0  0  0  0  0  0  0  0  0  0
   49.8184   10.8780   16.8718 N   0  0  0  0  0  0  0  0  0  0  0  0
   49.9950   12.3290   16.8845 C   0  0  0  0  0  0  0  0  0  0  0  0
   50.5790   10.2771   15.7809 C   0  0  0  0  0  0  0  0  0  0  0  0
   47.5270   10.0869   19.9709 C   0  0  0  0  0  0  0  0  0  0  0  0
   46.4319   10.9308   19.9866 C   0  0  0  0  0  0  0  0  0  0  0  0
   46.7301   12.1894   20.5832 C   0  0  0  0  0  0  0  0  0  0  0  0
   48.0413   12.2677   20.9962 C   0  0  0  0  0  0  0  0  0  0  0  0
   48.8972   10.8181   20.7038 S   0  0  0  0  0  0  0  0  0  0  0  0
   48.3423    9.0951   18.7493 N   0  0  0  0  0  0  0  0  0  0  0  0
   47.9781   10.4006   19.1586 C   0  0  0  0  0  0  0  0  0  0  0  0
   47.7222    6.7066   19.2447 C   0  0  0  0  0  0  0  0  0  0  0  0
   48.7547    6.1745   20.5055 S   0  0  0  0  0  0  0  0  0  0  0  0
   47.2889    8.1501   19.1799 C   0  0  0  0  0  0  0  0  0  0  0  0
   47.3976   11.2527   18.2847 N   0  0  0  0  0  0  0  0  0  0  0  0
   48.7628    4.5739   19.9078 C   0  0  0  0  0  0  0  0  0  0  0  0
   47.3857    5.6699   18.3960 C   0  0  0  0  0  0  0  0  0  0  0  0
   48.6549    9.0182   17.3018 C   0  0  0  0  0  0  0  0  0  0  0  0
   47.9958    4.4409   18.7723 C   0  0  0  0  0  0  0  0  0  0  0  0
   50.4169    9.5801   15.5603 N   0  0  0  0  0  0  0  0  0  0  0  0
   49.9784    9.7460   16.9663 C   0  0  0  0  0  0  0  0  0  0  0  0
   48.2329   10.7767   20.4785 C   0  0  0  0  0  0  0  0  0  0  0  0
   47.0568   12.4822   18.7272 C   0  0  0  0  0  0  0  0  0  0  0  0
   51.7878   10.0793   15.4134 C   0  0  0  0  0  0  0  0  0  0  0  0
   49.5325   10.2920   14.6384 C   0  0  0  0  0  0  0  0  0  0  0  0
   47.8799   12.0508   20.9128 C   0  0  0  0  0  0  0  0  0  0  0  0
   47.2748   12.9245   20.0199 C   0  0  0  0  0  0  0  0  0  0  0  0
   50.4570    9.9659   17.1544 C   0  0  0  0  0  0  0  0  0  0  0  0
   47.7265    8.5535   19.3787 C   0  0  0  0  0  0  0  0  0  0  0  0
   49.7040    9.3956   18.2741 C   0  0  0  0  0  0  0  0  0  0  0  0
   48.3952    9.1116   18.2014 C   0  0  0  0  0  0  0  0  0  0  0  0
   51.6449   10.2296   17.1830 O   0  0  0  0  0  0  0  0  0  0  0  0
   48.2214    8.3091   20.4618 O   0  0  0  0  0  0  0  0  0  0  0  0
   46.4304    8.3304   19.1159 O   0  0  0  0  0  0  0  0  0  0  0  0
   49.7175   10.1834   16.0573 O   0  0  0  0  0  0  0  0  0  0  0  0
   48.2385    8.4445   19.7699 C   0  0  0  0  0  0  0  0  0  0  0  0
   49.5671    9.7415   16.4608 C   0  0  0  0  0  0  0  0  0  0  0  0
   49.0428    8.6821   18.5690 C   0  0  0  0  0  0  0  0  0  0  0  0
   48.7055    9.5772   17.6307 C   0  0  0  0  0  0  0  0  0  0  0  0
   48.5014    7.6180   20.6249 O   0  0  0  0  0  0  0  0  0  0  0  0
   50.6058    9.1536   16.2264 O   0  0  0  0  0  0  0  0  0  0  0  0
   49.0505   10.6570   15.6280 O   0  0  0  0  0  0  0  0  0  0  0  0
   47.1557    9.2315   19.8676 O   0  0  0  0  0  0  0  0  0  0  0  0
   48.1078   10.5326   18.6439 H   0  0  0  0  0  0  0  0  0  0  0  0
   49.4319    7.9937   17.4497 H   0  0  0  0  0  0  0  0  0  0  0  0
   47.9636    8.1961   21.1588 H   0  0  0  0  0  0  0  0  0  0  0  0
   49.3182   10.2323   14.8635 H   0  0  0  0  0  0  0  0  0  0  0  0
   50.5112    3.6698   17.4504 H   0  0  0  0  0  0  0  0  0  0  0  0
   51.3704    5.7541   16.3600 H   0  0  0  0  0  0  0  0  0  0  0  0
   47.5333    6.0816   19.3591 H   0  0  0  0  0  0  0  0  0  0  0  0
   48.5291    3.8725   18.9680 H   0  0  0  0  0  0  0  0  0  0  0  0
   46.5968    8.3078   19.2709 H   0  0  0  0  0  0  0  0  0  0  0  0
   48.0035    8.0905   20.2970 H   0  0  0  0  0  0  0  0  0  0  0  0
   48.3585    8.4912   16.1061 H   0  0  0  0  0  0  0  0  0  0  0  0
   46.9007    8.9645   16.9126 H   0  0  0  0  0  0  0  0  0  0  0  0
   47.8451   11.1197   17.5458 H   0  0  0  0  0  0  0  0  0  0  0  0
   47.9771   10.8627   15.8314 H   0  0  0  0  0  0  0  0  0  0  0  0
   49.5013   12.7702   17.7596 H   0  0  0  0  0  0  0  0  0  0  0  0
   51.0551   12.5888   16.9607 H   0  0  0  0  0  0  0  0  0  0  0  0
   49.5874   12.7994   15.9828 H   0  0  0  0  0  0  0  0  0  0  0  0
   50.5404    9.1859   15.8085 H   0  0  0  0  0  0  0  0  0  0  0  0
   50.2249   10.6110   14.7987 H   0  0  0  0  0  0  0  0  0  0  0  0
   51.6388   10.5405   15.8633 H   0  0  0  0  0  0  0  0  0  0  0  0
   45.4643   10.6639   19.5766 H   0  0  0  0  0  0  0  0  0  0  0  0
   46.0210   13.0005   20.6986 H   0  0  0  0  0  0  0  0  0  0  0  0
   48.5416   13.1015   21.4706 H   0  0  0  0  0  0  0  0  0  0  0  0
   46.4216    8.2286   18.5055 H   0  0  0  0  0  0  0  0  0  0  0  0
   46.9019    8.4068   20.1777 H   0  0  0  0  0  0  0  0  0  0  0  0
   49.3345    3.8117   20.4183 H   0  0  0  0  0  0  0  0  0  0  0  0
   46.7360    5.7878   17.5389 H   0  0  0  0  0  0  0  0  0  0  0  0
   48.7862    7.9657   17.0206 H   0  0  0  0  0  0  0  0  0  0  0  0
   47.8183    9.3907   16.6986 H   0  0  0  0  0  0  0  0  0  0  0  0
   47.8759    3.5049   18.2412 H   0  0  0  0  0  0  0  0  0  0  0  0
   49.9138   10.8126   17.2191 H   0  0  0  0  0  0  0  0  0  0  0  0
   50.7464    9.3256   17.6277 H   0  0  0  0  0  0  0  0  0  0  0  0
   48.7189   10.0792   21.1531 H   0  0  0  0  0  0  0  0  0  0  0  0
   46.5879   13.1225   17.9856 H   0  0  0  0  0  0  0  0  0  0  0  0
   51.8783   11.1333   15.6959 H   0  0  0  0  0  0  0  0  0  0  0  0
   52.4798    9.4966   16.0290 H   0  0  0  0  0  0  0  0  0  0  0  0
   52.1310    9.9645   14.3820 H   0  0  0  0  0  0  0  0  0  0  0  0
   49.4521   11.3575   14.8862 H   0  0  0  0  0  0  0  0  0  0  0  0
   48.5272    9.8543   14.6383 H   0  0  0  0  0  0  0  0  0  0  0  0
   49.9001   10.2061   13.6104 H   0  0  0  0  0  0  0  0  0  0  0  0
   48.0826   12.3545   21.9352 H   0  0  0  0  0  0  0  0  0  0  0  0
   46.9855   13.9243   20.3212 H   0  0  0  0  0  0  0  0  0  0  0  0
   50.2874    9.2226   19.1739 H   0  0  0  0  0  0  0  0  0  0  0  0
   47.7902    9.2843   17.3177 H   0  0  0  0  0  0  0  0  0  0  0  0
   46.0734    7.9664   19.9537 H   0  0  0  0  0  0  0  0  0  0  0  0
   50.3590   10.5599   15.4198 H   0  0  0  0  0  0  0  0  0  0  0  0
   49.9355    8.0676   18.4939 H   0  0  0  0  0  0  0  0  0  0  0  0
   47.8126   10.1889   17.6847 H   0  0  0  0  0  0  0  0  0  0  0  0
   49.6914   10.6934   14.8885 H   0  0  0  0  0  0  0  0  0  0  0  0
   46.7446    8.9520   20.7124 H   0  0  0  0  0  0  0  0  0  0  0  0
  2  4  1  0
  3  1  1  0
  4  3  2  0
  5  1  2  0
  6  2  2  0
  7  2  1  0
  8  1  1  0
 15 17  1  0
 12 15  1  0
 17 18  1  0
 11 12  1  0
 18 19  1  0
 15 16  1  0
 19 20  1  0
 19 21  1  0
 16 22  1  0
 23 24  1  0
 12 13  2  0
 10 11  2  0
 13 14  1  0
 22 23  2  0
 24 25  2  0
 25 26  1  0
 26 22  1  0
 14  9  2  0
  9 10  1  0
 28 27  1  0
 29 31  1  0
 30 29  1  0
 31 27  1  0
 32 28  2  0
 33 30  1  0
 34 29  2  0
 35 27  1  0
 36 34  1  0
 37 38  1  0
 38 35  1  0
 39 28  1  0
 40 32  1  0
 41 37  1  0
 42 37  1  0
 43 39  2  0
 44 40  2  0
 36 33  2  0
 43 44  1  0
 46 48  1  0
 47 45  1  0
 48 47  2  0
 49 45  2  0
 50 46  2  0
 51 46  1  0
 52 45  1  0
 54 56  1  0
 55 53  1  0
 56 55  2  0
 57 53  2  0
 58 54  2  0
 59 54  1  0
 60 53  1  0
  3 61  1  0
  4 62  1  0
  7 63  1  0
  8 64  1  0
  9 65  1  0
 10 66  1  0
 13 67  1  0
 14 68  1  0
 16 69  1  0
 16 70  1  0
 17 71  1  0
 17 72  1  0
 18 73  1  0
 18 74  1  0
 20 75  1  0
 20 76  1  0
 20 77  1  0
 21 78  1  0
 21 79  1  0
 21 80  1  0
 23 81  1  0
 24 82  1  0
 25 83  1  0
 31 84  1  0
 31 85  1  0
 33 86  1  0
 34 87  1  0
 35 88  1  0
 35 89  1  0
 36 90  1  0
 38 91  1  0
 38 92  1  0
 39 93  1  0
 40 94  1  0
 41 95  1  0
 41 96  1  0
 41 97  1  0
 42 98  1  0
 42 99  1  0
 42100  1  0
 43101  1  0
 44102  1  0
 47103  1  0
 48104  1  0
 51105  1  0
 52106  1  0
 55107  1  0
 56108  1  0
 59109  1  0
 60110  1  0
M  END
> <Uni-Dock RESULT> 
ENERGY=   -5.827  LOWER_BOUND=    1.466  UPPER_BOUND=    1.942
INTER + INTRA:          -5.827
INTER:                  -5.827
INTRA:                   0.000
UNBOUND:                 0.000

$$$$

     RDKit          3D

110109  0  0  0  0  0  0  0  0999 V2000
   49.8177    8.3885   16.2639 C   0  0  0  0  0  0  0  0  0  0  0  0
   47.5448    9.5917   19.0996 C   0  0  0  0  0  0  0  0  0  0  0  0
   48.9973    8.4324   17.4756 C   0  0  0  0  0  0  0  0  0  0  0  0
   48.3850    9.5451   17.8976 C   0  0  0  0  0  0  0  0  0  0  0  0
   50.2598    7.3691   15.7668 O   0  0  0  0  0  0  0  0  0  0  0  0
   46.9097   10.5707   19.4511 O   0  0  0  0  0  0  0  0  0  0  0  0
   47.5405    8.4529   19.8063 O   0  0  0  0  0  0  0  0  0  0  0  0
   50.0653    9.5950   15.7360 O   0  0  0  0  0  0  0  0  0  0  0  0
   47.4550   13.5957   18.4106 C   0  0  0  0  0  0  0  0  0  0  0  0
   47.6910   12.8687   17.2607 C   0  0  0  0  0  0  0  0  0  0  0  0
   48.1073   11.5838   17.2546 N   0  0  0  0  0  0  0  0  0  0  0  0
   48.2772   10.9366   18.4336 C   0  0  0  0  0  0  0  0  0  0  0  0
   48.0603   11.6212   19.6368 C   0  0  0  0  0  0  0  0  0  0  0  0
   47.6584   12.9576   19.6248 C   0  0  0  0  0  0  0  0  0  0  0  0
   48.6682    9.5929   18.3742 N   0  0  0  0  0  0  0  0  0  0  0  0
   48.4451    8.7689   19.5650 C   0  0  0  0  0  0  0  0  0  0  0  0
   49.9393    9.4316   17.6369 C   0  0  0  0  0  0  0  0  0  0  0  0
   49.9878    8.2235   16.6636 C   0  0  0  0  0  0  0  0  0  0  0  0
   48.9682    8.1639   15.5990 N   0  0  0  0  0  0  0  0  0  0  0  0
   49.0267    6.8773   14.9078 C   0  0  0  0  0  0  0  0  0  0  0  0
   49.1074    9.2639   14.6502 C   0  0  0  0  0  0  0  0  0  0  0  0
   48.3342    7.2799   19.3802 C   0  0  0  0  0  0  0  0  0  0  0  0
   49.2102    6.2945   19.7966 C   0  0  0  0  0  0  0  0  0  0  0  0
   48.7519    4.9886   19.4595 C   0  0  0  0  0  0  0  0  0  0  0  0
   47.5478    5.0199   18.7924 C   0  0  0  0  0  0  0  0  0  0  0  0
   46.9529    6.6112   18.6097 S   0  0  0  0  0  0  0  0  0  0  0  0
   48.4736    8.7939   18.4697 N   0  0  0  0  0  0  0  0  0  0  0  0
   48.6203    7.3859   18.4482 C   0  0  0  0  0  0  0  0  0  0  0  0
   48.2521   10.6553   20.1494 C   0  0  0  0  0  0  0  0  0  0  0  0
   46.5759   10.8702   20.4376 S   0  0  0  0  0  0  0  0  0  0  0  0
   48.7950    9.2852   19.8275 C   0  0  0  0  0  0  0  0  0  0  0  0
   49.7505    6.8249   17.9638 N   0  0  0  0  0  0  0  0  0  0  0  0
   46.7729   12.5466   20.7026 C   0  0  0  0  0  0  0  0  0  0  0  0
   48.9419   11.8462   20.2687 C   0  0  0  0  0  0  0  0  0  0  0  0
   49.2468    9.4638   17.3963 C   0  0  0  0  0  0  0  0  0  0  0  0
   48.0861   12.9403   20.5768 C   0  0  0  0  0  0  0  0  0  0  0  0
   49.2829    9.9468   14.9026 N   0  0  0  0  0  0  0  0  0  0  0  0
   48.6393    9.1869   16.0004 C   0  0  0  0  0  0  0  0  0  0  0  0
   47.5738    6.6028   18.9384 C   0  0  0  0  0  0  0  0  0  0  0  0
   49.8475    5.4780   17.9771 C   0  0  0  0  0  0  0  0  0  0  0  0
   48.4807    9.8164   13.6820 C   0  0  0  0  0  0  0  0  0  0  0  0
   50.6429    9.4715   14.6509 C   0  0  0  0  0  0  0  0  0  0  0  0
   47.6910    5.2162   18.9372 C   0  0  0  0  0  0  0  0  0  0  0  0
   48.8547    4.6379   18.4491 C   0  0  0  0  0  0  0  0  0  0  0  0
   48.1993    9.0109   15.7036 C   0  0  0  0  0  0  0  0  0  0  0  0
   48.4008    8.9306   19.4919 C   0  0  0  0  0  0  0  0  0  0  0  0
   47.8795    8.9642   17.1324 C   0  0  0  0  0  0  0  0  0  0  0  0
   48.8186    8.9933   18.0897 C   0  0  0  0  0  0  0  0  0  0  0  0
   47.3737    8.9931   14.8094 O   0  0  0  0  0  0  0  0  0  0  0  0
   47.2666    8.8456   19.9207 O   0  0  0  0  0  0  0  0  0  0  0  0
   49.4709    8.9777   20.2990 O   0  0  0  0  0  0  0  0  0  0  0  0
   49.5128    9.0777   15.4429 O   0  0  0  0  0  0  0  0  0  0  0  0
   47.7526    8.9838   19.4288 C   0  0  0  0  0  0  0  0  0  0  0  0
   49.2807    9.2990   15.9701 C   0  0  0  0  0  0  0  0  0  0  0  0
   48.0483    9.3726   18.0478 C   0  0  0  0  0  0  0  0  0  0  0  0
   49.0567    8.8441   17.3414 C   0  0  0  0  0  0  0  0  0  0  0  0
   46.8636    9.4665   20.1070 O   0  0  0  0  0  0  0  0  0  0  0  0
   48.6304   10.1226   15.3550 O   0  0  0  0  0  0  0  0  0  0  0  0
   50.3455    8.6776   15.4422 O   0  0  0  0  0  0  0  0  0  0  0  0
   48.5553    8.0219   19.9101 O   0  0  0  0  0  0  0  0  0  0  0  0
   48.9032    7.4831   17.9903 H   0  0  0  0  0  0  0  0  0  0  0  0
   48.4585   10.4900   17.3688 H   0  0  0  0  0  0  0  0  0  0  0  0
   46.9503    8.6382   20.5704 H   0  0  0  0  0  0  0  0  0  0  0  0
   50.6304    9.3999   14.9590 H   0  0  0  0  0  0  0  0  0  0  0  0
   47.1212   14.6236   18.3621 H   0  0  0  0  0  0  0  0  0  0  0  0
   47.5460   13.3065   16.2750 H   0  0  0  0  0  0  0  0  0  0  0  0
   48.2236   11.1428   20.5976 H   0  0  0  0  0  0  0  0  0  0  0  0
   47.4975   13.4873   20.5622 H   0  0  0  0  0  0  0  0  0  0  0  0
   49.2425    8.9730   20.2905 H   0  0  0  0  0  0  0  0  0  0  0  0
   47.5061    9.0627   20.0544 H   0  0  0  0  0  0  0  0  0  0  0  0
   50.2164   10.3294   17.0711 H   0  0  0  0  0  0  0  0  0  0  0  0
   50.7511    9.3149   18.3690 H   0  0  0  0  0  0  0  0  0  0  0  0
   49.9289    7.3082   17.2577 H   0  0  0  0  0  0  0  0  0  0  0  0
   50.9913    8.2056   16.2143 H   0  0  0  0  0  0  0  0  0  0  0  0
   48.8273    6.0545   15.6062 H   0  0  0  0  0  0  0  0  0  0  0  0
   48.2580    6.8202   14.1313 H   0  0  0  0  0  0  0  0  0  0  0  0
   50.0032    6.7066   14.4412 H   0  0  0  0  0  0  0  0  0  0  0  0
   48.9709   10.2361   15.1290 H   0  0  0  0  0  0  0  0  0  0  0  0
   50.0839    9.2576   14.1522 H   0  0  0  0  0  0  0  0  0  0  0  0
   48.3351    9.2013   13.8763 H   0  0  0  0  0  0  0  0  0  0  0  0
   50.1440    6.5003   20.3075 H   0  0  0  0  0  0  0  0  0  0  0  0
   49.2811    4.0712   19.6883 H   0  0  0  0  0  0  0  0  0  0  0  0
   46.9749    4.1845   18.4122 H   0  0  0  0  0  0  0  0  0  0  0  0
   49.8872    9.2957   19.9695 H   0  0  0  0  0  0  0  0  0  0  0  0
   48.4104    8.6050   20.6027 H   0  0  0  0  0  0  0  0  0  0  0  0
   45.9130   13.1596   20.9332 H   0  0  0  0  0  0  0  0  0  0  0  0
   50.0121   11.9315   20.1346 H   0  0  0  0  0  0  0  0  0  0  0  0
   49.2095   10.5492   17.5539 H   0  0  0  0  0  0  0  0  0  0  0  0
   50.3068    9.1872   17.4440 H   0  0  0  0  0  0  0  0  0  0  0  0
   48.4155   13.9639   20.7046 H   0  0  0  0  0  0  0  0  0  0  0  0
   48.6510    8.1126   15.7744 H   0  0  0  0  0  0  0  0  0  0  0  0
   47.5812    9.4721   16.0543 H   0  0  0  0  0  0  0  0  0  0  0  0
   46.6693    7.0794   19.3025 H   0  0  0  0  0  0  0  0  0  0  0  0
   50.7788    5.0817   17.5830 H   0  0  0  0  0  0  0  0  0  0  0  0
   48.3603    8.7726   13.3740 H   0  0  0  0  0  0  0  0  0  0  0  0
   47.4866   10.2510   13.8240 H   0  0  0  0  0  0  0  0  0  0  0  0
   48.9385   10.3717   12.8593 H   0  0  0  0  0  0  0  0  0  0  0  0
   50.6690    8.3968   14.4329 H   0  0  0  0  0  0  0  0  0  0  0  0
   51.2963    9.6723   15.5081 H   0  0  0  0  0  0  0  0  0  0  0  0
   51.0847   10.0041   13.8021 H   0  0  0  0  0  0  0  0  0  0  0  0
   46.8783    4.5995   19.3083 H   0  0  0  0  0  0  0  0  0  0  0  0
   48.9828    3.5621   18.4322 H   0  0  0  0  0  0  0  0  0  0  0  0
   46.8193    8.9001   17.3599 H   0  0  0  0  0  0  0  0  0  0  0  0
   49.8829    9.0476   17.8870 H   0  0  0  0  0  0  0  0  0  0  0  0
   49.0938    8.9262   21.2029 H   0  0  0  0  0  0  0  0  0  0  0  0
   49.5511    9.0988   14.4643 H   0  0  0  0  0  0  0  0  0  0  0  0
   47.3872   10.1325   17.6408 H   0  0  0  0  0  0  0  0  0  0  0  0
   49.7322    8.0945   17.7369 H   0  0  0  0  0  0  0  0  0  0  0  0
   50.4101    9.0452   14.5369 H   0  0  0  0  0  0  0  0  0  0  0  0
   48.2230    7.8805   20.8213 H   0  0  0  0  0  0  0  0  0  0  0  0
  2  4  1  0
  3  1  1  0
  4  3  2  0
  5  1  2  0
  6  2  2  0
  7  2  1  0
  8  1  1  0
 15 17  1  0
 12 15  1  0
 17 18  1  0
 11 12  1  0
 18 19  1  0
 15 16  1  0
 19 20  1  0
 19 21  1  0
 16 22  1  0
 23 24  1  0
 12 13  2  0
 10 11  2  0
 13 14  1  0
 22 23  2  0
 24 25  2  0
 25 26  1  0
 26 22  1  0
 14  9  2  0
  9 10  1  0
 28 27  1  0
 29 31  1  0
 30 29  1  0
 31 27  1  0
 32 28  2  0
 33 30  1  0
 34 29  2  0
 35 27  1  0
 36 34  1  0
 37 38  1  0
 38 35  1  0
 39 28  1  0
 40 32  1  0
 41 37  1  0
 42 37  1  0
 43 39  2  0
 44 40  2  0
 36 33  2  0
 43 44  1  0
 46 48  1  0
 47 45  1  0
 48 47  2  0
 49 45  2  0
 50 46  2  0
 51 46  1  0
 52 45  1  0
 54 56  1  0
 55 53  1  0
 56 55  2  0
 57 53  2  0
 58 54  2  0
 59 54  1  0
 60 53  1  0
  3 61  1  0
  4 62  1  0
  7 63  1  0
  8 64  1  0
  9 65  1  0
 10 66  1  0
 13 67  1  0
 14 68  1  0
 16 69  1  0
 16 70  1  0
 17 71  1  0
 17 72  1  0
 18 73  1  0
 18 74  1  0
 20 75  1  0
 20 76  1  0
 20 77  1  0
 21 78  1  0
 21 79  1  0
 21 80  1  0
 23 81  1  0
 24 82  1  0
 25 83  1  0
 31 84  1  0
 31 85  1  0
 33 86  1  0
 34 87  1  0
 35 88  1  0
 35 89  1  0
 36 90  1  0
 38 91  1  0
 38 92  1  0
 39 93  1  0
 40 94  1  0
 41 95  1  0
 41 96  1  0
 41 97  1  0
 42 98  1  0
 42 99  1  0
 42100  1  0
 43101  1  0
 44102  1  0
 47103  1  0
 48104  1  0
 51105  1  0
 52106  1  0
 55107  1  0
 56108  1  0
 59109  1  0
 60110  1  0
M  END
> <Uni-Dock RESULT> 
ENERGY=   -5.796  LOWER_BOUND=    1.641  UPPER_BOUND=    4.598
INTER + INTRA:          -5.796
INTER:                  -5.796
INTRA:                   0.000
UNBOUND:                 0.000

$$$$

     RDKit          3D

110109  0  0  0  0  0  0  0  0999 V2000
   48.0005    6.7644   19.2017 C   0  0  0  0  0  0  0  0  0  0  0  0
   49.0703   10.4271   18.8937 C   0  0  0  0  0  0  0  0  0  0  0  0
   48.4783    8.0416   18.6693 C   0  0  0  0  0  0  0  0  0  0  0  0
   48.5733    9.1488   19.4151 C   0  0  0  0  0  0  0  0  0  0  0  0
   48.0461    5.7065   18.6013 O   0  0  0  0  0  0  0  0  0  0  0  0
   49.2465   11.4209   19.5768 O   0  0  0  0  0  0  0  0  0  0  0  0
   49.3077   10.4226   17.5746 O   0  0  0  0  0  0  0  0  0  0  0  0
   47.4791    6.8541   20.4328 O   0  0  0  0  0  0  0  0  0  0  0  0
   47.9477   11.8969   22.5123 C   0  0  0  0  0  0  0  0  0  0  0  0
   48.2231   10.5446   22.5557 C   0  0  0  0  0  0  0  0  0  0  0  0
   48.2768    9.7519   21.4634 N   0  0  0  0  0  0  0  0  0  0  0  0
   48.0873   10.2989   20.2376 C   0  0  0  0  0  0  0  0  0  0  0  0
   47.7973   11.6652   20.1264 C   0  0  0  0  0  0  0  0  0  0  0  0
   47.7168   12.4639   21.2681 C   0  0  0  0  0  0  0  0  0  0  0  0
   48.1956    9.4444   19.1331 N   0  0  0  0  0  0  0  0  0  0  0  0
   48.4235   10.0572   17.8218 C   0  0  0  0  0  0  0  0  0  0  0  0
   47.2428    8.3178   19.2254 C   0  0  0  0  0  0  0  0  0  0  0  0
   47.8148    6.9355   18.8117 C   0  0  0  0  0  0  0  0  0  0  0  0
   48.9974    6.4404   19.5417 N   0  0  0  0  0  0  0  0  0  0  0  0
   49.5263    5.2380   18.9007 C   0  0  0  0  0  0  0  0  0  0  0  0
   48.7013    6.1856   20.9478 C   0  0  0  0  0  0  0  0  0  0  0  0
   49.0676    9.2159   16.7537 C   0  0  0  0  0  0  0  0  0  0  0  0
   48.5084    8.7359   15.5839 C   0  0  0  0  0  0  0  0  0  0  0  0
   49.4418    7.9923   14.8060 C   0  0  0  0  0  0  0  0  0  0  0  0
   50.6776    7.9231   15.4091 C   0  0  0  0  0  0  0  0  0  0  0  0
   50.7245    8.7839   16.8844 S   0  0  0  0  0  0  0  0  0  0  0  0
   48.6233    9.1959   18.4693 N   0  0  0  0  0  0  0  0  0  0  0  0
   48.9691    8.4288   17.3305 C   0  0  0  0  0  0  0  0  0  0  0  0
   47.8381   11.5213   19.0264 C   0  0  0  0  0  0  0  0  0  0  0  0
   49.2401   12.4689   19.3010 S   0  0  0  0  0  0  0  0  0  0  0  0
   47.8721   10.3912   18.0277 C   0  0  0  0  0  0  0  0  0  0  0  0
   48.2264    7.3556   16.9795 N   0  0  0  0  0  0  0  0  0  0  0  0
   48.4366   13.4345   20.4590 C   0  0  0  0  0  0  0  0  0  0  0  0
   46.7780   11.9516   19.8007 C   0  0  0  0  0  0  0  0  0  0  0  0
   47.9182    8.3978   19.5011 C   0  0  0  0  0  0  0  0  0  0  0  0
   47.1269   13.0490   20.6363 C   0  0  0  0  0  0  0  0  0  0  0  0
   48.2558    6.6579   21.3210 N   0  0  0  0  0  0  0  0  0  0  0  0
   48.8673    7.3832   20.1822 C   0  0  0  0  0  0  0  0  0  0  0  0
   50.0879    8.8114   16.5884 C   0  0  0  0  0  0  0  0  0  0  0  0
   48.5896    6.6645   15.8776 C   0  0  0  0  0  0  0  0  0  0  0  0
   49.2963    5.9252   22.0494 C   0  0  0  0  0  0  0  0  0  0  0  0
   47.2237    5.7262   20.8674 C   0  0  0  0  0  0  0  0  0  0  0  0
   50.4490    8.0818   15.4599 C   0  0  0  0  0  0  0  0  0  0  0  0
   49.6823    6.9848   15.0917 C   0  0  0  0  0  0  0  0  0  0  0  0
   49.3936    7.2233   20.2830 C   0  0  0  0  0  0  0  0  0  0  0  0
   48.4251   10.0958   18.0006 C   0  0  0  0  0  0  0  0  0  0  0  0
   49.3966    8.4436   19.4725 C   0  0  0  0  0  0  0  0  0  0  0  0
   48.3211    8.8685   18.7929 C   0  0  0  0  0  0  0  0  0  0  0  0
   50.3477    6.8122   20.9171 O   0  0  0  0  0  0  0  0  0  0  0  0
   49.4016   10.8073   17.8670 O   0  0  0  0  0  0  0  0  0  0  0  0
   47.2556   10.3632   17.4010 O   0  0  0  0  0  0  0  0  0  0  0  0
   48.2229    6.5697   20.2763 O   0  0  0  0  0  0  0  0  0  0  0  0
   49.0148   10.3098   18.1836 C   0  0  0  0  0  0  0  0  0  0  0  0
   48.2481    7.1797   20.1866 C   0  0  0  0  0  0  0  0  0  0  0  0
   48.9080    9.3053   19.2444 C   0  0  0  0  0  0  0  0  0  0  0  0
   48.3135    8.1177   19.0669 C   0  0  0  0  0  0  0  0  0  0  0  0
   49.5213   11.4088   18.3215 O   0  0  0  0  0  0  0  0  0  0  0  0
   48.6976    7.3404   21.3053 O   0  0  0  0  0  0  0  0  0  0  0  0
   47.5950    6.0663   19.8227 O   0  0  0  0  0  0  0  0  0  0  0  0
   48.5009    9.9194   17.0068 O   0  0  0  0  0  0  0  0  0  0  0  0
   48.7750    8.0124   17.6272 H   0  0  0  0  0  0  0  0  0  0  0  0
   48.3000    9.1724   20.4653 H   0  0  0  0  0  0  0  0  0  0  0  0
   49.6224   11.3326   17.3768 H   0  0  0  0  0  0  0  0  0  0  0  0
   47.1934    5.9382   20.6343 H   0  0  0  0  0  0  0  0  0  0  0  0
   47.9168   12.4892   23.4170 H   0  0  0  0  0  0  0  0  0  0  0  0
   48.4191   10.0372   23.4982 H   0  0  0  0  0  0  0  0  0  0  0  0
   47.6036   12.1261   19.1627 H   0  0  0  0  0  0  0  0  0  0  0  0
   47.4847   13.5236   21.1772 H   0  0  0  0  0  0  0  0  0  0  0  0
   47.4683   10.4379   17.4388 H   0  0  0  0  0  0  0  0  0  0  0  0
   49.0800   10.9323   17.9254 H   0  0  0  0  0  0  0  0  0  0  0  0
   46.8067    8.2143   20.2264 H   0  0  0  0  0  0  0  0  0  0  0  0
   46.3814    8.5397   18.5793 H   0  0  0  0  0  0  0  0  0  0  0  0
   48.0508    6.9727   17.7453 H   0  0  0  0  0  0  0  0  0  0  0  0
   46.9973    6.2048   18.8956 H   0  0  0  0  0  0  0  0  0  0  0  0
   49.8375    5.4546   17.8709 H   0  0  0  0  0  0  0  0  0  0  0  0
   50.4163    4.8792   19.4264 H   0  0  0  0  0  0  0  0  0  0  0  0
   48.7888    4.4280   18.8767 H   0  0  0  0  0  0  0  0  0  0  0  0
   48.3955    7.0937   21.4720 H   0  0  0  0  0  0  0  0  0  0  0  0
   47.9150    5.4322   21.0735 H   0  0  0  0  0  0  0  0  0  0  0  0
   49.5960    5.8275   21.4681 H   0  0  0  0  0  0  0  0  0  0  0  0
   47.4736    8.8983   15.3042 H   0  0  0  0  0  0  0  0  0  0  0  0
   49.2176    7.5251   13.8545 H   0  0  0  0  0  0  0  0  0  0  0  0
   51.5663    7.4201   15.0513 H   0  0  0  0  0  0  0  0  0  0  0  0
   46.8371   10.1083   17.7791 H   0  0  0  0  0  0  0  0  0  0  0  0
   48.2885   10.8068   17.0975 H   0  0  0  0  0  0  0  0  0  0  0  0
   48.9683   14.2344   20.9548 H   0  0  0  0  0  0  0  0  0  0  0  0
   45.7970   11.4961   19.7747 H   0  0  0  0  0  0  0  0  0  0  0  0
   47.5520    9.0724   20.2853 H   0  0  0  0  0  0  0  0  0  0  0  0
   47.0299    7.9103   19.0820 H   0  0  0  0  0  0  0  0  0  0  0  0
   46.4519   13.5352   21.3295 H   0  0  0  0  0  0  0  0  0  0  0  0
   49.2678    6.6694   19.4503 H   0  0  0  0  0  0  0  0  0  0  0  0
   49.7293    7.9543   20.5492 H   0  0  0  0  0  0  0  0  0  0  0  0
   50.6780    9.6654   16.9051 H   0  0  0  0  0  0  0  0  0  0  0  0
   47.9542    5.8167   15.6382 H   0  0  0  0  0  0  0  0  0  0  0  0
   49.8252    5.2103   21.4105 H   0  0  0  0  0  0  0  0  0  0  0  0
   50.0303    6.6162   22.4749 H   0  0  0  0  0  0  0  0  0  0  0  0
   48.8653    5.3836   22.8954 H   0  0  0  0  0  0  0  0  0  0  0  0
   47.6095    5.0134   20.1283 H   0  0  0  0  0  0  0  0  0  0  0  0
   46.3734    6.2618   20.4289 H   0  0  0  0  0  0  0  0  0  0  0  0
   46.8205    5.1587   21.7128 H   0  0  0  0  0  0  0  0  0  0  0  0
   51.3228    8.3670   14.8822 H   0  0  0  0  0  0  0  0  0  0  0  0
   49.9319    6.3925   14.2193 H   0  0  0  0  0  0  0  0  0  0  0  0
   50.3413    8.9795   19.4600 H   0  0  0  0  0  0  0  0  0  0  0  0
   47.3707    8.3457   18.7826 H   0  0  0  0  0  0  0  0  0  0  0  0
   47.4251   11.1883   16.8987 H   0  0  0  0  0  0  0  0  0  0  0  0
   48.3902    5.7948   20.8517 H   0  0  0  0  0  0  0  0  0  0  0  0
   49.3444    9.6024   20.1938 H   0  0  0  0  0  0  0  0  0  0  0  0
   47.8629    7.8113   18.1301 H   0  0  0  0  0  0  0  0  0  0  0  0
   47.6055    5.5108   20.6291 H   0  0  0  0  0  0  0  0  0  0  0  0
   48.6582   10.6895   16.4211 H   0  0  0  0  0  0  0  0  0  0  0  0
  2  4  1  0
  3  1  1  0
  4  3  2  0
  5  1  2  0
  6  2  2  0
  7  2  1  0
  8  1  1  0
 15 17  1  0
 12 15  1  0
 17 18  1  0
 11 12  1  0
 18 19  1  0
 15 16  1  0
 19 20  1  0
 19 21  1  0
 16 22  1  0
 23 24  1  0
 12 13  2  0
 10 11  2  0
 13 14  1  0
 22 23  2  0
 24 25  2  0
 25 26  1  0
 26 22  1  0
 14  9  2  0
  9 10  1  0
 28 27  1  0
 29 31  1  0
 30 29  1  0
 31 27  1  0
 32 28  2  0
 33 30  1  0
 34 29  2  0
 35 27  1  0
 36 34  1  0
 37 38  1  0
 38 35  1  0
 39 28  1  0
 40 32  1  0
 41 37  1  0
 42 37  1  0
 43 39  2  0
 44 40  2  0
 36 33  2  0
 43 44  1  0
 46 48  1  0
 47 45  1  0
 48 47  2  0
 49 45  2  0
 50 46  2  0
 51 46  1  0
 52 45  1  0
 54 56  1  0
 55 53  1  0
 56 55  2  0
 57 53  2  0
 58 54  2  0
 59 54  1  0
 60 53  1  0
  3 61  1  0
  4 62  1  0
  7 63  1  0
  8 64  1  0
  9 65  1  0
 10 66  1  0
 13 67  1  0
 14 68  1  0
 16 69  1  0
 16 70  1  0
 17 71  1  0
 17 72  1  0
 18 73  1  0
 18 74  1  0
 20 75  1  0
 20 76  1  0
 20 77  1  0
 21 78  1  0
 21 79  1  0
 21 80  1  0
 23 81  1  0
 24 82  1  0
 25 83  1  0
 31 84  1  0
 31 85  1  0
 33 86  1  0
 34 87  1  0
 35 88  1  0
 35 89  1  0
 36 90  1  0
 38 91  1  0
 38 92  1  0
 39 93  1  0
 40 94  1  0
 41 95  1  0
 41 96  1  0
 41 97  1  0
 42 98  1  0
 42 99  1  0
 42100  1  0
 43101  1  0
 44102  1  0
 47103  1  0
 48104  1  0
 51105  1  0
 52106  1  0
 55107  1  0
 56108  1  0
 59109  1  0
 60110  1  0
M  END
> <Uni-Dock RESULT> 
ENERGY=   -5.643  LOWER_BOUND=    1.517  UPPER_BOUND=    4.826
INTER + INTRA:          -5.643
INTER:                  -5.643
INTRA:                   0.000
UNBOUND:                 0.000

$$$$

     RDKit          3D

110109  0  0  0  0  0  0  0  0999 V2000
   47.7745    9.7728   19.9734 C   0  0  0  0  0  0  0  0  0  0  0  0
   48.8145    6.0961   19.7393 C   0  0  0  0  0  0  0  0  0  0  0  0
   48.1320    8.3959   20.3191 C   0  0  0  0  0  0  0  0  0  0  0  0
   48.4357    7.4722   19.3994 C   0  0  0  0  0  0  0  0  0  0  0  0
   47.6444   10.6749   20.7802 O   0  0  0  0  0  0  0  0  0  0  0  0
   49.1785    5.2668   18.9237 O   0  0  0  0  0  0  0  0  0  0  0  0
   48.7136    5.8093   21.0447 O   0  0  0  0  0  0  0  0  0  0  0  0
   47.5803    9.9668   18.6618 O   0  0  0  0  0  0  0  0  0  0  0  0
   48.6678    5.4756   15.7259 C   0  0  0  0  0  0  0  0  0  0  0  0
   48.9150    6.7958   16.0458 C   0  0  0  0  0  0  0  0  0  0  0  0
   48.6755    7.3332   17.2616 N   0  0  0  0  0  0  0  0  0  0  0  0
   48.1971    6.5423   18.2533 C   0  0  0  0  0  0  0  0  0  0  0  0
   47.9191    5.1943   17.9906 C   0  0  0  0  0  0  0  0  0  0  0  0
   48.1452    4.6626   16.7202 C   0  0  0  0  0  0  0  0  0  0  0  0
   48.0060    7.1356   19.5076 N   0  0  0  0  0  0  0  0  0  0  0  0
   47.9116    6.2482   20.6697 C   0  0  0  0  0  0  0  0  0  0  0  0
   47.0818    8.2866   19.4263 C   0  0  0  0  0  0  0  0  0  0  0  0
   47.5008    9.5281   20.2583 C   0  0  0  0  0  0  0  0  0  0  0  0
   48.8172   10.1290   19.9711 N   0  0  0  0  0  0  0  0  0  0  0  0
   49.1416   11.1476   20.9680 C   0  0  0  0  0  0  0  0  0  0  0  0
   48.8774   10.6895   18.6250 C   0  0  0  0  0  0  0  0  0  0  0  0
   48.2485    6.8188   22.0205 C   0  0  0  0  0  0  0  0  0  0  0  0
   47.4034    7.0545   23.0891 C   0  0  0  0  0  0  0  0  0  0  0  0
   48.0952    7.5825   24.2169 C   0  0  0  0  0  0  0  0  0  0  0  0
   49.4409    7.7387   23.9708 C   0  0  0  0  0  0  0  0  0  0  0  0
   49.8752    7.2137   22.4039 S   0  0  0  0  0  0  0  0  0  0  0  0
   48.2481    7.2215   20.2946 N   0  0  0  0  0  0  0  0  0  0  0  0
   48.2801    7.7142   21.6216 C   0  0  0  0  0  0  0  0  0  0  0  0
   47.6797    5.0971   19.0703 C   0  0  0  0  0  0  0  0  0  0  0  0
   49.1266    4.1849   18.9559 S   0  0  0  0  0  0  0  0  0  0  0  0
   47.4370    5.9846   20.2657 C   0  0  0  0  0  0  0  0  0  0  0  0
   47.4494    8.7109   21.9996 N   0  0  0  0  0  0  0  0  0  0  0  0
   48.6608    3.5175   17.4536 C   0  0  0  0  0  0  0  0  0  0  0  0
   46.8574    4.8785   17.9819 C   0  0  0  0  0  0  0  0  0  0  0  0
   47.8063    8.2454   19.3172 C   0  0  0  0  0  0  0  0  0  0  0  0
   47.4290    3.9753   17.0430 C   0  0  0  0  0  0  0  0  0  0  0  0
   48.5503   10.3234   18.0596 N   0  0  0  0  0  0  0  0  0  0  0  0
   48.8729    9.3506   19.1303 C   0  0  0  0  0  0  0  0  0  0  0  0
   49.1855    7.1444   22.5185 C   0  0  0  0  0  0  0  0  0  0  0  0
   47.5092    9.1369   23.2798 C   0  0  0  0  0  0  0  0  0  0  0  0
   49.7235   11.1606   17.7899 C   0  0  0  0  0  0  0  0  0  0  0  0
   47.4169   11.1695   18.4317 C   0  0  0  0  0  0  0  0  0  0  0  0
   49.2359    7.6023   23.8316 C   0  0  0  0  0  0  0  0  0  0  0  0
   48.3770    8.6193   24.2250 C   0  0  0  0  0  0  0  0  0  0  0  0
   49.4040    9.5109   19.2010 C   0  0  0  0  0  0  0  0  0  0  0  0
   47.9589    6.2490   20.4931 C   0  0  0  0  0  0  0  0  0  0  0  0
   49.2311    8.1456   19.7030 C   0  0  0  0  0  0  0  0  0  0  0  0
   48.0293    7.6205   19.9845 C   0  0  0  0  0  0  0  0  0  0  0  0
   50.4771   10.0168   18.9293 O   0  0  0  0  0  0  0  0  0  0  0  0
   48.8863    5.4935   20.7090 O   0  0  0  0  0  0  0  0  0  0  0  0
   46.6827    5.8978   20.7095 O   0  0  0  0  0  0  0  0  0  0  0  0
   48.2547   10.1861   19.0565 O   0  0  0  0  0  0  0  0  0  0  0  0
   48.5802    6.0598   20.4211 C   0  0  0  0  0  0  0  0  0  0  0  0
   48.2702    9.5707   19.0157 C   0  0  0  0  0  0  0  0  0  0  0  0
   48.7203    7.2717   19.6103 C   0  0  0  0  0  0  0  0  0  0  0  0
   48.0738    8.4124   19.8862 C   0  0  0  0  0  0  0  0  0  0  0  0
   49.1295    5.0000   20.1798 O   0  0  0  0  0  0  0  0  0  0  0  0
   48.9892    9.6392   18.0370 O   0  0  0  0  0  0  0  0  0  0  0  0
   47.5220   10.6009   19.4369 O   0  0  0  0  0  0  0  0  0  0  0  0
   47.7792    6.2051   21.4882 O   0  0  0  0  0  0  0  0  0  0  0  0
   48.1573    8.1908   21.3831 H   0  0  0  0  0  0  0  0  0  0  0  0
   48.4348    7.6837   18.3349 H   0  0  0  0  0  0  0  0  0  0  0  0
   48.9890    4.8681   21.1133 H   0  0  0  0  0  0  0  0  0  0  0  0
   47.3339   10.9135   18.5983 H   0  0  0  0  0  0  0  0  0  0  0  0
   48.8778    5.0927   14.7361 H   0  0  0  0  0  0  0  0  0  0  0  0
   49.3295    7.4870   15.3146 H   0  0  0  0  0  0  0  0  0  0  0  0
   47.5004    4.5438   18.7523 H   0  0  0  0  0  0  0  0  0  0  0  0
   47.9215    3.6163   16.5190 H   0  0  0  0  0  0  0  0  0  0  0  0
   46.8997    5.8260   20.7108 H   0  0  0  0  0  0  0  0  0  0  0  0
   48.5926    5.3946   20.5466 H   0  0  0  0  0  0  0  0  0  0  0  0
   46.9083    8.6170   18.3950 H   0  0  0  0  0  0  0  0  0  0  0  0
   46.0912    7.9597   19.7733 H   0  0  0  0  0  0  0  0  0  0  0  0
   47.4627    9.2549   21.3157 H   0  0  0  0  0  0  0  0  0  0  0  0
   46.7143   10.2863   20.1330 H   0  0  0  0  0  0  0  0  0  0  0  0
   49.1895   10.7046   21.9709 H   0  0  0  0  0  0  0  0  0  0  0  0
   50.1267   11.5812   20.7713 H   0  0  0  0  0  0  0  0  0  0  0  0
   48.4037   11.9574   20.9818 H   0  0  0  0  0  0  0  0  0  0  0  0
   48.7331    9.9258   17.8577 H   0  0  0  0  0  0  0  0  0  0  0  0
   48.1311   11.4779   18.4731 H   0  0  0  0  0  0  0  0  0  0  0  0
   49.8657   11.1212   18.4345 H   0  0  0  0  0  0  0  0  0  0  0  0
   46.3354    6.8702   23.0599 H   0  0  0  0  0  0  0  0  0  0  0  0
   47.6293    7.8416   25.1602 H   0  0  0  0  0  0  0  0  0  0  0  0
   50.2000    8.1234   24.6389 H   0  0  0  0  0  0  0  0  0  0  0  0
   46.3667    6.2417   20.3034 H   0  0  0  0  0  0  0  0  0  0  0  0
   47.6162    5.3655   21.1579 H   0  0  0  0  0  0  0  0  0  0  0  0
   49.3175    2.8256   16.9454 H   0  0  0  0  0  0  0  0  0  0  0  0
   45.8912    5.3500   17.8602 H   0  0  0  0  0  0  0  0  0  0  0  0
   47.6636    7.7674   18.3398 H   0  0  0  0  0  0  0  0  0  0  0  0
   46.8307    8.6606   19.5966 H   0  0  0  0  0  0  0  0  0  0  0  0
   46.9603    3.6718   16.1151 H   0  0  0  0  0  0  0  0  0  0  0  0
   49.0612    9.8769   20.0754 H   0  0  0  0  0  0  0  0  0  0  0  0
   49.8119    8.8434   18.8755 H   0  0  0  0  0  0  0  0  0  0  0  0
   49.8550    6.3593   22.1822 H   0  0  0  0  0  0  0  0  0  0  0  0
   46.8154    9.9340   23.5305 H   0  0  0  0  0  0  0  0  0  0  0  0
   50.0593   11.7037   18.6794 H   0  0  0  0  0  0  0  0  0  0  0  0
   50.5560   10.5532   17.4219 H   0  0  0  0  0  0  0  0  0  0  0  0
   49.5063   11.8852   17.0008 H   0  0  0  0  0  0  0  0  0  0  0  0
   47.5891   11.6938   19.3796 H   0  0  0  0  0  0  0  0  0  0  0  0
   46.4961   10.5807   18.5178 H   0  0  0  0  0  0  0  0  0  0  0  0
   47.2259   11.9183   17.6557 H   0  0  0  0  0  0  0  0  0  0  0  0
   49.9431    7.1709   24.5332 H   0  0  0  0  0  0  0  0  0  0  0  0
   48.3867    9.0018   25.2387 H   0  0  0  0  0  0  0  0  0  0  0  0
   50.1542    7.5886   19.8347 H   0  0  0  0  0  0  0  0  0  0  0  0
   47.0953    8.1600   19.8702 H   0  0  0  0  0  0  0  0  0  0  0  0
   46.7393    4.9789   21.0476 H   0  0  0  0  0  0  0  0  0  0  0  0
   48.5435   11.0606   18.7226 H   0  0  0  0  0  0  0  0  0  0  0  0
   49.3872    7.1712   18.7587 H   0  0  0  0  0  0  0  0  0  0  0  0
   47.3961    8.5252   20.7243 H   0  0  0  0  0  0  0  0  0  0  0  0
   47.7219   11.3160   18.7984 H   0  0  0  0  0  0  0  0  0  0  0  0
   47.8018    5.3225   21.9138 H   0  0  0  0  0  0  0  0  0  0  0  0
  2  4  1  0
  3  1  1  0
  4  3  2  0
  5  1  2  0
  6  2  2  0
  7  2  1  0
  8  1  1  0
 15 17  1  0
 12 15  1  0
 17 18  1  0
 11 12  1  0
 18 19  1  0
 15 16  1  0
 19 20  1  0
 19 21  1  0
 16 22  1  0
 23 24  1  0
 12 13  2  0
 10 11  2  0
 13 14  1  0
 22 23  2  0
 24 25  2  0
 25 26  1  0
 26 22  1  0
 14  9  2  0
  9 10  1  0
 28 27  1  0
 29 31  1  0
 30 29  1  0
 31 27  1  0
 32 28  2  0
 33 30  1  0
 34 29  2  0
 35 27  1  0
 36 34  1  0
 37 38  1  0
 38 35  1  0
 39 28  1  0
 40 32  1  0
 41 37  1  0
 42 37  1  0
 43 39  2  0
 44 40  2  0
 36 33  2  0
 43 44  1  0
 46 48  1  0
 47 45  1  0
 48 47  2  0
 49 45  2  0
 50 46  2  0
 51 46  1  0
 52 45  1  0
 54 56  1  0
 55 53  1  0
 56 55  2  0
 57 53  2  0
 58 54  2  0
 59 54  1  0
 60 53  1  0
  3 61  1  0
  4 62  1  0
  7 63  1  0
  8 64  1  0
  9 65  1  0
 10 66  1  0
 13 67  1  0
 14 68  1  0
 16 69  1  0
 16 70  1  0
 17 71  1  0
 17 72  1  0
 18 73  1  0
 18 74  1  0
 20 75  1  0
 20 76  1  0
 20 77  1  0
 21 78  1  0
 21 79  1  0
 21 80  1  0
 23 81  1  0
 24 82  1  0
 25 83  1  0
 31 84  1  0
 31 85  1  0
 33 86  1  0
 34 87  1  0
 35 88  1  0
 35 89  1  0
 36 90  1  0
 38 91  1  0
 38 92  1  0
 39 93  1  0
 40 94  1  0
 41 95  1  0
 41 96  1  0
 41 97  1  0
 42 98  1  0
 42 99  1  0
 42100  1  0
 43101  1  0
 44102  1  0
 47103  1  0
 48104  1  0
 51105  1  0
 52106  1  0
 55107  1  0
 56108  1  0
 59109  1  0
 60110  1  0
M  END
> <Uni-Dock RESULT> 
ENERGY=   -5.557  LOWER_BOUND=    1.953  UPPER_BOUND=    3.753
INTER + INTRA:          -5.557
INTER:                  -5.557
INTRA:                   0.000
UNBOUND:                 0.000

$$$$
