
     RDKit          3D

110109  0  0  0  0  0  0  0  0999 V2000
   44.1712   10.1852   11.2321 C   0  0  0  0  0  0  0  0  0  0  0  0
   40.6087   11.4903   10.6783 C   0  0  0  0  0  0  0  0  0  0  0  0
   42.8018   10.6649   11.4548 C   0  0  0  0  0  0  0  0  0  0  0  0
   41.9761   11.0113   10.4569 C   0  0  0  0  0  0  0  0  0  0  0  0
   44.9469    9.8778   12.1184 O   0  0  0  0  0  0  0  0  0  0  0  0
   39.8463   11.8207    9.7891 O   0  0  0  0  0  0  0  0  0  0  0  0
   40.2475   11.5319   11.9696 O   0  0  0  0  0  0  0  0  0  0  0  0
   44.5165   10.1030    9.9387 O   0  0  0  0  0  0  0  0  0  0  0  0
   43.9902   13.2978    8.0742 C   0  0  0  0  0  0  0  0  0  0  0  0
   43.2367   13.5176    9.2042 C   0  0  0  0  0  0  0  0  0  0  0  0
   42.7485   12.5298    9.9886 N   0  0  0  0  0  0  0  0  0  0  0  0
   43.0044   11.2383    9.6725 C   0  0  0  0  0  0  0  0  0  0  0  0
   43.7570   10.9509    8.5328 C   0  0  0  0  0  0  0  0  0  0  0  0
   44.2523   11.9835    7.7305 C   0  0  0  0  0  0  0  0  0  0  0  0
   42.4834   10.2527   10.4957 N   0  0  0  0  0  0  0  0  0  0  0  0
   43.0357    8.8974   10.5507 C   0  0  0  0  0  0  0  0  0  0  0  0
   41.6753   10.6826   11.6493 C   0  0  0  0  0  0  0  0  0  0  0  0
   40.2226   10.9842   11.2130 C   0  0  0  0  0  0  0  0  0  0  0  0
   39.2556   11.1176   12.3280 N   0  0  0  0  0  0  0  0  0  0  0  0
   39.5895   12.2457   13.1968 C   0  0  0  0  0  0  0  0  0  0  0  0
   37.9072   11.2897   11.7862 C   0  0  0  0  0  0  0  0  0  0  0  0
   44.3317    8.7212   11.3062 C   0  0  0  0  0  0  0  0  0  0  0  0
   45.1840    9.6691   11.8413 C   0  0  0  0  0  0  0  0  0  0  0  0
   46.3132    9.0894   12.4906 C   0  0  0  0  0  0  0  0  0  0  0  0
   46.2894    7.7154   12.4328 C   0  0  0  0  0  0  0  0  0  0  0  0
   44.9174    7.1307   11.5984 S   0  0  0  0  0  0  0  0  0  0  0  0
   42.8707   10.8749   11.0114 N   0  0  0  0  0  0  0  0  0  0  0  0
   43.0986   11.2701    9.7069 C   0  0  0  0  0  0  0  0  0  0  0  0
   44.8653   10.0287   12.2652 C   0  0  0  0  0  0  0  0  0  0  0  0
   46.5137   10.4319   12.5074 S   0  0  0  0  0  0  0  0  0  0  0  0
   43.8248   11.1054   12.0967 C   0  0  0  0  0  0  0  0  0  0  0  0
   42.0595   11.2222    8.8417 N   0  0  0  0  0  0  0  0  0  0  0  0
   46.9742    8.7907   12.6069 C   0  0  0  0  0  0  0  0  0  0  0  0
   44.6803    8.6590   12.2802 C   0  0  0  0  0  0  0  0  0  0  0  0
   41.5252   10.4076   11.3751 C   0  0  0  0  0  0  0  0  0  0  0  0
   45.8923    7.9460   12.4835 C   0  0  0  0  0  0  0  0  0  0  0  0
   39.2744   11.1878   12.2740 N   0  0  0  0  0  0  0  0  0  0  0  0
   40.5495   11.5820   11.6265 C   0  0  0  0  0  0  0  0  0  0  0  0
   44.3477   11.7002    9.2553 C   0  0  0  0  0  0  0  0  0  0  0  0
   42.2484   11.6047    7.5588 C   0  0  0  0  0  0  0  0  0  0  0  0
   38.4994   12.3863   12.6099 C   0  0  0  0  0  0  0  0  0  0  0  0
   38.4829   10.3226   11.3960 C   0  0  0  0  0  0  0  0  0  0  0  0
   44.5259   12.0969    7.9280 C   0  0  0  0  0  0  0  0  0  0  0  0
   43.4516   12.0512    7.0579 C   0  0  0  0  0  0  0  0  0  0  0  0
   40.5505   11.4595   10.5384 C   0  0  0  0  0  0  0  0  0  0  0  0
   44.0769   10.0781   10.7743 C   0  0  0  0  0  0  0  0  0  0  0  0
   41.8886   10.9484   10.2330 C   0  0  0  0  0  0  0  0  0  0  0  0
   42.7593   10.5726   11.1783 C   0  0  0  0  0  0  0  0  0  0  0  0
   39.7419   11.8111    9.6997 O   0  0  0  0  0  0  0  0  0  0  0  0
   44.5040    9.9610    9.6427 O   0  0  0  0  0  0  0  0  0  0  0  0
   44.7999    9.7507   11.8556 O   0  0  0  0  0  0  0  0  0  0  0  0
   40.2737   11.5086   11.8501 O   0  0  0  0  0  0  0  0  0  0  0  0
   40.3477   10.7529   10.7451 C   0  0  0  0  0  0  0  0  0  0  0  0
   44.0876   10.1030   10.7685 C   0  0  0  0  0  0  0  0  0  0  0  0
   41.6722   10.1277   10.6969 C   0  0  0  0  0  0  0  0  0  0  0  0
   42.8118   10.8189   10.8311 C   0  0  0  0  0  0  0  0  0  0  0  0
   39.2975   10.1482   10.6311 O   0  0  0  0  0  0  0  0  0  0  0  0
   44.2565    8.9113   10.6013 O   0  0  0  0  0  0  0  0  0  0  0  0
   45.1067   10.9598   10.9259 O   0  0  0  0  0  0  0  0  0  0  0  0
   40.3807   12.0807   10.9303 O   0  0  0  0  0  0  0  0  0  0  0  0
   42.5091   10.7170   12.4984 H   0  0  0  0  0  0  0  0  0  0  0  0
   42.2704   10.9542    9.4142 H   0  0  0  0  0  0  0  0  0  0  0  0
   39.3279   11.8714   11.9418 H   0  0  0  0  0  0  0  0  0  0  0  0
   45.4425    9.7797    9.9623 H   0  0  0  0  0  0  0  0  0  0  0  0
   44.3592   14.1262    7.4777 H   0  0  0  0  0  0  0  0  0  0  0  0
   42.9928   14.5251    9.5268 H   0  0  0  0  0  0  0  0  0  0  0  0
   43.9625    9.9340    8.2298 H   0  0  0  0  0  0  0  0  0  0  0  0
   44.8305   11.7490    6.8420 H   0  0  0  0  0  0  0  0  0  0  0  0
   42.2801    8.2446   11.0145 H   0  0  0  0  0  0  0  0  0  0  0  0
   43.1472    8.4890    9.5389 H   0  0  0  0  0  0  0  0  0  0  0  0
   42.1309   11.5427   12.1585 H   0  0  0  0  0  0  0  0  0  0  0  0
   41.6449    9.8817   12.4013 H   0  0  0  0  0  0  0  0  0  0  0  0
   40.1938   11.8759   10.5734 H   0  0  0  0  0  0  0  0  0  0  0  0
   39.8989   10.1488   10.5823 H   0  0  0  0  0  0  0  0  0  0  0  0
   38.8364   12.3544   13.9854 H   0  0  0  0  0  0  0  0  0  0  0  0
   40.5416   12.0836   13.7119 H   0  0  0  0  0  0  0  0  0  0  0  0
   39.6492   13.1931   12.6488 H   0  0  0  0  0  0  0  0  0  0  0  0
   37.8115   12.2144   11.2018 H   0  0  0  0  0  0  0  0  0  0  0  0
   37.6270   10.4428   11.1446 H   0  0  0  0  0  0  0  0  0  0  0  0
   37.1714   11.3222   12.5996 H   0  0  0  0  0  0  0  0  0  0  0  0
   45.0008   10.7327   11.7709 H   0  0  0  0  0  0  0  0  0  0  0  0
   47.0981    9.6569   12.9744 H   0  0  0  0  0  0  0  0  0  0  0  0
   47.0127    7.0254   12.8431 H   0  0  0  0  0  0  0  0  0  0  0  0
   43.2802   11.1705   13.0515 H   0  0  0  0  0  0  0  0  0  0  0  0
   44.2951   12.0921   11.9891 H   0  0  0  0  0  0  0  0  0  0  0  0
   48.0104    8.5232   12.7634 H   0  0  0  0  0  0  0  0  0  0  0  0
   43.7109    8.1935   12.1455 H   0  0  0  0  0  0  0  0  0  0  0  0
   41.5939    9.7999   12.2867 H   0  0  0  0  0  0  0  0  0  0  0  0
   41.1362    9.7279   10.6075 H   0  0  0  0  0  0  0  0  0  0  0  0
   45.9766    6.8684   12.5267 H   0  0  0  0  0  0  0  0  0  0  0  0
   40.3460   12.1140   10.6858 H   0  0  0  0  0  0  0  0  0  0  0  0
   41.0597   12.2988   12.2863 H   0  0  0  0  0  0  0  0  0  0  0  0
   45.2061   11.7302    9.9137 H   0  0  0  0  0  0  0  0  0  0  0  0
   41.3677   11.5415    6.9279 H   0  0  0  0  0  0  0  0  0  0  0  0
   38.2444   12.9712   11.7213 H   0  0  0  0  0  0  0  0  0  0  0  0
   39.0614   13.0270   13.2949 H   0  0  0  0  0  0  0  0  0  0  0  0
   37.5712   12.1137   13.1216 H   0  0  0  0  0  0  0  0  0  0  0  0
   38.9892    9.3689   11.2155 H   0  0  0  0  0  0  0  0  0  0  0  0
   37.5252   10.0724   11.8633 H   0  0  0  0  0  0  0  0  0  0  0  0
   38.2735   10.7911   10.4275 H   0  0  0  0  0  0  0  0  0  0  0  0
   45.5010   12.4300    7.5859 H   0  0  0  0  0  0  0  0  0  0  0  0
   43.5508   12.3530    6.0218 H   0  0  0  0  0  0  0  0  0  0  0  0
   42.1317   10.9045    9.1763 H   0  0  0  0  0  0  0  0  0  0  0  0
   42.5386   10.6126   12.2375 H   0  0  0  0  0  0  0  0  0  0  0  0
   45.6490    9.4308   11.4849 H   0  0  0  0  0  0  0  0  0  0  0  0
   39.3607   11.8647   11.8821 H   0  0  0  0  0  0  0  0  0  0  0  0
   41.6641    9.0524   10.5461 H   0  0  0  0  0  0  0  0  0  0  0  0
   42.8416   11.8905   10.9845 H   0  0  0  0  0  0  0  0  0  0  0  0
   45.9059   10.3943   10.8720 H   0  0  0  0  0  0  0  0  0  0  0  0
   39.4344   12.3386   10.9390 H   0  0  0  0  0  0  0  0  0  0  0  0
  2  4  1  0
  3  1  1  0
  4  3  2  0
  5  1  2  0
  6  2  2  0
  7  2  1  0
  8  1  1  0
 15 17  1  0
 12 15  1  0
 17 18  1  0
 11 12  1  0
 18 19  1  0
 15 16  1  0
 19 20  1  0
 19 21  1  0
 16 22  1  0
 23 24  1  0
 12 13  2  0
 10 11  2  0
 13 14  1  0
 22 23  2  0
 24 25  2  0
 25 26  1  0
 26 22  1  0
 14  9  2  0
  9 10  1  0
 28 27  1  0
 29 31  1  0
 30 29  1  0
 31 27  1  0
 32 28  2  0
 33 30  1  0
 34 29  2  0
 35 27  1  0
 36 34  1  0
 37 38  1  0
 38 35  1  0
 39 28  1  0
 40 32  1  0
 41 37  1  0
 42 37  1  0
 43 39  2  0
 44 40  2  0
 36 33  2  0
 43 44  1  0
 46 48  1  0
 47 45  1  0
 48 47  2  0
 49 45  2  0
 50 46  2  0
 51 46  1  0
 52 45  1  0
 54 56  1  0
 55 53  1  0
 56 55  2  0
 57 53  2  0
 58 54  2  0
 59 54  1  0
 60 53  1  0
  3 61  1  0
  4 62  1  0
  7 63  1  0
  8 64  1  0
  9 65  1  0
 10 66  1  0
 13 67  1  0
 14 68  1  0
 16 69  1  0
 16 70  1  0
 17 71  1  0
 17 72  1  0
 18 73  1  0
 18 74  1  0
 20 75  1  0
 20 76  1  0
 20 77  1  0
 21 78  1  0
 21 79  1  0
 21 80  1  0
 23 81  1  0
 24 82  1  0
 25 83  1  0
 31 84  1  0
 31 85  1  0
 33 86  1  0
 34 87  1  0
 35 88  1  0
 35 89  1  0
 36 90  1  0
 38 91  1  0
 38 92  1  0
 39 93  1  0
 40 94  1  0
 41 95  1  0
 41 96  1  0
 41 97  1  0
 42 98  1  0
 42 99  1  0
 42100  1  0
 43101  1  0
 44102  1  0
 47103  1  0
 48104  1  0
 51105  1  0
 52106  1  0
 55107  1  0
 56108  1  0
 59109  1  0
 60110  1  0
M  END
> <Uni-Dock RESULT> 
ENERGY=   -7.543  LOWER_BOUND=    0.000  UPPER_BOUND=    0.000
INTER + INTRA:          -7.543
INTER:                  -7.543
INTRA:                   0.000
UNBOUND:                 0.000

$$$$

     RDKit          3D

110109  0  0  0  0  0  0  0  0999 V2000
   42.0696   11.6026   10.9349 C   0  0  0  0  0  0  0  0  0  0  0  0
   45.8946   11.7293   10.7001 C   0  0  0  0  0  0  0  0  0  0  0  0
   43.4986   11.3543   11.1613 C   0  0  0  0  0  0  0  0  0  0  0  0
   44.4675   11.9766   10.4747 C   0  0  0  0  0  0  0  0  0  0  0  0
   41.1692   11.0425   11.5327 O   0  0  0  0  0  0  0  0  0  0  0  0
   46.7901   12.2737   10.0814 O   0  0  0  0  0  0  0  0  0  0  0  0
   46.1473   10.8389   11.6712 O   0  0  0  0  0  0  0  0  0  0  0  0
   41.8188   12.5248    9.9939 O   0  0  0  0  0  0  0  0  0  0  0  0
   43.4934   11.7887    6.7360 C   0  0  0  0  0  0  0  0  0  0  0  0
   44.1865   10.9607    7.5887 C   0  0  0  0  0  0  0  0  0  0  0  0
   44.2663   11.1514    8.9254 N   0  0  0  0  0  0  0  0  0  0  0  0
   43.6325   12.2075    9.4879 C   0  0  0  0  0  0  0  0  0  0  0  0
   42.9193   13.0884    8.6735 C   0  0  0  0  0  0  0  0  0  0  0  0
   42.8486   12.8789    7.2928 C   0  0  0  0  0  0  0  0  0  0  0  0
   43.7410   12.3747   10.8593 N   0  0  0  0  0  0  0  0  0  0  0  0
   42.7780   13.1572   11.6373 C   0  0  0  0  0  0  0  0  0  0  0  0
   44.5515   11.3970   11.6050 C   0  0  0  0  0  0  0  0  0  0  0  0
   46.0532   11.7554   11.5157 C   0  0  0  0  0  0  0  0  0  0  0  0
   46.9209   11.0334   12.4760 N   0  0  0  0  0  0  0  0  0  0  0  0
   46.9021    9.5906   12.2373 C   0  0  0  0  0  0  0  0  0  0  0  0
   48.2907   11.5370   12.3697 C   0  0  0  0  0  0  0  0  0  0  0  0
   41.4395   12.5124   11.9095 C   0  0  0  0  0  0  0  0  0  0  0  0
   40.8999   11.3412   11.4112 C   0  0  0  0  0  0  0  0  0  0  0  0
   39.5966   11.0742   11.9240 C   0  0  0  0  0  0  0  0  0  0  0  0
   39.1798   12.0493   12.8000 C   0  0  0  0  0  0  0  0  0  0  0  0
   40.3505   13.2785   12.9982 S   0  0  0  0  0  0  0  0  0  0  0  0
   43.5362   11.5179   10.6953 N   0  0  0  0  0  0  0  0  0  0  0  0
   43.5513   12.1451    9.4639 C   0  0  0  0  0  0  0  0  0  0  0  0
   41.2833   10.8493   11.5578 C   0  0  0  0  0  0  0  0  0  0  0  0
   39.8399   10.1193   10.9903 S   0  0  0  0  0  0  0  0  0  0  0  0
   42.6257   10.4206   11.0243 C   0  0  0  0  0  0  0  0  0  0  0  0
   44.5837   12.9759    9.1909 N   0  0  0  0  0  0  0  0  0  0  0  0
   38.8677   11.0792   12.0145 C   0  0  0  0  0  0  0  0  0  0  0  0
   41.0143   11.7972   12.5272 C   0  0  0  0  0  0  0  0  0  0  0  0
   44.6258   11.8052   11.6394 C   0  0  0  0  0  0  0  0  0  0  0  0
   39.6249   11.9253   12.7954 C   0  0  0  0  0  0  0  0  0  0  0  0
   46.9300   11.0213   12.3867 N   0  0  0  0  0  0  0  0  0  0  0  0
   45.9056   10.9987   11.3141 C   0  0  0  0  0  0  0  0  0  0  0  0
   42.5476   11.9625    8.5109 C   0  0  0  0  0  0  0  0  0  0  0  0
   44.6297   13.6030    7.9941 C   0  0  0  0  0  0  0  0  0  0  0  0
   48.0218   10.1033   12.0470 C   0  0  0  0  0  0  0  0  0  0  0  0
   47.4660   12.3716   12.5751 C   0  0  0  0  0  0  0  0  0  0  0  0
   42.6118   12.6136    7.2769 C   0  0  0  0  0  0  0  0  0  0  0  0
   43.6786   13.4524    7.0091 C   0  0  0  0  0  0  0  0  0  0  0  0
   45.9505   11.8603   10.6400 C   0  0  0  0  0  0  0  0  0  0  0  0
   42.1599   12.0190   10.7151 C   0  0  0  0  0  0  0  0  0  0  0  0
   44.5473   12.1945   10.3858 C   0  0  0  0  0  0  0  0  0  0  0  0
   43.5305   11.6220   11.0427 C   0  0  0  0  0  0  0  0  0  0  0  0
   46.8925   12.3622   10.0554 O   0  0  0  0  0  0  0  0  0  0  0  0
   41.8080   12.8348    9.8861 O   0  0  0  0  0  0  0  0  0  0  0  0
   41.2873   11.3419   11.4763 O   0  0  0  0  0  0  0  0  0  0  0  0
   46.1244   10.9357   11.5962 O   0  0  0  0  0  0  0  0  0  0  0  0
   45.8973   12.2254   11.3087 C   0  0  0  0  0  0  0  0  0  0  0  0
   42.1583   12.0045   10.6916 C   0  0  0  0  0  0  0  0  0  0  0  0
   44.4499   12.4548   11.3123 C   0  0  0  0  0  0  0  0  0  0  0  0
   43.5879   11.6949   10.6240 C   0  0  0  0  0  0  0  0  0  0  0  0
   46.7014   12.8970   11.9284 O   0  0  0  0  0  0  0  0  0  0  0  0
   41.6271   12.9014   11.3161 O   0  0  0  0  0  0  0  0  0  0  0  0
   41.4615   11.1367    9.9440 O   0  0  0  0  0  0  0  0  0  0  0  0
   46.2805   11.1888   10.5491 O   0  0  0  0  0  0  0  0  0  0  0  0
   43.7096   10.6223   11.9341 H   0  0  0  0  0  0  0  0  0  0  0  0
   44.2533   12.7111    9.7055 H   0  0  0  0  0  0  0  0  0  0  0  0
   47.1265   10.7874   11.6887 H   0  0  0  0  0  0  0  0  0  0  0  0
   40.8392   12.5672    9.9609 H   0  0  0  0  0  0  0  0  0  0  0  0
   43.4599   11.5918    5.6690 H   0  0  0  0  0  0  0  0  0  0  0  0
   44.7166   10.0901    7.2152 H   0  0  0  0  0  0  0  0  0  0  0  0
   42.4208   13.9580    9.0778 H   0  0  0  0  0  0  0  0  0  0  0  0
   42.2973   13.5741    6.6671 H   0  0  0  0  0  0  0  0  0  0  0  0
   43.2434   13.3969   12.6059 H   0  0  0  0  0  0  0  0  0  0  0  0
   42.6203   14.1387   11.1739 H   0  0  0  0  0  0  0  0  0  0  0  0
   44.3597   10.3721   11.2595 H   0  0  0  0  0  0  0  0  0  0  0  0
   44.2625   11.4058   12.6652 H   0  0  0  0  0  0  0  0  0  0  0  0
   46.4186   11.6150   10.4901 H   0  0  0  0  0  0  0  0  0  0  0  0
   46.1382   12.8279   11.7231 H   0  0  0  0  0  0  0  0  0  0  0  0
   47.5857    9.0821   12.9265 H   0  0  0  0  0  0  0  0  0  0  0  0
   45.9115    9.1675   12.4311 H   0  0  0  0  0  0  0  0  0  0  0  0
   47.1949    9.3317   11.2131 H   0  0  0  0  0  0  0  0  0  0  0  0
   48.7254   11.3462   11.3795 H   0  0  0  0  0  0  0  0  0  0  0  0
   48.3318   12.6176   12.5646 H   0  0  0  0  0  0  0  0  0  0  0  0
   48.9314   11.0593   13.1216 H   0  0  0  0  0  0  0  0  0  0  0  0
   41.4217   10.7035   10.7105 H   0  0  0  0  0  0  0  0  0  0  0  0
   39.0018   10.2088   11.6610 H   0  0  0  0  0  0  0  0  0  0  0  0
   38.2426   12.0979   13.3356 H   0  0  0  0  0  0  0  0  0  0  0  0
   43.0854    9.7867   11.7984 H   0  0  0  0  0  0  0  0  0  0  0  0
   42.5093    9.7491   10.1630 H   0  0  0  0  0  0  0  0  0  0  0  0
   37.7917   10.9697   12.0054 H   0  0  0  0  0  0  0  0  0  0  0  0
   41.7888   12.3754   13.0175 H   0  0  0  0  0  0  0  0  0  0  0  0
   44.2931   11.5519   12.6544 H   0  0  0  0  0  0  0  0  0  0  0  0
   44.8333   12.8817   11.6673 H   0  0  0  0  0  0  0  0  0  0  0  0
   39.1939   12.6090   13.5146 H   0  0  0  0  0  0  0  0  0  0  0  0
   46.3432   11.3472   10.3673 H   0  0  0  0  0  0  0  0  0  0  0  0
   45.6041    9.9535   11.1524 H   0  0  0  0  0  0  0  0  0  0  0  0
   41.6960   11.3229    8.7037 H   0  0  0  0  0  0  0  0  0  0  0  0
   45.4895   14.2491    7.8486 H   0  0  0  0  0  0  0  0  0  0  0  0
   48.5209   10.3878   11.1160 H   0  0  0  0  0  0  0  0  0  0  0  0
   47.6449    9.0827   11.9384 H   0  0  0  0  0  0  0  0  0  0  0  0
   48.7689   10.0812   12.8463 H   0  0  0  0  0  0  0  0  0  0  0  0
   46.6945   13.0589   12.9371 H   0  0  0  0  0  0  0  0  0  0  0  0
   48.2517   12.3712   13.3372 H   0  0  0  0  0  0  0  0  0  0  0  0
   47.8908   12.7840   11.6528 H   0  0  0  0  0  0  0  0  0  0  0  0
   41.8266   12.4653    6.5419 H   0  0  0  0  0  0  0  0  0  0  0  0
   43.7637   13.9730    6.0624 H   0  0  0  0  0  0  0  0  0  0  0  0
   44.3867   12.9389    9.6127 H   0  0  0  0  0  0  0  0  0  0  0  0
   43.6686   10.8746   11.8139 H   0  0  0  0  0  0  0  0  0  0  0  0
   40.4123   11.6776   11.1893 H   0  0  0  0  0  0  0  0  0  0  0  0
   47.0981   10.8290   11.6423 H   0  0  0  0  0  0  0  0  0  0  0  0
   44.1220   13.2918   11.9215 H   0  0  0  0  0  0  0  0  0  0  0  0
   43.8939   10.8550   10.0128 H   0  0  0  0  0  0  0  0  0  0  0  0
   40.5294   11.4202   10.0536 H   0  0  0  0  0  0  0  0  0  0  0  0
   47.2556   11.1709   10.6536 H   0  0  0  0  0  0  0  0  0  0  0  0
  2  4  1  0
  3  1  1  0
  4  3  2  0
  5  1  2  0
  6  2  2  0
  7  2  1  0
  8  1  1  0
 15 17  1  0
 12 15  1  0
 17 18  1  0
 11 12  1  0
 18 19  1  0
 15 16  1  0
 19 20  1  0
 19 21  1  0
 16 22  1  0
 23 24  1  0
 12 13  2  0
 10 11  2  0
 13 14  1  0
 22 23  2  0
 24 25  2  0
 25 26  1  0
 26 22  1  0
 14  9  2  0
  9 10  1  0
 28 27  1  0
 29 31  1  0
 30 29  1  0
 31 27  1  0
 32 28  2  0
 33 30  1  0
 34 29  2  0
 35 27  1  0
 36 34  1  0
 37 38  1  0
 38 35  1  0
 39 28  1  0
 40 32  1  0
 41 37  1  0
 42 37  1  0
 43 39  2  0
 44 40  2  0
 36 33  2  0
 43 44  1  0
 46 48  1  0
 47 45  1  0
 48 47  2  0
 49 45  2  0
 50 46  2  0
 51 46  1  0
 52 45  1  0
 54 56  1  0
 55 53  1  0
 56 55  2  0
 57 53  2  0
 58 54  2  0
 59 54  1  0
 60 53  1  0
  3 61  1  0
  4 62  1  0
  7 63  1  0
  8 64  1  0
  9 65  1  0
 10 66  1  0
 13 67  1  0
 14 68  1  0
 16 69  1  0
 16 70  1  0
 17 71  1  0
 17 72  1  0
 18 73  1  0
 18 74  1  0
 20 75  1  0
 20 76  1  0
 20 77  1  0
 21 78  1  0
 21 79  1  0
 21 80  1  0
 23 81  1  0
 24 82  1  0
 25 83  1  0
 31 84  1  0
 31 85  1  0
 33 86  1  0
 34 87  1  0
 35 88  1  0
 35 89  1  0
 36 90  1  0
 38 91  1  0
 38 92  1  0
 39 93  1  0
 40 94  1  0
 41 95  1  0
 41 96  1  0
 41 97  1  0
 42 98  1  0
 42 99  1  0
 42100  1  0
 43101  1  0
 44102  1  0
 47103  1  0
 48104  1  0
 51105  1  0
 52106  1  0
 55107  1  0
 56108  1  0
 59109  1  0
 60110  1  0
M  END
> <Uni-Dock RESULT> 
ENERGY=   -6.883  LOWER_BOUND=    2.042  UPPER_BOUND=    5.149
INTER + INTRA:          -6.883
INTER:                  -6.883
INTRA:                   0.000
UNBOUND:                 0.000

$$$$

     RDKit          3D

110109  0  0  0  0  0  0  0  0999 V2000
   48.0715    7.5888   12.4172 C   0  0  0  0  0  0  0  0  0  0  0  0
   51.5188    8.9250   11.4007 C   0  0  0  0  0  0  0  0  0  0  0  0
   49.3963    7.7294   11.8006 C   0  0  0  0  0  0  0  0  0  0  0  0
   50.1959    8.7839   12.0159 C   0  0  0  0  0  0  0  0  0  0  0  0
   47.3193    6.6506   12.2287 O   0  0  0  0  0  0  0  0  0  0  0  0
   52.2560    9.8779   11.5729 O   0  0  0  0  0  0  0  0  0  0  0  0
   51.8692    7.8936   10.6178 O   0  0  0  0  0  0  0  0  0  0  0  0
   47.7402    8.5999   13.2338 O   0  0  0  0  0  0  0  0  0  0  0  0
   48.0137   11.9510   11.6043 C   0  0  0  0  0  0  0  0  0  0  0  0
   48.7416   11.1692   10.7372 C   0  0  0  0  0  0  0  0  0  0  0  0
   49.3048    9.9879   11.0789 N   0  0  0  0  0  0  0  0  0  0  0  0
   49.1562    9.5176   12.3399 C   0  0  0  0  0  0  0  0  0  0  0  0
   48.4349   10.2698   13.2683 C   0  0  0  0  0  0  0  0  0  0  0  0
   47.8610   11.4906   12.9001 C   0  0  0  0  0  0  0  0  0  0  0  0
   49.7517    8.3068   12.6558 N   0  0  0  0  0  0  0  0  0  0  0  0
   49.3112    7.4811   13.7824 C   0  0  0  0  0  0  0  0  0  0  0  0
   50.5167    7.6250   11.5982 C   0  0  0  0  0  0  0  0  0  0  0  0
   51.9421    8.2154   11.4920 C   0  0  0  0  0  0  0  0  0  0  0  0
   52.8899    7.4066   10.6896 N   0  0  0  0  0  0  0  0  0  0  0  0
   52.4612    7.3032    9.2952 C   0  0  0  0  0  0  0  0  0  0  0  0
   54.2224    8.0077   10.7567 C   0  0  0  0  0  0  0  0  0  0  0  0
   48.0303    6.7028   13.5953 C   0  0  0  0  0  0  0  0  0  0  0  0
   47.1012    6.7536   12.5728 C   0  0  0  0  0  0  0  0  0  0  0  0
   46.0198    5.8449   12.7666 C   0  0  0  0  0  0  0  0  0  0  0  0
   46.1555    5.1261   13.9314 C   0  0  0  0  0  0  0  0  0  0  0  0
   47.5745    5.5479   14.7854 S   0  0  0  0  0  0  0  0  0  0  0  0
   49.3127    8.2110   11.8805 N   0  0  0  0  0  0  0  0  0  0  0  0
   49.0595    9.5030   12.3010 C   0  0  0  0  0  0  0  0  0  0  0  0
   47.3876    6.6167   12.0162 C   0  0  0  0  0  0  0  0  0  0  0  0
   45.7107    6.5727   11.6631 S   0  0  0  0  0  0  0  0  0  0  0  0
   48.3379    7.4011   11.1490 C   0  0  0  0  0  0  0  0  0  0  0  0
   50.1032   10.2362   12.7525 N   0  0  0  0  0  0  0  0  0  0  0  0
   45.3848    5.5541   12.9943 C   0  0  0  0  0  0  0  0  0  0  0  0
   47.6833    5.8468   13.1254 C   0  0  0  0  0  0  0  0  0  0  0  0
   50.6900    7.7048   11.9682 C   0  0  0  0  0  0  0  0  0  0  0  0
   46.5324    5.2296   13.6848 C   0  0  0  0  0  0  0  0  0  0  0  0
   52.8657    7.4897   10.6632 N   0  0  0  0  0  0  0  0  0  0  0  0
   51.5658    8.1932   10.7898 C   0  0  0  0  0  0  0  0  0  0  0  0
   47.7818   10.0653   12.2864 C   0  0  0  0  0  0  0  0  0  0  0  0
   49.8899   11.5046   13.1686 C   0  0  0  0  0  0  0  0  0  0  0  0
   53.5391    7.9133    9.4315 C   0  0  0  0  0  0  0  0  0  0  0  0
   53.7290    7.7667   11.8138 C   0  0  0  0  0  0  0  0  0  0  0  0
   47.5782   11.3789   12.7149 C   0  0  0  0  0  0  0  0  0  0  0  0
   48.6568   12.1189   13.1649 C   0  0  0  0  0  0  0  0  0  0  0  0
   51.5799    9.0261   11.5005 C   0  0  0  0  0  0  0  0  0  0  0  0
   48.1764    7.9121   12.7554 C   0  0  0  0  0  0  0  0  0  0  0  0
   50.2892    8.9379   12.1871 C   0  0  0  0  0  0  0  0  0  0  0  0
   49.4475    7.9086   12.0287 C   0  0  0  0  0  0  0  0  0  0  0  0
   52.3612    9.9510   11.6235 O   0  0  0  0  0  0  0  0  0  0  0  0
   47.7656    8.7662   13.5158 O   0  0  0  0  0  0  0  0  0  0  0  0
   47.4773    6.8034   12.4705 O   0  0  0  0  0  0  0  0  0  0  0  0
   51.8456    7.9785   10.7059 O   0  0  0  0  0  0  0  0  0  0  0  0
   51.8385    8.4686   11.9538 C   0  0  0  0  0  0  0  0  0  0  0  0
   48.1638    7.9303   12.7389 C   0  0  0  0  0  0  0  0  0  0  0  0
   50.5694    8.1041   12.5895 C   0  0  0  0  0  0  0  0  0  0  0  0
   49.3769    8.3316   12.0236 C   0  0  0  0  0  0  0  0  0  0  0  0
   52.9349    8.2689   12.4433 O   0  0  0  0  0  0  0  0  0  0  0  0
   48.0931    7.3960   13.8280 O   0  0  0  0  0  0  0  0  0  0  0  0
   47.0777    8.2362   12.0148 O   0  0  0  0  0  0  0  0  0  0  0  0
   51.6968    9.0555   10.7564 O   0  0  0  0  0  0  0  0  0  0  0  0
   49.6789    6.9062   11.1525 H   0  0  0  0  0  0  0  0  0  0  0  0
   49.9121    9.6034   12.6678 H   0  0  0  0  0  0  0  0  0  0  0  0
   52.7583    8.1446   10.2888 H   0  0  0  0  0  0  0  0  0  0  0  0
   46.8434    8.3611   13.5522 H   0  0  0  0  0  0  0  0  0  0  0  0
   47.5815   12.8926   11.2806 H   0  0  0  0  0  0  0  0  0  0  0  0
   48.9012   11.4749    9.7078 H   0  0  0  0  0  0  0  0  0  0  0  0
   48.3142    9.9441   14.2917 H   0  0  0  0  0  0  0  0  0  0  0  0
   47.3080   12.0715   13.6318 H   0  0  0  0  0  0  0  0  0  0  0  0
   50.1152    6.7637   14.0085 H   0  0  0  0  0  0  0  0  0  0  0  0
   49.2380    8.0864   14.6940 H   0  0  0  0  0  0  0  0  0  0  0  0
   49.9904    7.6648   10.6349 H   0  0  0  0  0  0  0  0  0  0  0  0
   50.6086    6.5560   11.8359 H   0  0  0  0  0  0  0  0  0  0  0  0
   51.9014    9.2446   11.1123 H   0  0  0  0  0  0  0  0  0  0  0  0
   52.3357    8.2846   12.5122 H   0  0  0  0  0  0  0  0  0  0  0  0
   53.1993    6.7421    8.7109 H   0  0  0  0  0  0  0  0  0  0  0  0
   51.5231    6.7463    9.2070 H   0  0  0  0  0  0  0  0  0  0  0  0
   52.3273    8.2840    8.8243 H   0  0  0  0  0  0  0  0  0  0  0  0
   54.2452    9.0124   10.3141 H   0  0  0  0  0  0  0  0  0  0  0  0
   54.5735    8.0777   11.7955 H   0  0  0  0  0  0  0  0  0  0  0  0
   54.9492    7.3827   10.2227 H   0  0  0  0  0  0  0  0  0  0  0  0
   47.1976    7.4138   11.7214 H   0  0  0  0  0  0  0  0  0  0  0  0
   45.1891    5.7285   12.0821 H   0  0  0  0  0  0  0  0  0  0  0  0
   45.4888    4.3707   14.3218 H   0  0  0  0  0  0  0  0  0  0  0  0
   48.8709    6.6693   10.5223 H   0  0  0  0  0  0  0  0  0  0  0  0
   47.7895    8.0218   10.4278 H   0  0  0  0  0  0  0  0  0  0  0  0
   44.3730    5.2319   13.1999 H   0  0  0  0  0  0  0  0  0  0  0  0
   48.6880    5.7386   13.5172 H   0  0  0  0  0  0  0  0  0  0  0  0
   50.6666    6.6073   11.9640 H   0  0  0  0  0  0  0  0  0  0  0  0
   51.1366    7.9771   12.9321 H   0  0  0  0  0  0  0  0  0  0  0  0
   46.5357    4.5882   14.5560 H   0  0  0  0  0  0  0  0  0  0  0  0
   51.7298    9.2781   10.8634 H   0  0  0  0  0  0  0  0  0  0  0  0
   50.9959    8.0259    9.8643 H   0  0  0  0  0  0  0  0  0  0  0  0
   46.9207    9.5009   11.9529 H   0  0  0  0  0  0  0  0  0  0  0  0
   50.7758   12.0287   13.5125 H   0  0  0  0  0  0  0  0  0  0  0  0
   53.7498    8.9868    9.4288 H   0  0  0  0  0  0  0  0  0  0  0  0
   52.9236    7.6804    8.5584 H   0  0  0  0  0  0  0  0  0  0  0  0
   54.4839    7.3758    9.3050 H   0  0  0  0  0  0  0  0  0  0  0  0
   53.3028    7.3623   12.7376 H   0  0  0  0  0  0  0  0  0  0  0  0
   54.7017    7.2797   11.6915 H   0  0  0  0  0  0  0  0  0  0  0  0
   53.9042    8.8394   11.9549 H   0  0  0  0  0  0  0  0  0  0  0  0
   46.5809   11.8078   12.6999 H   0  0  0  0  0  0  0  0  0  0  0  0
   48.5382   13.1416   13.5032 H   0  0  0  0  0  0  0  0  0  0  0  0
   50.0555    9.7785   12.8324 H   0  0  0  0  0  0  0  0  0  0  0  0
   49.6593    7.0627   11.3869 H   0  0  0  0  0  0  0  0  0  0  0  0
   46.6588    6.8964   13.0017 H   0  0  0  0  0  0  0  0  0  0  0  0
   52.7265    8.1890   10.3300 H   0  0  0  0  0  0  0  0  0  0  0  0
   50.6656    7.6286   13.5610 H   0  0  0  0  0  0  0  0  0  0  0  0
   49.2593    8.8019   11.0552 H   0  0  0  0  0  0  0  0  0  0  0  0
   46.3274    7.9316   12.5677 H   0  0  0  0  0  0  0  0  0  0  0  0
   52.6189    9.2318   10.4724 H   0  0  0  0  0  0  0  0  0  0  0  0
  2  4  1  0
  3  1  1  0
  4  3  2  0
  5  1  2  0
  6  2  2  0
  7  2  1  0
  8  1  1  0
 15 17  1  0
 12 15  1  0
 17 18  1  0
 11 12  1  0
 18 19  1  0
 15 16  1  0
 19 20  1  0
 19 21  1  0
 16 22  1  0
 23 24  1  0
 12 13  2  0
 10 11  2  0
 13 14  1  0
 22 23  2  0
 24 25  2  0
 25 26  1  0
 26 22  1  0
 14  9  2  0
  9 10  1  0
 28 27  1  0
 29 31  1  0
 30 29  1  0
 31 27  1  0
 32 28  2  0
 33 30  1  0
 34 29  2  0
 35 27  1  0
 36 34  1  0
 37 38  1  0
 38 35  1  0
 39 28  1  0
 40 32  1  0
 41 37  1  0
 42 37  1  0
 43 39  2  0
 44 40  2  0
 36 33  2  0
 43 44  1  0
 46 48  1  0
 47 45  1  0
 48 47  2  0
 49 45  2  0
 50 46  2  0
 51 46  1  0
 52 45  1  0
 54 56  1  0
 55 53  1  0
 56 55  2  0
 57 53  2  0
 58 54  2  0
 59 54  1  0
 60 53  1  0
  3 61  1  0
  4 62  1  0
  7 63  1  0
  8 64  1  0
  9 65  1  0
 10 66  1  0
 13 67  1  0
 14 68  1  0
 16 69  1  0
 16 70  1  0
 17 71  1  0
 17 72  1  0
 18 73  1  0
 18 74  1  0
 20 75  1  0
 20 76  1  0
 20 77  1  0
 21 78  1  0
 21 79  1  0
 21 80  1  0
 23 81  1  0
 24 82  1  0
 25 83  1  0
 31 84  1  0
 31 85  1  0
 33 86  1  0
 34 87  1  0
 35 88  1  0
 35 89  1  0
 36 90  1  0
 38 91  1  0
 38 92  1  0
 39 93  1  0
 40 94  1  0
 41 95  1  0
 41 96  1  0
 41 97  1  0
 42 98  1  0
 42 99  1  0
 42100  1  0
 43101  1  0
 44102  1  0
 47103  1  0
 48104  1  0
 51105  1  0
 52106  1  0
 55107  1  0
 56108  1  0
 59109  1  0
 60110  1  0
M  END
> <Uni-Dock RESULT> 
ENERGY=   -6.630  LOWER_BOUND=    6.012  UPPER_BOUND=    8.866
INTER + INTRA:          -6.630
INTER:                  -6.630
INTRA:                   0.000
UNBOUND:                 0.000

$$$$

     RDKit          3D

110109  0  0  0  0  0  0  0  0999 V2000
   51.1090    5.7602   17.9085 C   0  0  0  0  0  0  0  0  0  0  0  0
   48.8910    5.4189   21.0175 C   0  0  0  0  0  0  0  0  0  0  0  0
   50.4318    6.0199   19.1848 C   0  0  0  0  0  0  0  0  0  0  0  0
   49.5675    5.1604   19.7432 C   0  0  0  0  0  0  0  0  0  0  0  0
   51.8864    6.5277   17.3717 O   0  0  0  0  0  0  0  0  0  0  0  0
   48.0949    4.6588   21.5369 O   0  0  0  0  0  0  0  0  0  0  0  0
   49.2294    6.5849   21.5882 O   0  0  0  0  0  0  0  0  0  0  0  0
   50.8029    4.5751   17.3602 O   0  0  0  0  0  0  0  0  0  0  0  0
   47.1254    4.0524   16.9556 C   0  0  0  0  0  0  0  0  0  0  0  0
   47.1526    5.1021   17.8447 C   0  0  0  0  0  0  0  0  0  0  0  0
   48.2102    5.3925   18.6362 N   0  0  0  0  0  0  0  0  0  0  0  0
   49.3249    4.6268   18.5682 C   0  0  0  0  0  0  0  0  0  0  0  0
   49.3552    3.5419   17.6907 C   0  0  0  0  0  0  0  0  0  0  0  0
   48.2524    3.2531   16.8810 C   0  0  0  0  0  0  0  0  0  0  0  0
   50.3867    4.9505   19.3979 N   0  0  0  0  0  0  0  0  0  0  0  0
   51.7615    4.5286   19.1208 C   0  0  0  0  0  0  0  0  0  0  0  0
   50.2195    6.0980   20.3056 C   0  0  0  0  0  0  0  0  0  0  0  0
   49.4482    5.6765   21.5780 C   0  0  0  0  0  0  0  0  0  0  0  0
   49.4978    6.6587   22.6867 N   0  0  0  0  0  0  0  0  0  0  0  0
   48.8674    7.9241   22.3120 C   0  0  0  0  0  0  0  0  0  0  0  0
   48.8305    6.1003   23.8632 C   0  0  0  0  0  0  0  0  0  0  0  0
   52.4965    5.2765   18.0335 C   0  0  0  0  0  0  0  0  0  0  0  0
   52.0321    6.2153   17.1313 C   0  0  0  0  0  0  0  0  0  0  0  0
   53.0543    6.6937   16.2601 C   0  0  0  0  0  0  0  0  0  0  0  0
   54.2698    6.1064   16.5236 C   0  0  0  0  0  0  0  0  0  0  0  0
   54.1764    4.9842   17.8092 S   0  0  0  0  0  0  0  0  0  0  0  0
   50.1000    5.7012   19.0013 N   0  0  0  0  0  0  0  0  0  0  0  0
   49.3307    4.6796   18.4774 C   0  0  0  0  0  0  0  0  0  0  0  0
   51.7832    6.7130   17.4490 C   0  0  0  0  0  0  0  0  0  0  0  0
   51.8943    7.2480   15.8243 S   0  0  0  0  0  0  0  0  0  0  0  0
   50.5044    6.8765   18.2290 C   0  0  0  0  0  0  0  0  0  0  0  0
   48.8198    3.7688   19.3376 N   0  0  0  0  0  0  0  0  0  0  0  0
   53.5218    6.7475   15.6961 C   0  0  0  0  0  0  0  0  0  0  0  0
   52.9827    6.1787   17.8806 C   0  0  0  0  0  0  0  0  0  0  0  0
   50.3346    5.7258   20.4523 C   0  0  0  0  0  0  0  0  0  0  0  0
   53.9857    6.2044   16.8746 C   0  0  0  0  0  0  0  0  0  0  0  0
   49.4195    6.6382   22.6461 N   0  0  0  0  0  0  0  0  0  0  0  0
   49.1329    6.3183   21.2262 C   0  0  0  0  0  0  0  0  0  0  0  0
   49.0754    4.5508   17.1109 C   0  0  0  0  0  0  0  0  0  0  0  0
   48.0605    2.7585   18.8576 C   0  0  0  0  0  0  0  0  0  0  0  0
   48.2734    7.3367   23.2365 C   0  0  0  0  0  0  0  0  0  0  0  0
   49.7009    5.4227   23.4137 C   0  0  0  0  0  0  0  0  0  0  0  0
   48.2849    3.5043   16.6308 C   0  0  0  0  0  0  0  0  0  0  0  0
   47.7619    2.5865   17.5238 C   0  0  0  0  0  0  0  0  0  0  0  0
   48.8552    5.2732   21.0546 C   0  0  0  0  0  0  0  0  0  0  0  0
   51.0200    5.2899   17.9381 C   0  0  0  0  0  0  0  0  0  0  0  0
   49.5237    4.9224   19.7996 C   0  0  0  0  0  0  0  0  0  0  0  0
   50.4065    5.7266   19.1937 C   0  0  0  0  0  0  0  0  0  0  0  0
   48.0470    4.5633   21.6237 O   0  0  0  0  0  0  0  0  0  0  0  0
   50.8225    4.2475   17.3457 O   0  0  0  0  0  0  0  0  0  0  0  0
   51.8727    6.2235   17.4904 O   0  0  0  0  0  0  0  0  0  0  0  0
   49.2140    6.4687   21.5459 O   0  0  0  0  0  0  0  0  0  0  0  0
   49.5197    5.1698   21.4163 C   0  0  0  0  0  0  0  0  0  0  0  0
   50.9980    5.2953   17.9222 C   0  0  0  0  0  0  0  0  0  0  0  0
   50.3801    5.0095   20.2408 C   0  0  0  0  0  0  0  0  0  0  0  0
   50.0723    5.5086   19.0365 C   0  0  0  0  0  0  0  0  0  0  0  0
   49.7777    4.7312   22.5221 O   0  0  0  0  0  0  0  0  0  0  0  0
   52.0552    4.6965   17.9466 O   0  0  0  0  0  0  0  0  0  0  0  0
   50.5204    5.8683   16.8083 O   0  0  0  0  0  0  0  0  0  0  0  0
   48.3937    5.8569   21.1750 O   0  0  0  0  0  0  0  0  0  0  0  0
   50.6884    6.9693   19.6435 H   0  0  0  0  0  0  0  0  0  0  0  0
   49.3162    4.2100   19.2841 H   0  0  0  0  0  0  0  0  0  0  0  0
   48.6957    6.6033   22.4107 H   0  0  0  0  0  0  0  0  0  0  0  0
   51.3220    4.5596   16.5279 H   0  0  0  0  0  0  0  0  0  0  0  0
   46.2508    3.8612   16.3419 H   0  0  0  0  0  0  0  0  0  0  0  0
   46.2997    5.7649   17.9540 H   0  0  0  0  0  0  0  0  0  0  0  0
   50.2145    2.8898   17.6238 H   0  0  0  0  0  0  0  0  0  0  0  0
   48.2834    2.4026   16.2070 H   0  0  0  0  0  0  0  0  0  0  0  0
   52.3388    4.6293   20.0529 H   0  0  0  0  0  0  0  0  0  0  0  0
   51.7955    3.4532   18.9080 H   0  0  0  0  0  0  0  0  0  0  0  0
   49.7315    6.9414   19.7984 H   0  0  0  0  0  0  0  0  0  0  0  0
   51.2047    6.4746   20.6145 H   0  0  0  0  0  0  0  0  0  0  0  0
   48.4072    5.4325   21.3298 H   0  0  0  0  0  0  0  0  0  0  0  0
   49.9017    4.7439   21.9317 H   0  0  0  0  0  0  0  0  0  0  0  0
   48.8730    8.6178   23.1604 H   0  0  0  0  0  0  0  0  0  0  0  0
   49.4224    8.4243   21.5122 H   0  0  0  0  0  0  0  0  0  0  0  0
   47.8294    7.7941   21.9843 H   0  0  0  0  0  0  0  0  0  0  0  0
   47.7635    5.9133   23.6833 H   0  0  0  0  0  0  0  0  0  0  0  0
   49.3006    5.1572   24.1749 H   0  0  0  0  0  0  0  0  0  0  0  0
   48.9180    6.7888   24.7131 H   0  0  0  0  0  0  0  0  0  0  0  0
   51.0024    6.5453   17.1019 H   0  0  0  0  0  0  0  0  0  0  0  0
   52.8994    7.4318   15.4834 H   0  0  0  0  0  0  0  0  0  0  0  0
   55.2106    6.2842   16.0227 H   0  0  0  0  0  0  0  0  0  0  0  0
   50.6580    7.7255   18.9131 H   0  0  0  0  0  0  0  0  0  0  0  0
   49.6853    7.2046   17.5751 H   0  0  0  0  0  0  0  0  0  0  0  0
   54.0639    6.8861   14.7705 H   0  0  0  0  0  0  0  0  0  0  0  0
   53.1266    5.7828   18.8791 H   0  0  0  0  0  0  0  0  0  0  0  0
   51.2256    6.3330   20.6583 H   0  0  0  0  0  0  0  0  0  0  0  0
   50.5830    4.7216   20.8163 H   0  0  0  0  0  0  0  0  0  0  0  0
   54.9950    5.8347   16.9973 H   0  0  0  0  0  0  0  0  0  0  0  0
   48.2680    5.6424   21.1591 H   0  0  0  0  0  0  0  0  0  0  0  0
   48.8411    7.2494   20.7190 H   0  0  0  0  0  0  0  0  0  0  0  0
   49.4861    5.2479   16.3920 H   0  0  0  0  0  0  0  0  0  0  0  0
   47.6844    2.0716   19.6090 H   0  0  0  0  0  0  0  0  0  0  0  0
   47.3673    6.7239   23.2188 H   0  0  0  0  0  0  0  0  0  0  0  0
   48.0717    8.2663   22.6976 H   0  0  0  0  0  0  0  0  0  0  0  0
   48.4835    7.6121   24.2746 H   0  0  0  0  0  0  0  0  0  0  0  0
   50.6179    4.9360   23.0660 H   0  0  0  0  0  0  0  0  0  0  0  0
   49.8680    5.6632   24.4684 H   0  0  0  0  0  0  0  0  0  0  0  0
   48.8823    4.6961   23.3589 H   0  0  0  0  0  0  0  0  0  0  0  0
   48.0919    3.4122   15.5664 H   0  0  0  0  0  0  0  0  0  0  0  0
   47.1426    1.7626   17.1890 H   0  0  0  0  0  0  0  0  0  0  0  0
   49.2434    3.9595   19.3851 H   0  0  0  0  0  0  0  0  0  0  0  0
   50.6966    6.6924   19.5878 H   0  0  0  0  0  0  0  0  0  0  0  0
   52.2298    5.8405   16.6619 H   0  0  0  0  0  0  0  0  0  0  0  0
   48.6881    6.5491   22.3696 H   0  0  0  0  0  0  0  0  0  0  0  0
   51.2961    4.4540   20.4181 H   0  0  0  0  0  0  0  0  0  0  0  0
   49.1656    6.0671   18.8394 H   0  0  0  0  0  0  0  0  0  0  0  0
   51.2008    5.6760   16.1290 H   0  0  0  0  0  0  0  0  0  0  0  0
   47.9404    5.8748   22.0446 H   0  0  0  0  0  0  0  0  0  0  0  0
  2  4  1  0
  3  1  1  0
  4  3  2  0
  5  1  2  0
  6  2  2  0
  7  2  1  0
  8  1  1  0
 15 17  1  0
 12 15  1  0
 17 18  1  0
 11 12  1  0
 18 19  1  0
 15 16  1  0
 19 20  1  0
 19 21  1  0
 16 22  1  0
 23 24  1  0
 12 13  2  0
 10 11  2  0
 13 14  1  0
 22 23  2  0
 24 25  2  0
 25 26  1  0
 26 22  1  0
 14  9  2  0
  9 10  1  0
 28 27  1  0
 29 31  1  0
 30 29  1  0
 31 27  1  0
 32 28  2  0
 33 30  1  0
 34 29  2  0
 35 27  1  0
 36 34  1  0
 37 38  1  0
 38 35  1  0
 39 28  1  0
 40 32  1  0
 41 37  1  0
 42 37  1  0
 43 39  2  0
 44 40  2  0
 36 33  2  0
 43 44  1  0
 46 48  1  0
 47 45  1  0
 48 47  2  0
 49 45  2  0
 50 46  2  0
 51 46  1  0
 52 45  1  0
 54 56  1  0
 55 53  1  0
 56 55  2  0
 57 53  2  0
 58 54  2  0
 59 54  1  0
 60 53  1  0
  3 61  1  0
  4 62  1  0
  7 63  1  0
  8 64  1  0
  9 65  1  0
 10 66  1  0
 13 67  1  0
 14 68  1  0
 16 69  1  0
 16 70  1  0
 17 71  1  0
 17 72  1  0
 18 73  1  0
 18 74  1  0
 20 75  1  0
 20 76  1  0
 20 77  1  0
 21 78  1  0
 21 79  1  0
 21 80  1  0
 23 81  1  0
 24 82  1  0
 25 83  1  0
 31 84  1  0
 31 85  1  0
 33 86  1  0
 34 87  1  0
 35 88  1  0
 35 89  1  0
 36 90  1  0
 38 91  1  0
 38 92  1  0
 39 93  1  0
 40 94  1  0
 41 95  1  0
 41 96  1  0
 41 97  1  0
 42 98  1  0
 42 99  1  0
 42100  1  0
 43101  1  0
 44102  1  0
 47103  1  0
 48104  1  0
 51105  1  0
 52106  1  0
 55107  1  0
 56108  1  0
 59109  1  0
 60110  1  0
M  END
> <Uni-Dock RESULT> 
ENERGY=   -6.464  LOWER_BOUND=   10.757  UPPER_BOUND=   12.841
INTER + INTRA:          -6.464
INTER:                  -6.464
INTRA:                   0.000
UNBOUND:                 0.000

$$$$

     RDKit          3D

110109  0  0  0  0  0  0  0  0999 V2000
   44.0968   10.1810   11.0854 C   0  0  0  0  0  0  0  0  0  0  0  0
   42.8707   12.2384    8.0911 C   0  0  0  0  0  0  0  0  0  0  0  0
   43.8654   10.6756    9.7227 C   0  0  0  0  0  0  0  0  0  0  0  0
   43.1022   11.7440    9.4514 C   0  0  0  0  0  0  0  0  0  0  0  0
   44.7724    9.2064   11.3598 O   0  0  0  0  0  0  0  0  0  0  0  0
   42.1732   13.1984    7.8208 O   0  0  0  0  0  0  0  0  0  0  0  0
   43.5084   11.5390    7.1404 O   0  0  0  0  0  0  0  0  0  0  0  0
   43.4938   10.9069   12.0385 O   0  0  0  0  0  0  0  0  0  0  0  0
   39.8256   11.3243   11.4638 C   0  0  0  0  0  0  0  0  0  0  0  0
   40.2477   10.9087   10.2220 C   0  0  0  0  0  0  0  0  0  0  0  0
   41.5198   11.0293    9.7787 N   0  0  0  0  0  0  0  0  0  0  0  0
   42.4575   11.5825   10.5838 C   0  0  0  0  0  0  0  0  0  0  0  0
   42.0887   12.0311   11.8530 C   0  0  0  0  0  0  0  0  0  0  0  0
   40.7686   11.9016   12.2955 C   0  0  0  0  0  0  0  0  0  0  0  0
   43.7491   11.6951   10.0943 N   0  0  0  0  0  0  0  0  0  0  0  0
   44.9152   11.8330   10.9695 C   0  0  0  0  0  0  0  0  0  0  0  0
   44.0052   11.2168    8.7253 C   0  0  0  0  0  0  0  0  0  0  0  0
   43.5966   12.2899    7.6894 C   0  0  0  0  0  0  0  0  0  0  0  0
   44.0961   12.0470    6.3155 N   0  0  0  0  0  0  0  0  0  0  0  0
   43.5501   10.8109    5.7560 C   0  0  0  0  0  0  0  0  0  0  0  0
   43.7404   13.1795    5.4598 C   0  0  0  0  0  0  0  0  0  0  0  0
   45.3857   10.5844   11.6775 C   0  0  0  0  0  0  0  0  0  0  0  0
   44.7994    9.3350   11.7589 C   0  0  0  0  0  0  0  0  0  0  0  0
   45.5713    8.4142   12.5265 C   0  0  0  0  0  0  0  0  0  0  0  0
   46.7251    8.9877   13.0080 C   0  0  0  0  0  0  0  0  0  0  0  0
   46.8728   10.6248   12.5404 S   0  0  0  0  0  0  0  0  0  0  0  0
   43.4564   10.8646    9.9285 N   0  0  0  0  0  0  0  0  0  0  0  0
   42.4429   11.4892   10.6303 C   0  0  0  0  0  0  0  0  0  0  0  0
   44.7211    9.0963   11.1695 C   0  0  0  0  0  0  0  0  0  0  0  0
   44.4151    7.7741   12.2166 S   0  0  0  0  0  0  0  0  0  0  0  0
   43.7613    9.4395   10.0597 C   0  0  0  0  0  0  0  0  0  0  0  0
   42.0968   12.7432   10.2582 N   0  0  0  0  0  0  0  0  0  0  0  0
   45.8543    8.0444   13.0946 C   0  0  0  0  0  0  0  0  0  0  0  0
   45.9161    9.7152   11.4850 C   0  0  0  0  0  0  0  0  0  0  0  0
   44.1100   11.6034    8.8386 C   0  0  0  0  0  0  0  0  0  0  0  0
   46.5722    9.1063   12.5884 C   0  0  0  0  0  0  0  0  0  0  0  0
   44.0074   12.0469    6.3335 N   0  0  0  0  0  0  0  0  0  0  0  0
   43.2761   11.5768    7.5354 C   0  0  0  0  0  0  0  0  0  0  0  0
   41.7814   10.8844   11.7007 C   0  0  0  0  0  0  0  0  0  0  0  0
   41.1072   13.3812   10.9226 C   0  0  0  0  0  0  0  0  0  0  0  0
   43.1856   11.8301    5.1386 C   0  0  0  0  0  0  0  0  0  0  0  0
   44.3454   13.4679    6.4445 C   0  0  0  0  0  0  0  0  0  0  0  0
   40.7576   11.5546   12.3741 C   0  0  0  0  0  0  0  0  0  0  0  0
   40.4089   12.8325   11.9757 C   0  0  0  0  0  0  0  0  0  0  0  0
   42.8291   12.3832    8.1259 C   0  0  0  0  0  0  0  0  0  0  0  0
   43.9612   10.5989   11.2777 C   0  0  0  0  0  0  0  0  0  0  0  0
   43.0469   11.9774    9.5162 C   0  0  0  0  0  0  0  0  0  0  0  0
   43.8066   10.9296    9.8598 C   0  0  0  0  0  0  0  0  0  0  0  0
   42.1412   13.3279    7.7862 O   0  0  0  0  0  0  0  0  0  0  0  0
   43.4663   11.1750   12.2262 O   0  0  0  0  0  0  0  0  0  0  0  0
   44.7556    9.5274   11.4192 O   0  0  0  0  0  0  0  0  0  0  0  0
   43.4665   11.6155    7.2294 O   0  0  0  0  0  0  0  0  0  0  0  0
   43.5519   12.6285    8.1035 C   0  0  0  0  0  0  0  0  0  0  0  0
   43.9364   10.5870   11.2806 C   0  0  0  0  0  0  0  0  0  0  0  0
   43.9992   12.0941    9.3926 C   0  0  0  0  0  0  0  0  0  0  0  0
   43.4159   11.0476    9.9917 C   0  0  0  0  0  0  0  0  0  0  0  0
   44.0666   13.5741    7.5354 O   0  0  0  0  0  0  0  0  0  0  0  0
   44.8681   11.0512   11.9075 O   0  0  0  0  0  0  0  0  0  0  0  0
   43.2285    9.5349   11.7157 O   0  0  0  0  0  0  0  0  0  0  0  0
   42.5022   11.9778    7.5810 O   0  0  0  0  0  0  0  0  0  0  0  0
   44.3649   10.1039    8.9474 H   0  0  0  0  0  0  0  0  0  0  0  0
   42.6074   12.3160   10.2292 H   0  0  0  0  0  0  0  0  0  0  0  0
   43.2481   11.9887    6.3086 H   0  0  0  0  0  0  0  0  0  0  0  0
   43.7377   10.4502   12.8719 H   0  0  0  0  0  0  0  0  0  0  0  0
   38.7918   11.2048   11.7725 H   0  0  0  0  0  0  0  0  0  0  0  0
   39.5569   10.4509    9.5206 H   0  0  0  0  0  0  0  0  0  0  0  0
   42.7994   12.5020   12.5173 H   0  0  0  0  0  0  0  0  0  0  0  0
   40.4905   12.2604   13.2817 H   0  0  0  0  0  0  0  0  0  0  0  0
   45.7498   12.2138   10.3607 H   0  0  0  0  0  0  0  0  0  0  0  0
   44.7474   12.6269   11.7074 H   0  0  0  0  0  0  0  0  0  0  0  0
   43.5010   10.2596    8.5353 H   0  0  0  0  0  0  0  0  0  0  0  0
   45.0772   11.0117    8.5974 H   0  0  0  0  0  0  0  0  0  0  0  0
   42.5065   12.4181    7.6827 H   0  0  0  0  0  0  0  0  0  0  0  0
   44.0113   13.2428    8.0366 H   0  0  0  0  0  0  0  0  0  0  0  0
   43.8944   10.6757    4.7244 H   0  0  0  0  0  0  0  0  0  0  0  0
   43.9035    9.9339    6.3073 H   0  0  0  0  0  0  0  0  0  0  0  0
   42.4540   10.8003    5.7542 H   0  0  0  0  0  0  0  0  0  0  0  0
   42.6531   13.2972    5.3609 H   0  0  0  0  0  0  0  0  0  0  0  0
   44.1571   14.1180    5.8510 H   0  0  0  0  0  0  0  0  0  0  0  0
   44.1619   13.0452    4.4556 H   0  0  0  0  0  0  0  0  0  0  0  0
   43.8579    9.0939   11.2843 H   0  0  0  0  0  0  0  0  0  0  0  0
   45.2896    7.3853   12.7108 H   0  0  0  0  0  0  0  0  0  0  0  0
   47.4908    8.5221   13.6118 H   0  0  0  0  0  0  0  0  0  0  0  0
   44.2171    9.0778    9.1249 H   0  0  0  0  0  0  0  0  0  0  0  0
   42.8346    8.8568   10.1485 H   0  0  0  0  0  0  0  0  0  0  0  0
   46.1122    7.4068   13.9293 H   0  0  0  0  0  0  0  0  0  0  0  0
   46.2965   10.5735   10.9436 H   0  0  0  0  0  0  0  0  0  0  0  0
   45.0920   11.1536    8.6427 H   0  0  0  0  0  0  0  0  0  0  0  0
   44.3244   12.6330    9.1497 H   0  0  0  0  0  0  0  0  0  0  0  0
   47.5169    9.4316   13.0032 H   0  0  0  0  0  0  0  0  0  0  0  0
   42.3511   12.1573    7.6650 H   0  0  0  0  0  0  0  0  0  0  0  0
   42.9690   10.5351    7.3621 H   0  0  0  0  0  0  0  0  0  0  0  0
   42.0470    9.8915   12.0398 H   0  0  0  0  0  0  0  0  0  0  0  0
   40.8852   14.3809   10.5634 H   0  0  0  0  0  0  0  0  0  0  0  0
   42.2442   12.3856    5.1831 H   0  0  0  0  0  0  0  0  0  0  0  0
   42.9542   10.7681    5.0198 H   0  0  0  0  0  0  0  0  0  0  0  0
   43.7261   12.1386    4.2385 H   0  0  0  0  0  0  0  0  0  0  0  0
   45.0489   13.6467    7.2641 H   0  0  0  0  0  0  0  0  0  0  0  0
   44.8455   13.8170    5.5356 H   0  0  0  0  0  0  0  0  0  0  0  0
   43.4613   14.0954    6.6052 H   0  0  0  0  0  0  0  0  0  0  0  0
   40.2489   11.0762   13.2054 H   0  0  0  0  0  0  0  0  0  0  0  0
   39.6185   13.3828   12.4725 H   0  0  0  0  0  0  0  0  0  0  0  0
   42.5363   12.5853   10.2561 H   0  0  0  0  0  0  0  0  0  0  0  0
   44.3209   10.3078    9.1378 H   0  0  0  0  0  0  0  0  0  0  0  0
   44.8003    9.3918   12.3888 H   0  0  0  0  0  0  0  0  0  0  0  0
   43.2219   12.0130    6.3670 H   0  0  0  0  0  0  0  0  0  0  0  0
   44.8480   12.6103    9.8309 H   0  0  0  0  0  0  0  0  0  0  0  0
   42.5706   10.5177    9.5705 H   0  0  0  0  0  0  0  0  0  0  0  0
   43.6477    9.3008   12.5706 H   0  0  0  0  0  0  0  0  0  0  0  0
   42.3319   12.4489    6.7377 H   0  0  0  0  0  0  0  0  0  0  0  0
  2  4  1  0
  3  1  1  0
  4  3  2  0
  5  1  2  0
  6  2  2  0
  7  2  1  0
  8  1  1  0
 15 17  1  0
 12 15  1  0
 17 18  1  0
 11 12  1  0
 18 19  1  0
 15 16  1  0
 19 20  1  0
 19 21  1  0
 16 22  1  0
 23 24  1  0
 12 13  2  0
 10 11  2  0
 13 14  1  0
 22 23  2  0
 24 25  2  0
 25 26  1  0
 26 22  1  0
 14  9  2  0
  9 10  1  0
 28 27  1  0
 29 31  1  0
 30 29  1  0
 31 27  1  0
 32 28  2  0
 33 30  1  0
 34 29  2  0
 35 27  1  0
 36 34  1  0
 37 38  1  0
 38 35  1  0
 39 28  1  0
 40 32  1  0
 41 37  1  0
 42 37  1  0
 43 39  2  0
 44 40  2  0
 36 33  2  0
 43 44  1  0
 46 48  1  0
 47 45  1  0
 48 47  2  0
 49 45  2  0
 50 46  2  0
 51 46  1  0
 52 45  1  0
 54 56  1  0
 55 53  1  0
 56 55  2  0
 57 53  2  0
 58 54  2  0
 59 54  1  0
 60 53  1  0
  3 61  1  0
  4 62  1  0
  7 63  1  0
  8 64  1  0
  9 65  1  0
 10 66  1  0
 13 67  1  0
 14 68  1  0
 16 69  1  0
 16 70  1  0
 17 71  1  0
 17 72  1  0
 18 73  1  0
 18 74  1  0
 20 75  1  0
 20 76  1  0
 20 77  1  0
 21 78  1  0
 21 79  1  0
 21 80  1  0
 23 81  1  0
 24 82  1  0
 25 83  1  0
 31 84  1  0
 31 85  1  0
 33 86  1  0
 34 87  1  0
 35 88  1  0
 35 89  1  0
 36 90  1  0
 38 91  1  0
 38 92  1  0
 39 93  1  0
 40 94  1  0
 41 95  1  0
 41 96  1  0
 41 97  1  0
 42 98  1  0
 42 99  1  0
 42100  1  0
 43101  1  0
 44102  1  0
 47103  1  0
 48104  1  0
 51105  1  0
 52106  1  0
 55107  1  0
 56108  1  0
 59109  1  0
 60110  1  0
M  END
> <Uni-Dock RESULT> 
ENERGY=   -6.394  LOWER_BOUND=    1.584  UPPER_BOUND=    4.122
INTER + INTRA:          -6.394
INTER:                  -6.394
INTRA:                   0.000
UNBOUND:                 0.000

$$$$

     RDKit          3D

110109  0  0  0  0  0  0  0  0999 V2000
   49.2360    7.2511   15.7998 C   0  0  0  0  0  0  0  0  0  0  0  0
   48.3192    7.8483   19.4747 C   0  0  0  0  0  0  0  0  0  0  0  0
   48.7367    7.8541   17.0416 C   0  0  0  0  0  0  0  0  0  0  0  0
   48.8175    7.2469   18.2343 C   0  0  0  0  0  0  0  0  0  0  0  0
   49.1632    7.7723   14.7022 O   0  0  0  0  0  0  0  0  0  0  0  0
   48.3717    7.3111   20.5655 O   0  0  0  0  0  0  0  0  0  0  0  0
   47.7929    9.0719   19.3148 O   0  0  0  0  0  0  0  0  0  0  0  0
   49.8010    6.0463   15.9675 O   0  0  0  0  0  0  0  0  0  0  0  0
   47.5784    3.6171   17.7335 C   0  0  0  0  0  0  0  0  0  0  0  0
   46.9578    4.8104   18.0231 C   0  0  0  0  0  0  0  0  0  0  0  0
   47.5789    6.0113   17.9872 N   0  0  0  0  0  0  0  0  0  0  0  0
   48.8871    6.0762   17.6438 C   0  0  0  0  0  0  0  0  0  0  0  0
   49.5739    4.8980   17.3467 C   0  0  0  0  0  0  0  0  0  0  0  0
   48.9181    3.6639   17.3911 C   0  0  0  0  0  0  0  0  0  0  0  0
   49.4921    7.3228   17.6232 N   0  0  0  0  0  0  0  0  0  0  0  0
   50.7105    7.5959   16.8577 C   0  0  0  0  0  0  0  0  0  0  0  0
   48.6696    8.4877   17.9909 C   0  0  0  0  0  0  0  0  0  0  0  0
   48.5894    8.6326   19.5285 C   0  0  0  0  0  0  0  0  0  0  0  0
   48.0589    9.9329   20.0017 N   0  0  0  0  0  0  0  0  0  0  0  0
   46.6769   10.1387   19.5695 C   0  0  0  0  0  0  0  0  0  0  0  0
   48.1366    9.9892   21.4619 C   0  0  0  0  0  0  0  0  0  0  0  0
   50.5557    7.7427   15.3624 C   0  0  0  0  0  0  0  0  0  0  0  0
   49.4572    7.5102   14.5559 C   0  0  0  0  0  0  0  0  0  0  0  0
   49.7192    7.7753   13.1798 C   0  0  0  0  0  0  0  0  0  0  0  0
   51.0103    8.2035   12.9761 C   0  0  0  0  0  0  0  0  0  0  0  0
   51.8994    8.2809   14.4335 S   0  0  0  0  0  0  0  0  0  0  0  0
   48.7116    7.3811   17.1868 N   0  0  0  0  0  0  0  0  0  0  0  0
   48.8425    6.0544   17.5510 C   0  0  0  0  0  0  0  0  0  0  0  0
   48.9692    7.8789   14.7471 C   0  0  0  0  0  0  0  0  0  0  0  0
   48.4691    7.2488   13.2334 S   0  0  0  0  0  0  0  0  0  0  0  0
   48.0620    7.8115   15.9482 C   0  0  0  0  0  0  0  0  0  0  0  0
   49.2409    5.7829   18.8153 N   0  0  0  0  0  0  0  0  0  0  0  0
   49.9363    7.6952   12.4826 C   0  0  0  0  0  0  0  0  0  0  0  0
   50.2319    8.4349   14.6624 C   0  0  0  0  0  0  0  0  0  0  0  0
   49.0319    8.4141   18.1825 C   0  0  0  0  0  0  0  0  0  0  0  0
   50.7863    8.3356   13.3580 C   0  0  0  0  0  0  0  0  0  0  0  0
   48.0144    9.8558   20.0180 N   0  0  0  0  0  0  0  0  0  0  0  0
   47.8720    8.6389   19.1817 C   0  0  0  0  0  0  0  0  0  0  0  0
   48.5923    5.0010   16.6698 C   0  0  0  0  0  0  0  0  0  0  0  0
   49.3761    4.4952   19.2042 C   0  0  0  0  0  0  0  0  0  0  0  0
   46.7954   10.0585   20.8073 C   0  0  0  0  0  0  0  0  0  0  0  0
   49.1669    9.7464   20.9156 C   0  0  0  0  0  0  0  0  0  0  0  0
   48.7317    3.6757   17.0880 C   0  0  0  0  0  0  0  0  0  0  0  0
   49.1306    3.4142   18.3864 C   0  0  0  0  0  0  0  0  0  0  0  0
   48.4026    7.7658   19.5754 C   0  0  0  0  0  0  0  0  0  0  0  0
   49.5126    6.9427   16.0413 C   0  0  0  0  0  0  0  0  0  0  0  0
   48.9633    7.1171   18.3880 C   0  0  0  0  0  0  0  0  0  0  0  0
   48.9289    7.6711   17.1694 C   0  0  0  0  0  0  0  0  0  0  0  0
   48.4171    7.2834   20.6926 O   0  0  0  0  0  0  0  0  0  0  0  0
   50.0459    5.8511   16.0666 O   0  0  0  0  0  0  0  0  0  0  0  0
   49.3845    7.6568   14.9131 O   0  0  0  0  0  0  0  0  0  0  0  0
   47.8598    8.9682   19.3326 O   0  0  0  0  0  0  0  0  0  0  0  0
   48.9799    8.2652   19.5528 C   0  0  0  0  0  0  0  0  0  0  0  0
   49.4916    6.9249   16.0383 C   0  0  0  0  0  0  0  0  0  0  0  0
   49.5474    7.8772   18.2586 C   0  0  0  0  0  0  0  0  0  0  0  0
   48.8337    7.2736   17.2992 C   0  0  0  0  0  0  0  0  0  0  0  0
   49.6042    8.8186   20.4391 O   0  0  0  0  0  0  0  0  0  0  0  0
   50.6523    7.1177   15.7347 O   0  0  0  0  0  0  0  0  0  0  0  0
   48.6186    6.3354   15.2089 O   0  0  0  0  0  0  0  0  0  0  0  0
   47.6824    7.9559   19.6910 O   0  0  0  0  0  0  0  0  0  0  0  0
   48.2943    8.8370   16.9165 H   0  0  0  0  0  0  0  0  0  0  0  0
   49.2642    6.2658   18.3566 H   0  0  0  0  0  0  0  0  0  0  0  0
   47.5097    9.3219   20.2198 H   0  0  0  0  0  0  0  0  0  0  0  0
   50.0708    5.7846   15.0612 H   0  0  0  0  0  0  0  0  0  0  0  0
   47.0347    2.6785   17.7769 H   0  0  0  0  0  0  0  0  0  0  0  0
   45.9091    4.8424   18.3019 H   0  0  0  0  0  0  0  0  0  0  0  0
   50.6246    4.9020   17.0935 H   0  0  0  0  0  0  0  0  0  0  0  0
   49.4633    2.7526   17.1653 H   0  0  0  0  0  0  0  0  0  0  0  0
   51.1511    8.5266   17.2472 H   0  0  0  0  0  0  0  0  0  0  0  0
   51.4734    6.8372   17.0706 H   0  0  0  0  0  0  0  0  0  0  0  0
   47.6705    8.4308   17.5380 H   0  0  0  0  0  0  0  0  0  0  0  0
   49.1210    9.4043   17.5863 H   0  0  0  0  0  0  0  0  0  0  0  0
   48.0123    7.8045   19.9601 H   0  0  0  0  0  0  0  0  0  0  0  0
   49.6096    8.5233   19.9130 H   0  0  0  0  0  0  0  0  0  0  0  0
   46.2898   11.0827   19.9694 H   0  0  0  0  0  0  0  0  0  0  0  0
   46.6086   10.2241   18.4805 H   0  0  0  0  0  0  0  0  0  0  0  0
   46.0113    9.3312   19.8959 H   0  0  0  0  0  0  0  0  0  0  0  0
   47.5092    9.2244   21.9389 H   0  0  0  0  0  0  0  0  0  0  0  0
   49.1706    9.8561   21.8090 H   0  0  0  0  0  0  0  0  0  0  0  0
   47.8100   10.9726   21.8229 H   0  0  0  0  0  0  0  0  0  0  0  0
   48.5061    7.1673   14.9403 H   0  0  0  0  0  0  0  0  0  0  0  0
   48.9930    7.6574   12.3856 H   0  0  0  0  0  0  0  0  0  0  0  0
   51.4745    8.4769   12.0394 H   0  0  0  0  0  0  0  0  0  0  0  0
   47.6470    8.8218   16.0877 H   0  0  0  0  0  0  0  0  0  0  0  0
   47.1824    7.1872   15.7410 H   0  0  0  0  0  0  0  0  0  0  0  0
   50.1011    7.4796   11.4356 H   0  0  0  0  0  0  0  0  0  0  0  0
   50.7338    8.8896   15.5085 H   0  0  0  0  0  0  0  0  0  0  0  0
   49.2415    9.3574   17.6616 H   0  0  0  0  0  0  0  0  0  0  0  0
   49.9623    8.1644   18.7065 H   0  0  0  0  0  0  0  0  0  0  0  0
   51.7628    8.7023   13.0711 H   0  0  0  0  0  0  0  0  0  0  0  0
   47.7461    7.7538   19.8221 H   0  0  0  0  0  0  0  0  0  0  0  0
   46.9462    8.7341   18.5957 H   0  0  0  0  0  0  0  0  0  0  0  0
   48.2937    5.1812   15.6452 H   0  0  0  0  0  0  0  0  0  0  0  0
   49.6953    4.3588   20.2325 H   0  0  0  0  0  0  0  0  0  0  0  0
   46.6020    9.2210   21.4840 H   0  0  0  0  0  0  0  0  0  0  0  0
   45.9292   10.1790   20.1511 H   0  0  0  0  0  0  0  0  0  0  0  0
   46.8705   10.9734   21.4032 H   0  0  0  0  0  0  0  0  0  0  0  0
   50.1059    9.7046   20.3543 H   0  0  0  0  0  0  0  0  0  0  0  0
   49.2388   10.6288   21.5593 H   0  0  0  0  0  0  0  0  0  0  0  0
   49.1105    8.8620   21.5606 H   0  0  0  0  0  0  0  0  0  0  0  0
   48.5349    2.8630   16.3955 H   0  0  0  0  0  0  0  0  0  0  0  0
   49.2477    2.3992   18.7476 H   0  0  0  0  0  0  0  0  0  0  0  0
   49.4043    6.1414   18.5645 H   0  0  0  0  0  0  0  0  0  0  0  0
   48.4902    8.6408   16.9709 H   0  0  0  0  0  0  0  0  0  0  0  0
   49.8040    7.0951   14.2282 H   0  0  0  0  0  0  0  0  0  0  0  0
   47.5380    9.2601   20.2118 H   0  0  0  0  0  0  0  0  0  0  0  0
   50.5982    8.1190   18.1301 H   0  0  0  0  0  0  0  0  0  0  0  0
   47.7849    7.0259   17.4063 H   0  0  0  0  0  0  0  0  0  0  0  0
   49.1444    6.1444   14.4037 H   0  0  0  0  0  0  0  0  0  0  0  0
   47.4610    8.2756   20.5914 H   0  0  0  0  0  0  0  0  0  0  0  0
  2  4  1  0
  3  1  1  0
  4  3  2  0
  5  1  2  0
  6  2  2  0
  7  2  1  0
  8  1  1  0
 15 17  1  0
 12 15  1  0
 17 18  1  0
 11 12  1  0
 18 19  1  0
 15 16  1  0
 19 20  1  0
 19 21  1  0
 16 22  1  0
 23 24  1  0
 12 13  2  0
 10 11  2  0
 13 14  1  0
 22 23  2  0
 24 25  2  0
 25 26  1  0
 26 22  1  0
 14  9  2  0
  9 10  1  0
 28 27  1  0
 29 31  1  0
 30 29  1  0
 31 27  1  0
 32 28  2  0
 33 30  1  0
 34 29  2  0
 35 27  1  0
 36 34  1  0
 37 38  1  0
 38 35  1  0
 39 28  1  0
 40 32  1  0
 41 37  1  0
 42 37  1  0
 43 39  2  0
 44 40  2  0
 36 33  2  0
 43 44  1  0
 46 48  1  0
 47 45  1  0
 48 47  2  0
 49 45  2  0
 50 46  2  0
 51 46  1  0
 52 45  1  0
 54 56  1  0
 55 53  1  0
 56 55  2  0
 57 53  2  0
 58 54  2  0
 59 54  1  0
 60 53  1  0
  3 61  1  0
  4 62  1  0
  7 63  1  0
  8 64  1  0
  9 65  1  0
 10 66  1  0
 13 67  1  0
 14 68  1  0
 16 69  1  0
 16 70  1  0
 17 71  1  0
 17 72  1  0
 18 73  1  0
 18 74  1  0
 20 75  1  0
 20 76  1  0
 20 77  1  0
 21 78  1  0
 21 79  1  0
 21 80  1  0
 23 81  1  0
 24 82  1  0
 25 83  1  0
 31 84  1  0
 31 85  1  0
 33 86  1  0
 34 87  1  0
 35 88  1  0
 35 89  1  0
 36 90  1  0
 38 91  1  0
 38 92  1  0
 39 93  1  0
 40 94  1  0
 41 95  1  0
 41 96  1  0
 41 97  1  0
 42 98  1  0
 42 99  1  0
 42100  1  0
 43101  1  0
 44102  1  0
 47103  1  0
 48104  1  0
 51105  1  0
 52106  1  0
 55107  1  0
 56108  1  0
 59109  1  0
 60110  1  0
M  END
> <Uni-Dock RESULT> 
ENERGY=   -6.166  LOWER_BOUND=    8.439  UPPER_BOUND=   10.553
INTER + INTRA:          -6.166
INTER:                  -6.166
INTRA:                   0.000
UNBOUND:                 0.000

$$$$

     RDKit          3D

110109  0  0  0  0  0  0  0  0999 V2000
   49.4931    7.8873   15.0209 C   0  0  0  0  0  0  0  0  0  0  0  0
   50.9777    6.1223   18.0840 C   0  0  0  0  0  0  0  0  0  0  0  0
   50.3731    7.1144   15.9058 C   0  0  0  0  0  0  0  0  0  0  0  0
   50.0996    6.8939   17.1998 C   0  0  0  0  0  0  0  0  0  0  0  0
   49.7228    8.1152   13.8475 O   0  0  0  0  0  0  0  0  0  0  0  0
   50.7552    5.9194   19.2632 O   0  0  0  0  0  0  0  0  0  0  0  0
   52.0717    5.6366   17.4782 O   0  0  0  0  0  0  0  0  0  0  0  0
   48.3783    8.3358   15.6168 O   0  0  0  0  0  0  0  0  0  0  0  0
   49.0628   10.2944   18.7242 C   0  0  0  0  0  0  0  0  0  0  0  0
   50.2666    9.6546   18.5379 C   0  0  0  0  0  0  0  0  0  0  0  0
   50.4133    8.5192   17.8176 N   0  0  0  0  0  0  0  0  0  0  0  0
   49.3311    7.9583   17.2281 C   0  0  0  0  0  0  0  0  0  0  0  0
   48.0802    8.5566   17.3874 C   0  0  0  0  0  0  0  0  0  0  0  0
   47.9447    9.7288   18.1375 C   0  0  0  0  0  0  0  0  0  0  0  0
   49.5181    6.7923   16.5027 N   0  0  0  0  0  0  0  0  0  0  0  0
   48.5796    6.3461   15.4707 C   0  0  0  0  0  0  0  0  0  0  0  0
   50.8813    6.2392   16.4377 C   0  0  0  0  0  0  0  0  0  0  0  0
   51.1938    5.4134   17.7074 C   0  0  0  0  0  0  0  0  0  0  0  0
   52.4021    4.5608   17.6105 N   0  0  0  0  0  0  0  0  0  0  0  0
   53.6111    5.3618   17.4213 C   0  0  0  0  0  0  0  0  0  0  0  0
   52.5267    3.7517   18.8234 C   0  0  0  0  0  0  0  0  0  0  0  0
   48.6271    7.0735   14.1478 C   0  0  0  0  0  0  0  0  0  0  0  0
   49.3192    8.2141   13.7855 C   0  0  0  0  0  0  0  0  0  0  0  0
   49.1006    8.5814   12.4254 C   0  0  0  0  0  0  0  0  0  0  0  0
   48.2485    7.7095   11.7886 C   0  0  0  0  0  0  0  0  0  0  0  0
   47.7140    6.4605   12.8255 S   0  0  0  0  0  0  0  0  0  0  0  0
   50.1481    7.3806   16.2578 N   0  0  0  0  0  0  0  0  0  0  0  0
   49.3459    8.0430   17.1675 C   0  0  0  0  0  0  0  0  0  0  0  0
   49.9469    8.1214   13.8751 C   0  0  0  0  0  0  0  0  0  0  0  0
   49.8483    9.5744   12.9710 S   0  0  0  0  0  0  0  0  0  0  0  0
   50.7890    8.0447   15.1223 C   0  0  0  0  0  0  0  0  0  0  0  0
   49.0032    7.3888   18.3012 N   0  0  0  0  0  0  0  0  0  0  0  0
   48.8016    8.8707   11.8200 C   0  0  0  0  0  0  0  0  0  0  0  0
   49.2018    7.1170   13.2864 C   0  0  0  0  0  0  0  0  0  0  0  0
   50.5621    6.0036   16.5638 C   0  0  0  0  0  0  0  0  0  0  0  0
   48.5478    7.5455   12.1001 C   0  0  0  0  0  0  0  0  0  0  0  0
   52.3980    4.6292   17.6697 N   0  0  0  0  0  0  0  0  0  0  0  0
   51.7526    5.9596   17.5511 C   0  0  0  0  0  0  0  0  0  0  0  0
   48.8751    9.3401   16.9553 C   0  0  0  0  0  0  0  0  0  0  0  0
   48.2217    8.0098   19.2130 C   0  0  0  0  0  0  0  0  0  0  0  0
   53.6026    4.7362   18.4989 C   0  0  0  0  0  0  0  0  0  0  0  0
   51.4822    3.6500   18.2600 C   0  0  0  0  0  0  0  0  0  0  0  0
   48.0725    9.9701   17.9090 C   0  0  0  0  0  0  0  0  0  0  0  0
   47.7386    9.2916   19.0673 C   0  0  0  0  0  0  0  0  0  0  0  0
   50.8741    6.0848   18.1925 C   0  0  0  0  0  0  0  0  0  0  0  0
   49.1202    7.8335   15.3175 C   0  0  0  0  0  0  0  0  0  0  0  0
   49.9240    6.8298   17.3634 C   0  0  0  0  0  0  0  0  0  0  0  0
   50.1269    7.0754   16.0628 C   0  0  0  0  0  0  0  0  0  0  0  0
   50.7162    5.8512   19.3763 O   0  0  0  0  0  0  0  0  0  0  0  0
   48.0788    8.2919   15.7443 O   0  0  0  0  0  0  0  0  0  0  0  0
   49.4989    7.9729   14.0383 O   0  0  0  0  0  0  0  0  0  0  0  0
   51.9611    5.6639   17.5287 O   0  0  0  0  0  0  0  0  0  0  0  0
   50.6706    5.4488   17.8220 C   0  0  0  0  0  0  0  0  0  0  0  0
   49.1274    7.8583   15.3276 C   0  0  0  0  0  0  0  0  0  0  0  0
   49.8474    6.0641   16.7773 C   0  0  0  0  0  0  0  0  0  0  0  0
   49.9999    7.3343   16.3803 C   0  0  0  0  0  0  0  0  0  0  0  0
   50.5565    4.2967   18.1978 O   0  0  0  0  0  0  0  0  0  0  0  0
   48.2420    7.2669   14.7418 O   0  0  0  0  0  0  0  0  0  0  0  0
   49.4332    9.1375   15.0678 O   0  0  0  0  0  0  0  0  0  0  0  0
   51.5868    6.2750   18.3479 O   0  0  0  0  0  0  0  0  0  0  0  0
   51.2685    6.7329   15.4260 H   0  0  0  0  0  0  0  0  0  0  0  0
   49.2014    7.2733   17.6755 H   0  0  0  0  0  0  0  0  0  0  0  0
   52.5417    5.1612   18.1958 H   0  0  0  0  0  0  0  0  0  0  0  0
   47.9129    8.8269   14.9064 H   0  0  0  0  0  0  0  0  0  0  0  0
   48.9979   11.2047   19.3119 H   0  0  0  0  0  0  0  0  0  0  0  0
   51.1809   10.0448   18.9741 H   0  0  0  0  0  0  0  0  0  0  0  0
   47.1869    8.1278   16.9558 H   0  0  0  0  0  0  0  0  0  0  0  0
   46.9661   10.1823   18.2614 H   0  0  0  0  0  0  0  0  0  0  0  0
   48.7721    5.2791   15.2794 H   0  0  0  0  0  0  0  0  0  0  0  0
   47.5528    6.3608   15.8560 H   0  0  0  0  0  0  0  0  0  0  0  0
   51.6265    7.0299   16.2768 H   0  0  0  0  0  0  0  0  0  0  0  0
   50.9714    5.5729   15.5684 H   0  0  0  0  0  0  0  0  0  0  0  0
   51.2595    6.0712   18.5837 H   0  0  0  0  0  0  0  0  0  0  0  0
   50.3319    4.7601   17.8833 H   0  0  0  0  0  0  0  0  0  0  0  0
   54.4960    4.7157   17.3998 H   0  0  0  0  0  0  0  0  0  0  0  0
   53.5971    5.8830   16.4589 H   0  0  0  0  0  0  0  0  0  0  0  0
   53.7500    6.1045   18.2154 H   0  0  0  0  0  0  0  0  0  0  0  0
   52.6739    4.3697   19.7191 H   0  0  0  0  0  0  0  0  0  0  0  0
   51.6363    3.1261   18.9756 H   0  0  0  0  0  0  0  0  0  0  0  0
   53.3792    3.0661   18.7378 H   0  0  0  0  0  0  0  0  0  0  0  0
   49.9570    8.7582   14.4689 H   0  0  0  0  0  0  0  0  0  0  0  0
   49.5497    9.4413   11.9447 H   0  0  0  0  0  0  0  0  0  0  0  0
   47.9148    7.7452   10.7615 H   0  0  0  0  0  0  0  0  0  0  0  0
   51.7054    7.4978   14.8514 H   0  0  0  0  0  0  0  0  0  0  0  0
   51.1483    9.0405   15.4148 H   0  0  0  0  0  0  0  0  0  0  0  0
   48.4331    9.4556   10.9881 H   0  0  0  0  0  0  0  0  0  0  0  0
   49.1297    6.1173   13.6987 H   0  0  0  0  0  0  0  0  0  0  0  0
   50.8540    5.5042   15.6308 H   0  0  0  0  0  0  0  0  0  0  0  0
   49.7118    5.4245   16.9437 H   0  0  0  0  0  0  0  0  0  0  0  0
   47.9126    6.9230   11.4841 H   0  0  0  0  0  0  0  0  0  0  0  0
   51.4366    6.3151   18.5426 H   0  0  0  0  0  0  0  0  0  0  0  0
   52.5070    6.6736   17.1896 H   0  0  0  0  0  0  0  0  0  0  0  0
   49.1108    9.8849   16.0503 H   0  0  0  0  0  0  0  0  0  0  0  0
   47.9936    7.4221   20.0964 H   0  0  0  0  0  0  0  0  0  0  0  0
   53.3725    5.0764   19.5128 H   0  0  0  0  0  0  0  0  0  0  0  0
   54.3140    5.4366   18.0532 H   0  0  0  0  0  0  0  0  0  0  0  0
   54.1106    3.7693   18.5662 H   0  0  0  0  0  0  0  0  0  0  0  0
   50.6226    3.4654   17.6076 H   0  0  0  0  0  0  0  0  0  0  0  0
   51.9800    2.6831   18.3843 H   0  0  0  0  0  0  0  0  0  0  0  0
   51.1096    3.9662   19.2410 H   0  0  0  0  0  0  0  0  0  0  0  0
   47.7111   10.9790   17.7353 H   0  0  0  0  0  0  0  0  0  0  0  0
   47.1198    9.7484   19.8308 H   0  0  0  0  0  0  0  0  0  0  0  0
   49.0393    7.1814   17.8843 H   0  0  0  0  0  0  0  0  0  0  0  0
   51.0041    6.7377   15.5254 H   0  0  0  0  0  0  0  0  0  0  0  0
   48.7677    8.4812   13.6288 H   0  0  0  0  0  0  0  0  0  0  0  0
   52.4832    5.1929   18.2121 H   0  0  0  0  0  0  0  0  0  0  0  0
   49.0990    5.4093   16.3412 H   0  0  0  0  0  0  0  0  0  0  0  0
   50.7412    8.0027   16.8004 H   0  0  0  0  0  0  0  0  0  0  0  0
   48.8062    9.3949   14.3592 H   0  0  0  0  0  0  0  0  0  0  0  0
   52.0437    5.7214   19.0164 H   0  0  0  0  0  0  0  0  0  0  0  0
  2  4  1  0
  3  1  1  0
  4  3  2  0
  5  1  2  0
  6  2  2  0
  7  2  1  0
  8  1  1  0
 15 17  1  0
 12 15  1  0
 17 18  1  0
 11 12  1  0
 18 19  1  0
 15 16  1  0
 19 20  1  0
 19 21  1  0
 16 22  1  0
 23 24  1  0
 12 13  2  0
 10 11  2  0
 13 14  1  0
 22 23  2  0
 24 25  2  0
 25 26  1  0
 26 22  1  0
 14  9  2  0
  9 10  1  0
 28 27  1  0
 29 31  1  0
 30 29  1  0
 31 27  1  0
 32 28  2  0
 33 30  1  0
 34 29  2  0
 35 27  1  0
 36 34  1  0
 37 38  1  0
 38 35  1  0
 39 28  1  0
 40 32  1  0
 41 37  1  0
 42 37  1  0
 43 39  2  0
 44 40  2  0
 36 33  2  0
 43 44  1  0
 46 48  1  0
 47 45  1  0
 48 47  2  0
 49 45  2  0
 50 46  2  0
 51 46  1  0
 52 45  1  0
 54 56  1  0
 55 53  1  0
 56 55  2  0
 57 53  2  0
 58 54  2  0
 59 54  1  0
 60 53  1  0
  3 61  1  0
  4 62  1  0
  7 63  1  0
  8 64  1  0
  9 65  1  0
 10 66  1  0
 13 67  1  0
 14 68  1  0
 16 69  1  0
 16 70  1  0
 17 71  1  0
 17 72  1  0
 18 73  1  0
 18 74  1  0
 20 75  1  0
 20 76  1  0
 20 77  1  0
 21 78  1  0
 21 79  1  0
 21 80  1  0
 23 81  1  0
 24 82  1  0
 25 83  1  0
 31 84  1  0
 31 85  1  0
 33 86  1  0
 34 87  1  0
 35 88  1  0
 35 89  1  0
 36 90  1  0
 38 91  1  0
 38 92  1  0
 39 93  1  0
 40 94  1  0
 41 95  1  0
 41 96  1  0
 41 97  1  0
 42 98  1  0
 42 99  1  0
 42100  1  0
 43101  1  0
 44102  1  0
 47103  1  0
 48104  1  0
 51105  1  0
 52106  1  0
 55107  1  0
 56108  1  0
 59109  1  0
 60110  1  0
M  END
> <Uni-Dock RESULT> 
ENERGY=   -6.163  LOWER_BOUND=    7.605  UPPER_BOUND=   11.030
INTER + INTRA:          -6.163
INTER:                  -6.163
INTRA:                   0.000
UNBOUND:                 0.000

$$$$

     RDKit          3D

110109  0  0  0  0  0  0  0  0999 V2000
   48.7865    6.3122   19.7423 C   0  0  0  0  0  0  0  0  0  0  0  0
   50.3769    6.8669   16.2977 C   0  0  0  0  0  0  0  0  0  0  0  0
   49.7072    6.7043   18.6682 C   0  0  0  0  0  0  0  0  0  0  0  0
   49.4582    6.4757   17.3708 C   0  0  0  0  0  0  0  0  0  0  0  0
   48.9929    6.4939   20.9281 O   0  0  0  0  0  0  0  0  0  0  0  0
   50.1768    6.6595   15.1153 O   0  0  0  0  0  0  0  0  0  0  0  0
   51.4820    7.4944   16.7274 O   0  0  0  0  0  0  0  0  0  0  0  0
   47.6620    5.7237   19.3087 O   0  0  0  0  0  0  0  0  0  0  0  0
   48.3050    2.7950   17.0794 C   0  0  0  0  0  0  0  0  0  0  0  0
   49.5310    3.4194   17.0650 C   0  0  0  0  0  0  0  0  0  0  0  0
   49.7142    4.7276   17.3557 N   0  0  0  0  0  0  0  0  0  0  0  0
   48.6483    5.4927   17.6900 C   0  0  0  0  0  0  0  0  0  0  0  0
   47.3765    4.9181   17.7144 C   0  0  0  0  0  0  0  0  0  0  0  0
   47.2034    3.5647   17.4085 C   0  0  0  0  0  0  0  0  0  0  0  0
   48.8729    6.8299   17.9760 N   0  0  0  0  0  0  0  0  0  0  0  0
   47.9406    7.6346   18.7687 C   0  0  0  0  0  0  0  0  0  0  0  0
   50.2562    7.3260   17.8813 C   0  0  0  0  0  0  0  0  0  0  0  0
   50.6165    7.6544   16.4137 C   0  0  0  0  0  0  0  0  0  0  0  0
   51.8566    8.4476   16.2425 N   0  0  0  0  0  0  0  0  0  0  0  0
   53.0303    7.7206   16.7249 C   0  0  0  0  0  0  0  0  0  0  0  0
   52.0279    8.7861   14.8292 C   0  0  0  0  0  0  0  0  0  0  0  0
   47.9433    7.4049   20.2616 C   0  0  0  0  0  0  0  0  0  0  0  0
   48.5850    6.4358   21.0101 C   0  0  0  0  0  0  0  0  0  0  0  0
   48.3357    6.5657   22.4079 C   0  0  0  0  0  0  0  0  0  0  0  0
   47.5114    7.6312   22.6856 C   0  0  0  0  0  0  0  0  0  0  0  0
   47.0396    8.4649   21.2703 S   0  0  0  0  0  0  0  0  0  0  0  0
   49.4760    6.3410   18.4234 N   0  0  0  0  0  0  0  0  0  0  0  0
   48.6589    5.4335   17.7763 C   0  0  0  0  0  0  0  0  0  0  0  0
   49.2169    6.4711   20.9098 C   0  0  0  0  0  0  0  0  0  0  0  0
   49.0496    5.4213   22.2546 S   0  0  0  0  0  0  0  0  0  0  0  0
   50.0762    6.0865   19.7334 C   0  0  0  0  0  0  0  0  0  0  0  0
   48.3561    5.6693   16.4788 N   0  0  0  0  0  0  0  0  0  0  0  0
   48.0181    6.5121   23.0681 C   0  0  0  0  0  0  0  0  0  0  0  0
   48.5054    7.6409   21.0997 C   0  0  0  0  0  0  0  0  0  0  0  0
   49.9481    7.5144   17.6742 C   0  0  0  0  0  0  0  0  0  0  0  0
   47.8207    7.6681   22.3443 C   0  0  0  0  0  0  0  0  0  0  0  0
   51.8504    8.3632   16.2102 N   0  0  0  0  0  0  0  0  0  0  0  0
   51.1512    7.1768   16.7617 C   0  0  0  0  0  0  0  0  0  0  0  0
   48.1343    4.3047   18.4086 C   0  0  0  0  0  0  0  0  0  0  0  0
   47.5615    4.7993   15.8161 C   0  0  0  0  0  0  0  0  0  0  0  0
   53.0596    7.9377   15.4983 C   0  0  0  0  0  0  0  0  0  0  0  0
   50.9815    9.1099   15.2973 C   0  0  0  0  0  0  0  0  0  0  0  0
   47.3187    3.4125   17.7090 C   0  0  0  0  0  0  0  0  0  0  0  0
   47.0260    3.6624   16.3804 C   0  0  0  0  0  0  0  0  0  0  0  0
   50.2761    6.8682   16.1804 C   0  0  0  0  0  0  0  0  0  0  0  0
   48.4196    6.2732   19.4360 C   0  0  0  0  0  0  0  0  0  0  0  0
   49.2872    6.4855   17.1908 C   0  0  0  0  0  0  0  0  0  0  0  0
   49.4646    6.6951   18.5013 C   0  0  0  0  0  0  0  0  0  0  0  0
   50.1418    6.6860   14.9847 O   0  0  0  0  0  0  0  0  0  0  0  0
   47.3660    5.7311   19.1665 O   0  0  0  0  0  0  0  0  0  0  0  0
   48.7772    6.5693   20.6945 O   0  0  0  0  0  0  0  0  0  0  0  0
   51.3710    7.4551   16.6865 O   0  0  0  0  0  0  0  0  0  0  0  0
   50.0937    7.5992   16.3052 C   0  0  0  0  0  0  0  0  0  0  0  0
   48.4259    6.2463   19.4353 C   0  0  0  0  0  0  0  0  0  0  0  0
   49.2342    7.4081   17.4766 C   0  0  0  0  0  0  0  0  0  0  0  0
   49.3312    6.3473   18.2888 C   0  0  0  0  0  0  0  0  0  0  0  0
   50.0301    8.5551   15.5544 O   0  0  0  0  0  0  0  0  0  0  0  0
   47.5579    7.0321   19.7605 O   0  0  0  0  0  0  0  0  0  0  0  0
   48.6774    5.1248   20.1255 O   0  0  0  0  0  0  0  0  0  0  0  0
   50.9825    6.6126   16.1174 O   0  0  0  0  0  0  0  0  0  0  0  0
   50.6112    7.1974   19.0103 H   0  0  0  0  0  0  0  0  0  0  0  0
   48.5513    5.9861   17.0317 H   0  0  0  0  0  0  0  0  0  0  0  0
   51.9791    7.6783   15.9022 H   0  0  0  0  0  0  0  0  0  0  0  0
   47.1688    5.5224   20.1326 H   0  0  0  0  0  0  0  0  0  0  0  0
   48.2109    1.7409   16.8380 H   0  0  0  0  0  0  0  0  0  0  0  0
   50.4342    2.8729   16.8119 H   0  0  0  0  0  0  0  0  0  0  0  0
   46.4959    5.4985   17.9503 H   0  0  0  0  0  0  0  0  0  0  0  0
   46.2090    3.1291   17.4233 H   0  0  0  0  0  0  0  0  0  0  0  0
   48.1732    8.6953   18.5872 H   0  0  0  0  0  0  0  0  0  0  0  0
   46.9188    7.5227   18.3863 H   0  0  0  0  0  0  0  0  0  0  0  0
   50.9673    6.6143   18.3221 H   0  0  0  0  0  0  0  0  0  0  0  0
   50.3623    8.2470   18.4715 H   0  0  0  0  0  0  0  0  0  0  0  0
   50.6664    6.7337   15.8180 H   0  0  0  0  0  0  0  0  0  0  0  0
   49.7835    8.2358   16.0030 H   0  0  0  0  0  0  0  0  0  0  0  0
   53.9399    8.3049   16.5456 H   0  0  0  0  0  0  0  0  0  0  0  0
   52.9841    7.5625   17.8070 H   0  0  0  0  0  0  0  0  0  0  0  0
   53.1490    6.7460   16.2374 H   0  0  0  0  0  0  0  0  0  0  0  0
   52.1610    7.8934   14.2036 H   0  0  0  0  0  0  0  0  0  0  0  0
   51.1649    9.3505   14.4496 H   0  0  0  0  0  0  0  0  0  0  0  0
   52.9059    9.4306   14.6957 H   0  0  0  0  0  0  0  0  0  0  0  0
   49.2087    5.6690   20.5708 H   0  0  0  0  0  0  0  0  0  0  0  0
   48.7443    5.9089   23.1652 H   0  0  0  0  0  0  0  0  0  0  0  0
   47.1643    7.9617   23.6540 H   0  0  0  0  0  0  0  0  0  0  0  0
   51.0104    6.6623   19.8230 H   0  0  0  0  0  0  0  0  0  0  0  0
   50.3990    5.0394   19.8091 H   0  0  0  0  0  0  0  0  0  0  0  0
   47.6167    6.2613   24.0406 H   0  0  0  0  0  0  0  0  0  0  0  0
   48.4782    8.4398   20.3679 H   0  0  0  0  0  0  0  0  0  0  0  0
   50.2485    8.2939   18.3864 H   0  0  0  0  0  0  0  0  0  0  0  0
   49.1262    7.9557   17.0977 H   0  0  0  0  0  0  0  0  0  0  0  0
   47.2035    8.4851   22.6934 H   0  0  0  0  0  0  0  0  0  0  0  0
   50.8331    6.5131   15.9446 H   0  0  0  0  0  0  0  0  0  0  0  0
   51.8721    6.6058   17.3647 H   0  0  0  0  0  0  0  0  0  0  0  0
   48.3373    4.0965   19.4511 H   0  0  0  0  0  0  0  0  0  0  0  0
   47.3676    5.0549   14.7793 H   0  0  0  0  0  0  0  0  0  0  0  0
   52.8283    7.2778   14.6570 H   0  0  0  0  0  0  0  0  0  0  0  0
   53.7372    7.4098   16.1747 H   0  0  0  0  0  0  0  0  0  0  0  0
   53.6066    8.8052   15.1162 H   0  0  0  0  0  0  0  0  0  0  0  0
   50.1222    9.5359   15.8252 H   0  0  0  0  0  0  0  0  0  0  0  0
   51.5190    9.9580   14.8615 H   0  0  0  0  0  0  0  0  0  0  0  0
   50.6084    8.4885   14.4752 H   0  0  0  0  0  0  0  0  0  0  0  0
   46.9153    2.5373   18.2091 H   0  0  0  0  0  0  0  0  0  0  0  0
   46.3987    2.9920   15.8046 H   0  0  0  0  0  0  0  0  0  0  0  0
   48.3955    6.0060   16.8001 H   0  0  0  0  0  0  0  0  0  0  0  0
   50.3480    7.1675   18.9121 H   0  0  0  0  0  0  0  0  0  0  0  0
   48.0215    6.2573   21.2351 H   0  0  0  0  0  0  0  0  0  0  0  0
   51.9196    7.6449   15.8962 H   0  0  0  0  0  0  0  0  0  0  0  0
   48.5073    8.1974   17.6429 H   0  0  0  0  0  0  0  0  0  0  0  0
   50.0502    5.5510   18.1420 H   0  0  0  0  0  0  0  0  0  0  0  0
   48.0323    5.1476   20.8635 H   0  0  0  0  0  0  0  0  0  0  0  0
   51.4690    6.8872   15.3113 H   0  0  0  0  0  0  0  0  0  0  0  0
  2  4  1  0
  3  1  1  0
  4  3  2  0
  5  1  2  0
  6  2  2  0
  7  2  1  0
  8  1  1  0
 15 17  1  0
 12 15  1  0
 17 18  1  0
 11 12  1  0
 18 19  1  0
 15 16  1  0
 19 20  1  0
 19 21  1  0
 16 22  1  0
 23 24  1  0
 12 13  2  0
 10 11  2  0
 13 14  1  0
 22 23  2  0
 24 25  2  0
 25 26  1  0
 26 22  1  0
 14  9  2  0
  9 10  1  0
 28 27  1  0
 29 31  1  0
 30 29  1  0
 31 27  1  0
 32 28  2  0
 33 30  1  0
 34 29  2  0
 35 27  1  0
 36 34  1  0
 37 38  1  0
 38 35  1  0
 39 28  1  0
 40 32  1  0
 41 37  1  0
 42 37  1  0
 43 39  2  0
 44 40  2  0
 36 33  2  0
 43 44  1  0
 46 48  1  0
 47 45  1  0
 48 47  2  0
 49 45  2  0
 50 46  2  0
 51 46  1  0
 52 45  1  0
 54 56  1  0
 55 53  1  0
 56 55  2  0
 57 53  2  0
 58 54  2  0
 59 54  1  0
 60 53  1  0
  3 61  1  0
  4 62  1  0
  7 63  1  0
  8 64  1  0
  9 65  1  0
 10 66  1  0
 13 67  1  0
 14 68  1  0
 16 69  1  0
 16 70  1  0
 17 71  1  0
 17 72  1  0
 18 73  1  0
 18 74  1  0
 20 75  1  0
 20 76  1  0
 20 77  1  0
 21 78  1  0
 21 79  1  0
 21 80  1  0
 23 81  1  0
 24 82  1  0
 25 83  1  0
 31 84  1  0
 31 85  1  0
 33 86  1  0
 34 87  1  0
 35 88  1  0
 35 89  1  0
 36 90  1  0
 38 91  1  0
 38 92  1  0
 39 93  1  0
 40 94  1  0
 41 95  1  0
 41 96  1  0
 41 97  1  0
 42 98  1  0
 42 99  1  0
 42100  1  0
 43101  1  0
 44102  1  0
 47103  1  0
 48104  1  0
 51105  1  0
 52106  1  0
 55107  1  0
 56108  1  0
 59109  1  0
 60110  1  0
M  END
> <Uni-Dock RESULT> 
ENERGY=   -6.149  LOWER_BOUND=    9.609  UPPER_BOUND=   11.740
INTER + INTRA:          -6.149
INTER:                  -6.149
INTRA:                   0.000
UNBOUND:                 0.000

$$$$

     RDKit          3D

110109  0  0  0  0  0  0  0  0999 V2000
   47.4359    8.1960   12.8608 C   0  0  0  0  0  0  0  0  0  0  0  0
   51.1705    9.0349   12.6349 C   0  0  0  0  0  0  0  0  0  0  0  0
   48.7547    8.6060   12.3631 C   0  0  0  0  0  0  0  0  0  0  0  0
   49.8534    8.6257   13.1311 C   0  0  0  0  0  0  0  0  0  0  0  0
   46.4197    8.1820   12.1909 O   0  0  0  0  0  0  0  0  0  0  0  0
   52.1781    9.0713   13.3164 O   0  0  0  0  0  0  0  0  0  0  0  0
   51.1845    9.3686   11.3356 O   0  0  0  0  0  0  0  0  0  0  0  0
   47.4317    7.8213   14.1486 O   0  0  0  0  0  0  0  0  0  0  0  0
   48.8860   10.3976   16.4307 C   0  0  0  0  0  0  0  0  0  0  0  0
   49.3426   10.8319   15.2076 C   0  0  0  0  0  0  0  0  0  0  0  0
   49.4599   10.0357   14.1206 N   0  0  0  0  0  0  0  0  0  0  0  0
   49.1097    8.7307   14.2082 C   0  0  0  0  0  0  0  0  0  0  0  0
   48.6467    8.2285   15.4254 C   0  0  0  0  0  0  0  0  0  0  0  0
   48.5338    9.0641   16.5409 C   0  0  0  0  0  0  0  0  0  0  0  0
   49.2485    7.9436   13.0761 N   0  0  0  0  0  0  0  0  0  0  0  0
   48.5095    6.6931   12.8891 C   0  0  0  0  0  0  0  0  0  0  0  0
   49.7816    8.5823   11.8609 C   0  0  0  0  0  0  0  0  0  0  0  0
   51.3257    8.6493   11.9150 C   0  0  0  0  0  0  0  0  0  0  0  0
   51.9773    8.9795   10.6256 N   0  0  0  0  0  0  0  0  0  0  0  0
   51.5965   10.3116   10.1569 C   0  0  0  0  0  0  0  0  0  0  0  0
   53.4305    8.9035   10.7799 C   0  0  0  0  0  0  0  0  0  0  0  0
   47.0499    6.8143   12.5196 C   0  0  0  0  0  0  0  0  0  0  0  0
   46.2353    7.9303   12.4722 C   0  0  0  0  0  0  0  0  0  0  0  0
   44.9038    7.6224   12.0659 C   0  0  0  0  0  0  0  0  0  0  0  0
   44.7411    6.2800   11.8140 C   0  0  0  0  0  0  0  0  0  0  0  0
   46.1828    5.3987   12.0698 S   0  0  0  0  0  0  0  0  0  0  0  0
   48.8352    8.7034   12.8420 N   0  0  0  0  0  0  0  0  0  0  0  0
   49.0154    8.7774   14.2102 C   0  0  0  0  0  0  0  0  0  0  0  0
   46.4813    8.3579   12.0633 C   0  0  0  0  0  0  0  0  0  0  0  0
   44.9039    8.9382   12.3999 S   0  0  0  0  0  0  0  0  0  0  0  0
   47.6753    9.2724   12.1549 C   0  0  0  0  0  0  0  0  0  0  0  0
   50.2257    8.4328   14.7074 N   0  0  0  0  0  0  0  0  0  0  0  0
   44.1991    7.4156   12.0828 C   0  0  0  0  0  0  0  0  0  0  0  0
   46.4543    7.0250   11.6981 C   0  0  0  0  0  0  0  0  0  0  0  0
   49.9562    8.2366   12.0136 C   0  0  0  0  0  0  0  0  0  0  0  0
   45.1406    6.4838   11.7026 C   0  0  0  0  0  0  0  0  0  0  0  0
   51.9836    9.0353   10.6966 N   0  0  0  0  0  0  0  0  0  0  0  0
   50.9931    9.3553   11.7535 C   0  0  0  0  0  0  0  0  0  0  0  0
   48.0040    9.1788   15.0847 C   0  0  0  0  0  0  0  0  0  0  0  0
   50.4357    8.4968   16.0413 C   0  0  0  0  0  0  0  0  0  0  0  0
   52.8105   10.2144   10.4208 C   0  0  0  0  0  0  0  0  0  0  0  0
   52.8418    7.9185   11.0993 C   0  0  0  0  0  0  0  0  0  0  0  0
   48.2378    9.2446   16.4601 C   0  0  0  0  0  0  0  0  0  0  0  0
   49.4833    8.8982   16.9521 C   0  0  0  0  0  0  0  0  0  0  0  0
   51.2580    8.9656   12.7419 C   0  0  0  0  0  0  0  0  0  0  0  0
   47.6297    7.9709   13.2373 C   0  0  0  0  0  0  0  0  0  0  0  0
   49.9861    8.5023   13.3011 C   0  0  0  0  0  0  0  0  0  0  0  0
   48.8538    8.4445   12.5886 C   0  0  0  0  0  0  0  0  0  0  0  0
   52.2997    9.0315   13.3676 O   0  0  0  0  0  0  0  0  0  0  0  0
   47.5000    7.6095   14.3902 O   0  0  0  0  0  0  0  0  0  0  0  0
   46.6100    7.9822   12.3660 O   0  0  0  0  0  0  0  0  0  0  0  0
   51.1873    9.3184   11.4496 O   0  0  0  0  0  0  0  0  0  0  0  0
   51.2946    8.3191   12.3371 C   0  0  0  0  0  0  0  0  0  0  0  0
   47.6246    7.9944   13.2512 C   0  0  0  0  0  0  0  0  0  0  0  0
   49.9519    7.8088   12.6276 C   0  0  0  0  0  0  0  0  0  0  0  0
   48.9303    8.5998   12.9810 C   0  0  0  0  0  0  0  0  0  0  0  0
   52.2384    7.6238   12.0093 O   0  0  0  0  0  0  0  0  0  0  0  0
   47.3332    6.8159   13.1966 O   0  0  0  0  0  0  0  0  0  0  0  0
   46.7360    8.9413   13.5843 O   0  0  0  0  0  0  0  0  0  0  0  0
   51.4085    9.6494   12.4626 O   0  0  0  0  0  0  0  0  0  0  0  0
   48.7695    8.8935   11.3168 H   0  0  0  0  0  0  0  0  0  0  0  0
   49.8361    8.3337   14.1759 H   0  0  0  0  0  0  0  0  0  0  0  0
   52.1189    9.6164   11.1705 H   0  0  0  0  0  0  0  0  0  0  0  0
   46.4946    7.5886   14.3230 H   0  0  0  0  0  0  0  0  0  0  0  0
   48.8103   11.0775   17.2734 H   0  0  0  0  0  0  0  0  0  0  0  0
   49.6381   11.8654   15.0556 H   0  0  0  0  0  0  0  0  0  0  0  0
   48.3813    7.1878   15.5459 H   0  0  0  0  0  0  0  0  0  0  0  0
   48.1795    8.6620   17.4850 H   0  0  0  0  0  0  0  0  0  0  0  0
   49.0144    6.1189   12.0970 H   0  0  0  0  0  0  0  0  0  0  0  0
   48.6073    6.0553   13.7761 H   0  0  0  0  0  0  0  0  0  0  0  0
   49.3395    9.5755   11.7044 H   0  0  0  0  0  0  0  0  0  0  0  0
   49.4977    7.9946   10.9768 H   0  0  0  0  0  0  0  0  0  0  0  0
   51.6500    9.3479   12.6971 H   0  0  0  0  0  0  0  0  0  0  0  0
   51.6772    7.6599   12.2282 H   0  0  0  0  0  0  0  0  0  0  0  0
   52.1255   10.5536    9.2282 H   0  0  0  0  0  0  0  0  0  0  0  0
   50.5300   10.3593    9.9155 H   0  0  0  0  0  0  0  0  0  0  0  0
   51.8207   11.0940   10.8912 H   0  0  0  0  0  0  0  0  0  0  0  0
   53.8090    9.6425   11.4985 H   0  0  0  0  0  0  0  0  0  0  0  0
   53.7416    7.9038   11.1134 H   0  0  0  0  0  0  0  0  0  0  0  0
   53.9253    9.0795    9.8164 H   0  0  0  0  0  0  0  0  0  0  0  0
   46.5836    8.9248   12.7164 H   0  0  0  0  0  0  0  0  0  0  0  0
   44.1114    8.3531   11.9642 H   0  0  0  0  0  0  0  0  0  0  0  0
   43.8433    5.7739   11.4897 H   0  0  0  0  0  0  0  0  0  0  0  0
   47.9555    9.5304   11.1217 H   0  0  0  0  0  0  0  0  0  0  0  0
   47.3984   10.2351   12.6053 H   0  0  0  0  0  0  0  0  0  0  0  0
   43.1304    7.2787   12.1771 H   0  0  0  0  0  0  0  0  0  0  0  0
   47.3466    6.4653   11.4432 H   0  0  0  0  0  0  0  0  0  0  0  0
   49.5643    7.8830   11.0511 H   0  0  0  0  0  0  0  0  0  0  0  0
   50.4285    7.3581   12.4696 H   0  0  0  0  0  0  0  0  0  0  0  0
   44.8917    5.4612   11.4522 H   0  0  0  0  0  0  0  0  0  0  0  0
   51.5102    9.6179   12.6879 H   0  0  0  0  0  0  0  0  0  0  0  0
   50.4387   10.2522   11.4411 H   0  0  0  0  0  0  0  0  0  0  0  0
   47.0174    9.4402   14.7244 H   0  0  0  0  0  0  0  0  0  0  0  0
   51.4315    8.2085   16.3623 H   0  0  0  0  0  0  0  0  0  0  0  0
   53.3708   10.5368   11.3033 H   0  0  0  0  0  0  0  0  0  0  0  0
   52.1889   11.0482   10.0832 H   0  0  0  0  0  0  0  0  0  0  0  0
   53.5230   10.0054    9.6169 H   0  0  0  0  0  0  0  0  0  0  0  0
   52.2665    6.9931   11.2061 H   0  0  0  0  0  0  0  0  0  0  0  0
   53.5974    7.7176   10.3332 H   0  0  0  0  0  0  0  0  0  0  0  0
   53.3624    8.1123   12.0441 H   0  0  0  0  0  0  0  0  0  0  0  0
   47.4451    9.5580   17.1325 H   0  0  0  0  0  0  0  0  0  0  0  0
   49.7027    8.9387   18.0126 H   0  0  0  0  0  0  0  0  0  0  0  0
   50.0232    8.2154   14.3470 H   0  0  0  0  0  0  0  0  0  0  0  0
   48.7942    8.7300   11.5458 H   0  0  0  0  0  0  0  0  0  0  0  0
   45.8497    7.6483   12.8867 H   0  0  0  0  0  0  0  0  0  0  0  0
   52.1022    9.5977   11.2342 H   0  0  0  0  0  0  0  0  0  0  0  0
   49.8422    6.7328   12.5320 H   0  0  0  0  0  0  0  0  0  0  0  0
   49.0181    9.6746   13.0796 H   0  0  0  0  0  0  0  0  0  0  0  0
   45.9049    8.4455   13.7417 H   0  0  0  0  0  0  0  0  0  0  0  0
   52.3468    9.8255   12.2380 H   0  0  0  0  0  0  0  0  0  0  0  0
  2  4  1  0
  3  1  1  0
  4  3  2  0
  5  1  2  0
  6  2  2  0
  7  2  1  0
  8  1  1  0
 15 17  1  0
 12 15  1  0
 17 18  1  0
 11 12  1  0
 18 19  1  0
 15 16  1  0
 19 20  1  0
 19 21  1  0
 16 22  1  0
 23 24  1  0
 12 13  2  0
 10 11  2  0
 13 14  1  0
 22 23  2  0
 24 25  2  0
 25 26  1  0
 26 22  1  0
 14  9  2  0
  9 10  1  0
 28 27  1  0
 29 31  1  0
 30 29  1  0
 31 27  1  0
 32 28  2  0
 33 30  1  0
 34 29  2  0
 35 27  1  0
 36 34  1  0
 37 38  1  0
 38 35  1  0
 39 28  1  0
 40 32  1  0
 41 37  1  0
 42 37  1  0
 43 39  2  0
 44 40  2  0
 36 33  2  0
 43 44  1  0
 46 48  1  0
 47 45  1  0
 48 47  2  0
 49 45  2  0
 50 46  2  0
 51 46  1  0
 52 45  1  0
 54 56  1  0
 55 53  1  0
 56 55  2  0
 57 53  2  0
 58 54  2  0
 59 54  1  0
 60 53  1  0
  3 61  1  0
  4 62  1  0
  7 63  1  0
  8 64  1  0
  9 65  1  0
 10 66  1  0
 13 67  1  0
 14 68  1  0
 16 69  1  0
 16 70  1  0
 17 71  1  0
 17 72  1  0
 18 73  1  0
 18 74  1  0
 20 75  1  0
 20 76  1  0
 20 77  1  0
 21 78  1  0
 21 79  1  0
 21 80  1  0
 23 81  1  0
 24 82  1  0
 25 83  1  0
 31 84  1  0
 31 85  1  0
 33 86  1  0
 34 87  1  0
 35 88  1  0
 35 89  1  0
 36 90  1  0
 38 91  1  0
 38 92  1  0
 39 93  1  0
 40 94  1  0
 41 95  1  0
 41 96  1  0
 41 97  1  0
 42 98  1  0
 42 99  1  0
 42100  1  0
 43101  1  0
 44102  1  0
 47103  1  0
 48104  1  0
 51105  1  0
 52106  1  0
 55107  1  0
 56108  1  0
 59109  1  0
 60110  1  0
M  END
> <Uni-Dock RESULT> 
ENERGY=   -6.009  LOWER_BOUND=    5.321  UPPER_BOUND=    8.863
INTER + INTRA:          -6.009
INTER:                  -6.009
INTRA:                   0.000
UNBOUND:                 0.000

$$$$
