
     RDKit          3D

110109  0  0  0  0  0  0  0  0999 V2000
   50.9243    5.8223   17.1121 C   0  0  0  0  0  0  0  0  0  0  0  0
   48.4438    8.2655   18.5389 C   0  0  0  0  0  0  0  0  0  0  0  0
   50.2809    7.0695   17.5223 C   0  0  0  0  0  0  0  0  0  0  0  0
   49.1041    7.0168   18.1592 C   0  0  0  0  0  0  0  0  0  0  0  0
   50.4867    4.6946   17.2338 O   0  0  0  0  0  0  0  0  0  0  0  0
   48.8280    9.3964   18.3212 O   0  0  0  0  0  0  0  0  0  0  0  0
   47.3071    8.0081   19.1997 O   0  0  0  0  0  0  0  0  0  0  0  0
   52.1149    6.0763   16.5512 O   0  0  0  0  0  0  0  0  0  0  0  0
   53.3097    9.2722   15.2081 C   0  0  0  0  0  0  0  0  0  0  0  0
   52.1940    8.8114   14.5347 C   0  0  0  0  0  0  0  0  0  0  0  0
   51.2164    8.0751   15.1096 N   0  0  0  0  0  0  0  0  0  0  0  0
   51.3343    7.7746   16.4235 C   0  0  0  0  0  0  0  0  0  0  0  0
   52.4389    8.1996   17.1661 C   0  0  0  0  0  0  0  0  0  0  0  0
   53.4350    8.9546   16.5532 C   0  0  0  0  0  0  0  0  0  0  0  0
   50.3337    7.0095   17.0761 N   0  0  0  0  0  0  0  0  0  0  0  0
   49.5651    6.2104   16.0975 C   0  0  0  0  0  0  0  0  0  0  0  0
   49.5141    7.9111   17.9236 C   0  0  0  0  0  0  0  0  0  0  0  0
   49.0385    7.1964   19.2090 C   0  0  0  0  0  0  0  0  0  0  0  0
   48.6206    8.1196   20.2858 N   0  0  0  0  0  0  0  0  0  0  0  0
   48.3534    7.3643   21.5154 C   0  0  0  0  0  0  0  0  0  0  0  0
   47.4433    8.8985   19.9092 C   0  0  0  0  0  0  0  0  0  0  0  0
   48.8710    5.0118   16.6933 C   0  0  0  0  0  0  0  0  0  0  0  0
   49.4017    4.0533   17.5388 C   0  0  0  0  0  0  0  0  0  0  0  0
   48.4516    3.0430   17.8702 C   0  0  0  0  0  0  0  0  0  0  0  0
   47.2369    3.2623   17.2603 C   0  0  0  0  0  0  0  0  0  0  0  0
   47.2346    4.6872   16.3153 S   0  0  0  0  0  0  0  0  0  0  0  0
   49.6319    6.4250   18.5950 N   0  0  0  0  0  0  0  0  0  0  0  0
   49.5034    5.1257   18.1383 C   0  0  0  0  0  0  0  0  0  0  0  0
   51.7862    7.2598   17.5918 C   0  0  0  0  0  0  0  0  0  0  0  0
   53.4812    7.0093   17.6755 S   0  0  0  0  0  0  0  0  0  0  0  0
   50.9199    7.0828   18.8176 C   0  0  0  0  0  0  0  0  0  0  0  0
   48.2719    4.7188   17.7394 N   0  0  0  0  0  0  0  0  0  0  0  0
   53.6823    7.3367   16.0089 C   0  0  0  0  0  0  0  0  0  0  0  0
   51.3965    7.6151   16.3147 C   0  0  0  0  0  0  0  0  0  0  0  0
   48.4292    7.0654   19.1414 C   0  0  0  0  0  0  0  0  0  0  0  0
   52.4888    7.6623   15.4009 C   0  0  0  0  0  0  0  0  0  0  0  0
   48.5406    9.5123   18.3944 N   0  0  0  0  0  0  0  0  0  0  0  0
   47.8942    8.1866   18.2212 C   0  0  0  0  0  0  0  0  0  0  0  0
   50.5764    4.2349   18.0871 C   0  0  0  0  0  0  0  0  0  0  0  0
   48.1060    3.4508   17.2983 C   0  0  0  0  0  0  0  0  0  0  0  0
   48.1543   10.3975   17.2857 C   0  0  0  0  0  0  0  0  0  0  0  0
   48.1594   10.1386   19.6649 C   0  0  0  0  0  0  0  0  0  0  0  0
   50.3890    2.9262   17.6379 C   0  0  0  0  0  0  0  0  0  0  0  0
   49.1265    2.5187   17.2403 C   0  0  0  0  0  0  0  0  0  0  0  0
   51.2437    6.0892   17.2494 C   0  0  0  0  0  0  0  0  0  0  0  0
   48.1401    8.0005   18.4278 C   0  0  0  0  0  0  0  0  0  0  0  0
   50.0975    6.5523   18.0360 C   0  0  0  0  0  0  0  0  0  0  0  0
   49.2832    7.5386   17.6403 C   0  0  0  0  0  0  0  0  0  0  0  0
   52.0011    5.2002   17.5903 O   0  0  0  0  0  0  0  0  0  0  0  0
   47.3967    8.9041   18.0944 O   0  0  0  0  0  0  0  0  0  0  0  0
   47.9602    7.3295   19.5734 O   0  0  0  0  0  0  0  0  0  0  0  0
   51.4028    6.7400   16.0883 O   0  0  0  0  0  0  0  0  0  0  0  0
   47.9816    7.6231   18.5294 C   0  0  0  0  0  0  0  0  0  0  0  0
   51.1100    6.6201   16.5553 C   0  0  0  0  0  0  0  0  0  0  0  0
   49.0130    6.8406   17.8436 C   0  0  0  0  0  0  0  0  0  0  0  0
   50.0751    7.3979   17.2457 C   0  0  0  0  0  0  0  0  0  0  0  0
   47.0044    7.1393   19.0709 O   0  0  0  0  0  0  0  0  0  0  0  0
   52.0782    7.1053   15.9988 O   0  0  0  0  0  0  0  0  0  0  0  0
   50.9030    5.2945   16.5920 O   0  0  0  0  0  0  0  0  0  0  0  0
   48.2069    8.9456   18.5126 O   0  0  0  0  0  0  0  0  0  0  0  0
   50.7902    7.9983   17.3013 H   0  0  0  0  0  0  0  0  0  0  0  0
   48.6002    6.0865   18.3902 H   0  0  0  0  0  0  0  0  0  0  0  0
   46.9448    8.8944   19.4089 H   0  0  0  0  0  0  0  0  0  0  0  0
   52.4536    5.1908   16.3027 H   0  0  0  0  0  0  0  0  0  0  0  0
   54.0631    9.8611   14.6968 H   0  0  0  0  0  0  0  0  0  0  0  0
   52.0439    9.0288   13.4827 H   0  0  0  0  0  0  0  0  0  0  0  0
   52.5237    7.9304   18.2139 H   0  0  0  0  0  0  0  0  0  0  0  0
   54.2982    9.2905   17.1220 H   0  0  0  0  0  0  0  0  0  0  0  0
   50.2402    5.7925   15.3372 H   0  0  0  0  0  0  0  0  0  0  0  0
   48.8491    6.8538   15.5648 H   0  0  0  0  0  0  0  0  0  0  0  0
   48.6527    8.2902   17.3584 H   0  0  0  0  0  0  0  0  0  0  0  0
   50.0869    8.7965   18.2327 H   0  0  0  0  0  0  0  0  0  0  0  0
   48.2178    6.5095   18.9728 H   0  0  0  0  0  0  0  0  0  0  0  0
   49.8707    6.5856   19.5796 H   0  0  0  0  0  0  0  0  0  0  0  0
   49.2461    6.8180   21.8321 H   0  0  0  0  0  0  0  0  0  0  0  0
   48.0886    8.0385   22.3342 H   0  0  0  0  0  0  0  0  0  0  0  0
   47.5405    6.6460   21.3842 H   0  0  0  0  0  0  0  0  0  0  0  0
   47.6427    9.5414   19.0434 H   0  0  0  0  0  0  0  0  0  0  0  0
   46.5784    8.2667   19.6787 H   0  0  0  0  0  0  0  0  0  0  0  0
   47.1571    9.5746   20.7205 H   0  0  0  0  0  0  0  0  0  0  0  0
   50.4265    4.0770   17.8829 H   0  0  0  0  0  0  0  0  0  0  0  0
   48.6591    2.1936   18.5080 H   0  0  0  0  0  0  0  0  0  0  0  0
   46.3475    2.6514   17.3277 H   0  0  0  0  0  0  0  0  0  0  0  0
   51.4641    6.5386   19.6031 H   0  0  0  0  0  0  0  0  0  0  0  0
   50.7598    8.0889   19.2300 H   0  0  0  0  0  0  0  0  0  0  0  0
   54.6640    7.2919   15.5520 H   0  0  0  0  0  0  0  0  0  0  0  0
   50.3593    7.8154   16.0498 H   0  0  0  0  0  0  0  0  0  0  0  0
   47.6193    6.3436   19.3065 H   0  0  0  0  0  0  0  0  0  0  0  0
   48.6451    7.4421   20.1499 H   0  0  0  0  0  0  0  0  0  0  0  0
   52.4002    7.9073   14.3495 H   0  0  0  0  0  0  0  0  0  0  0  0
   46.8149    8.2895   18.3818 H   0  0  0  0  0  0  0  0  0  0  0  0
   48.0222    7.8628   17.1817 H   0  0  0  0  0  0  0  0  0  0  0  0
   51.5651    4.5304   18.4098 H   0  0  0  0  0  0  0  0  0  0  0  0
   47.0935    3.2033   16.9906 H   0  0  0  0  0  0  0  0  0  0  0  0
   47.0731   10.5721   17.2545 H   0  0  0  0  0  0  0  0  0  0  0  0
   48.4754    9.9779   16.3244 H   0  0  0  0  0  0  0  0  0  0  0  0
   48.6463   11.3723   17.3891 H   0  0  0  0  0  0  0  0  0  0  0  0
   48.5186    9.5611   20.5228 H   0  0  0  0  0  0  0  0  0  0  0  0
   48.6163   11.1293   19.7595 H   0  0  0  0  0  0  0  0  0  0  0  0
   47.0731   10.2601   19.7543 H   0  0  0  0  0  0  0  0  0  0  0  0
   51.2323    2.2393   17.6084 H   0  0  0  0  0  0  0  0  0  0  0  0
   48.9452    1.5084   16.8908 H   0  0  0  0  0  0  0  0  0  0  0  0
   49.9542    6.0225   18.9696 H   0  0  0  0  0  0  0  0  0  0  0  0
   49.4302    8.0655   16.7067 H   0  0  0  0  0  0  0  0  0  0  0  0
   47.1745    7.7549   19.9763 H   0  0  0  0  0  0  0  0  0  0  0  0
   52.1943    6.3219   15.6891 H   0  0  0  0  0  0  0  0  0  0  0  0
   48.8563    5.7675   17.8579 H   0  0  0  0  0  0  0  0  0  0  0  0
   50.2338    8.4711   17.2316 H   0  0  0  0  0  0  0  0  0  0  0  0
   51.6656    4.9270   16.0988 H   0  0  0  0  0  0  0  0  0  0  0  0
   47.4409    9.3169   18.9977 H   0  0  0  0  0  0  0  0  0  0  0  0
  2  4  1  0
  3  1  1  0
  4  3  2  0
  5  1  2  0
  6  2  2  0
  7  2  1  0
  8  1  1  0
 15 17  1  0
 12 15  1  0
 17 18  1  0
 11 12  1  0
 18 19  1  0
 15 16  1  0
 19 20  1  0
 19 21  1  0
 16 22  1  0
 23 24  1  0
 12 13  2  0
 10 11  2  0
 13 14  1  0
 22 23  2  0
 24 25  2  0
 25 26  1  0
 26 22  1  0
 14  9  2  0
  9 10  1  0
 28 27  1  0
 29 31  1  0
 30 29  1  0
 31 27  1  0
 32 28  2  0
 33 30  1  0
 34 29  2  0
 35 27  1  0
 36 34  1  0
 37 38  1  0
 38 35  1  0
 39 28  1  0
 40 32  1  0
 41 37  1  0
 42 37  1  0
 43 39  2  0
 44 40  2  0
 36 33  2  0
 43 44  1  0
 46 48  1  0
 47 45  1  0
 48 47  2  0
 49 45  2  0
 50 46  2  0
 51 46  1  0
 52 45  1  0
 54 56  1  0
 55 53  1  0
 56 55  2  0
 57 53  2  0
 58 54  2  0
 59 54  1  0
 60 53  1  0
  3 61  1  0
  4 62  1  0
  7 63  1  0
  8 64  1  0
  9 65  1  0
 10 66  1  0
 13 67  1  0
 14 68  1  0
 16 69  1  0
 16 70  1  0
 17 71  1  0
 17 72  1  0
 18 73  1  0
 18 74  1  0
 20 75  1  0
 20 76  1  0
 20 77  1  0
 21 78  1  0
 21 79  1  0
 21 80  1  0
 23 81  1  0
 24 82  1  0
 25 83  1  0
 31 84  1  0
 31 85  1  0
 33 86  1  0
 34 87  1  0
 35 88  1  0
 35 89  1  0
 36 90  1  0
 38 91  1  0
 38 92  1  0
 39 93  1  0
 40 94  1  0
 41 95  1  0
 41 96  1  0
 41 97  1  0
 42 98  1  0
 42 99  1  0
 42100  1  0
 43101  1  0
 44102  1  0
 47103  1  0
 48104  1  0
 51105  1  0
 52106  1  0
 55107  1  0
 56108  1  0
 59109  1  0
 60110  1  0
M  END
> <Uni-Dock RESULT> 
ENERGY=   -6.212  LOWER_BOUND=    0.000  UPPER_BOUND=    0.000
INTER + INTRA:          -6.212
INTER:                  -6.212
INTRA:                   0.000
UNBOUND:                 0.000

$$$$

     RDKit          3D

110109  0  0  0  0  0  0  0  0999 V2000
   50.3693    8.2480   17.2181 C   0  0  0  0  0  0  0  0  0  0  0  0
   50.1093    4.5540   17.8851 C   0  0  0  0  0  0  0  0  0  0  0  0
   50.6604    6.8153   17.2356 C   0  0  0  0  0  0  0  0  0  0  0  0
   49.8011    5.9831   17.8374 C   0  0  0  0  0  0  0  0  0  0  0  0
   49.4323    8.8144   17.7466 O   0  0  0  0  0  0  0  0  0  0  0  0
   51.0992    4.0003   17.4521 O   0  0  0  0  0  0  0  0  0  0  0  0
   49.1167    3.8841   18.4859 O   0  0  0  0  0  0  0  0  0  0  0  0
   51.3063    8.9041   16.5193 O   0  0  0  0  0  0  0  0  0  0  0  0
   54.6533    7.7121   15.6128 C   0  0  0  0  0  0  0  0  0  0  0  0
   54.4829    7.7870   16.9824 C   0  0  0  0  0  0  0  0  0  0  0  0
   53.2998    7.5916   17.6073 N   0  0  0  0  0  0  0  0  0  0  0  0
   52.2186    7.3010   16.8478 C   0  0  0  0  0  0  0  0  0  0  0  0
   52.3139    7.2170   15.4564 C   0  0  0  0  0  0  0  0  0  0  0  0
   53.5415    7.4244   14.8336 C   0  0  0  0  0  0  0  0  0  0  0  0
   50.9550    7.0816   17.4542 N   0  0  0  0  0  0  0  0  0  0  0  0
   50.8979    7.7168   18.7884 C   0  0  0  0  0  0  0  0  0  0  0  0
   50.6626    5.6264   17.4451 C   0  0  0  0  0  0  0  0  0  0  0  0
   49.1508    5.3577   17.2676 C   0  0  0  0  0  0  0  0  0  0  0  0
   48.8380    3.9888   16.8040 N   0  0  0  0  0  0  0  0  0  0  0  0
   47.4066    3.8798   16.4992 C   0  0  0  0  0  0  0  0  0  0  0  0
   49.2200    2.9795   17.7889 C   0  0  0  0  0  0  0  0  0  0  0  0
   49.4990    7.9996   19.2747 C   0  0  0  0  0  0  0  0  0  0  0  0
   48.4658    8.6119   18.5871 C   0  0  0  0  0  0  0  0  0  0  0  0
   47.2910    8.7409   19.3847 C   0  0  0  0  0  0  0  0  0  0  0  0
   47.4730    8.2315   20.6508 C   0  0  0  0  0  0  0  0  0  0  0  0
   49.0394    7.5815   20.8684 S   0  0  0  0  0  0  0  0  0  0  0  0
   49.2880    6.4997   17.3002 N   0  0  0  0  0  0  0  0  0  0  0  0
   48.7506    7.6024   17.9393 C   0  0  0  0  0  0  0  0  0  0  0  0
   51.2117    7.4021   15.9477 C   0  0  0  0  0  0  0  0  0  0  0  0
   51.5354    8.4067   14.5953 S   0  0  0  0  0  0  0  0  0  0  0  0
   49.9566    6.5618   16.0000 C   0  0  0  0  0  0  0  0  0  0  0  0
   48.3830    7.4589   19.2377 N   0  0  0  0  0  0  0  0  0  0  0  0
   52.9850    8.9921   15.2891 C   0  0  0  0  0  0  0  0  0  0  0  0
   52.2148    7.4987   16.8930 C   0  0  0  0  0  0  0  0  0  0  0  0
   48.9215    5.1776   17.8225 C   0  0  0  0  0  0  0  0  0  0  0  0
   53.2395    8.4134   16.5140 C   0  0  0  0  0  0  0  0  0  0  0  0
   51.0288    3.7371   17.6169 N   0  0  0  0  0  0  0  0  0  0  0  0
   50.1089    4.4745   18.5198 C   0  0  0  0  0  0  0  0  0  0  0  0
   48.5674    8.8294   17.3002 C   0  0  0  0  0  0  0  0  0  0  0  0
   47.8424    8.5126   19.8913 C   0  0  0  0  0  0  0  0  0  0  0  0
   52.2480    3.3671   18.3508 C   0  0  0  0  0  0  0  0  0  0  0  0
   50.4034    2.5234   17.0807 C   0  0  0  0  0  0  0  0  0  0  0  0
   47.9999    9.9061   17.9846 C   0  0  0  0  0  0  0  0  0  0  0  0
   47.6213    9.7468   19.3071 C   0  0  0  0  0  0  0  0  0  0  0  0
   50.5424    8.1503   16.8276 C   0  0  0  0  0  0  0  0  0  0  0  0
   49.9238    4.6469   18.2481 C   0  0  0  0  0  0  0  0  0  0  0  0
   49.9123    6.8838   17.2096 C   0  0  0  0  0  0  0  0  0  0  0  0
   50.5544    5.9113   17.8688 C   0  0  0  0  0  0  0  0  0  0  0  0
   49.9824    9.0455   16.2234 O   0  0  0  0  0  0  0  0  0  0  0  0
   50.4923    3.7446   18.8336 O   0  0  0  0  0  0  0  0  0  0  0  0
   48.6328    4.5557   17.9015 O   0  0  0  0  0  0  0  0  0  0  0  0
   51.8250    8.2528   17.2038 O   0  0  0  0  0  0  0  0  0  0  0  0
   49.5634    4.8038   18.4008 C   0  0  0  0  0  0  0  0  0  0  0  0
   51.3256    7.9905   17.2053 C   0  0  0  0  0  0  0  0  0  0  0  0
   49.8841    6.2063   18.1242 C   0  0  0  0  0  0  0  0  0  0  0  0
   50.9975    6.5877   17.4831 C   0  0  0  0  0  0  0  0  0  0  0  0
   48.5632    4.4351   18.9891 O   0  0  0  0  0  0  0  0  0  0  0  0
   52.3342    8.3602   16.6322 O   0  0  0  0  0  0  0  0  0  0  0  0
   50.3975    8.8577   17.6389 O   0  0  0  0  0  0  0  0  0  0  0  0
   50.4812    3.9394   17.9420 O   0  0  0  0  0  0  0  0  0  0  0  0
   51.5650    6.4766   16.7480 H   0  0  0  0  0  0  0  0  0  0  0  0
   48.8900    6.3212   18.3155 H   0  0  0  0  0  0  0  0  0  0  0  0
   49.4121    2.9498   18.4679 H   0  0  0  0  0  0  0  0  0  0  0  0
   51.0316    9.8430   16.5778 H   0  0  0  0  0  0  0  0  0  0  0  0
   55.6268    7.8765   15.1644 H   0  0  0  0  0  0  0  0  0  0  0  0
   55.3162    8.0089   17.6403 H   0  0  0  0  0  0  0  0  0  0  0  0
   51.4300    7.0025   14.8645 H   0  0  0  0  0  0  0  0  0  0  0  0
   53.6266    7.3608   13.7519 H   0  0  0  0  0  0  0  0  0  0  0  0
   51.3876    8.7006   18.7600 H   0  0  0  0  0  0  0  0  0  0  0  0
   51.4520    7.1092   19.5193 H   0  0  0  0  0  0  0  0  0  0  0  0
   51.0265    5.1566   18.3681 H   0  0  0  0  0  0  0  0  0  0  0  0
   51.1852    5.1206   16.6214 H   0  0  0  0  0  0  0  0  0  0  0  0
   48.6227    5.5588   18.2067 H   0  0  0  0  0  0  0  0  0  0  0  0
   48.7691    6.0704   16.5265 H   0  0  0  0  0  0  0  0  0  0  0  0
   47.1230    4.5985   15.7254 H   0  0  0  0  0  0  0  0  0  0  0  0
   47.1681    2.8863   16.1101 H   0  0  0  0  0  0  0  0  0  0  0  0
   46.7869    4.0624   17.3804 H   0  0  0  0  0  0  0  0  0  0  0  0
   50.3014    2.9793   17.9705 H   0  0  0  0  0  0  0  0  0  0  0  0
   48.7085    3.1149   18.7483 H   0  0  0  0  0  0  0  0  0  0  0  0
   48.9812    1.9772   17.4208 H   0  0  0  0  0  0  0  0  0  0  0  0
   48.5644    8.9606   17.5683 H   0  0  0  0  0  0  0  0  0  0  0  0
   46.3703    9.1997   19.0483 H   0  0  0  0  0  0  0  0  0  0  0  0
   46.7561    8.2088   21.4598 H   0  0  0  0  0  0  0  0  0  0  0  0
   49.2313    6.8985   15.2450 H   0  0  0  0  0  0  0  0  0  0  0  0
   50.2482    5.5513   15.6808 H   0  0  0  0  0  0  0  0  0  0  0  0
   53.5933    9.7200   14.7649 H   0  0  0  0  0  0  0  0  0  0  0  0
   52.1975    6.9423   17.8290 H   0  0  0  0  0  0  0  0  0  0  0  0
   48.0910    5.2349   18.5375 H   0  0  0  0  0  0  0  0  0  0  0  0
   48.5147    4.5652   17.0071 H   0  0  0  0  0  0  0  0  0  0  0  0
   54.1096    8.6455   17.1162 H   0  0  0  0  0  0  0  0  0  0  0  0
   49.7156    3.7836   19.2742 H   0  0  0  0  0  0  0  0  0  0  0  0
   50.6808    5.2343   19.0651 H   0  0  0  0  0  0  0  0  0  0  0  0
   48.8411    8.9667   16.2633 H   0  0  0  0  0  0  0  0  0  0  0  0
   47.5808    8.3210   20.9286 H   0  0  0  0  0  0  0  0  0  0  0  0
   52.0351    2.7056   19.1978 H   0  0  0  0  0  0  0  0  0  0  0  0
   52.7658    4.2615   18.7185 H   0  0  0  0  0  0  0  0  0  0  0  0
   52.9467    2.8438   17.6868 H   0  0  0  0  0  0  0  0  0  0  0  0
   49.5470    2.7599   16.4410 H   0  0  0  0  0  0  0  0  0  0  0  0
   51.1072    1.9743   16.4463 H   0  0  0  0  0  0  0  0  0  0  0  0
   50.0701    1.8461   17.8763 H   0  0  0  0  0  0  0  0  0  0  0  0
   47.8568   10.8559   17.4734 H   0  0  0  0  0  0  0  0  0  0  0  0
   47.1734   10.5608   19.8662 H   0  0  0  0  0  0  0  0  0  0  0  0
   48.8720    6.7985   16.9208 H   0  0  0  0  0  0  0  0  0  0  0  0
   51.5940    6.0006   18.1552 H   0  0  0  0  0  0  0  0  0  0  0  0
   48.3654    3.6667   18.2157 H   0  0  0  0  0  0  0  0  0  0  0  0
   52.0963    9.1377   16.8813 H   0  0  0  0  0  0  0  0  0  0  0  0
   49.1472    6.9205   18.4751 H   0  0  0  0  0  0  0  0  0  0  0  0
   51.7350    5.8743   17.1305 H   0  0  0  0  0  0  0  0  0  0  0  0
   50.7580    9.7314   17.3808 H   0  0  0  0  0  0  0  0  0  0  0  0
   50.1278    3.0648   18.2065 H   0  0  0  0  0  0  0  0  0  0  0  0
  2  4  1  0
  3  1  1  0
  4  3  2  0
  5  1  2  0
  6  2  2  0
  7  2  1  0
  8  1  1  0
 15 17  1  0
 12 15  1  0
 17 18  1  0
 11 12  1  0
 18 19  1  0
 15 16  1  0
 19 20  1  0
 19 21  1  0
 16 22  1  0
 23 24  1  0
 12 13  2  0
 10 11  2  0
 13 14  1  0
 22 23  2  0
 24 25  2  0
 25 26  1  0
 26 22  1  0
 14  9  2  0
  9 10  1  0
 28 27  1  0
 29 31  1  0
 30 29  1  0
 31 27  1  0
 32 28  2  0
 33 30  1  0
 34 29  2  0
 35 27  1  0
 36 34  1  0
 37 38  1  0
 38 35  1  0
 39 28  1  0
 40 32  1  0
 41 37  1  0
 42 37  1  0
 43 39  2  0
 44 40  2  0
 36 33  2  0
 43 44  1  0
 46 48  1  0
 47 45  1  0
 48 47  2  0
 49 45  2  0
 50 46  2  0
 51 46  1  0
 52 45  1  0
 54 56  1  0
 55 53  1  0
 56 55  2  0
 57 53  2  0
 58 54  2  0
 59 54  1  0
 60 53  1  0
  3 61  1  0
  4 62  1  0
  7 63  1  0
  8 64  1  0
  9 65  1  0
 10 66  1  0
 13 67  1  0
 14 68  1  0
 16 69  1  0
 16 70  1  0
 17 71  1  0
 17 72  1  0
 18 73  1  0
 18 74  1  0
 20 75  1  0
 20 76  1  0
 20 77  1  0
 21 78  1  0
 21 79  1  0
 21 80  1  0
 23 81  1  0
 24 82  1  0
 25 83  1  0
 31 84  1  0
 31 85  1  0
 33 86  1  0
 34 87  1  0
 35 88  1  0
 35 89  1  0
 36 90  1  0
 38 91  1  0
 38 92  1  0
 39 93  1  0
 40 94  1  0
 41 95  1  0
 41 96  1  0
 41 97  1  0
 42 98  1  0
 42 99  1  0
 42100  1  0
 43101  1  0
 44102  1  0
 47103  1  0
 48104  1  0
 51105  1  0
 52106  1  0
 55107  1  0
 56108  1  0
 59109  1  0
 60110  1  0
M  END
> <Uni-Dock RESULT> 
ENERGY=   -5.209  LOWER_BOUND=    1.518  UPPER_BOUND=    4.122
INTER + INTRA:          -5.209
INTER:                  -5.209
INTRA:                   0.000
UNBOUND:                 0.000

$$$$

     RDKit          3D

110109  0  0  0  0  0  0  0  0999 V2000
   42.6887   11.1789   11.3968 C   0  0  0  0  0  0  0  0  0  0  0  0
   43.1564   13.2151    8.2673 C   0  0  0  0  0  0  0  0  0  0  0  0
   42.4226   12.0501   10.2531 C   0  0  0  0  0  0  0  0  0  0  0  0
   43.4132   12.3162    9.3922 C   0  0  0  0  0  0  0  0  0  0  0  0
   43.7532   10.6827   11.7110 O   0  0  0  0  0  0  0  0  0  0  0  0
   42.1223   13.7982    8.0131 O   0  0  0  0  0  0  0  0  0  0  0  0
   44.2489   13.3227    7.4993 O   0  0  0  0  0  0  0  0  0  0  0  0
   41.5659   10.9818   12.1019 O   0  0  0  0  0  0  0  0  0  0  0  0
   38.4961   12.9850   12.0109 C   0  0  0  0  0  0  0  0  0  0  0  0
   39.5845   13.7233   12.4362 C   0  0  0  0  0  0  0  0  0  0  0  0
   40.8529   13.5049   12.0215 N   0  0  0  0  0  0  0  0  0  0  0  0
   41.0699   12.5071   11.1338 C   0  0  0  0  0  0  0  0  0  0  0  0
   40.0190   11.7142   10.6661 C   0  0  0  0  0  0  0  0  0  0  0  0
   38.7211   11.9551   11.1084 C   0  0  0  0  0  0  0  0  0  0  0  0
   42.3811   12.2400   10.6626 N   0  0  0  0  0  0  0  0  0  0  0  0
   43.3925   12.7559   11.6102 C   0  0  0  0  0  0  0  0  0  0  0  0
   42.5087   12.7538    9.2760 C   0  0  0  0  0  0  0  0  0  0  0  0
   43.4415   11.8592    8.4284 C   0  0  0  0  0  0  0  0  0  0  0  0
   43.2679   12.0286    6.9697 N   0  0  0  0  0  0  0  0  0  0  0  0
   44.0623   11.0245    6.2524 C   0  0  0  0  0  0  0  0  0  0  0  0
   43.6396   13.3711    6.5292 C   0  0  0  0  0  0  0  0  0  0  0  0
   44.7402   12.0903   11.4925 C   0  0  0  0  0  0  0  0  0  0  0  0
   45.0194   10.7360   11.4365 C   0  0  0  0  0  0  0  0  0  0  0  0
   46.4197   10.4780   11.3625 C   0  0  0  0  0  0  0  0  0  0  0  0
   47.1562   11.6413   11.3735 C   0  0  0  0  0  0  0  0  0  0  0  0
   46.1665   13.0336   11.4480 S   0  0  0  0  0  0  0  0  0  0  0  0
   43.4247   11.4166    9.4904 N   0  0  0  0  0  0  0  0  0  0  0  0
   44.3109   10.9753   10.4564 C   0  0  0  0  0  0  0  0  0  0  0  0
   41.1551   11.2771   10.5736 C   0  0  0  0  0  0  0  0  0  0  0  0
   40.0245   10.1261   11.1568 S   0  0  0  0  0  0  0  0  0  0  0  0
   42.0391   10.9572    9.3902 C   0  0  0  0  0  0  0  0  0  0  0  0
   45.4779   11.6537   10.5956 N   0  0  0  0  0  0  0  0  0  0  0  0
   39.5150   11.1624   12.4185 C   0  0  0  0  0  0  0  0  0  0  0  0
   41.1144   12.4393   11.3197 C   0  0  0  0  0  0  0  0  0  0  0  0
   43.9855   12.1625    8.3571 C   0  0  0  0  0  0  0  0  0  0  0  0
   40.1675   12.3760   12.3827 C   0  0  0  0  0  0  0  0  0  0  0  0
   42.2749   13.9872    7.8072 N   0  0  0  0  0  0  0  0  0  0  0  0
   43.5994   13.6591    8.3933 C   0  0  0  0  0  0  0  0  0  0  0  0
   44.0527    9.8696   11.2677 C   0  0  0  0  0  0  0  0  0  0  0  0
   46.3741   11.2431   11.5219 C   0  0  0  0  0  0  0  0  0  0  0  0
   41.9088   15.3672    8.1586 C   0  0  0  0  0  0  0  0  0  0  0  0
   42.2796   13.8479    6.3470 C   0  0  0  0  0  0  0  0  0  0  0  0
   44.9906    9.4515   12.2138 C   0  0  0  0  0  0  0  0  0  0  0  0
   46.1817   10.1462   12.3425 C   0  0  0  0  0  0  0  0  0  0  0  0
   42.2862   11.0799   11.2544 C   0  0  0  0  0  0  0  0  0  0  0  0
   43.5479   13.2915    8.3924 C   0  0  0  0  0  0  0  0  0  0  0  0
   42.9379   11.5507   10.0294 C   0  0  0  0  0  0  0  0  0  0  0  0
   42.8978   12.8237    9.6166 C   0  0  0  0  0  0  0  0  0  0  0  0
   42.3030    9.9284   11.6466 O   0  0  0  0  0  0  0  0  0  0  0  0
   43.5118   14.4395    7.9913 O   0  0  0  0  0  0  0  0  0  0  0  0
   44.2143   12.3366    7.7296 O   0  0  0  0  0  0  0  0  0  0  0  0
   41.6473   12.0433   11.9331 O   0  0  0  0  0  0  0  0  0  0  0  0
   43.9188   13.0974    8.4442 C   0  0  0  0  0  0  0  0  0  0  0  0
   41.9891   11.8692   11.5195 C   0  0  0  0  0  0  0  0  0  0  0  0
   43.5674   12.4429    9.7070 C   0  0  0  0  0  0  0  0  0  0  0  0
   42.3465   12.5202   10.2541 C   0  0  0  0  0  0  0  0  0  0  0  0
   45.0229   13.0484    7.9337 O   0  0  0  0  0  0  0  0  0  0  0  0
   40.8896   11.9325   12.0388 O   0  0  0  0  0  0  0  0  0  0  0  0
   42.9955   11.1738   12.0716 O   0  0  0  0  0  0  0  0  0  0  0  0
   42.9020   13.7691    7.8830 O   0  0  0  0  0  0  0  0  0  0  0  0
   41.4213   12.4442   10.1392 H   0  0  0  0  0  0  0  0  0  0  0  0
   44.4123   11.9124    9.5003 H   0  0  0  0  0  0  0  0  0  0  0  0
   43.9798   13.9355    6.7834 H   0  0  0  0  0  0  0  0  0  0  0  0
   41.8491   10.4052   12.8421 H   0  0  0  0  0  0  0  0  0  0  0  0
   37.4990   13.2052   12.3756 H   0  0  0  0  0  0  0  0  0  0  0  0
   39.4682   14.5396   13.1408 H   0  0  0  0  0  0  0  0  0  0  0  0
   40.2180   10.9061    9.9696 H   0  0  0  0  0  0  0  0  0  0  0  0
   37.8964   11.3443   10.7504 H   0  0  0  0  0  0  0  0  0  0  0  0
   43.0749   12.5620   12.6446 H   0  0  0  0  0  0  0  0  0  0  0  0
   43.4836   13.8474   11.5070 H   0  0  0  0  0  0  0  0  0  0  0  0
   42.8766   13.7880    9.2829 H   0  0  0  0  0  0  0  0  0  0  0  0
   41.5331   12.7828    8.7711 H   0  0  0  0  0  0  0  0  0  0  0  0
   44.4867   12.0463    8.6997 H   0  0  0  0  0  0  0  0  0  0  0  0
   43.2263   10.8145    8.6840 H   0  0  0  0  0  0  0  0  0  0  0  0
   43.7550   10.0151    6.5394 H   0  0  0  0  0  0  0  0  0  0  0  0
   43.9076   11.1069    5.1733 H   0  0  0  0  0  0  0  0  0  0  0  0
   45.1309   11.1284    6.4559 H   0  0  0  0  0  0  0  0  0  0  0  0
   43.0010   14.1381    6.9836 H   0  0  0  0  0  0  0  0  0  0  0  0
   44.6841   13.6128    6.7552 H   0  0  0  0  0  0  0  0  0  0  0  0
   43.4994   13.4711    5.4486 H   0  0  0  0  0  0  0  0  0  0  0  0
   44.2501    9.9766   11.4644 H   0  0  0  0  0  0  0  0  0  0  0  0
   46.8585    9.4895   11.3217 H   0  0  0  0  0  0  0  0  0  0  0  0
   48.2323   11.7386   11.3389 H   0  0  0  0  0  0  0  0  0  0  0  0
   42.0386    9.8767    9.1853 H   0  0  0  0  0  0  0  0  0  0  0  0
   41.5568   11.4113    8.5132 H   0  0  0  0  0  0  0  0  0  0  0  0
   38.7517   10.8450   13.1193 H   0  0  0  0  0  0  0  0  0  0  0  0
   41.7573   13.2939   11.1141 H   0  0  0  0  0  0  0  0  0  0  0  0
   45.0801   12.0930    8.3217 H   0  0  0  0  0  0  0  0  0  0  0  0
   43.6690   11.6885    7.4185 H   0  0  0  0  0  0  0  0  0  0  0  0
   39.9865   13.1740   13.0926 H   0  0  0  0  0  0  0  0  0  0  0  0
   44.3742   14.2356    7.8751 H   0  0  0  0  0  0  0  0  0  0  0  0
   43.6161   13.9889    9.4385 H   0  0  0  0  0  0  0  0  0  0  0  0
   43.1359    9.3049   11.1692 H   0  0  0  0  0  0  0  0  0  0  0  0
   47.2798   11.8411   11.5774 H   0  0  0  0  0  0  0  0  0  0  0  0
   42.6225   16.0974    7.7613 H   0  0  0  0  0  0  0  0  0  0  0  0
   41.8457   15.4865    9.2472 H   0  0  0  0  0  0  0  0  0  0  0  0
   40.9200   15.6127    7.7524 H   0  0  0  0  0  0  0  0  0  0  0  0
   42.4482   12.8103    6.0414 H   0  0  0  0  0  0  0  0  0  0  0  0
   41.3068   14.1278    5.9292 H   0  0  0  0  0  0  0  0  0  0  0  0
   43.0416   14.4803    5.8756 H   0  0  0  0  0  0  0  0  0  0  0  0
   44.7801    8.5842   12.8363 H   0  0  0  0  0  0  0  0  0  0  0  0
   46.9336    9.8455   13.0637 H   0  0  0  0  0  0  0  0  0  0  0  0
   43.4675   10.7808    9.4820 H   0  0  0  0  0  0  0  0  0  0  0  0
   42.3672   13.5897   10.1665 H   0  0  0  0  0  0  0  0  0  0  0  0
   44.5802   12.8017    6.9484 H   0  0  0  0  0  0  0  0  0  0  0  0
   41.2726   11.5771   12.7097 H   0  0  0  0  0  0  0  0  0  0  0  0
   44.3726   11.8827   10.1699 H   0  0  0  0  0  0  0  0  0  0  0  0
   41.5397   13.0791    9.7917 H   0  0  0  0  0  0  0  0  0  0  0  0
   42.6025   10.8079   12.8911 H   0  0  0  0  0  0  0  0  0  0  0  0
   43.2945   14.1438    7.0674 H   0  0  0  0  0  0  0  0  0  0  0  0
  2  4  1  0
  3  1  1  0
  4  3  2  0
  5  1  2  0
  6  2  2  0
  7  2  1  0
  8  1  1  0
 15 17  1  0
 12 15  1  0
 17 18  1  0
 11 12  1  0
 18 19  1  0
 15 16  1  0
 19 20  1  0
 19 21  1  0
 16 22  1  0
 23 24  1  0
 12 13  2  0
 10 11  2  0
 13 14  1  0
 22 23  2  0
 24 25  2  0
 25 26  1  0
 26 22  1  0
 14  9  2  0
  9 10  1  0
 28 27  1  0
 29 31  1  0
 30 29  1  0
 31 27  1  0
 32 28  2  0
 33 30  1  0
 34 29  2  0
 35 27  1  0
 36 34  1  0
 37 38  1  0
 38 35  1  0
 39 28  1  0
 40 32  1  0
 41 37  1  0
 42 37  1  0
 43 39  2  0
 44 40  2  0
 36 33  2  0
 43 44  1  0
 46 48  1  0
 47 45  1  0
 48 47  2  0
 49 45  2  0
 50 46  2  0
 51 46  1  0
 52 45  1  0
 54 56  1  0
 55 53  1  0
 56 55  2  0
 57 53  2  0
 58 54  2  0
 59 54  1  0
 60 53  1  0
  3 61  1  0
  4 62  1  0
  7 63  1  0
  8 64  1  0
  9 65  1  0
 10 66  1  0
 13 67  1  0
 14 68  1  0
 16 69  1  0
 16 70  1  0
 17 71  1  0
 17 72  1  0
 18 73  1  0
 18 74  1  0
 20 75  1  0
 20 76  1  0
 20 77  1  0
 21 78  1  0
 21 79  1  0
 21 80  1  0
 23 81  1  0
 24 82  1  0
 25 83  1  0
 31 84  1  0
 31 85  1  0
 33 86  1  0
 34 87  1  0
 35 88  1  0
 35 89  1  0
 36 90  1  0
 38 91  1  0
 38 92  1  0
 39 93  1  0
 40 94  1  0
 41 95  1  0
 41 96  1  0
 41 97  1  0
 42 98  1  0
 42 99  1  0
 42100  1  0
 43101  1  0
 44102  1  0
 47103  1  0
 48104  1  0
 51105  1  0
 52106  1  0
 55107  1  0
 56108  1  0
 59109  1  0
 60110  1  0
M  END
> <Uni-Dock RESULT> 
ENERGY=   -5.136  LOWER_BOUND=    9.779  UPPER_BOUND=   12.418
INTER + INTRA:          -5.136
INTER:                  -5.136
INTRA:                   0.000
UNBOUND:                 0.000

$$$$

     RDKit          3D

110109  0  0  0  0  0  0  0  0999 V2000
   47.8061    8.4288   19.2445 C   0  0  0  0  0  0  0  0  0  0  0  0
   51.4213    9.3036   18.6759 C   0  0  0  0  0  0  0  0  0  0  0  0
   49.2285    8.3192   18.9245 C   0  0  0  0  0  0  0  0  0  0  0  0
   50.0055    9.4048   19.0290 C   0  0  0  0  0  0  0  0  0  0  0  0
   47.1984    9.4339   19.5585 O   0  0  0  0  0  0  0  0  0  0  0  0
   52.0068    8.3256   18.2578 O   0  0  0  0  0  0  0  0  0  0  0  0
   52.0377   10.4744   18.8857 O   0  0  0  0  0  0  0  0  0  0  0  0
   47.2132    7.2310   19.1425 O   0  0  0  0  0  0  0  0  0  0  0  0
   48.4627    4.2684   17.3799 C   0  0  0  0  0  0  0  0  0  0  0  0
   48.2586    5.3337   16.5232 C   0  0  0  0  0  0  0  0  0  0  0  0
   48.4018    6.6293   16.8829 N   0  0  0  0  0  0  0  0  0  0  0  0
   48.7711    6.8999   18.1560 C   0  0  0  0  0  0  0  0  0  0  0  0
   48.9869    5.8741   19.0797 C   0  0  0  0  0  0  0  0  0  0  0  0
   48.8313    4.5472   18.6884 C   0  0  0  0  0  0  0  0  0  0  0  0
   48.9405    8.2421   18.5830 N   0  0  0  0  0  0  0  0  0  0  0  0
   48.1812    9.1671   17.7142 C   0  0  0  0  0  0  0  0  0  0  0  0
   50.3919    8.5354   18.6855 C   0  0  0  0  0  0  0  0  0  0  0  0
   50.6869    9.5170   19.8425 C   0  0  0  0  0  0  0  0  0  0  0  0
   52.0960    9.5053   20.2909 N   0  0  0  0  0  0  0  0  0  0  0  0
   52.2437   10.3312   21.4949 C   0  0  0  0  0  0  0  0  0  0  0  0
   53.0039    9.9735   19.2464 C   0  0  0  0  0  0  0  0  0  0  0  0
   47.8631   10.4927   18.3582 C   0  0  0  0  0  0  0  0  0  0  0  0
   47.3265   10.7232   19.6129 C   0  0  0  0  0  0  0  0  0  0  0  0
   47.1302   12.1124   19.8671 C   0  0  0  0  0  0  0  0  0  0  0  0
   47.5151   12.8883   18.7968 C   0  0  0  0  0  0  0  0  0  0  0  0
   48.1303   11.9514   17.5056 S   0  0  0  0  0  0  0  0  0  0  0  0
   49.5461    9.3708   19.8080 N   0  0  0  0  0  0  0  0  0  0  0  0
   48.3912   10.1321   19.8046 C   0  0  0  0  0  0  0  0  0  0  0  0
   48.7635    6.9958   19.5069 C   0  0  0  0  0  0  0  0  0  0  0  0
   47.8903    5.7659   20.3242 S   0  0  0  0  0  0  0  0  0  0  0  0
   49.6038    7.9867   20.2791 C   0  0  0  0  0  0  0  0  0  0  0  0
   48.4126   11.3034   19.1198 N   0  0  0  0  0  0  0  0  0  0  0  0
   47.2312    5.1667   18.8641 C   0  0  0  0  0  0  0  0  0  0  0  0
   48.5700    6.9218   18.1408 C   0  0  0  0  0  0  0  0  0  0  0  0
   50.8148   10.0769   19.5912 C   0  0  0  0  0  0  0  0  0  0  0  0
   47.6885    5.8662   17.7679 C   0  0  0  0  0  0  0  0  0  0  0  0
   52.2536    8.5064   18.1693 N   0  0  0  0  0  0  0  0  0  0  0  0
   51.4398    9.7477   18.2159 C   0  0  0  0  0  0  0  0  0  0  0  0
   47.2322    9.7467   20.4796 C   0  0  0  0  0  0  0  0  0  0  0  0
   47.3052   12.0800   19.1047 C   0  0  0  0  0  0  0  0  0  0  0  0
   52.5432    8.1593   16.7702 C   0  0  0  0  0  0  0  0  0  0  0  0
   53.5173    8.6600   18.8981 C   0  0  0  0  0  0  0  0  0  0  0  0
   46.0990   10.5624   20.4629 C   0  0  0  0  0  0  0  0  0  0  0  0
   46.1340   11.7594   19.7673 C   0  0  0  0  0  0  0  0  0  0  0  0
   47.9394    8.0401   19.3967 C   0  0  0  0  0  0  0  0  0  0  0  0
   51.2954    9.6824   18.5516 C   0  0  0  0  0  0  0  0  0  0  0  0
   49.1681    8.8354   19.4676 C   0  0  0  0  0  0  0  0  0  0  0  0
   50.0687    8.8888   18.4783 C   0  0  0  0  0  0  0  0  0  0  0  0
   47.1100    7.9704   20.2840 O   0  0  0  0  0  0  0  0  0  0  0  0
   52.1337    9.7336   17.6713 O   0  0  0  0  0  0  0  0  0  0  0  0
   51.4284   10.3773   19.6893 O   0  0  0  0  0  0  0  0  0  0  0  0
   47.7925    7.3711   18.2444 O   0  0  0  0  0  0  0  0  0  0  0  0
   51.1272   10.0378   18.7040 C   0  0  0  0  0  0  0  0  0  0  0  0
   48.0569    7.7476   18.5708 C   0  0  0  0  0  0  0  0  0  0  0  0
   49.7553    9.5298   18.7826 C   0  0  0  0  0  0  0  0  0  0  0  0
   49.4291    8.2618   18.4965 C   0  0  0  0  0  0  0  0  0  0  0  0
   51.4451   11.1870   18.9502 O   0  0  0  0  0  0  0  0  0  0  0  0
   47.7365    6.6027   18.3080 O   0  0  0  0  0  0  0  0  0  0  0  0
   47.1588    8.6622   18.9686 O   0  0  0  0  0  0  0  0  0  0  0  0
   52.0250    9.1129   18.3316 O   0  0  0  0  0  0  0  0  0  0  0  0
   49.6058    7.3517   18.6206 H   0  0  0  0  0  0  0  0  0  0  0  0
   49.6296   10.3704   19.3443 H   0  0  0  0  0  0  0  0  0  0  0  0
   52.9673   10.3066   18.6247 H   0  0  0  0  0  0  0  0  0  0  0  0
   46.2748    7.4116   19.3604 H   0  0  0  0  0  0  0  0  0  0  0  0
   48.3350    3.2476   17.0371 H   0  0  0  0  0  0  0  0  0  0  0  0
   47.9691    5.1755   15.4900 H   0  0  0  0  0  0  0  0  0  0  0  0
   49.2631    6.1139   20.1014 H   0  0  0  0  0  0  0  0  0  0  0  0
   48.9973    3.7417   19.3991 H   0  0  0  0  0  0  0  0  0  0  0  0
   47.2012    8.7347   17.4670 H   0  0  0  0  0  0  0  0  0  0  0  0
   48.7123    9.3111   16.7616 H   0  0  0  0  0  0  0  0  0  0  0  0
   50.7689    8.9406   17.7375 H   0  0  0  0  0  0  0  0  0  0  0  0
   50.9703    7.6205   18.8752 H   0  0  0  0  0  0  0  0  0  0  0  0
   50.4008   10.5342   19.5517 H   0  0  0  0  0  0  0  0  0  0  0  0
   50.0510    9.2354   20.6906 H   0  0  0  0  0  0  0  0  0  0  0  0
   51.6041    9.9562   22.2987 H   0  0  0  0  0  0  0  0  0  0  0  0
   53.2714   10.2947   21.8660 H   0  0  0  0  0  0  0  0  0  0  0  0
   51.9821   11.3755   21.3078 H   0  0  0  0  0  0  0  0  0  0  0  0
   52.9792    9.3208   18.3655 H   0  0  0  0  0  0  0  0  0  0  0  0
   52.7812   10.9968   18.9246 H   0  0  0  0  0  0  0  0  0  0  0  0
   54.0385    9.9522   19.6019 H   0  0  0  0  0  0  0  0  0  0  0  0
   47.0759    9.9263   20.2994 H   0  0  0  0  0  0  0  0  0  0  0  0
   46.7121   12.5141   20.7809 H   0  0  0  0  0  0  0  0  0  0  0  0
   47.4655   13.9651   18.7137 H   0  0  0  0  0  0  0  0  0  0  0  0
   49.3458    7.9657   21.3479 H   0  0  0  0  0  0  0  0  0  0  0  0
   50.6380    7.6179   20.2308 H   0  0  0  0  0  0  0  0  0  0  0  0
   46.5525    4.3218   18.8705 H   0  0  0  0  0  0  0  0  0  0  0  0
   49.0346    7.6157   17.4418 H   0  0  0  0  0  0  0  0  0  0  0  0
   50.6953   11.1655   19.6601 H   0  0  0  0  0  0  0  0  0  0  0  0
   51.5051    9.8431   20.4124 H   0  0  0  0  0  0  0  0  0  0  0  0
   47.3939    5.6424   16.7498 H   0  0  0  0  0  0  0  0  0  0  0  0
   52.0583   10.5949   17.8980 H   0  0  0  0  0  0  0  0  0  0  0  0
   50.6274    9.6667   17.4843 H   0  0  0  0  0  0  0  0  0  0  0  0
   47.1925    8.8241   21.0420 H   0  0  0  0  0  0  0  0  0  0  0  0
   47.3987   12.9974   18.5297 H   0  0  0  0  0  0  0  0  0  0  0  0
   53.1223    8.9389   16.2629 H   0  0  0  0  0  0  0  0  0  0  0  0
   51.6142    7.9862   16.2133 H   0  0  0  0  0  0  0  0  0  0  0  0
   53.1226    7.2293   16.7220 H   0  0  0  0  0  0  0  0  0  0  0  0
   53.3489    8.8193   19.9680 H   0  0  0  0  0  0  0  0  0  0  0  0
   54.1195    7.7483   18.8233 H   0  0  0  0  0  0  0  0  0  0  0  0
   54.1178    9.4916   18.5102 H   0  0  0  0  0  0  0  0  0  0  0  0
   45.2034   10.2537   20.9981 H   0  0  0  0  0  0  0  0  0  0  0  0
   45.2735   12.4186   19.7378 H   0  0  0  0  0  0  0  0  0  0  0  0
   49.2879    9.3895   20.3903 H   0  0  0  0  0  0  0  0  0  0  0  0
   49.9451    8.3333   17.5580 H   0  0  0  0  0  0  0  0  0  0  0  0
   52.2852   10.8416   19.5847 H   0  0  0  0  0  0  0  0  0  0  0  0
   46.9405    6.8986   18.3520 H   0  0  0  0  0  0  0  0  0  0  0  0
   49.0160   10.2590   19.0955 H   0  0  0  0  0  0  0  0  0  0  0  0
   50.1676    7.5308   18.1844 H   0  0  0  0  0  0  0  0  0  0  0  0
   46.3112    8.1708   18.9672 H   0  0  0  0  0  0  0  0  0  0  0  0
   52.8729    9.6038   18.3234 H   0  0  0  0  0  0  0  0  0  0  0  0
  2  4  1  0
  3  1  1  0
  4  3  2  0
  5  1  2  0
  6  2  2  0
  7  2  1  0
  8  1  1  0
 15 17  1  0
 12 15  1  0
 17 18  1  0
 11 12  1  0
 18 19  1  0
 15 16  1  0
 19 20  1  0
 19 21  1  0
 16 22  1  0
 23 24  1  0
 12 13  2  0
 10 11  2  0
 13 14  1  0
 22 23  2  0
 24 25  2  0
 25 26  1  0
 26 22  1  0
 14  9  2  0
  9 10  1  0
 28 27  1  0
 29 31  1  0
 30 29  1  0
 31 27  1  0
 32 28  2  0
 33 30  1  0
 34 29  2  0
 35 27  1  0
 36 34  1  0
 37 38  1  0
 38 35  1  0
 39 28  1  0
 40 32  1  0
 41 37  1  0
 42 37  1  0
 43 39  2  0
 44 40  2  0
 36 33  2  0
 43 44  1  0
 46 48  1  0
 47 45  1  0
 48 47  2  0
 49 45  2  0
 50 46  2  0
 51 46  1  0
 52 45  1  0
 54 56  1  0
 55 53  1  0
 56 55  2  0
 57 53  2  0
 58 54  2  0
 59 54  1  0
 60 53  1  0
  3 61  1  0
  4 62  1  0
  7 63  1  0
  8 64  1  0
  9 65  1  0
 10 66  1  0
 13 67  1  0
 14 68  1  0
 16 69  1  0
 16 70  1  0
 17 71  1  0
 17 72  1  0
 18 73  1  0
 18 74  1  0
 20 75  1  0
 20 76  1  0
 20 77  1  0
 21 78  1  0
 21 79  1  0
 21 80  1  0
 23 81  1  0
 24 82  1  0
 25 83  1  0
 31 84  1  0
 31 85  1  0
 33 86  1  0
 34 87  1  0
 35 88  1  0
 35 89  1  0
 36 90  1  0
 38 91  1  0
 38 92  1  0
 39 93  1  0
 40 94  1  0
 41 95  1  0
 41 96  1  0
 41 97  1  0
 42 98  1  0
 42 99  1  0
 42100  1  0
 43101  1  0
 44102  1  0
 47103  1  0
 48104  1  0
 51105  1  0
 52106  1  0
 55107  1  0
 56108  1  0
 59109  1  0
 60110  1  0
M  END
> <Uni-Dock RESULT> 
ENERGY=   -4.961  LOWER_BOUND=    2.238  UPPER_BOUND=    5.319
INTER + INTRA:          -4.961
INTER:                  -4.961
INTRA:                   0.000
UNBOUND:                 0.000

$$$$

     RDKit          3D

110109  0  0  0  0  0  0  0  0999 V2000
   43.2531   12.7929    9.8203 C   0  0  0  0  0  0  0  0  0  0  0  0
   39.8997   11.5256   10.9633 C   0  0  0  0  0  0  0  0  0  0  0  0
   41.8090   12.6028    9.9468 C   0  0  0  0  0  0  0  0  0  0  0  0
   41.3426   11.7415   10.8601 C   0  0  0  0  0  0  0  0  0  0  0  0
   44.1279   12.2072   10.4284 O   0  0  0  0  0  0  0  0  0  0  0  0
   39.0301   12.0294   10.2822 O   0  0  0  0  0  0  0  0  0  0  0  0
   39.6278   10.6679   11.9560 O   0  0  0  0  0  0  0  0  0  0  0  0
   43.5194   13.7344    8.9041 O   0  0  0  0  0  0  0  0  0  0  0  0
   41.2776   15.0012    6.2935 C   0  0  0  0  0  0  0  0  0  0  0  0
   41.5345   13.6510    6.1461 C   0  0  0  0  0  0  0  0  0  0  0  0
   41.7725   12.8111    7.1787 N   0  0  0  0  0  0  0  0  0  0  0  0
   41.7541   13.3210    8.4318 C   0  0  0  0  0  0  0  0  0  0  0  0
   41.5095   14.6780    8.6567 C   0  0  0  0  0  0  0  0  0  0  0  0
   41.2693   15.5253    7.5785 C   0  0  0  0  0  0  0  0  0  0  0  0
   41.9923   12.4816    9.5504 N   0  0  0  0  0  0  0  0  0  0  0  0
   42.7417   11.2723    9.1466 C   0  0  0  0  0  0  0  0  0  0  0  0
   40.7029   12.2146   10.2353 C   0  0  0  0  0  0  0  0  0  0  0  0
   40.8938   12.0881   11.7640 C   0  0  0  0  0  0  0  0  0  0  0  0
   39.6479   12.2733   12.5387 N   0  0  0  0  0  0  0  0  0  0  0  0
   39.9530   12.3092   13.9737 C   0  0  0  0  0  0  0  0  0  0  0  0
   38.6715   11.2231   12.2591 C   0  0  0  0  0  0  0  0  0  0  0  0
   43.4851   10.6050   10.2759 C   0  0  0  0  0  0  0  0  0  0  0  0
   44.3140   11.1933   11.2150 C   0  0  0  0  0  0  0  0  0  0  0  0
   44.8736   10.2371   12.1126 C   0  0  0  0  0  0  0  0  0  0  0  0
   44.4592    8.9569   11.8210 C   0  0  0  0  0  0  0  0  0  0  0  0
   43.3856    8.9109   10.4912 S   0  0  0  0  0  0  0  0  0  0  0  0
   41.9365   12.2573   11.3076 N   0  0  0  0  0  0  0  0  0  0  0  0
   43.2076   11.7152   11.3674 C   0  0  0  0  0  0  0  0  0  0  0  0
   42.0701   14.0411    9.5344 C   0  0  0  0  0  0  0  0  0  0  0  0
   42.7903   15.5683    9.2310 S   0  0  0  0  0  0  0  0  0  0  0  0
   41.6636   13.6458   10.9354 C   0  0  0  0  0  0  0  0  0  0  0  0
   43.3111   10.3669   11.4809 N   0  0  0  0  0  0  0  0  0  0  0  0
   42.9688   15.2310    7.5638 C   0  0  0  0  0  0  0  0  0  0  0  0
   41.9469   13.3070    8.3703 C   0  0  0  0  0  0  0  0  0  0  0  0
   40.8476   11.4811   11.9135 C   0  0  0  0  0  0  0  0  0  0  0  0
   42.4625   13.9925    7.2324 C   0  0  0  0  0  0  0  0  0  0  0  0
   38.8184   11.8162   10.3878 N   0  0  0  0  0  0  0  0  0  0  0  0
   39.8865   10.8955   10.8535 C   0  0  0  0  0  0  0  0  0  0  0  0
   44.3632   12.4965   11.3275 C   0  0  0  0  0  0  0  0  0  0  0  0
   44.5382    9.8025   11.5546 C   0  0  0  0  0  0  0  0  0  0  0  0
   38.1666   11.2521    9.1966 C   0  0  0  0  0  0  0  0  0  0  0  0
   37.8081   12.0429   11.4268 C   0  0  0  0  0  0  0  0  0  0  0  0
   45.6234   11.9013   11.4133 C   0  0  0  0  0  0  0  0  0  0  0  0
   45.7176   10.5252   11.5366 C   0  0  0  0  0  0  0  0  0  0  0  0
   43.0694   13.1872    9.7671 C   0  0  0  0  0  0  0  0  0  0  0  0
   40.0799   11.1552   11.0351 C   0  0  0  0  0  0  0  0  0  0  0  0
   42.1002   12.5114   10.6337 C   0  0  0  0  0  0  0  0  0  0  0  0
   41.0472   11.8282   10.1682 C   0  0  0  0  0  0  0  0  0  0  0  0
   44.0295   13.8189   10.1662 O   0  0  0  0  0  0  0  0  0  0  0  0
   39.1086   10.5420   10.6341 O   0  0  0  0  0  0  0  0  0  0  0  0
   40.3548   11.2585   12.3423 O   0  0  0  0  0  0  0  0  0  0  0  0
   42.8107   13.0554    8.4585 O   0  0  0  0  0  0  0  0  0  0  0  0
   40.3536   10.9696   11.2967 C   0  0  0  0  0  0  0  0  0  0  0  0
   42.7153   12.9282    8.9997 C   0  0  0  0  0  0  0  0  0  0  0  0
   41.5566   11.5113   10.6597 C   0  0  0  0  0  0  0  0  0  0  0  0
   41.5144   12.3840    9.6434 C   0  0  0  0  0  0  0  0  0  0  0  0
   40.3681   10.1696   12.2143 O   0  0  0  0  0  0  0  0  0  0  0  0
   42.7007   13.7151    8.0706 O   0  0  0  0  0  0  0  0  0  0  0  0
   43.8630   12.4830    9.5346 O   0  0  0  0  0  0  0  0  0  0  0  0
   39.2094   11.4380   10.7759 O   0  0  0  0  0  0  0  0  0  0  0  0
   41.1637   13.1787    9.2966 H   0  0  0  0  0  0  0  0  0  0  0  0
   41.9884   11.1738   11.5185 H   0  0  0  0  0  0  0  0  0  0  0  0
   38.6508   10.5905   11.9457 H   0  0  0  0  0  0  0  0  0  0  0  0
   44.4983   13.7766    8.8851 H   0  0  0  0  0  0  0  0  0  0  0  0
   41.0915   15.6288    5.4291 H   0  0  0  0  0  0  0  0  0  0  0  0
   41.5538   13.1872    5.1658 H   0  0  0  0  0  0  0  0  0  0  0  0
   41.5191   15.0702    9.6685 H   0  0  0  0  0  0  0  0  0  0  0  0
   41.0774   16.5825    7.7425 H   0  0  0  0  0  0  0  0  0  0  0  0
   43.5206   11.5363    8.4172 H   0  0  0  0  0  0  0  0  0  0  0  0
   42.0681   10.5611    8.6459 H   0  0  0  0  0  0  0  0  0  0  0  0
   40.2368   11.3054    9.8338 H   0  0  0  0  0  0  0  0  0  0  0  0
   39.9835   13.0265   10.0600 H   0  0  0  0  0  0  0  0  0  0  0  0
   41.3376   11.1157   12.0060 H   0  0  0  0  0  0  0  0  0  0  0  0
   41.6131   12.8551   12.0759 H   0  0  0  0  0  0  0  0  0  0  0  0
   40.6449   13.1255   14.1989 H   0  0  0  0  0  0  0  0  0  0  0  0
   39.0472   12.4928   14.5578 H   0  0  0  0  0  0  0  0  0  0  0  0
   40.4017   11.3746   14.3188 H   0  0  0  0  0  0  0  0  0  0  0  0
   38.3580   11.2305   11.2083 H   0  0  0  0  0  0  0  0  0  0  0  0
   39.0499   10.2235   12.4998 H   0  0  0  0  0  0  0  0  0  0  0  0
   37.7594   11.3848   12.8415 H   0  0  0  0  0  0  0  0  0  0  0  0
   44.5146   12.2555   11.2373 H   0  0  0  0  0  0  0  0  0  0  0  0
   45.5571   10.4790   12.9162 H   0  0  0  0  0  0  0  0  0  0  0  0
   44.7362    8.0441   12.3299 H   0  0  0  0  0  0  0  0  0  0  0  0
   42.1307   14.3094   11.6776 H   0  0  0  0  0  0  0  0  0  0  0  0
   40.5863   13.8491   11.0130 H   0  0  0  0  0  0  0  0  0  0  0  0
   43.4206   15.9577    6.8988 H   0  0  0  0  0  0  0  0  0  0  0  0
   41.5167   12.3069    8.3475 H   0  0  0  0  0  0  0  0  0  0  0  0
   41.2260   10.6529   12.5260 H   0  0  0  0  0  0  0  0  0  0  0  0
   40.3126   12.1102   12.6371 H   0  0  0  0  0  0  0  0  0  0  0  0
   42.4747   13.5907    6.2264 H   0  0  0  0  0  0  0  0  0  0  0  0
   39.4263    9.9871   11.2586 H   0  0  0  0  0  0  0  0  0  0  0  0
   40.4843   10.5804    9.9903 H   0  0  0  0  0  0  0  0  0  0  0  0
   44.3082   13.5735   11.2490 H   0  0  0  0  0  0  0  0  0  0  0  0
   44.5381    8.7188   11.6369 H   0  0  0  0  0  0  0  0  0  0  0  0
   37.6881   10.2889    9.4051 H   0  0  0  0  0  0  0  0  0  0  0  0
   38.8910   11.1215    8.3833 H   0  0  0  0  0  0  0  0  0  0  0  0
   37.3923   11.9359    8.8279 H   0  0  0  0  0  0  0  0  0  0  0  0
   38.2318   12.5562   12.2960 H   0  0  0  0  0  0  0  0  0  0  0  0
   37.0108   12.6947   11.0544 H   0  0  0  0  0  0  0  0  0  0  0  0
   37.3465   11.1067   11.7633 H   0  0  0  0  0  0  0  0  0  0  0  0
   46.5167   12.5220   11.3870 H   0  0  0  0  0  0  0  0  0  0  0  0
   46.6801   10.0314   11.6104 H   0  0  0  0  0  0  0  0  0  0  0  0
   42.3096   12.6020   11.6924 H   0  0  0  0  0  0  0  0  0  0  0  0
   40.8415   11.7404    9.1095 H   0  0  0  0  0  0  0  0  0  0  0  0
   39.6254   10.7690   12.7772 H   0  0  0  0  0  0  0  0  0  0  0  0
   43.5341   13.5529    8.0228 H   0  0  0  0  0  0  0  0  0  0  0  0
   42.4928   11.1554   11.0758 H   0  0  0  0  0  0  0  0  0  0  0  0
   40.5787   12.7418    9.2268 H   0  0  0  0  0  0  0  0  0  0  0  0
   44.5547   12.9312    9.0051 H   0  0  0  0  0  0  0  0  0  0  0  0
   38.5151   10.9845   11.2976 H   0  0  0  0  0  0  0  0  0  0  0  0
  2  4  1  0
  3  1  1  0
  4  3  2  0
  5  1  2  0
  6  2  2  0
  7  2  1  0
  8  1  1  0
 15 17  1  0
 12 15  1  0
 17 18  1  0
 11 12  1  0
 18 19  1  0
 15 16  1  0
 19 20  1  0
 19 21  1  0
 16 22  1  0
 23 24  1  0
 12 13  2  0
 10 11  2  0
 13 14  1  0
 22 23  2  0
 24 25  2  0
 25 26  1  0
 26 22  1  0
 14  9  2  0
  9 10  1  0
 28 27  1  0
 29 31  1  0
 30 29  1  0
 31 27  1  0
 32 28  2  0
 33 30  1  0
 34 29  2  0
 35 27  1  0
 36 34  1  0
 37 38  1  0
 38 35  1  0
 39 28  1  0
 40 32  1  0
 41 37  1  0
 42 37  1  0
 43 39  2  0
 44 40  2  0
 36 33  2  0
 43 44  1  0
 46 48  1  0
 47 45  1  0
 48 47  2  0
 49 45  2  0
 50 46  2  0
 51 46  1  0
 52 45  1  0
 54 56  1  0
 55 53  1  0
 56 55  2  0
 57 53  2  0
 58 54  2  0
 59 54  1  0
 60 53  1  0
  3 61  1  0
  4 62  1  0
  7 63  1  0
  8 64  1  0
  9 65  1  0
 10 66  1  0
 13 67  1  0
 14 68  1  0
 16 69  1  0
 16 70  1  0
 17 71  1  0
 17 72  1  0
 18 73  1  0
 18 74  1  0
 20 75  1  0
 20 76  1  0
 20 77  1  0
 21 78  1  0
 21 79  1  0
 21 80  1  0
 23 81  1  0
 24 82  1  0
 25 83  1  0
 31 84  1  0
 31 85  1  0
 33 86  1  0
 34 87  1  0
 35 88  1  0
 35 89  1  0
 36 90  1  0
 38 91  1  0
 38 92  1  0
 39 93  1  0
 40 94  1  0
 41 95  1  0
 41 96  1  0
 41 97  1  0
 42 98  1  0
 42 99  1  0
 42100  1  0
 43101  1  0
 44102  1  0
 47103  1  0
 48104  1  0
 51105  1  0
 52106  1  0
 55107  1  0
 56108  1  0
 59109  1  0
 60110  1  0
M  END
> <Uni-Dock RESULT> 
ENERGY=   -4.943  LOWER_BOUND=   10.325  UPPER_BOUND=   12.471
INTER + INTRA:          -4.943
INTER:                  -4.943
INTRA:                   0.000
UNBOUND:                 0.000

$$$$

     RDKit          3D

110109  0  0  0  0  0  0  0  0999 V2000
   48.1945    6.0092   19.2683 C   0  0  0  0  0  0  0  0  0  0  0  0
   51.1925    7.6235   17.6669 C   0  0  0  0  0  0  0  0  0  0  0  0
   49.3095    6.2778   18.3614 C   0  0  0  0  0  0  0  0  0  0  0  0
   50.0982    7.3348   18.5934 C   0  0  0  0  0  0  0  0  0  0  0  0
   47.8429    6.6794   20.2197 O   0  0  0  0  0  0  0  0  0  0  0  0
   51.4785    7.0170   16.6548 O   0  0  0  0  0  0  0  0  0  0  0  0
   51.8901    8.6869   18.0882 O   0  0  0  0  0  0  0  0  0  0  0  0
   47.5656    4.8809   18.9101 O   0  0  0  0  0  0  0  0  0  0  0  0
   47.7400    3.1625   15.6757 C   0  0  0  0  0  0  0  0  0  0  0  0
   47.2181    4.4370   15.5581 C   0  0  0  0  0  0  0  0  0  0  0  0
   47.5686    5.4722   16.3545 N   0  0  0  0  0  0  0  0  0  0  0  0
   48.4881    5.2491   17.3215 C   0  0  0  0  0  0  0  0  0  0  0  0
   49.0526    3.9842   17.5044 C   0  0  0  0  0  0  0  0  0  0  0  0
   48.6753    2.9320   16.6746 C   0  0  0  0  0  0  0  0  0  0  0  0
   48.8946    6.3024   18.1804 N   0  0  0  0  0  0  0  0  0  0  0  0
   47.8669    7.3647   18.2277 C   0  0  0  0  0  0  0  0  0  0  0  0
   50.2458    6.7619   17.7729 C   0  0  0  0  0  0  0  0  0  0  0  0
   51.0792    7.2113   18.9947 C   0  0  0  0  0  0  0  0  0  0  0  0
   52.5359    7.2477   18.7432 N   0  0  0  0  0  0  0  0  0  0  0  0
   53.2524    7.5140   19.9960 C   0  0  0  0  0  0  0  0  0  0  0  0
   52.8905    8.2484   17.7395 C   0  0  0  0  0  0  0  0  0  0  0  0
   47.9375    8.2332   19.4582 C   0  0  0  0  0  0  0  0  0  0  0  0
   48.0409    7.8325   20.7788 C   0  0  0  0  0  0  0  0  0  0  0  0
   48.0457    8.9392   21.6779 C   0  0  0  0  0  0  0  0  0  0  0  0
   47.9375   10.1399   21.0129 C   0  0  0  0  0  0  0  0  0  0  0  0
   47.8550    9.9360   19.3173 S   0  0  0  0  0  0  0  0  0  0  0  0
   50.0418    6.9067   19.3887 N   0  0  0  0  0  0  0  0  0  0  0  0
   49.0480    7.3994   20.2149 C   0  0  0  0  0  0  0  0  0  0  0  0
   49.0996    4.7752   18.4331 C   0  0  0  0  0  0  0  0  0  0  0  0
   48.6375    3.1921   18.9055 S   0  0  0  0  0  0  0  0  0  0  0  0
   50.2435    5.4819   19.1232 C   0  0  0  0  0  0  0  0  0  0  0  0
   48.8098    8.7350   20.1839 N   0  0  0  0  0  0  0  0  0  0  0  0
   47.3601    3.1504   17.7690 C   0  0  0  0  0  0  0  0  0  0  0  0
   48.3033    5.2418   17.4048 C   0  0  0  0  0  0  0  0  0  0  0  0
   51.1045    7.8376   18.9897 C   0  0  0  0  0  0  0  0  0  0  0  0
   47.3011    4.3053   17.0189 C   0  0  0  0  0  0  0  0  0  0  0  0
   51.6661    7.2562   16.5598 N   0  0  0  0  0  0  0  0  0  0  0  0
   51.0204    8.2144   17.4927 C   0  0  0  0  0  0  0  0  0  0  0  0
   48.3059    6.5843   21.0706 C   0  0  0  0  0  0  0  0  0  0  0  0
   47.8535    9.2541   20.9875 C   0  0  0  0  0  0  0  0  0  0  0  0
   51.2721    7.5715   15.1788 C   0  0  0  0  0  0  0  0  0  0  0  0
   53.1286    7.3007   16.6646 C   0  0  0  0  0  0  0  0  0  0  0  0
   47.3277    7.1349   21.9011 C   0  0  0  0  0  0  0  0  0  0  0  0
   47.0978    8.5001   21.8672 C   0  0  0  0  0  0  0  0  0  0  0  0
   48.3644    5.6201   19.1595 C   0  0  0  0  0  0  0  0  0  0  0  0
   51.0415    7.9933   17.7901 C   0  0  0  0  0  0  0  0  0  0  0  0
   49.5262    6.5056   19.0441 C   0  0  0  0  0  0  0  0  0  0  0  0
   49.8804    7.1108   17.9036 C   0  0  0  0  0  0  0  0  0  0  0  0
   48.0265    5.0543   20.1820 O   0  0  0  0  0  0  0  0  0  0  0  0
   51.3897    8.5412   16.7611 O   0  0  0  0  0  0  0  0  0  0  0  0
   51.7088    8.1673   18.9389 O   0  0  0  0  0  0  0  0  0  0  0  0
   47.6793    5.4732   18.0167 O   0  0  0  0  0  0  0  0  0  0  0  0
   50.9776    8.2209   18.1394 C   0  0  0  0  0  0  0  0  0  0  0  0
   48.0802    5.7190   18.3282 C   0  0  0  0  0  0  0  0  0  0  0  0
   49.7694    7.5074   18.5608 C   0  0  0  0  0  0  0  0  0  0  0  0
   49.2908    6.4363   17.9128 C   0  0  0  0  0  0  0  0  0  0  0  0
   51.4250    9.2006   18.7069 O   0  0  0  0  0  0  0  0  0  0  0  0
   47.6231    4.7495   17.7505 O   0  0  0  0  0  0  0  0  0  0  0  0
   47.5041    6.2256   19.4295 O   0  0  0  0  0  0  0  0  0  0  0  0
   51.5644    7.6946   17.0537 O   0  0  0  0  0  0  0  0  0  0  0  0
   49.4625    5.5992   17.5325 H   0  0  0  0  0  0  0  0  0  0  0  0
   49.9515    8.0072   19.4296 H   0  0  0  0  0  0  0  0  0  0  0  0
   52.5908    8.7977   17.4120 H   0  0  0  0  0  0  0  0  0  0  0  0
   46.8382    4.7980   19.5616 H   0  0  0  0  0  0  0  0  0  0  0  0
   47.4237    2.3691   15.0077 H   0  0  0  0  0  0  0  0  0  0  0  0
   46.4838    4.6747   14.7961 H   0  0  0  0  0  0  0  0  0  0  0  0
   49.7736    3.8221   18.2992 H   0  0  0  0  0  0  0  0  0  0  0  0
   49.1088    1.9442   16.8081 H   0  0  0  0  0  0  0  0  0  0  0  0
   46.8628    6.9182   18.2586 H   0  0  0  0  0  0  0  0  0  0  0  0
   47.9132    7.9750   17.3136 H   0  0  0  0  0  0  0  0  0  0  0  0
   50.1691    7.5788   17.0437 H   0  0  0  0  0  0  0  0  0  0  0  0
   50.8045    5.9596   17.2712 H   0  0  0  0  0  0  0  0  0  0  0  0
   50.7393    8.1953   19.3374 H   0  0  0  0  0  0  0  0  0  0  0  0
   50.8858    6.5038   19.8102 H   0  0  0  0  0  0  0  0  0  0  0  0
   53.0314    6.7404   20.7366 H   0  0  0  0  0  0  0  0  0  0  0  0
   54.3336    7.4972   19.8348 H   0  0  0  0  0  0  0  0  0  0  0  0
   52.9827    8.4834   20.4219 H   0  0  0  0  0  0  0  0  0  0  0  0
   52.4383    8.0240   16.7660 H   0  0  0  0  0  0  0  0  0  0  0  0
   52.5933    9.2611   18.0334 H   0  0  0  0  0  0  0  0  0  0  0  0
   53.9715    8.2529   17.5700 H   0  0  0  0  0  0  0  0  0  0  0  0
   48.0932    6.7938   21.0744 H   0  0  0  0  0  0  0  0  0  0  0  0
   48.1074    8.8522   22.7549 H   0  0  0  0  0  0  0  0  0  0  0  0
   47.9051   11.1303   21.4451 H   0  0  0  0  0  0  0  0  0  0  0  0
   50.4987    4.9787   20.0672 H   0  0  0  0  0  0  0  0  0  0  0  0
   51.1247    5.3421   18.4813 H   0  0  0  0  0  0  0  0  0  0  0  0
   46.7204    2.2793   17.6892 H   0  0  0  0  0  0  0  0  0  0  0  0
   48.4309    6.2287   16.9626 H   0  0  0  0  0  0  0  0  0  0  0  0
   51.0797    8.7643   19.5770 H   0  0  0  0  0  0  0  0  0  0  0  0
   52.0810    7.4026   19.2403 H   0  0  0  0  0  0  0  0  0  0  0  0
   46.5661    4.4773   16.2418 H   0  0  0  0  0  0  0  0  0  0  0  0
   51.4652    9.2064   17.3534 H   0  0  0  0  0  0  0  0  0  0  0  0
   49.9616    8.3104   17.2256 H   0  0  0  0  0  0  0  0  0  0  0  0
   48.4837    5.5190   21.1229 H   0  0  0  0  0  0  0  0  0  0  0  0
   47.7176   10.3288   20.8999 H   0  0  0  0  0  0  0  0  0  0  0  0
   51.5926    8.5747   14.8770 H   0  0  0  0  0  0  0  0  0  0  0  0
   50.1846    7.4936   15.0584 H   0  0  0  0  0  0  0  0  0  0  0  0
   51.7228    6.8541   14.4823 H   0  0  0  0  0  0  0  0  0  0  0  0
   53.4722    6.9734   17.6511 H   0  0  0  0  0  0  0  0  0  0  0  0
   53.5883    6.6145   15.9455 H   0  0  0  0  0  0  0  0  0  0  0  0
   53.5248    8.3048   16.4708 H   0  0  0  0  0  0  0  0  0  0  0  0
   46.7599    6.4895   22.5683 H   0  0  0  0  0  0  0  0  0  0  0  0
   46.3493    8.9607   22.5023 H   0  0  0  0  0  0  0  0  0  0  0  0
   50.0776    6.6400   19.9665 H   0  0  0  0  0  0  0  0  0  0  0  0
   49.3267    6.9734   16.9841 H   0  0  0  0  0  0  0  0  0  0  0  0
   52.4448    8.7675   18.6969 H   0  0  0  0  0  0  0  0  0  0  0  0
   46.9486    4.8651   18.2553 H   0  0  0  0  0  0  0  0  0  0  0  0
   49.2874    7.9092   19.4455 H   0  0  0  0  0  0  0  0  0  0  0  0
   49.7724    6.0325   17.0284 H   0  0  0  0  0  0  0  0  0  0  0  0
   46.7269    5.6463   19.5719 H   0  0  0  0  0  0  0  0  0  0  0  0
   52.3375    8.2773   16.9034 H   0  0  0  0  0  0  0  0  0  0  0  0
  2  4  1  0
  3  1  1  0
  4  3  2  0
  5  1  2  0
  6  2  2  0
  7  2  1  0
  8  1  1  0
 15 17  1  0
 12 15  1  0
 17 18  1  0
 11 12  1  0
 18 19  1  0
 15 16  1  0
 19 20  1  0
 19 21  1  0
 16 22  1  0
 23 24  1  0
 12 13  2  0
 10 11  2  0
 13 14  1  0
 22 23  2  0
 24 25  2  0
 25 26  1  0
 26 22  1  0
 14  9  2  0
  9 10  1  0
 28 27  1  0
 29 31  1  0
 30 29  1  0
 31 27  1  0
 32 28  2  0
 33 30  1  0
 34 29  2  0
 35 27  1  0
 36 34  1  0
 37 38  1  0
 38 35  1  0
 39 28  1  0
 40 32  1  0
 41 37  1  0
 42 37  1  0
 43 39  2  0
 44 40  2  0
 36 33  2  0
 43 44  1  0
 46 48  1  0
 47 45  1  0
 48 47  2  0
 49 45  2  0
 50 46  2  0
 51 46  1  0
 52 45  1  0
 54 56  1  0
 55 53  1  0
 56 55  2  0
 57 53  2  0
 58 54  2  0
 59 54  1  0
 60 53  1  0
  3 61  1  0
  4 62  1  0
  7 63  1  0
  8 64  1  0
  9 65  1  0
 10 66  1  0
 13 67  1  0
 14 68  1  0
 16 69  1  0
 16 70  1  0
 17 71  1  0
 17 72  1  0
 18 73  1  0
 18 74  1  0
 20 75  1  0
 20 76  1  0
 20 77  1  0
 21 78  1  0
 21 79  1  0
 21 80  1  0
 23 81  1  0
 24 82  1  0
 25 83  1  0
 31 84  1  0
 31 85  1  0
 33 86  1  0
 34 87  1  0
 35 88  1  0
 35 89  1  0
 36 90  1  0
 38 91  1  0
 38 92  1  0
 39 93  1  0
 40 94  1  0
 41 95  1  0
 41 96  1  0
 41 97  1  0
 42 98  1  0
 42 99  1  0
 42100  1  0
 43101  1  0
 44102  1  0
 47103  1  0
 48104  1  0
 51105  1  0
 52106  1  0
 55107  1  0
 56108  1  0
 59109  1  0
 60110  1  0
M  END
> <Uni-Dock RESULT> 
ENERGY=   -4.914  LOWER_BOUND=    1.674  UPPER_BOUND=    4.715
INTER + INTRA:          -4.914
INTER:                  -4.914
INTRA:                   0.000
UNBOUND:                 0.000

$$$$

     RDKit          3D

110109  0  0  0  0  0  0  0  0999 V2000
   48.6469    9.4339   15.9141 C   0  0  0  0  0  0  0  0  0  0  0  0
   51.9539    7.6588   16.1807 C   0  0  0  0  0  0  0  0  0  0  0  0
   49.8215    8.7594   16.4647 C   0  0  0  0  0  0  0  0  0  0  0  0
   50.7949    8.3642   15.6343 C   0  0  0  0  0  0  0  0  0  0  0  0
   48.4036    9.6474   14.7423 O   0  0  0  0  0  0  0  0  0  0  0  0
   52.1474    7.3485   17.3384 O   0  0  0  0  0  0  0  0  0  0  0  0
   52.8331    7.3855   15.2075 O   0  0  0  0  0  0  0  0  0  0  0  0
   47.8202    9.8070   16.9011 O   0  0  0  0  0  0  0  0  0  0  0  0
   47.7570    8.5573   20.3477 C   0  0  0  0  0  0  0  0  0  0  0  0
   47.5002    7.5572   19.4288 C   0  0  0  0  0  0  0  0  0  0  0  0
   48.0216    7.5265   18.1816 N   0  0  0  0  0  0  0  0  0  0  0  0
   48.8477    8.5321   17.8116 C   0  0  0  0  0  0  0  0  0  0  0  0
   49.1461    9.5810   18.6849 C   0  0  0  0  0  0  0  0  0  0  0  0
   48.5961    9.5938   19.9637 C   0  0  0  0  0  0  0  0  0  0  0  0
   49.4256    8.5447   16.5161 N   0  0  0  0  0  0  0  0  0  0  0  0
   48.6261    7.7267   15.5788 C   0  0  0  0  0  0  0  0  0  0  0  0
   50.8532    8.1526   16.6217 C   0  0  0  0  0  0  0  0  0  0  0  0
   51.7190    8.8948   15.5783 C   0  0  0  0  0  0  0  0  0  0  0  0
   53.1617    8.9109   15.9021 N   0  0  0  0  0  0  0  0  0  0  0  0
   53.8759    9.7774   14.9572 C   0  0  0  0  0  0  0  0  0  0  0  0
   53.7385    7.5686   15.8869 C   0  0  0  0  0  0  0  0  0  0  0  0
   48.8266    8.0832   14.1276 C   0  0  0  0  0  0  0  0  0  0  0  0
   48.8065    9.3401   13.5487 C   0  0  0  0  0  0  0  0  0  0  0  0
   49.0000    9.2852   12.1371 C   0  0  0  0  0  0  0  0  0  0  0  0
   49.1516    7.9916   11.6907 C   0  0  0  0  0  0  0  0  0  0  0  0
   49.0852    6.8545   12.9659 S   0  0  0  0  0  0  0  0  0  0  0  0
   50.6299    9.2245   15.4075 N   0  0  0  0  0  0  0  0  0  0  0  0
   49.7263    9.3611   14.3692 C   0  0  0  0  0  0  0  0  0  0  0  0
   49.3179    9.7607   17.4897 C   0  0  0  0  0  0  0  0  0  0  0  0
   48.5384   11.0725   18.2737 S   0  0  0  0  0  0  0  0  0  0  0  0
   50.5557    9.9889   16.6531 C   0  0  0  0  0  0  0  0  0  0  0  0
   49.7567    8.4294   13.3831 N   0  0  0  0  0  0  0  0  0  0  0  0
   47.3150   10.0584   18.9063 C   0  0  0  0  0  0  0  0  0  0  0  0
   48.6625    8.5699   17.7380 C   0  0  0  0  0  0  0  0  0  0  0  0
   51.8672    8.4862   15.1265 C   0  0  0  0  0  0  0  0  0  0  0  0
   47.5085    8.7392   18.5566 C   0  0  0  0  0  0  0  0  0  0  0  0
   52.3814    7.1512   17.2505 N   0  0  0  0  0  0  0  0  0  0  0  0
   51.9072    7.1171   15.8436 C   0  0  0  0  0  0  0  0  0  0  0  0
   48.8112   10.4124   14.2994 C   0  0  0  0  0  0  0  0  0  0  0  0
   48.8958    8.5378   12.3453 C   0  0  0  0  0  0  0  0  0  0  0  0
   52.1017    5.8601   17.8961 C   0  0  0  0  0  0  0  0  0  0  0  0
   53.8198    7.4271   17.3303 C   0  0  0  0  0  0  0  0  0  0  0  0
   47.9342   10.5169   13.2179 C   0  0  0  0  0  0  0  0  0  0  0  0
   47.9787    9.5649   12.2130 C   0  0  0  0  0  0  0  0  0  0  0  0
   48.7404    9.6336   16.2929 C   0  0  0  0  0  0  0  0  0  0  0  0
   51.8748    7.4853   15.8087 C   0  0  0  0  0  0  0  0  0  0  0  0
   50.0568    9.1507   15.8676 C   0  0  0  0  0  0  0  0  0  0  0  0
   50.5596    7.9650   16.2333 C   0  0  0  0  0  0  0  0  0  0  0  0
   48.2650   10.7087   15.9795 O   0  0  0  0  0  0  0  0  0  0  0  0
   52.3568    6.4188   16.1409 O   0  0  0  0  0  0  0  0  0  0  0  0
   52.5258    8.3273   14.9949 O   0  0  0  0  0  0  0  0  0  0  0  0
   48.0769    8.7756   17.0807 O   0  0  0  0  0  0  0  0  0  0  0  0
   51.8456    7.5858   15.4001 C   0  0  0  0  0  0  0  0  0  0  0  0
   48.5081    8.9085   16.7422 C   0  0  0  0  0  0  0  0  0  0  0  0
   50.5077    8.1763   15.4888 C   0  0  0  0  0  0  0  0  0  0  0  0
   49.8488    8.3204   16.6470 C   0  0  0  0  0  0  0  0  0  0  0  0
   52.4586    7.4367   14.3588 O   0  0  0  0  0  0  0  0  0  0  0  0
   47.8879    9.0418   17.7815 O   0  0  0  0  0  0  0  0  0  0  0  0
   48.0077    9.3050   15.5615 O   0  0  0  0  0  0  0  0  0  0  0  0
   52.3521    7.2155   16.5860 O   0  0  0  0  0  0  0  0  0  0  0  0
   49.8647    8.6115   17.5357 H   0  0  0  0  0  0  0  0  0  0  0  0
   50.7565    8.5226   14.5636 H   0  0  0  0  0  0  0  0  0  0  0  0
   53.5634    6.9207   15.6670 H   0  0  0  0  0  0  0  0  0  0  0  0
   47.0700   10.2312   16.4343 H   0  0  0  0  0  0  0  0  0  0  0  0
   47.3124    8.5306   21.3364 H   0  0  0  0  0  0  0  0  0  0  0  0
   46.8519    6.7229   19.6739 H   0  0  0  0  0  0  0  0  0  0  0  0
   49.7951   10.3882   18.3610 H   0  0  0  0  0  0  0  0  0  0  0  0
   48.8222   10.4049   20.6511 H   0  0  0  0  0  0  0  0  0  0  0  0
   47.5533    7.8850   15.7594 H   0  0  0  0  0  0  0  0  0  0  0  0
   48.8209    6.6577   15.7507 H   0  0  0  0  0  0  0  0  0  0  0  0
   50.9623    7.0668   16.5032 H   0  0  0  0  0  0  0  0  0  0  0  0
   51.2590    8.3911   17.6147 H   0  0  0  0  0  0  0  0  0  0  0  0
   51.5685    8.4538   14.5862 H   0  0  0  0  0  0  0  0  0  0  0  0
   51.3641    9.9312   15.5253 H   0  0  0  0  0  0  0  0  0  0  0  0
   53.4833   10.7972   14.9993 H   0  0  0  0  0  0  0  0  0  0  0  0
   54.9373    9.8369   15.2125 H   0  0  0  0  0  0  0  0  0  0  0  0
   53.7887    9.4186   13.9288 H   0  0  0  0  0  0  0  0  0  0  0  0
   53.2825    6.9229   16.6470 H   0  0  0  0  0  0  0  0  0  0  0  0
   53.6370    7.0794   14.9118 H   0  0  0  0  0  0  0  0  0  0  0  0
   54.8040    7.6080   16.1323 H   0  0  0  0  0  0  0  0  0  0  0  0
   48.6439   10.2454   14.1170 H   0  0  0  0  0  0  0  0  0  0  0  0
   49.0088   10.1502   11.4866 H   0  0  0  0  0  0  0  0  0  0  0  0
   49.3009    7.6606   10.6724 H   0  0  0  0  0  0  0  0  0  0  0  0
   50.6764   11.0570   16.4205 H   0  0  0  0  0  0  0  0  0  0  0  0
   51.4123    9.7412   17.2956 H   0  0  0  0  0  0  0  0  0  0  0  0
   46.5193   10.4683   19.5172 H   0  0  0  0  0  0  0  0  0  0  0  0
   48.9960    7.6177   17.3282 H   0  0  0  0  0  0  0  0  0  0  0  0
   52.0063    8.3130   14.0518 H   0  0  0  0  0  0  0  0  0  0  0  0
   52.7305    9.1077   15.3988 H   0  0  0  0  0  0  0  0  0  0  0  0
   46.8472    7.9366   18.8598 H   0  0  0  0  0  0  0  0  0  0  0  0
   52.5426    6.4355   15.2667 H   0  0  0  0  0  0  0  0  0  0  0  0
   50.8970    6.6919   15.8201 H   0  0  0  0  0  0  0  0  0  0  0  0
   48.7741   11.1741   15.0660 H   0  0  0  0  0  0  0  0  0  0  0  0
   48.9770    7.7504   11.6007 H   0  0  0  0  0  0  0  0  0  0  0  0
   52.6229    5.0313   17.4044 H   0  0  0  0  0  0  0  0  0  0  0  0
   51.0246    5.6527   17.8979 H   0  0  0  0  0  0  0  0  0  0  0  0
   52.4246    5.8819   18.9440 H   0  0  0  0  0  0  0  0  0  0  0  0
   54.0604    8.4257   16.9516 H   0  0  0  0  0  0  0  0  0  0  0  0
   54.1585    7.4132   18.3717 H   0  0  0  0  0  0  0  0  0  0  0  0
   54.4119    6.6896   16.7751 H   0  0  0  0  0  0  0  0  0  0  0  0
   47.2294   11.3446   13.1720 H   0  0  0  0  0  0  0  0  0  0  0  0
   47.3154    9.6188   11.3570 H   0  0  0  0  0  0  0  0  0  0  0  0
   50.5938    9.8326   15.2199 H   0  0  0  0  0  0  0  0  0  0  0  0
   50.0196    7.2868   16.8809 H   0  0  0  0  0  0  0  0  0  0  0  0
   53.3730    7.8705   14.8099 H   0  0  0  0  0  0  0  0  0  0  0  0
   47.2335    9.2359   17.2744 H   0  0  0  0  0  0  0  0  0  0  0  0
   50.0860    8.4951   14.5418 H   0  0  0  0  0  0  0  0  0  0  0  0
   50.2698    8.0030   17.5952 H   0  0  0  0  0  0  0  0  0  0  0  0
   47.1275    9.6678   15.7928 H   0  0  0  0  0  0  0  0  0  0  0  0
   53.2291    6.8438   16.3570 H   0  0  0  0  0  0  0  0  0  0  0  0
  2  4  1  0
  3  1  1  0
  4  3  2  0
  5  1  2  0
  6  2  2  0
  7  2  1  0
  8  1  1  0
 15 17  1  0
 12 15  1  0
 17 18  1  0
 11 12  1  0
 18 19  1  0
 15 16  1  0
 19 20  1  0
 19 21  1  0
 16 22  1  0
 23 24  1  0
 12 13  2  0
 10 11  2  0
 13 14  1  0
 22 23  2  0
 24 25  2  0
 25 26  1  0
 26 22  1  0
 14  9  2  0
  9 10  1  0
 28 27  1  0
 29 31  1  0
 30 29  1  0
 31 27  1  0
 32 28  2  0
 33 30  1  0
 34 29  2  0
 35 27  1  0
 36 34  1  0
 37 38  1  0
 38 35  1  0
 39 28  1  0
 40 32  1  0
 41 37  1  0
 42 37  1  0
 43 39  2  0
 44 40  2  0
 36 33  2  0
 43 44  1  0
 46 48  1  0
 47 45  1  0
 48 47  2  0
 49 45  2  0
 50 46  2  0
 51 46  1  0
 52 45  1  0
 54 56  1  0
 55 53  1  0
 56 55  2  0
 57 53  2  0
 58 54  2  0
 59 54  1  0
 60 53  1  0
  3 61  1  0
  4 62  1  0
  7 63  1  0
  8 64  1  0
  9 65  1  0
 10 66  1  0
 13 67  1  0
 14 68  1  0
 16 69  1  0
 16 70  1  0
 17 71  1  0
 17 72  1  0
 18 73  1  0
 18 74  1  0
 20 75  1  0
 20 76  1  0
 20 77  1  0
 21 78  1  0
 21 79  1  0
 21 80  1  0
 23 81  1  0
 24 82  1  0
 25 83  1  0
 31 84  1  0
 31 85  1  0
 33 86  1  0
 34 87  1  0
 35 88  1  0
 35 89  1  0
 36 90  1  0
 38 91  1  0
 38 92  1  0
 39 93  1  0
 40 94  1  0
 41 95  1  0
 41 96  1  0
 41 97  1  0
 42 98  1  0
 42 99  1  0
 42100  1  0
 43101  1  0
 44102  1  0
 47103  1  0
 48104  1  0
 51105  1  0
 52106  1  0
 55107  1  0
 56108  1  0
 59109  1  0
 60110  1  0
M  END
> <Uni-Dock RESULT> 
ENERGY=   -4.891  LOWER_BOUND=    2.239  UPPER_BOUND=    5.532
INTER + INTRA:          -4.891
INTER:                  -4.891
INTRA:                   0.000
UNBOUND:                 0.000

$$$$

     RDKit          3D

110109  0  0  0  0  0  0  0  0999 V2000
   47.8813    9.4559   21.2808 C   0  0  0  0  0  0  0  0  0  0  0  0
   49.2368    7.5010   18.3654 C   0  0  0  0  0  0  0  0  0  0  0  0
   48.3377    9.1002   19.9381 C   0  0  0  0  0  0  0  0  0  0  0  0
   48.7478    7.8480   19.6996 C   0  0  0  0  0  0  0  0  0  0  0  0
   47.8728    8.7448   22.2668 O   0  0  0  0  0  0  0  0  0  0  0  0
   49.3478    8.2391   17.4079 O   0  0  0  0  0  0  0  0  0  0  0  0
   49.5585    6.2015   18.3116 O   0  0  0  0  0  0  0  0  0  0  0  0
   47.4539   10.7262   21.3050 O   0  0  0  0  0  0  0  0  0  0  0  0
   48.1723   13.3664   18.8642 C   0  0  0  0  0  0  0  0  0  0  0  0
   49.3204   12.9004   19.4768 C   0  0  0  0  0  0  0  0  0  0  0  0
   49.4824   11.6293   19.9084 N   0  0  0  0  0  0  0  0  0  0  0  0
   48.4620   10.7597   19.7262 C   0  0  0  0  0  0  0  0  0  0  0  0
   47.2685   11.1621   19.1217 C   0  0  0  0  0  0  0  0  0  0  0  0
   47.1223   12.4765   18.6871 C   0  0  0  0  0  0  0  0  0  0  0  0
   48.5829    9.4131   20.1559 N   0  0  0  0  0  0  0  0  0  0  0  0
   49.6120    9.2911   21.2108 C   0  0  0  0  0  0  0  0  0  0  0  0
   48.8016    8.5471   18.9705 C   0  0  0  0  0  0  0  0  0  0  0  0
   48.1370    7.1637   19.1543 C   0  0  0  0  0  0  0  0  0  0  0  0
   47.9201    6.4323   17.8876 N   0  0  0  0  0  0  0  0  0  0  0  0
   47.1345    5.2187   18.1400 C   0  0  0  0  0  0  0  0  0  0  0  0
   49.1809    6.0875   17.2349 C   0  0  0  0  0  0  0  0  0  0  0  0
   49.4579    8.0694   22.0808 C   0  0  0  0  0  0  0  0  0  0  0  0
   48.3113    7.6042   22.7006 C   0  0  0  0  0  0  0  0  0  0  0  0
   48.5565    6.4330   23.4760 C   0  0  0  0  0  0  0  0  0  0  0  0
   49.8790    6.0535   23.4266 C   0  0  0  0  0  0  0  0  0  0  0  0
   50.8126    7.0865   22.4344 S   0  0  0  0  0  0  0  0  0  0  0  0
   47.9535    7.7566   20.1233 N   0  0  0  0  0  0  0  0  0  0  0  0
   48.0704    7.5912   21.4916 C   0  0  0  0  0  0  0  0  0  0  0  0
   47.2529   10.1559   19.8130 C   0  0  0  0  0  0  0  0  0  0  0  0
   45.9282   11.2065   20.1038 S   0  0  0  0  0  0  0  0  0  0  0  0
   47.0232    8.6961   19.4964 C   0  0  0  0  0  0  0  0  0  0  0  0
   49.1309    6.8797   21.9503 N   0  0  0  0  0  0  0  0  0  0  0  0
   46.9595   12.5376   20.4032 C   0  0  0  0  0  0  0  0  0  0  0  0
   48.4555   10.8283   19.9170 C   0  0  0  0  0  0  0  0  0  0  0  0
   48.5907    6.7467   19.2693 C   0  0  0  0  0  0  0  0  0  0  0  0
   48.2883   12.2024   20.2550 C   0  0  0  0  0  0  0  0  0  0  0  0
   49.5302    8.0247   17.2589 N   0  0  0  0  0  0  0  0  0  0  0  0
   49.8248    7.3052   18.5242 C   0  0  0  0  0  0  0  0  0  0  0  0
   47.1441    8.1125   22.3959 C   0  0  0  0  0  0  0  0  0  0  0  0
   49.2709    6.6872   23.2819 C   0  0  0  0  0  0  0  0  0  0  0  0
   50.7322    8.7421   16.8088 C   0  0  0  0  0  0  0  0  0  0  0  0
   49.0950    7.1053   16.2021 C   0  0  0  0  0  0  0  0  0  0  0  0
   47.2963    7.8986   23.7674 C   0  0  0  0  0  0  0  0  0  0  0  0
   48.3780    7.1646   24.2244 C   0  0  0  0  0  0  0  0  0  0  0  0
   47.6183    9.6649   20.9993 C   0  0  0  0  0  0  0  0  0  0  0  0
   49.4716    7.2863   18.6367 C   0  0  0  0  0  0  0  0  0  0  0  0
   48.0177    8.4849   20.2278 C   0  0  0  0  0  0  0  0  0  0  0  0
   49.0753    8.4650   19.4071 C   0  0  0  0  0  0  0  0  0  0  0  0
   46.6587    9.7095   21.7458 O   0  0  0  0  0  0  0  0  0  0  0  0
   50.4192    7.2507   17.8746 O   0  0  0  0  0  0  0  0  0  0  0  0
   48.6970    6.2130   18.8448 O   0  0  0  0  0  0  0  0  0  0  0  0
   48.4137   10.7280   20.8144 O   0  0  0  0  0  0  0  0  0  0  0  0
   49.4371    6.9999   18.9444 C   0  0  0  0  0  0  0  0  0  0  0  0
   48.2883   10.1825   20.7447 C   0  0  0  0  0  0  0  0  0  0  0  0
   48.9847    7.9412   19.9719 C   0  0  0  0  0  0  0  0  0  0  0  0
   48.7390    9.2343   19.7198 C   0  0  0  0  0  0  0  0  0  0  0  0
   49.6750    5.8241   19.1525 O   0  0  0  0  0  0  0  0  0  0  0  0
   48.0669   11.3622   20.5403 O   0  0  0  0  0  0  0  0  0  0  0  0
   48.1284    9.6303   21.9575 O   0  0  0  0  0  0  0  0  0  0  0  0
   49.5698    7.5507   17.7283 O   0  0  0  0  0  0  0  0  0  0  0  0
   48.3179    9.8687   19.1766 H   0  0  0  0  0  0  0  0  0  0  0  0
   48.7567    7.0761   20.4592 H   0  0  0  0  0  0  0  0  0  0  0  0
   49.8694    6.0690   17.3916 H   0  0  0  0  0  0  0  0  0  0  0  0
   47.1862   10.8684   22.2370 H   0  0  0  0  0  0  0  0  0  0  0  0
   48.0973   14.3971   18.5358 H   0  0  0  0  0  0  0  0  0  0  0  0
   50.1723   13.5512   19.6415 H   0  0  0  0  0  0  0  0  0  0  0  0
   46.4550   10.4536   19.0034 H   0  0  0  0  0  0  0  0  0  0  0  0
   46.1980   12.7997   18.2152 H   0  0  0  0  0  0  0  0  0  0  0  0
   49.5427   10.1395   21.9064 H   0  0  0  0  0  0  0  0  0  0  0  0
   50.6165    9.3304   20.7639 H   0  0  0  0  0  0  0  0  0  0  0  0
   49.8753    8.4301   18.7742 H   0  0  0  0  0  0  0  0  0  0  0  0
   48.3754    8.9985   18.0638 H   0  0  0  0  0  0  0  0  0  0  0  0
   48.7351    6.5496   19.8372 H   0  0  0  0  0  0  0  0  0  0  0  0
   47.1636    7.3213   19.6346 H   0  0  0  0  0  0  0  0  0  0  0  0
   46.1672    5.4725   18.5825 H   0  0  0  0  0  0  0  0  0  0  0  0
   46.9256    4.6913   17.2055 H   0  0  0  0  0  0  0  0  0  0  0  0
   47.6506    4.5318   18.8151 H   0  0  0  0  0  0  0  0  0  0  0  0
   49.7499    6.9820   16.9543 H   0  0  0  0  0  0  0  0  0  0  0  0
   49.8188    5.4549   17.8621 H   0  0  0  0  0  0  0  0  0  0  0  0
   48.9928    5.5508   16.3002 H   0  0  0  0  0  0  0  0  0  0  0  0
   47.3533    8.0969   22.6084 H   0  0  0  0  0  0  0  0  0  0  0  0
   47.8028    5.9114   24.0516 H   0  0  0  0  0  0  0  0  0  0  0  0
   50.3413    5.2139   23.9269 H   0  0  0  0  0  0  0  0  0  0  0  0
   45.9953    8.3998   19.7519 H   0  0  0  0  0  0  0  0  0  0  0  0
   47.0799    8.6049   18.4026 H   0  0  0  0  0  0  0  0  0  0  0  0
   46.5490   13.5076   20.6582 H   0  0  0  0  0  0  0  0  0  0  0  0
   49.4178   10.3397   19.7714 H   0  0  0  0  0  0  0  0  0  0  0  0
   48.9074    5.8660   19.8422 H   0  0  0  0  0  0  0  0  0  0  0  0
   47.8477    6.3424   18.5693 H   0  0  0  0  0  0  0  0  0  0  0  0
   49.1018   12.9037   20.3968 H   0  0  0  0  0  0  0  0  0  0  0  0
   50.5142    6.4791   18.3155 H   0  0  0  0  0  0  0  0  0  0  0  0
   50.3531    7.9842   19.2035 H   0  0  0  0  0  0  0  0  0  0  0  0
   46.2844    8.6732   22.0559 H   0  0  0  0  0  0  0  0  0  0  0  0
   50.1481    6.1141   23.5706 H   0  0  0  0  0  0  0  0  0  0  0  0
   51.5656    8.0618   16.6016 H   0  0  0  0  0  0  0  0  0  0  0  0
   51.0496    9.4762   17.5595 H   0  0  0  0  0  0  0  0  0  0  0  0
   50.5195    9.2986   15.8879 H   0  0  0  0  0  0  0  0  0  0  0  0
   48.1447    6.6232   16.4532 H   0  0  0  0  0  0  0  0  0  0  0  0
   48.9168    7.6478   15.2676 H   0  0  0  0  0  0  0  0  0  0  0  0
   49.8407    6.3266   16.0010 H   0  0  0  0  0  0  0  0  0  0  0  0
   46.5640    8.3052   24.4619 H   0  0  0  0  0  0  0  0  0  0  0  0
   48.5235    6.9758   25.2822 H   0  0  0  0  0  0  0  0  0  0  0  0
   47.3877    7.6175   20.3818 H   0  0  0  0  0  0  0  0  0  0  0  0
   49.7019    9.3341   19.2561 H   0  0  0  0  0  0  0  0  0  0  0  0
   49.0843    5.5251   18.2640 H   0  0  0  0  0  0  0  0  0  0  0  0
   48.0214   11.4197   21.3874 H   0  0  0  0  0  0  0  0  0  0  0  0
   48.8579    7.5119   20.9598 H   0  0  0  0  0  0  0  0  0  0  0  0
   48.8643    9.6649   18.7318 H   0  0  0  0  0  0  0  0  0  0  0  0
   47.8301   10.3784   22.5154 H   0  0  0  0  0  0  0  0  0  0  0  0
   49.8768    6.8068   17.1696 H   0  0  0  0  0  0  0  0  0  0  0  0
  2  4  1  0
  3  1  1  0
  4  3  2  0
  5  1  2  0
  6  2  2  0
  7  2  1  0
  8  1  1  0
 15 17  1  0
 12 15  1  0
 17 18  1  0
 11 12  1  0
 18 19  1  0
 15 16  1  0
 19 20  1  0
 19 21  1  0
 16 22  1  0
 23 24  1  0
 12 13  2  0
 10 11  2  0
 13 14  1  0
 22 23  2  0
 24 25  2  0
 25 26  1  0
 26 22  1  0
 14  9  2  0
  9 10  1  0
 28 27  1  0
 29 31  1  0
 30 29  1  0
 31 27  1  0
 32 28  2  0
 33 30  1  0
 34 29  2  0
 35 27  1  0
 36 34  1  0
 37 38  1  0
 38 35  1  0
 39 28  1  0
 40 32  1  0
 41 37  1  0
 42 37  1  0
 43 39  2  0
 44 40  2  0
 36 33  2  0
 43 44  1  0
 46 48  1  0
 47 45  1  0
 48 47  2  0
 49 45  2  0
 50 46  2  0
 51 46  1  0
 52 45  1  0
 54 56  1  0
 55 53  1  0
 56 55  2  0
 57 53  2  0
 58 54  2  0
 59 54  1  0
 60 53  1  0
  3 61  1  0
  4 62  1  0
  7 63  1  0
  8 64  1  0
  9 65  1  0
 10 66  1  0
 13 67  1  0
 14 68  1  0
 16 69  1  0
 16 70  1  0
 17 71  1  0
 17 72  1  0
 18 73  1  0
 18 74  1  0
 20 75  1  0
 20 76  1  0
 20 77  1  0
 21 78  1  0
 21 79  1  0
 21 80  1  0
 23 81  1  0
 24 82  1  0
 25 83  1  0
 31 84  1  0
 31 85  1  0
 33 86  1  0
 34 87  1  0
 35 88  1  0
 35 89  1  0
 36 90  1  0
 38 91  1  0
 38 92  1  0
 39 93  1  0
 40 94  1  0
 41 95  1  0
 41 96  1  0
 41 97  1  0
 42 98  1  0
 42 99  1  0
 42100  1  0
 43101  1  0
 44102  1  0
 47103  1  0
 48104  1  0
 51105  1  0
 52106  1  0
 55107  1  0
 56108  1  0
 59109  1  0
 60110  1  0
M  END
> <Uni-Dock RESULT> 
ENERGY=   -4.781  LOWER_BOUND=    2.229  UPPER_BOUND=    5.473
INTER + INTRA:          -4.781
INTER:                  -4.781
INTRA:                   0.000
UNBOUND:                 0.000

$$$$

     RDKit          3D

110109  0  0  0  0  0  0  0  0999 V2000
   48.2349    9.9691   17.5190 C   0  0  0  0  0  0  0  0  0  0  0  0
   51.6315   11.5641   17.7976 C   0  0  0  0  0  0  0  0  0  0  0  0
   49.6175   10.3521   17.2371 C   0  0  0  0  0  0  0  0  0  0  0  0
   50.2600   11.1530   18.0968 C   0  0  0  0  0  0  0  0  0  0  0  0
   47.5439   10.3404   18.4477 O   0  0  0  0  0  0  0  0  0  0  0  0
   52.2862   11.2814   16.8151 O   0  0  0  0  0  0  0  0  0  0  0  0
   52.1161   12.3232   18.7895 O   0  0  0  0  0  0  0  0  0  0  0  0
   47.7883    9.1191   16.5836 O   0  0  0  0  0  0  0  0  0  0  0  0
   49.2016    8.5274   13.2523 C   0  0  0  0  0  0  0  0  0  0  0  0
   48.7760    9.8330   13.4106 C   0  0  0  0  0  0  0  0  0  0  0  0
   48.7944   10.4948   14.5896 N   0  0  0  0  0  0  0  0  0  0  0  0
   49.2610    9.8424   15.6792 C   0  0  0  0  0  0  0  0  0  0  0  0
   49.7003    8.5187   15.5962 C   0  0  0  0  0  0  0  0  0  0  0  0
   49.6703    7.8556   14.3725 C   0  0  0  0  0  0  0  0  0  0  0  0
   49.3066   10.4930   16.9390 N   0  0  0  0  0  0  0  0  0  0  0  0
   48.3496   11.6197   16.9806 C   0  0  0  0  0  0  0  0  0  0  0  0
   50.7127   10.8599   17.2410 C   0  0  0  0  0  0  0  0  0  0  0  0
   51.0051   10.7672   18.7559 C   0  0  0  0  0  0  0  0  0  0  0  0
   52.4444   10.6727   19.0816 N   0  0  0  0  0  0  0  0  0  0  0  0
   52.6158   10.4155   20.5163 C   0  0  0  0  0  0  0  0  0  0  0  0
   53.1702   11.8813   18.6980 C   0  0  0  0  0  0  0  0  0  0  0  0
   47.9395   12.0260   18.3734 C   0  0  0  0  0  0  0  0  0  0  0  0
   47.5155   11.2110   19.4084 C   0  0  0  0  0  0  0  0  0  0  0  0
   47.1760   11.9564   20.5755 C   0  0  0  0  0  0  0  0  0  0  0  0
   47.3447   13.3096   20.3861 C   0  0  0  0  0  0  0  0  0  0  0  0
   47.9303   13.6767   18.8222 S   0  0  0  0  0  0  0  0  0  0  0  0
   49.8942   10.5044   18.6110 N   0  0  0  0  0  0  0  0  0  0  0  0
   48.6599   10.8424   19.1357 C   0  0  0  0  0  0  0  0  0  0  0  0
   49.3859    8.9531   16.6929 C   0  0  0  0  0  0  0  0  0  0  0  0
   48.7650    7.3860   16.3741 S   0  0  0  0  0  0  0  0  0  0  0  0
   50.1738    9.2277   17.9531 C   0  0  0  0  0  0  0  0  0  0  0  0
   48.4620   12.1364   19.4932 N   0  0  0  0  0  0  0  0  0  0  0  0
   48.0334    7.8967   14.9148 C   0  0  0  0  0  0  0  0  0  0  0  0
   49.0583    9.8353   15.6813 C   0  0  0  0  0  0  0  0  0  0  0  0
   51.0347   11.3512   18.9817 C   0  0  0  0  0  0  0  0  0  0  0  0
   48.2803    9.2275   14.6538 C   0  0  0  0  0  0  0  0  0  0  0  0
   52.4977   11.5087   16.8858 N   0  0  0  0  0  0  0  0  0  0  0  0
   51.5453   12.1979   17.7932 C   0  0  0  0  0  0  0  0  0  0  0  0
   47.6366    9.9108   19.3163 C   0  0  0  0  0  0  0  0  0  0  0  0
   47.2712   12.5010   20.0214 C   0  0  0  0  0  0  0  0  0  0  0  0
   52.6771   12.3051   15.6629 C   0  0  0  0  0  0  0  0  0  0  0  0
   53.8030   11.3063   17.5237 C   0  0  0  0  0  0  0  0  0  0  0  0
   46.4154   10.2993   19.8708 C   0  0  0  0  0  0  0  0  0  0  0  0
   46.2265   11.6208   20.2393 C   0  0  0  0  0  0  0  0  0  0  0  0
   48.4311    9.6156   17.3498 C   0  0  0  0  0  0  0  0  0  0  0  0
   51.4469   11.8923   17.9793 C   0  0  0  0  0  0  0  0  0  0  0  0
   49.5516   10.3142   17.9850 C   0  0  0  0  0  0  0  0  0  0  0  0
   50.3277   11.1968   17.3438 C   0  0  0  0  0  0  0  0  0  0  0  0
   47.7164    8.8054   17.9091 O   0  0  0  0  0  0  0  0  0  0  0  0
   52.1734   12.6862   17.4119 O   0  0  0  0  0  0  0  0  0  0  0  0
   51.6130   11.5891   19.2738 O   0  0  0  0  0  0  0  0  0  0  0  0
   48.2464    9.9446   16.0635 O   0  0  0  0  0  0  0  0  0  0  0  0
   51.2530   12.0019   18.3375 C   0  0  0  0  0  0  0  0  0  0  0  0
   48.4952   10.0166   16.5645 C   0  0  0  0  0  0  0  0  0  0  0  0
   49.9713   11.3723   18.0099 C   0  0  0  0  0  0  0  0  0  0  0  0
   49.7768   10.6476   16.8995 C   0  0  0  0  0  0  0  0  0  0  0  0
   51.4497   12.6716   19.3350 O   0  0  0  0  0  0  0  0  0  0  0  0
   48.2937    9.3612   15.5584 O   0  0  0  0  0  0  0  0  0  0  0  0
   47.5379   10.2189   17.4832 O   0  0  0  0  0  0  0  0  0  0  0  0
   52.2140   11.7746   17.4292 O   0  0  0  0  0  0  0  0  0  0  0  0
   50.0778    9.9619   16.3389 H   0  0  0  0  0  0  0  0  0  0  0  0
   49.8026   11.5341   19.0015 H   0  0  0  0  0  0  0  0  0  0  0  0
   53.0262   12.5439   18.5003 H   0  0  0  0  0  0  0  0  0  0  0  0
   46.8635    8.9363   16.8516 H   0  0  0  0  0  0  0  0  0  0  0  0
   49.1661    8.0455   12.2816 H   0  0  0  0  0  0  0  0  0  0  0  0
   48.3998   10.4064   12.5703 H   0  0  0  0  0  0  0  0  0  0  0  0
   50.0520    8.0074   16.4865 H   0  0  0  0  0  0  0  0  0  0  0  0
   50.0102    6.8259   14.2970 H   0  0  0  0  0  0  0  0  0  0  0  0
   47.4103   11.3363   16.4846 H   0  0  0  0  0  0  0  0  0  0  0  0
   48.7538   12.4785   16.4243 H   0  0  0  0  0  0  0  0  0  0  0  0
   50.9329   11.8702   16.8723 H   0  0  0  0  0  0  0  0  0  0  0  0
   51.4175   10.1903   16.7287 H   0  0  0  0  0  0  0  0  0  0  0  0
   50.5651   11.6265   19.2748 H   0  0  0  0  0  0  0  0  0  0  0  0
   50.5034    9.8703   19.1393 H   0  0  0  0  0  0  0  0  0  0  0  0
   52.1175    9.4849   20.8018 H   0  0  0  0  0  0  0  0  0  0  0  0
   53.6738   10.2962   20.7646 H   0  0  0  0  0  0  0  0  0  0  0  0
   52.2078   11.2242   21.1273 H   0  0  0  0  0  0  0  0  0  0  0  0
   53.1330   12.0498   17.6151 H   0  0  0  0  0  0  0  0  0  0  0  0
   52.7887   12.7771   19.2004 H   0  0  0  0  0  0  0  0  0  0  0  0
   54.2314   11.7846   18.9465 H   0  0  0  0  0  0  0  0  0  0  0  0
   47.4409   10.1363   19.3161 H   0  0  0  0  0  0  0  0  0  0  0  0
   46.8111   11.5194   21.4960 H   0  0  0  0  0  0  0  0  0  0  0  0
   47.1528   14.1020   21.0962 H   0  0  0  0  0  0  0  0  0  0  0  0
   50.0361    8.4162   18.6824 H   0  0  0  0  0  0  0  0  0  0  0  0
   51.2348    9.1768   17.6708 H   0  0  0  0  0  0  0  0  0  0  0  0
   47.4698    7.1992   14.3062 H   0  0  0  0  0  0  0  0  0  0  0  0
   49.3555   10.8829   15.6943 H   0  0  0  0  0  0  0  0  0  0  0  0
   50.7886   12.0329   19.8057 H   0  0  0  0  0  0  0  0  0  0  0  0
   51.8325   10.7230   19.3995 H   0  0  0  0  0  0  0  0  0  0  0  0
   47.9089    9.7442   13.7772 H   0  0  0  0  0  0  0  0  0  0  0  0
   52.0159   13.1071   18.1845 H   0  0  0  0  0  0  0  0  0  0  0  0
   50.6758   12.5260   17.2117 H   0  0  0  0  0  0  0  0  0  0  0  0
   47.7725    8.8716   19.0504 H   0  0  0  0  0  0  0  0  0  0  0  0
   47.1878   13.5544   20.2754 H   0  0  0  0  0  0  0  0  0  0  0  0
   53.0971   13.2950   15.8729 H   0  0  0  0  0  0  0  0  0  0  0  0
   51.7228   12.4274   15.1361 H   0  0  0  0  0  0  0  0  0  0  0  0
   53.3593   11.7933   14.9733 H   0  0  0  0  0  0  0  0  0  0  0  0
   53.7313   10.6330   18.3838 H   0  0  0  0  0  0  0  0  0  0  0  0
   54.5025   10.8297   16.8289 H   0  0  0  0  0  0  0  0  0  0  0  0
   54.2504   12.2514   17.8547 H   0  0  0  0  0  0  0  0  0  0  0  0
   45.6276    9.5623   20.0120 H   0  0  0  0  0  0  0  0  0  0  0  0
   45.2925   11.9551   20.6770 H   0  0  0  0  0  0  0  0  0  0  0  0
   49.6994   10.0638   19.0282 H   0  0  0  0  0  0  0  0  0  0  0  0
   50.1767   11.4440   16.3012 H   0  0  0  0  0  0  0  0  0  0  0  0
   52.3892   12.1229   19.5444 H   0  0  0  0  0  0  0  0  0  0  0  0
   47.4763    9.4039   15.7890 H   0  0  0  0  0  0  0  0  0  0  0  0
   49.1846   11.5328   18.7391 H   0  0  0  0  0  0  0  0  0  0  0  0
   50.5631   10.4852   16.1697 H   0  0  0  0  0  0  0  0  0  0  0  0
   46.7629    9.7428   17.1191 H   0  0  0  0  0  0  0  0  0  0  0  0
   52.9883   12.2571   17.7862 H   0  0  0  0  0  0  0  0  0  0  0  0
  2  4  1  0
  3  1  1  0
  4  3  2  0
  5  1  2  0
  6  2  2  0
  7  2  1  0
  8  1  1  0
 15 17  1  0
 12 15  1  0
 17 18  1  0
 11 12  1  0
 18 19  1  0
 15 16  1  0
 19 20  1  0
 19 21  1  0
 16 22  1  0
 23 24  1  0
 12 13  2  0
 10 11  2  0
 13 14  1  0
 22 23  2  0
 24 25  2  0
 25 26  1  0
 26 22  1  0
 14  9  2  0
  9 10  1  0
 28 27  1  0
 29 31  1  0
 30 29  1  0
 31 27  1  0
 32 28  2  0
 33 30  1  0
 34 29  2  0
 35 27  1  0
 36 34  1  0
 37 38  1  0
 38 35  1  0
 39 28  1  0
 40 32  1  0
 41 37  1  0
 42 37  1  0
 43 39  2  0
 44 40  2  0
 36 33  2  0
 43 44  1  0
 46 48  1  0
 47 45  1  0
 48 47  2  0
 49 45  2  0
 50 46  2  0
 51 46  1  0
 52 45  1  0
 54 56  1  0
 55 53  1  0
 56 55  2  0
 57 53  2  0
 58 54  2  0
 59 54  1  0
 60 53  1  0
  3 61  1  0
  4 62  1  0
  7 63  1  0
  8 64  1  0
  9 65  1  0
 10 66  1  0
 13 67  1  0
 14 68  1  0
 16 69  1  0
 16 70  1  0
 17 71  1  0
 17 72  1  0
 18 73  1  0
 18 74  1  0
 20 75  1  0
 20 76  1  0
 20 77  1  0
 21 78  1  0
 21 79  1  0
 21 80  1  0
 23 81  1  0
 24 82  1  0
 25 83  1  0
 31 84  1  0
 31 85  1  0
 33 86  1  0
 34 87  1  0
 35 88  1  0
 35 89  1  0
 36 90  1  0
 38 91  1  0
 38 92  1  0
 39 93  1  0
 40 94  1  0
 41 95  1  0
 41 96  1  0
 41 97  1  0
 42 98  1  0
 42 99  1  0
 42100  1  0
 43101  1  0
 44102  1  0
 47103  1  0
 48104  1  0
 51105  1  0
 52106  1  0
 55107  1  0
 56108  1  0
 59109  1  0
 60110  1  0
M  END
> <Uni-Dock RESULT> 
ENERGY=   -4.780  LOWER_BOUND=    3.424  UPPER_BOUND=    5.668
INTER + INTRA:          -4.780
INTER:                  -4.780
INTRA:                   0.000
UNBOUND:                 0.000

$$$$
