
     RDKit          3D

110109  0  0  0  0  0  0  0  0999 V2000
   48.2162    5.5779   18.9529 C   0  0  0  0  0  0  0  0  0  0  0  0
   48.5893    9.2570   18.0788 C   0  0  0  0  0  0  0  0  0  0  0  0
   48.1966    6.8780   18.2734 C   0  0  0  0  0  0  0  0  0  0  0  0
   48.6344    8.0076   18.8441 C   0  0  0  0  0  0  0  0  0  0  0  0
   47.8094    4.5407   18.4718 O   0  0  0  0  0  0  0  0  0  0  0  0
   48.1986    9.4080   16.9402 O   0  0  0  0  0  0  0  0  0  0  0  0
   49.0673   10.2721   18.8146 O   0  0  0  0  0  0  0  0  0  0  0  0
   48.7571    5.6173   20.1768 O   0  0  0  0  0  0  0  0  0  0  0  0
   48.3081    5.4876   22.5133 C   0  0  0  0  0  0  0  0  0  0  0  0
   49.4821    6.0729   22.0609 C   0  0  0  0  0  0  0  0  0  0  0  0
   49.6104    6.6838   20.8591 N   0  0  0  0  0  0  0  0  0  0  0  0
   48.5269    6.6957   20.0482 C   0  0  0  0  0  0  0  0  0  0  0  0
   47.3117    6.1110   20.4237 C   0  0  0  0  0  0  0  0  0  0  0  0
   47.2022    5.5035   21.6727 C   0  0  0  0  0  0  0  0  0  0  0  0
   48.5904    7.3203   18.7690 N   0  0  0  0  0  0  0  0  0  0  0  0
   49.5051    6.5112   17.9264 C   0  0  0  0  0  0  0  0  0  0  0  0
   49.0621    8.7150   18.9473 C   0  0  0  0  0  0  0  0  0  0  0  0
   48.5580    9.5994   17.7802 C   0  0  0  0  0  0  0  0  0  0  0  0
   49.0731   10.9876   17.7784 N   0  0  0  0  0  0  0  0  0  0  0  0
   48.6557   11.6732   16.5499 C   0  0  0  0  0  0  0  0  0  0  0  0
   48.6213   11.7463   18.9469 C   0  0  0  0  0  0  0  0  0  0  0  0
   48.9383    5.2014   17.4305 C   0  0  0  0  0  0  0  0  0  0  0  0
   47.6979    4.9611   16.8718 C   0  0  0  0  0  0  0  0  0  0  0  0
   47.5169    3.5932   16.5120 C   0  0  0  0  0  0  0  0  0  0  0  0
   48.6279    2.8370   16.8112 C   0  0  0  0  0  0  0  0  0  0  0  0
   49.8858    3.7733   17.4907 S   0  0  0  0  0  0  0  0  0  0  0  0
   47.6644    8.1260   18.4032 N   0  0  0  0  0  0  0  0  0  0  0  0
   47.6835    9.0029   19.4751 C   0  0  0  0  0  0  0  0  0  0  0  0
   49.3636    8.7716   16.6646 C   0  0  0  0  0  0  0  0  0  0  0  0
   50.1666    7.4830   15.8701 S   0  0  0  0  0  0  0  0  0  0  0  0
   47.9131    8.6593   17.0610 C   0  0  0  0  0  0  0  0  0  0  0  0
   47.9500   10.3068   19.2395 N   0  0  0  0  0  0  0  0  0  0  0  0
   51.6203    8.3774   15.7373 C   0  0  0  0  0  0  0  0  0  0  0  0
   50.2036    9.8601   16.8284 C   0  0  0  0  0  0  0  0  0  0  0  0
   47.2143    6.7384   18.5212 C   0  0  0  0  0  0  0  0  0  0  0  0
   51.5033    9.6337   16.2986 C   0  0  0  0  0  0  0  0  0  0  0  0
   47.8970    4.4351   19.3284 N   0  0  0  0  0  0  0  0  0  0  0  0
   48.3581    5.7960   18.9693 C   0  0  0  0  0  0  0  0  0  0  0  0
   47.4386    8.5918   20.7856 C   0  0  0  0  0  0  0  0  0  0  0  0
   47.9788   11.1833   20.2732 C   0  0  0  0  0  0  0  0  0  0  0  0
   47.4298    3.6989   18.1505 C   0  0  0  0  0  0  0  0  0  0  0  0
   48.9898    3.6932   19.9622 C   0  0  0  0  0  0  0  0  0  0  0  0
   47.4687    9.5059   21.8420 C   0  0  0  0  0  0  0  0  0  0  0  0
   47.7477   10.8367   21.5837 C   0  0  0  0  0  0  0  0  0  0  0  0
   49.1676    9.1813   18.2306 C   0  0  0  0  0  0  0  0  0  0  0  0
   48.2392    5.5868   19.0508 C   0  0  0  0  0  0  0  0  0  0  0  0
   48.4025    8.0260   18.7082 C   0  0  0  0  0  0  0  0  0  0  0  0
   48.9317    6.7997   18.6084 C   0  0  0  0  0  0  0  0  0  0  0  0
   50.2821    9.1739   17.7465 O   0  0  0  0  0  0  0  0  0  0  0  0
   48.6939    4.4619   18.9518 O   0  0  0  0  0  0  0  0  0  0  0  0
   47.0363    5.8177   19.5954 O   0  0  0  0  0  0  0  0  0  0  0  0
   48.4636   10.3109   18.3981 O   0  0  0  0  0  0  0  0  0  0  0  0
   48.0647    5.7280   18.8089 C   0  0  0  0  0  0  0  0  0  0  0  0
   48.7236    9.4231   18.2499 C   0  0  0  0  0  0  0  0  0  0  0  0
   48.6227    7.0714   18.9805 C   0  0  0  0  0  0  0  0  0  0  0  0
   48.2172    8.0512   18.1614 C   0  0  0  0  0  0  0  0  0  0  0  0
   47.2430    5.3654   17.9906 O   0  0  0  0  0  0  0  0  0  0  0  0
   48.3757   10.3313   17.5183 O   0  0  0  0  0  0  0  0  0  0  0  0
   49.6159    9.6120   19.2341 O   0  0  0  0  0  0  0  0  0  0  0  0
   48.5997    4.8884   19.7086 O   0  0  0  0  0  0  0  0  0  0  0  0
   47.7898    6.8567   17.2668 H   0  0  0  0  0  0  0  0  0  0  0  0
   49.0343    8.0521   19.8506 H   0  0  0  0  0  0  0  0  0  0  0  0
   48.9854   11.0518   18.2259 H   0  0  0  0  0  0  0  0  0  0  0  0
   48.7211    4.6831   20.4769 H   0  0  0  0  0  0  0  0  0  0  0  0
   48.2617    5.0264   23.4921 H   0  0  0  0  0  0  0  0  0  0  0  0
   50.3794    6.0653   22.6738 H   0  0  0  0  0  0  0  0  0  0  0  0
   46.4666    6.1364   19.7413 H   0  0  0  0  0  0  0  0  0  0  0  0
   46.2637    5.0416   21.9769 H   0  0  0  0  0  0  0  0  0  0  0  0
   49.7362    7.0860   17.0199 H   0  0  0  0  0  0  0  0  0  0  0  0
   50.4741    6.3622   18.4285 H   0  0  0  0  0  0  0  0  0  0  0  0
   48.6637    9.1292   19.8797 H   0  0  0  0  0  0  0  0  0  0  0  0
   50.1573    8.7544   19.0049 H   0  0  0  0  0  0  0  0  0  0  0  0
   47.4588    9.5978   17.7798 H   0  0  0  0  0  0  0  0  0  0  0  0
   48.8639    9.1250   16.8392 H   0  0  0  0  0  0  0  0  0  0  0  0
   49.0711   12.6857   16.5107 H   0  0  0  0  0  0  0  0  0  0  0  0
   47.5641   11.7499   16.4639 H   0  0  0  0  0  0  0  0  0  0  0  0
   49.0330   11.1492   15.6646 H   0  0  0  0  0  0  0  0  0  0  0  0
   48.9854   12.7809   18.9053 H   0  0  0  0  0  0  0  0  0  0  0  0
   49.0365   11.3290   19.8698 H   0  0  0  0  0  0  0  0  0  0  0  0
   47.5314   11.7742   19.0382 H   0  0  0  0  0  0  0  0  0  0  0  0
   46.9580    5.7391   16.7335 H   0  0  0  0  0  0  0  0  0  0  0  0
   46.6200    3.1827   16.0630 H   0  0  0  0  0  0  0  0  0  0  0  0
   48.7691    1.7783   16.6555 H   0  0  0  0  0  0  0  0  0  0  0  0
   47.4062    8.0322   16.3183 H   0  0  0  0  0  0  0  0  0  0  0  0
   47.4290    9.6357   16.9280 H   0  0  0  0  0  0  0  0  0  0  0  0
   52.4881    7.9453   15.2605 H   0  0  0  0  0  0  0  0  0  0  0  0
   49.8861   10.7747   17.3122 H   0  0  0  0  0  0  0  0  0  0  0  0
   46.3633    6.6662   19.2102 H   0  0  0  0  0  0  0  0  0  0  0  0
   46.8202    6.3925   17.5549 H   0  0  0  0  0  0  0  0  0  0  0  0
   52.3104   10.3567   16.3141 H   0  0  0  0  0  0  0  0  0  0  0  0
   49.1273    5.7413   18.1882 H   0  0  0  0  0  0  0  0  0  0  0  0
   48.8478    6.2372   19.8441 H   0  0  0  0  0  0  0  0  0  0  0  0
   47.2293    7.5539   21.0269 H   0  0  0  0  0  0  0  0  0  0  0  0
   48.1977   12.2096   19.9960 H   0  0  0  0  0  0  0  0  0  0  0  0
   48.2033    3.6234   17.3769 H   0  0  0  0  0  0  0  0  0  0  0  0
   47.1165    2.6841   18.4266 H   0  0  0  0  0  0  0  0  0  0  0  0
   46.5534    4.1758   17.7041 H   0  0  0  0  0  0  0  0  0  0  0  0
   49.3210    4.2104   20.8683 H   0  0  0  0  0  0  0  0  0  0  0  0
   48.6529    2.7001   20.2762 H   0  0  0  0  0  0  0  0  0  0  0  0
   49.8584    3.5797   19.3005 H   0  0  0  0  0  0  0  0  0  0  0  0
   47.2882    9.1685   22.8570 H   0  0  0  0  0  0  0  0  0  0  0  0
   47.7778   11.5796   22.3756 H   0  0  0  0  0  0  0  0  0  0  0  0
   47.4258    8.2172   19.1315 H   0  0  0  0  0  0  0  0  0  0  0  0
   49.9104    6.6325   18.1718 H   0  0  0  0  0  0  0  0  0  0  0  0
   46.7084    4.9232   19.8235 H   0  0  0  0  0  0  0  0  0  0  0  0
   49.0524   11.0201   18.0589 H   0  0  0  0  0  0  0  0  0  0  0  0
   49.3507    7.2101   19.7721 H   0  0  0  0  0  0  0  0  0  0  0  0
   47.4859    7.8820   17.3768 H   0  0  0  0  0  0  0  0  0  0  0  0
   49.8394   10.5630   19.1559 H   0  0  0  0  0  0  0  0  0  0  0  0
   48.1755    4.0256   19.5184 H   0  0  0  0  0  0  0  0  0  0  0  0
  2  4  1  0
  3  1  1  0
  4  3  2  0
  5  1  2  0
  6  2  2  0
  7  2  1  0
  8  1  1  0
 15 17  1  0
 12 15  1  0
 17 18  1  0
 11 12  1  0
 18 19  1  0
 15 16  1  0
 19 20  1  0
 19 21  1  0
 16 22  1  0
 23 24  1  0
 12 13  2  0
 10 11  2  0
 13 14  1  0
 22 23  2  0
 24 25  2  0
 25 26  1  0
 26 22  1  0
 14  9  2  0
  9 10  1  0
 28 27  1  0
 29 31  1  0
 30 29  1  0
 31 27  1  0
 32 28  2  0
 33 30  1  0
 34 29  2  0
 35 27  1  0
 36 34  1  0
 37 38  1  0
 38 35  1  0
 39 28  1  0
 40 32  1  0
 41 37  1  0
 42 37  1  0
 43 39  2  0
 44 40  2  0
 36 33  2  0
 43 44  1  0
 46 48  1  0
 47 45  1  0
 48 47  2  0
 49 45  2  0
 50 46  2  0
 51 46  1  0
 52 45  1  0
 54 56  1  0
 55 53  1  0
 56 55  2  0
 57 53  2  0
 58 54  2  0
 59 54  1  0
 60 53  1  0
  3 61  1  0
  4 62  1  0
  7 63  1  0
  8 64  1  0
  9 65  1  0
 10 66  1  0
 13 67  1  0
 14 68  1  0
 16 69  1  0
 16 70  1  0
 17 71  1  0
 17 72  1  0
 18 73  1  0
 18 74  1  0
 20 75  1  0
 20 76  1  0
 20 77  1  0
 21 78  1  0
 21 79  1  0
 21 80  1  0
 23 81  1  0
 24 82  1  0
 25 83  1  0
 31 84  1  0
 31 85  1  0
 33 86  1  0
 34 87  1  0
 35 88  1  0
 35 89  1  0
 36 90  1  0
 38 91  1  0
 38 92  1  0
 39 93  1  0
 40 94  1  0
 41 95  1  0
 41 96  1  0
 41 97  1  0
 42 98  1  0
 42 99  1  0
 42100  1  0
 43101  1  0
 44102  1  0
 47103  1  0
 48104  1  0
 51105  1  0
 52106  1  0
 55107  1  0
 56108  1  0
 59109  1  0
 60110  1  0
M  END
> <Uni-Dock RESULT> 
ENERGY=   -5.991  LOWER_BOUND=    0.000  UPPER_BOUND=    0.000
INTER + INTRA:          -5.991
INTER:                  -5.991
INTRA:                   0.000
UNBOUND:                 0.000

$$$$

     RDKit          3D

110109  0  0  0  0  0  0  0  0999 V2000
   48.2467    7.7758   19.5896 C   0  0  0  0  0  0  0  0  0  0  0  0
   48.7539   10.3007   16.7955 C   0  0  0  0  0  0  0  0  0  0  0  0
   48.2949    8.4546   18.2899 C   0  0  0  0  0  0  0  0  0  0  0  0
   48.7277    9.7128   18.1380 C   0  0  0  0  0  0  0  0  0  0  0  0
   47.8423    6.6450   19.7639 O   0  0  0  0  0  0  0  0  0  0  0  0
   48.4293    9.7697   15.7540 O   0  0  0  0  0  0  0  0  0  0  0  0
   49.2150   11.5596   16.8465 O   0  0  0  0  0  0  0  0  0  0  0  0
   48.7212    8.5135   20.6010 O   0  0  0  0  0  0  0  0  0  0  0  0
   48.1429    9.7363   22.5626 C   0  0  0  0  0  0  0  0  0  0  0  0
   49.3532    9.9719   21.9263 C   0  0  0  0  0  0  0  0  0  0  0  0
   49.5611    9.7884   20.6007 N   0  0  0  0  0  0  0  0  0  0  0  0
   48.5239    9.3224   19.8668 C   0  0  0  0  0  0  0  0  0  0  0  0
   47.2765    9.0429   20.4374 C   0  0  0  0  0  0  0  0  0  0  0  0
   47.0850    9.2564   21.8007 C   0  0  0  0  0  0  0  0  0  0  0  0
   48.6716    9.1053   18.4662 N   0  0  0  0  0  0  0  0  0  0  0  0
   49.6113    7.9705   18.2911 C   0  0  0  0  0  0  0  0  0  0  0  0
   49.1658   10.3573   17.8436 C   0  0  0  0  0  0  0  0  0  0  0  0
   48.7470   10.4107   16.3537 C   0  0  0  0  0  0  0  0  0  0  0  0
   49.2941   11.5551   15.5898 N   0  0  0  0  0  0  0  0  0  0  0  0
   48.9605   11.4113   14.1679 C   0  0  0  0  0  0  0  0  0  0  0  0
   48.7975   12.8399   16.0875 C   0  0  0  0  0  0  0  0  0  0  0  0
   49.0414    6.6057   18.5995 C   0  0  0  0  0  0  0  0  0  0  0  0
   47.8279    6.0749   18.2070 C   0  0  0  0  0  0  0  0  0  0  0  0
   47.6344    4.7446   18.6826 C   0  0  0  0  0  0  0  0  0  0  0  0
   48.7092    4.3078   19.4238 C   0  0  0  0  0  0  0  0  0  0  0  0
   49.9501    5.4790   19.5191 S   0  0  0  0  0  0  0  0  0  0  0  0
   47.7862    9.5468   17.6529 N   0  0  0  0  0  0  0  0  0  0  0  0
   47.7677   10.8790   18.0314 C   0  0  0  0  0  0  0  0  0  0  0  0
   49.5922    9.1035   15.9592 C   0  0  0  0  0  0  0  0  0  0  0  0
   50.4064    7.6014   16.0907 S   0  0  0  0  0  0  0  0  0  0  0  0
   48.1200    9.2209   16.2637 C   0  0  0  0  0  0  0  0  0  0  0  0
   48.0775   11.8177   17.1098 N   0  0  0  0  0  0  0  0  0  0  0  0
   51.8859    8.2766   15.5559 C   0  0  0  0  0  0  0  0  0  0  0  0
   50.4476   10.1002   15.5209 C   0  0  0  0  0  0  0  0  0  0  0  0
   47.2976    8.4701   18.5154 C   0  0  0  0  0  0  0  0  0  0  0  0
   51.7684    9.6269   15.2918 C   0  0  0  0  0  0  0  0  0  0  0  0
   47.8807    7.0486   20.5308 N   0  0  0  0  0  0  0  0  0  0  0  0
   48.3927    7.9659   19.4868 C   0  0  0  0  0  0  0  0  0  0  0  0
   47.4424   11.2872   19.3252 C   0  0  0  0  0  0  0  0  0  0  0  0
   48.0708   13.1279   17.4578 C   0  0  0  0  0  0  0  0  0  0  0  0
   47.4609    5.7662   19.9592 C   0  0  0  0  0  0  0  0  0  0  0  0
   48.9195    6.8144   21.5370 C   0  0  0  0  0  0  0  0  0  0  0  0
   47.4366   12.6412   19.6705 C   0  0  0  0  0  0  0  0  0  0  0  0
   47.7607   13.5892   18.7156 C   0  0  0  0  0  0  0  0  0  0  0  0
   49.3211   10.3320   16.9966 C   0  0  0  0  0  0  0  0  0  0  0  0
   48.2646    7.8393   19.6661 C   0  0  0  0  0  0  0  0  0  0  0  0
   48.5040    9.6476   18.0027 C   0  0  0  0  0  0  0  0  0  0  0  0
   49.0087    8.5901   18.6516 C   0  0  0  0  0  0  0  0  0  0  0  0
   50.4598   10.0623   16.6691 O   0  0  0  0  0  0  0  0  0  0  0  0
   48.6973    6.8648   20.2535 O   0  0  0  0  0  0  0  0  0  0  0  0
   47.0397    8.3259   19.9104 O   0  0  0  0  0  0  0  0  0  0  0  0
   48.6360   11.3465   16.4481 O   0  0  0  0  0  0  0  0  0  0  0  0
   48.1069    7.8150   19.3772 C   0  0  0  0  0  0  0  0  0  0  0  0
   48.8826   10.5362   16.8486 C   0  0  0  0  0  0  0  0  0  0  0  0
   48.6865    9.0221   18.7834 C   0  0  0  0  0  0  0  0  0  0  0  0
   48.3493    9.3537   17.5297 C   0  0  0  0  0  0  0  0  0  0  0  0
   47.3225    7.0405   18.8661 O   0  0  0  0  0  0  0  0  0  0  0  0
   48.5966   10.8597   15.7108 O   0  0  0  0  0  0  0  0  0  0  0  0
   49.7243   11.2638   17.5988 O   0  0  0  0  0  0  0  0  0  0  0  0
   48.5722    7.6460   20.6245 O   0  0  0  0  0  0  0  0  0  0  0  0
   47.9431    7.8575   17.4540 H   0  0  0  0  0  0  0  0  0  0  0  0
   49.0733   10.3288   18.9602 H   0  0  0  0  0  0  0  0  0  0  0  0
   49.1838   11.8623   15.9146 H   0  0  0  0  0  0  0  0  0  0  0  0
   48.6467    7.9177   21.3779 H   0  0  0  0  0  0  0  0  0  0  0  0
   48.0325    9.9162   23.6249 H   0  0  0  0  0  0  0  0  0  0  0  0
   50.2155   10.3262   22.4848 H   0  0  0  0  0  0  0  0  0  0  0  0
   46.4706    8.6642   19.8149 H   0  0  0  0  0  0  0  0  0  0  0  0
   46.1206    9.0401   22.2590 H   0  0  0  0  0  0  0  0  0  0  0  0
   49.9049    7.9273   17.2340 H   0  0  0  0  0  0  0  0  0  0  0  0
   50.5478    8.1463   18.8437 H   0  0  0  0  0  0  0  0  0  0  0  0
   48.7272   11.2252   18.3478 H   0  0  0  0  0  0  0  0  0  0  0  0
   50.2569   10.4353   17.9320 H   0  0  0  0  0  0  0  0  0  0  0  0
   47.6497   10.3964   16.2903 H   0  0  0  0  0  0  0  0  0  0  0  0
   49.0922    9.4874   15.8715 H   0  0  0  0  0  0  0  0  0  0  0  0
   49.4013   12.2247   13.5821 H   0  0  0  0  0  0  0  0  0  0  0  0
   47.8773   11.4124   13.9903 H   0  0  0  0  0  0  0  0  0  0  0  0
   49.3728   10.4799   13.7639 H   0  0  0  0  0  0  0  0  0  0  0  0
   49.1878   13.6695   15.4841 H   0  0  0  0  0  0  0  0  0  0  0  0
   49.1520   13.0294   17.1057 H   0  0  0  0  0  0  0  0  0  0  0  0
   47.7053   12.9023   16.0830 H   0  0  0  0  0  0  0  0  0  0  0  0
   47.1152    6.6259   17.6066 H   0  0  0  0  0  0  0  0  0  0  0  0
   46.7538    4.1409   18.4969 H   0  0  0  0  0  0  0  0  0  0  0  0
   48.8335    3.3516   19.9088 H   0  0  0  0  0  0  0  0  0  0  0  0
   47.6395    8.2761   15.9838 H   0  0  0  0  0  0  0  0  0  0  0  0
   47.6671    9.9407   15.5693 H   0  0  0  0  0  0  0  0  0  0  0  0
   52.7679    7.6597   15.4625 H   0  0  0  0  0  0  0  0  0  0  0  0
   50.1260   11.1235   15.3767 H   0  0  0  0  0  0  0  0  0  0  0  0
   46.4089    8.7945   19.0715 H   0  0  0  0  0  0  0  0  0  0  0  0
   46.9485    7.6298   17.8985 H   0  0  0  0  0  0  0  0  0  0  0  0
   52.5904   10.2385   14.9387 H   0  0  0  0  0  0  0  0  0  0  0  0
   49.2017    7.4837   18.9230 H   0  0  0  0  0  0  0  0  0  0  0  0
   48.8444    8.8333   19.9799 H   0  0  0  0  0  0  0  0  0  0  0  0
   47.1957   10.5708   20.1031 H   0  0  0  0  0  0  0  0  0  0  0  0
   48.3287   13.8144   16.6577 H   0  0  0  0  0  0  0  0  0  0  0  0
   48.2732    5.2713   19.4136 H   0  0  0  0  0  0  0  0  0  0  0  0
   47.1091    5.0873   20.7463 H   0  0  0  0  0  0  0  0  0  0  0  0
   46.6216    5.8925   19.2704 H   0  0  0  0  0  0  0  0  0  0  0  0
   49.2131    7.7603   22.0032 H   0  0  0  0  0  0  0  0  0  0  0  0
   48.5426    6.1747   22.3414 H   0  0  0  0  0  0  0  0  0  0  0  0
   49.8199    6.3534   21.1103 H   0  0  0  0  0  0  0  0  0  0  0  0
   47.1932   12.9419   20.6839 H   0  0  0  0  0  0  0  0  0  0  0  0
   47.7653   14.6516   18.9419 H   0  0  0  0  0  0  0  0  0  0  0  0
   47.5106   10.0349   18.1835 H   0  0  0  0  0  0  0  0  0  0  0  0
   50.0054    8.2150   18.4464 H   0  0  0  0  0  0  0  0  0  0  0  0
   46.6788    7.7182   20.5887 H   0  0  0  0  0  0  0  0  0  0  0  0
   49.2590   11.7417   15.7997 H   0  0  0  0  0  0  0  0  0  0  0  0
   49.3734    9.5965   19.3950 H   0  0  0  0  0  0  0  0  0  0  0  0
   47.6580    8.7583   16.9411 H   0  0  0  0  0  0  0  0  0  0  0  0
   49.9741   12.0023   17.0049 H   0  0  0  0  0  0  0  0  0  0  0  0
   48.1386    6.8243   20.9365 H   0  0  0  0  0  0  0  0  0  0  0  0
  2  4  1  0
  3  1  1  0
  4  3  2  0
  5  1  2  0
  6  2  2  0
  7  2  1  0
  8  1  1  0
 15 17  1  0
 12 15  1  0
 17 18  1  0
 11 12  1  0
 18 19  1  0
 15 16  1  0
 19 20  1  0
 19 21  1  0
 16 22  1  0
 23 24  1  0
 12 13  2  0
 10 11  2  0
 13 14  1  0
 22 23  2  0
 24 25  2  0
 25 26  1  0
 26 22  1  0
 14  9  2  0
  9 10  1  0
 28 27  1  0
 29 31  1  0
 30 29  1  0
 31 27  1  0
 32 28  2  0
 33 30  1  0
 34 29  2  0
 35 27  1  0
 36 34  1  0
 37 38  1  0
 38 35  1  0
 39 28  1  0
 40 32  1  0
 41 37  1  0
 42 37  1  0
 43 39  2  0
 44 40  2  0
 36 33  2  0
 43 44  1  0
 46 48  1  0
 47 45  1  0
 48 47  2  0
 49 45  2  0
 50 46  2  0
 51 46  1  0
 52 45  1  0
 54 56  1  0
 55 53  1  0
 56 55  2  0
 57 53  2  0
 58 54  2  0
 59 54  1  0
 60 53  1  0
  3 61  1  0
  4 62  1  0
  7 63  1  0
  8 64  1  0
  9 65  1  0
 10 66  1  0
 13 67  1  0
 14 68  1  0
 16 69  1  0
 16 70  1  0
 17 71  1  0
 17 72  1  0
 18 73  1  0
 18 74  1  0
 20 75  1  0
 20 76  1  0
 20 77  1  0
 21 78  1  0
 21 79  1  0
 21 80  1  0
 23 81  1  0
 24 82  1  0
 25 83  1  0
 31 84  1  0
 31 85  1  0
 33 86  1  0
 34 87  1  0
 35 88  1  0
 35 89  1  0
 36 90  1  0
 38 91  1  0
 38 92  1  0
 39 93  1  0
 40 94  1  0
 41 95  1  0
 41 96  1  0
 41 97  1  0
 42 98  1  0
 42 99  1  0
 42100  1  0
 43101  1  0
 44102  1  0
 47103  1  0
 48104  1  0
 51105  1  0
 52106  1  0
 55107  1  0
 56108  1  0
 59109  1  0
 60110  1  0
M  END
> <Uni-Dock RESULT> 
ENERGY=   -5.818  LOWER_BOUND=    1.404  UPPER_BOUND=    2.405
INTER + INTRA:          -5.818
INTER:                  -5.818
INTRA:                   0.000
UNBOUND:                 0.000

$$$$

     RDKit          3D

110109  0  0  0  0  0  0  0  0999 V2000
   48.4833   10.4684   18.3775 C   0  0  0  0  0  0  0  0  0  0  0  0
   47.7501    8.6196   21.6153 C   0  0  0  0  0  0  0  0  0  0  0  0
   47.9398   10.0516   19.6749 C   0  0  0  0  0  0  0  0  0  0  0  0
   48.3410    8.9452   20.3140 C   0  0  0  0  0  0  0  0  0  0  0  0
   48.1279   11.4532   17.7638 O   0  0  0  0  0  0  0  0  0  0  0  0
   46.9136    9.2548   22.2226 O   0  0  0  0  0  0  0  0  0  0  0  0
   48.2758    7.4821   22.0947 O   0  0  0  0  0  0  0  0  0  0  0  0
   49.4514    9.6672   17.9160 O   0  0  0  0  0  0  0  0  0  0  0  0
   50.0135    8.0301   16.2786 C   0  0  0  0  0  0  0  0  0  0  0  0
   50.7684    8.1443   17.4372 C   0  0  0  0  0  0  0  0  0  0  0  0
   50.2815    8.5951   18.6179 N   0  0  0  0  0  0  0  0  0  0  0  0
   48.9838    8.9782   18.6502 C   0  0  0  0  0  0  0  0  0  0  0  0
   48.1610    8.9109   17.5197 C   0  0  0  0  0  0  0  0  0  0  0  0
   48.6831    8.4276   16.3219 C   0  0  0  0  0  0  0  0  0  0  0  0
   48.4052    9.4634   19.8587 N   0  0  0  0  0  0  0  0  0  0  0  0
   49.0427   10.7685   20.1617 C   0  0  0  0  0  0  0  0  0  0  0  0
   48.6275    8.4578   20.9258 C   0  0  0  0  0  0  0  0  0  0  0  0
   47.5355    8.5900   22.0159 C   0  0  0  0  0  0  0  0  0  0  0  0
   47.7255    7.7234   23.2013 N   0  0  0  0  0  0  0  0  0  0  0  0
   46.7250    8.0502   24.2240 C   0  0  0  0  0  0  0  0  0  0  0  0
   47.6429    6.3004   22.8647 C   0  0  0  0  0  0  0  0  0  0  0  0
   48.5911   11.9242   19.2996 C   0  0  0  0  0  0  0  0  0  0  0  0
   47.3034   12.2760   18.9438 C   0  0  0  0  0  0  0  0  0  0  0  0
   47.2632   13.4402   18.1214 C   0  0  0  0  0  0  0  0  0  0  0  0
   48.5247   13.9350   17.8776 C   0  0  0  0  0  0  0  0  0  0  0  0
   49.7411   13.0222   18.6572 S   0  0  0  0  0  0  0  0  0  0  0  0
   47.2729    9.0127   20.2524 N   0  0  0  0  0  0  0  0  0  0  0  0
   47.5499    7.6556   20.2495 C   0  0  0  0  0  0  0  0  0  0  0  0
   47.9692   10.0825   22.4198 C   0  0  0  0  0  0  0  0  0  0  0  0
   48.6193   11.6644   22.3131 S   0  0  0  0  0  0  0  0  0  0  0  0
   46.8524    9.6362   21.5102 C   0  0  0  0  0  0  0  0  0  0  0  0
   47.4400    6.9705   21.4093 N   0  0  0  0  0  0  0  0  0  0  0  0
   49.6927   11.3873   23.6176 C   0  0  0  0  0  0  0  0  0  0  0  0
   48.5749    9.3594   23.4335 C   0  0  0  0  0  0  0  0  0  0  0  0
   47.1875    9.8077   19.0266 C   0  0  0  0  0  0  0  0  0  0  0  0
   49.5690   10.1074   24.1213 C   0  0  0  0  0  0  0  0  0  0  0  0
   48.5709   10.9351   17.2272 N   0  0  0  0  0  0  0  0  0  0  0  0
   48.5744   10.3307   18.5793 C   0  0  0  0  0  0  0  0  0  0  0  0
   47.9373    6.9712   19.0972 C   0  0  0  0  0  0  0  0  0  0  0  0
   47.7105    5.6424   21.4324 C   0  0  0  0  0  0  0  0  0  0  0  0
   47.8229   12.1952   17.2048 C   0  0  0  0  0  0  0  0  0  0  0  0
   49.9478   11.1806   16.7910 C   0  0  0  0  0  0  0  0  0  0  0  0
   48.2107    5.6014   19.1339 C   0  0  0  0  0  0  0  0  0  0  0  0
   48.0976    4.9159   20.3309 C   0  0  0  0  0  0  0  0  0  0  0  0
   48.3432    8.6613   21.7132 C   0  0  0  0  0  0  0  0  0  0  0  0
   48.5415   10.3970   18.3362 C   0  0  0  0  0  0  0  0  0  0  0  0
   48.0753    8.9897   20.3101 C   0  0  0  0  0  0  0  0  0  0  0  0
   48.7474    9.9921   19.7291 C   0  0  0  0  0  0  0  0  0  0  0  0
   49.1475    9.1955   22.4510 O   0  0  0  0  0  0  0  0  0  0  0  0
   49.1275   11.3165   17.7950 O   0  0  0  0  0  0  0  0  0  0  0  0
   47.6389    9.6516   17.6830 O   0  0  0  0  0  0  0  0  0  0  0  0
   47.5607    7.6484   22.1148 O   0  0  0  0  0  0  0  0  0  0  0  0
   48.2607   10.4416   18.5038 C   0  0  0  0  0  0  0  0  0  0  0  0
   47.9066    8.4071   21.6874 C   0  0  0  0  0  0  0  0  0  0  0  0
   48.5675    9.4905   19.5746 C   0  0  0  0  0  0  0  0  0  0  0  0
   47.6849    9.3277   20.5695 C   0  0  0  0  0  0  0  0  0  0  0  0
   47.2672   11.1312   18.3869 O   0  0  0  0  0  0  0  0  0  0  0  0
   47.1246    8.2414   22.6052 O   0  0  0  0  0  0  0  0  0  0  0  0
   49.0637    7.7314   21.6155 O   0  0  0  0  0  0  0  0  0  0  0  0
   49.2643   10.4727   17.6135 O   0  0  0  0  0  0  0  0  0  0  0  0
   47.1755   10.7093   20.0780 H   0  0  0  0  0  0  0  0  0  0  0  0
   49.0945    8.2705   19.9244 H   0  0  0  0  0  0  0  0  0  0  0  0
   47.8143    7.3483   22.9493 H   0  0  0  0  0  0  0  0  0  0  0  0
   49.7215   10.0914   17.0726 H   0  0  0  0  0  0  0  0  0  0  0  0
   50.4550    7.6477   15.3665 H   0  0  0  0  0  0  0  0  0  0  0  0
   51.8190    7.8669   17.4462 H   0  0  0  0  0  0  0  0  0  0  0  0
   47.1258    9.2339   17.5853 H   0  0  0  0  0  0  0  0  0  0  0  0
   48.0554    8.3727   15.4332 H   0  0  0  0  0  0  0  0  0  0  0  0
   48.7733   11.0526   21.1875 H   0  0  0  0  0  0  0  0  0  0  0  0
   50.1404   10.6786   20.1659 H   0  0  0  0  0  0  0  0  0  0  0  0
   48.5650    7.4474   20.5077 H   0  0  0  0  0  0  0  0  0  0  0  0
   49.6230    8.5737   21.3729 H   0  0  0  0  0  0  0  0  0  0  0  0
   46.5519    8.4070   21.5603 H   0  0  0  0  0  0  0  0  0  0  0  0
   47.5234    9.6324   22.3586 H   0  0  0  0  0  0  0  0  0  0  0  0
   46.8839    7.4515   25.1271 H   0  0  0  0  0  0  0  0  0  0  0  0
   45.6987    7.8751   23.8762 H   0  0  0  0  0  0  0  0  0  0  0  0
   46.8089    9.0993   24.5291 H   0  0  0  0  0  0  0  0  0  0  0  0
   47.7507    5.6797   23.7634 H   0  0  0  0  0  0  0  0  0  0  0  0
   48.4665    6.0047   22.2069 H   0  0  0  0  0  0  0  0  0  0  0  0
   46.6989    6.0338   22.3802 H   0  0  0  0  0  0  0  0  0  0  0  0
   46.4344   11.7149   19.2626 H   0  0  0  0  0  0  0  0  0  0  0  0
   46.3601   13.8892   17.7247 H   0  0  0  0  0  0  0  0  0  0  0  0
   48.7945   14.7964   17.2859 H   0  0  0  0  0  0  0  0  0  0  0  0
   46.2224   10.5070   21.2943 H   0  0  0  0  0  0  0  0  0  0  0  0
   46.1757    8.9778   22.0706 H   0  0  0  0  0  0  0  0  0  0  0  0
   50.3618   12.1668   23.9520 H   0  0  0  0  0  0  0  0  0  0  0  0
   48.3071    8.3356   23.6603 H   0  0  0  0  0  0  0  0  0  0  0  0
   46.7169    9.2277   18.2227 H   0  0  0  0  0  0  0  0  0  0  0  0
   46.5140   10.6621   19.1843 H   0  0  0  0  0  0  0  0  0  0  0  0
   50.1568    9.7349   24.9521 H   0  0  0  0  0  0  0  0  0  0  0  0
   48.9595   11.0493   19.3142 H   0  0  0  0  0  0  0  0  0  0  0  0
   49.2782    9.4915   18.5811 H   0  0  0  0  0  0  0  0  0  0  0  0
   48.0489    7.4790   18.1439 H   0  0  0  0  0  0  0  0  0  0  0  0
   47.5952    5.1695   22.4026 H   0  0  0  0  0  0  0  0  0  0  0  0
   48.2189   12.9235   17.9227 H   0  0  0  0  0  0  0  0  0  0  0  0
   47.8510   12.6451   16.2044 H   0  0  0  0  0  0  0  0  0  0  0  0
   46.7666   12.0357   17.4360 H   0  0  0  0  0  0  0  0  0  0  0  0
   50.5075   10.2403   16.7621 H   0  0  0  0  0  0  0  0  0  0  0  0
   49.9658   11.5849   15.7738 H   0  0  0  0  0  0  0  0  0  0  0  0
   50.4813   11.8719   17.4563 H   0  0  0  0  0  0  0  0  0  0  0  0
   48.5226    5.0858   18.2320 H   0  0  0  0  0  0  0  0  0  0  0  0
   48.2982    3.8506   20.4020 H   0  0  0  0  0  0  0  0  0  0  0  0
   47.3342    8.3954   19.7933 H   0  0  0  0  0  0  0  0  0  0  0  0
   49.4803   10.5796   20.2714 H   0  0  0  0  0  0  0  0  0  0  0  0
   47.6112   10.0503   16.7886 H   0  0  0  0  0  0  0  0  0  0  0  0
   47.8133    7.4994   23.0522 H   0  0  0  0  0  0  0  0  0  0  0  0
   49.5099    8.9579   19.5117 H   0  0  0  0  0  0  0  0  0  0  0  0
   46.7482    9.8757   20.6057 H   0  0  0  0  0  0  0  0  0  0  0  0
   49.0472    7.1704   22.4189 H   0  0  0  0  0  0  0  0  0  0  0  0
   48.9762   11.1291   16.9451 H   0  0  0  0  0  0  0  0  0  0  0  0
  2  4  1  0
  3  1  1  0
  4  3  2  0
  5  1  2  0
  6  2  2  0
  7  2  1  0
  8  1  1  0
 15 17  1  0
 12 15  1  0
 17 18  1  0
 11 12  1  0
 18 19  1  0
 15 16  1  0
 19 20  1  0
 19 21  1  0
 16 22  1  0
 23 24  1  0
 12 13  2  0
 10 11  2  0
 13 14  1  0
 22 23  2  0
 24 25  2  0
 25 26  1  0
 26 22  1  0
 14  9  2  0
  9 10  1  0
 28 27  1  0
 29 31  1  0
 30 29  1  0
 31 27  1  0
 32 28  2  0
 33 30  1  0
 34 29  2  0
 35 27  1  0
 36 34  1  0
 37 38  1  0
 38 35  1  0
 39 28  1  0
 40 32  1  0
 41 37  1  0
 42 37  1  0
 43 39  2  0
 44 40  2  0
 36 33  2  0
 43 44  1  0
 46 48  1  0
 47 45  1  0
 48 47  2  0
 49 45  2  0
 50 46  2  0
 51 46  1  0
 52 45  1  0
 54 56  1  0
 55 53  1  0
 56 55  2  0
 57 53  2  0
 58 54  2  0
 59 54  1  0
 60 53  1  0
  3 61  1  0
  4 62  1  0
  7 63  1  0
  8 64  1  0
  9 65  1  0
 10 66  1  0
 13 67  1  0
 14 68  1  0
 16 69  1  0
 16 70  1  0
 17 71  1  0
 17 72  1  0
 18 73  1  0
 18 74  1  0
 20 75  1  0
 20 76  1  0
 20 77  1  0
 21 78  1  0
 21 79  1  0
 21 80  1  0
 23 81  1  0
 24 82  1  0
 25 83  1  0
 31 84  1  0
 31 85  1  0
 33 86  1  0
 34 87  1  0
 35 88  1  0
 35 89  1  0
 36 90  1  0
 38 91  1  0
 38 92  1  0
 39 93  1  0
 40 94  1  0
 41 95  1  0
 41 96  1  0
 41 97  1  0
 42 98  1  0
 42 99  1  0
 42100  1  0
 43101  1  0
 44102  1  0
 47103  1  0
 48104  1  0
 51105  1  0
 52106  1  0
 55107  1  0
 56108  1  0
 59109  1  0
 60110  1  0
M  END
> <Uni-Dock RESULT> 
ENERGY=   -5.774  LOWER_BOUND=    2.328  UPPER_BOUND=    5.664
INTER + INTRA:          -5.774
INTER:                  -5.774
INTRA:                   0.000
UNBOUND:                 0.000

$$$$

     RDKit          3D

110109  0  0  0  0  0  0  0  0999 V2000
   48.2136   10.6063   19.2460 C   0  0  0  0  0  0  0  0  0  0  0  0
   48.0030    7.6505   21.6247 C   0  0  0  0  0  0  0  0  0  0  0  0
   47.8798    9.7061   20.3552 C   0  0  0  0  0  0  0  0  0  0  0  0
   48.3839    8.4708   20.4711 C   0  0  0  0  0  0  0  0  0  0  0  0
   47.7597   11.7225   19.1015 O   0  0  0  0  0  0  0  0  0  0  0  0
   47.2646    7.9611   22.5358 O   0  0  0  0  0  0  0  0  0  0  0  0
   48.6058    6.4534   21.5651 O   0  0  0  0  0  0  0  0  0  0  0  0
   49.1060   10.0967   18.3879 O   0  0  0  0  0  0  0  0  0  0  0  0
   49.4233    9.2189   16.1956 C   0  0  0  0  0  0  0  0  0  0  0  0
   50.3464    8.9471   17.1952 C   0  0  0  0  0  0  0  0  0  0  0  0
   50.0432    8.8981   18.5143 N   0  0  0  0  0  0  0  0  0  0  0  0
   48.7628    9.1567   18.8684 C   0  0  0  0  0  0  0  0  0  0  0  0
   47.7764    9.4572   17.9216 C   0  0  0  0  0  0  0  0  0  0  0  0
   48.1120    9.4847   16.5698 C   0  0  0  0  0  0  0  0  0  0  0  0
   48.3729    9.1233   20.2386 N   0  0  0  0  0  0  0  0  0  0  0  0
   49.0383   10.2634   20.9159 C   0  0  0  0  0  0  0  0  0  0  0  0
   48.7652    7.8120   20.8096 C   0  0  0  0  0  0  0  0  0  0  0  0
   47.8528    7.4614   22.0108 C   0  0  0  0  0  0  0  0  0  0  0  0
   48.2303    6.2333   22.7467 N   0  0  0  0  0  0  0  0  0  0  0  0
   47.3963    6.0940   23.9462 C   0  0  0  0  0  0  0  0  0  0  0  0
   48.1090    5.0324   21.9170 C   0  0  0  0  0  0  0  0  0  0  0  0
   48.4497   11.6234   20.6211 C   0  0  0  0  0  0  0  0  0  0  0  0
   47.1197   11.9967   20.6063 C   0  0  0  0  0  0  0  0  0  0  0  0
   46.9436   13.3768   20.2936 C   0  0  0  0  0  0  0  0  0  0  0  0
   48.1483   14.0078   20.0792 C   0  0  0  0  0  0  0  0  0  0  0  0
   49.4779   12.9535   20.2826 S   0  0  0  0  0  0  0  0  0  0  0  0
   47.3185    8.4863   20.5889 N   0  0  0  0  0  0  0  0  0  0  0  0
   47.6032    7.2471   20.0397 C   0  0  0  0  0  0  0  0  0  0  0  0
   48.3310    8.7249   22.8790 C   0  0  0  0  0  0  0  0  0  0  0  0
   48.9435   10.2736   23.2825 S   0  0  0  0  0  0  0  0  0  0  0  0
   47.0913    8.5734   22.0341 C   0  0  0  0  0  0  0  0  0  0  0  0
   47.6789    6.1771   20.8619 N   0  0  0  0  0  0  0  0  0  0  0  0
   50.2071    9.6059   24.2250 C   0  0  0  0  0  0  0  0  0  0  0  0
   49.0914    7.7203   23.4532 C   0  0  0  0  0  0  0  0  0  0  0  0
   47.0387    9.6697   19.7746 C   0  0  0  0  0  0  0  0  0  0  0  0
   50.1732    8.2253   24.2250 C   0  0  0  0  0  0  0  0  0  0  0  0
   48.1193   11.4688   18.3539 N   0  0  0  0  0  0  0  0  0  0  0  0
   48.3359   10.4102   19.3667 C   0  0  0  0  0  0  0  0  0  0  0  0
   47.8145    7.0624   18.6731 C   0  0  0  0  0  0  0  0  0  0  0  0
   47.9609    4.9547   20.3483 C   0  0  0  0  0  0  0  0  0  0  0  0
   47.3661   12.5966   18.9093 C   0  0  0  0  0  0  0  0  0  0  0  0
   49.4105   11.9472   17.8536 C   0  0  0  0  0  0  0  0  0  0  0  0
   48.1018    5.7965   18.1559 C   0  0  0  0  0  0  0  0  0  0  0  0
   48.1801    4.7123   19.0125 C   0  0  0  0  0  0  0  0  0  0  0  0
   48.6038    7.6919   21.6472 C   0  0  0  0  0  0  0  0  0  0  0  0
   48.2654   10.5591   19.1732 C   0  0  0  0  0  0  0  0  0  0  0  0
   48.1204    8.4961   20.5212 C   0  0  0  0  0  0  0  0  0  0  0  0
   48.6866    9.6836   20.2699 C   0  0  0  0  0  0  0  0  0  0  0  0
   49.5074    7.9679   22.4113 O   0  0  0  0  0  0  0  0  0  0  0  0
   48.7534   11.6496   18.9394 O   0  0  0  0  0  0  0  0  0  0  0  0
   47.2794   10.0497   18.4214 O   0  0  0  0  0  0  0  0  0  0  0  0
   47.9009    6.5535   21.7455 O   0  0  0  0  0  0  0  0  0  0  0  0
   48.0134   10.5204   19.3828 C   0  0  0  0  0  0  0  0  0  0  0  0
   48.1706    7.4371   21.5894 C   0  0  0  0  0  0  0  0  0  0  0  0
   48.4894    9.2637   19.9657 C   0  0  0  0  0  0  0  0  0  0  0  0
   47.7717    8.6884   20.9401 C   0  0  0  0  0  0  0  0  0  0  0  0
   47.0079   11.1380   19.6723 O   0  0  0  0  0  0  0  0  0  0  0  0
   47.5405    6.8941   22.4778 O   0  0  0  0  0  0  0  0  0  0  0  0
   49.3085    6.9127   21.1091 O   0  0  0  0  0  0  0  0  0  0  0  0
   48.8677   10.9430   18.4382 O   0  0  0  0  0  0  0  0  0  0  0  0
   47.1811   10.1174   21.0776 H   0  0  0  0  0  0  0  0  0  0  0  0
   49.0742    8.0380   19.7562 H   0  0  0  0  0  0  0  0  0  0  0  0
   48.2825    5.9842   22.3629 H   0  0  0  0  0  0  0  0  0  0  0  0
   49.2395   10.8186   17.7358 H   0  0  0  0  0  0  0  0  0  0  0  0
   49.7224    9.2294   15.1547 H   0  0  0  0  0  0  0  0  0  0  0  0
   51.3882    8.7552   16.9530 H   0  0  0  0  0  0  0  0  0  0  0  0
   46.7609    9.6649   18.2471 H   0  0  0  0  0  0  0  0  0  0  0  0
   47.3555    9.7203   15.8221 H   0  0  0  0  0  0  0  0  0  0  0  0
   48.9277   10.1312   22.0002 H   0  0  0  0  0  0  0  0  0  0  0  0
   50.1244   10.2503   20.7329 H   0  0  0  0  0  0  0  0  0  0  0  0
   48.6477    7.0251   20.0568 H   0  0  0  0  0  0  0  0  0  0  0  0
   49.8167    7.8197   21.1239 H   0  0  0  0  0  0  0  0  0  0  0  0
   46.8125    7.3954   21.6619 H   0  0  0  0  0  0  0  0  0  0  0  0
   47.8849    8.3009   22.7167 H   0  0  0  0  0  0  0  0  0  0  0  0
   47.6974    5.2164   24.5279 H   0  0  0  0  0  0  0  0  0  0  0  0
   46.3303    5.9929   23.7050 H   0  0  0  0  0  0  0  0  0  0  0  0
   47.5174    6.9599   24.6067 H   0  0  0  0  0  0  0  0  0  0  0  0
   48.3590    4.1326   22.4936 H   0  0  0  0  0  0  0  0  0  0  0  0
   48.8240    5.0545   21.0884 H   0  0  0  0  0  0  0  0  0  0  0  0
   47.1039    4.9022   21.5048 H   0  0  0  0  0  0  0  0  0  0  0  0
   46.3149   11.3020   20.8098 H   0  0  0  0  0  0  0  0  0  0  0  0
   45.9865   13.8803   20.2240 H   0  0  0  0  0  0  0  0  0  0  0  0
   48.3166   15.0424   19.8215 H   0  0  0  0  0  0  0  0  0  0  0  0
   46.4282    9.4193   22.2500 H   0  0  0  0  0  0  0  0  0  0  0  0
   46.5145    7.7121   22.3959 H   0  0  0  0  0  0  0  0  0  0  0  0
   50.9131   10.2492   24.7299 H   0  0  0  0  0  0  0  0  0  0  0  0
   48.8704    6.6698   23.3154 H   0  0  0  0  0  0  0  0  0  0  0  0
   46.4550    9.3975   18.8862 H   0  0  0  0  0  0  0  0  0  0  0  0
   46.3903   10.3599   20.3329 H   0  0  0  0  0  0  0  0  0  0  0  0
   50.8849    7.6121   24.7652 H   0  0  0  0  0  0  0  0  0  0  0  0
   48.8234   10.8308   20.2556 H   0  0  0  0  0  0  0  0  0  0  0  0
   49.0386    9.6773   18.9560 H   0  0  0  0  0  0  0  0  0  0  0  0
   47.7737    7.8920   17.9736 H   0  0  0  0  0  0  0  0  0  0  0  0
   48.0003    4.1511   21.0768 H   0  0  0  0  0  0  0  0  0  0  0  0
   47.8617   13.0333   19.7847 H   0  0  0  0  0  0  0  0  0  0  0  0
   47.2361   13.3844   18.1566 H   0  0  0  0  0  0  0  0  0  0  0  0
   46.3593   12.2945   19.2090 H   0  0  0  0  0  0  0  0  0  0  0  0
   49.9671   11.1225   17.3971 H   0  0  0  0  0  0  0  0  0  0  0  0
   49.2684   12.6982   17.0699 H   0  0  0  0  0  0  0  0  0  0  0  0
   50.0342   12.3778   18.6479 H   0  0  0  0  0  0  0  0  0  0  0  0
   48.2756    5.6713   17.0926 H   0  0  0  0  0  0  0  0  0  0  0  0
   48.3982    3.7114   18.6510 H   0  0  0  0  0  0  0  0  0  0  0  0
   47.3136    8.0871   19.9284 H   0  0  0  0  0  0  0  0  0  0  0  0
   49.4892   10.0765   20.8846 H   0  0  0  0  0  0  0  0  0  0  0  0
   47.1111   10.7473   17.7545 H   0  0  0  0  0  0  0  0  0  0  0  0
   48.2960    6.0863   22.5139 H   0  0  0  0  0  0  0  0  0  0  0  0
   49.4153    8.8546   19.5772 H   0  0  0  0  0  0  0  0  0  0  0  0
   46.8471    9.1220   21.3090 H   0  0  0  0  0  0  0  0  0  0  0  0
   49.4205    6.0953   21.6380 H   0  0  0  0  0  0  0  0  0  0  0  0
   48.4746   11.7791   18.1113 H   0  0  0  0  0  0  0  0  0  0  0  0
  2  4  1  0
  3  1  1  0
  4  3  2  0
  5  1  2  0
  6  2  2  0
  7  2  1  0
  8  1  1  0
 15 17  1  0
 12 15  1  0
 17 18  1  0
 11 12  1  0
 18 19  1  0
 15 16  1  0
 19 20  1  0
 19 21  1  0
 16 22  1  0
 23 24  1  0
 12 13  2  0
 10 11  2  0
 13 14  1  0
 22 23  2  0
 24 25  2  0
 25 26  1  0
 26 22  1  0
 14  9  2  0
  9 10  1  0
 28 27  1  0
 29 31  1  0
 30 29  1  0
 31 27  1  0
 32 28  2  0
 33 30  1  0
 34 29  2  0
 35 27  1  0
 36 34  1  0
 37 38  1  0
 38 35  1  0
 39 28  1  0
 40 32  1  0
 41 37  1  0
 42 37  1  0
 43 39  2  0
 44 40  2  0
 36 33  2  0
 43 44  1  0
 46 48  1  0
 47 45  1  0
 48 47  2  0
 49 45  2  0
 50 46  2  0
 51 46  1  0
 52 45  1  0
 54 56  1  0
 55 53  1  0
 56 55  2  0
 57 53  2  0
 58 54  2  0
 59 54  1  0
 60 53  1  0
  3 61  1  0
  4 62  1  0
  7 63  1  0
  8 64  1  0
  9 65  1  0
 10 66  1  0
 13 67  1  0
 14 68  1  0
 16 69  1  0
 16 70  1  0
 17 71  1  0
 17 72  1  0
 18 73  1  0
 18 74  1  0
 20 75  1  0
 20 76  1  0
 20 77  1  0
 21 78  1  0
 21 79  1  0
 21 80  1  0
 23 81  1  0
 24 82  1  0
 25 83  1  0
 31 84  1  0
 31 85  1  0
 33 86  1  0
 34 87  1  0
 35 88  1  0
 35 89  1  0
 36 90  1  0
 38 91  1  0
 38 92  1  0
 39 93  1  0
 40 94  1  0
 41 95  1  0
 41 96  1  0
 41 97  1  0
 42 98  1  0
 42 99  1  0
 42100  1  0
 43101  1  0
 44102  1  0
 47103  1  0
 48104  1  0
 51105  1  0
 52106  1  0
 55107  1  0
 56108  1  0
 59109  1  0
 60110  1  0
M  END
> <Uni-Dock RESULT> 
ENERGY=   -5.460  LOWER_BOUND=    2.162  UPPER_BOUND=    5.923
INTER + INTRA:          -5.460
INTER:                  -5.460
INTRA:                   0.000
UNBOUND:                 0.000

$$$$

     RDKit          3D

110109  0  0  0  0  0  0  0  0999 V2000
   49.0908    7.7391   16.5600 C   0  0  0  0  0  0  0  0  0  0  0  0
   48.7821   11.3212   17.7899 C   0  0  0  0  0  0  0  0  0  0  0  0
   49.2006    8.9835   17.3291 C   0  0  0  0  0  0  0  0  0  0  0  0
   48.6295   10.1326   16.9457 C   0  0  0  0  0  0  0  0  0  0  0  0
   49.6116    6.6875   16.8692 O   0  0  0  0  0  0  0  0  0  0  0  0
   49.3770   11.4027   18.8441 O   0  0  0  0  0  0  0  0  0  0  0  0
   48.1437   12.3668   17.2429 O   0  0  0  0  0  0  0  0  0  0  0  0
   48.3266    7.8471   15.4661 O   0  0  0  0  0  0  0  0  0  0  0  0
   48.3281    7.9148   13.0843 C   0  0  0  0  0  0  0  0  0  0  0  0
   47.2445    8.4114   13.7947 C   0  0  0  0  0  0  0  0  0  0  0  0
   47.3285    8.9232   15.0458 N   0  0  0  0  0  0  0  0  0  0  0  0
   48.5453    8.9217   15.6383 C   0  0  0  0  0  0  0  0  0  0  0  0
   49.6839    8.4218   14.9955 C   0  0  0  0  0  0  0  0  0  0  0  0
   49.5723    7.9162   13.7021 C   0  0  0  0  0  0  0  0  0  0  0  0
   48.7071    9.4442   16.9541 N   0  0  0  0  0  0  0  0  0  0  0  0
   47.9929    8.5337   17.8827 C   0  0  0  0  0  0  0  0  0  0  0  0
   48.1694   10.8261   16.9831 C   0  0  0  0  0  0  0  0  0  0  0  0
   48.8594   11.6410   18.1047 C   0  0  0  0  0  0  0  0  0  0  0  0
   48.3135   13.0008   18.3175 N   0  0  0  0  0  0  0  0  0  0  0  0
   48.9359   13.6093   19.4991 C   0  0  0  0  0  0  0  0  0  0  0  0
   48.5131   13.8652   17.1522 C   0  0  0  0  0  0  0  0  0  0  0  0
   48.6818    7.2166   18.1540 C   0  0  0  0  0  0  0  0  0  0  0  0
   50.0121    6.9901   18.4495 C   0  0  0  0  0  0  0  0  0  0  0  0
   50.2981    5.6082   18.6546 C   0  0  0  0  0  0  0  0  0  0  0  0
   49.1733    4.8283   18.5065 C   0  0  0  0  0  0  0  0  0  0  0  0
   47.7824    5.7565   18.1536 S   0  0  0  0  0  0  0  0  0  0  0  0
   49.6616   10.2602   17.2061 N   0  0  0  0  0  0  0  0  0  0  0  0
   49.4139   11.2141   16.2329 C   0  0  0  0  0  0  0  0  0  0  0  0
   48.3046   10.6961   19.2786 C   0  0  0  0  0  0  0  0  0  0  0  0
   47.7051    9.3165   20.0996 S   0  0  0  0  0  0  0  0  0  0  0  0
   49.6563   10.6787   18.6106 C   0  0  0  0  0  0  0  0  0  0  0  0
   49.1587   12.4832   16.6212 N   0  0  0  0  0  0  0  0  0  0  0  0
   46.2773   10.1328   20.5750 C   0  0  0  0  0  0  0  0  0  0  0  0
   47.4172   11.7554   19.3652 C   0  0  0  0  0  0  0  0  0  0  0  0
   50.1218    8.9069   16.8917 C   0  0  0  0  0  0  0  0  0  0  0  0
   46.2488   11.4319   20.1077 C   0  0  0  0  0  0  0  0  0  0  0  0
   49.3663    6.6434   16.0383 N   0  0  0  0  0  0  0  0  0  0  0  0
   48.9419    7.9513   16.5885 C   0  0  0  0  0  0  0  0  0  0  0  0
   49.4178   10.9147   14.8703 C   0  0  0  0  0  0  0  0  0  0  0  0
   48.9086   13.4334   15.6873 C   0  0  0  0  0  0  0  0  0  0  0  0
   50.0699    5.8415   17.0431 C   0  0  0  0  0  0  0  0  0  0  0  0
   48.1955    5.9038   15.5603 C   0  0  0  0  0  0  0  0  0  0  0  0
   49.1611   11.9041   13.9175 C   0  0  0  0  0  0  0  0  0  0  0  0
   48.8972   13.1977   14.3325 C   0  0  0  0  0  0  0  0  0  0  0  0
   48.1880   11.2316   17.7430 C   0  0  0  0  0  0  0  0  0  0  0  0
   49.0494    7.7544   16.4691 C   0  0  0  0  0  0  0  0  0  0  0  0
   48.8823   10.1510   17.0370 C   0  0  0  0  0  0  0  0  0  0  0  0
   48.4179    8.8982   17.1320 C   0  0  0  0  0  0  0  0  0  0  0  0
   47.1863   11.1379   18.4243 O   0  0  0  0  0  0  0  0  0  0  0  0
   48.6549    6.6061   16.5579 O   0  0  0  0  0  0  0  0  0  0  0  0
   50.1199    8.0792   15.7307 O   0  0  0  0  0  0  0  0  0  0  0  0
   48.8141   12.4008   17.5411 O   0  0  0  0  0  0  0  0  0  0  0  0
   49.2623    7.8845   16.6851 C   0  0  0  0  0  0  0  0  0  0  0  0
   48.6130   11.4936   17.6612 C   0  0  0  0  0  0  0  0  0  0  0  0
   48.6426    9.2108   16.7325 C   0  0  0  0  0  0  0  0  0  0  0  0
   49.1672   10.1428   17.5398 C   0  0  0  0  0  0  0  0  0  0  0  0
   50.2346    7.4978   17.3028 O   0  0  0  0  0  0  0  0  0  0  0  0
   49.0665   12.3583   18.3877 O   0  0  0  0  0  0  0  0  0  0  0  0
   47.5451   11.7167   16.8800 O   0  0  0  0  0  0  0  0  0  0  0  0
   48.5913    7.0924   15.8347 O   0  0  0  0  0  0  0  0  0  0  0  0
   49.7913    8.9042   18.2368 H   0  0  0  0  0  0  0  0  0  0  0  0
   48.0449   10.2354   16.0388 H   0  0  0  0  0  0  0  0  0  0  0  0
   48.3128   13.1025   17.8684 H   0  0  0  0  0  0  0  0  0  0  0  0
   48.3326    6.9408   15.0883 H   0  0  0  0  0  0  0  0  0  0  0  0
   48.2016    7.5316   12.0792 H   0  0  0  0  0  0  0  0  0  0  0  0
   46.2479    8.4104   13.3616 H   0  0  0  0  0  0  0  0  0  0  0  0
   50.6419    8.4329   15.5079 H   0  0  0  0  0  0  0  0  0  0  0  0
   50.4494    7.5209   13.1909 H   0  0  0  0  0  0  0  0  0  0  0  0
   47.9212    9.0274   18.8608 H   0  0  0  0  0  0  0  0  0  0  0  0
   46.9511    8.3803   17.5597 H   0  0  0  0  0  0  0  0  0  0  0  0
   48.3714   11.3270   16.0302 H   0  0  0  0  0  0  0  0  0  0  0  0
   47.0824   10.8210   17.1344 H   0  0  0  0  0  0  0  0  0  0  0  0
   49.9384   11.6883   17.8999 H   0  0  0  0  0  0  0  0  0  0  0  0
   48.7516   11.0835   19.0437 H   0  0  0  0  0  0  0  0  0  0  0  0
   48.5059   14.5963   19.6988 H   0  0  0  0  0  0  0  0  0  0  0  0
   50.0212   13.7276   19.3859 H   0  0  0  0  0  0  0  0  0  0  0  0
   48.7488   13.0034   20.3927 H   0  0  0  0  0  0  0  0  0  0  0  0
   48.1332   14.8764   17.3465 H   0  0  0  0  0  0  0  0  0  0  0  0
   47.9428   13.5010   16.2917 H   0  0  0  0  0  0  0  0  0  0  0  0
   49.5646   13.9484   16.8617 H   0  0  0  0  0  0  0  0  0  0  0  0
   50.7416    7.7874   18.5112 H   0  0  0  0  0  0  0  0  0  0  0  0
   51.2755    5.2052   18.8928 H   0  0  0  0  0  0  0  0  0  0  0  0
   49.0954    3.7556   18.5976 H   0  0  0  0  0  0  0  0  0  0  0  0
   50.3131   10.0203   19.1911 H   0  0  0  0  0  0  0  0  0  0  0  0
   50.1280   11.6628   18.7313 H   0  0  0  0  0  0  0  0  0  0  0  0
   45.5287    9.6276   21.1679 H   0  0  0  0  0  0  0  0  0  0  0  0
   47.6102   12.7172   18.9081 H   0  0  0  0  0  0  0  0  0  0  0  0
   50.8284    8.9251   16.0524 H   0  0  0  0  0  0  0  0  0  0  0  0
   50.7019    8.5067   17.7354 H   0  0  0  0  0  0  0  0  0  0  0  0
   45.4325   12.1174   20.3031 H   0  0  0  0  0  0  0  0  0  0  0  0
   48.3368    7.8034   17.4922 H   0  0  0  0  0  0  0  0  0  0  0  0
   48.2825    8.4353   15.8601 H   0  0  0  0  0  0  0  0  0  0  0  0
   49.6080    9.9085   14.5091 H   0  0  0  0  0  0  0  0  0  0  0  0
   48.7162   14.4250   16.0845 H   0  0  0  0  0  0  0  0  0  0  0  0
   49.4597    5.6733   17.9386 H   0  0  0  0  0  0  0  0  0  0  0  0
   50.3548    4.8655   16.6304 H   0  0  0  0  0  0  0  0  0  0  0  0
   51.0006    6.3218   17.3560 H   0  0  0  0  0  0  0  0  0  0  0  0
   47.6835    6.4729   14.7779 H   0  0  0  0  0  0  0  0  0  0  0  0
   48.4958    4.9532   15.1078 H   0  0  0  0  0  0  0  0  0  0  0  0
   47.4718    5.7020   16.3608 H   0  0  0  0  0  0  0  0  0  0  0  0
   49.1557   11.6529   12.8622 H   0  0  0  0  0  0  0  0  0  0  0  0
   48.6956   13.9964   13.6244 H   0  0  0  0  0  0  0  0  0  0  0  0
   49.7550   10.4169   16.4562 H   0  0  0  0  0  0  0  0  0  0  0  0
   47.5451    8.6551   17.7282 H   0  0  0  0  0  0  0  0  0  0  0  0
   50.4247    7.2200   15.3721 H   0  0  0  0  0  0  0  0  0  0  0  0
   48.2796   13.0553   18.0419 H   0  0  0  0  0  0  0  0  0  0  0  0
   47.7740    9.3766   16.1049 H   0  0  0  0  0  0  0  0  0  0  0  0
   50.0386    9.9474   18.1573 H   0  0  0  0  0  0  0  0  0  0  0  0
   47.3127   12.6482   17.0769 H   0  0  0  0  0  0  0  0  0  0  0  0
   49.0691    6.2374   15.8703 H   0  0  0  0  0  0  0  0  0  0  0  0
  2  4  1  0
  3  1  1  0
  4  3  2  0
  5  1  2  0
  6  2  2  0
  7  2  1  0
  8  1  1  0
 15 17  1  0
 12 15  1  0
 17 18  1  0
 11 12  1  0
 18 19  1  0
 15 16  1  0
 19 20  1  0
 19 21  1  0
 16 22  1  0
 23 24  1  0
 12 13  2  0
 10 11  2  0
 13 14  1  0
 22 23  2  0
 24 25  2  0
 25 26  1  0
 26 22  1  0
 14  9  2  0
  9 10  1  0
 28 27  1  0
 29 31  1  0
 30 29  1  0
 31 27  1  0
 32 28  2  0
 33 30  1  0
 34 29  2  0
 35 27  1  0
 36 34  1  0
 37 38  1  0
 38 35  1  0
 39 28  1  0
 40 32  1  0
 41 37  1  0
 42 37  1  0
 43 39  2  0
 44 40  2  0
 36 33  2  0
 43 44  1  0
 46 48  1  0
 47 45  1  0
 48 47  2  0
 49 45  2  0
 50 46  2  0
 51 46  1  0
 52 45  1  0
 54 56  1  0
 55 53  1  0
 56 55  2  0
 57 53  2  0
 58 54  2  0
 59 54  1  0
 60 53  1  0
  3 61  1  0
  4 62  1  0
  7 63  1  0
  8 64  1  0
  9 65  1  0
 10 66  1  0
 13 67  1  0
 14 68  1  0
 16 69  1  0
 16 70  1  0
 17 71  1  0
 17 72  1  0
 18 73  1  0
 18 74  1  0
 20 75  1  0
 20 76  1  0
 20 77  1  0
 21 78  1  0
 21 79  1  0
 21 80  1  0
 23 81  1  0
 24 82  1  0
 25 83  1  0
 31 84  1  0
 31 85  1  0
 33 86  1  0
 34 87  1  0
 35 88  1  0
 35 89  1  0
 36 90  1  0
 38 91  1  0
 38 92  1  0
 39 93  1  0
 40 94  1  0
 41 95  1  0
 41 96  1  0
 41 97  1  0
 42 98  1  0
 42 99  1  0
 42100  1  0
 43101  1  0
 44102  1  0
 47103  1  0
 48104  1  0
 51105  1  0
 52106  1  0
 55107  1  0
 56108  1  0
 59109  1  0
 60110  1  0
M  END
> <Uni-Dock RESULT> 
ENERGY=   -5.091  LOWER_BOUND=    2.205  UPPER_BOUND=    4.492
INTER + INTRA:          -5.091
INTER:                  -5.091
INTRA:                   0.000
UNBOUND:                 0.000

$$$$

     RDKit          3D

110109  0  0  0  0  0  0  0  0999 V2000
   49.3552    5.9531   19.6291 C   0  0  0  0  0  0  0  0  0  0  0  0
   48.9365    9.2194   17.7331 C   0  0  0  0  0  0  0  0  0  0  0  0
   49.4733    7.3355   19.1525 C   0  0  0  0  0  0  0  0  0  0  0  0
   48.7607    7.8184   18.1266 C   0  0  0  0  0  0  0  0  0  0  0  0
   49.9996    5.4796   20.5420 O   0  0  0  0  0  0  0  0  0  0  0  0
   49.6693   10.0402   18.2442 O   0  0  0  0  0  0  0  0  0  0  0  0
   48.1422    9.5149   16.6929 O   0  0  0  0  0  0  0  0  0  0  0  0
   48.4343    5.2343   18.9754 O   0  0  0  0  0  0  0  0  0  0  0  0
   48.0847    3.4637   17.4196 C   0  0  0  0  0  0  0  0  0  0  0  0
   47.0788    4.3887   17.6600 C   0  0  0  0  0  0  0  0  0  0  0  0
   47.3011    5.6670   18.0482 N   0  0  0  0  0  0  0  0  0  0  0  0
   48.5870    6.0461   18.2339 C   0  0  0  0  0  0  0  0  0  0  0  0
   49.6574    5.1672   18.0302 C   0  0  0  0  0  0  0  0  0  0  0  0
   49.4011    3.8624   17.6149 C   0  0  0  0  0  0  0  0  0  0  0  0
   48.8947    7.3760   18.6427 N   0  0  0  0  0  0  0  0  0  0  0  0
   48.3996    7.5377   20.0320 C   0  0  0  0  0  0  0  0  0  0  0  0
   48.2558    8.3213   17.6952 C   0  0  0  0  0  0  0  0  0  0  0  0
   49.0322    9.6611   17.6770 C   0  0  0  0  0  0  0  0  0  0  0  0
   48.4137   10.7326   16.8636 N   0  0  0  0  0  0  0  0  0  0  0  0
   49.1490   11.9888   17.0505 C   0  0  0  0  0  0  0  0  0  0  0  0
   48.3708   10.3911   15.4400 C   0  0  0  0  0  0  0  0  0  0  0  0
   49.2258    6.8540   21.0963 C   0  0  0  0  0  0  0  0  0  0  0  0
   50.5990    6.8551   21.2477 C   0  0  0  0  0  0  0  0  0  0  0  0
   51.0237    6.1029   22.3822 C   0  0  0  0  0  0  0  0  0  0  0  0
   49.9568    5.5526   23.0564 C   0  0  0  0  0  0  0  0  0  0  0  0
   48.4583    5.9642   22.3453 S   0  0  0  0  0  0  0  0  0  0  0  0
   49.8057    8.0386   18.0333 N   0  0  0  0  0  0  0  0  0  0  0  0
   49.3424    7.9274   16.7327 C   0  0  0  0  0  0  0  0  0  0  0  0
   48.7327    9.9780   19.2225 C   0  0  0  0  0  0  0  0  0  0  0  0
   48.3733    9.7482   20.8822 S   0  0  0  0  0  0  0  0  0  0  0  0
   49.9700    9.3788   18.6031 C   0  0  0  0  0  0  0  0  0  0  0  0
   49.0433    9.0571   16.0538 N   0  0  0  0  0  0  0  0  0  0  0  0
   46.9677   10.7206   20.7849 C   0  0  0  0  0  0  0  0  0  0  0  0
   47.7836   10.7795   18.6108 C   0  0  0  0  0  0  0  0  0  0  0  0
   50.3245    6.8990   18.7909 C   0  0  0  0  0  0  0  0  0  0  0  0
   46.7656   11.2047   19.5074 C   0  0  0  0  0  0  0  0  0  0  0  0
   49.6408    4.8325   20.0890 N   0  0  0  0  0  0  0  0  0  0  0  0
   49.1953    6.1205   19.5091 C   0  0  0  0  0  0  0  0  0  0  0  0
   49.1731    6.6961   16.0991 C   0  0  0  0  0  0  0  0  0  0  0  0
   48.5837    8.9734   14.7812 C   0  0  0  0  0  0  0  0  0  0  0  0
   50.5458    5.0393   21.2230 C   0  0  0  0  0  0  0  0  0  0  0  0
   48.4775    4.0598   20.5314 C   0  0  0  0  0  0  0  0  0  0  0  0
   48.7010    6.6237   14.7859 C   0  0  0  0  0  0  0  0  0  0  0  0
   48.3951    7.7901   14.1065 C   0  0  0  0  0  0  0  0  0  0  0  0
   48.3512    9.1607   17.8641 C   0  0  0  0  0  0  0  0  0  0  0  0
   49.3000    5.8962   19.5666 C   0  0  0  0  0  0  0  0  0  0  0  0
   49.0218    7.8850   18.1309 C   0  0  0  0  0  0  0  0  0  0  0  0
   48.6800    7.1762   19.2148 C   0  0  0  0  0  0  0  0  0  0  0  0
   47.4699    9.6778   18.5216 O   0  0  0  0  0  0  0  0  0  0  0  0
   49.0177    5.2459   20.5563 O   0  0  0  0  0  0  0  0  0  0  0  0
   50.2219    5.4806   18.6867 O   0  0  0  0  0  0  0  0  0  0  0  0
   48.8437    9.7247   16.7510 O   0  0  0  0  0  0  0  0  0  0  0  0
   49.5306    6.1322   19.5710 C   0  0  0  0  0  0  0  0  0  0  0  0
   48.7370    9.2426   17.5473 C   0  0  0  0  0  0  0  0  0  0  0  0
   48.8181    7.0604   18.6900 C   0  0  0  0  0  0  0  0  0  0  0  0
   49.3762    8.2460   18.4102 C   0  0  0  0  0  0  0  0  0  0  0  0
   50.6105    6.2963   20.1032 O   0  0  0  0  0  0  0  0  0  0  0  0
   49.2188   10.3274   17.2785 O   0  0  0  0  0  0  0  0  0  0  0  0
   47.5525    8.8540   17.0509 O   0  0  0  0  0  0  0  0  0  0  0  0
   48.8104    5.0126   19.7401 O   0  0  0  0  0  0  0  0  0  0  0  0
   50.1939    7.9411   19.6939 H   0  0  0  0  0  0  0  0  0  0  0  0
   48.0443    7.2282   17.5669 H   0  0  0  0  0  0  0  0  0  0  0  0
   48.3395   10.4562   16.5028 H   0  0  0  0  0  0  0  0  0  0  0  0
   48.4594    4.3613   19.4243 H   0  0  0  0  0  0  0  0  0  0  0  0
   47.8455    2.4583   17.0957 H   0  0  0  0  0  0  0  0  0  0  0  0
   46.0333    4.1165   17.5425 H   0  0  0  0  0  0  0  0  0  0  0  0
   50.6754    5.5086   18.1960 H   0  0  0  0  0  0  0  0  0  0  0  0
   50.2241    3.1665   17.4556 H   0  0  0  0  0  0  0  0  0  0  0  0
   48.4304    8.6054   20.2859 H   0  0  0  0  0  0  0  0  0  0  0  0
   47.3381    7.2536   20.1069 H   0  0  0  0  0  0  0  0  0  0  0  0
   48.2759    7.9069   16.6815 H   0  0  0  0  0  0  0  0  0  0  0  0
   47.2063    8.4969   17.9640 H   0  0  0  0  0  0  0  0  0  0  0  0
   50.0626    9.4724   17.3435 H   0  0  0  0  0  0  0  0  0  0  0  0
   49.1077   10.0229   18.7102 H   0  0  0  0  0  0  0  0  0  0  0  0
   48.6733   12.8030   16.4939 H   0  0  0  0  0  0  0  0  0  0  0  0
   50.1931   11.9154   16.7200 H   0  0  0  0  0  0  0  0  0  0  0  0
   49.1437   12.2894   18.1042 H   0  0  0  0  0  0  0  0  0  0  0  0
   47.9417   11.2138   14.8538 H   0  0  0  0  0  0  0  0  0  0  0  0
   47.7134    9.5340   15.2621 H   0  0  0  0  0  0  0  0  0  0  0  0
   49.3587   10.1619   15.0295 H   0  0  0  0  0  0  0  0  0  0  0  0
   51.2621    7.3739   20.5673 H   0  0  0  0  0  0  0  0  0  0  0  0
   52.0549    5.9670   22.6864 H   0  0  0  0  0  0  0  0  0  0  0  0
   49.9808    4.9344   23.9409 H   0  0  0  0  0  0  0  0  0  0  0  0
   50.7557    9.3577   19.3674 H   0  0  0  0  0  0  0  0  0  0  0  0
   50.3722   10.0781   17.8584 H   0  0  0  0  0  0  0  0  0  0  0  0
   46.3568   10.8901   21.6597 H   0  0  0  0  0  0  0  0  0  0  0  0
   47.8290   11.0406   17.5615 H   0  0  0  0  0  0  0  0  0  0  0  0
   50.8981    6.2300   18.1370 H   0  0  0  0  0  0  0  0  0  0  0  0
   51.0516    7.2494   19.5373 H   0  0  0  0  0  0  0  0  0  0  0  0
   45.9330   11.8436   19.2374 H   0  0  0  0  0  0  0  0  0  0  0  0
   48.7417    6.7488   20.2865 H   0  0  0  0  0  0  0  0  0  0  0  0
   48.3998    5.9165   18.7843 H   0  0  0  0  0  0  0  0  0  0  0  0
   49.3905    5.7605   16.6056 H   0  0  0  0  0  0  0  0  0  0  0  0
   48.3705    9.9272   14.3089 H   0  0  0  0  0  0  0  0  0  0  0  0
   50.0877    5.6486   22.0113 H   0  0  0  0  0  0  0  0  0  0  0  0
   50.8467    4.0784   21.6593 H   0  0  0  0  0  0  0  0  0  0  0  0
   51.4697    5.5330   20.9108 H   0  0  0  0  0  0  0  0  0  0  0  0
   47.8126    3.8610   19.6848 H   0  0  0  0  0  0  0  0  0  0  0  0
   48.7856    3.0842   20.9208 H   0  0  0  0  0  0  0  0  0  0  0  0
   47.8965    4.5817   21.3030 H   0  0  0  0  0  0  0  0  0  0  0  0
   48.5631    5.6582   14.3111 H   0  0  0  0  0  0  0  0  0  0  0  0
   48.0284    7.7780   13.0841 H   0  0  0  0  0  0  0  0  0  0  0  0
   49.7763    7.5630   17.4261 H   0  0  0  0  0  0  0  0  0  0  0  0
   47.9257    7.5245   19.9120 H   0  0  0  0  0  0  0  0  0  0  0  0
   50.5407    4.6352   19.0654 H   0  0  0  0  0  0  0  0  0  0  0  0
   48.3358   10.5598   16.6533 H   0  0  0  0  0  0  0  0  0  0  0  0
   47.8570    6.7402   18.3032 H   0  0  0  0  0  0  0  0  0  0  0  0
   50.3410    8.5392   18.8128 H   0  0  0  0  0  0  0  0  0  0  0  0
   47.2757    9.6187   16.5039 H   0  0  0  0  0  0  0  0  0  0  0  0
   49.3565    4.4600   20.3375 H   0  0  0  0  0  0  0  0  0  0  0  0
  2  4  1  0
  3  1  1  0
  4  3  2  0
  5  1  2  0
  6  2  2  0
  7  2  1  0
  8  1  1  0
 15 17  1  0
 12 15  1  0
 17 18  1  0
 11 12  1  0
 18 19  1  0
 15 16  1  0
 19 20  1  0
 19 21  1  0
 16 22  1  0
 23 24  1  0
 12 13  2  0
 10 11  2  0
 13 14  1  0
 22 23  2  0
 24 25  2  0
 25 26  1  0
 26 22  1  0
 14  9  2  0
  9 10  1  0
 28 27  1  0
 29 31  1  0
 30 29  1  0
 31 27  1  0
 32 28  2  0
 33 30  1  0
 34 29  2  0
 35 27  1  0
 36 34  1  0
 37 38  1  0
 38 35  1  0
 39 28  1  0
 40 32  1  0
 41 37  1  0
 42 37  1  0
 43 39  2  0
 44 40  2  0
 36 33  2  0
 43 44  1  0
 46 48  1  0
 47 45  1  0
 48 47  2  0
 49 45  2  0
 50 46  2  0
 51 46  1  0
 52 45  1  0
 54 56  1  0
 55 53  1  0
 56 55  2  0
 57 53  2  0
 58 54  2  0
 59 54  1  0
 60 53  1  0
  3 61  1  0
  4 62  1  0
  7 63  1  0
  8 64  1  0
  9 65  1  0
 10 66  1  0
 13 67  1  0
 14 68  1  0
 16 69  1  0
 16 70  1  0
 17 71  1  0
 17 72  1  0
 18 73  1  0
 18 74  1  0
 20 75  1  0
 20 76  1  0
 20 77  1  0
 21 78  1  0
 21 79  1  0
 21 80  1  0
 23 81  1  0
 24 82  1  0
 25 83  1  0
 31 84  1  0
 31 85  1  0
 33 86  1  0
 34 87  1  0
 35 88  1  0
 35 89  1  0
 36 90  1  0
 38 91  1  0
 38 92  1  0
 39 93  1  0
 40 94  1  0
 41 95  1  0
 41 96  1  0
 41 97  1  0
 42 98  1  0
 42 99  1  0
 42100  1  0
 43101  1  0
 44102  1  0
 47103  1  0
 48104  1  0
 51105  1  0
 52106  1  0
 55107  1  0
 56108  1  0
 59109  1  0
 60110  1  0
M  END
> <Uni-Dock RESULT> 
ENERGY=   -4.915  LOWER_BOUND=    1.635  UPPER_BOUND=    3.668
INTER + INTRA:          -4.915
INTER:                  -4.915
INTRA:                   0.000
UNBOUND:                 0.000

$$$$

     RDKit          3D

110109  0  0  0  0  0  0  0  0999 V2000
   49.7421    9.6004   14.8550 C   0  0  0  0  0  0  0  0  0  0  0  0
   47.3556    7.3272   12.9640 C   0  0  0  0  0  0  0  0  0  0  0  0
   49.0210    8.8635   13.8114 C   0  0  0  0  0  0  0  0  0  0  0  0
   48.0277    8.0051   14.0763 C   0  0  0  0  0  0  0  0  0  0  0  0
   50.6583   10.3694   14.6502 O   0  0  0  0  0  0  0  0  0  0  0  0
   47.5844    7.4544   11.7794 O   0  0  0  0  0  0  0  0  0  0  0  0
   46.3950    6.5126   13.4264 O   0  0  0  0  0  0  0  0  0  0  0  0
   49.2826    9.3722   16.0916 O   0  0  0  0  0  0  0  0  0  0  0  0
   49.7453    8.3286   18.1831 C   0  0  0  0  0  0  0  0  0  0  0  0
   48.4420    8.6641   17.8451 C   0  0  0  0  0  0  0  0  0  0  0  0
   47.9824    8.7329   16.5730 N   0  0  0  0  0  0  0  0  0  0  0  0
   48.8648    8.4810   15.5781 C   0  0  0  0  0  0  0  0  0  0  0  0
   50.2012    8.1537   15.8358 C   0  0  0  0  0  0  0  0  0  0  0  0
   50.6436    8.0737   17.1544 C   0  0  0  0  0  0  0  0  0  0  0  0
   48.4504    8.5360   14.2159 N   0  0  0  0  0  0  0  0  0  0  0  0
   48.1432    9.9536   13.9036 C   0  0  0  0  0  0  0  0  0  0  0  0
   47.2768    7.6459   14.0428 C   0  0  0  0  0  0  0  0  0  0  0  0
   47.1863    7.1663   12.5731 C   0  0  0  0  0  0  0  0  0  0  0  0
   45.9792    6.3738   12.2460 N   0  0  0  0  0  0  0  0  0  0  0  0
   45.9283    6.1144   10.8025 C   0  0  0  0  0  0  0  0  0  0  0  0
   45.9347    5.1063   12.9787 C   0  0  0  0  0  0  0  0  0  0  0  0
   49.3451   10.8537   13.7358 C   0  0  0  0  0  0  0  0  0  0  0  0
   50.5011   10.6149   13.0179 C   0  0  0  0  0  0  0  0  0  0  0  0
   51.4178   11.7053   13.0810 C   0  0  0  0  0  0  0  0  0  0  0  0
   50.9277   12.7386   13.8477 C   0  0  0  0  0  0  0  0  0  0  0  0
   49.3665   12.4083   14.4593 S   0  0  0  0  0  0  0  0  0  0  0  0
   48.7593    7.5864   13.4139 N   0  0  0  0  0  0  0  0  0  0  0  0
   48.2584    6.5094   14.1262 C   0  0  0  0  0  0  0  0  0  0  0  0
   46.9776    8.6483   11.9908 C   0  0  0  0  0  0  0  0  0  0  0  0
   47.0332   10.3552   11.8502 S   0  0  0  0  0  0  0  0  0  0  0  0
   48.2428    7.8311   12.0644 C   0  0  0  0  0  0  0  0  0  0  0  0
   47.3022    5.7441   13.5547 N   0  0  0  0  0  0  0  0  0  0  0  0
   45.3272   10.4746   11.7713 C   0  0  0  0  0  0  0  0  0  0  0  0
   45.6720    8.1874   11.9849 C   0  0  0  0  0  0  0  0  0  0  0  0
   49.9134    8.3667   13.8623 C   0  0  0  0  0  0  0  0  0  0  0  0
   44.7211    9.2371   11.8622 C   0  0  0  0  0  0  0  0  0  0  0  0
   50.6522   10.1611   15.4923 N   0  0  0  0  0  0  0  0  0  0  0  0
   49.5021    9.5008   14.8328 C   0  0  0  0  0  0  0  0  0  0  0  0
   48.7026    6.1858   15.4086 C   0  0  0  0  0  0  0  0  0  0  0  0
   46.7932    4.6873   14.2342 C   0  0  0  0  0  0  0  0  0  0  0  0
   51.4434   10.9410   14.5365 C   0  0  0  0  0  0  0  0  0  0  0  0
   50.1718   11.0437   16.5585 C   0  0  0  0  0  0  0  0  0  0  0  0
   48.1716    5.0921   16.0973 C   0  0  0  0  0  0  0  0  0  0  0  0
   47.1898    4.3216   15.4991 C   0  0  0  0  0  0  0  0  0  0  0  0
   46.9214    7.6240   13.2583 C   0  0  0  0  0  0  0  0  0  0  0  0
   49.7189    9.5673   14.9476 C   0  0  0  0  0  0  0  0  0  0  0  0
   48.2080    7.9244   13.8930 C   0  0  0  0  0  0  0  0  0  0  0  0
   48.4602    9.1719   14.3105 C   0  0  0  0  0  0  0  0  0  0  0  0
   46.0007    8.3934   13.0662 O   0  0  0  0  0  0  0  0  0  0  0  0
   49.9755   10.6986   15.3168 O   0  0  0  0  0  0  0  0  0  0  0  0
   50.5873    8.5583   15.1043 O   0  0  0  0  0  0  0  0  0  0  0  0
   46.8687    6.3339   12.8944 O   0  0  0  0  0  0  0  0  0  0  0  0
   49.7816    9.4639   14.6405 C   0  0  0  0  0  0  0  0  0  0  0  0
   47.1525    7.2031   13.0990 C   0  0  0  0  0  0  0  0  0  0  0  0
   48.5655    8.6601   14.4971 C   0  0  0  0  0  0  0  0  0  0  0  0
   48.3426    8.0229   13.3397 C   0  0  0  0  0  0  0  0  0  0  0  0
   50.6583    9.6356   13.8169 O   0  0  0  0  0  0  0  0  0  0  0  0
   46.9229    6.6161   12.0579 O   0  0  0  0  0  0  0  0  0  0  0  0
   46.3165    7.1356   14.1464 O   0  0  0  0  0  0  0  0  0  0  0  0
   49.8193   10.0296   15.8568 O   0  0  0  0  0  0  0  0  0  0  0  0
   49.3611    9.0624   12.7995 H   0  0  0  0  0  0  0  0  0  0  0  0
   47.6802    7.7851   15.0791 H   0  0  0  0  0  0  0  0  0  0  0  0
   46.0190    6.1051   12.6179 H   0  0  0  0  0  0  0  0  0  0  0  0
   49.8407    9.9493   16.6569 H   0  0  0  0  0  0  0  0  0  0  0  0
   50.0511    8.2749   19.2207 H   0  0  0  0  0  0  0  0  0  0  0  0
   47.7095    8.8938   18.6143 H   0  0  0  0  0  0  0  0  0  0  0  0
   50.8799    7.9645   15.0088 H   0  0  0  0  0  0  0  0  0  0  0  0
   51.6817    7.8233   17.3698 H   0  0  0  0  0  0  0  0  0  0  0  0
   47.6215    9.9877   12.9382 H   0  0  0  0  0  0  0  0  0  0  0  0
   47.4303   10.3713   14.6319 H   0  0  0  0  0  0  0  0  0  0  0  0
   47.3804    6.7609   14.6798 H   0  0  0  0  0  0  0  0  0  0  0  0
   46.3500    8.1584   14.3303 H   0  0  0  0  0  0  0  0  0  0  0  0
   48.0957    6.6006   12.3252 H   0  0  0  0  0  0  0  0  0  0  0  0
   47.1931    8.0529   11.9265 H   0  0  0  0  0  0  0  0  0  0  0  0
   45.0147    5.5716   10.5380 H   0  0  0  0  0  0  0  0  0  0  0  0
   46.7866    5.5264   10.4527 H   0  0  0  0  0  0  0  0  0  0  0  0
   45.9044    7.0540   10.2391 H   0  0  0  0  0  0  0  0  0  0  0  0
   45.0511    4.5212   12.6934 H   0  0  0  0  0  0  0  0  0  0  0  0
   45.8338    5.2790   14.0549 H   0  0  0  0  0  0  0  0  0  0  0  0
   46.8205    4.4873   12.8081 H   0  0  0  0  0  0  0  0  0  0  0  0
   50.6735    9.6937   12.4762 H   0  0  0  0  0  0  0  0  0  0  0  0
   52.3866   11.7308   12.5958 H   0  0  0  0  0  0  0  0  0  0  0  0
   51.4058   13.6797   14.0729 H   0  0  0  0  0  0  0  0  0  0  0  0
   49.0089    8.3375   11.4656 H   0  0  0  0  0  0  0  0  0  0  0  0
   48.0922    6.8884   11.5221 H   0  0  0  0  0  0  0  0  0  0  0  0
   44.8494   11.4378   11.6655 H   0  0  0  0  0  0  0  0  0  0  0  0
   45.4233    7.1374   12.0678 H   0  0  0  0  0  0  0  0  0  0  0  0
   50.6628    7.7141   14.3279 H   0  0  0  0  0  0  0  0  0  0  0  0
   50.4261    8.8039   12.9938 H   0  0  0  0  0  0  0  0  0  0  0  0
   43.6472    9.0959   11.8284 H   0  0  0  0  0  0  0  0  0  0  0  0
   48.8911   10.2439   14.3044 H   0  0  0  0  0  0  0  0  0  0  0  0
   48.8560    9.0759   15.6084 H   0  0  0  0  0  0  0  0  0  0  0  0
   49.4618    6.7754   15.9137 H   0  0  0  0  0  0  0  0  0  0  0  0
   46.0323    4.1255   13.7018 H   0  0  0  0  0  0  0  0  0  0  0  0
   50.8405   11.6991   14.0226 H   0  0  0  0  0  0  0  0  0  0  0  0
   52.2758   11.4458   15.0429 H   0  0  0  0  0  0  0  0  0  0  0  0
   51.8956   10.2991   13.7761 H   0  0  0  0  0  0  0  0  0  0  0  0
   49.6141   10.4667   17.3030 H   0  0  0  0  0  0  0  0  0  0  0  0
   51.0118   11.5050   17.0876 H   0  0  0  0  0  0  0  0  0  0  0  0
   49.5125   11.8363   16.1811 H   0  0  0  0  0  0  0  0  0  0  0  0
   48.5188    4.8606   17.0986 H   0  0  0  0  0  0  0  0  0  0  0  0
   46.7529    3.4617   15.9988 H   0  0  0  0  0  0  0  0  0  0  0  0
   48.9109    7.1098   14.0017 H   0  0  0  0  0  0  0  0  0  0  0  0
   47.7420    9.9745   14.1824 H   0  0  0  0  0  0  0  0  0  0  0  0
   51.3637    8.9826   15.5249 H   0  0  0  0  0  0  0  0  0  0  0  0
   45.9801    6.2290   12.4892 H   0  0  0  0  0  0  0  0  0  0  0  0
   47.8922    8.6212   15.3461 H   0  0  0  0  0  0  0  0  0  0  0  0
   49.0360    8.0805   12.5061 H   0  0  0  0  0  0  0  0  0  0  0  0
   45.5958    6.5558   13.8223 H   0  0  0  0  0  0  0  0  0  0  0  0
   50.6541   10.5431   15.8604 H   0  0  0  0  0  0  0  0  0  0  0  0
  2  4  1  0
  3  1  1  0
  4  3  2  0
  5  1  2  0
  6  2  2  0
  7  2  1  0
  8  1  1  0
 15 17  1  0
 12 15  1  0
 17 18  1  0
 11 12  1  0
 18 19  1  0
 15 16  1  0
 19 20  1  0
 19 21  1  0
 16 22  1  0
 23 24  1  0
 12 13  2  0
 10 11  2  0
 13 14  1  0
 22 23  2  0
 24 25  2  0
 25 26  1  0
 26 22  1  0
 14  9  2  0
  9 10  1  0
 28 27  1  0
 29 31  1  0
 30 29  1  0
 31 27  1  0
 32 28  2  0
 33 30  1  0
 34 29  2  0
 35 27  1  0
 36 34  1  0
 37 38  1  0
 38 35  1  0
 39 28  1  0
 40 32  1  0
 41 37  1  0
 42 37  1  0
 43 39  2  0
 44 40  2  0
 36 33  2  0
 43 44  1  0
 46 48  1  0
 47 45  1  0
 48 47  2  0
 49 45  2  0
 50 46  2  0
 51 46  1  0
 52 45  1  0
 54 56  1  0
 55 53  1  0
 56 55  2  0
 57 53  2  0
 58 54  2  0
 59 54  1  0
 60 53  1  0
  3 61  1  0
  4 62  1  0
  7 63  1  0
  8 64  1  0
  9 65  1  0
 10 66  1  0
 13 67  1  0
 14 68  1  0
 16 69  1  0
 16 70  1  0
 17 71  1  0
 17 72  1  0
 18 73  1  0
 18 74  1  0
 20 75  1  0
 20 76  1  0
 20 77  1  0
 21 78  1  0
 21 79  1  0
 21 80  1  0
 23 81  1  0
 24 82  1  0
 25 83  1  0
 31 84  1  0
 31 85  1  0
 33 86  1  0
 34 87  1  0
 35 88  1  0
 35 89  1  0
 36 90  1  0
 38 91  1  0
 38 92  1  0
 39 93  1  0
 40 94  1  0
 41 95  1  0
 41 96  1  0
 41 97  1  0
 42 98  1  0
 42 99  1  0
 42100  1  0
 43101  1  0
 44102  1  0
 47103  1  0
 48104  1  0
 51105  1  0
 52106  1  0
 55107  1  0
 56108  1  0
 59109  1  0
 60110  1  0
M  END
> <Uni-Dock RESULT> 
ENERGY=   -4.748  LOWER_BOUND=    3.792  UPPER_BOUND=    6.666
INTER + INTRA:          -4.748
INTER:                  -4.748
INTRA:                   0.000
UNBOUND:                 0.000

$$$$

     RDKit          3D

110109  0  0  0  0  0  0  0  0999 V2000
   48.8779   11.7589   18.1945 C   0  0  0  0  0  0  0  0  0  0  0  0
   48.4072    7.9925   18.0150 C   0  0  0  0  0  0  0  0  0  0  0  0
   48.4006   10.3840   18.3794 C   0  0  0  0  0  0  0  0  0  0  0  0
   48.9431    9.3316   17.7536 C   0  0  0  0  0  0  0  0  0  0  0  0
   48.3964   12.7354   18.7307 O   0  0  0  0  0  0  0  0  0  0  0  0
   47.5013    7.6970   18.7659 O   0  0  0  0  0  0  0  0  0  0  0  0
   49.0761    7.0749   17.3004 O   0  0  0  0  0  0  0  0  0  0  0  0
   49.9365   11.8573   17.3809 O   0  0  0  0  0  0  0  0  0  0  0  0
   50.6900   12.5787   15.2386 C   0  0  0  0  0  0  0  0  0  0  0  0
   51.4323   11.6583   15.9647 C   0  0  0  0  0  0  0  0  0  0  0  0
   50.9005   10.7936   16.8611 N   0  0  0  0  0  0  0  0  0  0  0  0
   49.5650   10.8581   17.0711 C   0  0  0  0  0  0  0  0  0  0  0  0
   48.7496   11.7710   16.3920 C   0  0  0  0  0  0  0  0  0  0  0  0
   49.3203   12.6381   15.4629 C   0  0  0  0  0  0  0  0  0  0  0  0
   48.9381    9.9788   18.0007 N   0  0  0  0  0  0  0  0  0  0  0  0
   49.4072   10.3598   19.3558 C   0  0  0  0  0  0  0  0  0  0  0  0
   49.2933    8.5836   17.6448 C   0  0  0  0  0  0  0  0  0  0  0  0
   48.2009    7.6111   18.1538 C   0  0  0  0  0  0  0  0  0  0  0  0
   48.5073    6.1740   17.9717 N   0  0  0  0  0  0  0  0  0  0  0  0
   47.4806    5.3574   18.6295 C   0  0  0  0  0  0  0  0  0  0  0  0
   48.6033    5.8041   16.5578 C   0  0  0  0  0  0  0  0  0  0  0  0
   48.8069   11.6287   19.9147 C   0  0  0  0  0  0  0  0  0  0  0  0
   47.4826   12.0221   19.9162 C   0  0  0  0  0  0  0  0  0  0  0  0
   47.2896   13.2869   20.5458 C   0  0  0  0  0  0  0  0  0  0  0  0
   48.4766   13.8148   21.0018 C   0  0  0  0  0  0  0  0  0  0  0  0
   49.8041   12.7818   20.7001 S   0  0  0  0  0  0  0  0  0  0  0  0
   47.8746    9.3474   17.6678 N   0  0  0  0  0  0  0  0  0  0  0  0
   48.3212    8.7372   16.5074 C   0  0  0  0  0  0  0  0  0  0  0  0
   48.4450    7.9769   19.6983 C   0  0  0  0  0  0  0  0  0  0  0  0
   48.8888    8.8492   21.1049 S   0  0  0  0  0  0  0  0  0  0  0  0
   47.3873    8.4992   18.7590 C   0  0  0  0  0  0  0  0  0  0  0  0
   48.3070    7.3874   16.4397 N   0  0  0  0  0  0  0  0  0  0  0  0
   49.9976    7.6389   21.5911 C   0  0  0  0  0  0  0  0  0  0  0  0
   49.1443    6.7853   19.6064 C   0  0  0  0  0  0  0  0  0  0  0  0
   47.6807   10.7938   17.7796 C   0  0  0  0  0  0  0  0  0  0  0  0
   50.0405    6.5910   20.6927 C   0  0  0  0  0  0  0  0  0  0  0  0
   48.8978   12.9973   18.0729 N   0  0  0  0  0  0  0  0  0  0  0  0
   48.9872   11.5227   18.1785 C   0  0  0  0  0  0  0  0  0  0  0  0
   48.7842    9.4617   15.4087 C   0  0  0  0  0  0  0  0  0  0  0  0
   48.7437    6.7673   15.3161 C   0  0  0  0  0  0  0  0  0  0  0  0
   47.9961   13.5539   19.0853 C   0  0  0  0  0  0  0  0  0  0  0  0
   50.2295   13.5868   18.2326 C   0  0  0  0  0  0  0  0  0  0  0  0
   49.2291    8.8103   14.2553 C   0  0  0  0  0  0  0  0  0  0  0  0
   49.2120    7.4273   14.2044 C   0  0  0  0  0  0  0  0  0  0  0  0
   48.9910    7.9644   18.1619 C   0  0  0  0  0  0  0  0  0  0  0  0
   48.9444   11.7660   18.1188 C   0  0  0  0  0  0  0  0  0  0  0  0
   48.6739    9.3383   17.7618 C   0  0  0  0  0  0  0  0  0  0  0  0
   49.2096   10.3614   18.4403 C   0  0  0  0  0  0  0  0  0  0  0  0
   49.7262    7.6141   19.0638 O   0  0  0  0  0  0  0  0  0  0  0  0
   49.4056   12.7098   18.7341 O   0  0  0  0  0  0  0  0  0  0  0  0
   48.1390   11.9370   17.0610 O   0  0  0  0  0  0  0  0  0  0  0  0
   48.3458    7.0877   17.3780 O   0  0  0  0  0  0  0  0  0  0  0  0
   48.6614   11.6204   18.2061 C   0  0  0  0  0  0  0  0  0  0  0  0
   48.5900    7.8404   17.8796 C   0  0  0  0  0  0  0  0  0  0  0  0
   49.0937   10.2528   17.9088 C   0  0  0  0  0  0  0  0  0  0  0  0
   48.2456    9.2409   18.1374 C   0  0  0  0  0  0  0  0  0  0  0  0
   47.5878   11.9792   18.6476 O   0  0  0  0  0  0  0  0  0  0  0  0
   47.8416    6.9018   18.0804 O   0  0  0  0  0  0  0  0  0  0  0  0
   49.8228    7.6656   17.3795 O   0  0  0  0  0  0  0  0  0  0  0  0
   49.6468   12.4866   17.9244 O   0  0  0  0  0  0  0  0  0  0  0  0
   47.5621   10.2838   19.0619 H   0  0  0  0  0  0  0  0  0  0  0  0
   49.7733    9.4113   17.0612 H   0  0  0  0  0  0  0  0  0  0  0  0
   48.6412    6.2279   17.5344 H   0  0  0  0  0  0  0  0  0  0  0  0
   50.1448   12.8169   17.3859 H   0  0  0  0  0  0  0  0  0  0  0  0
   51.1701   13.2351   14.5233 H   0  0  0  0  0  0  0  0  0  0  0  0
   52.5097   11.5903   15.8399 H   0  0  0  0  0  0  0  0  0  0  0  0
   47.6822   11.7954   16.5935 H   0  0  0  0  0  0  0  0  0  0  0  0
   48.6984   13.3560   14.9294 H   0  0  0  0  0  0  0  0  0  0  0  0
   49.1112    9.5686   20.0572 H   0  0  0  0  0  0  0  0  0  0  0  0
   50.5075   10.3863   19.3982 H   0  0  0  0  0  0  0  0  0  0  0  0
   49.3563    8.4789   16.5563 H   0  0  0  0  0  0  0  0  0  0  0  0
   50.2692    8.3080   18.0643 H   0  0  0  0  0  0  0  0  0  0  0  0
   47.2453    7.8638   17.6728 H   0  0  0  0  0  0  0  0  0  0  0  0
   48.0593    7.7924   19.2268 H   0  0  0  0  0  0  0  0  0  0  0  0
   47.7204    4.2922   18.5462 H   0  0  0  0  0  0  0  0  0  0  0  0
   46.4824    5.5159   18.2014 H   0  0  0  0  0  0  0  0  0  0  0  0
   47.4332    5.5814   19.7011 H   0  0  0  0  0  0  0  0  0  0  0  0
   48.7951    4.7291   16.4475 H   0  0  0  0  0  0  0  0  0  0  0  0
   49.4531    6.3014   16.0793 H   0  0  0  0  0  0  0  0  0  0  0  0
   47.6973    6.0462   15.9942 H   0  0  0  0  0  0  0  0  0  0  0  0
   46.6939   11.4227   19.4798 H   0  0  0  0  0  0  0  0  0  0  0  0
   46.3342   13.7867   20.6549 H   0  0  0  0  0  0  0  0  0  0  0  0
   48.6310   14.7555   21.5081 H   0  0  0  0  0  0  0  0  0  0  0  0
   46.6507    9.0534   19.3523 H   0  0  0  0  0  0  0  0  0  0  0  0
   46.8034    7.6540   18.3717 H   0  0  0  0  0  0  0  0  0  0  0  0
   50.5650    7.7500   22.5038 H   0  0  0  0  0  0  0  0  0  0  0  0
   49.0099    6.0915   18.7867 H   0  0  0  0  0  0  0  0  0  0  0  0
   47.2818   11.2030   16.8428 H   0  0  0  0  0  0  0  0  0  0  0  0
   46.9056   11.0076   18.5292 H   0  0  0  0  0  0  0  0  0  0  0  0
   50.6765    5.7228   20.8202 H   0  0  0  0  0  0  0  0  0  0  0  0
   49.2833   11.2332   19.1950 H   0  0  0  0  0  0  0  0  0  0  0  0
   49.7916   11.1771   17.5203 H   0  0  0  0  0  0  0  0  0  0  0  0
   48.8239   10.5468   15.4182 H   0  0  0  0  0  0  0  0  0  0  0  0
   48.6960    5.6833   15.3448 H   0  0  0  0  0  0  0  0  0  0  0  0
   48.3017   13.2847   20.1035 H   0  0  0  0  0  0  0  0  0  0  0  0
   47.9600   14.6482   19.0129 H   0  0  0  0  0  0  0  0  0  0  0  0
   46.9701   13.2064   18.9394 H   0  0  0  0  0  0  0  0  0  0  0  0
   50.9035   13.2118   17.4559 H   0  0  0  0  0  0  0  0  0  0  0  0
   50.1890   14.6740   18.1113 H   0  0  0  0  0  0  0  0  0  0  0  0
   50.6757   13.3557   19.2087 H   0  0  0  0  0  0  0  0  0  0  0  0
   49.5975    9.3874   13.4139 H   0  0  0  0  0  0  0  0  0  0  0  0
   49.5463    6.8825   13.3261 H   0  0  0  0  0  0  0  0  0  0  0  0
   48.0104    9.4698   16.9180 H   0  0  0  0  0  0  0  0  0  0  0  0
   49.8660   10.2039   19.2893 H   0  0  0  0  0  0  0  0  0  0  0  0
   48.0548   12.9103   16.9875 H   0  0  0  0  0  0  0  0  0  0  0  0
   48.6218    6.2073   17.7149 H   0  0  0  0  0  0  0  0  0  0  0  0
   50.0955   10.1225   17.5149 H   0  0  0  0  0  0  0  0  0  0  0  0
   47.2474    9.4024   18.5329 H   0  0  0  0  0  0  0  0  0  0  0  0
   49.8830    6.6943   17.2633 H   0  0  0  0  0  0  0  0  0  0  0  0
   49.2732   13.3631   18.1544 H   0  0  0  0  0  0  0  0  0  0  0  0
  2  4  1  0
  3  1  1  0
  4  3  2  0
  5  1  2  0
  6  2  2  0
  7  2  1  0
  8  1  1  0
 15 17  1  0
 12 15  1  0
 17 18  1  0
 11 12  1  0
 18 19  1  0
 15 16  1  0
 19 20  1  0
 19 21  1  0
 16 22  1  0
 23 24  1  0
 12 13  2  0
 10 11  2  0
 13 14  1  0
 22 23  2  0
 24 25  2  0
 25 26  1  0
 26 22  1  0
 14  9  2  0
  9 10  1  0
 28 27  1  0
 29 31  1  0
 30 29  1  0
 31 27  1  0
 32 28  2  0
 33 30  1  0
 34 29  2  0
 35 27  1  0
 36 34  1  0
 37 38  1  0
 38 35  1  0
 39 28  1  0
 40 32  1  0
 41 37  1  0
 42 37  1  0
 43 39  2  0
 44 40  2  0
 36 33  2  0
 43 44  1  0
 46 48  1  0
 47 45  1  0
 48 47  2  0
 49 45  2  0
 50 46  2  0
 51 46  1  0
 52 45  1  0
 54 56  1  0
 55 53  1  0
 56 55  2  0
 57 53  2  0
 58 54  2  0
 59 54  1  0
 60 53  1  0
  3 61  1  0
  4 62  1  0
  7 63  1  0
  8 64  1  0
  9 65  1  0
 10 66  1  0
 13 67  1  0
 14 68  1  0
 16 69  1  0
 16 70  1  0
 17 71  1  0
 17 72  1  0
 18 73  1  0
 18 74  1  0
 20 75  1  0
 20 76  1  0
 20 77  1  0
 21 78  1  0
 21 79  1  0
 21 80  1  0
 23 81  1  0
 24 82  1  0
 25 83  1  0
 31 84  1  0
 31 85  1  0
 33 86  1  0
 34 87  1  0
 35 88  1  0
 35 89  1  0
 36 90  1  0
 38 91  1  0
 38 92  1  0
 39 93  1  0
 40 94  1  0
 41 95  1  0
 41 96  1  0
 41 97  1  0
 42 98  1  0
 42 99  1  0
 42100  1  0
 43101  1  0
 44102  1  0
 47103  1  0
 48104  1  0
 51105  1  0
 52106  1  0
 55107  1  0
 56108  1  0
 59109  1  0
 60110  1  0
M  END
> <Uni-Dock RESULT> 
ENERGY=   -4.595  LOWER_BOUND=    2.031  UPPER_BOUND=    6.084
INTER + INTRA:          -4.595
INTER:                  -4.595
INTRA:                   0.000
UNBOUND:                 0.000

$$$$

     RDKit          3D

110109  0  0  0  0  0  0  0  0999 V2000
   48.7108    7.4939   18.0347 C   0  0  0  0  0  0  0  0  0  0  0  0
   48.4511    9.1964   21.4220 C   0  0  0  0  0  0  0  0  0  0  0  0
   48.4648    8.4481   19.1215 C   0  0  0  0  0  0  0  0  0  0  0  0
   48.7150    8.1715   20.4077 C   0  0  0  0  0  0  0  0  0  0  0  0
   48.4770    7.7060   16.8629 O   0  0  0  0  0  0  0  0  0  0  0  0
   48.0254   10.3178   21.2404 O   0  0  0  0  0  0  0  0  0  0  0  0
   48.7623    8.7352   22.6429 O   0  0  0  0  0  0  0  0  0  0  0  0
   49.2539    6.3403   18.4428 O   0  0  0  0  0  0  0  0  0  0  0  0
   48.8645    4.0152   18.7883 C   0  0  0  0  0  0  0  0  0  0  0  0
   49.9177    4.6484   19.4325 C   0  0  0  0  0  0  0  0  0  0  0  0
   49.9258    5.9623   19.7606 N   0  0  0  0  0  0  0  0  0  0  0  0
   48.8448    6.6977   19.4109 C   0  0  0  0  0  0  0  0  0  0  0  0
   47.7497    6.1372   18.7428 C   0  0  0  0  0  0  0  0  0  0  0  0
   47.7603    4.7792   18.4320 C   0  0  0  0  0  0  0  0  0  0  0  0
   48.7857    8.0866   19.7238 N   0  0  0  0  0  0  0  0  0  0  0  0
   49.8115    8.7703   18.8982 C   0  0  0  0  0  0  0  0  0  0  0  0
   49.0196    8.2534   21.1788 C   0  0  0  0  0  0  0  0  0  0  0  0
   48.3590    9.5627   21.6762 C   0  0  0  0  0  0  0  0  0  0  0  0
   48.6343    9.9054   23.0901 N   0  0  0  0  0  0  0  0  0  0  0  0
   48.0916   11.2340   23.3965 C   0  0  0  0  0  0  0  0  0  0  0  0
   48.0776    8.9173   24.0169 C   0  0  0  0  0  0  0  0  0  0  0  0
   49.4652    8.9268   17.4358 C   0  0  0  0  0  0  0  0  0  0  0  0
   48.2751    9.3517   16.8776 C   0  0  0  0  0  0  0  0  0  0  0  0
   48.3209    9.3825   15.4527 C   0  0  0  0  0  0  0  0  0  0  0  0
   49.5467    8.9777   14.9740 C   0  0  0  0  0  0  0  0  0  0  0  0
   50.6391    8.5938   16.2309 S   0  0  0  0  0  0  0  0  0  0  0  0
   47.7330    8.5769   20.2641 N   0  0  0  0  0  0  0  0  0  0  0  0
   47.6194    7.7339   21.3572 C   0  0  0  0  0  0  0  0  0  0  0  0
   49.2767   10.5020   20.7520 C   0  0  0  0  0  0  0  0  0  0  0  0
   50.2732   11.0246   19.4596 S   0  0  0  0  0  0  0  0  0  0  0  0
   47.8709   10.0160   20.5044 C   0  0  0  0  0  0  0  0  0  0  0  0
   47.6608    8.2720   22.5962 N   0  0  0  0  0  0  0  0  0  0  0  0
   51.5548   11.4314   20.5193 C   0  0  0  0  0  0  0  0  0  0  0  0
   49.9248   10.6326   21.9686 C   0  0  0  0  0  0  0  0  0  0  0  0
   47.5231    8.1248   18.8881 C   0  0  0  0  0  0  0  0  0  0  0  0
   51.2367   11.1639   21.8362 C   0  0  0  0  0  0  0  0  0  0  0  0
   48.5925    6.8534   16.9743 N   0  0  0  0  0  0  0  0  0  0  0  0
   48.8144    7.5347   18.2705 C   0  0  0  0  0  0  0  0  0  0  0  0
   47.4645    6.3535   21.2274 C   0  0  0  0  0  0  0  0  0  0  0  0
   47.5563    7.4665   23.6815 C   0  0  0  0  0  0  0  0  0  0  0  0
   48.2393    7.8082   15.9201 C   0  0  0  0  0  0  0  0  0  0  0  0
   49.8025    6.1255   16.5839 C   0  0  0  0  0  0  0  0  0  0  0  0
   47.3553    5.5345   22.3542 C   0  0  0  0  0  0  0  0  0  0  0  0
   47.4042    6.1014   23.6159 C   0  0  0  0  0  0  0  0  0  0  0  0
   49.0359    9.0615   21.4769 C   0  0  0  0  0  0  0  0  0  0  0  0
   48.7333    7.4018   18.0696 C   0  0  0  0  0  0  0  0  0  0  0  0
   48.4814    8.2958   20.3569 C   0  0  0  0  0  0  0  0  0  0  0  0
   49.2070    8.1427   19.2415 C   0  0  0  0  0  0  0  0  0  0  0  0
   50.1293    9.5883   21.5356 O   0  0  0  0  0  0  0  0  0  0  0  0
   49.3686    7.2670   17.0399 O   0  0  0  0  0  0  0  0  0  0  0  0
   47.5161    6.8622   18.2253 O   0  0  0  0  0  0  0  0  0  0  0  0
   48.1550    9.1180   22.4872 O   0  0  0  0  0  0  0  0  0  0  0  0
   48.5345    7.6601   18.1212 C   0  0  0  0  0  0  0  0  0  0  0  0
   48.5580    9.0745   21.6424 C   0  0  0  0  0  0  0  0  0  0  0  0
   48.8620    7.8262   19.5391 C   0  0  0  0  0  0  0  0  0  0  0  0
   48.2872    8.8238   20.2246 C   0  0  0  0  0  0  0  0  0  0  0  0
   47.7741    8.3315   17.4523 O   0  0  0  0  0  0  0  0  0  0  0  0
   48.0532    9.9738   22.2887 O   0  0  0  0  0  0  0  0  0  0  0  0
   49.4193    8.2061   22.1944 O   0  0  0  0  0  0  0  0  0  0  0  0
   49.2145    6.6225   17.6096 O   0  0  0  0  0  0  0  0  0  0  0  0
   48.0538    9.4013   18.8027 H   0  0  0  0  0  0  0  0  0  0  0  0
   49.1153    7.2233   20.7477 H   0  0  0  0  0  0  0  0  0  0  0  0
   48.5432    9.4801   23.2415 H   0  0  0  0  0  0  0  0  0  0  0  0
   49.3788    5.8351   17.6101 H   0  0  0  0  0  0  0  0  0  0  0  0
   48.9091    2.9562   18.5652 H   0  0  0  0  0  0  0  0  0  0  0  0
   50.8118    4.0969   19.7108 H   0  0  0  0  0  0  0  0  0  0  0  0
   46.9032    6.7630   18.4739 H   0  0  0  0  0  0  0  0  0  0  0  0
   46.9165    4.3302   17.9094 H   0  0  0  0  0  0  0  0  0  0  0  0
   49.9308    9.7941   19.2765 H   0  0  0  0  0  0  0  0  0  0  0  0
   50.7984    8.2983   19.0265 H   0  0  0  0  0  0  0  0  0  0  0  0
   48.5701    7.4196   21.7287 H   0  0  0  0  0  0  0  0  0  0  0  0
   50.0934    8.2629   21.4049 H   0  0  0  0  0  0  0  0  0  0  0  0
   47.2756    9.5060   21.4990 H   0  0  0  0  0  0  0  0  0  0  0  0
   48.7272   10.3864   21.0517 H   0  0  0  0  0  0  0  0  0  0  0  0
   48.3311   11.5228   24.4253 H   0  0  0  0  0  0  0  0  0  0  0  0
   47.0015   11.2786   23.2757 H   0  0  0  0  0  0  0  0  0  0  0  0
   48.5394   11.9959   22.7487 H   0  0  0  0  0  0  0  0  0  0  0  0
   48.2629    9.2108   25.0581 H   0  0  0  0  0  0  0  0  0  0  0  0
   48.5692    7.9466   23.8968 H   0  0  0  0  0  0  0  0  0  0  0  0
   46.9998    8.7785   23.8907 H   0  0  0  0  0  0  0  0  0  0  0  0
   47.4137    9.6241   17.4738 H   0  0  0  0  0  0  0  0  0  0  0  0
   47.4994    9.6799   14.8115 H   0  0  0  0  0  0  0  0  0  0  0  0
   49.8609    8.8968   13.9445 H   0  0  0  0  0  0  0  0  0  0  0  0
   47.4661   10.5702   19.6495 H   0  0  0  0  0  0  0  0  0  0  0  0
   47.2284   10.3415   21.3331 H   0  0  0  0  0  0  0  0  0  0  0  0
   52.4762   11.8422   20.1327 H   0  0  0  0  0  0  0  0  0  0  0  0
   49.4652   10.3527   22.9076 H   0  0  0  0  0  0  0  0  0  0  0  0
   46.7056    7.3942   18.8427 H   0  0  0  0  0  0  0  0  0  0  0  0
   47.1795    8.9659   18.2692 H   0  0  0  0  0  0  0  0  0  0  0  0
   51.9116   11.3543   22.6624 H   0  0  0  0  0  0  0  0  0  0  0  0
   49.5713    8.3218   18.1597 H   0  0  0  0  0  0  0  0  0  0  0  0
   49.2351    6.8090   18.9749 H   0  0  0  0  0  0  0  0  0  0  0  0
   47.4351    5.8730   20.2540 H   0  0  0  0  0  0  0  0  0  0  0  0
   47.5966    7.9799   24.6370 H   0  0  0  0  0  0  0  0  0  0  0  0
   49.0041    8.5836   15.7918 H   0  0  0  0  0  0  0  0  0  0  0  0
   48.1040    7.2937   14.9603 H   0  0  0  0  0  0  0  0  0  0  0  0
   47.2896    8.3051   16.1342 H   0  0  0  0  0  0  0  0  0  0  0  0
   50.0545    5.3783   17.3432 H   0  0  0  0  0  0  0  0  0  0  0  0
   49.6408    5.5778   15.6499 H   0  0  0  0  0  0  0  0  0  0  0  0
   50.6688    6.7883   16.4604 H   0  0  0  0  0  0  0  0  0  0  0  0
   47.2475    4.4615   22.2370 H   0  0  0  0  0  0  0  0  0  0  0  0
   47.3202    5.5009   24.5172 H   0  0  0  0  0  0  0  0  0  0  0  0
   47.4923    7.8769   20.4824 H   0  0  0  0  0  0  0  0  0  0  0  0
   50.1940    8.5801   19.1362 H   0  0  0  0  0  0  0  0  0  0  0  0
   47.3457    6.4209   17.3675 H   0  0  0  0  0  0  0  0  0  0  0  0
   48.6123    9.6389   23.1831 H   0  0  0  0  0  0  0  0  0  0  0  0
   49.5670    7.1253   19.9721 H   0  0  0  0  0  0  0  0  0  0  0  0
   47.5840    9.5108   19.7636 H   0  0  0  0  0  0  0  0  0  0  0  0
   49.4793    8.5090   23.1246 H   0  0  0  0  0  0  0  0  0  0  0  0
   48.9381    6.5902   16.6698 H   0  0  0  0  0  0  0  0  0  0  0  0
  2  4  1  0
  3  1  1  0
  4  3  2  0
  5  1  2  0
  6  2  2  0
  7  2  1  0
  8  1  1  0
 15 17  1  0
 12 15  1  0
 17 18  1  0
 11 12  1  0
 18 19  1  0
 15 16  1  0
 19 20  1  0
 19 21  1  0
 16 22  1  0
 23 24  1  0
 12 13  2  0
 10 11  2  0
 13 14  1  0
 22 23  2  0
 24 25  2  0
 25 26  1  0
 26 22  1  0
 14  9  2  0
  9 10  1  0
 28 27  1  0
 29 31  1  0
 30 29  1  0
 31 27  1  0
 32 28  2  0
 33 30  1  0
 34 29  2  0
 35 27  1  0
 36 34  1  0
 37 38  1  0
 38 35  1  0
 39 28  1  0
 40 32  1  0
 41 37  1  0
 42 37  1  0
 43 39  2  0
 44 40  2  0
 36 33  2  0
 43 44  1  0
 46 48  1  0
 47 45  1  0
 48 47  2  0
 49 45  2  0
 50 46  2  0
 51 46  1  0
 52 45  1  0
 54 56  1  0
 55 53  1  0
 56 55  2  0
 57 53  2  0
 58 54  2  0
 59 54  1  0
 60 53  1  0
  3 61  1  0
  4 62  1  0
  7 63  1  0
  8 64  1  0
  9 65  1  0
 10 66  1  0
 13 67  1  0
 14 68  1  0
 16 69  1  0
 16 70  1  0
 17 71  1  0
 17 72  1  0
 18 73  1  0
 18 74  1  0
 20 75  1  0
 20 76  1  0
 20 77  1  0
 21 78  1  0
 21 79  1  0
 21 80  1  0
 23 81  1  0
 24 82  1  0
 25 83  1  0
 31 84  1  0
 31 85  1  0
 33 86  1  0
 34 87  1  0
 35 88  1  0
 35 89  1  0
 36 90  1  0
 38 91  1  0
 38 92  1  0
 39 93  1  0
 40 94  1  0
 41 95  1  0
 41 96  1  0
 41 97  1  0
 42 98  1  0
 42 99  1  0
 42100  1  0
 43101  1  0
 44102  1  0
 47103  1  0
 48104  1  0
 51105  1  0
 52106  1  0
 55107  1  0
 56108  1  0
 59109  1  0
 60110  1  0
M  END
> <Uni-Dock RESULT> 
ENERGY=   -4.568  LOWER_BOUND=    1.964  UPPER_BOUND=    3.744
INTER + INTRA:          -4.568
INTER:                  -4.568
INTRA:                   0.000
UNBOUND:                 0.000

$$$$
