
     RDKit          3D

110109  0  0  0  0  0  0  0  0999 V2000
   48.7933    8.8774   18.2665 C   0  0  0  0  0  0  0  0  0  0  0  0
   47.8209    5.8080   20.2743 C   0  0  0  0  0  0  0  0  0  0  0  0
   48.0254    7.9860   19.1375 C   0  0  0  0  0  0  0  0  0  0  0  0
   48.5147    6.7704   19.4153 C   0  0  0  0  0  0  0  0  0  0  0  0
   49.8628    8.6482   17.7366 O   0  0  0  0  0  0  0  0  0  0  0  0
   48.2402    4.6972   20.5432 O   0  0  0  0  0  0  0  0  0  0  0  0
   46.6543    6.2566   20.7604 O   0  0  0  0  0  0  0  0  0  0  0  0
   48.1451   10.0410   18.1092 O   0  0  0  0  0  0  0  0  0  0  0  0
   48.6907    8.4147   23.8591 C   0  0  0  0  0  0  0  0  0  0  0  0
   49.5467    7.5534   23.2017 C   0  0  0  0  0  0  0  0  0  0  0  0
   49.3023    7.0319   21.9780 N   0  0  0  0  0  0  0  0  0  0  0  0
   48.1584    7.3757   21.3471 C   0  0  0  0  0  0  0  0  0  0  0  0
   47.2380    8.2290   21.9616 C   0  0  0  0  0  0  0  0  0  0  0  0
   47.5079    8.7555   23.2247 C   0  0  0  0  0  0  0  0  0  0  0  0
   47.8888    6.8551   20.0682 N   0  0  0  0  0  0  0  0  0  0  0  0
   48.7698    5.7253   19.7082 C   0  0  0  0  0  0  0  0  0  0  0  0
   47.6870    7.8865   19.0251 C   0  0  0  0  0  0  0  0  0  0  0  0
   48.9479    8.7448   18.7367 C   0  0  0  0  0  0  0  0  0  0  0  0
   48.8587    9.7387   17.6471 N   0  0  0  0  0  0  0  0  0  0  0  0
   47.8333   10.7481   17.8876 C   0  0  0  0  0  0  0  0  0  0  0  0
   48.6923    9.1170   16.3356 C   0  0  0  0  0  0  0  0  0  0  0  0
   48.3140    4.9333   18.5047 C   0  0  0  0  0  0  0  0  0  0  0  0
   47.1378    4.2240   18.3527 C   0  0  0  0  0  0  0  0  0  0  0  0
   47.0421    3.5993   17.0773 C   0  0  0  0  0  0  0  0  0  0  0  0
   48.1456    3.8552   16.2943 C   0  0  0  0  0  0  0  0  0  0  0  0
   49.2933    4.8321   17.1016 S   0  0  0  0  0  0  0  0  0  0  0  0
   48.1943    7.0112   20.3093 N   0  0  0  0  0  0  0  0  0  0  0  0
   47.9086    7.4034   21.6324 C   0  0  0  0  0  0  0  0  0  0  0  0
   48.5308    5.0165   18.8210 C   0  0  0  0  0  0  0  0  0  0  0  0
   49.9441    4.6270   17.9347 S   0  0  0  0  0  0  0  0  0  0  0  0
   48.6217    5.6020   20.2119 C   0  0  0  0  0  0  0  0  0  0  0  0
   48.2173    6.5811   22.6594 N   0  0  0  0  0  0  0  0  0  0  0  0
   49.0311    4.0730   16.5996 C   0  0  0  0  0  0  0  0  0  0  0  0
   47.3863    4.7148   18.1063 C   0  0  0  0  0  0  0  0  0  0  0  0
   49.0449    7.9808   19.5834 C   0  0  0  0  0  0  0  0  0  0  0  0
   47.6763    4.1701   16.8226 C   0  0  0  0  0  0  0  0  0  0  0  0
   49.0567    9.5281   17.5672 N   0  0  0  0  0  0  0  0  0  0  0  0
   48.3303    8.4683   18.3021 C   0  0  0  0  0  0  0  0  0  0  0  0
   47.2686    8.6234   21.8709 C   0  0  0  0  0  0  0  0  0  0  0  0
   47.9141    6.9757   23.9171 C   0  0  0  0  0  0  0  0  0  0  0  0
   50.3005    9.0193   16.9837 C   0  0  0  0  0  0  0  0  0  0  0  0
   48.2010   10.0628   16.5043 C   0  0  0  0  0  0  0  0  0  0  0  0
   46.9658    9.0138   23.1747 C   0  0  0  0  0  0  0  0  0  0  0  0
   47.2968    8.1723   24.2250 C   0  0  0  0  0  0  0  0  0  0  0  0
   49.1777    8.9119   18.6837 C   0  0  0  0  0  0  0  0  0  0  0  0
   47.0921    5.8699   19.5776 C   0  0  0  0  0  0  0  0  0  0  0  0
   48.5672    7.8431   19.4757 C   0  0  0  0  0  0  0  0  0  0  0  0
   47.7481    6.9728   18.8709 C   0  0  0  0  0  0  0  0  0  0  0  0
   49.0286    9.1264   17.4970 O   0  0  0  0  0  0  0  0  0  0  0  0
   46.3440    5.0645   19.0547 O   0  0  0  0  0  0  0  0  0  0  0  0
   47.3880    5.8110   20.8846 O   0  0  0  0  0  0  0  0  0  0  0  0
   49.9621    9.6736   19.4604 O   0  0  0  0  0  0  0  0  0  0  0  0
   47.8639    5.8306   20.1335 C   0  0  0  0  0  0  0  0  0  0  0  0
   48.3988    9.1636   18.4652 C   0  0  0  0  0  0  0  0  0  0  0  0
   48.3513    6.8688   19.2246 C   0  0  0  0  0  0  0  0  0  0  0  0
   47.9103    8.1243   19.3731 C   0  0  0  0  0  0  0  0  0  0  0  0
   47.0730    5.9648   21.0467 O   0  0  0  0  0  0  0  0  0  0  0  0
   49.1884    9.0307   17.5505 O   0  0  0  0  0  0  0  0  0  0  0  0
   47.8445   10.3461   18.7710 O   0  0  0  0  0  0  0  0  0  0  0  0
   48.4174    4.6484   19.8263 O   0  0  0  0  0  0  0  0  0  0  0  0
   47.0827    8.3520   19.5257 H   0  0  0  0  0  0  0  0  0  0  0  0
   49.4622    6.4237   19.0143 H   0  0  0  0  0  0  0  0  0  0  0  0
   46.3246    5.5093   21.3023 H   0  0  0  0  0  0  0  0  0  0  0  0
   48.7305   10.5633   17.5213 H   0  0  0  0  0  0  0  0  0  0  0  0
   48.9383    8.8025   24.8407 H   0  0  0  0  0  0  0  0  0  0  0  0
   50.4853    7.2465   23.6511 H   0  0  0  0  0  0  0  0  0  0  0  0
   46.2996    8.4690   21.4752 H   0  0  0  0  0  0  0  0  0  0  0  0
   46.7962    9.4185   23.7060 H   0  0  0  0  0  0  0  0  0  0  0  0
   49.8021    6.0711   19.5659 H   0  0  0  0  0  0  0  0  0  0  0  0
   48.7959    5.0038   20.5381 H   0  0  0  0  0  0  0  0  0  0  0  0
   46.8485    8.5346   19.3031 H   0  0  0  0  0  0  0  0  0  0  0  0
   47.3600    7.3928   18.1037 H   0  0  0  0  0  0  0  0  0  0  0  0
   49.2369    9.2791   19.6508 H   0  0  0  0  0  0  0  0  0  0  0  0
   49.7978    8.0869   18.5192 H   0  0  0  0  0  0  0  0  0  0  0  0
   46.8192   10.3389   17.8431 H   0  0  0  0  0  0  0  0  0  0  0  0
   47.9756   11.2220   18.8653 H   0  0  0  0  0  0  0  0  0  0  0  0
   47.9046   11.5475   17.1421 H   0  0  0  0  0  0  0  0  0  0  0  0
   48.7811    9.8703   15.5448 H   0  0  0  0  0  0  0  0  0  0  0  0
   49.4819    8.3798   16.1522 H   0  0  0  0  0  0  0  0  0  0  0  0
   47.7216    8.6234   16.2234 H   0  0  0  0  0  0  0  0  0  0  0  0
   46.3817    4.1663   19.1278 H   0  0  0  0  0  0  0  0  0  0  0  0
   46.2037    2.9981   16.7486 H   0  0  0  0  0  0  0  0  0  0  0  0
   48.3372    3.5121   15.2874 H   0  0  0  0  0  0  0  0  0  0  0  0
   47.9712    4.9670   20.8312 H   0  0  0  0  0  0  0  0  0  0  0  0
   49.6406    5.4916   20.6094 H   0  0  0  0  0  0  0  0  0  0  0  0
   49.5319    3.6989   15.7170 H   0  0  0  0  0  0  0  0  0  0  0  0
   46.3886    4.8860   18.4943 H   0  0  0  0  0  0  0  0  0  0  0  0
   50.0041    7.5149   19.3321 H   0  0  0  0  0  0  0  0  0  0  0  0
   49.3040    8.8521   20.1998 H   0  0  0  0  0  0  0  0  0  0  0  0
   46.9276    3.8658   16.1014 H   0  0  0  0  0  0  0  0  0  0  0  0
   48.1229    7.6217   17.6370 H   0  0  0  0  0  0  0  0  0  0  0  0
   47.3523    8.8623   18.6083 H   0  0  0  0  0  0  0  0  0  0  0  0
   46.9910    9.2680   21.0449 H   0  0  0  0  0  0  0  0  0  0  0  0
   48.1911    6.2736   24.6979 H   0  0  0  0  0  0  0  0  0  0  0  0
   50.1283    8.1641   16.3215 H   0  0  0  0  0  0  0  0  0  0  0  0
   50.8033    9.8040   16.4079 H   0  0  0  0  0  0  0  0  0  0  0  0
   51.0081    8.7202   17.7617 H   0  0  0  0  0  0  0  0  0  0  0  0
   48.7083   10.8770   15.9746 H   0  0  0  0  0  0  0  0  0  0  0  0
   47.9192    9.2963   15.7738 H   0  0  0  0  0  0  0  0  0  0  0  0
   47.2847   10.4908   16.9250 H   0  0  0  0  0  0  0  0  0  0  0  0
   46.4717    9.9625   23.3604 H   0  0  0  0  0  0  0  0  0  0  0  0
   47.0773    8.4397   25.2519 H   0  0  0  0  0  0  0  0  0  0  0  0
   48.8086    7.7982   20.5304 H   0  0  0  0  0  0  0  0  0  0  0  0
   47.5189    7.0366   17.8117 H   0  0  0  0  0  0  0  0  0  0  0  0
   46.8790    5.0365   21.2042 H   0  0  0  0  0  0  0  0  0  0  0  0
   50.3145   10.3536   18.8491 H   0  0  0  0  0  0  0  0  0  0  0  0
   49.0592    6.5796   18.4568 H   0  0  0  0  0  0  0  0  0  0  0  0
   47.2018    8.4142   20.1405 H   0  0  0  0  0  0  0  0  0  0  0  0
   48.2274   10.9678   18.1171 H   0  0  0  0  0  0  0  0  0  0  0  0
   48.0318    4.0274   20.4792 H   0  0  0  0  0  0  0  0  0  0  0  0
  2  4  1  0
  3  1  1  0
  4  3  2  0
  5  1  2  0
  6  2  2  0
  7  2  1  0
  8  1  1  0
 15 17  1  0
 12 15  1  0
 17 18  1  0
 11 12  1  0
 18 19  1  0
 15 16  1  0
 19 20  1  0
 19 21  1  0
 16 22  1  0
 23 24  1  0
 12 13  2  0
 10 11  2  0
 13 14  1  0
 22 23  2  0
 24 25  2  0
 25 26  1  0
 26 22  1  0
 14  9  2  0
  9 10  1  0
 28 27  1  0
 29 31  1  0
 30 29  1  0
 31 27  1  0
 32 28  2  0
 33 30  1  0
 34 29  2  0
 35 27  1  0
 36 34  1  0
 37 38  1  0
 38 35  1  0
 39 28  1  0
 40 32  1  0
 41 37  1  0
 42 37  1  0
 43 39  2  0
 44 40  2  0
 36 33  2  0
 43 44  1  0
 46 48  1  0
 47 45  1  0
 48 47  2  0
 49 45  2  0
 50 46  2  0
 51 46  1  0
 52 45  1  0
 54 56  1  0
 55 53  1  0
 56 55  2  0
 57 53  2  0
 58 54  2  0
 59 54  1  0
 60 53  1  0
  3 61  1  0
  4 62  1  0
  7 63  1  0
  8 64  1  0
  9 65  1  0
 10 66  1  0
 13 67  1  0
 14 68  1  0
 16 69  1  0
 16 70  1  0
 17 71  1  0
 17 72  1  0
 18 73  1  0
 18 74  1  0
 20 75  1  0
 20 76  1  0
 20 77  1  0
 21 78  1  0
 21 79  1  0
 21 80  1  0
 23 81  1  0
 24 82  1  0
 25 83  1  0
 31 84  1  0
 31 85  1  0
 33 86  1  0
 34 87  1  0
 35 88  1  0
 35 89  1  0
 36 90  1  0
 38 91  1  0
 38 92  1  0
 39 93  1  0
 40 94  1  0
 41 95  1  0
 41 96  1  0
 41 97  1  0
 42 98  1  0
 42 99  1  0
 42100  1  0
 43101  1  0
 44102  1  0
 47103  1  0
 48104  1  0
 51105  1  0
 52106  1  0
 55107  1  0
 56108  1  0
 59109  1  0
 60110  1  0
M  END
> <Uni-Dock RESULT> 
ENERGY=   -7.263  LOWER_BOUND=    0.000  UPPER_BOUND=    0.000
INTER + INTRA:          -7.263
INTER:                  -7.263
INTRA:                   0.000
UNBOUND:                 0.000

$$$$

     RDKit          3D

110109  0  0  0  0  0  0  0  0999 V2000
   49.7648    7.8627   16.6186 C   0  0  0  0  0  0  0  0  0  0  0  0
   47.9276    5.9434   19.3278 C   0  0  0  0  0  0  0  0  0  0  0  0
   48.6942    7.4349   17.5206 C   0  0  0  0  0  0  0  0  0  0  0  0
   48.9337    6.4419   18.3871 C   0  0  0  0  0  0  0  0  0  0  0  0
   50.8919    7.4134   16.5478 O   0  0  0  0  0  0  0  0  0  0  0  0
   48.1161    5.0430   20.1250 O   0  0  0  0  0  0  0  0  0  0  0  0
   46.7473    6.5749   19.2454 O   0  0  0  0  0  0  0  0  0  0  0  0
   49.3361    8.8621   15.8336 O   0  0  0  0  0  0  0  0  0  0  0  0
   48.2228    9.8040   21.6540 C   0  0  0  0  0  0  0  0  0  0  0  0
   49.0925    8.7316   21.6654 C   0  0  0  0  0  0  0  0  0  0  0  0
   49.0910    7.7468   20.7384 N   0  0  0  0  0  0  0  0  0  0  0  0
   48.1947    7.8115   19.7300 C   0  0  0  0  0  0  0  0  0  0  0  0
   47.2728    8.8597   19.6663 C   0  0  0  0  0  0  0  0  0  0  0  0
   47.2895    9.8653   20.6328 C   0  0  0  0  0  0  0  0  0  0  0  0
   48.1828    6.8046   18.7475 N   0  0  0  0  0  0  0  0  0  0  0  0
   48.9674    5.6138   19.1329 C   0  0  0  0  0  0  0  0  0  0  0  0
   48.3839    7.3030   17.3676 C   0  0  0  0  0  0  0  0  0  0  0  0
   49.7794    7.9382   17.1252 C   0  0  0  0  0  0  0  0  0  0  0  0
   50.0951    8.3811   15.7515 N   0  0  0  0  0  0  0  0  0  0  0  0
   49.1855    9.4148   15.2696 C   0  0  0  0  0  0  0  0  0  0  0  0
   50.1769    7.2670   14.8100 C   0  0  0  0  0  0  0  0  0  0  0  0
   48.7221    4.3958   18.2727 C   0  0  0  0  0  0  0  0  0  0  0  0
   47.5365    3.7085   18.0950 C   0  0  0  0  0  0  0  0  0  0  0  0
   47.6769    2.6058   17.2059 C   0  0  0  0  0  0  0  0  0  0  0  0
   48.9636    2.4889   16.7294 C   0  0  0  0  0  0  0  0  0  0  0  0
   49.9954    3.6957   17.3635 S   0  0  0  0  0  0  0  0  0  0  0  0
   48.4372    7.0427   18.9808 N   0  0  0  0  0  0  0  0  0  0  0  0
   47.8881    7.9611   19.8978 C   0  0  0  0  0  0  0  0  0  0  0  0
   48.8630    4.6010   18.5761 C   0  0  0  0  0  0  0  0  0  0  0  0
   50.3870    3.8502   18.3547 S   0  0  0  0  0  0  0  0  0  0  0  0
   48.6844    5.7170   19.5802 C   0  0  0  0  0  0  0  0  0  0  0  0
   47.8214    7.6438   21.2097 N   0  0  0  0  0  0  0  0  0  0  0  0
   49.7670    2.8002   17.1564 C   0  0  0  0  0  0  0  0  0  0  0  0
   47.9011    4.0453   17.7530 C   0  0  0  0  0  0  0  0  0  0  0  0
   49.5618    7.6011   18.1972 C   0  0  0  0  0  0  0  0  0  0  0  0
   48.4243    3.0051   16.9327 C   0  0  0  0  0  0  0  0  0  0  0  0
   50.2769    8.1531   15.8216 N   0  0  0  0  0  0  0  0  0  0  0  0
   49.2573    7.5146   16.6840 C   0  0  0  0  0  0  0  0  0  0  0  0
   47.3769    9.1786   19.4377 C   0  0  0  0  0  0  0  0  0  0  0  0
   47.2720    8.5372   22.0638 C   0  0  0  0  0  0  0  0  0  0  0  0
   51.5473    7.4248   15.8649 C   0  0  0  0  0  0  0  0  0  0  0  0
   49.7893    8.2039   14.4405 C   0  0  0  0  0  0  0  0  0  0  0  0
   46.8159   10.0875   20.3338 C   0  0  0  0  0  0  0  0  0  0  0  0
   46.7623    9.7621   21.6800 C   0  0  0  0  0  0  0  0  0  0  0  0
   50.0353    8.0634   17.0765 C   0  0  0  0  0  0  0  0  0  0  0  0
   47.4085    5.7180   18.4912 C   0  0  0  0  0  0  0  0  0  0  0  0
   49.1116    7.4389   18.0247 C   0  0  0  0  0  0  0  0  0  0  0  0
   48.3593    6.4086   17.6164 C   0  0  0  0  0  0  0  0  0  0  0  0
   50.2139    7.7598   15.9135 O   0  0  0  0  0  0  0  0  0  0  0  0
   46.7127    4.7799   18.1483 O   0  0  0  0  0  0  0  0  0  0  0  0
   47.3617    6.2110   19.7377 O   0  0  0  0  0  0  0  0  0  0  0  0
   50.6974    9.0684   17.6684 O   0  0  0  0  0  0  0  0  0  0  0  0
   48.0067    5.9039   19.2080 C   0  0  0  0  0  0  0  0  0  0  0  0
   49.3751    8.2126   16.5668 C   0  0  0  0  0  0  0  0  0  0  0  0
   48.8370    6.4534   18.1356 C   0  0  0  0  0  0  0  0  0  0  0  0
   48.5438    7.6616   17.6385 C   0  0  0  0  0  0  0  0  0  0  0  0
   47.0397    6.4240   19.7293 O   0  0  0  0  0  0  0  0  0  0  0  0
   50.3414    7.6929   16.0433 O   0  0  0  0  0  0  0  0  0  0  0  0
   48.9246    9.4228   16.2045 O   0  0  0  0  0  0  0  0  0  0  0  0
   48.4568    4.6932   19.5687 O   0  0  0  0  0  0  0  0  0  0  0  0
   47.7420    7.9463   17.4486 H   0  0  0  0  0  0  0  0  0  0  0  0
   49.8962    5.9426   18.4416 H   0  0  0  0  0  0  0  0  0  0  0  0
   46.1977    6.1316   19.9253 H   0  0  0  0  0  0  0  0  0  0  0  0
   50.1126    9.0777   15.2754 H   0  0  0  0  0  0  0  0  0  0  0  0
   48.2694   10.5655   22.4243 H   0  0  0  0  0  0  0  0  0  0  0  0
   49.8416    8.6271   22.4433 H   0  0  0  0  0  0  0  0  0  0  0  0
   46.5241    8.8880   18.8830 H   0  0  0  0  0  0  0  0  0  0  0  0
   46.5756   10.6814   20.5876 H   0  0  0  0  0  0  0  0  0  0  0  0
   50.0393    5.8499   19.1593 H   0  0  0  0  0  0  0  0  0  0  0  0
   48.6915    5.3094   20.1533 H   0  0  0  0  0  0  0  0  0  0  0  0
   47.5964    8.0219   17.1157 H   0  0  0  0  0  0  0  0  0  0  0  0
   48.2322    6.4723   16.6702 H   0  0  0  0  0  0  0  0  0  0  0  0
   49.9019    8.8033   17.7895 H   0  0  0  0  0  0  0  0  0  0  0  0
   50.5615    7.2357   17.4372 H   0  0  0  0  0  0  0  0  0  0  0  0
   48.1688    9.0422   15.1107 H   0  0  0  0  0  0  0  0  0  0  0  0
   49.1434   10.2544   15.9724 H   0  0  0  0  0  0  0  0  0  0  0  0
   49.5443    9.8238   14.3189 H   0  0  0  0  0  0  0  0  0  0  0  0
   50.5576    7.6149   13.8431 H   0  0  0  0  0  0  0  0  0  0  0  0
   50.8823    6.5081   15.1665 H   0  0  0  0  0  0  0  0  0  0  0  0
   49.2074    6.7886   14.6381 H   0  0  0  0  0  0  0  0  0  0  0  0
   46.6115    3.9958   18.5825 H   0  0  0  0  0  0  0  0  0  0  0  0
   46.8735    1.9363   16.9253 H   0  0  0  0  0  0  0  0  0  0  0  0
   49.3507    1.7499   16.0422 H   0  0  0  0  0  0  0  0  0  0  0  0
   47.8226    5.4135   20.1927 H   0  0  0  0  0  0  0  0  0  0  0  0
   49.5494    5.7674   20.2565 H   0  0  0  0  0  0  0  0  0  0  0  0
   50.4160    2.0804   16.6766 H   0  0  0  0  0  0  0  0  0  0  0  0
   46.8703    4.3810   17.7434 H   0  0  0  0  0  0  0  0  0  0  0  0
   50.4827    7.0566   18.4333 H   0  0  0  0  0  0  0  0  0  0  0  0
   49.7739    8.6467   18.4583 H   0  0  0  0  0  0  0  0  0  0  0  0
   47.8435    2.4376   16.2158 H   0  0  0  0  0  0  0  0  0  0  0  0
   49.1102    6.4701   16.3850 H   0  0  0  0  0  0  0  0  0  0  0  0
   48.2952    8.0174   16.5193 H   0  0  0  0  0  0  0  0  0  0  0  0
   47.4002    9.4190   18.3811 H   0  0  0  0  0  0  0  0  0  0  0  0
   47.2517    8.2253   23.1039 H   0  0  0  0  0  0  0  0  0  0  0  0
   51.4321    6.3730   15.5816 H   0  0  0  0  0  0  0  0  0  0  0  0
   52.2765    7.8848   15.1889 H   0  0  0  0  0  0  0  0  0  0  0  0
   51.9945    7.4699   16.8616 H   0  0  0  0  0  0  0  0  0  0  0  0
   50.5152    8.7100   13.7942 H   0  0  0  0  0  0  0  0  0  0  0  0
   49.5975    7.2057   14.0315 H   0  0  0  0  0  0  0  0  0  0  0  0
   48.8627    8.7848   14.3794 H   0  0  0  0  0  0  0  0  0  0  0  0
   46.4217   11.0341   19.9773 H   0  0  0  0  0  0  0  0  0  0  0  0
   46.3333   10.4415   22.4072 H   0  0  0  0  0  0  0  0  0  0  0  0
   49.0767    7.8391   19.0302 H   0  0  0  0  0  0  0  0  0  0  0  0
   48.4095    6.0236   16.6027 H   0  0  0  0  0  0  0  0  0  0  0  0
   46.6913    5.6522   20.1844 H   0  0  0  0  0  0  0  0  0  0  0  0
   51.2770    9.4211   16.9613 H   0  0  0  0  0  0  0  0  0  0  0  0
   49.6679    5.8554   17.7799 H   0  0  0  0  0  0  0  0  0  0  0  0
   47.7127    8.2600   17.9934 H   0  0  0  0  0  0  0  0  0  0  0  0
   49.5363    9.7041   15.4922 H   0  0  0  0  0  0  0  0  0  0  0  0
   47.8429    4.4122   20.2791 H   0  0  0  0  0  0  0  0  0  0  0  0
  2  4  1  0
  3  1  1  0
  4  3  2  0
  5  1  2  0
  6  2  2  0
  7  2  1  0
  8  1  1  0
 15 17  1  0
 12 15  1  0
 17 18  1  0
 11 12  1  0
 18 19  1  0
 15 16  1  0
 19 20  1  0
 19 21  1  0
 16 22  1  0
 23 24  1  0
 12 13  2  0
 10 11  2  0
 13 14  1  0
 22 23  2  0
 24 25  2  0
 25 26  1  0
 26 22  1  0
 14  9  2  0
  9 10  1  0
 28 27  1  0
 29 31  1  0
 30 29  1  0
 31 27  1  0
 32 28  2  0
 33 30  1  0
 34 29  2  0
 35 27  1  0
 36 34  1  0
 37 38  1  0
 38 35  1  0
 39 28  1  0
 40 32  1  0
 41 37  1  0
 42 37  1  0
 43 39  2  0
 44 40  2  0
 36 33  2  0
 43 44  1  0
 46 48  1  0
 47 45  1  0
 48 47  2  0
 49 45  2  0
 50 46  2  0
 51 46  1  0
 52 45  1  0
 54 56  1  0
 55 53  1  0
 56 55  2  0
 57 53  2  0
 58 54  2  0
 59 54  1  0
 60 53  1  0
  3 61  1  0
  4 62  1  0
  7 63  1  0
  8 64  1  0
  9 65  1  0
 10 66  1  0
 13 67  1  0
 14 68  1  0
 16 69  1  0
 16 70  1  0
 17 71  1  0
 17 72  1  0
 18 73  1  0
 18 74  1  0
 20 75  1  0
 20 76  1  0
 20 77  1  0
 21 78  1  0
 21 79  1  0
 21 80  1  0
 23 81  1  0
 24 82  1  0
 25 83  1  0
 31 84  1  0
 31 85  1  0
 33 86  1  0
 34 87  1  0
 35 88  1  0
 35 89  1  0
 36 90  1  0
 38 91  1  0
 38 92  1  0
 39 93  1  0
 40 94  1  0
 41 95  1  0
 41 96  1  0
 41 97  1  0
 42 98  1  0
 42 99  1  0
 42100  1  0
 43101  1  0
 44102  1  0
 47103  1  0
 48104  1  0
 51105  1  0
 52106  1  0
 55107  1  0
 56108  1  0
 59109  1  0
 60110  1  0
M  END
> <Uni-Dock RESULT> 
ENERGY=   -7.171  LOWER_BOUND=    1.403  UPPER_BOUND=    1.924
INTER + INTRA:          -7.171
INTER:                  -7.171
INTRA:                   0.000
UNBOUND:                 0.000

$$$$

     RDKit          3D

110109  0  0  0  0  0  0  0  0999 V2000
   49.1815    5.8324   21.1279 C   0  0  0  0  0  0  0  0  0  0  0  0
   51.3009    4.2888   18.3851 C   0  0  0  0  0  0  0  0  0  0  0  0
   50.1275    4.9428   20.4523 C   0  0  0  0  0  0  0  0  0  0  0  0
   50.3728    5.1264   19.1482 C   0  0  0  0  0  0  0  0  0  0  0  0
   48.5597    6.7551   20.6388 O   0  0  0  0  0  0  0  0  0  0  0  0
   51.5427    4.4311   17.2005 O   0  0  0  0  0  0  0  0  0  0  0  0
   51.8856    3.3251   19.1118 O   0  0  0  0  0  0  0  0  0  0  0  0
   49.0711    5.4935   22.4209 O   0  0  0  0  0  0  0  0  0  0  0  0
   54.7651    6.1174   20.6341 C   0  0  0  0  0  0  0  0  0  0  0  0
   54.0423    6.6608   19.5906 C   0  0  0  0  0  0  0  0  0  0  0  0
   52.8511    6.1817   19.1654 N   0  0  0  0  0  0  0  0  0  0  0  0
   52.3225    5.1127   19.7995 C   0  0  0  0  0  0  0  0  0  0  0  0
   53.0084    4.5014   20.8524 C   0  0  0  0  0  0  0  0  0  0  0  0
   54.2365    5.0098   21.2754 C   0  0  0  0  0  0  0  0  0  0  0  0
   51.0786    4.6045   19.3822 N   0  0  0  0  0  0  0  0  0  0  0  0
   50.6525    5.1298   18.0690 C   0  0  0  0  0  0  0  0  0  0  0  0
   50.0471    4.5815   20.4445 C   0  0  0  0  0  0  0  0  0  0  0  0
   49.6372    5.9894   20.9540 C   0  0  0  0  0  0  0  0  0  0  0  0
   48.5497    6.0610   21.9516 N   0  0  0  0  0  0  0  0  0  0  0  0
   48.8711    5.3551   23.1871 C   0  0  0  0  0  0  0  0  0  0  0  0
   47.2652    5.6233   21.4105 C   0  0  0  0  0  0  0  0  0  0  0  0
   49.5034    4.3796   17.4363 C   0  0  0  0  0  0  0  0  0  0  0  0
   49.4656    3.0519   17.0548 C   0  0  0  0  0  0  0  0  0  0  0  0
   48.2106    2.6847   16.4923 C   0  0  0  0  0  0  0  0  0  0  0  0
   47.3287    3.7420   16.4665 C   0  0  0  0  0  0  0  0  0  0  0  0
   48.0188    5.1698   17.1054 S   0  0  0  0  0  0  0  0  0  0  0  0
   51.2895    4.9602   19.4516 N   0  0  0  0  0  0  0  0  0  0  0  0
   52.6288    4.9050   19.8866 C   0  0  0  0  0  0  0  0  0  0  0  0
   49.7980    4.6380   17.4569 C   0  0  0  0  0  0  0  0  0  0  0  0
   48.7919    5.8183   16.7292 S   0  0  0  0  0  0  0  0  0  0  0  0
   51.1687    5.0009   17.9813 C   0  0  0  0  0  0  0  0  0  0  0  0
   53.6324    5.0832   18.9993 N   0  0  0  0  0  0  0  0  0  0  0  0
   47.5505    4.6775   16.4457 C   0  0  0  0  0  0  0  0  0  0  0  0
   49.1927    3.3949   17.4685 C   0  0  0  0  0  0  0  0  0  0  0  0
   50.4797    5.9626   20.1797 C   0  0  0  0  0  0  0  0  0  0  0  0
   47.8939    3.4187   16.8844 C   0  0  0  0  0  0  0  0  0  0  0  0
   48.4545    6.1902   21.6983 N   0  0  0  0  0  0  0  0  0  0  0  0
   49.2630    5.2850   20.8509 C   0  0  0  0  0  0  0  0  0  0  0  0
   52.9112    4.6239   21.2269 C   0  0  0  0  0  0  0  0  0  0  0  0
   54.9081    5.0058   19.4421 C   0  0  0  0  0  0  0  0  0  0  0  0
   47.7666    7.2039   20.8948 C   0  0  0  0  0  0  0  0  0  0  0  0
   47.4676    5.4086   22.4485 C   0  0  0  0  0  0  0  0  0  0  0  0
   54.2328    4.5500   21.6648 C   0  0  0  0  0  0  0  0  0  0  0  0
   55.2578    4.7468   20.7529 C   0  0  0  0  0  0  0  0  0  0  0  0
   49.5620    6.2487   21.0571 C   0  0  0  0  0  0  0  0  0  0  0  0
   50.6723    3.5408   18.6411 C   0  0  0  0  0  0  0  0  0  0  0  0
   50.4170    5.4578   20.1706 C   0  0  0  0  0  0  0  0  0  0  0  0
   49.8977    4.3918   19.5478 C   0  0  0  0  0  0  0  0  0  0  0  0
   48.3913    6.0536   21.3181 O   0  0  0  0  0  0  0  0  0  0  0  0
   50.2275    2.5670   18.0617 O   0  0  0  0  0  0  0  0  0  0  0  0
   51.9478    3.9278   18.4912 O   0  0  0  0  0  0  0  0  0  0  0  0
   50.2567    7.2689   21.5817 O   0  0  0  0  0  0  0  0  0  0  0  0
   51.1566    4.3233   18.3978 C   0  0  0  0  0  0  0  0  0  0  0  0
   49.4120    5.5442   21.5032 C   0  0  0  0  0  0  0  0  0  0  0  0
   50.1966    4.9772   19.2878 C   0  0  0  0  0  0  0  0  0  0  0  0
   50.3711    4.8888   20.6124 C   0  0  0  0  0  0  0  0  0  0  0  0
   52.1360    3.6788   18.7186 O   0  0  0  0  0  0  0  0  0  0  0  0
   48.4312    6.1876   21.1839 O   0  0  0  0  0  0  0  0  0  0  0  0
   49.7540    5.3420   22.7842 O   0  0  0  0  0  0  0  0  0  0  0  0
   50.8132    4.5246   17.1171 O   0  0  0  0  0  0  0  0  0  0  0  0
   50.5953    4.1646   21.0429 H   0  0  0  0  0  0  0  0  0  0  0  0
   49.8917    5.9130   18.5752 H   0  0  0  0  0  0  0  0  0  0  0  0
   52.4629    2.8646   18.4672 H   0  0  0  0  0  0  0  0  0  0  0  0
   48.4273    6.1380   22.7830 H   0  0  0  0  0  0  0  0  0  0  0  0
   55.7163    6.5436   20.9325 H   0  0  0  0  0  0  0  0  0  0  0  0
   54.4084    7.5256   19.0471 H   0  0  0  0  0  0  0  0  0  0  0  0
   52.6061    3.6163   21.3316 H   0  0  0  0  0  0  0  0  0  0  0  0
   54.7729    4.5385   22.0926 H   0  0  0  0  0  0  0  0  0  0  0  0
   50.4141    6.1992   18.1400 H   0  0  0  0  0  0  0  0  0  0  0  0
   51.4842    5.0442   17.3541 H   0  0  0  0  0  0  0  0  0  0  0  0
   50.3929    3.9661   21.2824 H   0  0  0  0  0  0  0  0  0  0  0  0
   49.1643    4.0573   20.0633 H   0  0  0  0  0  0  0  0  0  0  0  0
   50.5158    6.4869   21.3842 H   0  0  0  0  0  0  0  0  0  0  0  0
   49.3508    6.6187   20.1028 H   0  0  0  0  0  0  0  0  0  0  0  0
   48.9225    4.2702   23.0527 H   0  0  0  0  0  0  0  0  0  0  0  0
   49.8269    5.7016   23.5958 H   0  0  0  0  0  0  0  0  0  0  0  0
   48.1138    5.5620   23.9512 H   0  0  0  0  0  0  0  0  0  0  0  0
   46.4617    5.8311   22.1261 H   0  0  0  0  0  0  0  0  0  0  0  0
   47.0190    6.1773   20.4978 H   0  0  0  0  0  0  0  0  0  0  0  0
   47.2462    4.5523   21.1842 H   0  0  0  0  0  0  0  0  0  0  0  0
   50.3063    2.3792   17.1830 H   0  0  0  0  0  0  0  0  0  0  0  0
   47.9653    1.6940   16.1309 H   0  0  0  0  0  0  0  0  0  0  0  0
   46.3123    3.7478   16.0989 H   0  0  0  0  0  0  0  0  0  0  0  0
   51.8509    4.2675   17.5265 H   0  0  0  0  0  0  0  0  0  0  0  0
   51.4739    5.9886   17.6078 H   0  0  0  0  0  0  0  0  0  0  0  0
   46.6303    4.9839   15.9671 H   0  0  0  0  0  0  0  0  0  0  0  0
   49.6672    2.5138   17.8851 H   0  0  0  0  0  0  0  0  0  0  0  0
   50.1478    6.7434   19.4864 H   0  0  0  0  0  0  0  0  0  0  0  0
   51.0610    6.4911   20.9471 H   0  0  0  0  0  0  0  0  0  0  0  0
   47.2464    2.5553   16.7919 H   0  0  0  0  0  0  0  0  0  0  0  0
   48.6283    4.8082   20.0947 H   0  0  0  0  0  0  0  0  0  0  0  0
   49.6520    4.4726   21.4788 H   0  0  0  0  0  0  0  0  0  0  0  0
   52.1068    4.4481   21.9318 H   0  0  0  0  0  0  0  0  0  0  0  0
   55.6680    5.1622   18.6822 H   0  0  0  0  0  0  0  0  0  0  0  0
   47.1316    6.7590   20.1212 H   0  0  0  0  0  0  0  0  0  0  0  0
   47.1396    7.8375   21.5316 H   0  0  0  0  0  0  0  0  0  0  0  0
   48.4807    7.8779   20.4139 H   0  0  0  0  0  0  0  0  0  0  0  0
   46.8857    6.0583   23.1120 H   0  0  0  0  0  0  0  0  0  0  0  0
   46.7736    4.8749   21.7897 H   0  0  0  0  0  0  0  0  0  0  0  0
   47.9647    4.6746   23.0919 H   0  0  0  0  0  0  0  0  0  0  0  0
   54.4524    4.3349   22.7061 H   0  0  0  0  0  0  0  0  0  0  0  0
   56.2975    4.6965   21.0543 H   0  0  0  0  0  0  0  0  0  0  0  0
   51.4460    5.7734   20.0515 H   0  0  0  0  0  0  0  0  0  0  0  0
   48.8629    4.0925   19.6821 H   0  0  0  0  0  0  0  0  0  0  0  0
   52.3201    3.2678   17.8692 H   0  0  0  0  0  0  0  0  0  0  0  0
   49.6090    7.7277   22.1564 H   0  0  0  0  0  0  0  0  0  0  0  0
   49.3712    5.5152   18.8366 H   0  0  0  0  0  0  0  0  0  0  0  0
   51.1962    4.3504   21.0644 H   0  0  0  0  0  0  0  0  0  0  0  0
   49.0618    5.8114   23.2953 H   0  0  0  0  0  0  0  0  0  0  0  0
   51.5047    4.0527   16.6075 H   0  0  0  0  0  0  0  0  0  0  0  0
  2  4  1  0
  3  1  1  0
  4  3  2  0
  5  1  2  0
  6  2  2  0
  7  2  1  0
  8  1  1  0
 15 17  1  0
 12 15  1  0
 17 18  1  0
 11 12  1  0
 18 19  1  0
 15 16  1  0
 19 20  1  0
 19 21  1  0
 16 22  1  0
 23 24  1  0
 12 13  2  0
 10 11  2  0
 13 14  1  0
 22 23  2  0
 24 25  2  0
 25 26  1  0
 26 22  1  0
 14  9  2  0
  9 10  1  0
 28 27  1  0
 29 31  1  0
 30 29  1  0
 31 27  1  0
 32 28  2  0
 33 30  1  0
 34 29  2  0
 35 27  1  0
 36 34  1  0
 37 38  1  0
 38 35  1  0
 39 28  1  0
 40 32  1  0
 41 37  1  0
 42 37  1  0
 43 39  2  0
 44 40  2  0
 36 33  2  0
 43 44  1  0
 46 48  1  0
 47 45  1  0
 48 47  2  0
 49 45  2  0
 50 46  2  0
 51 46  1  0
 52 45  1  0
 54 56  1  0
 55 53  1  0
 56 55  2  0
 57 53  2  0
 58 54  2  0
 59 54  1  0
 60 53  1  0
  3 61  1  0
  4 62  1  0
  7 63  1  0
  8 64  1  0
  9 65  1  0
 10 66  1  0
 13 67  1  0
 14 68  1  0
 16 69  1  0
 16 70  1  0
 17 71  1  0
 17 72  1  0
 18 73  1  0
 18 74  1  0
 20 75  1  0
 20 76  1  0
 20 77  1  0
 21 78  1  0
 21 79  1  0
 21 80  1  0
 23 81  1  0
 24 82  1  0
 25 83  1  0
 31 84  1  0
 31 85  1  0
 33 86  1  0
 34 87  1  0
 35 88  1  0
 35 89  1  0
 36 90  1  0
 38 91  1  0
 38 92  1  0
 39 93  1  0
 40 94  1  0
 41 95  1  0
 41 96  1  0
 41 97  1  0
 42 98  1  0
 42 99  1  0
 42100  1  0
 43101  1  0
 44102  1  0
 47103  1  0
 48104  1  0
 51105  1  0
 52106  1  0
 55107  1  0
 56108  1  0
 59109  1  0
 60110  1  0
M  END
> <Uni-Dock RESULT> 
ENERGY=   -6.809  LOWER_BOUND=    3.076  UPPER_BOUND=    4.959
INTER + INTRA:          -6.809
INTER:                  -6.809
INTRA:                   0.000
UNBOUND:                 0.000

$$$$

     RDKit          3D

110109  0  0  0  0  0  0  0  0999 V2000
   48.1454    7.4474   22.4762 C   0  0  0  0  0  0  0  0  0  0  0  0
   48.2538    8.7114   18.9001 C   0  0  0  0  0  0  0  0  0  0  0  0
   48.5481    8.2158   21.2972 C   0  0  0  0  0  0  0  0  0  0  0  0
   47.9220    7.9947   20.1337 C   0  0  0  0  0  0  0  0  0  0  0  0
   47.2810    6.5954   22.5405 O   0  0  0  0  0  0  0  0  0  0  0  0
   47.7035    8.5312   17.8294 O   0  0  0  0  0  0  0  0  0  0  0  0
   49.2375    9.6117   19.0431 O   0  0  0  0  0  0  0  0  0  0  0  0
   48.8814    7.8095   23.5374 O   0  0  0  0  0  0  0  0  0  0  0  0
   46.4786   12.4826   20.6405 C   0  0  0  0  0  0  0  0  0  0  0  0
   45.8170   11.3981   20.0997 C   0  0  0  0  0  0  0  0  0  0  0  0
   46.3961   10.1983   19.8662 N   0  0  0  0  0  0  0  0  0  0  0  0
   47.6983   10.0374   20.1870 C   0  0  0  0  0  0  0  0  0  0  0  0
   48.4338   11.0985   20.7216 C   0  0  0  0  0  0  0  0  0  0  0  0
   47.8187   12.3286   20.9538 C   0  0  0  0  0  0  0  0  0  0  0  0
   48.3185    8.7943   19.9643 N   0  0  0  0  0  0  0  0  0  0  0  0
   47.5241    7.9011   19.0965 C   0  0  0  0  0  0  0  0  0  0  0  0
   48.8978    8.1804   21.1809 C   0  0  0  0  0  0  0  0  0  0  0  0
   47.8446    7.7986   22.2555 C   0  0  0  0  0  0  0  0  0  0  0  0
   48.3290    7.0998   23.4638 N   0  0  0  0  0  0  0  0  0  0  0  0
   49.2900    7.8906   24.2249 C   0  0  0  0  0  0  0  0  0  0  0  0
   48.8551    5.7696   23.1670 C   0  0  0  0  0  0  0  0  0  0  0  0
   48.2807    6.7043   18.5683 C   0  0  0  0  0  0  0  0  0  0  0  0
   49.3994    6.6992   17.7572 C   0  0  0  0  0  0  0  0  0  0  0  0
   49.8471    5.3814   17.4588 C   0  0  0  0  0  0  0  0  0  0  0  0
   49.0591    4.4223   18.0552 C   0  0  0  0  0  0  0  0  0  0  0  0
   47.7807    5.1115   18.9574 S   0  0  0  0  0  0  0  0  0  0  0  0
   47.9636    8.9730   20.0984 N   0  0  0  0  0  0  0  0  0  0  0  0
   47.8485   10.3775   20.1074 C   0  0  0  0  0  0  0  0  0  0  0  0
   47.9820    6.9567   18.6012 C   0  0  0  0  0  0  0  0  0  0  0  0
   46.8921    5.6358   18.6490 S   0  0  0  0  0  0  0  0  0  0  0  0
   47.5007    8.3710   18.8330 C   0  0  0  0  0  0  0  0  0  0  0  0
   47.1858   11.0047   19.1106 N   0  0  0  0  0  0  0  0  0  0  0  0
   48.1380    4.5134   18.3159 C   0  0  0  0  0  0  0  0  0  0  0  0
   49.2707    6.5394   18.3239 C   0  0  0  0  0  0  0  0  0  0  0  0
   47.4423    8.3362   21.3286 C   0  0  0  0  0  0  0  0  0  0  0  0
   49.3600    5.1274   18.1596 C   0  0  0  0  0  0  0  0  0  0  0  0
   48.1530    6.9120   23.3100 N   0  0  0  0  0  0  0  0  0  0  0  0
   48.5481    7.4969   22.0089 C   0  0  0  0  0  0  0  0  0  0  0  0
   48.4575   11.1164   21.1263 C   0  0  0  0  0  0  0  0  0  0  0  0
   47.1077   12.3548   19.1356 C   0  0  0  0  0  0  0  0  0  0  0  0
   47.1225    5.8839   23.1444 C   0  0  0  0  0  0  0  0  0  0  0  0
   49.3277    6.3262   23.9615 C   0  0  0  0  0  0  0  0  0  0  0  0
   48.3645   12.5075   21.1359 C   0  0  0  0  0  0  0  0  0  0  0  0
   47.6723   13.1444   20.1181 C   0  0  0  0  0  0  0  0  0  0  0  0
   47.6534    7.7316   22.4617 C   0  0  0  0  0  0  0  0  0  0  0  0
   49.1651    8.2946   19.0265 C   0  0  0  0  0  0  0  0  0  0  0  0
   47.9203    8.3338   21.1546 C   0  0  0  0  0  0  0  0  0  0  0  0
   48.8308    7.7674   20.3518 C   0  0  0  0  0  0  0  0  0  0  0  0
   48.1764    6.7437   22.9382 O   0  0  0  0  0  0  0  0  0  0  0  0
   49.9869    7.8015   18.2760 O   0  0  0  0  0  0  0  0  0  0  0  0
   48.4753    9.3948   18.6907 O   0  0  0  0  0  0  0  0  0  0  0  0
   46.7157    8.4354   23.1130 O   0  0  0  0  0  0  0  0  0  0  0  0
   48.2581    8.5763   18.9627 C   0  0  0  0  0  0  0  0  0  0  0  0
   48.4757    7.8207   22.6450 C   0  0  0  0  0  0  0  0  0  0  0  0
   48.1424    7.8931   20.2515 C   0  0  0  0  0  0  0  0  0  0  0  0
   48.5927    8.5031   21.3552 C   0  0  0  0  0  0  0  0  0  0  0  0
   48.7334    9.6753   18.7529 O   0  0  0  0  0  0  0  0  0  0  0  0
   48.0022    6.7212   22.8562 O   0  0  0  0  0  0  0  0  0  0  0  0
   48.9802    8.5867   23.6237 O   0  0  0  0  0  0  0  0  0  0  0  0
   47.7548    7.8093   17.9845 O   0  0  0  0  0  0  0  0  0  0  0  0
   49.3446    8.9400   21.4171 H   0  0  0  0  0  0  0  0  0  0  0  0
   47.1261    7.2629   20.0361 H   0  0  0  0  0  0  0  0  0  0  0  0
   49.3356    9.9944   18.1460 H   0  0  0  0  0  0  0  0  0  0  0  0
   48.5411    7.2498   24.2668 H   0  0  0  0  0  0  0  0  0  0  0  0
   45.9632   13.4220   20.8060 H   0  0  0  0  0  0  0  0  0  0  0  0
   44.7681   11.4605   19.8294 H   0  0  0  0  0  0  0  0  0  0  0  0
   49.4899   10.9834   20.9368 H   0  0  0  0  0  0  0  0  0  0  0  0
   48.3857   13.1557   21.3687 H   0  0  0  0  0  0  0  0  0  0  0  0
   46.6105    7.5754   19.6110 H   0  0  0  0  0  0  0  0  0  0  0  0
   47.1969    8.4550   18.2042 H   0  0  0  0  0  0  0  0  0  0  0  0
   49.6472    8.8525   21.6134 H   0  0  0  0  0  0  0  0  0  0  0  0
   49.4631    7.2893   20.8877 H   0  0  0  0  0  0  0  0  0  0  0  0
   47.3200    8.7050   22.5840 H   0  0  0  0  0  0  0  0  0  0  0  0
   47.0649    7.1762   21.8004 H   0  0  0  0  0  0  0  0  0  0  0  0
   50.2403    8.0220   23.6983 H   0  0  0  0  0  0  0  0  0  0  0  0
   48.8811    8.8800   24.4588 H   0  0  0  0  0  0  0  0  0  0  0  0
   49.5035    7.4084   25.1851 H   0  0  0  0  0  0  0  0  0  0  0  0
   49.0632    5.2280   24.0966 H   0  0  0  0  0  0  0  0  0  0  0  0
   48.1172    5.1734   22.6188 H   0  0  0  0  0  0  0  0  0  0  0  0
   49.7801    5.8031   22.5822 H   0  0  0  0  0  0  0  0  0  0  0  0
   49.8726    7.6081   17.4025 H   0  0  0  0  0  0  0  0  0  0  0  0
   50.7070    5.1489   16.8433 H   0  0  0  0  0  0  0  0  0  0  0  0
   49.1684    3.3484   18.0019 H   0  0  0  0  0  0  0  0  0  0  0  0
   47.8861    8.9465   17.9784 H   0  0  0  0  0  0  0  0  0  0  0  0
   46.4040    8.4178   18.7754 H   0  0  0  0  0  0  0  0  0  0  0  0
   47.9135    3.4577   18.2464 H   0  0  0  0  0  0  0  0  0  0  0  0
   50.1074    7.2247   18.2494 H   0  0  0  0  0  0  0  0  0  0  0  0
   46.5813    7.7053   21.0815 H   0  0  0  0  0  0  0  0  0  0  0  0
   47.0595    9.0714   22.0491 H   0  0  0  0  0  0  0  0  0  0  0  0
   50.2750    4.5918   17.9381 H   0  0  0  0  0  0  0  0  0  0  0  0
   48.8985    6.7092   21.3315 H   0  0  0  0  0  0  0  0  0  0  0  0
   49.4053    8.1635   22.1709 H   0  0  0  0  0  0  0  0  0  0  0  0
   49.0173   10.6155   21.9078 H   0  0  0  0  0  0  0  0  0  0  0  0
   46.5590   12.7982   18.3100 H   0  0  0  0  0  0  0  0  0  0  0  0
   47.4381    5.0865   22.4630 H   0  0  0  0  0  0  0  0  0  0  0  0
   46.8730    5.4316   24.1105 H   0  0  0  0  0  0  0  0  0  0  0  0
   46.1912    6.3154   22.7675 H   0  0  0  0  0  0  0  0  0  0  0  0
   49.0616    5.9232   24.9452 H   0  0  0  0  0  0  0  0  0  0  0  0
   49.7740    5.5218   23.3664 H   0  0  0  0  0  0  0  0  0  0  0  0
   50.0930    7.0900   24.1368 H   0  0  0  0  0  0  0  0  0  0  0  0
   48.8347   13.0813   21.9286 H   0  0  0  0  0  0  0  0  0  0  0  0
   47.5785   14.2236   20.0900 H   0  0  0  0  0  0  0  0  0  0  0  0
   47.3613    9.2216   20.8864 H   0  0  0  0  0  0  0  0  0  0  0  0
   49.3808    6.8773   20.6410 H   0  0  0  0  0  0  0  0  0  0  0  0
   48.8108    9.6164   17.7965 H   0  0  0  0  0  0  0  0  0  0  0  0
   46.6134    7.9639   23.9660 H   0  0  0  0  0  0  0  0  0  0  0  0
   47.6911    6.9080   20.2650 H   0  0  0  0  0  0  0  0  0  0  0  0
   49.0447    9.4881   21.3424 H   0  0  0  0  0  0  0  0  0  0  0  0
   48.8586    8.0513   24.4356 H   0  0  0  0  0  0  0  0  0  0  0  0
   47.8794    8.3448   17.1732 H   0  0  0  0  0  0  0  0  0  0  0  0
  2  4  1  0
  3  1  1  0
  4  3  2  0
  5  1  2  0
  6  2  2  0
  7  2  1  0
  8  1  1  0
 15 17  1  0
 12 15  1  0
 17 18  1  0
 11 12  1  0
 18 19  1  0
 15 16  1  0
 19 20  1  0
 19 21  1  0
 16 22  1  0
 23 24  1  0
 12 13  2  0
 10 11  2  0
 13 14  1  0
 22 23  2  0
 24 25  2  0
 25 26  1  0
 26 22  1  0
 14  9  2  0
  9 10  1  0
 28 27  1  0
 29 31  1  0
 30 29  1  0
 31 27  1  0
 32 28  2  0
 33 30  1  0
 34 29  2  0
 35 27  1  0
 36 34  1  0
 37 38  1  0
 38 35  1  0
 39 28  1  0
 40 32  1  0
 41 37  1  0
 42 37  1  0
 43 39  2  0
 44 40  2  0
 36 33  2  0
 43 44  1  0
 46 48  1  0
 47 45  1  0
 48 47  2  0
 49 45  2  0
 50 46  2  0
 51 46  1  0
 52 45  1  0
 54 56  1  0
 55 53  1  0
 56 55  2  0
 57 53  2  0
 58 54  2  0
 59 54  1  0
 60 53  1  0
  3 61  1  0
  4 62  1  0
  7 63  1  0
  8 64  1  0
  9 65  1  0
 10 66  1  0
 13 67  1  0
 14 68  1  0
 16 69  1  0
 16 70  1  0
 17 71  1  0
 17 72  1  0
 18 73  1  0
 18 74  1  0
 20 75  1  0
 20 76  1  0
 20 77  1  0
 21 78  1  0
 21 79  1  0
 21 80  1  0
 23 81  1  0
 24 82  1  0
 25 83  1  0
 31 84  1  0
 31 85  1  0
 33 86  1  0
 34 87  1  0
 35 88  1  0
 35 89  1  0
 36 90  1  0
 38 91  1  0
 38 92  1  0
 39 93  1  0
 40 94  1  0
 41 95  1  0
 41 96  1  0
 41 97  1  0
 42 98  1  0
 42 99  1  0
 42100  1  0
 43101  1  0
 44102  1  0
 47103  1  0
 48104  1  0
 51105  1  0
 52106  1  0
 55107  1  0
 56108  1  0
 59109  1  0
 60110  1  0
M  END
> <Uni-Dock RESULT> 
ENERGY=   -6.658  LOWER_BOUND=    1.932  UPPER_BOUND=    4.416
INTER + INTRA:          -6.658
INTER:                  -6.658
INTRA:                   0.000
UNBOUND:                 0.000

$$$$

     RDKit          3D

110109  0  0  0  0  0  0  0  0999 V2000
   48.9619    8.4342   17.0784 C   0  0  0  0  0  0  0  0  0  0  0  0
   48.1507    8.9703   20.7462 C   0  0  0  0  0  0  0  0  0  0  0  0
   48.2299    8.8169   18.2869 C   0  0  0  0  0  0  0  0  0  0  0  0
   48.8028    8.6215   19.4819 C   0  0  0  0  0  0  0  0  0  0  0  0
   50.0696    7.9379   17.0142 O   0  0  0  0  0  0  0  0  0  0  0  0
   48.6458    8.8035   21.8457 O   0  0  0  0  0  0  0  0  0  0  0  0
   46.9307    9.5071   20.5979 O   0  0  0  0  0  0  0  0  0  0  0  0
   48.2296    8.7071   15.9885 O   0  0  0  0  0  0  0  0  0  0  0  0
   48.6424   13.3518   19.7648 C   0  0  0  0  0  0  0  0  0  0  0  0
   49.5943   12.4707   20.2381 C   0  0  0  0  0  0  0  0  0  0  0  0
   49.4490   11.1261   20.2338 N   0  0  0  0  0  0  0  0  0  0  0  0
   48.3110   10.6020   19.7290 C   0  0  0  0  0  0  0  0  0  0  0  0
   47.2975   11.4359   19.2492 C   0  0  0  0  0  0  0  0  0  0  0  0
   47.4660   12.8205   19.2633 C   0  0  0  0  0  0  0  0  0  0  0  0
   48.1430    9.2054   19.7031 N   0  0  0  0  0  0  0  0  0  0  0  0
   49.1280    8.4906   20.5402 C   0  0  0  0  0  0  0  0  0  0  0  0
   47.9060    8.6493   18.3512 C   0  0  0  0  0  0  0  0  0  0  0  0
   49.1052    8.8223   17.3807 C   0  0  0  0  0  0  0  0  0  0  0  0
   48.9856    8.2172   16.0382 N   0  0  0  0  0  0  0  0  0  0  0  0
   47.8720    8.7639   15.2707 C   0  0  0  0  0  0  0  0  0  0  0  0
   48.9300    6.7581   16.0857 C   0  0  0  0  0  0  0  0  0  0  0  0
   48.7931    7.0407   20.8030 C   0  0  0  0  0  0  0  0  0  0  0  0
   47.6863    6.5311   21.4548 C   0  0  0  0  0  0  0  0  0  0  0  0
   47.6998    5.1090   21.5157 C   0  0  0  0  0  0  0  0  0  0  0  0
   48.8135    4.5778   20.9044 C   0  0  0  0  0  0  0  0  0  0  0  0
   49.8403    5.7909   20.2743 S   0  0  0  0  0  0  0  0  0  0  0  0
   48.4235    9.5108   19.6408 N   0  0  0  0  0  0  0  0  0  0  0  0
   48.0470   10.8551   19.8328 C   0  0  0  0  0  0  0  0  0  0  0  0
   48.9878    7.3790   20.8426 C   0  0  0  0  0  0  0  0  0  0  0  0
   50.4670    6.5186   20.7616 S   0  0  0  0  0  0  0  0  0  0  0  0
   48.9676    8.8906   20.8644 C   0  0  0  0  0  0  0  0  0  0  0  0
   48.3742   11.4880   20.9811 N   0  0  0  0  0  0  0  0  0  0  0  0
   49.6636    5.0095   20.7793 C   0  0  0  0  0  0  0  0  0  0  0  0
   47.9053    6.5204   20.8934 C   0  0  0  0  0  0  0  0  0  0  0  0
   49.2250    9.2980   18.4149 C   0  0  0  0  0  0  0  0  0  0  0  0
   48.2966    5.1515   20.8563 C   0  0  0  0  0  0  0  0  0  0  0  0
   49.2034    8.0747   16.1872 N   0  0  0  0  0  0  0  0  0  0  0  0
   48.5324    8.2689   17.4922 C   0  0  0  0  0  0  0  0  0  0  0  0
   47.3002   11.5129   18.8507 C   0  0  0  0  0  0  0  0  0  0  0  0
   47.9830   12.7723   21.1455 C   0  0  0  0  0  0  0  0  0  0  0  0
   50.5096    7.4307   16.3469 C   0  0  0  0  0  0  0  0  0  0  0  0
   48.3566    7.2536   15.3175 C   0  0  0  0  0  0  0  0  0  0  0  0
   46.9076   12.8376   19.0375 C   0  0  0  0  0  0  0  0  0  0  0  0
   47.2575   13.4858   20.2116 C   0  0  0  0  0  0  0  0  0  0  0  0
   49.3229    8.8577   17.1940 C   0  0  0  0  0  0  0  0  0  0  0  0
   47.4518    8.3044   20.4490 C   0  0  0  0  0  0  0  0  0  0  0  0
   48.7654    9.1091   18.5238 C   0  0  0  0  0  0  0  0  0  0  0  0
   48.0479    8.1479   19.1200 C   0  0  0  0  0  0  0  0  0  0  0  0
   49.2112    7.8480   16.5273 O   0  0  0  0  0  0  0  0  0  0  0  0
   46.7959    7.4493   21.0151 O   0  0  0  0  0  0  0  0  0  0  0  0
   47.6916    9.4971   21.0140 O   0  0  0  0  0  0  0  0  0  0  0  0
   50.0069    9.9300   16.7683 O   0  0  0  0  0  0  0  0  0  0  0  0
   48.1981    8.8539   20.6663 C   0  0  0  0  0  0  0  0  0  0  0  0
   48.5370    8.7008   16.9193 C   0  0  0  0  0  0  0  0  0  0  0  0
   48.6408    8.4744   19.3241 C   0  0  0  0  0  0  0  0  0  0  0  0
   48.0933    9.0789   18.2622 C   0  0  0  0  0  0  0  0  0  0  0  0
   47.3581    9.6832   20.9566 O   0  0  0  0  0  0  0  0  0  0  0  0
   49.3756    7.8705   16.6274 O   0  0  0  0  0  0  0  0  0  0  0  0
   47.8754    9.4113   15.9939 O   0  0  0  0  0  0  0  0  0  0  0  0
   48.8589    8.1421   21.5910 O   0  0  0  0  0  0  0  0  0  0  0  0
   47.2439    9.2478   18.1620 H   0  0  0  0  0  0  0  0  0  0  0  0
   49.7925    8.1870   19.5837 H   0  0  0  0  0  0  0  0  0  0  0  0
   46.6382    9.6793   21.5174 H   0  0  0  0  0  0  0  0  0  0  0  0
   48.7969    8.4221   15.2415 H   0  0  0  0  0  0  0  0  0  0  0  0
   48.8129   14.4221   19.7932 H   0  0  0  0  0  0  0  0  0  0  0  0
   50.5333   12.8285   20.6475 H   0  0  0  0  0  0  0  0  0  0  0  0
   46.3659   11.0177   18.8859 H   0  0  0  0  0  0  0  0  0  0  0  0
   46.6818   13.4722   18.8919 H   0  0  0  0  0  0  0  0  0  0  0  0
   50.1344    8.5754   20.1095 H   0  0  0  0  0  0  0  0  0  0  0  0
   49.1746    8.9626   21.5327 H   0  0  0  0  0  0  0  0  0  0  0  0
   47.0061    9.1000   17.9185 H   0  0  0  0  0  0  0  0  0  0  0  0
   47.6625    7.5859   18.4483 H   0  0  0  0  0  0  0  0  0  0  0  0
   49.3081    9.8925   17.2458 H   0  0  0  0  0  0  0  0  0  0  0  0
   50.0146    8.4239   17.8463 H   0  0  0  0  0  0  0  0  0  0  0  0
   46.8974    8.4844   15.6829 H   0  0  0  0  0  0  0  0  0  0  0  0
   47.9308    9.8571   15.2248 H   0  0  0  0  0  0  0  0  0  0  0  0
   47.9122    8.4074   14.2357 H   0  0  0  0  0  0  0  0  0  0  0  0
   48.9935    6.3430   15.0735 H   0  0  0  0  0  0  0  0  0  0  0  0
   49.7843    6.3546   16.6407 H   0  0  0  0  0  0  0  0  0  0  0  0
   48.0086    6.3863   16.5452 H   0  0  0  0  0  0  0  0  0  0  0  0
   46.9029    7.1600   21.8627 H   0  0  0  0  0  0  0  0  0  0  0  0
   46.9286    4.5062   21.9787 H   0  0  0  0  0  0  0  0  0  0  0  0
   49.0779    3.5349   20.8004 H   0  0  0  0  0  0  0  0  0  0  0  0
   48.3431    9.1545   21.7306 H   0  0  0  0  0  0  0  0  0  0  0  0
   49.9729    9.2854   21.0689 H   0  0  0  0  0  0  0  0  0  0  0  0
   50.2327    4.0908   20.7367 H   0  0  0  0  0  0  0  0  0  0  0  0
   46.8804    6.8692   20.9493 H   0  0  0  0  0  0  0  0  0  0  0  0
   50.2293    8.9535   18.6854 H   0  0  0  0  0  0  0  0  0  0  0  0
   49.3844   10.2285   17.8536 H   0  0  0  0  0  0  0  0  0  0  0  0
   47.6087    4.3153   20.8848 H   0  0  0  0  0  0  0  0  0  0  0  0
   48.4248    7.3076   18.0083 H   0  0  0  0  0  0  0  0  0  0  0  0
   47.5128    8.6334   17.3106 H   0  0  0  0  0  0  0  0  0  0  0  0
   47.0092   10.9950   17.9441 H   0  0  0  0  0  0  0  0  0  0  0  0
   48.2801   13.2259   22.0865 H   0  0  0  0  0  0  0  0  0  0  0  0
   50.4376    6.4712   16.8701 H   0  0  0  0  0  0  0  0  0  0  0  0
   50.9730    7.2554   15.3699 H   0  0  0  0  0  0  0  0  0  0  0  0
   51.2029    8.0747   16.8947 H   0  0  0  0  0  0  0  0  0  0  0  0
   48.8199    7.1325   14.3319 H   0  0  0  0  0  0  0  0  0  0  0  0
   48.1714    6.2590   15.7382 H   0  0  0  0  0  0  0  0  0  0  0  0
   47.3905    7.7409   15.1476 H   0  0  0  0  0  0  0  0  0  0  0  0
   46.3304   13.3496   18.2738 H   0  0  0  0  0  0  0  0  0  0  0  0
   46.9705   14.5147   20.3942 H   0  0  0  0  0  0  0  0  0  0  0  0
   48.9614   10.0728   18.9771 H   0  0  0  0  0  0  0  0  0  0  0  0
   47.8628    7.1886   18.6468 H   0  0  0  0  0  0  0  0  0  0  0  0
   47.2329    9.4419   21.8786 H   0  0  0  0  0  0  0  0  0  0  0  0
   50.3305    9.6693   15.8808 H   0  0  0  0  0  0  0  0  0  0  0  0
   49.4041    7.7099   19.2387 H   0  0  0  0  0  0  0  0  0  0  0  0
   47.3295    9.8432   18.3468 H   0  0  0  0  0  0  0  0  0  0  0  0
   48.2362    9.0907   15.1408 H   0  0  0  0  0  0  0  0  0  0  0  0
   48.4954    8.4619   22.4432 H   0  0  0  0  0  0  0  0  0  0  0  0
  2  4  1  0
  3  1  1  0
  4  3  2  0
  5  1  2  0
  6  2  2  0
  7  2  1  0
  8  1  1  0
 15 17  1  0
 12 15  1  0
 17 18  1  0
 11 12  1  0
 18 19  1  0
 15 16  1  0
 19 20  1  0
 19 21  1  0
 16 22  1  0
 23 24  1  0
 12 13  2  0
 10 11  2  0
 13 14  1  0
 22 23  2  0
 24 25  2  0
 25 26  1  0
 26 22  1  0
 14  9  2  0
  9 10  1  0
 28 27  1  0
 29 31  1  0
 30 29  1  0
 31 27  1  0
 32 28  2  0
 33 30  1  0
 34 29  2  0
 35 27  1  0
 36 34  1  0
 37 38  1  0
 38 35  1  0
 39 28  1  0
 40 32  1  0
 41 37  1  0
 42 37  1  0
 43 39  2  0
 44 40  2  0
 36 33  2  0
 43 44  1  0
 46 48  1  0
 47 45  1  0
 48 47  2  0
 49 45  2  0
 50 46  2  0
 51 46  1  0
 52 45  1  0
 54 56  1  0
 55 53  1  0
 56 55  2  0
 57 53  2  0
 58 54  2  0
 59 54  1  0
 60 53  1  0
  3 61  1  0
  4 62  1  0
  7 63  1  0
  8 64  1  0
  9 65  1  0
 10 66  1  0
 13 67  1  0
 14 68  1  0
 16 69  1  0
 16 70  1  0
 17 71  1  0
 17 72  1  0
 18 73  1  0
 18 74  1  0
 20 75  1  0
 20 76  1  0
 20 77  1  0
 21 78  1  0
 21 79  1  0
 21 80  1  0
 23 81  1  0
 24 82  1  0
 25 83  1  0
 31 84  1  0
 31 85  1  0
 33 86  1  0
 34 87  1  0
 35 88  1  0
 35 89  1  0
 36 90  1  0
 38 91  1  0
 38 92  1  0
 39 93  1  0
 40 94  1  0
 41 95  1  0
 41 96  1  0
 41 97  1  0
 42 98  1  0
 42 99  1  0
 42100  1  0
 43101  1  0
 44102  1  0
 47103  1  0
 48104  1  0
 51105  1  0
 52106  1  0
 55107  1  0
 56108  1  0
 59109  1  0
 60110  1  0
M  END
> <Uni-Dock RESULT> 
ENERGY=   -6.468  LOWER_BOUND=    2.098  UPPER_BOUND=    3.461
INTER + INTRA:          -6.468
INTER:                  -6.468
INTRA:                   0.000
UNBOUND:                 0.000

$$$$

     RDKit          3D

110109  0  0  0  0  0  0  0  0999 V2000
   46.9209    7.0384   12.8627 C   0  0  0  0  0  0  0  0  0  0  0  0
   49.0001    9.6397   14.6815 C   0  0  0  0  0  0  0  0  0  0  0  0
   47.3421    8.3274   13.4139 C   0  0  0  0  0  0  0  0  0  0  0  0
   48.4951    8.3975   14.0922 C   0  0  0  0  0  0  0  0  0  0  0  0
   47.5046    5.9755   12.9456 O   0  0  0  0  0  0  0  0  0  0  0  0
   50.0425    9.7334   15.3032 O   0  0  0  0  0  0  0  0  0  0  0  0
   48.2056   10.7004   14.4759 O   0  0  0  0  0  0  0  0  0  0  0  0
   45.7506    7.1703   12.2209 O   0  0  0  0  0  0  0  0  0  0  0  0
   49.8237   11.2431   10.5398 C   0  0  0  0  0  0  0  0  0  0  0  0
   50.5650   10.3319   11.2658 C   0  0  0  0  0  0  0  0  0  0  0  0
   50.1083    9.6903   12.3653 N   0  0  0  0  0  0  0  0  0  0  0  0
   48.8482    9.9414   12.7818 C   0  0  0  0  0  0  0  0  0  0  0  0
   48.0480   10.8657   12.1049 C   0  0  0  0  0  0  0  0  0  0  0  0
   48.5377   11.5181   10.9735 C   0  0  0  0  0  0  0  0  0  0  0  0
   48.3477    9.2764   13.9161 N   0  0  0  0  0  0  0  0  0  0  0  0
   49.4027    8.6077   14.7046 C   0  0  0  0  0  0  0  0  0  0  0  0
   47.1200    8.4879   13.6629 C   0  0  0  0  0  0  0  0  0  0  0  0
   47.3267    7.2978   12.6878 C   0  0  0  0  0  0  0  0  0  0  0  0
   46.1728    6.4064   12.4495 N   0  0  0  0  0  0  0  0  0  0  0  0
   45.0329    7.1041   11.8649 C   0  0  0  0  0  0  0  0  0  0  0  0
   45.7827    5.6650   13.6463 C   0  0  0  0  0  0  0  0  0  0  0  0
   48.9701    8.1655   16.0834 C   0  0  0  0  0  0  0  0  0  0  0  0
   48.5214    8.9552   17.1248 C   0  0  0  0  0  0  0  0  0  0  0  0
   48.1973    8.1933   18.2827 C   0  0  0  0  0  0  0  0  0  0  0  0
   48.4041    6.8459   18.0871 C   0  0  0  0  0  0  0  0  0  0  0  0
   48.9982    6.5082   16.5199 S   0  0  0  0  0  0  0  0  0  0  0  0
   48.5777    9.2223   13.5698 N   0  0  0  0  0  0  0  0  0  0  0  0
   48.8048   10.3111   12.7044 C   0  0  0  0  0  0  0  0  0  0  0  0
   49.2195    8.2370   15.7890 C   0  0  0  0  0  0  0  0  0  0  0  0
   49.9502    6.7112   16.0591 S   0  0  0  0  0  0  0  0  0  0  0  0
   49.6186    9.0923   14.6080 C   0  0  0  0  0  0  0  0  0  0  0  0
   49.9760   10.9828   12.7611 N   0  0  0  0  0  0  0  0  0  0  0  0
   49.0147    6.4408   17.4644 C   0  0  0  0  0  0  0  0  0  0  0  0
   48.2868    8.5313   16.7663 C   0  0  0  0  0  0  0  0  0  0  0  0
   48.2370    7.9707   12.8570 C   0  0  0  0  0  0  0  0  0  0  0  0
   48.1688    7.4928   17.7338 C   0  0  0  0  0  0  0  0  0  0  0  0
   46.3856    6.2498   12.5914 N   0  0  0  0  0  0  0  0  0  0  0  0
   46.8647    7.4394   13.3307 C   0  0  0  0  0  0  0  0  0  0  0  0
   47.7992   10.7160   11.8213 C   0  0  0  0  0  0  0  0  0  0  0  0
   50.1583   12.0355   11.9316 C   0  0  0  0  0  0  0  0  0  0  0  0
   47.2186    5.0766   12.8670 C   0  0  0  0  0  0  0  0  0  0  0  0
   44.9985    5.9639   12.9680 C   0  0  0  0  0  0  0  0  0  0  0  0
   48.0065   11.8026   10.9726 C   0  0  0  0  0  0  0  0  0  0  0  0
   49.2148   12.4794   11.0259 C   0  0  0  0  0  0  0  0  0  0  0  0
   47.3581    7.0789   12.5018 C   0  0  0  0  0  0  0  0  0  0  0  0
   48.1443    9.6109   15.2172 C   0  0  0  0  0  0  0  0  0  0  0  0
   47.9467    8.2339   13.1813 C   0  0  0  0  0  0  0  0  0  0  0  0
   47.6076    8.4819   14.4532 C   0  0  0  0  0  0  0  0  0  0  0  0
   46.5624    6.2822   12.9586 O   0  0  0  0  0  0  0  0  0  0  0  0
   47.8549    9.8606   16.3729 O   0  0  0  0  0  0  0  0  0  0  0  0
   49.0066   10.3719   14.5269 O   0  0  0  0  0  0  0  0  0  0  0  0
   47.8194    6.9963   11.2451 O   0  0  0  0  0  0  0  0  0  0  0  0
   48.9476    9.5051   14.7175 C   0  0  0  0  0  0  0  0  0  0  0  0
   46.5921    7.4003   12.6681 C   0  0  0  0  0  0  0  0  0  0  0  0
   48.2382    8.3524   14.1611 C   0  0  0  0  0  0  0  0  0  0  0  0
   47.3009    8.5532   13.2263 C   0  0  0  0  0  0  0  0  0  0  0  0
   48.7884   10.6754   14.4301 O   0  0  0  0  0  0  0  0  0  0  0  0
   46.7490    6.2296   12.9557 O   0  0  0  0  0  0  0  0  0  0  0  0
   45.6974    7.8028   11.7535 O   0  0  0  0  0  0  0  0  0  0  0  0
   49.8409    9.1020   15.6329 O   0  0  0  0  0  0  0  0  0  0  0  0
   46.6959    9.1806   13.2473 H   0  0  0  0  0  0  0  0  0  0  0  0
   49.1273    7.5287   14.2478 H   0  0  0  0  0  0  0  0  0  0  0  0
   48.6758   11.4344   14.9241 H   0  0  0  0  0  0  0  0  0  0  0  0
   45.5561    6.2682   11.8902 H   0  0  0  0  0  0  0  0  0  0  0  0
   50.2417   11.7282    9.6649 H   0  0  0  0  0  0  0  0  0  0  0  0
   51.5802   10.0803   10.9773 H   0  0  0  0  0  0  0  0  0  0  0  0
   47.0532   11.1010   12.4652 H   0  0  0  0  0  0  0  0  0  0  0  0
   47.9201   12.2367   10.4445 H   0  0  0  0  0  0  0  0  0  0  0  0
   49.8210    7.7588   14.1480 H   0  0  0  0  0  0  0  0  0  0  0  0
   50.2336    9.3089   14.8717 H   0  0  0  0  0  0  0  0  0  0  0  0
   46.3286    9.1461   13.2878 H   0  0  0  0  0  0  0  0  0  0  0  0
   46.7392    8.1166   14.6203 H   0  0  0  0  0  0  0  0  0  0  0  0
   47.6557    7.6827   11.7141 H   0  0  0  0  0  0  0  0  0  0  0  0
   48.1607    6.6776   13.0374 H   0  0  0  0  0  0  0  0  0  0  0  0
   44.5724    7.8153   12.5576 H   0  0  0  0  0  0  0  0  0  0  0  0
   45.3299    7.6429   10.9581 H   0  0  0  0  0  0  0  0  0  0  0  0
   44.2629    6.3866   11.5611 H   0  0  0  0  0  0  0  0  0  0  0  0
   45.0287    4.9103   13.3959 H   0  0  0  0  0  0  0  0  0  0  0  0
   46.6384    5.1225   14.0634 H   0  0  0  0  0  0  0  0  0  0  0  0
   45.3664    6.3116   14.4255 H   0  0  0  0  0  0  0  0  0  0  0  0
   48.4280   10.0327   17.0477 H   0  0  0  0  0  0  0  0  0  0  0  0
   47.8254    8.6115   19.2096 H   0  0  0  0  0  0  0  0  0  0  0  0
   48.2397    6.0417   18.7903 H   0  0  0  0  0  0  0  0  0  0  0  0
   49.8495   10.0789   15.0360 H   0  0  0  0  0  0  0  0  0  0  0  0
   50.5497    8.7177   14.1596 H   0  0  0  0  0  0  0  0  0  0  0  0
   49.1333    5.5253   18.0278 H   0  0  0  0  0  0  0  0  0  0  0  0
   47.7151    9.4524   16.7751 H   0  0  0  0  0  0  0  0  0  0  0  0
   49.0176    7.2220   13.0316 H   0  0  0  0  0  0  0  0  0  0  0  0
   48.2097    8.1052   11.7673 H   0  0  0  0  0  0  0  0  0  0  0  0
   47.4970    7.5182   18.5831 H   0  0  0  0  0  0  0  0  0  0  0  0
   46.8885    7.2310   14.4068 H   0  0  0  0  0  0  0  0  0  0  0  0
   46.1393    8.2521   13.1934 H   0  0  0  0  0  0  0  0  0  0  0  0
   46.8473   10.1980   11.7991 H   0  0  0  0  0  0  0  0  0  0  0  0
   51.1208   12.5302   12.0225 H   0  0  0  0  0  0  0  0  0  0  0  0
   47.2722    4.8481   13.9368 H   0  0  0  0  0  0  0  0  0  0  0  0
   46.8255    4.1962   12.3468 H   0  0  0  0  0  0  0  0  0  0  0  0
   48.2352    5.2167   12.4896 H   0  0  0  0  0  0  0  0  0  0  0  0
   44.6138    5.1093   12.4001 H   0  0  0  0  0  0  0  0  0  0  0  0
   44.8957    5.7448   14.0366 H   0  0  0  0  0  0  0  0  0  0  0  0
   44.3501    6.8130   12.7266 H   0  0  0  0  0  0  0  0  0  0  0  0
   47.2271   12.1153   10.2846 H   0  0  0  0  0  0  0  0  0  0  0  0
   49.4135   13.3290   10.3832 H   0  0  0  0  0  0  0  0  0  0  0  0
   48.6428    8.8458   12.6213 H   0  0  0  0  0  0  0  0  0  0  0  0
   46.9066    7.8556   14.9960 H   0  0  0  0  0  0  0  0  0  0  0  0
   49.2659   11.0686   15.1660 H   0  0  0  0  0  0  0  0  0  0  0  0
   47.3690    6.2076   10.8773 H   0  0  0  0  0  0  0  0  0  0  0  0
   48.5012    7.3681   14.5303 H   0  0  0  0  0  0  0  0  0  0  0  0
   47.0369    9.5375   12.8570 H   0  0  0  0  0  0  0  0  0  0  0  0
   45.2799    6.9721   11.4432 H   0  0  0  0  0  0  0  0  0  0  0  0
   50.2557    9.9337   15.9440 H   0  0  0  0  0  0  0  0  0  0  0  0
  2  4  1  0
  3  1  1  0
  4  3  2  0
  5  1  2  0
  6  2  2  0
  7  2  1  0
  8  1  1  0
 15 17  1  0
 12 15  1  0
 17 18  1  0
 11 12  1  0
 18 19  1  0
 15 16  1  0
 19 20  1  0
 19 21  1  0
 16 22  1  0
 23 24  1  0
 12 13  2  0
 10 11  2  0
 13 14  1  0
 22 23  2  0
 24 25  2  0
 25 26  1  0
 26 22  1  0
 14  9  2  0
  9 10  1  0
 28 27  1  0
 29 31  1  0
 30 29  1  0
 31 27  1  0
 32 28  2  0
 33 30  1  0
 34 29  2  0
 35 27  1  0
 36 34  1  0
 37 38  1  0
 38 35  1  0
 39 28  1  0
 40 32  1  0
 41 37  1  0
 42 37  1  0
 43 39  2  0
 44 40  2  0
 36 33  2  0
 43 44  1  0
 46 48  1  0
 47 45  1  0
 48 47  2  0
 49 45  2  0
 50 46  2  0
 51 46  1  0
 52 45  1  0
 54 56  1  0
 55 53  1  0
 56 55  2  0
 57 53  2  0
 58 54  2  0
 59 54  1  0
 60 53  1  0
  3 61  1  0
  4 62  1  0
  7 63  1  0
  8 64  1  0
  9 65  1  0
 10 66  1  0
 13 67  1  0
 14 68  1  0
 16 69  1  0
 16 70  1  0
 17 71  1  0
 17 72  1  0
 18 73  1  0
 18 74  1  0
 20 75  1  0
 20 76  1  0
 20 77  1  0
 21 78  1  0
 21 79  1  0
 21 80  1  0
 23 81  1  0
 24 82  1  0
 25 83  1  0
 31 84  1  0
 31 85  1  0
 33 86  1  0
 34 87  1  0
 35 88  1  0
 35 89  1  0
 36 90  1  0
 38 91  1  0
 38 92  1  0
 39 93  1  0
 40 94  1  0
 41 95  1  0
 41 96  1  0
 41 97  1  0
 42 98  1  0
 42 99  1  0
 42100  1  0
 43101  1  0
 44102  1  0
 47103  1  0
 48104  1  0
 51105  1  0
 52106  1  0
 55107  1  0
 56108  1  0
 59109  1  0
 60110  1  0
M  END
> <Uni-Dock RESULT> 
ENERGY=   -6.233  LOWER_BOUND=    4.127  UPPER_BOUND=    7.525
INTER + INTRA:          -6.233
INTER:                  -6.233
INTRA:                   0.000
UNBOUND:                 0.000

$$$$

     RDKit          3D

110109  0  0  0  0  0  0  0  0999 V2000
   48.5702    5.0209   17.6223 C   0  0  0  0  0  0  0  0  0  0  0  0
   48.6623    8.2164   19.6664 C   0  0  0  0  0  0  0  0  0  0  0  0
   48.2273    6.3602   18.1032 C   0  0  0  0  0  0  0  0  0  0  0  0
   48.9300    6.8860   19.1152 C   0  0  0  0  0  0  0  0  0  0  0  0
   49.4461    4.2896   18.0409 O   0  0  0  0  0  0  0  0  0  0  0  0
   49.2828    8.7192   20.5851 O   0  0  0  0  0  0  0  0  0  0  0  0
   47.6533    8.8613   19.0625 O   0  0  0  0  0  0  0  0  0  0  0  0
   47.7613    4.6717   16.6110 O   0  0  0  0  0  0  0  0  0  0  0  0
   50.2464   10.0828   15.8704 C   0  0  0  0  0  0  0  0  0  0  0  0
   50.9629    9.5442   16.9206 C   0  0  0  0  0  0  0  0  0  0  0  0
   50.4244    8.7541   17.8772 N   0  0  0  0  0  0  0  0  0  0  0  0
   49.1081    8.4598   17.8050 C   0  0  0  0  0  0  0  0  0  0  0  0
   48.3187    8.9855   16.7787 C   0  0  0  0  0  0  0  0  0  0  0  0
   48.8926    9.7994   15.8021 C   0  0  0  0  0  0  0  0  0  0  0  0
   48.5288    7.6299   18.7823 N   0  0  0  0  0  0  0  0  0  0  0  0
   49.3945    7.4399   19.9640 C   0  0  0  0  0  0  0  0  0  0  0  0
   47.8864    6.4116   18.2382 C   0  0  0  0  0  0  0  0  0  0  0  0
   48.8772    5.4267   17.5615 C   0  0  0  0  0  0  0  0  0  0  0  0
   48.3317    4.1445   17.0702 N   0  0  0  0  0  0  0  0  0  0  0  0
   47.3085    4.3229   16.0457 C   0  0  0  0  0  0  0  0  0  0  0  0
   47.8527    3.2892   18.1535 C   0  0  0  0  0  0  0  0  0  0  0  0
   48.6975    6.8371   21.1617 C   0  0  0  0  0  0  0  0  0  0  0  0
   47.6326    7.3566   21.8728 C   0  0  0  0  0  0  0  0  0  0  0  0
   47.2318    6.5103   22.9448 C   0  0  0  0  0  0  0  0  0  0  0  0
   47.9999    5.3695   23.0153 C   0  0  0  0  0  0  0  0  0  0  0  0
   49.2043    5.3303   21.8025 S   0  0  0  0  0  0  0  0  0  0  0  0
   48.8707    7.6804   18.5449 N   0  0  0  0  0  0  0  0  0  0  0  0
   48.9563    8.7803   17.6681 C   0  0  0  0  0  0  0  0  0  0  0  0
   48.9883    7.0093   20.9621 C   0  0  0  0  0  0  0  0  0  0  0  0
   50.0998    5.9131   21.6676 S   0  0  0  0  0  0  0  0  0  0  0  0
   49.4250    7.9719   19.8812 C   0  0  0  0  0  0  0  0  0  0  0  0
   49.6677    9.8722   18.0258 N   0  0  0  0  0  0  0  0  0  0  0  0
   48.9007    5.2604   22.6968 C   0  0  0  0  0  0  0  0  0  0  0  0
   47.7285    6.8796   21.5170 C   0  0  0  0  0  0  0  0  0  0  0  0
   49.3261    6.4108   17.9355 C   0  0  0  0  0  0  0  0  0  0  0  0
   47.6786    5.8686   22.5190 C   0  0  0  0  0  0  0  0  0  0  0  0
   48.5209    4.0867   17.2955 N   0  0  0  0  0  0  0  0  0  0  0  0
   48.1970    5.3561   17.9847 C   0  0  0  0  0  0  0  0  0  0  0  0
   48.2691    8.7516   16.4507 C   0  0  0  0  0  0  0  0  0  0  0  0
   49.7164   10.9203   17.1722 C   0  0  0  0  0  0  0  0  0  0  0  0
   49.5806    3.3538   17.9929 C   0  0  0  0  0  0  0  0  0  0  0  0
   47.3195    3.2512   17.2160 C   0  0  0  0  0  0  0  0  0  0  0  0
   48.3328    9.8411   15.5831 C   0  0  0  0  0  0  0  0  0  0  0  0
   49.0749   10.9528   15.9495 C   0  0  0  0  0  0  0  0  0  0  0  0
   49.0563    5.2429   17.4285 C   0  0  0  0  0  0  0  0  0  0  0  0
   47.7535    7.8306   19.8798 C   0  0  0  0  0  0  0  0  0  0  0  0
   48.8603    6.5266   18.1037 C   0  0  0  0  0  0  0  0  0  0  0  0
   48.0141    6.5934   19.1400 C   0  0  0  0  0  0  0  0  0  0  0  0
   48.5245    4.1828   17.6929 O   0  0  0  0  0  0  0  0  0  0  0  0
   46.9911    7.9211   20.8244 O   0  0  0  0  0  0  0  0  0  0  0  0
   48.4405    8.8892   19.4253 O   0  0  0  0  0  0  0  0  0  0  0  0
   49.9363    5.3769   16.4253 O   0  0  0  0  0  0  0  0  0  0  0  0
   48.6568    8.0715   19.7004 C   0  0  0  0  0  0  0  0  0  0  0  0
   48.2224    5.2193   17.2808 C   0  0  0  0  0  0  0  0  0  0  0  0
   48.7048    6.7384   19.0987 C   0  0  0  0  0  0  0  0  0  0  0  0
   48.1732    6.5523   17.8839 C   0  0  0  0  0  0  0  0  0  0  0  0
   48.1734    9.0781   19.2203 O   0  0  0  0  0  0  0  0  0  0  0  0
   48.7039    4.2114   17.7604 O   0  0  0  0  0  0  0  0  0  0  0  0
   47.6414    5.2343   16.0720 O   0  0  0  0  0  0  0  0  0  0  0  0
   49.2365    8.0555   20.9096 O   0  0  0  0  0  0  0  0  0  0  0  0
   47.4101    6.8761   17.6139 H   0  0  0  0  0  0  0  0  0  0  0  0
   49.7453    6.3504   19.5917 H   0  0  0  0  0  0  0  0  0  0  0  0
   47.6043    9.7163   19.5393 H   0  0  0  0  0  0  0  0  0  0  0  0
   48.0662    3.7746   16.3596 H   0  0  0  0  0  0  0  0  0  0  0  0
   50.7309   10.7106   15.1311 H   0  0  0  0  0  0  0  0  0  0  0  0
   52.0253    9.7355   17.0294 H   0  0  0  0  0  0  0  0  0  0  0  0
   47.2537    8.7865   16.7460 H   0  0  0  0  0  0  0  0  0  0  0  0
   48.2837   10.2101   15.0032 H   0  0  0  0  0  0  0  0  0  0  0  0
   50.2802    6.8463   19.7021 H   0  0  0  0  0  0  0  0  0  0  0  0
   49.7661    8.4174   20.3054 H   0  0  0  0  0  0  0  0  0  0  0  0
   47.0975    6.6934   17.5321 H   0  0  0  0  0  0  0  0  0  0  0  0
   47.3591    5.9015   19.0514 H   0  0  0  0  0  0  0  0  0  0  0  0
   49.3612    5.9282   16.7137 H   0  0  0  0  0  0  0  0  0  0  0  0
   49.6966    5.1973   18.2531 H   0  0  0  0  0  0  0  0  0  0  0  0
   46.3909    4.7715   16.4388 H   0  0  0  0  0  0  0  0  0  0  0  0
   47.6815    4.9506   15.2287 H   0  0  0  0  0  0  0  0  0  0  0  0
   47.0447    3.3577   15.5998 H   0  0  0  0  0  0  0  0  0  0  0  0
   47.5974    2.2959   17.7677 H   0  0  0  0  0  0  0  0  0  0  0  0
   48.6359    3.1386   18.9048 H   0  0  0  0  0  0  0  0  0  0  0  0
   46.9661    3.6957   18.6507 H   0  0  0  0  0  0  0  0  0  0  0  0
   47.1643    8.3022   21.6233 H   0  0  0  0  0  0  0  0  0  0  0  0
   46.4175    6.7243   23.6256 H   0  0  0  0  0  0  0  0  0  0  0  0
   47.9162    4.5574   23.7236 H   0  0  0  0  0  0  0  0  0  0  0  0
   49.0827    8.9594   20.2242 H   0  0  0  0  0  0  0  0  0  0  0  0
   50.5219    8.0193   19.8293 H   0  0  0  0  0  0  0  0  0  0  0  0
   49.1506    4.4650   23.3856 H   0  0  0  0  0  0  0  0  0  0  0  0
   46.8844    7.4851   21.2071 H   0  0  0  0  0  0  0  0  0  0  0  0
   50.2138    6.0452   18.4636 H   0  0  0  0  0  0  0  0  0  0  0  0
   49.6475    6.5398   16.8932 H   0  0  0  0  0  0  0  0  0  0  0  0
   46.7906    5.6027   23.0793 H   0  0  0  0  0  0  0  0  0  0  0  0
   47.9063    5.1585   19.0232 H   0  0  0  0  0  0  0  0  0  0  0  0
   47.3177    5.8020   17.5014 H   0  0  0  0  0  0  0  0  0  0  0  0
   47.6714    7.8893   16.1785 H   0  0  0  0  0  0  0  0  0  0  0  0
   50.3071   11.7646   17.5152 H   0  0  0  0  0  0  0  0  0  0  0  0
   49.3251    3.1502   19.0383 H   0  0  0  0  0  0  0  0  0  0  0  0
   49.7777    2.3982   17.4949 H   0  0  0  0  0  0  0  0  0  0  0  0
   50.5248    3.9045   17.9662 H   0  0  0  0  0  0  0  0  0  0  0  0
   47.5312    2.3232   16.6730 H   0  0  0  0  0  0  0  0  0  0  0  0
   46.9283    2.9921   18.2062 H   0  0  0  0  0  0  0  0  0  0  0  0
   46.5292    3.7636   16.6569 H   0  0  0  0  0  0  0  0  0  0  0  0
   47.8019    9.8178   14.6365 H   0  0  0  0  0  0  0  0  0  0  0  0
   49.1481   11.8194   15.3030 H   0  0  0  0  0  0  0  0  0  0  0  0
   49.4168    7.3790   17.7346 H   0  0  0  0  0  0  0  0  0  0  0  0
   47.4653    5.7260   19.4934 H   0  0  0  0  0  0  0  0  0  0  0  0
   48.1578    9.6207   20.0137 H   0  0  0  0  0  0  0  0  0  0  0  0
   49.9941    4.4789   16.0374 H   0  0  0  0  0  0  0  0  0  0  0  0
   49.1744    5.9427   19.6649 H   0  0  0  0  0  0  0  0  0  0  0  0
   47.7028    7.3476   17.3173 H   0  0  0  0  0  0  0  0  0  0  0  0
   47.7224    4.3105   15.7544 H   0  0  0  0  0  0  0  0  0  0  0  0
   49.1526    8.9790   21.2268 H   0  0  0  0  0  0  0  0  0  0  0  0
  2  4  1  0
  3  1  1  0
  4  3  2  0
  5  1  2  0
  6  2  2  0
  7  2  1  0
  8  1  1  0
 15 17  1  0
 12 15  1  0
 17 18  1  0
 11 12  1  0
 18 19  1  0
 15 16  1  0
 19 20  1  0
 19 21  1  0
 16 22  1  0
 23 24  1  0
 12 13  2  0
 10 11  2  0
 13 14  1  0
 22 23  2  0
 24 25  2  0
 25 26  1  0
 26 22  1  0
 14  9  2  0
  9 10  1  0
 28 27  1  0
 29 31  1  0
 30 29  1  0
 31 27  1  0
 32 28  2  0
 33 30  1  0
 34 29  2  0
 35 27  1  0
 36 34  1  0
 37 38  1  0
 38 35  1  0
 39 28  1  0
 40 32  1  0
 41 37  1  0
 42 37  1  0
 43 39  2  0
 44 40  2  0
 36 33  2  0
 43 44  1  0
 46 48  1  0
 47 45  1  0
 48 47  2  0
 49 45  2  0
 50 46  2  0
 51 46  1  0
 52 45  1  0
 54 56  1  0
 55 53  1  0
 56 55  2  0
 57 53  2  0
 58 54  2  0
 59 54  1  0
 60 53  1  0
  3 61  1  0
  4 62  1  0
  7 63  1  0
  8 64  1  0
  9 65  1  0
 10 66  1  0
 13 67  1  0
 14 68  1  0
 16 69  1  0
 16 70  1  0
 17 71  1  0
 17 72  1  0
 18 73  1  0
 18 74  1  0
 20 75  1  0
 20 76  1  0
 20 77  1  0
 21 78  1  0
 21 79  1  0
 21 80  1  0
 23 81  1  0
 24 82  1  0
 25 83  1  0
 31 84  1  0
 31 85  1  0
 33 86  1  0
 34 87  1  0
 35 88  1  0
 35 89  1  0
 36 90  1  0
 38 91  1  0
 38 92  1  0
 39 93  1  0
 40 94  1  0
 41 95  1  0
 41 96  1  0
 41 97  1  0
 42 98  1  0
 42 99  1  0
 42100  1  0
 43101  1  0
 44102  1  0
 47103  1  0
 48104  1  0
 51105  1  0
 52106  1  0
 55107  1  0
 56108  1  0
 59109  1  0
 60110  1  0
M  END
> <Uni-Dock RESULT> 
ENERGY=   -6.182  LOWER_BOUND=    1.756  UPPER_BOUND=    4.787
INTER + INTRA:          -6.182
INTER:                  -6.182
INTRA:                   0.000
UNBOUND:                 0.000

$$$$

     RDKit          3D

110109  0  0  0  0  0  0  0  0999 V2000
   48.8873   10.0112   18.0696 C   0  0  0  0  0  0  0  0  0  0  0  0
   49.1124    6.3528   17.0881 C   0  0  0  0  0  0  0  0  0  0  0  0
   48.5108    8.6099   17.8766 C   0  0  0  0  0  0  0  0  0  0  0  0
   49.3959    7.7705   17.3230 C   0  0  0  0  0  0  0  0  0  0  0  0
   49.9436   10.5371   17.7783 O   0  0  0  0  0  0  0  0  0  0  0  0
   49.8957    5.5674   16.5866 O   0  0  0  0  0  0  0  0  0  0  0  0
   47.8884    5.9713   17.4819 O   0  0  0  0  0  0  0  0  0  0  0  0
   47.8766   10.6877   18.6350 O   0  0  0  0  0  0  0  0  0  0  0  0
   49.2251    5.6153   21.5429 C   0  0  0  0  0  0  0  0  0  0  0  0
   50.2884    5.7787   20.6773 C   0  0  0  0  0  0  0  0  0  0  0  0
   50.1745    6.2767   19.4250 N   0  0  0  0  0  0  0  0  0  0  0  0
   48.9521    6.6495   18.9878 C   0  0  0  0  0  0  0  0  0  0  0  0
   47.8288    6.4953   19.8048 C   0  0  0  0  0  0  0  0  0  0  0  0
   47.9668    5.9784   21.0929 C   0  0  0  0  0  0  0  0  0  0  0  0
   48.8115    7.1816   17.6931 N   0  0  0  0  0  0  0  0  0  0  0  0
   50.0039    6.9655   16.8484 C   0  0  0  0  0  0  0  0  0  0  0  0
   48.2209    8.5391   17.6574 C   0  0  0  0  0  0  0  0  0  0  0  0
   49.1008    9.6259   18.3314 C   0  0  0  0  0  0  0  0  0  0  0  0
   48.6265   11.0234   18.2622 N   0  0  0  0  0  0  0  0  0  0  0  0
   47.3332   11.2124   18.9101 C   0  0  0  0  0  0  0  0  0  0  0  0
   48.6156   11.5430   16.8968 C   0  0  0  0  0  0  0  0  0  0  0  0
   49.7840    7.2219   15.3755 C   0  0  0  0  0  0  0  0  0  0  0  0
   48.9114    6.5726   14.5231 C   0  0  0  0  0  0  0  0  0  0  0  0
   48.9697    7.0828   13.1955 C   0  0  0  0  0  0  0  0  0  0  0  0
   49.8811    8.1083   13.0774 C   0  0  0  0  0  0  0  0  0  0  0  0
   50.6689    8.4412   14.5578 S   0  0  0  0  0  0  0  0  0  0  0  0
   49.0576    7.1855   18.0325 N   0  0  0  0  0  0  0  0  0  0  0  0
   48.7221    6.3926   19.1481 C   0  0  0  0  0  0  0  0  0  0  0  0
   49.9753    7.1014   15.6962 C   0  0  0  0  0  0  0  0  0  0  0  0
   51.3912    7.8775   15.1237 S   0  0  0  0  0  0  0  0  0  0  0  0
   49.9315    6.4812   17.0743 C   0  0  0  0  0  0  0  0  0  0  0  0
   49.3415    5.2073   19.3418 N   0  0  0  0  0  0  0  0  0  0  0  0
   50.6546    8.2586   13.6286 C   0  0  0  0  0  0  0  0  0  0  0  0
   48.9665    7.1279   14.7510 C   0  0  0  0  0  0  0  0  0  0  0  0
   49.4926    8.5525   18.3970 C   0  0  0  0  0  0  0  0  0  0  0  0
   49.3597    7.7971   13.5568 C   0  0  0  0  0  0  0  0  0  0  0  0
   48.8798   11.0015   18.1032 N   0  0  0  0  0  0  0  0  0  0  0  0
   48.5925    9.6041   17.7085 C   0  0  0  0  0  0  0  0  0  0  0  0
   47.7195    6.8183   20.0248 C   0  0  0  0  0  0  0  0  0  0  0  0
   48.9854    4.4588   20.4107 C   0  0  0  0  0  0  0  0  0  0  0  0
   50.1919   11.4363   17.6176 C   0  0  0  0  0  0  0  0  0  0  0  0
   47.8421   11.8861   17.5664 C   0  0  0  0  0  0  0  0  0  0  0  0
   47.3675    6.0337   21.1223 C   0  0  0  0  0  0  0  0  0  0  0  0
   48.0156    4.8252   21.3233 C   0  0  0  0  0  0  0  0  0  0  0  0
   49.2576    9.8310   18.4614 C   0  0  0  0  0  0  0  0  0  0  0  0
   48.3720    6.7059   16.4987 C   0  0  0  0  0  0  0  0  0  0  0  0
   49.0850    8.4171   18.1245 C   0  0  0  0  0  0  0  0  0  0  0  0
   48.5800    8.0912   16.9274 C   0  0  0  0  0  0  0  0  0  0  0  0
   48.9860   10.7917   17.7687 O   0  0  0  0  0  0  0  0  0  0  0  0
   47.9158    6.3801   15.4181 O   0  0  0  0  0  0  0  0  0  0  0  0
   48.7348    5.7947   17.4137 O   0  0  0  0  0  0  0  0  0  0  0  0
   49.7753    9.9538   19.6925 O   0  0  0  0  0  0  0  0  0  0  0  0
   49.1381    6.4811   17.0170 C   0  0  0  0  0  0  0  0  0  0  0  0
   48.4297    9.9420   18.3201 C   0  0  0  0  0  0  0  0  0  0  0  0
   49.1995    7.9281   17.2263 C   0  0  0  0  0  0  0  0  0  0  0  0
   48.3675    8.4948   18.1092 C   0  0  0  0  0  0  0  0  0  0  0  0
   48.3948    5.6899   17.5638 O   0  0  0  0  0  0  0  0  0  0  0  0
   49.1712   10.7348   17.7729 O   0  0  0  0  0  0  0  0  0  0  0  0
   47.5237   10.3178   19.2350 O   0  0  0  0  0  0  0  0  0  0  0  0
   50.0432    6.1063   16.1011 O   0  0  0  0  0  0  0  0  0  0  0  0
   47.5204    8.3071   18.1940 H   0  0  0  0  0  0  0  0  0  0  0  0
   50.3836    8.0959   17.0114 H   0  0  0  0  0  0  0  0  0  0  0  0
   47.8585    5.0172   17.2591 H   0  0  0  0  0  0  0  0  0  0  0  0
   48.2206   11.6013   18.7243 H   0  0  0  0  0  0  0  0  0  0  0  0
   49.3752    5.2102   22.5373 H   0  0  0  0  0  0  0  0  0  0  0  0
   51.2966    5.5069   20.9721 H   0  0  0  0  0  0  0  0  0  0  0  0
   46.8416    6.7518   19.4380 H   0  0  0  0  0  0  0  0  0  0  0  0
   47.0975    5.8567   21.7310 H   0  0  0  0  0  0  0  0  0  0  0  0
   50.8498    7.5617   17.2151 H   0  0  0  0  0  0  0  0  0  0  0  0
   50.3139    5.9123   16.9169 H   0  0  0  0  0  0  0  0  0  0  0  0
   47.2274    8.5224   18.1191 H   0  0  0  0  0  0  0  0  0  0  0  0
   48.0351    8.8123   16.6132 H   0  0  0  0  0  0  0  0  0  0  0  0
   49.2369    9.3735   19.3908 H   0  0  0  0  0  0  0  0  0  0  0  0
   50.1113    9.5953   17.9067 H   0  0  0  0  0  0  0  0  0  0  0  0
   46.5166   10.7172   18.3755 H   0  0  0  0  0  0  0  0  0  0  0  0
   47.3550   10.8365   19.9391 H   0  0  0  0  0  0  0  0  0  0  0  0
   47.0925   12.2791   18.9746 H   0  0  0  0  0  0  0  0  0  0  0  0
   48.4047   12.6183   16.9019 H   0  0  0  0  0  0  0  0  0  0  0  0
   49.5980   11.4215   16.4270 H   0  0  0  0  0  0  0  0  0  0  0  0
   47.8649   11.0554   16.2664 H   0  0  0  0  0  0  0  0  0  0  0  0
   48.2589    5.7703   14.8491 H   0  0  0  0  0  0  0  0  0  0  0  0
   48.3690    6.7203   12.3708 H   0  0  0  0  0  0  0  0  0  0  0  0
   50.1273    8.6767   12.1917 H   0  0  0  0  0  0  0  0  0  0  0  0
   49.5660    5.4562   16.9136 H   0  0  0  0  0  0  0  0  0  0  0  0
   50.9460    6.3926   17.4881 H   0  0  0  0  0  0  0  0  0  0  0  0
   51.2079    8.7990   12.8727 H   0  0  0  0  0  0  0  0  0  0  0  0
   47.9903    6.6880   14.9206 H   0  0  0  0  0  0  0  0  0  0  0  0
   50.5393    8.6967   18.1069 H   0  0  0  0  0  0  0  0  0  0  0  0
   49.4717    8.7217   19.4820 H   0  0  0  0  0  0  0  0  0  0  0  0
   48.7234    7.9318   12.6906 H   0  0  0  0  0  0  0  0  0  0  0  0
   48.6513    9.4997   16.6187 H   0  0  0  0  0  0  0  0  0  0  0  0
   47.5554    9.3695   17.9820 H   0  0  0  0  0  0  0  0  0  0  0  0
   47.1995    7.7533   19.8510 H   0  0  0  0  0  0  0  0  0  0  0  0
   49.5222    3.5203   20.5133 H   0  0  0  0  0  0  0  0  0  0  0  0
   50.2867   11.3338   16.5313 H   0  0  0  0  0  0  0  0  0  0  0  0
   50.3701   12.4847   17.8806 H   0  0  0  0  0  0  0  0  0  0  0  0
   50.9967   10.8686   18.0924 H   0  0  0  0  0  0  0  0  0  0  0  0
   48.0168   12.9207   17.8825 H   0  0  0  0  0  0  0  0  0  0  0  0
   47.8005   11.8602   16.4719 H   0  0  0  0  0  0  0  0  0  0  0  0
   46.8571   11.6060   17.9551 H   0  0  0  0  0  0  0  0  0  0  0  0
   46.5913    6.3655   21.8049 H   0  0  0  0  0  0  0  0  0  0  0  0
   47.7697    4.1870   22.1638 H   0  0  0  0  0  0  0  0  0  0  0  0
   49.3794    7.6842   18.8652 H   0  0  0  0  0  0  0  0  0  0  0  0
   48.2905    8.8427   16.1995 H   0  0  0  0  0  0  0  0  0  0  0  0
   48.5346    4.9379   16.9815 H   0  0  0  0  0  0  0  0  0  0  0  0
   49.8459   10.9221   19.8258 H   0  0  0  0  0  0  0  0  0  0  0  0
   49.9246    8.4935   16.6527 H   0  0  0  0  0  0  0  0  0  0  0  0
   47.6418    7.9299   18.6829 H   0  0  0  0  0  0  0  0  0  0  0  0
   47.6406   11.2885   19.3051 H   0  0  0  0  0  0  0  0  0  0  0  0
   49.9235    5.1361   16.0303 H   0  0  0  0  0  0  0  0  0  0  0  0
  2  4  1  0
  3  1  1  0
  4  3  2  0
  5  1  2  0
  6  2  2  0
  7  2  1  0
  8  1  1  0
 15 17  1  0
 12 15  1  0
 17 18  1  0
 11 12  1  0
 18 19  1  0
 15 16  1  0
 19 20  1  0
 19 21  1  0
 16 22  1  0
 23 24  1  0
 12 13  2  0
 10 11  2  0
 13 14  1  0
 22 23  2  0
 24 25  2  0
 25 26  1  0
 26 22  1  0
 14  9  2  0
  9 10  1  0
 28 27  1  0
 29 31  1  0
 30 29  1  0
 31 27  1  0
 32 28  2  0
 33 30  1  0
 34 29  2  0
 35 27  1  0
 36 34  1  0
 37 38  1  0
 38 35  1  0
 39 28  1  0
 40 32  1  0
 41 37  1  0
 42 37  1  0
 43 39  2  0
 44 40  2  0
 36 33  2  0
 43 44  1  0
 46 48  1  0
 47 45  1  0
 48 47  2  0
 49 45  2  0
 50 46  2  0
 51 46  1  0
 52 45  1  0
 54 56  1  0
 55 53  1  0
 56 55  2  0
 57 53  2  0
 58 54  2  0
 59 54  1  0
 60 53  1  0
  3 61  1  0
  4 62  1  0
  7 63  1  0
  8 64  1  0
  9 65  1  0
 10 66  1  0
 13 67  1  0
 14 68  1  0
 16 69  1  0
 16 70  1  0
 17 71  1  0
 17 72  1  0
 18 73  1  0
 18 74  1  0
 20 75  1  0
 20 76  1  0
 20 77  1  0
 21 78  1  0
 21 79  1  0
 21 80  1  0
 23 81  1  0
 24 82  1  0
 25 83  1  0
 31 84  1  0
 31 85  1  0
 33 86  1  0
 34 87  1  0
 35 88  1  0
 35 89  1  0
 36 90  1  0
 38 91  1  0
 38 92  1  0
 39 93  1  0
 40 94  1  0
 41 95  1  0
 41 96  1  0
 41 97  1  0
 42 98  1  0
 42 99  1  0
 42100  1  0
 43101  1  0
 44102  1  0
 47103  1  0
 48104  1  0
 51105  1  0
 52106  1  0
 55107  1  0
 56108  1  0
 59109  1  0
 60110  1  0
M  END
> <Uni-Dock RESULT> 
ENERGY=   -6.061  LOWER_BOUND=    2.248  UPPER_BOUND=    3.194
INTER + INTRA:          -6.061
INTER:                  -6.061
INTRA:                   0.000
UNBOUND:                 0.000

$$$$

     RDKit          3D

110109  0  0  0  0  0  0  0  0999 V2000
   48.7193   10.1420   17.6754 C   0  0  0  0  0  0  0  0  0  0  0  0
   48.9966    7.2740   15.2064 C   0  0  0  0  0  0  0  0  0  0  0  0
   48.3909    8.9205   16.9385 C   0  0  0  0  0  0  0  0  0  0  0  0
   49.2374    8.4834   15.9968 C   0  0  0  0  0  0  0  0  0  0  0  0
   49.7015   10.8443   17.5371 O   0  0  0  0  0  0  0  0  0  0  0  0
   49.7463    6.8537   14.3444 O   0  0  0  0  0  0  0  0  0  0  0  0
   47.8544    6.6424   15.5148 O   0  0  0  0  0  0  0  0  0  0  0  0
   47.7580   10.4146   18.5701 O   0  0  0  0  0  0  0  0  0  0  0  0
   49.7219    4.7535   18.8838 C   0  0  0  0  0  0  0  0  0  0  0  0
   50.6546    5.3699   18.0735 C   0  0  0  0  0  0  0  0  0  0  0  0
   50.3549    6.3326   17.1721 N   0  0  0  0  0  0  0  0  0  0  0  0
   49.0692    6.7299   17.0561 C   0  0  0  0  0  0  0  0  0  0  0  0
   48.0703    6.1361   17.8323 C   0  0  0  0  0  0  0  0  0  0  0  0
   48.3995    5.1438   18.7556 C   0  0  0  0  0  0  0  0  0  0  0  0
   48.7359    7.7385   16.1336 N   0  0  0  0  0  0  0  0  0  0  0  0
   49.8180    8.0165   15.1674 C   0  0  0  0  0  0  0  0  0  0  0  0
   48.0790    8.9194   16.7392 C   0  0  0  0  0  0  0  0  0  0  0  0
   48.9838    9.7060   17.7253 C   0  0  0  0  0  0  0  0  0  0  0  0
   48.4357   10.9488   18.3066 N   0  0  0  0  0  0  0  0  0  0  0  0
   47.2295   10.7185   19.0941 C   0  0  0  0  0  0  0  0  0  0  0  0
   48.2222   11.9886   17.3028 C   0  0  0  0  0  0  0  0  0  0  0  0
   49.3967    8.8431   13.9746 C   0  0  0  0  0  0  0  0  0  0  0  0
   48.4543    8.5269   13.0146 C   0  0  0  0  0  0  0  0  0  0  0  0
   48.3148    9.5493   12.0341 C   0  0  0  0  0  0  0  0  0  0  0  0
   49.1512   10.6155   12.2790 C   0  0  0  0  0  0  0  0  0  0  0  0
   50.1066   10.3745   13.6763 S   0  0  0  0  0  0  0  0  0  0  0  0
   49.0233    7.6245   16.4167 N   0  0  0  0  0  0  0  0  0  0  0  0
   48.8749    6.4079   17.1123 C   0  0  0  0  0  0  0  0  0  0  0  0
   49.6337    8.6191   14.1929 C   0  0  0  0  0  0  0  0  0  0  0  0
   50.9232    9.7010   13.8743 S   0  0  0  0  0  0  0  0  0  0  0  0
   49.7996    7.4776   15.1702 C   0  0  0  0  0  0  0  0  0  0  0  0
   49.5723    5.3190   16.7198 N   0  0  0  0  0  0  0  0  0  0  0  0
   49.9811   10.5975   12.7645 C   0  0  0  0  0  0  0  0  0  0  0  0
   48.5109    8.9381   13.4517 C   0  0  0  0  0  0  0  0  0  0  0  0
   49.4336    8.7489   17.2874 C   0  0  0  0  0  0  0  0  0  0  0  0
   48.7124   10.0816   12.6269 C   0  0  0  0  0  0  0  0  0  0  0  0
   48.6671   11.0209   18.1300 N   0  0  0  0  0  0  0  0  0  0  0  0
   48.4008    9.8963   17.2050 C   0  0  0  0  0  0  0  0  0  0  0  0
   47.9745    6.3245   18.1788 C   0  0  0  0  0  0  0  0  0  0  0  0
   49.3953    4.1601   17.3944 C   0  0  0  0  0  0  0  0  0  0  0  0
   49.8820   11.7480   17.7535 C   0  0  0  0  0  0  0  0  0  0  0  0
   47.5259   11.9404   18.1258 C   0  0  0  0  0  0  0  0  0  0  0  0
   47.8070    5.1215   18.8632 C   0  0  0  0  0  0  0  0  0  0  0  0
   48.5348    4.0114   18.4645 C   0  0  0  0  0  0  0  0  0  0  0  0
   49.1457    9.8523   17.9148 C   0  0  0  0  0  0  0  0  0  0  0  0
   48.1695    7.7656   14.8990 C   0  0  0  0  0  0  0  0  0  0  0  0
   49.0013    8.7001   17.0237 C   0  0  0  0  0  0  0  0  0  0  0  0
   48.3623    8.8570   15.8570 C   0  0  0  0  0  0  0  0  0  0  0  0
   48.7393   10.9824   17.7295 O   0  0  0  0  0  0  0  0  0  0  0  0
   47.5939    7.8787   13.8323 O   0  0  0  0  0  0  0  0  0  0  0  0
   48.6925    6.5962   15.2966 O   0  0  0  0  0  0  0  0  0  0  0  0
   49.8118    9.4992   19.0241 O   0  0  0  0  0  0  0  0  0  0  0  0
   49.0065    7.4222   15.1950 C   0  0  0  0  0  0  0  0  0  0  0  0
   48.3020    9.9289   17.9149 C   0  0  0  0  0  0  0  0  0  0  0  0
   49.0226    8.6466   15.9962 C   0  0  0  0  0  0  0  0  0  0  0  0
   48.2849    8.7049   17.1121 C   0  0  0  0  0  0  0  0  0  0  0  0
   48.3805    6.4047   15.4193 O   0  0  0  0  0  0  0  0  0  0  0  0
   48.9261   10.9477   17.6911 O   0  0  0  0  0  0  0  0  0  0  0  0
   47.5046    9.7941   18.9850 O   0  0  0  0  0  0  0  0  0  0  0  0
   49.8028    7.5581   14.1245 O   0  0  0  0  0  0  0  0  0  0  0  0
   47.4662    8.4153   17.1895 H   0  0  0  0  0  0  0  0  0  0  0  0
   50.1591    9.0065   15.7611 H   0  0  0  0  0  0  0  0  0  0  0  0
   47.8432    5.8717   14.9093 H   0  0  0  0  0  0  0  0  0  0  0  0
   48.0649   11.2361   19.0082 H   0  0  0  0  0  0  0  0  0  0  0  0
   50.0195    3.9863   19.5897 H   0  0  0  0  0  0  0  0  0  0  0  0
   51.7048    5.1020   18.1252 H   0  0  0  0  0  0  0  0  0  0  0  0
   47.0324    6.4226   17.7074 H   0  0  0  0  0  0  0  0  0  0  0  0
   47.6273    4.6797   19.3606 H   0  0  0  0  0  0  0  0  0  0  0  0
   50.6737    8.4856   15.6708 H   0  0  0  0  0  0  0  0  0  0  0  0
   50.1862    7.0684   14.7486 H   0  0  0  0  0  0  0  0  0  0  0  0
   47.1557    8.6116   17.2424 H   0  0  0  0  0  0  0  0  0  0  0  0
   47.7461    9.5849   15.9355 H   0  0  0  0  0  0  0  0  0  0  0  0
   49.2683    9.0479   18.5564 H   0  0  0  0  0  0  0  0  0  0  0  0
   49.9310    9.9573   17.2334 H   0  0  0  0  0  0  0  0  0  0  0  0
   46.3761   10.4139   18.4803 H   0  0  0  0  0  0  0  0  0  0  0  0
   47.4031    9.9504   19.8560 H   0  0  0  0  0  0  0  0  0  0  0  0
   46.9466   11.6301   19.6315 H   0  0  0  0  0  0  0  0  0  0  0  0
   47.9607   12.9358   17.7878 H   0  0  0  0  0  0  0  0  0  0  0  0
   49.1403   12.1740   16.7343 H   0  0  0  0  0  0  0  0  0  0  0  0
   47.4214   11.7375   16.5999 H   0  0  0  0  0  0  0  0  0  0  0  0
   47.8902    7.6010   13.0270 H   0  0  0  0  0  0  0  0  0  0  0  0
   47.6311    9.5076   11.1955 H   0  0  0  0  0  0  0  0  0  0  0  0
   49.2521   11.5242   11.7026 H   0  0  0  0  0  0  0  0  0  0  0  0
   49.4677    6.5833   14.6224 H   0  0  0  0  0  0  0  0  0  0  0  0
   50.8623    7.3257   15.4067 H   0  0  0  0  0  0  0  0  0  0  0  0
   50.4044   11.4572   12.2631 H   0  0  0  0  0  0  0  0  0  0  0  0
   47.5880    8.3724   13.5097 H   0  0  0  0  0  0  0  0  0  0  0  0
   50.4253    9.1053   16.9877 H   0  0  0  0  0  0  0  0  0  0  0  0
   49.5450    8.4450   18.3369 H   0  0  0  0  0  0  0  0  0  0  0  0
   47.9634   10.5025   11.9672 H   0  0  0  0  0  0  0  0  0  0  0  0
   48.3230   10.2646   16.1753 H   0  0  0  0  0  0  0  0  0  0  0  0
   47.4207    9.4664   17.4501 H   0  0  0  0  0  0  0  0  0  0  0  0
   47.3906    7.1892   18.4726 H   0  0  0  0  0  0  0  0  0  0  0  0
   49.9867    3.3238   17.0335 H   0  0  0  0  0  0  0  0  0  0  0  0
   49.8403   12.1201   16.7242 H   0  0  0  0  0  0  0  0  0  0  0  0
   50.0406   12.6018   18.4213 H   0  0  0  0  0  0  0  0  0  0  0  0
   50.7687   11.1172   17.8600 H   0  0  0  0  0  0  0  0  0  0  0  0
   47.6886   12.7592   18.8357 H   0  0  0  0  0  0  0  0  0  0  0  0
   47.3443   12.3714   17.1350 H   0  0  0  0  0  0  0  0  0  0  0  0
   46.6147   11.4262   18.4499 H   0  0  0  0  0  0  0  0  0  0  0  0
   47.1102    5.0573   19.6933 H   0  0  0  0  0  0  0  0  0  0  0  0
   48.4319    3.0587   18.9706 H   0  0  0  0  0  0  0  0  0  0  0  0
   49.4251    7.7578   17.3476 H   0  0  0  0  0  0  0  0  0  0  0  0
   47.9440    9.8112   15.5521 H   0  0  0  0  0  0  0  0  0  0  0  0
   48.4808    5.9840   14.5608 H   0  0  0  0  0  0  0  0  0  0  0  0
   49.8509   10.3242   19.5514 H   0  0  0  0  0  0  0  0  0  0  0  0
   49.6383    9.4697   15.6529 H   0  0  0  0  0  0  0  0  0  0  0  0
   47.6685    7.8822   17.4558 H   0  0  0  0  0  0  0  0  0  0  0  0
   47.5813   10.6524   19.4521 H   0  0  0  0  0  0  0  0  0  0  0  0
   49.7232    6.7003   13.6573 H   0  0  0  0  0  0  0  0  0  0  0  0
  2  4  1  0
  3  1  1  0
  4  3  2  0
  5  1  2  0
  6  2  2  0
  7  2  1  0
  8  1  1  0
 15 17  1  0
 12 15  1  0
 17 18  1  0
 11 12  1  0
 18 19  1  0
 15 16  1  0
 19 20  1  0
 19 21  1  0
 16 22  1  0
 23 24  1  0
 12 13  2  0
 10 11  2  0
 13 14  1  0
 22 23  2  0
 24 25  2  0
 25 26  1  0
 26 22  1  0
 14  9  2  0
  9 10  1  0
 28 27  1  0
 29 31  1  0
 30 29  1  0
 31 27  1  0
 32 28  2  0
 33 30  1  0
 34 29  2  0
 35 27  1  0
 36 34  1  0
 37 38  1  0
 38 35  1  0
 39 28  1  0
 40 32  1  0
 41 37  1  0
 42 37  1  0
 43 39  2  0
 44 40  2  0
 36 33  2  0
 43 44  1  0
 46 48  1  0
 47 45  1  0
 48 47  2  0
 49 45  2  0
 50 46  2  0
 51 46  1  0
 52 45  1  0
 54 56  1  0
 55 53  1  0
 56 55  2  0
 57 53  2  0
 58 54  2  0
 59 54  1  0
 60 53  1  0
  3 61  1  0
  4 62  1  0
  7 63  1  0
  8 64  1  0
  9 65  1  0
 10 66  1  0
 13 67  1  0
 14 68  1  0
 16 69  1  0
 16 70  1  0
 17 71  1  0
 17 72  1  0
 18 73  1  0
 18 74  1  0
 20 75  1  0
 20 76  1  0
 20 77  1  0
 21 78  1  0
 21 79  1  0
 21 80  1  0
 23 81  1  0
 24 82  1  0
 25 83  1  0
 31 84  1  0
 31 85  1  0
 33 86  1  0
 34 87  1  0
 35 88  1  0
 35 89  1  0
 36 90  1  0
 38 91  1  0
 38 92  1  0
 39 93  1  0
 40 94  1  0
 41 95  1  0
 41 96  1  0
 41 97  1  0
 42 98  1  0
 42 99  1  0
 42100  1  0
 43101  1  0
 44102  1  0
 47103  1  0
 48104  1  0
 51105  1  0
 52106  1  0
 55107  1  0
 56108  1  0
 59109  1  0
 60110  1  0
M  END
> <Uni-Dock RESULT> 
ENERGY=   -5.963  LOWER_BOUND=    3.095  UPPER_BOUND=    4.830
INTER + INTRA:          -5.963
INTER:                  -5.963
INTRA:                   0.000
UNBOUND:                 0.000

$$$$
