
     RDKit          3D

110109  0  0  0  0  0  0  0  0999 V2000
   51.7643    6.2029   20.8613 C   0  0  0  0  0  0  0  0  0  0  0  0
   50.3645    4.2605   17.8762 C   0  0  0  0  0  0  0  0  0  0  0  0
   51.5801    5.6298   19.5267 C   0  0  0  0  0  0  0  0  0  0  0  0
   50.5440    4.8422   19.2082 C   0  0  0  0  0  0  0  0  0  0  0  0
   52.6927    6.9239   21.1777 O   0  0  0  0  0  0  0  0  0  0  0  0
   49.4334    3.5430   17.5595 O   0  0  0  0  0  0  0  0  0  0  0  0
   51.3328    4.5858   17.0066 O   0  0  0  0  0  0  0  0  0  0  0  0
   50.8014    5.8689   21.7333 O   0  0  0  0  0  0  0  0  0  0  0  0
   53.4858    6.5763   16.6057 C   0  0  0  0  0  0  0  0  0  0  0  0
   52.2120    7.0658   16.8334 C   0  0  0  0  0  0  0  0  0  0  0  0
   51.3259    6.4970   17.6813 N   0  0  0  0  0  0  0  0  0  0  0  0
   51.7015    5.3818   18.3454 C   0  0  0  0  0  0  0  0  0  0  0  0
   52.9724    4.8321   18.1662 C   0  0  0  0  0  0  0  0  0  0  0  0
   53.8731    5.4330   17.2899 C   0  0  0  0  0  0  0  0  0  0  0  0
   50.8123    4.7564   19.2392 N   0  0  0  0  0  0  0  0  0  0  0  0
   49.3924    5.0278   18.9488 C   0  0  0  0  0  0  0  0  0  0  0  0
   51.2149    4.9062   20.6513 C   0  0  0  0  0  0  0  0  0  0  0  0
   51.0963    6.3591   21.1828 C   0  0  0  0  0  0  0  0  0  0  0  0
   51.5340    6.6105   22.5692 N   0  0  0  0  0  0  0  0  0  0  0  0
   52.9807    6.4850   22.7325 C   0  0  0  0  0  0  0  0  0  0  0  0
   50.8177    5.8023   23.5517 C   0  0  0  0  0  0  0  0  0  0  0  0
   48.8455    4.2750   17.7616 C   0  0  0  0  0  0  0  0  0  0  0  0
   49.0437    2.9463   17.4278 C   0  0  0  0  0  0  0  0  0  0  0  0
   48.3666    2.5816   16.2276 C   0  0  0  0  0  0  0  0  0  0  0  0
   47.6809    3.6431   15.6802 C   0  0  0  0  0  0  0  0  0  0  0  0
   47.8359    5.0646   16.6214 S   0  0  0  0  0  0  0  0  0  0  0  0
   51.4937    5.7247   19.8201 N   0  0  0  0  0  0  0  0  0  0  0  0
   50.1794    5.8783   20.3346 C   0  0  0  0  0  0  0  0  0  0  0  0
   53.8051    6.5950   20.2159 C   0  0  0  0  0  0  0  0  0  0  0  0
   54.8401    7.7013   19.4070 S   0  0  0  0  0  0  0  0  0  0  0  0
   52.3188    6.8560   20.2990 C   0  0  0  0  0  0  0  0  0  0  0  0
   49.5328    7.0624   20.2145 N   0  0  0  0  0  0  0  0  0  0  0  0
   56.2199    6.7419   19.7360 C   0  0  0  0  0  0  0  0  0  0  0  0
   54.5134    5.5245   20.7334 C   0  0  0  0  0  0  0  0  0  0  0  0
   51.4365    5.6454   18.3407 C   0  0  0  0  0  0  0  0  0  0  0  0
   55.9077    5.6093   20.4565 C   0  0  0  0  0  0  0  0  0  0  0  0
   49.7315    3.7363   17.9015 N   0  0  0  0  0  0  0  0  0  0  0  0
   51.1307    4.2170   17.8117 C   0  0  0  0  0  0  0  0  0  0  0  0
   49.6020    4.7894   20.9881 C   0  0  0  0  0  0  0  0  0  0  0  0
   48.2907    7.1544   20.7410 C   0  0  0  0  0  0  0  0  0  0  0  0
   49.6522    2.3418   17.4608 C   0  0  0  0  0  0  0  0  0  0  0  0
   48.8149    4.5675   17.1147 C   0  0  0  0  0  0  0  0  0  0  0  0
   48.3234    4.9115   21.5239 C   0  0  0  0  0  0  0  0  0  0  0  0
   47.6495    6.1207   21.4001 C   0  0  0  0  0  0  0  0  0  0  0  0
   51.6581    5.2616   21.1751 C   0  0  0  0  0  0  0  0  0  0  0  0
   50.4460    5.2900   17.5454 C   0  0  0  0  0  0  0  0  0  0  0  0
   51.0149    4.8960   19.9115 C   0  0  0  0  0  0  0  0  0  0  0  0
   51.0944    5.6518   18.8079 C   0  0  0  0  0  0  0  0  0  0  0  0
   51.5912    4.6031   22.1960 O   0  0  0  0  0  0  0  0  0  0  0  0
   50.5028    5.9557   16.5275 O   0  0  0  0  0  0  0  0  0  0  0  0
   49.7659    4.1350   17.5958 O   0  0  0  0  0  0  0  0  0  0  0  0
   52.3419    6.4142   21.1227 O   0  0  0  0  0  0  0  0  0  0  0  0
   51.3009    5.2584   21.2478 C   0  0  0  0  0  0  0  0  0  0  0  0
   50.7752    5.3933   17.4550 C   0  0  0  0  0  0  0  0  0  0  0  0
   50.8255    4.9858   19.8888 C   0  0  0  0  0  0  0  0  0  0  0  0
   51.2482    5.6671   18.8150 C   0  0  0  0  0  0  0  0  0  0  0  0
   50.9335    4.6513   22.2370 O   0  0  0  0  0  0  0  0  0  0  0  0
   51.1439    5.9967   16.4636 O   0  0  0  0  0  0  0  0  0  0  0  0
   49.8794    4.3980   17.3803 O   0  0  0  0  0  0  0  0  0  0  0  0
   52.2033    6.2487   21.3211 O   0  0  0  0  0  0  0  0  0  0  0  0
   52.3530    5.8909   18.8118 H   0  0  0  0  0  0  0  0  0  0  0  0
   49.7699    4.5826   19.9214 H   0  0  0  0  0  0  0  0  0  0  0  0
   51.0686    4.1308   16.1791 H   0  0  0  0  0  0  0  0  0  0  0  0
   51.0602    6.3329   22.5572 H   0  0  0  0  0  0  0  0  0  0  0  0
   54.1542    7.0680   15.9082 H   0  0  0  0  0  0  0  0  0  0  0  0
   51.8527    7.9587   16.3254 H   0  0  0  0  0  0  0  0  0  0  0  0
   53.2482    3.9243   18.6895 H   0  0  0  0  0  0  0  0  0  0  0  0
   54.8568    5.0013   17.1377 H   0  0  0  0  0  0  0  0  0  0  0  0
   48.7963    4.6872   19.8070 H   0  0  0  0  0  0  0  0  0  0  0  0
   49.1921    6.1049   18.8718 H   0  0  0  0  0  0  0  0  0  0  0  0
   50.5734    4.2433   21.2490 H   0  0  0  0  0  0  0  0  0  0  0  0
   52.2365    4.5339   20.7923 H   0  0  0  0  0  0  0  0  0  0  0  0
   50.0491    6.6797   21.0990 H   0  0  0  0  0  0  0  0  0  0  0  0
   51.6462    7.0451   20.5268 H   0  0  0  0  0  0  0  0  0  0  0  0
   53.5084    7.1333   22.0235 H   0  0  0  0  0  0  0  0  0  0  0  0
   53.2769    6.8136   23.7359 H   0  0  0  0  0  0  0  0  0  0  0  0
   53.3395    5.4599   22.5943 H   0  0  0  0  0  0  0  0  0  0  0  0
   51.0499    6.1450   24.5660 H   0  0  0  0  0  0  0  0  0  0  0  0
   51.0728    4.7356   23.4885 H   0  0  0  0  0  0  0  0  0  0  0  0
   49.7318    5.9068   23.4269 H   0  0  0  0  0  0  0  0  0  0  0  0
   49.6613    2.2741   18.0166 H   0  0  0  0  0  0  0  0  0  0  0  0
   48.3871    1.5919   15.7877 H   0  0  0  0  0  0  0  0  0  0  0  0
   47.0931    3.6520   14.7721 H   0  0  0  0  0  0  0  0  0  0  0  0
   52.0639    7.7762   19.7540 H   0  0  0  0  0  0  0  0  0  0  0  0
   52.1075    7.0528   21.3597 H   0  0  0  0  0  0  0  0  0  0  0  0
   57.1949    7.0522   19.3867 H   0  0  0  0  0  0  0  0  0  0  0  0
   54.0412    4.7191   21.2856 H   0  0  0  0  0  0  0  0  0  0  0  0
   52.4288    5.8982   17.9387 H   0  0  0  0  0  0  0  0  0  0  0  0
   50.7619    6.3979   17.9128 H   0  0  0  0  0  0  0  0  0  0  0  0
   56.6434    4.8769   20.7668 H   0  0  0  0  0  0  0  0  0  0  0  0
   51.7773    3.5184   18.3634 H   0  0  0  0  0  0  0  0  0  0  0  0
   51.4547    4.1765   16.7616 H   0  0  0  0  0  0  0  0  0  0  0  0
   50.1471    3.8536   21.0658 H   0  0  0  0  0  0  0  0  0  0  0  0
   47.8074    8.1200   20.6088 H   0  0  0  0  0  0  0  0  0  0  0  0
   50.2720    1.6959   18.0979 H   0  0  0  0  0  0  0  0  0  0  0  0
   48.6230    1.9662   17.5382 H   0  0  0  0  0  0  0  0  0  0  0  0
   49.9791    2.2165   16.4236 H   0  0  0  0  0  0  0  0  0  0  0  0
   48.7504    5.5838   17.5193 H   0  0  0  0  0  0  0  0  0  0  0  0
   49.1160    4.6317   16.0597 H   0  0  0  0  0  0  0  0  0  0  0  0
   47.7944    4.1700   17.1609 H   0  0  0  0  0  0  0  0  0  0  0  0
   47.8587    4.0671   22.0251 H   0  0  0  0  0  0  0  0  0  0  0  0
   46.6537    6.2520   21.8058 H   0  0  0  0  0  0  0  0  0  0  0  0
   50.4553    3.9676   19.9411 H   0  0  0  0  0  0  0  0  0  0  0  0
   51.6512    6.5812   18.7806 H   0  0  0  0  0  0  0  0  0  0  0  0
   49.3981    4.0380   16.6920 H   0  0  0  0  0  0  0  0  0  0  0  0
   52.7021    6.5146   22.0288 H   0  0  0  0  0  0  0  0  0  0  0  0
   50.0971    4.1853   19.8191 H   0  0  0  0  0  0  0  0  0  0  0  0
   51.9760    6.4681   18.8846 H   0  0  0  0  0  0  0  0  0  0  0  0
   49.6608    4.3468   16.4257 H   0  0  0  0  0  0  0  0  0  0  0  0
   52.4132    6.3030   22.2775 H   0  0  0  0  0  0  0  0  0  0  0  0
  2  4  1  0
  3  1  1  0
  4  3  2  0
  5  1  2  0
  6  2  2  0
  7  2  1  0
  8  1  1  0
 15 17  1  0
 12 15  1  0
 17 18  1  0
 11 12  1  0
 18 19  1  0
 15 16  1  0
 19 20  1  0
 19 21  1  0
 16 22  1  0
 23 24  1  0
 12 13  2  0
 10 11  2  0
 13 14  1  0
 22 23  2  0
 24 25  2  0
 25 26  1  0
 26 22  1  0
 14  9  2  0
  9 10  1  0
 28 27  1  0
 29 31  1  0
 30 29  1  0
 31 27  1  0
 32 28  2  0
 33 30  1  0
 34 29  2  0
 35 27  1  0
 36 34  1  0
 37 38  1  0
 38 35  1  0
 39 28  1  0
 40 32  1  0
 41 37  1  0
 42 37  1  0
 43 39  2  0
 44 40  2  0
 36 33  2  0
 43 44  1  0
 46 48  1  0
 47 45  1  0
 48 47  2  0
 49 45  2  0
 50 46  2  0
 51 46  1  0
 52 45  1  0
 54 56  1  0
 55 53  1  0
 56 55  2  0
 57 53  2  0
 58 54  2  0
 59 54  1  0
 60 53  1  0
  3 61  1  0
  4 62  1  0
  7 63  1  0
  8 64  1  0
  9 65  1  0
 10 66  1  0
 13 67  1  0
 14 68  1  0
 16 69  1  0
 16 70  1  0
 17 71  1  0
 17 72  1  0
 18 73  1  0
 18 74  1  0
 20 75  1  0
 20 76  1  0
 20 77  1  0
 21 78  1  0
 21 79  1  0
 21 80  1  0
 23 81  1  0
 24 82  1  0
 25 83  1  0
 31 84  1  0
 31 85  1  0
 33 86  1  0
 34 87  1  0
 35 88  1  0
 35 89  1  0
 36 90  1  0
 38 91  1  0
 38 92  1  0
 39 93  1  0
 40 94  1  0
 41 95  1  0
 41 96  1  0
 41 97  1  0
 42 98  1  0
 42 99  1  0
 42100  1  0
 43101  1  0
 44102  1  0
 47103  1  0
 48104  1  0
 51105  1  0
 52106  1  0
 55107  1  0
 56108  1  0
 59109  1  0
 60110  1  0
M  END
> <Uni-Dock RESULT> 
ENERGY=   -6.055  LOWER_BOUND=    0.000  UPPER_BOUND=    0.000
INTER + INTRA:          -6.055
INTER:                  -6.055
INTRA:                   0.000
UNBOUND:                 0.000

$$$$

     RDKit          3D

110109  0  0  0  0  0  0  0  0999 V2000
   48.8614    8.5246   19.7354 C   0  0  0  0  0  0  0  0  0  0  0  0
   48.9554    4.7715   18.9947 C   0  0  0  0  0  0  0  0  0  0  0  0
   48.9514    7.0708   19.8836 C   0  0  0  0  0  0  0  0  0  0  0  0
   48.8756    6.2262   18.8461 C   0  0  0  0  0  0  0  0  0  0  0  0
   48.9307    9.3152   20.6584 O   0  0  0  0  0  0  0  0  0  0  0  0
   48.8902    3.9818   18.0705 O   0  0  0  0  0  0  0  0  0  0  0  0
   49.1082    4.3628   20.2633 O   0  0  0  0  0  0  0  0  0  0  0  0
   48.6983    8.9322   18.4681 O   0  0  0  0  0  0  0  0  0  0  0  0
   49.9388    5.3740   22.9177 C   0  0  0  0  0  0  0  0  0  0  0  0
   50.8215    5.5624   21.8693 C   0  0  0  0  0  0  0  0  0  0  0  0
   50.4400    5.8520   20.6050 N   0  0  0  0  0  0  0  0  0  0  0  0
   49.1186    5.9613   20.3448 C   0  0  0  0  0  0  0  0  0  0  0  0
   48.1702    5.7853   21.3543 C   0  0  0  0  0  0  0  0  0  0  0  0
   48.5819    5.4895   22.6518 C   0  0  0  0  0  0  0  0  0  0  0  0
   48.6754    6.2626   19.0434 N   0  0  0  0  0  0  0  0  0  0  0  0
   49.6296    5.8747   17.9884 C   0  0  0  0  0  0  0  0  0  0  0  0
   48.1133    7.6223   18.9270 C   0  0  0  0  0  0  0  0  0  0  0  0
   49.1690    8.7489   19.0804 C   0  0  0  0  0  0  0  0  0  0  0  0
   48.6842   10.1417   19.0357 N   0  0  0  0  0  0  0  0  0  0  0  0
   47.8838   10.4951   20.2062 C   0  0  0  0  0  0  0  0  0  0  0  0
   47.9825   10.4647   17.7968 C   0  0  0  0  0  0  0  0  0  0  0  0
   49.6789    4.3932   17.7085 C   0  0  0  0  0  0  0  0  0  0  0  0
   48.6190    3.5106   17.5912 C   0  0  0  0  0  0  0  0  0  0  0  0
   49.0495    2.1785   17.3226 C   0  0  0  0  0  0  0  0  0  0  0  0
   50.4216    2.0852   17.2513 C   0  0  0  0  0  0  0  0  0  0  0  0
   51.1835    3.6002   17.4853 S   0  0  0  0  0  0  0  0  0  0  0  0
   48.9620    7.3516   19.7300 N   0  0  0  0  0  0  0  0  0  0  0  0
   49.4834    7.6184   18.4367 C   0  0  0  0  0  0  0  0  0  0  0  0
   48.5153    8.5427   21.8837 C   0  0  0  0  0  0  0  0  0  0  0  0
   49.2588    8.5711   23.4315 S   0  0  0  0  0  0  0  0  0  0  0  0
   49.3558    8.4579   20.6306 C   0  0  0  0  0  0  0  0  0  0  0  0
   50.7855    7.9578   18.2816 N   0  0  0  0  0  0  0  0  0  0  0  0
   47.7429    8.6566   24.2233 C   0  0  0  0  0  0  0  0  0  0  0  0
   47.1365    8.6103   21.9830 C   0  0  0  0  0  0  0  0  0  0  0  0
   49.4540    6.0329   20.1961 C   0  0  0  0  0  0  0  0  0  0  0  0
   46.6905    8.6763   23.3337 C   0  0  0  0  0  0  0  0  0  0  0  0
   48.7947    4.4238   18.2671 N   0  0  0  0  0  0  0  0  0  0  0  0
   48.6047    4.8400   19.6770 C   0  0  0  0  0  0  0  0  0  0  0  0
   48.6079    7.5514   17.3526 C   0  0  0  0  0  0  0  0  0  0  0  0
   51.2199    8.2192   17.0280 C   0  0  0  0  0  0  0  0  0  0  0  0
   47.8416    3.3656   17.9250 C   0  0  0  0  0  0  0  0  0  0  0  0
   50.1654    3.9715   18.0092 C   0  0  0  0  0  0  0  0  0  0  0  0
   49.0800    7.8282   16.0730 C   0  0  0  0  0  0  0  0  0  0  0  0
   50.4160    8.1711   15.9031 C   0  0  0  0  0  0  0  0  0  0  0  0
   48.0216    8.3252   19.2348 C   0  0  0  0  0  0  0  0  0  0  0  0
   49.8848    4.9937   19.5073 C   0  0  0  0  0  0  0  0  0  0  0  0
   48.4591    6.9446   19.0188 C   0  0  0  0  0  0  0  0  0  0  0  0
   49.4422    6.3725   19.7271 C   0  0  0  0  0  0  0  0  0  0  0  0
   47.1426    8.8751   18.5981 O   0  0  0  0  0  0  0  0  0  0  0  0
   50.7730    4.4479   20.1364 O   0  0  0  0  0  0  0  0  0  0  0  0
   49.2172    4.3579   18.5331 O   0  0  0  0  0  0  0  0  0  0  0  0
   48.6863    8.9588   20.2123 O   0  0  0  0  0  0  0  0  0  0  0  0
   48.1504    8.3186   18.8939 C   0  0  0  0  0  0  0  0  0  0  0  0
   49.8570    5.0275   19.8613 C   0  0  0  0  0  0  0  0  0  0  0  0
   48.6247    6.9321   18.8889 C   0  0  0  0  0  0  0  0  0  0  0  0
   49.3844    6.4149   19.8642 C   0  0  0  0  0  0  0  0  0  0  0  0
   47.4578    8.8091   18.0211 O   0  0  0  0  0  0  0  0  0  0  0  0
   50.5468    4.5336   20.7349 O   0  0  0  0  0  0  0  0  0  0  0  0
   49.4608    4.3197   18.7932 O   0  0  0  0  0  0  0  0  0  0  0  0
   48.5400    9.0240   19.9667 O   0  0  0  0  0  0  0  0  0  0  0  0
   49.0820    6.7275   20.9042 H   0  0  0  0  0  0  0  0  0  0  0  0
   48.7473    6.5687   17.8255 H   0  0  0  0  0  0  0  0  0  0  0  0
   49.1482    3.3856   20.1925 H   0  0  0  0  0  0  0  0  0  0  0  0
   48.6693    9.9096   18.5382 H   0  0  0  0  0  0  0  0  0  0  0  0
   50.2989    5.1358   23.9120 H   0  0  0  0  0  0  0  0  0  0  0  0
   51.8968    5.4842   22.0174 H   0  0  0  0  0  0  0  0  0  0  0  0
   47.1140    5.8538   21.1226 H   0  0  0  0  0  0  0  0  0  0  0  0
   47.8476    5.3387   23.4361 H   0  0  0  0  0  0  0  0  0  0  0  0
   49.3041    6.3365   17.0457 H   0  0  0  0  0  0  0  0  0  0  0  0
   50.6313    6.2842   18.1758 H   0  0  0  0  0  0  0  0  0  0  0  0
   47.6365    7.6984   17.9395 H   0  0  0  0  0  0  0  0  0  0  0  0
   47.3057    7.7588   19.6559 H   0  0  0  0  0  0  0  0  0  0  0  0
   49.9249    8.6321   18.2921 H   0  0  0  0  0  0  0  0  0  0  0  0
   49.7263    8.6166   20.0160 H   0  0  0  0  0  0  0  0  0  0  0  0
   48.4389   10.2952   21.1299 H   0  0  0  0  0  0  0  0  0  0  0  0
   47.6625   11.5692   20.2014 H   0  0  0  0  0  0  0  0  0  0  0  0
   46.9323    9.9555   20.2526 H   0  0  0  0  0  0  0  0  0  0  0  0
   47.7971   11.5427   17.7362 H   0  0  0  0  0  0  0  0  0  0  0  0
   47.0157    9.9500   17.7120 H   0  0  0  0  0  0  0  0  0  0  0  0
   48.5925   10.2023   16.9223 H   0  0  0  0  0  0  0  0  0  0  0  0
   47.5821    3.8123   17.7087 H   0  0  0  0  0  0  0  0  0  0  0  0
   48.3849    1.3329   17.1936 H   0  0  0  0  0  0  0  0  0  0  0  0
   51.0149    1.1989   17.0705 H   0  0  0  0  0  0  0  0  0  0  0  0
   50.4209    8.3806   20.8924 H   0  0  0  0  0  0  0  0  0  0  0  0
   49.2295    9.4225   20.1186 H   0  0  0  0  0  0  0  0  0  0  0  0
   47.6933    8.6887   25.3028 H   0  0  0  0  0  0  0  0  0  0  0  0
   46.4841    8.6112   21.1163 H   0  0  0  0  0  0  0  0  0  0  0  0
   49.3684    5.9956   21.2922 H   0  0  0  0  0  0  0  0  0  0  0  0
   50.5243    5.8969   19.9947 H   0  0  0  0  0  0  0  0  0  0  0  0
   45.6520    8.7324   23.6379 H   0  0  0  0  0  0  0  0  0  0  0  0
   47.5466    5.1027   19.8252 H   0  0  0  0  0  0  0  0  0  0  0  0
   48.8060    3.9803   20.3325 H   0  0  0  0  0  0  0  0  0  0  0  0
   47.5700    7.2748   17.5113 H   0  0  0  0  0  0  0  0  0  0  0  0
   52.2746    8.4748   16.9527 H   0  0  0  0  0  0  0  0  0  0  0  0
   46.8080    3.7216   18.0350 H   0  0  0  0  0  0  0  0  0  0  0  0
   47.9592    3.0587   16.8770 H   0  0  0  0  0  0  0  0  0  0  0  0
   47.9672    2.4771   18.5520 H   0  0  0  0  0  0  0  0  0  0  0  0
   50.8841    4.7912   18.1207 H   0  0  0  0  0  0  0  0  0  0  0  0
   50.4647    3.1533   18.6790 H   0  0  0  0  0  0  0  0  0  0  0  0
   50.2724    3.6291   16.9734 H   0  0  0  0  0  0  0  0  0  0  0  0
   48.4106    7.7682   15.2194 H   0  0  0  0  0  0  0  0  0  0  0  0
   50.8175    8.3941   14.9220 H   0  0  0  0  0  0  0  0  0  0  0  0
   47.9321    6.4217   18.2284 H   0  0  0  0  0  0  0  0  0  0  0  0
   49.9705    6.8972   20.5146 H   0  0  0  0  0  0  0  0  0  0  0  0
   49.6247    3.4664   18.5107 H   0  0  0  0  0  0  0  0  0  0  0  0
   48.2841    9.8526   20.2282 H   0  0  0  0  0  0  0  0  0  0  0  0
   48.3131    6.3532   18.0265 H   0  0  0  0  0  0  0  0  0  0  0  0
   49.6968    6.9939   20.7263 H   0  0  0  0  0  0  0  0  0  0  0  0
   49.8585    3.4345   18.9346 H   0  0  0  0  0  0  0  0  0  0  0  0
   48.1482    9.9106   19.8181 H   0  0  0  0  0  0  0  0  0  0  0  0
  2  4  1  0
  3  1  1  0
  4  3  2  0
  5  1  2  0
  6  2  2  0
  7  2  1  0
  8  1  1  0
 15 17  1  0
 12 15  1  0
 17 18  1  0
 11 12  1  0
 18 19  1  0
 15 16  1  0
 19 20  1  0
 19 21  1  0
 16 22  1  0
 23 24  1  0
 12 13  2  0
 10 11  2  0
 13 14  1  0
 22 23  2  0
 24 25  2  0
 25 26  1  0
 26 22  1  0
 14  9  2  0
  9 10  1  0
 28 27  1  0
 29 31  1  0
 30 29  1  0
 31 27  1  0
 32 28  2  0
 33 30  1  0
 34 29  2  0
 35 27  1  0
 36 34  1  0
 37 38  1  0
 38 35  1  0
 39 28  1  0
 40 32  1  0
 41 37  1  0
 42 37  1  0
 43 39  2  0
 44 40  2  0
 36 33  2  0
 43 44  1  0
 46 48  1  0
 47 45  1  0
 48 47  2  0
 49 45  2  0
 50 46  2  0
 51 46  1  0
 52 45  1  0
 54 56  1  0
 55 53  1  0
 56 55  2  0
 57 53  2  0
 58 54  2  0
 59 54  1  0
 60 53  1  0
  3 61  1  0
  4 62  1  0
  7 63  1  0
  8 64  1  0
  9 65  1  0
 10 66  1  0
 13 67  1  0
 14 68  1  0
 16 69  1  0
 16 70  1  0
 17 71  1  0
 17 72  1  0
 18 73  1  0
 18 74  1  0
 20 75  1  0
 20 76  1  0
 20 77  1  0
 21 78  1  0
 21 79  1  0
 21 80  1  0
 23 81  1  0
 24 82  1  0
 25 83  1  0
 31 84  1  0
 31 85  1  0
 33 86  1  0
 34 87  1  0
 35 88  1  0
 35 89  1  0
 36 90  1  0
 38 91  1  0
 38 92  1  0
 39 93  1  0
 40 94  1  0
 41 95  1  0
 41 96  1  0
 41 97  1  0
 42 98  1  0
 42 99  1  0
 42100  1  0
 43101  1  0
 44102  1  0
 47103  1  0
 48104  1  0
 51105  1  0
 52106  1  0
 55107  1  0
 56108  1  0
 59109  1  0
 60110  1  0
M  END
> <Uni-Dock RESULT> 
ENERGY=   -6.004  LOWER_BOUND=    2.450  UPPER_BOUND=    4.676
INTER + INTRA:          -6.004
INTER:                  -6.004
INTRA:                   0.000
UNBOUND:                 0.000

$$$$

     RDKit          3D

110109  0  0  0  0  0  0  0  0999 V2000
   48.7781    8.7378   19.7542 C   0  0  0  0  0  0  0  0  0  0  0  0
   48.4033    5.0502   18.8031 C   0  0  0  0  0  0  0  0  0  0  0  0
   48.6764    7.2788   19.8209 C   0  0  0  0  0  0  0  0  0  0  0  0
   48.5153    6.5089   18.7362 C   0  0  0  0  0  0  0  0  0  0  0  0
   48.9284    9.4614   20.7215 O   0  0  0  0  0  0  0  0  0  0  0  0
   48.2572    4.3271   17.8347 O   0  0  0  0  0  0  0  0  0  0  0  0
   48.4738    4.5569   20.0486 O   0  0  0  0  0  0  0  0  0  0  0  0
   48.6971    9.2315   18.5097 O   0  0  0  0  0  0  0  0  0  0  0  0
   49.3689    5.3057   22.7683 C   0  0  0  0  0  0  0  0  0  0  0  0
   50.2916    5.4343   21.7455 C   0  0  0  0  0  0  0  0  0  0  0  0
   49.9788    5.8393   20.4941 N   0  0  0  0  0  0  0  0  0  0  0  0
   48.6887    6.1335   20.2209 C   0  0  0  0  0  0  0  0  0  0  0  0
   47.7034    6.0279   21.2044 C   0  0  0  0  0  0  0  0  0  0  0  0
   48.0445    5.6110   22.4890 C   0  0  0  0  0  0  0  0  0  0  0  0
   48.3171    6.5603   18.9322 N   0  0  0  0  0  0  0  0  0  0  0  0
   49.2364    6.1094   17.8712 C   0  0  0  0  0  0  0  0  0  0  0  0
   47.9380    7.9859   18.8847 C   0  0  0  0  0  0  0  0  0  0  0  0
   49.1266    8.9555   19.1176 C   0  0  0  0  0  0  0  0  0  0  0  0
   48.8267   10.3998   19.1448 N   0  0  0  0  0  0  0  0  0  0  0  0
   48.0528   10.7903   20.3213 C   0  0  0  0  0  0  0  0  0  0  0  0
   48.2002   10.8782   17.9158 C   0  0  0  0  0  0  0  0  0  0  0  0
   49.1003    4.6515   17.5085 C   0  0  0  0  0  0  0  0  0  0  0  0
   47.9382    3.9220   17.3254 C   0  0  0  0  0  0  0  0  0  0  0  0
   48.1990    2.5618   16.9881 C   0  0  0  0  0  0  0  0  0  0  0  0
   49.5488    2.2948   16.9322 C   0  0  0  0  0  0  0  0  0  0  0  0
   50.4946    3.6828   17.2632 S   0  0  0  0  0  0  0  0  0  0  0  0
   48.7266    7.5637   19.6837 N   0  0  0  0  0  0  0  0  0  0  0  0
   49.3066    7.8304   18.4156 C   0  0  0  0  0  0  0  0  0  0  0  0
   48.3896    8.6841   21.8945 C   0  0  0  0  0  0  0  0  0  0  0  0
   49.0961    8.5313   23.4524 S   0  0  0  0  0  0  0  0  0  0  0  0
   49.2398    8.5588   20.6514 C   0  0  0  0  0  0  0  0  0  0  0  0
   50.6447    8.0054   18.2994 N   0  0  0  0  0  0  0  0  0  0  0  0
   47.5867    8.7702   24.2250 C   0  0  0  0  0  0  0  0  0  0  0  0
   47.0292    8.9250   21.9769 C   0  0  0  0  0  0  0  0  0  0  0  0
   49.0337    6.1689   20.0815 C   0  0  0  0  0  0  0  0  0  0  0  0
   46.5656    8.9750   23.3223 C   0  0  0  0  0  0  0  0  0  0  0  0
   48.2152    4.7665   18.0546 N   0  0  0  0  0  0  0  0  0  0  0  0
   48.0494    5.1266   19.4829 C   0  0  0  0  0  0  0  0  0  0  0  0
   48.4541    7.9368   17.3164 C   0  0  0  0  0  0  0  0  0  0  0  0
   51.1370    8.2757   17.0694 C   0  0  0  0  0  0  0  0  0  0  0  0
   47.1414    3.8615   17.6388 C   0  0  0  0  0  0  0  0  0  0  0  0
   49.5215    4.1544   17.7920 C   0  0  0  0  0  0  0  0  0  0  0  0
   48.9862    8.2190   16.0618 C   0  0  0  0  0  0  0  0  0  0  0  0
   50.3588    8.3939   15.9316 C   0  0  0  0  0  0  0  0  0  0  0  0
   47.9309    8.6769   19.2305 C   0  0  0  0  0  0  0  0  0  0  0  0
   49.3420    5.1215   19.3414 C   0  0  0  0  0  0  0  0  0  0  0  0
   48.1912    7.2649   18.9431 C   0  0  0  0  0  0  0  0  0  0  0  0
   49.0763    6.5321   19.6323 C   0  0  0  0  0  0  0  0  0  0  0  0
   47.1446    9.3703   18.6129 O   0  0  0  0  0  0  0  0  0  0  0  0
   50.1381    4.4313   19.9517 O   0  0  0  0  0  0  0  0  0  0  0  0
   48.6197    4.6318   18.3227 O   0  0  0  0  0  0  0  0  0  0  0  0
   48.6499    9.1646   20.2523 O   0  0  0  0  0  0  0  0  0  0  0  0
   48.0654    8.6722   18.8917 C   0  0  0  0  0  0  0  0  0  0  0  0
   49.3109    5.1393   19.6962 C   0  0  0  0  0  0  0  0  0  0  0  0
   48.3567    7.2381   18.8151 C   0  0  0  0  0  0  0  0  0  0  0  0
   49.0214    6.5742   19.7708 C   0  0  0  0  0  0  0  0  0  0  0  0
   47.4613    9.2952   18.0379 O   0  0  0  0  0  0  0  0  0  0  0  0
   49.9117    4.5131   20.5506 O   0  0  0  0  0  0  0  0  0  0  0  0
   48.8505    4.5482   18.5839 O   0  0  0  0  0  0  0  0  0  0  0  0
   48.5188    9.2615   20.0086 O   0  0  0  0  0  0  0  0  0  0  0  0
   48.7389    6.8664   20.8222 H   0  0  0  0  0  0  0  0  0  0  0  0
   48.4549    6.9201   17.7348 H   0  0  0  0  0  0  0  0  0  0  0  0
   48.3890    3.5880   19.9231 H   0  0  0  0  0  0  0  0  0  0  0  0
   48.7931   10.1991   18.6347 H   0  0  0  0  0  0  0  0  0  0  0  0
   49.6730    4.9690   23.7527 H   0  0  0  0  0  0  0  0  0  0  0  0
   51.3442    5.2088   21.9050 H   0  0  0  0  0  0  0  0  0  0  0  0
   46.6702    6.2458   20.9612 H   0  0  0  0  0  0  0  0  0  0  0  0
   47.2796    5.5146   23.2524 H   0  0  0  0  0  0  0  0  0  0  0  0
   48.9943    6.6601   16.9515 H   0  0  0  0  0  0  0  0  0  0  0  0
   50.2782    6.3743   18.0966 H   0  0  0  0  0  0  0  0  0  0  0  0
   47.4970    8.1769   17.8961 H   0  0  0  0  0  0  0  0  0  0  0  0
   47.1387    8.1864   19.6080 H   0  0  0  0  0  0  0  0  0  0  0  0
   49.8784    8.7843   18.3354 H   0  0  0  0  0  0  0  0  0  0  0  0
   49.6412    8.7011   20.0524 H   0  0  0  0  0  0  0  0  0  0  0  0
   48.5568   10.4700   21.2404 H   0  0  0  0  0  0  0  0  0  0  0  0
   47.9722   11.8827   20.3741 H   0  0  0  0  0  0  0  0  0  0  0  0
   47.0389   10.3773   20.3228 H   0  0  0  0  0  0  0  0  0  0  0  0
   48.1569   11.9729   17.9138 H   0  0  0  0  0  0  0  0  0  0  0  0
   47.1772   10.4991   17.7875 H   0  0  0  0  0  0  0  0  0  0  0  0
   48.7905   10.5866   17.0371 H   0  0  0  0  0  0  0  0  0  0  0  0
   46.9465    4.3492   17.4443 H   0  0  0  0  0  0  0  0  0  0  0  0
   47.4338    1.8181   16.8014 H   0  0  0  0  0  0  0  0  0  0  0  0
   50.0266    1.3499   16.7102 H   0  0  0  0  0  0  0  0  0  0  0  0
   50.2799    8.3295   20.9243 H   0  0  0  0  0  0  0  0  0  0  0  0
   49.2505    9.5580   20.1932 H   0  0  0  0  0  0  0  0  0  0  0  0
   47.5176    8.7498   25.3037 H   0  0  0  0  0  0  0  0  0  0  0  0
   46.4018    9.0579   21.1020 H   0  0  0  0  0  0  0  0  0  0  0  0
   48.9198    6.0836   21.1723 H   0  0  0  0  0  0  0  0  0  0  0  0
   50.0817    5.9060   19.8887 H   0  0  0  0  0  0  0  0  0  0  0  0
   45.5366    9.1491   23.6137 H   0  0  0  0  0  0  0  0  0  0  0  0
   47.0309    5.5163   19.6299 H   0  0  0  0  0  0  0  0  0  0  0  0
   48.1233    4.2137   20.0915 H   0  0  0  0  0  0  0  0  0  0  0  0
   47.3859    7.7894   17.4436 H   0  0  0  0  0  0  0  0  0  0  0  0
   52.2173    8.3956   17.0245 H   0  0  0  0  0  0  0  0  0  0  0  0
   46.1602    4.3425   17.7533 H   0  0  0  0  0  0  0  0  0  0  0  0
   47.2416    3.5993   16.5770 H   0  0  0  0  0  0  0  0  0  0  0  0
   47.1373    2.9314   18.2161 H   0  0  0  0  0  0  0  0  0  0  0  0
   50.3373    4.8663   17.9606 H   0  0  0  0  0  0  0  0  0  0  0  0
   49.6977    3.2690   18.4187 H   0  0  0  0  0  0  0  0  0  0  0  0
   49.6063    3.8577   16.7402 H   0  0  0  0  0  0  0  0  0  0  0  0
   48.3338    8.2930   15.1963 H   0  0  0  0  0  0  0  0  0  0  0  0
   50.8074    8.6157   14.9709 H   0  0  0  0  0  0  0  0  0  0  0  0
   47.6188    6.8588   18.1164 H   0  0  0  0  0  0  0  0  0  0  0  0
   49.6503    6.9401   20.4562 H   0  0  0  0  0  0  0  0  0  0  0  0
   48.9091    3.6974   18.2558 H   0  0  0  0  0  0  0  0  0  0  0  0
   48.3663   10.1009   20.3128 H   0  0  0  0  0  0  0  0  0  0  0  0
   47.9922    6.7523   17.9167 H   0  0  0  0  0  0  0  0  0  0  0  0
   49.3867    7.0599   20.6690 H   0  0  0  0  0  0  0  0  0  0  0  0
   49.1273    3.6124   18.6807 H   0  0  0  0  0  0  0  0  0  0  0  0
   48.2481   10.1983   19.9047 H   0  0  0  0  0  0  0  0  0  0  0  0
  2  4  1  0
  3  1  1  0
  4  3  2  0
  5  1  2  0
  6  2  2  0
  7  2  1  0
  8  1  1  0
 15 17  1  0
 12 15  1  0
 17 18  1  0
 11 12  1  0
 18 19  1  0
 15 16  1  0
 19 20  1  0
 19 21  1  0
 16 22  1  0
 23 24  1  0
 12 13  2  0
 10 11  2  0
 13 14  1  0
 22 23  2  0
 24 25  2  0
 25 26  1  0
 26 22  1  0
 14  9  2  0
  9 10  1  0
 28 27  1  0
 29 31  1  0
 30 29  1  0
 31 27  1  0
 32 28  2  0
 33 30  1  0
 34 29  2  0
 35 27  1  0
 36 34  1  0
 37 38  1  0
 38 35  1  0
 39 28  1  0
 40 32  1  0
 41 37  1  0
 42 37  1  0
 43 39  2  0
 44 40  2  0
 36 33  2  0
 43 44  1  0
 46 48  1  0
 47 45  1  0
 48 47  2  0
 49 45  2  0
 50 46  2  0
 51 46  1  0
 52 45  1  0
 54 56  1  0
 55 53  1  0
 56 55  2  0
 57 53  2  0
 58 54  2  0
 59 54  1  0
 60 53  1  0
  3 61  1  0
  4 62  1  0
  7 63  1  0
  8 64  1  0
  9 65  1  0
 10 66  1  0
 13 67  1  0
 14 68  1  0
 16 69  1  0
 16 70  1  0
 17 71  1  0
 17 72  1  0
 18 73  1  0
 18 74  1  0
 20 75  1  0
 20 76  1  0
 20 77  1  0
 21 78  1  0
 21 79  1  0
 21 80  1  0
 23 81  1  0
 24 82  1  0
 25 83  1  0
 31 84  1  0
 31 85  1  0
 33 86  1  0
 34 87  1  0
 35 88  1  0
 35 89  1  0
 36 90  1  0
 38 91  1  0
 38 92  1  0
 39 93  1  0
 40 94  1  0
 41 95  1  0
 41 96  1  0
 41 97  1  0
 42 98  1  0
 42 99  1  0
 42100  1  0
 43101  1  0
 44102  1  0
 47103  1  0
 48104  1  0
 51105  1  0
 52106  1  0
 55107  1  0
 56108  1  0
 59109  1  0
 60110  1  0
M  END
> <Uni-Dock RESULT> 
ENERGY=   -5.958  LOWER_BOUND=    2.604  UPPER_BOUND=    4.827
INTER + INTRA:          -5.958
INTER:                  -5.958
INTRA:                   0.000
UNBOUND:                 0.000

$$$$

     RDKit          3D

110109  0  0  0  0  0  0  0  0999 V2000
   48.6846    6.7079   20.7360 C   0  0  0  0  0  0  0  0  0  0  0  0
   47.6967   10.2993   19.8587 C   0  0  0  0  0  0  0  0  0  0  0  0
   48.4519    7.9575   20.0093 C   0  0  0  0  0  0  0  0  0  0  0  0
   47.9392    9.0522   20.5873 C   0  0  0  0  0  0  0  0  0  0  0  0
   49.1521    5.7002   20.2383 O   0  0  0  0  0  0  0  0  0  0  0  0
   47.2332   11.3080   20.3582 O   0  0  0  0  0  0  0  0  0  0  0  0
   48.0319   10.2438   18.5609 O   0  0  0  0  0  0  0  0  0  0  0  0
   48.3397    6.7606   22.0311 O   0  0  0  0  0  0  0  0  0  0  0  0
   49.6663    8.6507   16.6770 C   0  0  0  0  0  0  0  0  0  0  0  0
   50.3047    9.1434   17.8011 C   0  0  0  0  0  0  0  0  0  0  0  0
   49.7260    9.2301   19.0199 N   0  0  0  0  0  0  0  0  0  0  0  0
   48.4468    8.8152   19.1515 C   0  0  0  0  0  0  0  0  0  0  0  0
   47.7406    8.3053   18.0603 C   0  0  0  0  0  0  0  0  0  0  0  0
   48.3538    8.2214   16.8124 C   0  0  0  0  0  0  0  0  0  0  0  0
   47.8043    8.8858   20.4017 N   0  0  0  0  0  0  0  0  0  0  0  0
   48.3693    9.9089   21.3007 C   0  0  0  0  0  0  0  0  0  0  0  0
   47.5763    7.5595   21.0076 C   0  0  0  0  0  0  0  0  0  0  0  0
   48.8793    6.8458   21.4551 C   0  0  0  0  0  0  0  0  0  0  0  0
   48.7486    5.4886   22.0186 N   0  0  0  0  0  0  0  0  0  0  0  0
   48.3467    4.5019   21.0183 C   0  0  0  0  0  0  0  0  0  0  0  0
   47.8818    5.4365   23.1923 C   0  0  0  0  0  0  0  0  0  0  0  0
   47.9936   11.3257   20.9445 C   0  0  0  0  0  0  0  0  0  0  0  0
   46.7539   11.8108   20.5651 C   0  0  0  0  0  0  0  0  0  0  0  0
   46.7765   13.2119   20.3035 C   0  0  0  0  0  0  0  0  0  0  0  0
   48.0317   13.7492   20.4836 C   0  0  0  0  0  0  0  0  0  0  0  0
   49.1699   12.5736   20.9864 S   0  0  0  0  0  0  0  0  0  0  0  0
   48.4948    7.7704   20.2657 N   0  0  0  0  0  0  0  0  0  0  0  0
   48.7553    8.1702   21.6028 C   0  0  0  0  0  0  0  0  0  0  0  0
   48.8536    5.8018   18.7649 C   0  0  0  0  0  0  0  0  0  0  0  0
   49.9154    5.4463   17.4627 S   0  0  0  0  0  0  0  0  0  0  0  0
   49.3394    6.5954   19.9557 C   0  0  0  0  0  0  0  0  0  0  0  0
   50.0299    8.3366   22.0301 N   0  0  0  0  0  0  0  0  0  0  0  0
   48.6874    4.6085   16.6127 C   0  0  0  0  0  0  0  0  0  0  0  0
   47.5923    5.2746   18.5481 C   0  0  0  0  0  0  0  0  0  0  0  0
   48.7464    8.9115   19.3532 C   0  0  0  0  0  0  0  0  0  0  0  0
   47.4964    4.5856   17.3057 C   0  0  0  0  0  0  0  0  0  0  0  0
   47.2948   10.8187   20.3534 N   0  0  0  0  0  0  0  0  0  0  0  0
   47.5385    9.8810   19.2316 C   0  0  0  0  0  0  0  0  0  0  0  0
   47.6658    8.3496   22.4554 C   0  0  0  0  0  0  0  0  0  0  0  0
   50.2163    8.6996   23.3193 C   0  0  0  0  0  0  0  0  0  0  0  0
   46.0621   11.5732   20.1161 C   0  0  0  0  0  0  0  0  0  0  0  0
   48.4193   11.7385   20.5528 C   0  0  0  0  0  0  0  0  0  0  0  0
   47.8854    8.7203   23.7787 C   0  0  0  0  0  0  0  0  0  0  0  0
   49.1895    8.8996   24.2247 C   0  0  0  0  0  0  0  0  0  0  0  0
   47.7301    6.8021   21.0109 C   0  0  0  0  0  0  0  0  0  0  0  0
   48.7441   10.2087   19.5925 C   0  0  0  0  0  0  0  0  0  0  0  0
   47.7596    8.2288   20.6825 C   0  0  0  0  0  0  0  0  0  0  0  0
   48.7102    8.7807   19.9162 C   0  0  0  0  0  0  0  0  0  0  0  0
   46.8886    6.2764   21.7150 O   0  0  0  0  0  0  0  0  0  0  0  0
   49.5935   10.7366   18.8980 O   0  0  0  0  0  0  0  0  0  0  0  0
   47.7381   10.9120   20.1334 O   0  0  0  0  0  0  0  0  0  0  0  0
   48.7335    6.0986   20.4658 O   0  0  0  0  0  0  0  0  0  0  0  0
   47.7721    6.9723   21.3305 C   0  0  0  0  0  0  0  0  0  0  0  0
   48.8069   10.0416   19.2838 C   0  0  0  0  0  0  0  0  0  0  0  0
   47.8830    8.3389   20.8133 C   0  0  0  0  0  0  0  0  0  0  0  0
   48.6973    8.6754   19.8036 C   0  0  0  0  0  0  0  0  0  0  0  0
   47.0380    6.6429   22.2441 O   0  0  0  0  0  0  0  0  0  0  0  0
   49.5377   10.3728   18.3677 O   0  0  0  0  0  0  0  0  0  0  0  0
   48.0181   10.9271   19.9101 O   0  0  0  0  0  0  0  0  0  0  0  0
   48.5552    6.0850   20.6982 O   0  0  0  0  0  0  0  0  0  0  0  0
   48.7253    7.9281   18.9601 H   0  0  0  0  0  0  0  0  0  0  0  0
   47.6678    9.0831   21.6364 H   0  0  0  0  0  0  0  0  0  0  0  0
   47.8173   11.1394   18.2240 H   0  0  0  0  0  0  0  0  0  0  0  0
   48.5648    5.8686   22.3699 H   0  0  0  0  0  0  0  0  0  0  0  0
   50.1755    8.6105   15.7209 H   0  0  0  0  0  0  0  0  0  0  0  0
   51.3337    9.4948   17.7559 H   0  0  0  0  0  0  0  0  0  0  0  0
   46.7082    7.9988   18.1791 H   0  0  0  0  0  0  0  0  0  0  0  0
   47.8041    7.8383   15.9590 H   0  0  0  0  0  0  0  0  0  0  0  0
   47.9585    9.7449   22.3068 H   0  0  0  0  0  0  0  0  0  0  0  0
   49.4557    9.7950   21.4140 H   0  0  0  0  0  0  0  0  0  0  0  0
   46.9194    7.7029   21.8772 H   0  0  0  0  0  0  0  0  0  0  0  0
   47.0142    6.9216   20.3152 H   0  0  0  0  0  0  0  0  0  0  0  0
   49.3838    7.4719   22.2035 H   0  0  0  0  0  0  0  0  0  0  0  0
   49.5867    6.7959   20.6181 H   0  0  0  0  0  0  0  0  0  0  0  0
   49.0329    4.5149   20.1638 H   0  0  0  0  0  0  0  0  0  0  0  0
   48.3966    3.4922   21.4433 H   0  0  0  0  0  0  0  0  0  0  0  0
   47.3296    4.6606   20.6456 H   0  0  0  0  0  0  0  0  0  0  0  0
   47.9537    4.4548   23.6733 H   0  0  0  0  0  0  0  0  0  0  0  0
   46.8262    5.6161   22.9467 H   0  0  0  0  0  0  0  0  0  0  0  0
   48.1938    6.1759   23.9418 H   0  0  0  0  0  0  0  0  0  0  0  0
   45.8759   11.1788   20.4675 H   0  0  0  0  0  0  0  0  0  0  0  0
   45.9159   13.7926   19.9945 H   0  0  0  0  0  0  0  0  0  0  0  0
   48.3355   14.7783   20.3459 H   0  0  0  0  0  0  0  0  0  0  0  0
   50.3849    6.9014   19.8071 H   0  0  0  0  0  0  0  0  0  0  0  0
   49.3365    5.8961   20.8039 H   0  0  0  0  0  0  0  0  0  0  0  0
   48.8951    4.1719   15.6457 H   0  0  0  0  0  0  0  0  0  0  0  0
   46.7793    5.3851   19.2577 H   0  0  0  0  0  0  0  0  0  0  0  0
   48.9072    8.5185   18.3384 H   0  0  0  0  0  0  0  0  0  0  0  0
   49.6769    9.4392   19.5990 H   0  0  0  0  0  0  0  0  0  0  0  0
   46.6002    4.1005   16.9375 H   0  0  0  0  0  0  0  0  0  0  0  0
   46.6380    9.2654   19.0877 H   0  0  0  0  0  0  0  0  0  0  0  0
   47.6703   10.4596   18.3057 H   0  0  0  0  0  0  0  0  0  0  0  0
   46.6564    8.2095   22.0806 H   0  0  0  0  0  0  0  0  0  0  0  0
   51.2555    8.8330   23.6119 H   0  0  0  0  0  0  0  0  0  0  0  0
   45.1985   10.8972   20.0482 H   0  0  0  0  0  0  0  0  0  0  0  0
   45.8592   12.2606   20.9483 H   0  0  0  0  0  0  0  0  0  0  0  0
   46.1090   12.1637   19.1956 H   0  0  0  0  0  0  0  0  0  0  0  0
   49.3206   11.2038   20.8730 H   0  0  0  0  0  0  0  0  0  0  0  0
   48.6567   12.3062   19.6423 H   0  0  0  0  0  0  0  0  0  0  0  0
   48.2006   12.4494   21.3580 H   0  0  0  0  0  0  0  0  0  0  0  0
   47.0446    8.8740   24.4492 H   0  0  0  0  0  0  0  0  0  0  0  0
   49.3978    9.1868   25.2482 H   0  0  0  0  0  0  0  0  0  0  0  0
   46.9555    8.8102   21.1200 H   0  0  0  0  0  0  0  0  0  0  0  0
   49.5152    8.1991   19.4822 H   0  0  0  0  0  0  0  0  0  0  0  0
   47.9018   11.8299   19.8297 H   0  0  0  0  0  0  0  0  0  0  0  0
   48.5739    5.1829   20.7769 H   0  0  0  0  0  0  0  0  0  0  0  0
   47.2521    9.0631   21.3167 H   0  0  0  0  0  0  0  0  0  0  0  0
   49.3289    7.9515   19.3004 H   0  0  0  0  0  0  0  0  0  0  0  0
   48.2114   11.7767   19.4600 H   0  0  0  0  0  0  0  0  0  0  0  0
   48.3661    5.2387   21.1561 H   0  0  0  0  0  0  0  0  0  0  0  0
  2  4  1  0
  3  1  1  0
  4  3  2  0
  5  1  2  0
  6  2  2  0
  7  2  1  0
  8  1  1  0
 15 17  1  0
 12 15  1  0
 17 18  1  0
 11 12  1  0
 18 19  1  0
 15 16  1  0
 19 20  1  0
 19 21  1  0
 16 22  1  0
 23 24  1  0
 12 13  2  0
 10 11  2  0
 13 14  1  0
 22 23  2  0
 24 25  2  0
 25 26  1  0
 26 22  1  0
 14  9  2  0
  9 10  1  0
 28 27  1  0
 29 31  1  0
 30 29  1  0
 31 27  1  0
 32 28  2  0
 33 30  1  0
 34 29  2  0
 35 27  1  0
 36 34  1  0
 37 38  1  0
 38 35  1  0
 39 28  1  0
 40 32  1  0
 41 37  1  0
 42 37  1  0
 43 39  2  0
 44 40  2  0
 36 33  2  0
 43 44  1  0
 46 48  1  0
 47 45  1  0
 48 47  2  0
 49 45  2  0
 50 46  2  0
 51 46  1  0
 52 45  1  0
 54 56  1  0
 55 53  1  0
 56 55  2  0
 57 53  2  0
 58 54  2  0
 59 54  1  0
 60 53  1  0
  3 61  1  0
  4 62  1  0
  7 63  1  0
  8 64  1  0
  9 65  1  0
 10 66  1  0
 13 67  1  0
 14 68  1  0
 16 69  1  0
 16 70  1  0
 17 71  1  0
 17 72  1  0
 18 73  1  0
 18 74  1  0
 20 75  1  0
 20 76  1  0
 20 77  1  0
 21 78  1  0
 21 79  1  0
 21 80  1  0
 23 81  1  0
 24 82  1  0
 25 83  1  0
 31 84  1  0
 31 85  1  0
 33 86  1  0
 34 87  1  0
 35 88  1  0
 35 89  1  0
 36 90  1  0
 38 91  1  0
 38 92  1  0
 39 93  1  0
 40 94  1  0
 41 95  1  0
 41 96  1  0
 41 97  1  0
 42 98  1  0
 42 99  1  0
 42100  1  0
 43101  1  0
 44102  1  0
 47103  1  0
 48104  1  0
 51105  1  0
 52106  1  0
 55107  1  0
 56108  1  0
 59109  1  0
 60110  1  0
M  END
> <Uni-Dock RESULT> 
ENERGY=   -5.930  LOWER_BOUND=    3.426  UPPER_BOUND=    5.876
INTER + INTRA:          -5.930
INTER:                  -5.930
INTRA:                   0.000
UNBOUND:                 0.000

$$$$

     RDKit          3D

110109  0  0  0  0  0  0  0  0999 V2000
   48.8789    8.7607   19.1510 C   0  0  0  0  0  0  0  0  0  0  0  0
   48.8857    7.3822   15.5812 C   0  0  0  0  0  0  0  0  0  0  0  0
   49.0114    7.8738   17.9936 C   0  0  0  0  0  0  0  0  0  0  0  0
   48.7632    8.2715   16.7384 C   0  0  0  0  0  0  0  0  0  0  0  0
   49.1012    8.4282   20.3007 O   0  0  0  0  0  0  0  0  0  0  0  0
   48.6673    7.7167   14.4313 O   0  0  0  0  0  0  0  0  0  0  0  0
   49.2659    6.1342   15.8935 O   0  0  0  0  0  0  0  0  0  0  0  0
   48.4888   10.0055   18.8394 O   0  0  0  0  0  0  0  0  0  0  0  0
   50.5417    4.6011   18.0799 C   0  0  0  0  0  0  0  0  0  0  0  0
   51.2221    5.7103   17.6102 C   0  0  0  0  0  0  0  0  0  0  0  0
   50.6191    6.8553   17.2190 N   0  0  0  0  0  0  0  0  0  0  0  0
   49.2712    6.9233   17.2859 C   0  0  0  0  0  0  0  0  0  0  0  0
   48.5191    5.8429   17.7511 C   0  0  0  0  0  0  0  0  0  0  0  0
   49.1578    4.6717   18.1520 C   0  0  0  0  0  0  0  0  0  0  0  0
   48.6007    8.0959   16.8903 N   0  0  0  0  0  0  0  0  0  0  0  0
   49.3574    8.9132   15.9242 C   0  0  0  0  0  0  0  0  0  0  0  0
   48.0104    8.8323   18.0250 C   0  0  0  0  0  0  0  0  0  0  0  0
   49.0628    9.4726   18.9683 C   0  0  0  0  0  0  0  0  0  0  0  0
   48.5609   10.1791   20.1623 N   0  0  0  0  0  0  0  0  0  0  0  0
   47.9764    9.2715   21.1472 C   0  0  0  0  0  0  0  0  0  0  0  0
   47.6468   11.2710   19.8399 C   0  0  0  0  0  0  0  0  0  0  0  0
   49.3742    8.3606   14.5207 C   0  0  0  0  0  0  0  0  0  0  0  0
   48.3211    7.8203   13.8030 C   0  0  0  0  0  0  0  0  0  0  0  0
   48.7133    7.3977   12.4993 C   0  0  0  0  0  0  0  0  0  0  0  0
   50.0521    7.6213   12.2665 C   0  0  0  0  0  0  0  0  0  0  0  0
   50.8250    8.3567   13.6053 S   0  0  0  0  0  0  0  0  0  0  0  0
   48.9913    8.1533   18.1487 N   0  0  0  0  0  0  0  0  0  0  0  0
   49.2718    9.4512   17.6465 C   0  0  0  0  0  0  0  0  0  0  0  0
   48.9190    6.9327   20.3309 C   0  0  0  0  0  0  0  0  0  0  0  0
   49.9248    5.7790   21.1097 S   0  0  0  0  0  0  0  0  0  0  0  0
   49.5250    8.0590   19.5258 C   0  0  0  0  0  0  0  0  0  0  0  0
   50.5215    9.9650   17.7408 N   0  0  0  0  0  0  0  0  0  0  0  0
   48.5723    4.9306   21.7289 C   0  0  0  0  0  0  0  0  0  0  0  0
   47.5789    6.6711   20.5574 C   0  0  0  0  0  0  0  0  0  0  0  0
   49.5740    7.1376   17.2394 C   0  0  0  0  0  0  0  0  0  0  0  0
   47.3787    5.5153   21.3647 C   0  0  0  0  0  0  0  0  0  0  0  0
   48.6027    7.7752   14.9167 N   0  0  0  0  0  0  0  0  0  0  0  0
   48.6608    6.7976   16.0294 C   0  0  0  0  0  0  0  0  0  0  0  0
   48.2189   10.1787   17.0912 C   0  0  0  0  0  0  0  0  0  0  0  0
   50.7236   11.2135   17.2624 C   0  0  0  0  0  0  0  0  0  0  0  0
   47.6171    7.3441   13.9228 C   0  0  0  0  0  0  0  0  0  0  0  0
   49.9115    7.9614   14.2822 C   0  0  0  0  0  0  0  0  0  0  0  0
   48.4531   11.4629   16.6088 C   0  0  0  0  0  0  0  0  0  0  0  0
   49.7337   11.9962   16.6955 C   0  0  0  0  0  0  0  0  0  0  0  0
   47.9662    8.9385   18.7892 C   0  0  0  0  0  0  0  0  0  0  0  0
   49.8885    7.2207   15.9611 C   0  0  0  0  0  0  0  0  0  0  0  0
   48.3752    8.4474   17.4717 C   0  0  0  0  0  0  0  0  0  0  0  0
   49.4752    7.7068   17.2794 C   0  0  0  0  0  0  0  0  0  0  0  0
   46.9816    9.6240   18.9918 O   0  0  0  0  0  0  0  0  0  0  0  0
   50.8807    6.5450   15.7571 O   0  0  0  0  0  0  0  0  0  0  0  0
   49.0665    7.5850   14.9657 O   0  0  0  0  0  0  0  0  0  0  0  0
   48.7859    8.5697   19.7846 O   0  0  0  0  0  0  0  0  0  0  0  0
   48.0326    9.2381   18.5926 C   0  0  0  0  0  0  0  0  0  0  0  0
   49.9235    6.9405   16.1790 C   0  0  0  0  0  0  0  0  0  0  0  0
   48.5153    8.5745   17.3785 C   0  0  0  0  0  0  0  0  0  0  0  0
   49.4421    7.6067   17.3926 C   0  0  0  0  0  0  0  0  0  0  0  0
   47.1903   10.1170   18.6044 O   0  0  0  0  0  0  0  0  0  0  0  0
   50.7632    6.0587   16.1650 O   0  0  0  0  0  0  0  0  0  0  0  0
   49.3528    7.3867   15.0503 O   0  0  0  0  0  0  0  0  0  0  0  0
   48.5976    8.7856   19.7224 O   0  0  0  0  0  0  0  0  0  0  0  0
   49.3251    6.8632   18.2318 H   0  0  0  0  0  0  0  0  0  0  0  0
   48.4518    9.2820   16.4992 H   0  0  0  0  0  0  0  0  0  0  0  0
   49.3046    5.6763   15.0272 H   0  0  0  0  0  0  0  0  0  0  0  0
   48.4609   10.4657   19.7046 H   0  0  0  0  0  0  0  0  0  0  0  0
   51.0752    3.7044   18.3736 H   0  0  0  0  0  0  0  0  0  0  0  0
   52.3075    5.7134   17.5312 H   0  0  0  0  0  0  0  0  0  0  0  0
   47.4378    5.9070   17.7762 H   0  0  0  0  0  0  0  0  0  0  0  0
   48.5761    3.8252   18.5013 H   0  0  0  0  0  0  0  0  0  0  0  0
   48.8643    9.8922   15.8438 H   0  0  0  0  0  0  0  0  0  0  0  0
   50.3713    9.1332   16.2843 H   0  0  0  0  0  0  0  0  0  0  0  0
   47.3652    9.6184   17.6079 H   0  0  0  0  0  0  0  0  0  0  0  0
   47.3432    8.1740   18.5939 H   0  0  0  0  0  0  0  0  0  0  0  0
   49.6683   10.1826   18.3890 H   0  0  0  0  0  0  0  0  0  0  0  0
   49.7787    8.7120   19.3037 H   0  0  0  0  0  0  0  0  0  0  0  0
   48.6889    8.4843   21.4194 H   0  0  0  0  0  0  0  0  0  0  0  0
   47.7448    9.8156   22.0707 H   0  0  0  0  0  0  0  0  0  0  0  0
   47.0549    8.7956   20.7966 H   0  0  0  0  0  0  0  0  0  0  0  0
   47.4405   11.8692   20.7343 H   0  0  0  0  0  0  0  0  0  0  0  0
   46.6865   10.9150   19.4423 H   0  0  0  0  0  0  0  0  0  0  0  0
   48.0952   11.9520   19.1044 H   0  0  0  0  0  0  0  0  0  0  0  0
   47.3179    7.7221   14.2078 H   0  0  0  0  0  0  0  0  0  0  0  0
   48.0467    6.9486   11.7732 H   0  0  0  0  0  0  0  0  0  0  0  0
   50.6146    7.3899   11.3719 H   0  0  0  0  0  0  0  0  0  0  0  0
   50.6205    7.9666   19.5085 H   0  0  0  0  0  0  0  0  0  0  0  0
   49.2983    8.9804   20.0808 H   0  0  0  0  0  0  0  0  0  0  0  0
   48.7145    4.0437   22.3307 H   0  0  0  0  0  0  0  0  0  0  0  0
   46.7833    7.2893   20.1555 H   0  0  0  0  0  0  0  0  0  0  0  0
   49.6846    6.1942   17.7944 H   0  0  0  0  0  0  0  0  0  0  0  0
   50.5932    7.3992   16.9274 H   0  0  0  0  0  0  0  0  0  0  0  0
   46.4101    5.1305   21.6608 H   0  0  0  0  0  0  0  0  0  0  0  0
   47.6426    6.6498   16.4193 H   0  0  0  0  0  0  0  0  0  0  0  0
   48.9855    5.8248   15.6326 H   0  0  0  0  0  0  0  0  0  0  0  0
   47.2289    9.7369   17.0295 H   0  0  0  0  0  0  0  0  0  0  0  0
   51.7451   11.5775   17.3491 H   0  0  0  0  0  0  0  0  0  0  0  0
   46.6150    7.2819   14.3693 H   0  0  0  0  0  0  0  0  0  0  0  0
   47.5507    8.0684   13.0999 H   0  0  0  0  0  0  0  0  0  0  0  0
   47.8626    6.3678   13.4930 H   0  0  0  0  0  0  0  0  0  0  0  0
   50.6285    8.4196   14.9726 H   0  0  0  0  0  0  0  0  0  0  0  0
   50.3346    7.0142   13.9195 H   0  0  0  0  0  0  0  0  0  0  0  0
   49.8372    8.6548   13.4365 H   0  0  0  0  0  0  0  0  0  0  0  0
   47.6438   12.0349   16.1638 H   0  0  0  0  0  0  0  0  0  0  0  0
   49.9521   12.9927   16.3313 H   0  0  0  0  0  0  0  0  0  0  0  0
   47.7228    8.7416   16.6571 H   0  0  0  0  0  0  0  0  0  0  0  0
   50.1283    7.4162   18.0940 H   0  0  0  0  0  0  0  0  0  0  0  0
   49.4744    7.1903   14.1662 H   0  0  0  0  0  0  0  0  0  0  0  0
   48.3821    8.9719   20.5821 H   0  0  0  0  0  0  0  0  0  0  0  0
   48.0627    8.9320   16.4602 H   0  0  0  0  0  0  0  0  0  0  0  0
   49.8953    7.2494   18.3108 H   0  0  0  0  0  0  0  0  0  0  0  0
   49.7799    6.8578   14.3435 H   0  0  0  0  0  0  0  0  0  0  0  0
   48.1749    9.3223   20.4260 H   0  0  0  0  0  0  0  0  0  0  0  0
  2  4  1  0
  3  1  1  0
  4  3  2  0
  5  1  2  0
  6  2  2  0
  7  2  1  0
  8  1  1  0
 15 17  1  0
 12 15  1  0
 17 18  1  0
 11 12  1  0
 18 19  1  0
 15 16  1  0
 19 20  1  0
 19 21  1  0
 16 22  1  0
 23 24  1  0
 12 13  2  0
 10 11  2  0
 13 14  1  0
 22 23  2  0
 24 25  2  0
 25 26  1  0
 26 22  1  0
 14  9  2  0
  9 10  1  0
 28 27  1  0
 29 31  1  0
 30 29  1  0
 31 27  1  0
 32 28  2  0
 33 30  1  0
 34 29  2  0
 35 27  1  0
 36 34  1  0
 37 38  1  0
 38 35  1  0
 39 28  1  0
 40 32  1  0
 41 37  1  0
 42 37  1  0
 43 39  2  0
 44 40  2  0
 36 33  2  0
 43 44  1  0
 46 48  1  0
 47 45  1  0
 48 47  2  0
 49 45  2  0
 50 46  2  0
 51 46  1  0
 52 45  1  0
 54 56  1  0
 55 53  1  0
 56 55  2  0
 57 53  2  0
 58 54  2  0
 59 54  1  0
 60 53  1  0
  3 61  1  0
  4 62  1  0
  7 63  1  0
  8 64  1  0
  9 65  1  0
 10 66  1  0
 13 67  1  0
 14 68  1  0
 16 69  1  0
 16 70  1  0
 17 71  1  0
 17 72  1  0
 18 73  1  0
 18 74  1  0
 20 75  1  0
 20 76  1  0
 20 77  1  0
 21 78  1  0
 21 79  1  0
 21 80  1  0
 23 81  1  0
 24 82  1  0
 25 83  1  0
 31 84  1  0
 31 85  1  0
 33 86  1  0
 34 87  1  0
 35 88  1  0
 35 89  1  0
 36 90  1  0
 38 91  1  0
 38 92  1  0
 39 93  1  0
 40 94  1  0
 41 95  1  0
 41 96  1  0
 41 97  1  0
 42 98  1  0
 42 99  1  0
 42100  1  0
 43101  1  0
 44102  1  0
 47103  1  0
 48104  1  0
 51105  1  0
 52106  1  0
 55107  1  0
 56108  1  0
 59109  1  0
 60110  1  0
M  END
> <Uni-Dock RESULT> 
ENERGY=   -5.891  LOWER_BOUND=    3.393  UPPER_BOUND=    5.106
INTER + INTRA:          -5.891
INTER:                  -5.891
INTRA:                   0.000
UNBOUND:                 0.000

$$$$

     RDKit          3D

110109  0  0  0  0  0  0  0  0999 V2000
   51.5376    8.6302   15.0958 C   0  0  0  0  0  0  0  0  0  0  0  0
   48.6037    7.5843   12.8727 C   0  0  0  0  0  0  0  0  0  0  0  0
   50.6820    8.3778   13.9348 C   0  0  0  0  0  0  0  0  0  0  0  0
   49.4560    7.8464   14.0344 C   0  0  0  0  0  0  0  0  0  0  0  0
   52.6526    9.1148   15.0356 O   0  0  0  0  0  0  0  0  0  0  0  0
   47.4870    7.1036   12.9342 O   0  0  0  0  0  0  0  0  0  0  0  0
   49.1637    7.9218   11.7013 O   0  0  0  0  0  0  0  0  0  0  0  0
   50.9814    8.2830   16.2659 O   0  0  0  0  0  0  0  0  0  0  0  0
   51.3473    9.5843   10.5939 C   0  0  0  0  0  0  0  0  0  0  0  0
   50.4396   10.2132   11.4273 C   0  0  0  0  0  0  0  0  0  0  0  0
   49.8860    9.6318   12.5151 N   0  0  0  0  0  0  0  0  0  0  0  0
   50.2346    8.3595   12.8073 C   0  0  0  0  0  0  0  0  0  0  0  0
   51.1462    7.6630   12.0114 C   0  0  0  0  0  0  0  0  0  0  0  0
   51.7082    8.2789   10.8955 C   0  0  0  0  0  0  0  0  0  0  0  0
   49.6844    7.7145   13.9307 N   0  0  0  0  0  0  0  0  0  0  0  0
   48.3802    8.2615   14.3477 C   0  0  0  0  0  0  0  0  0  0  0  0
   50.6655    7.5077   15.0138 C   0  0  0  0  0  0  0  0  0  0  0  0
   51.1230    8.8218   15.7003 C   0  0  0  0  0  0  0  0  0  0  0  0
   52.1477    8.7127   16.7562 N   0  0  0  0  0  0  0  0  0  0  0  0
   53.4560    8.3283   16.2310 C   0  0  0  0  0  0  0  0  0  0  0  0
   51.7439    7.8456   17.8592 C   0  0  0  0  0  0  0  0  0  0  0  0
   47.2266    7.8630   13.4613 C   0  0  0  0  0  0  0  0  0  0  0  0
   46.9508    6.6160   12.9275 C   0  0  0  0  0  0  0  0  0  0  0  0
   45.7680    6.6157   12.1321 C   0  0  0  0  0  0  0  0  0  0  0  0
   45.1838    7.8617   12.0776 C   0  0  0  0  0  0  0  0  0  0  0  0
   46.0461    9.0186   12.9988 S   0  0  0  0  0  0  0  0  0  0  0  0
   50.7515    8.4234   14.2440 N   0  0  0  0  0  0  0  0  0  0  0  0
   49.8506    8.6758   15.3118 C   0  0  0  0  0  0  0  0  0  0  0  0
   53.1479    8.8162   13.6442 C   0  0  0  0  0  0  0  0  0  0  0  0
   53.9737    9.8852   12.5836 S   0  0  0  0  0  0  0  0  0  0  0  0
   51.9399    9.2876   14.4204 C   0  0  0  0  0  0  0  0  0  0  0  0
   49.5087    9.9470   15.6312 N   0  0  0  0  0  0  0  0  0  0  0  0
   55.0987    8.6721   12.1419 C   0  0  0  0  0  0  0  0  0  0  0  0
   53.7373    7.5641   13.6610 C   0  0  0  0  0  0  0  0  0  0  0  0
   50.0616    8.6573   12.9527 C   0  0  0  0  0  0  0  0  0  0  0  0
   54.8637    7.4809   12.7938 C   0  0  0  0  0  0  0  0  0  0  0  0
   47.9371    7.1733   13.1233 N   0  0  0  0  0  0  0  0  0  0  0  0
   49.2386    7.4337   12.4635 C   0  0  0  0  0  0  0  0  0  0  0  0
   49.3650    7.5825   16.0295 C   0  0  0  0  0  0  0  0  0  0  0  0
   48.6617   10.1260   16.6700 C   0  0  0  0  0  0  0  0  0  0  0  0
   47.3577    5.9286   12.6133 C   0  0  0  0  0  0  0  0  0  0  0  0
   46.9962    8.2823   12.9358 C   0  0  0  0  0  0  0  0  0  0  0  0
   48.4969    7.7946   17.0964 C   0  0  0  0  0  0  0  0  0  0  0  0
   48.1353    9.0950   17.4277 C   0  0  0  0  0  0  0  0  0  0  0  0
   51.3570    7.6739   15.3161 C   0  0  0  0  0  0  0  0  0  0  0  0
   48.7761    8.6333   12.6585 C   0  0  0  0  0  0  0  0  0  0  0  0
   50.1770    7.6803   14.4491 C   0  0  0  0  0  0  0  0  0  0  0  0
   49.9592    8.6226   13.5217 C   0  0  0  0  0  0  0  0  0  0  0  0
   51.5737    6.8404   16.1755 O   0  0  0  0  0  0  0  0  0  0  0  0
   48.5534    9.4747   11.8070 O   0  0  0  0  0  0  0  0  0  0  0  0
   47.9317    7.6153   12.8819 O   0  0  0  0  0  0  0  0  0  0  0  0
   52.2032    8.6893   15.0889 O   0  0  0  0  0  0  0  0  0  0  0  0
   51.0735    7.7127   15.5419 C   0  0  0  0  0  0  0  0  0  0  0  0
   49.0509    8.6992   12.4409 C   0  0  0  0  0  0  0  0  0  0  0  0
   50.0222    7.8018   14.5249 C   0  0  0  0  0  0  0  0  0  0  0  0
   50.1007    8.6115   13.4600 C   0  0  0  0  0  0  0  0  0  0  0  0
   51.0253    6.9831   16.5152 O   0  0  0  0  0  0  0  0  0  0  0  0
   49.0984    9.4255   11.4646 O   0  0  0  0  0  0  0  0  0  0  0  0
   48.0020    7.8952   12.6694 O   0  0  0  0  0  0  0  0  0  0  0  0
   52.1264    8.5111   15.3086 O   0  0  0  0  0  0  0  0  0  0  0  0
   51.1206    8.6528   12.9816 H   0  0  0  0  0  0  0  0  0  0  0  0
   49.0162    7.5734   14.9870 H   0  0  0  0  0  0  0  0  0  0  0  0
   48.4784    7.6928   11.0383 H   0  0  0  0  0  0  0  0  0  0  0  0
   51.6624    8.5223   16.9292 H   0  0  0  0  0  0  0  0  0  0  0  0
   51.7552   10.0952    9.7292 H   0  0  0  0  0  0  0  0  0  0  0  0
   50.1189   11.2364   11.2409 H   0  0  0  0  0  0  0  0  0  0  0  0
   51.3965    6.6356   12.2476 H   0  0  0  0  0  0  0  0  0  0  0  0
   52.4065    7.7366   10.2668 H   0  0  0  0  0  0  0  0  0  0  0  0
   48.1384    7.8524   15.3387 H   0  0  0  0  0  0  0  0  0  0  0  0
   48.4230    9.3496   14.4909 H   0  0  0  0  0  0  0  0  0  0  0  0
   50.1995    6.8475   15.7590 H   0  0  0  0  0  0  0  0  0  0  0  0
   51.5341    6.9569   14.6340 H   0  0  0  0  0  0  0  0  0  0  0  0
   50.2439    9.3150   16.1366 H   0  0  0  0  0  0  0  0  0  0  0  0
   51.4895    9.5308   14.9478 H   0  0  0  0  0  0  0  0  0  0  0  0
   53.7721    9.0152   15.4375 H   0  0  0  0  0  0  0  0  0  0  0  0
   54.2138    8.3943   17.0210 H   0  0  0  0  0  0  0  0  0  0  0  0
   53.4740    7.3091   15.8314 H   0  0  0  0  0  0  0  0  0  0  0  0
   52.4533    7.9331   18.6894 H   0  0  0  0  0  0  0  0  0  0  0  0
   51.6927    6.7875   17.5683 H   0  0  0  0  0  0  0  0  0  0  0  0
   50.7632    8.1445   18.2526 H   0  0  0  0  0  0  0  0  0  0  0  0
   47.5834    5.7485   13.0932 H   0  0  0  0  0  0  0  0  0  0  0  0
   45.3707    5.7460   11.6230 H   0  0  0  0  0  0  0  0  0  0  0  0
   44.2889    8.1487   11.5418 H   0  0  0  0  0  0  0  0  0  0  0  0
   51.7016   10.3281   14.1569 H   0  0  0  0  0  0  0  0  0  0  0  0
   52.2458    9.2952   15.4762 H   0  0  0  0  0  0  0  0  0  0  0  0
   55.8795    8.8881   11.4259 H   0  0  0  0  0  0  0  0  0  0  0  0
   53.3674    6.7486   14.2731 H   0  0  0  0  0  0  0  0  0  0  0  0
   50.8221    8.8256   12.1759 H   0  0  0  0  0  0  0  0  0  0  0  0
   49.4654    9.5786   12.9642 H   0  0  0  0  0  0  0  0  0  0  0  0
   55.4688    6.5932   12.6528 H   0  0  0  0  0  0  0  0  0  0  0  0
   49.8748    6.5436   12.5803 H   0  0  0  0  0  0  0  0  0  0  0  0
   49.0724    7.5570   11.3835 H   0  0  0  0  0  0  0  0  0  0  0  0
   49.6579    6.5760   15.7465 H   0  0  0  0  0  0  0  0  0  0  0  0
   48.4071   11.1625   16.8802 H   0  0  0  0  0  0  0  0  0  0  0  0
   48.0186    5.0764   12.8235 H   0  0  0  0  0  0  0  0  0  0  0  0
   46.4000    5.7136   13.1061 H   0  0  0  0  0  0  0  0  0  0  0  0
   47.1797    5.9668   11.5339 H   0  0  0  0  0  0  0  0  0  0  0  0
   47.3461    9.1919   13.4366 H   0  0  0  0  0  0  0  0  0  0  0  0
   46.8322    8.5114   11.8735 H   0  0  0  0  0  0  0  0  0  0  0  0
   46.0279    8.0510   13.3946 H   0  0  0  0  0  0  0  0  0  0  0  0
   48.1032    6.9505   17.6558 H   0  0  0  0  0  0  0  0  0  0  0  0
   47.4629    9.2974   18.2525 H   0  0  0  0  0  0  0  0  0  0  0  0
   49.4824    6.8663   14.6249 H   0  0  0  0  0  0  0  0  0  0  0  0
   50.6526    9.4375   13.3492 H   0  0  0  0  0  0  0  0  0  0  0  0
   47.2070    7.7642   12.2385 H   0  0  0  0  0  0  0  0  0  0  0  0
   52.9230    8.5445   15.7383 H   0  0  0  0  0  0  0  0  0  0  0  0
   49.1677    7.1584   14.7037 H   0  0  0  0  0  0  0  0  0  0  0  0
   50.9548    9.2555   13.2814 H   0  0  0  0  0  0  0  0  0  0  0  0
   47.3974    8.0750   11.9184 H   0  0  0  0  0  0  0  0  0  0  0  0
   52.7248    8.3354   16.0654 H   0  0  0  0  0  0  0  0  0  0  0  0
  2  4  1  0
  3  1  1  0
  4  3  2  0
  5  1  2  0
  6  2  2  0
  7  2  1  0
  8  1  1  0
 15 17  1  0
 12 15  1  0
 17 18  1  0
 11 12  1  0
 18 19  1  0
 15 16  1  0
 19 20  1  0
 19 21  1  0
 16 22  1  0
 23 24  1  0
 12 13  2  0
 10 11  2  0
 13 14  1  0
 22 23  2  0
 24 25  2  0
 25 26  1  0
 26 22  1  0
 14  9  2  0
  9 10  1  0
 28 27  1  0
 29 31  1  0
 30 29  1  0
 31 27  1  0
 32 28  2  0
 33 30  1  0
 34 29  2  0
 35 27  1  0
 36 34  1  0
 37 38  1  0
 38 35  1  0
 39 28  1  0
 40 32  1  0
 41 37  1  0
 42 37  1  0
 43 39  2  0
 44 40  2  0
 36 33  2  0
 43 44  1  0
 46 48  1  0
 47 45  1  0
 48 47  2  0
 49 45  2  0
 50 46  2  0
 51 46  1  0
 52 45  1  0
 54 56  1  0
 55 53  1  0
 56 55  2  0
 57 53  2  0
 58 54  2  0
 59 54  1  0
 60 53  1  0
  3 61  1  0
  4 62  1  0
  7 63  1  0
  8 64  1  0
  9 65  1  0
 10 66  1  0
 13 67  1  0
 14 68  1  0
 16 69  1  0
 16 70  1  0
 17 71  1  0
 17 72  1  0
 18 73  1  0
 18 74  1  0
 20 75  1  0
 20 76  1  0
 20 77  1  0
 21 78  1  0
 21 79  1  0
 21 80  1  0
 23 81  1  0
 24 82  1  0
 25 83  1  0
 31 84  1  0
 31 85  1  0
 33 86  1  0
 34 87  1  0
 35 88  1  0
 35 89  1  0
 36 90  1  0
 38 91  1  0
 38 92  1  0
 39 93  1  0
 40 94  1  0
 41 95  1  0
 41 96  1  0
 41 97  1  0
 42 98  1  0
 42 99  1  0
 42100  1  0
 43101  1  0
 44102  1  0
 47103  1  0
 48104  1  0
 51105  1  0
 52106  1  0
 55107  1  0
 56108  1  0
 59109  1  0
 60110  1  0
M  END
> <Uni-Dock RESULT> 
ENERGY=   -5.427  LOWER_BOUND=    4.417  UPPER_BOUND=    6.318
INTER + INTRA:          -5.427
INTER:                  -5.427
INTRA:                   0.000
UNBOUND:                 0.000

$$$$

     RDKit          3D

110109  0  0  0  0  0  0  0  0999 V2000
   48.9727    6.8285   17.9548 C   0  0  0  0  0  0  0  0  0  0  0  0
   47.8352   10.3319   18.9918 C   0  0  0  0  0  0  0  0  0  0  0  0
   48.7093    8.2687   17.9643 C   0  0  0  0  0  0  0  0  0  0  0  0
   48.1081    8.8931   18.9860 C   0  0  0  0  0  0  0  0  0  0  0  0
   49.5199    6.2358   17.0432 O   0  0  0  0  0  0  0  0  0  0  0  0
   47.2917   10.9246   19.9058 O   0  0  0  0  0  0  0  0  0  0  0  0
   48.2393   10.9657   17.8807 O   0  0  0  0  0  0  0  0  0  0  0  0
   48.5592    6.1936   19.0615 O   0  0  0  0  0  0  0  0  0  0  0  0
   50.0536   10.6169   15.5688 C   0  0  0  0  0  0  0  0  0  0  0  0
   50.6052   10.4667   16.8286 C   0  0  0  0  0  0  0  0  0  0  0  0
   49.9607    9.8957   17.8709 N   0  0  0  0  0  0  0  0  0  0  0  0
   48.7012    9.4470   17.6758 C   0  0  0  0  0  0  0  0  0  0  0  0
   48.0812    9.5640   16.4302 C   0  0  0  0  0  0  0  0  0  0  0  0
   48.7615   10.1532   15.3670 C   0  0  0  0  0  0  0  0  0  0  0  0
   47.9923    8.8446   18.7319 N   0  0  0  0  0  0  0  0  0  0  0  0
   48.4531    9.2628   20.0686 C   0  0  0  0  0  0  0  0  0  0  0  0
   47.8067    7.3922   18.5463 C   0  0  0  0  0  0  0  0  0  0  0  0
   49.1222    6.5766   18.6536 C   0  0  0  0  0  0  0  0  0  0  0  0
   49.0375    5.1219   18.4229 N   0  0  0  0  0  0  0  0  0  0  0  0
   48.7426    4.7906   17.0305 C   0  0  0  0  0  0  0  0  0  0  0  0
   48.1157    4.4499   19.3341 C   0  0  0  0  0  0  0  0  0  0  0  0
   48.0189   10.6506   20.4702 C   0  0  0  0  0  0  0  0  0  0  0  0
   46.7755   11.2369   20.3075 C   0  0  0  0  0  0  0  0  0  0  0  0
   46.7344   12.5700   20.8105 C   0  0  0  0  0  0  0  0  0  0  0  0
   47.9472   12.9610   21.3329 C   0  0  0  0  0  0  0  0  0  0  0  0
   49.1210   11.7186   21.2365 S   0  0  0  0  0  0  0  0  0  0  0  0
   48.7491    7.9766   18.0893 N   0  0  0  0  0  0  0  0  0  0  0  0
   48.9182    7.6287   19.4553 C   0  0  0  0  0  0  0  0  0  0  0  0
   49.2925    7.0821   15.8174 C   0  0  0  0  0  0  0  0  0  0  0  0
   50.4378    7.4766   14.6001 S   0  0  0  0  0  0  0  0  0  0  0  0
   49.6720    7.1511   17.2786 C   0  0  0  0  0  0  0  0  0  0  0  0
   50.1579    7.5746   19.9982 N   0  0  0  0  0  0  0  0  0  0  0  0
   49.3032    7.1777   13.3529 C   0  0  0  0  0  0  0  0  0  0  0  0
   48.0750    6.7188   15.2685 C   0  0  0  0  0  0  0  0  0  0  0  0
   48.9843    9.4305   17.9194 C   0  0  0  0  0  0  0  0  0  0  0  0
   48.0812    6.7738   13.8456 C   0  0  0  0  0  0  0  0  0  0  0  0
   47.3804   10.5104   19.6532 N   0  0  0  0  0  0  0  0  0  0  0  0
   47.7327   10.2973   18.2293 C   0  0  0  0  0  0  0  0  0  0  0  0
   47.7779    7.3167   20.1961 C   0  0  0  0  0  0  0  0  0  0  0  0
   50.2575    7.2186   21.2990 C   0  0  0  0  0  0  0  0  0  0  0  0
   46.1218   11.2531   19.7515 C   0  0  0  0  0  0  0  0  0  0  0  0
   48.4407   11.2153   20.3804 C   0  0  0  0  0  0  0  0  0  0  0  0
   47.9085    6.9502   21.5323 C   0  0  0  0  0  0  0  0  0  0  0  0
   49.1760    6.8981   22.1000 C   0  0  0  0  0  0  0  0  0  0  0  0
   48.0015    6.7467   18.1687 C   0  0  0  0  0  0  0  0  0  0  0  0
   48.8983   10.4141   18.7940 C   0  0  0  0  0  0  0  0  0  0  0  0
   47.9693    8.1367   18.6284 C   0  0  0  0  0  0  0  0  0  0  0  0
   48.9264    9.0255   18.3293 C   0  0  0  0  0  0  0  0  0  0  0  0
   47.1551    5.9147   18.4363 O   0  0  0  0  0  0  0  0  0  0  0  0
   49.7520   11.2432   18.5363 O   0  0  0  0  0  0  0  0  0  0  0  0
   47.8286   10.7135   19.5460 O   0  0  0  0  0  0  0  0  0  0  0  0
   49.0688    6.4495   17.4129 O   0  0  0  0  0  0  0  0  0  0  0  0
   48.0176    6.7269   18.5323 C   0  0  0  0  0  0  0  0  0  0  0  0
   48.9860   10.4331   18.4488 C   0  0  0  0  0  0  0  0  0  0  0  0
   48.0797    8.1652   18.8058 C   0  0  0  0  0  0  0  0  0  0  0  0
   48.9251    8.9938   18.1778 C   0  0  0  0  0  0  0  0  0  0  0  0
   47.2567    5.9560   19.0879 O   0  0  0  0  0  0  0  0  0  0  0  0
   49.7436   11.2068   17.8918 O   0  0  0  0  0  0  0  0  0  0  0  0
   48.1185   10.8480   19.3836 O   0  0  0  0  0  0  0  0  0  0  0  0
   48.8799    6.3135   17.5911 O   0  0  0  0  0  0  0  0  0  0  0  0
   49.0376    8.7943   17.0740 H   0  0  0  0  0  0  0  0  0  0  0  0
   47.7817    8.3688   19.8771 H   0  0  0  0  0  0  0  0  0  0  0  0
   47.9933   11.9014   18.0408 H   0  0  0  0  0  0  0  0  0  0  0  0
   48.8153    5.2602   18.9057 H   0  0  0  0  0  0  0  0  0  0  0  0
   50.6128   11.0897   14.7695 H   0  0  0  0  0  0  0  0  0  0  0  0
   51.6143   10.8112   17.0463 H   0  0  0  0  0  0  0  0  0  0  0  0
   47.0625    9.2195   16.2982 H   0  0  0  0  0  0  0  0  0  0  0  0
   48.2784   10.2582   14.4013 H   0  0  0  0  0  0  0  0  0  0  0  0
   48.0007    8.5917   20.8122 H   0  0  0  0  0  0  0  0  0  0  0  0
   49.5368    9.1287   20.1852 H   0  0  0  0  0  0  0  0  0  0  0  0
   47.0990    7.0496   19.3144 H   0  0  0  0  0  0  0  0  0  0  0  0
   47.3169    7.1958   17.5852 H   0  0  0  0  0  0  0  0  0  0  0  0
   49.5523    6.7328   19.6521 H   0  0  0  0  0  0  0  0  0  0  0  0
   49.8734    6.9832   17.9652 H   0  0  0  0  0  0  0  0  0  0  0  0
   49.4701    5.2596   16.3581 H   0  0  0  0  0  0  0  0  0  0  0  0
   48.8260    3.7084   16.8744 H   0  0  0  0  0  0  0  0  0  0  0  0
   47.7388    5.0992   16.7207 H   0  0  0  0  0  0  0  0  0  0  0  0
   48.2166    3.3629   19.2419 H   0  0  0  0  0  0  0  0  0  0  0  0
   47.0659    4.7095   19.1409 H   0  0  0  0  0  0  0  0  0  0  0  0
   48.3475    4.6985   20.3782 H   0  0  0  0  0  0  0  0  0  0  0  0
   45.9398   10.7299   19.8337 H   0  0  0  0  0  0  0  0  0  0  0  0
   45.8602   13.2091   20.7847 H   0  0  0  0  0  0  0  0  0  0  0  0
   48.2006   13.9177   21.7697 H   0  0  0  0  0  0  0  0  0  0  0  0
   50.7053    7.5110   17.3860 H   0  0  0  0  0  0  0  0  0  0  0  0
   49.6639    6.1130   17.6402 H   0  0  0  0  0  0  0  0  0  0  0  0
   49.5841    7.3114   12.3175 H   0  0  0  0  0  0  0  0  0  0  0  0
   47.2217    6.4279   15.8718 H   0  0  0  0  0  0  0  0  0  0  0  0
   49.2185    9.6253   16.8623 H   0  0  0  0  0  0  0  0  0  0  0  0
   49.8704    9.7724   18.4694 H   0  0  0  0  0  0  0  0  0  0  0  0
   47.2332    6.5326   13.2158 H   0  0  0  0  0  0  0  0  0  0  0  0
   46.8761    9.8279   17.7229 H   0  0  0  0  0  0  0  0  0  0  0  0
   47.8799   11.2752   17.7483 H   0  0  0  0  0  0  0  0  0  0  0  0
   46.7984    7.3712   19.7308 H   0  0  0  0  0  0  0  0  0  0  0  0
   51.2713    7.2016   21.6929 H   0  0  0  0  0  0  0  0  0  0  0  0
   45.3014   10.6934   19.2814 H   0  0  0  0  0  0  0  0  0  0  0  0
   45.8389   11.4038   20.8020 H   0  0  0  0  0  0  0  0  0  0  0  0
   46.1835   12.2367   19.2751 H   0  0  0  0  0  0  0  0  0  0  0  0
   49.3525   10.6106   20.4424 H   0  0  0  0  0  0  0  0  0  0  0  0
   48.6932   12.1781   19.9146 H   0  0  0  0  0  0  0  0  0  0  0  0
   48.1421   11.3997   21.4189 H   0  0  0  0  0  0  0  0  0  0  0  0
   47.0270    6.7161   22.1227 H   0  0  0  0  0  0  0  0  0  0  0  0
   49.3152    6.6159   23.1365 H   0  0  0  0  0  0  0  0  0  0  0  0
   47.1131    8.3895   19.2439 H   0  0  0  0  0  0  0  0  0  0  0  0
   49.7834    8.7706   17.7168 H   0  0  0  0  0  0  0  0  0  0  0  0
   47.9570   11.6586   19.7734 H   0  0  0  0  0  0  0  0  0  0  0  0
   48.9441    5.5024   17.1932 H   0  0  0  0  0  0  0  0  0  0  0  0
   47.3848    8.5094   19.5639 H   0  0  0  0  0  0  0  0  0  0  0  0
   49.6206    8.6498   17.4202 H   0  0  0  0  0  0  0  0  0  0  0  0
   48.2876   11.8115   19.4531 H   0  0  0  0  0  0  0  0  0  0  0  0
   48.7143    5.3488   17.5303 H   0  0  0  0  0  0  0  0  0  0  0  0
  2  4  1  0
  3  1  1  0
  4  3  2  0
  5  1  2  0
  6  2  2  0
  7  2  1  0
  8  1  1  0
 15 17  1  0
 12 15  1  0
 17 18  1  0
 11 12  1  0
 18 19  1  0
 15 16  1  0
 19 20  1  0
 19 21  1  0
 16 22  1  0
 23 24  1  0
 12 13  2  0
 10 11  2  0
 13 14  1  0
 22 23  2  0
 24 25  2  0
 25 26  1  0
 26 22  1  0
 14  9  2  0
  9 10  1  0
 28 27  1  0
 29 31  1  0
 30 29  1  0
 31 27  1  0
 32 28  2  0
 33 30  1  0
 34 29  2  0
 35 27  1  0
 36 34  1  0
 37 38  1  0
 38 35  1  0
 39 28  1  0
 40 32  1  0
 41 37  1  0
 42 37  1  0
 43 39  2  0
 44 40  2  0
 36 33  2  0
 43 44  1  0
 46 48  1  0
 47 45  1  0
 48 47  2  0
 49 45  2  0
 50 46  2  0
 51 46  1  0
 52 45  1  0
 54 56  1  0
 55 53  1  0
 56 55  2  0
 57 53  2  0
 58 54  2  0
 59 54  1  0
 60 53  1  0
  3 61  1  0
  4 62  1  0
  7 63  1  0
  8 64  1  0
  9 65  1  0
 10 66  1  0
 13 67  1  0
 14 68  1  0
 16 69  1  0
 16 70  1  0
 17 71  1  0
 17 72  1  0
 18 73  1  0
 18 74  1  0
 20 75  1  0
 20 76  1  0
 20 77  1  0
 21 78  1  0
 21 79  1  0
 21 80  1  0
 23 81  1  0
 24 82  1  0
 25 83  1  0
 31 84  1  0
 31 85  1  0
 33 86  1  0
 34 87  1  0
 35 88  1  0
 35 89  1  0
 36 90  1  0
 38 91  1  0
 38 92  1  0
 39 93  1  0
 40 94  1  0
 41 95  1  0
 41 96  1  0
 41 97  1  0
 42 98  1  0
 42 99  1  0
 42100  1  0
 43101  1  0
 44102  1  0
 47103  1  0
 48104  1  0
 51105  1  0
 52106  1  0
 55107  1  0
 56108  1  0
 59109  1  0
 60110  1  0
M  END
> <Uni-Dock RESULT> 
ENERGY=   -5.342  LOWER_BOUND=    3.671  UPPER_BOUND=    6.059
INTER + INTRA:          -5.342
INTER:                  -5.342
INTRA:                   0.000
UNBOUND:                 0.000

$$$$

     RDKit          3D

110109  0  0  0  0  0  0  0  0999 V2000
   48.7605    6.0284   17.5372 C   0  0  0  0  0  0  0  0  0  0  0  0
   47.9937    9.3128   19.3451 C   0  0  0  0  0  0  0  0  0  0  0  0
   48.6303    7.4504   17.8608 C   0  0  0  0  0  0  0  0  0  0  0  0
   48.1336    7.8906   19.0247 C   0  0  0  0  0  0  0  0  0  0  0  0
   49.2112    5.6001   16.4907 O   0  0  0  0  0  0  0  0  0  0  0  0
   47.5468    9.7402   20.3937 O   0  0  0  0  0  0  0  0  0  0  0  0
   48.4053   10.1328   18.3664 O   0  0  0  0  0  0  0  0  0  0  0  0
   48.3393    5.2090   18.5119 O   0  0  0  0  0  0  0  0  0  0  0  0
   50.0780   10.1368   15.9251 C   0  0  0  0  0  0  0  0  0  0  0  0
   50.6678    9.6797   17.0900 C   0  0  0  0  0  0  0  0  0  0  0  0
   50.0197    8.9547   18.0293 N   0  0  0  0  0  0  0  0  0  0  0  0
   48.7172    8.6599   17.8235 C   0  0  0  0  0  0  0  0  0  0  0  0
   48.0570    9.0870   16.6698 C   0  0  0  0  0  0  0  0  0  0  0  0
   48.7415    9.8314   15.7117 C   0  0  0  0  0  0  0  0  0  0  0  0
   48.0029    7.9065   18.7738 N   0  0  0  0  0  0  0  0  0  0  0  0
   48.5576    7.9941   20.1371 C   0  0  0  0  0  0  0  0  0  0  0  0
   47.6776    6.5458   18.3033 C   0  0  0  0  0  0  0  0  0  0  0  0
   48.9166    5.6233   18.1581 C   0  0  0  0  0  0  0  0  0  0  0  0
   48.6895    4.2618   17.6370 N   0  0  0  0  0  0  0  0  0  0  0  0
   48.3053    4.2574   16.2270 C   0  0  0  0  0  0  0  0  0  0  0  0
   47.7506    3.4884   18.4444 C   0  0  0  0  0  0  0  0  0  0  0  0
   48.2697    9.2957   20.8432 C   0  0  0  0  0  0  0  0  0  0  0  0
   47.0792   10.0009   20.8823 C   0  0  0  0  0  0  0  0  0  0  0  0
   47.1818   11.1963   21.6519 C   0  0  0  0  0  0  0  0  0  0  0  0
   48.4468   11.3694   22.1682 C   0  0  0  0  0  0  0  0  0  0  0  0
   49.4970   10.0856   21.7445 S   0  0  0  0  0  0  0  0  0  0  0  0
   48.6487    7.1362   17.9199 N   0  0  0  0  0  0  0  0  0  0  0  0
   48.8444    6.4948   19.1713 C   0  0  0  0  0  0  0  0  0  0  0  0
   49.0089    6.7020   15.4830 C   0  0  0  0  0  0  0  0  0  0  0  0
   50.1315    7.2521   14.3055 S   0  0  0  0  0  0  0  0  0  0  0  0
   49.4562    6.4297   16.9007 C   0  0  0  0  0  0  0  0  0  0  0  0
   50.0965    6.2279   19.6138 N   0  0  0  0  0  0  0  0  0  0  0  0
   48.9212    7.3157   13.0958 C   0  0  0  0  0  0  0  0  0  0  0  0
   47.7406    6.5619   14.9469 C   0  0  0  0  0  0  0  0  0  0  0  0
   49.0080    8.5695   18.0405 C   0  0  0  0  0  0  0  0  0  0  0  0
   47.6900    6.9160   13.5686 C   0  0  0  0  0  0  0  0  0  0  0  0
   47.5862    9.3832   20.0558 N   0  0  0  0  0  0  0  0  0  0  0  0
   47.8554    9.4486   18.5997 C   0  0  0  0  0  0  0  0  0  0  0  0
   47.7138    6.1256   19.9003 C   0  0  0  0  0  0  0  0  0  0  0  0
   50.2196    5.5980   20.8040 C   0  0  0  0  0  0  0  0  0  0  0  0
   46.4062   10.1867   20.3831 C   0  0  0  0  0  0  0  0  0  0  0  0
   48.7371    9.8309   20.8464 C   0  0  0  0  0  0  0  0  0  0  0  0
   47.8682    5.4754   21.1211 C   0  0  0  0  0  0  0  0  0  0  0  0
   49.1492    5.2030   21.5865 C   0  0  0  0  0  0  0  0  0  0  0  0
   47.7961    5.9814   17.7890 C   0  0  0  0  0  0  0  0  0  0  0  0
   49.0502    9.3495   19.1034 C   0  0  0  0  0  0  0  0  0  0  0  0
   47.9109    7.2406   18.5276 C   0  0  0  0  0  0  0  0  0  0  0  0
   48.9312    8.0930   18.3605 C   0  0  0  0  0  0  0  0  0  0  0  0
   46.8897    5.1821   17.9302 O   0  0  0  0  0  0  0  0  0  0  0  0
   49.9640   10.1432   18.9708 O   0  0  0  0  0  0  0  0  0  0  0  0
   48.0460    9.5677   19.9655 O   0  0  0  0  0  0  0  0  0  0  0  0
   48.7980    5.7662   16.9237 O   0  0  0  0  0  0  0  0  0  0  0  0
   47.8261    5.8838   18.1389 C   0  0  0  0  0  0  0  0  0  0  0  0
   49.1242    9.4340   18.7649 C   0  0  0  0  0  0  0  0  0  0  0  0
   48.0310    7.2220   18.6999 C   0  0  0  0  0  0  0  0  0  0  0  0
   48.9205    8.0943   18.2061 C   0  0  0  0  0  0  0  0  0  0  0  0
   47.0228    5.0763   18.5687 O   0  0  0  0  0  0  0  0  0  0  0  0
   49.9244   10.2448   18.3345 O   0  0  0  0  0  0  0  0  0  0  0  0
   48.3396    9.7099   19.8170 O   0  0  0  0  0  0  0  0  0  0  0  0
   48.6053    5.6112   17.0812 O   0  0  0  0  0  0  0  0  0  0  0  0
   48.9662    8.1244   17.0801 H   0  0  0  0  0  0  0  0  0  0  0  0
   47.7997    7.2176   19.8064 H   0  0  0  0  0  0  0  0  0  0  0  0
   48.2529   11.0301   18.7316 H   0  0  0  0  0  0  0  0  0  0  0  0
   48.5020    4.3122   18.1507 H   0  0  0  0  0  0  0  0  0  0  0  0
   50.6428   10.7216   15.2081 H   0  0  0  0  0  0  0  0  0  0  0  0
   51.7126    9.8884   17.3118 H   0  0  0  0  0  0  0  0  0  0  0  0
   47.0063    8.8610   16.5324 H   0  0  0  0  0  0  0  0  0  0  0  0
   48.2284   10.1767   14.8203 H   0  0  0  0  0  0  0  0  0  0  0  0
   48.0786    7.2193   20.7520 H   0  0  0  0  0  0  0  0  0  0  0  0
   49.6286    7.7520   20.1564 H   0  0  0  0  0  0  0  0  0  0  0  0
   46.9756    6.1063   19.0260 H   0  0  0  0  0  0  0  0  0  0  0  0
   47.1307    6.5970   17.3544 H   0  0  0  0  0  0  0  0  0  0  0  0
   49.4021    5.5297   19.1389 H   0  0  0  0  0  0  0  0  0  0  0  0
   49.6712    6.1048   17.5238 H   0  0  0  0  0  0  0  0  0  0  0  0
   49.0428    4.7982   15.6228 H   0  0  0  0  0  0  0  0  0  0  0  0
   48.2827    3.2295   15.8455 H   0  0  0  0  0  0  0  0  0  0  0  0
   47.3214    4.7039   16.0503 H   0  0  0  0  0  0  0  0  0  0  0  0
   47.7478    2.4410   18.1232 H   0  0  0  0  0  0  0  0  0  0  0  0
   46.7215    3.8663   18.3742 H   0  0  0  0  0  0  0  0  0  0  0  0
   48.0493    3.4910   19.5010 H   0  0  0  0  0  0  0  0  0  0  0  0
   46.1809    9.6742   20.3663 H   0  0  0  0  0  0  0  0  0  0  0  0
   46.3693   11.8943   21.8130 H   0  0  0  0  0  0  0  0  0  0  0  0
   48.8053   12.1886   22.7771 H   0  0  0  0  0  0  0  0  0  0  0  0
   50.5218    6.6747   17.0163 H   0  0  0  0  0  0  0  0  0  0  0  0
   49.3691    5.3427   17.0393 H   0  0  0  0  0  0  0  0  0  0  0  0
   49.1679    7.6425   12.0952 H   0  0  0  0  0  0  0  0  0  0  0  0
   46.8914    6.2193   15.5283 H   0  0  0  0  0  0  0  0  0  0  0  0
   49.2128    8.9642   17.0343 H   0  0  0  0  0  0  0  0  0  0  0  0
   49.9446    8.7152   18.5937 H   0  0  0  0  0  0  0  0  0  0  0  0
   46.7969    6.8823   12.9560 H   0  0  0  0  0  0  0  0  0  0  0  0
   46.9383    9.1672   18.0609 H   0  0  0  0  0  0  0  0  0  0  0  0
   48.0703   10.4911   18.3234 H   0  0  0  0  0  0  0  0  0  0  0  0
   46.7240    6.3556   19.5177 H   0  0  0  0  0  0  0  0  0  0  0  0
   51.2438    5.4168   21.1227 H   0  0  0  0  0  0  0  0  0  0  0  0
   45.5184    9.8067   19.8588 H   0  0  0  0  0  0  0  0  0  0  0  0
   46.1841   10.1338   21.4574 H   0  0  0  0  0  0  0  0  0  0  0  0
   46.5366   11.2406   20.1178 H   0  0  0  0  0  0  0  0  0  0  0  0
   49.5916    9.1557   20.7256 H   0  0  0  0  0  0  0  0  0  0  0  0
   49.0559   10.8471   20.5754 H   0  0  0  0  0  0  0  0  0  0  0  0
   48.5020    9.8148   21.9170 H   0  0  0  0  0  0  0  0  0  0  0  0
   46.9956    5.1931   21.7034 H   0  0  0  0  0  0  0  0  0  0  0  0
   49.3069    4.6976   22.5315 H   0  0  0  0  0  0  0  0  0  0  0  0
   47.1089    7.4253   19.2336 H   0  0  0  0  0  0  0  0  0  0  0  0
   49.7340    7.9056   17.6568 H   0  0  0  0  0  0  0  0  0  0  0  0
   48.2699   10.4299   20.3753 H   0  0  0  0  0  0  0  0  0  0  0  0
   48.5779    4.9001   16.5208 H   0  0  0  0  0  0  0  0  0  0  0  0
   47.4040    7.4526   19.5542 H   0  0  0  0  0  0  0  0  0  0  0  0
   49.5481    7.8637   17.3523 H   0  0  0  0  0  0  0  0  0  0  0  0
   48.5989   10.6202   20.0738 H   0  0  0  0  0  0  0  0  0  0  0  0
   48.3498    4.6976   16.8323 H   0  0  0  0  0  0  0  0  0  0  0  0
  2  4  1  0
  3  1  1  0
  4  3  2  0
  5  1  2  0
  6  2  2  0
  7  2  1  0
  8  1  1  0
 15 17  1  0
 12 15  1  0
 17 18  1  0
 11 12  1  0
 18 19  1  0
 15 16  1  0
 19 20  1  0
 19 21  1  0
 16 22  1  0
 23 24  1  0
 12 13  2  0
 10 11  2  0
 13 14  1  0
 22 23  2  0
 24 25  2  0
 25 26  1  0
 26 22  1  0
 14  9  2  0
  9 10  1  0
 28 27  1  0
 29 31  1  0
 30 29  1  0
 31 27  1  0
 32 28  2  0
 33 30  1  0
 34 29  2  0
 35 27  1  0
 36 34  1  0
 37 38  1  0
 38 35  1  0
 39 28  1  0
 40 32  1  0
 41 37  1  0
 42 37  1  0
 43 39  2  0
 44 40  2  0
 36 33  2  0
 43 44  1  0
 46 48  1  0
 47 45  1  0
 48 47  2  0
 49 45  2  0
 50 46  2  0
 51 46  1  0
 52 45  1  0
 54 56  1  0
 55 53  1  0
 56 55  2  0
 57 53  2  0
 58 54  2  0
 59 54  1  0
 60 53  1  0
  3 61  1  0
  4 62  1  0
  7 63  1  0
  8 64  1  0
  9 65  1  0
 10 66  1  0
 13 67  1  0
 14 68  1  0
 16 69  1  0
 16 70  1  0
 17 71  1  0
 17 72  1  0
 18 73  1  0
 18 74  1  0
 20 75  1  0
 20 76  1  0
 20 77  1  0
 21 78  1  0
 21 79  1  0
 21 80  1  0
 23 81  1  0
 24 82  1  0
 25 83  1  0
 31 84  1  0
 31 85  1  0
 33 86  1  0
 34 87  1  0
 35 88  1  0
 35 89  1  0
 36 90  1  0
 38 91  1  0
 38 92  1  0
 39 93  1  0
 40 94  1  0
 41 95  1  0
 41 96  1  0
 41 97  1  0
 42 98  1  0
 42 99  1  0
 42100  1  0
 43101  1  0
 44102  1  0
 47103  1  0
 48104  1  0
 51105  1  0
 52106  1  0
 55107  1  0
 56108  1  0
 59109  1  0
 60110  1  0
M  END
> <Uni-Dock RESULT> 
ENERGY=   -5.303  LOWER_BOUND=    3.094  UPPER_BOUND=    5.793
INTER + INTRA:          -5.303
INTER:                  -5.303
INTRA:                   0.000
UNBOUND:                 0.000

$$$$

     RDKit          3D

110109  0  0  0  0  0  0  0  0999 V2000
   41.1023   13.5653    9.1347 C   0  0  0  0  0  0  0  0  0  0  0  0
   43.9520   11.2936   10.3017 C   0  0  0  0  0  0  0  0  0  0  0  0
   42.3288   12.7667    9.1738 C   0  0  0  0  0  0  0  0  0  0  0  0
   42.7201   12.0844   10.2585 C   0  0  0  0  0  0  0  0  0  0  0  0
   40.7205   14.1916    8.1632 O   0  0  0  0  0  0  0  0  0  0  0  0
   44.3308   10.6641   11.2723 O   0  0  0  0  0  0  0  0  0  0  0  0
   44.6529   11.3175    9.1581 O   0  0  0  0  0  0  0  0  0  0  0  0
   40.4071   13.5494   10.2816 O   0  0  0  0  0  0  0  0  0  0  0  0
   44.3371   11.9464    6.2835 C   0  0  0  0  0  0  0  0  0  0  0  0
   43.4451   11.0413    6.8303 C   0  0  0  0  0  0  0  0  0  0  0  0
   42.9444   11.1383    8.0824 N   0  0  0  0  0  0  0  0  0  0  0  0
   43.3389   12.1779    8.8501 C   0  0  0  0  0  0  0  0  0  0  0  0
   44.2359   13.1310    8.3638 C   0  0  0  0  0  0  0  0  0  0  0  0
   44.7398   13.0160    7.0703 C   0  0  0  0  0  0  0  0  0  0  0  0
   42.8426   12.3199   10.1595 N   0  0  0  0  0  0  0  0  0  0  0  0
   42.3995   11.0509   10.7655 C   0  0  0  0  0  0  0  0  0  0  0  0
   41.9102   13.4551   10.3019 C   0  0  0  0  0  0  0  0  0  0  0  0
   40.5616   13.2511    9.5624 C   0  0  0  0  0  0  0  0  0  0  0  0
   39.5921   14.3625    9.6035 N   0  0  0  0  0  0  0  0  0  0  0  0
   40.0361   15.5233    8.8348 C   0  0  0  0  0  0  0  0  0  0  0  0
   39.2108   14.7404   10.9612 C   0  0  0  0  0  0  0  0  0  0  0  0
   43.5233   10.1481   11.2098 C   0  0  0  0  0  0  0  0  0  0  0  0
   44.6817   10.4948   11.8835 C   0  0  0  0  0  0  0  0  0  0  0  0
   45.5190    9.3695   12.1375 C   0  0  0  0  0  0  0  0  0  0  0  0
   44.9780    8.2032   11.6440 C   0  0  0  0  0  0  0  0  0  0  0  0
   43.4590    8.4624   10.8984 S   0  0  0  0  0  0  0  0  0  0  0  0
   42.0378   12.8629    9.2668 N   0  0  0  0  0  0  0  0  0  0  0  0
   41.1549   12.2181   10.1724 C   0  0  0  0  0  0  0  0  0  0  0  0
   41.9576   14.4649    7.3474 C   0  0  0  0  0  0  0  0  0  0  0  0
   42.1304   14.3275    5.6443 S   0  0  0  0  0  0  0  0  0  0  0  0
   41.2438   13.3905    8.1349 C   0  0  0  0  0  0  0  0  0  0  0  0
   40.2543   11.3127    9.7209 N   0  0  0  0  0  0  0  0  0  0  0  0
   42.9819   15.8104    5.5520 C   0  0  0  0  0  0  0  0  0  0  0  0
   42.5324   15.6309    7.8223 C   0  0  0  0  0  0  0  0  0  0  0  0
   43.0836   11.9053    8.8337 C   0  0  0  0  0  0  0  0  0  0  0  0
   43.1236   16.4079    6.7858 C   0  0  0  0  0  0  0  0  0  0  0  0
   44.0684   11.0304   11.0719 N   0  0  0  0  0  0  0  0  0  0  0  0
   44.2755   11.8049    9.8251 C   0  0  0  0  0  0  0  0  0  0  0  0
   41.2271   12.5728   11.5198 C   0  0  0  0  0  0  0  0  0  0  0  0
   39.4269   10.7458   10.6279 C   0  0  0  0  0  0  0  0  0  0  0  0
   45.2521   11.1347   11.9282 C   0  0  0  0  0  0  0  0  0  0  0  0
   43.7657    9.6220   10.7982 C   0  0  0  0  0  0  0  0  0  0  0  0
   40.3618   11.9766   12.4322 C   0  0  0  0  0  0  0  0  0  0  0  0
   39.4385   11.0417   11.9793 C   0  0  0  0  0  0  0  0  0  0  0  0
   41.4654   13.9881    9.9624 C   0  0  0  0  0  0  0  0  0  0  0  0
   43.5349   10.8147    9.4226 C   0  0  0  0  0  0  0  0  0  0  0  0
   42.3579   12.8465   10.1733 C   0  0  0  0  0  0  0  0  0  0  0  0
   42.6475   11.9604    9.2108 C   0  0  0  0  0  0  0  0  0  0  0  0
   41.1732   14.7996   10.8205 O   0  0  0  0  0  0  0  0  0  0  0  0
   43.8171    9.9958    8.5669 O   0  0  0  0  0  0  0  0  0  0  0  0
   44.0295   10.7338   10.6668 O   0  0  0  0  0  0  0  0  0  0  0  0
   40.9750   14.0711    8.7168 O   0  0  0  0  0  0  0  0  0  0  0  0
   41.3007   13.7843   10.2158 C   0  0  0  0  0  0  0  0  0  0  0  0
   43.6375   10.9558    9.1115 C   0  0  0  0  0  0  0  0  0  0  0  0
   42.2528   12.6705   10.2228 C   0  0  0  0  0  0  0  0  0  0  0  0
   42.6830   12.0682    9.1056 C   0  0  0  0  0  0  0  0  0  0  0  0
   40.8982   14.3481   11.2169 O   0  0  0  0  0  0  0  0  0  0  0  0
   44.0443   10.3927    8.1114 O   0  0  0  0  0  0  0  0  0  0  0  0
   44.0430   10.5932   10.3374 O   0  0  0  0  0  0  0  0  0  0  0  0
   40.9015   14.1523    8.9887 O   0  0  0  0  0  0  0  0  0  0  0  0
   42.9015   12.7722    8.2527 H   0  0  0  0  0  0  0  0  0  0  0  0
   42.1471   12.0767   11.1788 H   0  0  0  0  0  0  0  0  0  0  0  0
   45.4291   10.7485    9.3458 H   0  0  0  0  0  0  0  0  0  0  0  0
   39.6257   14.1095   10.0898 H   0  0  0  0  0  0  0  0  0  0  0  0
   44.7135   11.8166    5.2753 H   0  0  0  0  0  0  0  0  0  0  0  0
   43.0938   10.1828    6.2611 H   0  0  0  0  0  0  0  0  0  0  0  0
   44.5589   13.9453    9.0015 H   0  0  0  0  0  0  0  0  0  0  0  0
   45.4474   13.7471    6.6935 H   0  0  0  0  0  0  0  0  0  0  0  0
   41.8383   11.2862   11.6807 H   0  0  0  0  0  0  0  0  0  0  0  0
   41.6854   10.5206   10.1213 H   0  0  0  0  0  0  0  0  0  0  0  0
   41.7222   13.5945   11.3759 H   0  0  0  0  0  0  0  0  0  0  0  0
   42.3908   14.3809    9.9640 H   0  0  0  0  0  0  0  0  0  0  0  0
   40.0671   12.3601    9.9724 H   0  0  0  0  0  0  0  0  0  0  0  0
   40.7443   13.0028    8.5095 H   0  0  0  0  0  0  0  0  0  0  0  0
   40.2723   15.2376    7.8033 H   0  0  0  0  0  0  0  0  0  0  0  0
   39.2322   16.2669    8.7763 H   0  0  0  0  0  0  0  0  0  0  0  0
   40.9156   16.0115    9.2668 H   0  0  0  0  0  0  0  0  0  0  0  0
   38.3693   15.4414   10.9373 H   0  0  0  0  0  0  0  0  0  0  0  0
   40.0321   15.2166   11.5139 H   0  0  0  0  0  0  0  0  0  0  0  0
   38.8724   13.8644   11.5303 H   0  0  0  0  0  0  0  0  0  0  0  0
   44.9186   11.5166   12.1660 H   0  0  0  0  0  0  0  0  0  0  0  0
   46.4712    9.4165   12.6518 H   0  0  0  0  0  0  0  0  0  0  0  0
   45.4014    7.2086   11.6872 H   0  0  0  0  0  0  0  0  0  0  0  0
   40.9343   12.5731    7.4678 H   0  0  0  0  0  0  0  0  0  0  0  0
   40.3202   13.8554    8.5080 H   0  0  0  0  0  0  0  0  0  0  0  0
   43.3386   16.1752    4.5988 H   0  0  0  0  0  0  0  0  0  0  0  0
   42.5239   15.9053    8.8718 H   0  0  0  0  0  0  0  0  0  0  0  0
   43.5195   12.2669    7.8906 H   0  0  0  0  0  0  0  0  0  0  0  0
   42.6656   10.9205    8.5887 H   0  0  0  0  0  0  0  0  0  0  0  0
   43.6290   17.3543    6.9367 H   0  0  0  0  0  0  0  0  0  0  0  0
   44.5645   12.8318   10.0946 H   0  0  0  0  0  0  0  0  0  0  0  0
   45.1271   11.3765    9.2768 H   0  0  0  0  0  0  0  0  0  0  0  0
   41.9617   13.3013   11.8491 H   0  0  0  0  0  0  0  0  0  0  0  0
   38.7304   10.0166   10.2197 H   0  0  0  0  0  0  0  0  0  0  0  0
   45.4395   12.1805   12.2083 H   0  0  0  0  0  0  0  0  0  0  0  0
   45.1063   10.5792   12.8644 H   0  0  0  0  0  0  0  0  0  0  0  0
   46.1509   10.7434   11.4412 H   0  0  0  0  0  0  0  0  0  0  0  0
   42.8059    9.5131   10.2808 H   0  0  0  0  0  0  0  0  0  0  0  0
   44.5449    9.1413   10.1903 H   0  0  0  0  0  0  0  0  0  0  0  0
   43.6584    9.0597   11.7330 H   0  0  0  0  0  0  0  0  0  0  0  0
   40.4160   12.2361   13.4858 H   0  0  0  0  0  0  0  0  0  0  0  0
   38.7489   10.5586   12.6609 H   0  0  0  0  0  0  0  0  0  0  0  0
   42.7586   12.7655   11.1776 H   0  0  0  0  0  0  0  0  0  0  0  0
   42.2436   12.0406    8.2082 H   0  0  0  0  0  0  0  0  0  0  0  0
   44.5909    9.9301   10.6458 H   0  0  0  0  0  0  0  0  0  0  0  0
   40.4073   14.8698    8.7410 H   0  0  0  0  0  0  0  0  0  0  0  0
   42.5830   12.3671   11.2102 H   0  0  0  0  0  0  0  0  0  0  0  0
   42.3524   12.3710    8.1181 H   0  0  0  0  0  0  0  0  0  0  0  0
   44.6583    9.8475   10.1726 H   0  0  0  0  0  0  0  0  0  0  0  0
   40.2801   14.8920    9.1574 H   0  0  0  0  0  0  0  0  0  0  0  0
  2  4  1  0
  3  1  1  0
  4  3  2  0
  5  1  2  0
  6  2  2  0
  7  2  1  0
  8  1  1  0
 15 17  1  0
 12 15  1  0
 17 18  1  0
 11 12  1  0
 18 19  1  0
 15 16  1  0
 19 20  1  0
 19 21  1  0
 16 22  1  0
 23 24  1  0
 12 13  2  0
 10 11  2  0
 13 14  1  0
 22 23  2  0
 24 25  2  0
 25 26  1  0
 26 22  1  0
 14  9  2  0
  9 10  1  0
 28 27  1  0
 29 31  1  0
 30 29  1  0
 31 27  1  0
 32 28  2  0
 33 30  1  0
 34 29  2  0
 35 27  1  0
 36 34  1  0
 37 38  1  0
 38 35  1  0
 39 28  1  0
 40 32  1  0
 41 37  1  0
 42 37  1  0
 43 39  2  0
 44 40  2  0
 36 33  2  0
 43 44  1  0
 46 48  1  0
 47 45  1  0
 48 47  2  0
 49 45  2  0
 50 46  2  0
 51 46  1  0
 52 45  1  0
 54 56  1  0
 55 53  1  0
 56 55  2  0
 57 53  2  0
 58 54  2  0
 59 54  1  0
 60 53  1  0
  3 61  1  0
  4 62  1  0
  7 63  1  0
  8 64  1  0
  9 65  1  0
 10 66  1  0
 13 67  1  0
 14 68  1  0
 16 69  1  0
 16 70  1  0
 17 71  1  0
 17 72  1  0
 18 73  1  0
 18 74  1  0
 20 75  1  0
 20 76  1  0
 20 77  1  0
 21 78  1  0
 21 79  1  0
 21 80  1  0
 23 81  1  0
 24 82  1  0
 25 83  1  0
 31 84  1  0
 31 85  1  0
 33 86  1  0
 34 87  1  0
 35 88  1  0
 35 89  1  0
 36 90  1  0
 38 91  1  0
 38 92  1  0
 39 93  1  0
 40 94  1  0
 41 95  1  0
 41 96  1  0
 41 97  1  0
 42 98  1  0
 42 99  1  0
 42100  1  0
 43101  1  0
 44102  1  0
 47103  1  0
 48104  1  0
 51105  1  0
 52106  1  0
 55107  1  0
 56108  1  0
 59109  1  0
 60110  1  0
M  END
> <Uni-Dock RESULT> 
ENERGY=   -5.258  LOWER_BOUND=   12.429  UPPER_BOUND=   15.186
INTER + INTRA:          -5.258
INTER:                  -5.258
INTRA:                   0.000
UNBOUND:                 0.000

$$$$
