
     RDKit          3D

110109  0  0  0  0  0  0  0  0999 V2000
   48.0067    5.7460   18.7012 C   0  0  0  0  0  0  0  0  0  0  0  0
   48.5097    9.5070   18.7267 C   0  0  0  0  0  0  0  0  0  0  0  0
   47.8400    7.1927   18.5445 C   0  0  0  0  0  0  0  0  0  0  0  0
   48.7679    8.0804   18.9252 C   0  0  0  0  0  0  0  0  0  0  0  0
   47.1819    4.9172   18.3629 O   0  0  0  0  0  0  0  0  0  0  0  0
   47.5181   10.0160   18.2425 O   0  0  0  0  0  0  0  0  0  0  0  0
   49.5511   10.2304   19.1643 O   0  0  0  0  0  0  0  0  0  0  0  0
   49.1722    5.3914   19.2618 O   0  0  0  0  0  0  0  0  0  0  0  0
   47.3348    5.8344   23.1021 C   0  0  0  0  0  0  0  0  0  0  0  0
   47.6968    5.0195   22.0467 C   0  0  0  0  0  0  0  0  0  0  0  0
   48.2541    5.4705   20.9001 N   0  0  0  0  0  0  0  0  0  0  0  0
   48.4537    6.7954   20.7471 C   0  0  0  0  0  0  0  0  0  0  0  0
   48.1356    7.6740   21.7892 C   0  0  0  0  0  0  0  0  0  0  0  0
   47.5692    7.1938   22.9706 C   0  0  0  0  0  0  0  0  0  0  0  0
   49.0444    7.2898   19.5721 N   0  0  0  0  0  0  0  0  0  0  0  0
   49.6877    6.2571   18.7288 C   0  0  0  0  0  0  0  0  0  0  0  0
   48.2585    8.3314   18.8796 C   0  0  0  0  0  0  0  0  0  0  0  0
   49.1818    9.3351   18.1466 C   0  0  0  0  0  0  0  0  0  0  0  0
   48.4742   10.2371   17.2120 N   0  0  0  0  0  0  0  0  0  0  0  0
   47.5833   11.1644   17.9106 C   0  0  0  0  0  0  0  0  0  0  0  0
   49.4441   10.9851   16.4077 C   0  0  0  0  0  0  0  0  0  0  0  0
   48.8883    5.6114   17.6174 C   0  0  0  0  0  0  0  0  0  0  0  0
   48.6673    6.0817   16.3344 C   0  0  0  0  0  0  0  0  0  0  0  0
   47.8767    5.1930   15.5513 C   0  0  0  0  0  0  0  0  0  0  0  0
   47.5289    4.0641   16.2547 C   0  0  0  0  0  0  0  0  0  0  0  0
   48.1610    4.0745   17.8410 S   0  0  0  0  0  0  0  0  0  0  0  0
   48.2830    7.8221   18.8778 N   0  0  0  0  0  0  0  0  0  0  0  0
   48.1846    8.6166   20.0515 C   0  0  0  0  0  0  0  0  0  0  0  0
   49.4573    9.5224   17.4252 C   0  0  0  0  0  0  0  0  0  0  0  0
   48.6626    9.6283   15.9098 S   0  0  0  0  0  0  0  0  0  0  0  0
   49.5200    8.2059   18.1626 C   0  0  0  0  0  0  0  0  0  0  0  0
   48.9521    8.3389   21.1282 N   0  0  0  0  0  0  0  0  0  0  0  0
   49.0115   11.2971   15.7735 C   0  0  0  0  0  0  0  0  0  0  0  0
   49.9727   10.7433   17.8138 C   0  0  0  0  0  0  0  0  0  0  0  0
   48.2408    6.3892   19.2555 C   0  0  0  0  0  0  0  0  0  0  0  0
   49.7126   11.7682   16.8596 C   0  0  0  0  0  0  0  0  0  0  0  0
   47.5156    4.1050   18.3966 N   0  0  0  0  0  0  0  0  0  0  0  0
   47.7226    5.5346   18.0722 C   0  0  0  0  0  0  0  0  0  0  0  0
   47.2873    9.6861   20.0445 C   0  0  0  0  0  0  0  0  0  0  0  0
   48.8096    9.1272   22.2173 C   0  0  0  0  0  0  0  0  0  0  0  0
   48.7795    3.4102   18.6430 C   0  0  0  0  0  0  0  0  0  0  0  0
   46.7972    3.4444   17.3040 C   0  0  0  0  0  0  0  0  0  0  0  0
   47.1617   10.4851   21.1764 C   0  0  0  0  0  0  0  0  0  0  0  0
   47.9366   10.1968   22.2920 C   0  0  0  0  0  0  0  0  0  0  0  0
   48.4001    5.8059   19.2237 C   0  0  0  0  0  0  0  0  0  0  0  0
   48.3882    9.5284   18.3228 C   0  0  0  0  0  0  0  0  0  0  0  0
   48.8231    7.1791   18.9376 C   0  0  0  0  0  0  0  0  0  0  0  0
   47.9651    8.1555   18.6118 C   0  0  0  0  0  0  0  0  0  0  0  0
   49.1580    4.9014   19.5229 O   0  0  0  0  0  0  0  0  0  0  0  0
   47.6304   10.4343   18.0281 O   0  0  0  0  0  0  0  0  0  0  0  0
   49.7126    9.7187   18.4104 O   0  0  0  0  0  0  0  0  0  0  0  0
   47.0759    5.6141   19.1292 O   0  0  0  0  0  0  0  0  0  0  0  0
   48.2204    9.5337   18.1669 C   0  0  0  0  0  0  0  0  0  0  0  0
   48.1369    5.8924   19.2389 C   0  0  0  0  0  0  0  0  0  0  0  0
   47.8379    8.1370   18.3938 C   0  0  0  0  0  0  0  0  0  0  0  0
   48.6068    7.2676   19.0629 C   0  0  0  0  0  0  0  0  0  0  0  0
   47.5413   10.3445   17.5640 O   0  0  0  0  0  0  0  0  0  0  0  0
   47.0949    5.4127   18.8377 O   0  0  0  0  0  0  0  0  0  0  0  0
   49.0383    5.1826   19.9338 O   0  0  0  0  0  0  0  0  0  0  0  0
   49.4125    9.8620   18.6864 O   0  0  0  0  0  0  0  0  0  0  0  0
   46.9025    7.4999   18.0920 H   0  0  0  0  0  0  0  0  0  0  0  0
   49.7112    7.7998   19.3770 H   0  0  0  0  0  0  0  0  0  0  0  0
   49.2853   11.1581   18.9942 H   0  0  0  0  0  0  0  0  0  0  0  0
   49.1298    4.4126   19.2913 H   0  0  0  0  0  0  0  0  0  0  0  0
   46.8936    5.4203   24.0011 H   0  0  0  0  0  0  0  0  0  0  0  0
   47.5456    3.9442   22.0939 H   0  0  0  0  0  0  0  0  0  0  0  0
   48.3539    8.7326   21.7003 H   0  0  0  0  0  0  0  0  0  0  0  0
   47.3251    7.8761   23.7791 H   0  0  0  0  0  0  0  0  0  0  0  0
   50.5474    6.7440   18.2470 H   0  0  0  0  0  0  0  0  0  0  0  0
   50.1648    5.4852   19.3507 H   0  0  0  0  0  0  0  0  0  0  0  0
   47.5506    7.8733   18.1799 H   0  0  0  0  0  0  0  0  0  0  0  0
   47.6415    8.9030   19.5810 H   0  0  0  0  0  0  0  0  0  0  0  0
   49.7487    9.9129   18.8901 H   0  0  0  0  0  0  0  0  0  0  0  0
   49.9240    8.7688   17.5712 H   0  0  0  0  0  0  0  0  0  0  0  0
   48.1220   11.7864   18.6339 H   0  0  0  0  0  0  0  0  0  0  0  0
   47.0792   11.8239   17.1936 H   0  0  0  0  0  0  0  0  0  0  0  0
   46.7881   10.6295   18.4375 H   0  0  0  0  0  0  0  0  0  0  0  0
   50.0867   11.6233   17.0249 H   0  0  0  0  0  0  0  0  0  0  0  0
   48.9282   11.6184   15.6767 H   0  0  0  0  0  0  0  0  0  0  0  0
   50.0825   10.3035   15.8336 H   0  0  0  0  0  0  0  0  0  0  0  0
   49.0458    7.0306   15.9731 H   0  0  0  0  0  0  0  0  0  0  0  0
   47.5785    5.3744   14.5275 H   0  0  0  0  0  0  0  0  0  0  0  0
   46.9362    3.2269   15.9142 H   0  0  0  0  0  0  0  0  0  0  0  0
   49.7590    7.4309   17.4230 H   0  0  0  0  0  0  0  0  0  0  0  0
   50.3832    8.2145   18.8440 H   0  0  0  0  0  0  0  0  0  0  0  0
   48.6823   11.8511   14.9054 H   0  0  0  0  0  0  0  0  0  0  0  0
   50.5004   10.8926   18.7483 H   0  0  0  0  0  0  0  0  0  0  0  0
   49.2339    6.0501   19.5751 H   0  0  0  0  0  0  0  0  0  0  0  0
   47.5476    6.2321   20.0943 H   0  0  0  0  0  0  0  0  0  0  0  0
   50.0248   12.7992   16.9679 H   0  0  0  0  0  0  0  0  0  0  0  0
   46.7620    5.9690   17.7609 H   0  0  0  0  0  0  0  0  0  0  0  0
   48.3964    5.6300   17.2107 H   0  0  0  0  0  0  0  0  0  0  0  0
   46.6921    9.8854   19.1588 H   0  0  0  0  0  0  0  0  0  0  0  0
   49.4387    8.8616   23.0616 H   0  0  0  0  0  0  0  0  0  0  0  0
   49.2889    3.8141   19.5220 H   0  0  0  0  0  0  0  0  0  0  0  0
   48.5987    2.3498   18.8580 H   0  0  0  0  0  0  0  0  0  0  0  0
   49.4594    3.4755   17.7867 H   0  0  0  0  0  0  0  0  0  0  0  0
   45.8214    3.9157   17.1429 H   0  0  0  0  0  0  0  0  0  0  0  0
   46.5981    2.3956   17.5524 H   0  0  0  0  0  0  0  0  0  0  0  0
   47.3582    3.4771   16.3623 H   0  0  0  0  0  0  0  0  0  0  0  0
   46.4634   11.3157   21.1863 H   0  0  0  0  0  0  0  0  0  0  0  0
   47.8596   10.7884   23.1960 H   0  0  0  0  0  0  0  0  0  0  0  0
   49.8925    7.3449   19.0072 H   0  0  0  0  0  0  0  0  0  0  0  0
   46.8956    7.9904   18.5427 H   0  0  0  0  0  0  0  0  0  0  0  0
   49.8291   10.6687   18.1983 H   0  0  0  0  0  0  0  0  0  0  0  0
   46.9589    4.6656   19.3480 H   0  0  0  0  0  0  0  0  0  0  0  0
   46.8754    7.8532   17.9790 H   0  0  0  0  0  0  0  0  0  0  0  0
   49.5692    7.5280   19.4859 H   0  0  0  0  0  0  0  0  0  0  0  0
   48.6430    4.2882   19.9986 H   0  0  0  0  0  0  0  0  0  0  0  0
   49.5157   10.8078   18.4501 H   0  0  0  0  0  0  0  0  0  0  0  0
  2  4  1  0
  3  1  1  0
  4  3  2  0
  5  1  2  0
  6  2  2  0
  7  2  1  0
  8  1  1  0
 15 17  1  0
 12 15  1  0
 17 18  1  0
 11 12  1  0
 18 19  1  0
 15 16  1  0
 19 20  1  0
 19 21  1  0
 16 22  1  0
 23 24  1  0
 12 13  2  0
 10 11  2  0
 13 14  1  0
 22 23  2  0
 24 25  2  0
 25 26  1  0
 26 22  1  0
 14  9  2  0
  9 10  1  0
 28 27  1  0
 29 31  1  0
 30 29  1  0
 31 27  1  0
 32 28  2  0
 33 30  1  0
 34 29  2  0
 35 27  1  0
 36 34  1  0
 37 38  1  0
 38 35  1  0
 39 28  1  0
 40 32  1  0
 41 37  1  0
 42 37  1  0
 43 39  2  0
 44 40  2  0
 36 33  2  0
 43 44  1  0
 46 48  1  0
 47 45  1  0
 48 47  2  0
 49 45  2  0
 50 46  2  0
 51 46  1  0
 52 45  1  0
 54 56  1  0
 55 53  1  0
 56 55  2  0
 57 53  2  0
 58 54  2  0
 59 54  1  0
 60 53  1  0
  3 61  1  0
  4 62  1  0
  7 63  1  0
  8 64  1  0
  9 65  1  0
 10 66  1  0
 13 67  1  0
 14 68  1  0
 16 69  1  0
 16 70  1  0
 17 71  1  0
 17 72  1  0
 18 73  1  0
 18 74  1  0
 20 75  1  0
 20 76  1  0
 20 77  1  0
 21 78  1  0
 21 79  1  0
 21 80  1  0
 23 81  1  0
 24 82  1  0
 25 83  1  0
 31 84  1  0
 31 85  1  0
 33 86  1  0
 34 87  1  0
 35 88  1  0
 35 89  1  0
 36 90  1  0
 38 91  1  0
 38 92  1  0
 39 93  1  0
 40 94  1  0
 41 95  1  0
 41 96  1  0
 41 97  1  0
 42 98  1  0
 42 99  1  0
 42100  1  0
 43101  1  0
 44102  1  0
 47103  1  0
 48104  1  0
 51105  1  0
 52106  1  0
 55107  1  0
 56108  1  0
 59109  1  0
 60110  1  0
M  END
> <Uni-Dock RESULT> 
ENERGY=   -7.156  LOWER_BOUND=    0.000  UPPER_BOUND=    0.000
INTER + INTRA:          -7.156
INTER:                  -7.156
INTRA:                   0.000
UNBOUND:                 0.000

$$$$

     RDKit          3D

110109  0  0  0  0  0  0  0  0999 V2000
   48.5609    9.0633   14.7613 C   0  0  0  0  0  0  0  0  0  0  0  0
   45.9583    7.8354   12.2879 C   0  0  0  0  0  0  0  0  0  0  0  0
   47.3359    8.5594   14.1361 C   0  0  0  0  0  0  0  0  0  0  0  0
   47.2245    8.3413   12.8193 C   0  0  0  0  0  0  0  0  0  0  0  0
   48.6908    9.2687   15.9540 O   0  0  0  0  0  0  0  0  0  0  0  0
   44.9477    7.5781   12.9118 O   0  0  0  0  0  0  0  0  0  0  0  0
   46.0447    7.6788   10.9586 O   0  0  0  0  0  0  0  0  0  0  0  0
   49.5597    9.2879   13.8952 O   0  0  0  0  0  0  0  0  0  0  0  0
   47.9834   13.2168   13.2639 C   0  0  0  0  0  0  0  0  0  0  0  0
   48.8645   12.3841   13.9266 C   0  0  0  0  0  0  0  0  0  0  0  0
   48.8880   11.0398   13.7820 N   0  0  0  0  0  0  0  0  0  0  0  0
   47.9884   10.4541   12.9656 C   0  0  0  0  0  0  0  0  0  0  0  0
   47.0858   11.2422   12.2421 C   0  0  0  0  0  0  0  0  0  0  0  0
   47.0786   12.6292   12.3943 C   0  0  0  0  0  0  0  0  0  0  0  0
   47.9998    9.0608   12.7856 N   0  0  0  0  0  0  0  0  0  0  0  0
   49.2231    8.3895   13.2798 C   0  0  0  0  0  0  0  0  0  0  0  0
   46.7095    8.3948   13.0570 C   0  0  0  0  0  0  0  0  0  0  0  0
   46.5266    7.1430   12.1644 C   0  0  0  0  0  0  0  0  0  0  0  0
   45.3987    6.2738   12.5647 N   0  0  0  0  0  0  0  0  0  0  0  0
   44.1039    6.9266   12.3670 C   0  0  0  0  0  0  0  0  0  0  0  0
   45.4450    5.0164   11.8139 C   0  0  0  0  0  0  0  0  0  0  0  0
   49.2420    7.8383   14.6893 C   0  0  0  0  0  0  0  0  0  0  0  0
   48.7625    6.6208   15.1412 C   0  0  0  0  0  0  0  0  0  0  0  0
   48.9692    6.4323   16.5376 C   0  0  0  0  0  0  0  0  0  0  0  0
   49.6126    7.5049   17.1082 C   0  0  0  0  0  0  0  0  0  0  0  0
   49.9721    8.7216   15.9652 S   0  0  0  0  0  0  0  0  0  0  0  0
   47.1202    8.5321   13.3260 N   0  0  0  0  0  0  0  0  0  0  0  0
   46.4188    9.3909   12.4377 C   0  0  0  0  0  0  0  0  0  0  0  0
   46.5688    6.3496   12.1804 C   0  0  0  0  0  0  0  0  0  0  0  0
   46.0152    5.2165   13.3418 S   0  0  0  0  0  0  0  0  0  0  0  0
   47.6158    7.3724   12.5524 C   0  0  0  0  0  0  0  0  0  0  0  0
   47.0972   10.1879   11.5833 N   0  0  0  0  0  0  0  0  0  0  0  0
   44.9425    4.4976   12.2201 C   0  0  0  0  0  0  0  0  0  0  0  0
   45.9386    6.1777   10.9636 C   0  0  0  0  0  0  0  0  0  0  0  0
   48.1984    9.2995   13.9941 C   0  0  0  0  0  0  0  0  0  0  0  0
   44.9977    5.1088   10.9886 C   0  0  0  0  0  0  0  0  0  0  0  0
   49.5309    9.4242   16.1598 N   0  0  0  0  0  0  0  0  0  0  0  0
   48.5580    8.6517   15.3543 C   0  0  0  0  0  0  0  0  0  0  0  0
   45.0233    9.3700   12.4726 C   0  0  0  0  0  0  0  0  0  0  0  0
   46.3744   10.9867   10.7663 C   0  0  0  0  0  0  0  0  0  0  0  0
   50.8620    9.4320   15.5523 C   0  0  0  0  0  0  0  0  0  0  0  0
   49.6120    8.8676   17.5125 C   0  0  0  0  0  0  0  0  0  0  0  0
   44.3021   10.1986   11.6191 C   0  0  0  0  0  0  0  0  0  0  0  0
   44.9926   11.0313   10.7485 C   0  0  0  0  0  0  0  0  0  0  0  0
   48.7522    9.3871   14.2229 C   0  0  0  0  0  0  0  0  0  0  0  0
   45.8729    7.5059   12.5377 C   0  0  0  0  0  0  0  0  0  0  0  0
   47.9585    8.5945   13.2803 C   0  0  0  0  0  0  0  0  0  0  0  0
   46.6662    8.3009   13.4789 C   0  0  0  0  0  0  0  0  0  0  0  0
   49.9260    9.6688   14.0659 O   0  0  0  0  0  0  0  0  0  0  0  0
   44.6979    7.2276   12.6918 O   0  0  0  0  0  0  0  0  0  0  0  0
   46.5582    7.0955   11.4607 O   0  0  0  0  0  0  0  0  0  0  0  0
   48.0683    9.7916   15.3036 O   0  0  0  0  0  0  0  0  0  0  0  0
   45.7661    7.4191   12.7209 C   0  0  0  0  0  0  0  0  0  0  0  0
   48.5188    9.4621   14.3530 C   0  0  0  0  0  0  0  0  0  0  0  0
   46.6047    8.1518   13.6740 C   0  0  0  0  0  0  0  0  0  0  0  0
   47.7511    8.7526   13.3283 C   0  0  0  0  0  0  0  0  0  0  0  0
   44.7205    6.8653   13.0073 O   0  0  0  0  0  0  0  0  0  0  0  0
   48.2422    9.5812   15.5303 O   0  0  0  0  0  0  0  0  0  0  0  0
   49.6244    9.9965   13.8132 O   0  0  0  0  0  0  0  0  0  0  0  0
   46.2525    7.4008   11.4711 O   0  0  0  0  0  0  0  0  0  0  0  0
   46.5154    8.3710   14.8211 H   0  0  0  0  0  0  0  0  0  0  0  0
   48.0280    8.5195   12.1156 H   0  0  0  0  0  0  0  0  0  0  0  0
   45.1604    7.3451   10.6997 H   0  0  0  0  0  0  0  0  0  0  0  0
   50.2922    9.6109   14.4609 H   0  0  0  0  0  0  0  0  0  0  0  0
   48.0093   14.2897   13.4142 H   0  0  0  0  0  0  0  0  0  0  0  0
   49.6028   12.7865   14.6153 H   0  0  0  0  0  0  0  0  0  0  0  0
   46.4034   10.7850   11.5339 H   0  0  0  0  0  0  0  0  0  0  0  0
   46.3795   13.2395   11.8308 H   0  0  0  0  0  0  0  0  0  0  0  0
   49.3963    7.5336   12.6121 H   0  0  0  0  0  0  0  0  0  0  0  0
   50.1108    9.0153   13.1053 H   0  0  0  0  0  0  0  0  0  0  0  0
   46.6325    8.1298   14.1173 H   0  0  0  0  0  0  0  0  0  0  0  0
   45.8633    9.0630   12.8647 H   0  0  0  0  0  0  0  0  0  0  0  0
   46.4209    7.4590   11.1171 H   0  0  0  0  0  0  0  0  0  0  0  0
   47.4450    6.5455   12.2107 H   0  0  0  0  0  0  0  0  0  0  0  0
   43.9466    7.2210   11.3234 H   0  0  0  0  0  0  0  0  0  0  0  0
   43.2882    6.2565   12.6649 H   0  0  0  0  0  0  0  0  0  0  0  0
   44.0077    7.8157   12.9965 H   0  0  0  0  0  0  0  0  0  0  0  0
   45.3427    5.1767   10.7345 H   0  0  0  0  0  0  0  0  0  0  0  0
   44.6425    4.3451   12.1409 H   0  0  0  0  0  0  0  0  0  0  0  0
   46.3875    4.4874   11.9972 H   0  0  0  0  0  0  0  0  0  0  0  0
   48.2716    5.8978   14.5006 H   0  0  0  0  0  0  0  0  0  0  0  0
   48.6603    5.5567   17.0926 H   0  0  0  0  0  0  0  0  0  0  0  0
   49.8954    7.6347   18.1432 H   0  0  0  0  0  0  0  0  0  0  0  0
   48.3823    6.8527   13.1415 H   0  0  0  0  0  0  0  0  0  0  0  0
   48.1400    7.7000   11.6428 H   0  0  0  0  0  0  0  0  0  0  0  0
   44.3219    3.6648   12.5202 H   0  0  0  0  0  0  0  0  0  0  0  0
   46.1371    6.8023   10.1008 H   0  0  0  0  0  0  0  0  0  0  0  0
   49.0813    9.3593   13.3459 H   0  0  0  0  0  0  0  0  0  0  0  0
   47.8672   10.3266   14.2040 H   0  0  0  0  0  0  0  0  0  0  0  0
   44.3921    4.8061   10.1438 H   0  0  0  0  0  0  0  0  0  0  0  0
   47.6215    8.5612   15.9227 H   0  0  0  0  0  0  0  0  0  0  0  0
   48.9254    7.6283   15.2026 H   0  0  0  0  0  0  0  0  0  0  0  0
   44.5107    8.7109   13.1664 H   0  0  0  0  0  0  0  0  0  0  0  0
   46.9606   11.6166   10.1040 H   0  0  0  0  0  0  0  0  0  0  0  0
   50.8524    9.9390   14.5837 H   0  0  0  0  0  0  0  0  0  0  0  0
   51.5668    9.9908   16.1801 H   0  0  0  0  0  0  0  0  0  0  0  0
   51.2564    8.4200   15.4109 H   0  0  0  0  0  0  0  0  0  0  0  0
   48.6344    8.9065   18.0054 H   0  0  0  0  0  0  0  0  0  0  0  0
   50.2957    9.4591   18.1322 H   0  0  0  0  0  0  0  0  0  0  0  0
   49.9584    7.8271   17.5104 H   0  0  0  0  0  0  0  0  0  0  0  0
   43.2170   10.1967   11.6406 H   0  0  0  0  0  0  0  0  0  0  0  0
   44.4673   11.6989   10.0765 H   0  0  0  0  0  0  0  0  0  0  0  0
   48.5025    8.2587   12.4043 H   0  0  0  0  0  0  0  0  0  0  0  0
   46.1217    8.6370   14.3543 H   0  0  0  0  0  0  0  0  0  0  0  0
   45.8984    6.5922   10.9387 H   0  0  0  0  0  0  0  0  0  0  0  0
   48.7264   10.3006   15.8222 H   0  0  0  0  0  0  0  0  0  0  0  0
   46.2263    8.1762   14.6915 H   0  0  0  0  0  0  0  0  0  0  0  0
   48.1473    8.7424   12.3203 H   0  0  0  0  0  0  0  0  0  0  0  0
   50.0682   10.4426   14.5645 H   0  0  0  0  0  0  0  0  0  0  0  0
   45.5881    6.8813   10.9714 H   0  0  0  0  0  0  0  0  0  0  0  0
  2  4  1  0
  3  1  1  0
  4  3  2  0
  5  1  2  0
  6  2  2  0
  7  2  1  0
  8  1  1  0
 15 17  1  0
 12 15  1  0
 17 18  1  0
 11 12  1  0
 18 19  1  0
 15 16  1  0
 19 20  1  0
 19 21  1  0
 16 22  1  0
 23 24  1  0
 12 13  2  0
 10 11  2  0
 13 14  1  0
 22 23  2  0
 24 25  2  0
 25 26  1  0
 26 22  1  0
 14  9  2  0
  9 10  1  0
 28 27  1  0
 29 31  1  0
 30 29  1  0
 31 27  1  0
 32 28  2  0
 33 30  1  0
 34 29  2  0
 35 27  1  0
 36 34  1  0
 37 38  1  0
 38 35  1  0
 39 28  1  0
 40 32  1  0
 41 37  1  0
 42 37  1  0
 43 39  2  0
 44 40  2  0
 36 33  2  0
 43 44  1  0
 46 48  1  0
 47 45  1  0
 48 47  2  0
 49 45  2  0
 50 46  2  0
 51 46  1  0
 52 45  1  0
 54 56  1  0
 55 53  1  0
 56 55  2  0
 57 53  2  0
 58 54  2  0
 59 54  1  0
 60 53  1  0
  3 61  1  0
  4 62  1  0
  7 63  1  0
  8 64  1  0
  9 65  1  0
 10 66  1  0
 13 67  1  0
 14 68  1  0
 16 69  1  0
 16 70  1  0
 17 71  1  0
 17 72  1  0
 18 73  1  0
 18 74  1  0
 20 75  1  0
 20 76  1  0
 20 77  1  0
 21 78  1  0
 21 79  1  0
 21 80  1  0
 23 81  1  0
 24 82  1  0
 25 83  1  0
 31 84  1  0
 31 85  1  0
 33 86  1  0
 34 87  1  0
 35 88  1  0
 35 89  1  0
 36 90  1  0
 38 91  1  0
 38 92  1  0
 39 93  1  0
 40 94  1  0
 41 95  1  0
 41 96  1  0
 41 97  1  0
 42 98  1  0
 42 99  1  0
 42100  1  0
 43101  1  0
 44102  1  0
 47103  1  0
 48104  1  0
 51105  1  0
 52106  1  0
 55107  1  0
 56108  1  0
 59109  1  0
 60110  1  0
M  END
> <Uni-Dock RESULT> 
ENERGY=   -6.818  LOWER_BOUND=    4.313  UPPER_BOUND=    7.414
INTER + INTRA:          -6.818
INTER:                  -6.818
INTRA:                   0.000
UNBOUND:                 0.000

$$$$

     RDKit          3D

110109  0  0  0  0  0  0  0  0999 V2000
   48.1763    9.9859   18.2883 C   0  0  0  0  0  0  0  0  0  0  0  0
   48.2455    6.6093   20.0183 C   0  0  0  0  0  0  0  0  0  0  0  0
   47.8188    8.7657   19.0155 C   0  0  0  0  0  0  0  0  0  0  0  0
   48.6981    7.7918   19.2846 C   0  0  0  0  0  0  0  0  0  0  0  0
   47.3993   10.8871   18.0318 O   0  0  0  0  0  0  0  0  0  0  0  0
   47.1255    6.3828   20.4321 O   0  0  0  0  0  0  0  0  0  0  0  0
   49.2651    5.7554   20.1927 O   0  0  0  0  0  0  0  0  0  0  0  0
   49.4634   10.0383   17.9154 O   0  0  0  0  0  0  0  0  0  0  0  0
   48.4002    7.9367   14.3415 C   0  0  0  0  0  0  0  0  0  0  0  0
   48.6317    9.1350   14.9891 C   0  0  0  0  0  0  0  0  0  0  0  0
   48.8916    9.2414   16.3119 N   0  0  0  0  0  0  0  0  0  0  0  0
   48.9052    8.1245   17.0675 C   0  0  0  0  0  0  0  0  0  0  0  0
   48.7065    6.8747   16.4693 C   0  0  0  0  0  0  0  0  0  0  0  0
   48.4480    6.7789   15.1014 C   0  0  0  0  0  0  0  0  0  0  0  0
   49.1869    8.2044   18.4416 N   0  0  0  0  0  0  0  0  0  0  0  0
   49.7595    9.4990   18.8749 C   0  0  0  0  0  0  0  0  0  0  0  0
   48.1649    7.5935   19.3159 C   0  0  0  0  0  0  0  0  0  0  0  0
   48.8018    7.0163   20.6036 C   0  0  0  0  0  0  0  0  0  0  0  0
   47.8229    6.6381   21.6459 N   0  0  0  0  0  0  0  0  0  0  0  0
   46.9921    5.5054   21.2355 C   0  0  0  0  0  0  0  0  0  0  0  0
   48.5196    6.3209   22.8953 C   0  0  0  0  0  0  0  0  0  0  0  0
   48.8306   10.5836   19.3766 C   0  0  0  0  0  0  0  0  0  0  0  0
   48.3036   10.7423   20.6468 C   0  0  0  0  0  0  0  0  0  0  0  0
   47.4770   11.8966   20.7591 C   0  0  0  0  0  0  0  0  0  0  0  0
   47.4081   12.5927   19.5756 C   0  0  0  0  0  0  0  0  0  0  0  0
   48.3419   11.8639   18.3455 S   0  0  0  0  0  0  0  0  0  0  0  0
   48.2459    8.0490   19.1016 N   0  0  0  0  0  0  0  0  0  0  0  0
   48.2970    6.8130   18.4029 C   0  0  0  0  0  0  0  0  0  0  0  0
   48.9031    7.1702   21.3766 C   0  0  0  0  0  0  0  0  0  0  0  0
   47.8123    7.7651   22.5580 S   0  0  0  0  0  0  0  0  0  0  0  0
   49.2618    8.0142   20.1767 C   0  0  0  0  0  0  0  0  0  0  0  0
   49.2924    6.5691   17.5224 N   0  0  0  0  0  0  0  0  0  0  0  0
   47.9356    6.3317   23.4831 C   0  0  0  0  0  0  0  0  0  0  0  0
   49.3449    5.8995   21.6885 C   0  0  0  0  0  0  0  0  0  0  0  0
   48.4431    9.1597   18.1398 C   0  0  0  0  0  0  0  0  0  0  0  0
   48.7835    5.4154   22.9047 C   0  0  0  0  0  0  0  0  0  0  0  0
   47.8226   11.5939   17.7262 N   0  0  0  0  0  0  0  0  0  0  0  0
   47.7969   10.4604   18.6782 C   0  0  0  0  0  0  0  0  0  0  0  0
   47.3018    5.8703   18.6669 C   0  0  0  0  0  0  0  0  0  0  0  0
   49.2842    5.3770   16.8845 C   0  0  0  0  0  0  0  0  0  0  0  0
   49.1806   12.0904   17.5015 C   0  0  0  0  0  0  0  0  0  0  0  0
   46.9781   12.6826   18.2238 C   0  0  0  0  0  0  0  0  0  0  0  0
   47.3175    4.6493   18.0004 C   0  0  0  0  0  0  0  0  0  0  0  0
   48.3290    4.3973   17.0831 C   0  0  0  0  0  0  0  0  0  0  0  0
   48.6576    9.6934   17.9505 C   0  0  0  0  0  0  0  0  0  0  0  0
   48.0434    6.7730   20.3510 C   0  0  0  0  0  0  0  0  0  0  0  0
   48.8561    8.5907   18.8946 C   0  0  0  0  0  0  0  0  0  0  0  0
   47.8453    7.8740   19.4046 C   0  0  0  0  0  0  0  0  0  0  0  0
   49.5576   10.3589   17.4718 O   0  0  0  0  0  0  0  0  0  0  0  0
   47.1442    6.1042   20.8265 O   0  0  0  0  0  0  0  0  0  0  0  0
   49.3280    6.5495   20.6635 O   0  0  0  0  0  0  0  0  0  0  0  0
   47.3719    9.9214   17.6434 O   0  0  0  0  0  0  0  0  0  0  0  0
   47.8480    6.8401   20.4503 C   0  0  0  0  0  0  0  0  0  0  0  0
   48.3948    9.6121   17.9141 C   0  0  0  0  0  0  0  0  0  0  0  0
   47.6796    7.9899   19.5570 C   0  0  0  0  0  0  0  0  0  0  0  0
   48.6610    8.4578   18.7740 C   0  0  0  0  0  0  0  0  0  0  0  0
   46.9741    6.3939   21.1708 O   0  0  0  0  0  0  0  0  0  0  0  0
   47.3544   10.2320   17.8140 O   0  0  0  0  0  0  0  0  0  0  0  0
   49.4922    9.9243   17.2089 O   0  0  0  0  0  0  0  0  0  0  0  0
   49.0755    6.3006   20.4163 O   0  0  0  0  0  0  0  0  0  0  0  0
   46.7808    8.7046   19.3264 H   0  0  0  0  0  0  0  0  0  0  0  0
   49.7386    7.8294   18.9872 H   0  0  0  0  0  0  0  0  0  0  0  0
   48.8673    5.0058   20.6829 H   0  0  0  0  0  0  0  0  0  0  0  0
   49.5387   10.8999   17.4542 H   0  0  0  0  0  0  0  0  0  0  0  0
   48.1992    7.9074   13.2770 H   0  0  0  0  0  0  0  0  0  0  0  0
   48.6157   10.0760   14.4454 H   0  0  0  0  0  0  0  0  0  0  0  0
   48.7812    5.9667   17.0575 H   0  0  0  0  0  0  0  0  0  0  0  0
   48.2965    5.8088   14.6381 H   0  0  0  0  0  0  0  0  0  0  0  0
   50.4436    9.2713   19.7046 H   0  0  0  0  0  0  0  0  0  0  0  0
   50.4364    9.9040   18.1082 H   0  0  0  0  0  0  0  0  0  0  0  0
   47.3868    8.3247   19.5620 H   0  0  0  0  0  0  0  0  0  0  0  0
   47.6414    6.7743   18.8115 H   0  0  0  0  0  0  0  0  0  0  0  0
   49.4379    6.1601   20.3389 H   0  0  0  0  0  0  0  0  0  0  0  0
   49.4719    7.7728   21.0295 H   0  0  0  0  0  0  0  0  0  0  0  0
   47.5918    4.6189   21.0010 H   0  0  0  0  0  0  0  0  0  0  0  0
   46.2825    5.2437   22.0300 H   0  0  0  0  0  0  0  0  0  0  0  0
   46.3853    5.7549   20.3606 H   0  0  0  0  0  0  0  0  0  0  0  0
   49.1971    5.4666   22.7842 H   0  0  0  0  0  0  0  0  0  0  0  0
   47.7987    6.0891   23.6878 H   0  0  0  0  0  0  0  0  0  0  0  0
   49.1021    7.1809   23.2459 H   0  0  0  0  0  0  0  0  0  0  0  0
   48.4917   10.0531   21.4614 H   0  0  0  0  0  0  0  0  0  0  0  0
   46.9599   12.1977   21.6602 H   0  0  0  0  0  0  0  0  0  0  0  0
   46.8576   13.4999   19.3708 H   0  0  0  0  0  0  0  0  0  0  0  0
   49.4327    9.0363   20.5384 H   0  0  0  0  0  0  0  0  0  0  0  0
   50.2380    7.6912   19.7867 H   0  0  0  0  0  0  0  0  0  0  0  0
   47.3775    6.2304   24.4035 H   0  0  0  0  0  0  0  0  0  0  0  0
   50.0298    5.3406   21.0620 H   0  0  0  0  0  0  0  0  0  0  0  0
   49.5121    9.3085   17.9435 H   0  0  0  0  0  0  0  0  0  0  0  0
   47.9556    8.9306   17.1813 H   0  0  0  0  0  0  0  0  0  0  0  0
   48.9924    4.4425   23.3310 H   0  0  0  0  0  0  0  0  0  0  0  0
   46.7504   10.2225   18.9162 H   0  0  0  0  0  0  0  0  0  0  0  0
   48.2679   10.7550   19.6251 H   0  0  0  0  0  0  0  0  0  0  0  0
   46.5215    6.0966   19.3869 H   0  0  0  0  0  0  0  0  0  0  0  0
   50.0966    5.2282   16.1794 H   0  0  0  0  0  0  0  0  0  0  0  0
   49.8077   11.3291   17.0299 H   0  0  0  0  0  0  0  0  0  0  0  0
   49.1679   12.9430   16.8114 H   0  0  0  0  0  0  0  0  0  0  0  0
   49.6619   12.4095   18.4322 H   0  0  0  0  0  0  0  0  0  0  0  0
   45.9429   12.3445   18.3436 H   0  0  0  0  0  0  0  0  0  0  0  0
   46.9530   13.5100   17.5054 H   0  0  0  0  0  0  0  0  0  0  0  0
   47.3301   13.0705   19.1872 H   0  0  0  0  0  0  0  0  0  0  0  0
   46.5462    3.9103   18.1918 H   0  0  0  0  0  0  0  0  0  0  0  0
   48.3695    3.4634   16.5359 H   0  0  0  0  0  0  0  0  0  0  0  0
   49.8919    8.3999   19.1531 H   0  0  0  0  0  0  0  0  0  0  0  0
   46.8095    8.0640   19.1459 H   0  0  0  0  0  0  0  0  0  0  0  0
   49.2912    5.7948   21.2883 H   0  0  0  0  0  0  0  0  0  0  0  0
   47.4095   10.6716   17.0135 H   0  0  0  0  0  0  0  0  0  0  0  0
   46.6916    8.4401   19.5722 H   0  0  0  0  0  0  0  0  0  0  0  0
   49.6532    8.0247   18.7414 H   0  0  0  0  0  0  0  0  0  0  0  0
   49.2219   10.6984   16.6721 H   0  0  0  0  0  0  0  0  0  0  0  0
   49.0213    5.5608   21.0572 H   0  0  0  0  0  0  0  0  0  0  0  0
  2  4  1  0
  3  1  1  0
  4  3  2  0
  5  1  2  0
  6  2  2  0
  7  2  1  0
  8  1  1  0
 15 17  1  0
 12 15  1  0
 17 18  1  0
 11 12  1  0
 18 19  1  0
 15 16  1  0
 19 20  1  0
 19 21  1  0
 16 22  1  0
 23 24  1  0
 12 13  2  0
 10 11  2  0
 13 14  1  0
 22 23  2  0
 24 25  2  0
 25 26  1  0
 26 22  1  0
 14  9  2  0
  9 10  1  0
 28 27  1  0
 29 31  1  0
 30 29  1  0
 31 27  1  0
 32 28  2  0
 33 30  1  0
 34 29  2  0
 35 27  1  0
 36 34  1  0
 37 38  1  0
 38 35  1  0
 39 28  1  0
 40 32  1  0
 41 37  1  0
 42 37  1  0
 43 39  2  0
 44 40  2  0
 36 33  2  0
 43 44  1  0
 46 48  1  0
 47 45  1  0
 48 47  2  0
 49 45  2  0
 50 46  2  0
 51 46  1  0
 52 45  1  0
 54 56  1  0
 55 53  1  0
 56 55  2  0
 57 53  2  0
 58 54  2  0
 59 54  1  0
 60 53  1  0
  3 61  1  0
  4 62  1  0
  7 63  1  0
  8 64  1  0
  9 65  1  0
 10 66  1  0
 13 67  1  0
 14 68  1  0
 16 69  1  0
 16 70  1  0
 17 71  1  0
 17 72  1  0
 18 73  1  0
 18 74  1  0
 20 75  1  0
 20 76  1  0
 20 77  1  0
 21 78  1  0
 21 79  1  0
 21 80  1  0
 23 81  1  0
 24 82  1  0
 25 83  1  0
 31 84  1  0
 31 85  1  0
 33 86  1  0
 34 87  1  0
 35 88  1  0
 35 89  1  0
 36 90  1  0
 38 91  1  0
 38 92  1  0
 39 93  1  0
 40 94  1  0
 41 95  1  0
 41 96  1  0
 41 97  1  0
 42 98  1  0
 42 99  1  0
 42100  1  0
 43101  1  0
 44102  1  0
 47103  1  0
 48104  1  0
 51105  1  0
 52106  1  0
 55107  1  0
 56108  1  0
 59109  1  0
 60110  1  0
M  END
> <Uni-Dock RESULT> 
ENERGY=   -6.655  LOWER_BOUND=    1.511  UPPER_BOUND=    5.551
INTER + INTRA:          -6.655
INTER:                  -6.655
INTRA:                   0.000
UNBOUND:                 0.000

$$$$

     RDKit          3D

110109  0  0  0  0  0  0  0  0999 V2000
   48.4582    9.6970   19.1411 C   0  0  0  0  0  0  0  0  0  0  0  0
   48.2194    5.9191   19.4055 C   0  0  0  0  0  0  0  0  0  0  0  0
   48.7480    8.2612   19.1354 C   0  0  0  0  0  0  0  0  0  0  0  0
   47.8341    7.3305   19.4398 C   0  0  0  0  0  0  0  0  0  0  0  0
   49.2676   10.5638   18.8673 O   0  0  0  0  0  0  0  0  0  0  0  0
   49.3094    5.4593   19.1275 O   0  0  0  0  0  0  0  0  0  0  0  0
   47.1733    5.1465   19.7342 O   0  0  0  0  0  0  0  0  0  0  0  0
   47.1953    9.9945   19.4802 O   0  0  0  0  0  0  0  0  0  0  0  0
   48.4099    9.9828   23.5844 C   0  0  0  0  0  0  0  0  0  0  0  0
   48.1688   10.6868   22.4203 C   0  0  0  0  0  0  0  0  0  0  0  0
   47.8380   10.1098   21.2428 N   0  0  0  0  0  0  0  0  0  0  0  0
   47.7581    8.7654   21.1730 C   0  0  0  0  0  0  0  0  0  0  0  0
   47.9626    7.9936   22.3227 C   0  0  0  0  0  0  0  0  0  0  0  0
   48.2947    8.6028   23.5333 C   0  0  0  0  0  0  0  0  0  0  0  0
   47.4021    8.1405   19.9662 N   0  0  0  0  0  0  0  0  0  0  0  0
   46.8346    9.0533   18.9482 C   0  0  0  0  0  0  0  0  0  0  0  0
   48.3603    7.1194   19.4959 C   0  0  0  0  0  0  0  0  0  0  0  0
   47.6403    5.9930   18.7149 C   0  0  0  0  0  0  0  0  0  0  0  0
   48.5512    5.0867   17.9824 N   0  0  0  0  0  0  0  0  0  0  0  0
   49.3787    4.2885   18.8878 C   0  0  0  0  0  0  0  0  0  0  0  0
   47.7792    4.2055   17.1022 C   0  0  0  0  0  0  0  0  0  0  0  0
   47.7574    9.6800   17.9252 C   0  0  0  0  0  0  0  0  0  0  0  0
   48.2162    9.1377   16.7371 C   0  0  0  0  0  0  0  0  0  0  0  0
   49.0602   10.0292   16.0152 C   0  0  0  0  0  0  0  0  0  0  0  0
   49.2100   11.2308   16.6662 C   0  0  0  0  0  0  0  0  0  0  0  0
   48.3305   11.2835   18.1291 S   0  0  0  0  0  0  0  0  0  0  0  0
   48.3012    7.6234   19.4472 N   0  0  0  0  0  0  0  0  0  0  0  0
   48.2623    6.9268   20.6848 C   0  0  0  0  0  0  0  0  0  0  0  0
   47.4994    5.7320   17.9777 C   0  0  0  0  0  0  0  0  0  0  0  0
   48.5355    5.5821   16.6199 S   0  0  0  0  0  0  0  0  0  0  0  0
   47.2266    7.0888   18.5821 C   0  0  0  0  0  0  0  0  0  0  0  0
   47.3125    7.2179   21.6005 N   0  0  0  0  0  0  0  0  0  0  0  0
   48.3297    3.8848   16.5724 C   0  0  0  0  0  0  0  0  0  0  0  0
   47.0135    4.5043   18.3826 C   0  0  0  0  0  0  0  0  0  0  0  0
   48.1822    9.0786   19.7043 C   0  0  0  0  0  0  0  0  0  0  0  0
   47.4956    3.4378   17.5711 C   0  0  0  0  0  0  0  0  0  0  0  0
   48.8775   11.3463   18.7795 N   0  0  0  0  0  0  0  0  0  0  0  0
   48.8255    9.8848   18.5488 C   0  0  0  0  0  0  0  0  0  0  0  0
   49.2206    5.9366   20.9090 C   0  0  0  0  0  0  0  0  0  0  0  0
   47.3302    6.5249   22.7613 C   0  0  0  0  0  0  0  0  0  0  0  0
   47.5453   11.9513   18.7652 C   0  0  0  0  0  0  0  0  0  0  0  0
   49.7165   11.9826   17.7611 C   0  0  0  0  0  0  0  0  0  0  0  0
   49.2154    5.2347   22.1101 C   0  0  0  0  0  0  0  0  0  0  0  0
   48.2513    5.5386   23.0620 C   0  0  0  0  0  0  0  0  0  0  0  0
   47.9902    9.6431   19.5987 C   0  0  0  0  0  0  0  0  0  0  0  0
   48.4062    5.8786   19.0290 C   0  0  0  0  0  0  0  0  0  0  0  0
   47.7155    8.2227   19.3671 C   0  0  0  0  0  0  0  0  0  0  0  0
   48.6805    7.2988   19.2635 C   0  0  0  0  0  0  0  0  0  0  0  0
   47.1329   10.5017   19.6978 O   0  0  0  0  0  0  0  0  0  0  0  0
   49.2627    5.0188   18.9343 O   0  0  0  0  0  0  0  0  0  0  0  0
   47.1016    5.5873   18.9238 O   0  0  0  0  0  0  0  0  0  0  0  0
   49.2956    9.9353   19.6970 O   0  0  0  0  0  0  0  0  0  0  0  0
   48.5970    5.8758   18.9023 C   0  0  0  0  0  0  0  0  0  0  0  0
   48.2527    9.5797   19.6622 C   0  0  0  0  0  0  0  0  0  0  0  0
   48.8399    7.3118   19.0673 C   0  0  0  0  0  0  0  0  0  0  0  0
   47.9141    8.1616   19.5317 C   0  0  0  0  0  0  0  0  0  0  0  0
   49.4196    5.0817   18.4840 O   0  0  0  0  0  0  0  0  0  0  0  0
   49.3103   10.1128   19.3900 O   0  0  0  0  0  0  0  0  0  0  0  0
   47.2034   10.2617   20.1447 O   0  0  0  0  0  0  0  0  0  0  0  0
   47.3620    5.4894   19.2545 O   0  0  0  0  0  0  0  0  0  0  0  0
   49.7655    7.9998   18.8630 H   0  0  0  0  0  0  0  0  0  0  0  0
   46.8129    7.5648   19.7128 H   0  0  0  0  0  0  0  0  0  0  0  0
   47.5268    4.2337   19.6870 H   0  0  0  0  0  0  0  0  0  0  0  0
   47.1645   10.9732   19.4330 H   0  0  0  0  0  0  0  0  0  0  0  0
   48.6692   10.4956   24.5032 H   0  0  0  0  0  0  0  0  0  0  0  0
   48.2355   11.7714   22.3994 H   0  0  0  0  0  0  0  0  0  0  0  0
   47.8355    6.9170   22.2905 H   0  0  0  0  0  0  0  0  0  0  0  0
   48.4507    8.0031   24.4248 H   0  0  0  0  0  0  0  0  0  0  0  0
   46.1005    8.4640   18.3806 H   0  0  0  0  0  0  0  0  0  0  0  0
   46.2104    9.8265   19.4201 H   0  0  0  0  0  0  0  0  0  0  0  0
   49.1392    7.5820   18.8796 H   0  0  0  0  0  0  0  0  0  0  0  0
   48.8932    6.6525   20.3311 H   0  0  0  0  0  0  0  0  0  0  0  0
   47.0015    5.4260   19.4066 H   0  0  0  0  0  0  0  0  0  0  0  0
   46.9642    6.4534   17.9845 H   0  0  0  0  0  0  0  0  0  0  0  0
   48.7739    3.6784   19.5678 H   0  0  0  0  0  0  0  0  0  0  0  0
   50.0371    3.6222   18.3170 H   0  0  0  0  0  0  0  0  0  0  0  0
   50.0386    4.9234   19.4856 H   0  0  0  0  0  0  0  0  0  0  0  0
   47.0905    3.5632   17.6629 H   0  0  0  0  0  0  0  0  0  0  0  0
   48.4497    3.5653   16.5173 H   0  0  0  0  0  0  0  0  0  0  0  0
   47.1970    4.7892   16.3797 H   0  0  0  0  0  0  0  0  0  0  0  0
   47.9681    8.1374   16.4024 H   0  0  0  0  0  0  0  0  0  0  0  0
   49.5328    9.7991   15.0697 H   0  0  0  0  0  0  0  0  0  0  0  0
   49.7907   12.0868   16.3533 H   0  0  0  0  0  0  0  0  0  0  0  0
   47.0580    7.7861   17.7514 H   0  0  0  0  0  0  0  0  0  0  0  0
   46.2668    7.0590   19.1182 H   0  0  0  0  0  0  0  0  0  0  0  0
   48.8333    3.2983   15.8166 H   0  0  0  0  0  0  0  0  0  0  0  0
   46.3525    4.3804   19.2322 H   0  0  0  0  0  0  0  0  0  0  0  0
   47.1293    9.3575   19.8345 H   0  0  0  0  0  0  0  0  0  0  0  0
   48.7172    9.3522   20.6250 H   0  0  0  0  0  0  0  0  0  0  0  0
   47.2422    2.3953   17.7160 H   0  0  0  0  0  0  0  0  0  0  0  0
   49.8517    9.5091   18.4297 H   0  0  0  0  0  0  0  0  0  0  0  0
   48.3090    9.6724   17.6036 H   0  0  0  0  0  0  0  0  0  0  0  0
   49.9643    5.7232   20.1475 H   0  0  0  0  0  0  0  0  0  0  0  0
   46.5553    6.7985   23.4711 H   0  0  0  0  0  0  0  0  0  0  0  0
   46.9290   11.5717   19.5845 H   0  0  0  0  0  0  0  0  0  0  0  0
   47.6148   13.0356   18.9154 H   0  0  0  0  0  0  0  0  0  0  0  0
   47.0199   11.7686   17.8216 H   0  0  0  0  0  0  0  0  0  0  0  0
   50.7358   11.5824   17.7952 H   0  0  0  0  0  0  0  0  0  0  0  0
   49.7995   13.0594   17.9479 H   0  0  0  0  0  0  0  0  0  0  0  0
   49.3199   11.8360   16.7492 H   0  0  0  0  0  0  0  0  0  0  0  0
   49.9586    4.4669   22.2994 H   0  0  0  0  0  0  0  0  0  0  0  0
   48.2211    5.0223   24.0137 H   0  0  0  0  0  0  0  0  0  0  0  0
   46.6630    7.9754   19.2821 H   0  0  0  0  0  0  0  0  0  0  0  0
   49.7329    7.5455   19.3491 H   0  0  0  0  0  0  0  0  0  0  0  0
   47.0871    4.6180   18.7772 H   0  0  0  0  0  0  0  0  0  0  0  0
   49.3095   10.9035   19.8503 H   0  0  0  0  0  0  0  0  0  0  0  0
   49.8351    7.6427   18.7859 H   0  0  0  0  0  0  0  0  0  0  0  0
   46.9161    7.8545   19.8193 H   0  0  0  0  0  0  0  0  0  0  0  0
   47.5199   11.1878   20.1948 H   0  0  0  0  0  0  0  0  0  0  0  0
   47.3643    4.5237   19.0858 H   0  0  0  0  0  0  0  0  0  0  0  0
  2  4  1  0
  3  1  1  0
  4  3  2  0
  5  1  2  0
  6  2  2  0
  7  2  1  0
  8  1  1  0
 15 17  1  0
 12 15  1  0
 17 18  1  0
 11 12  1  0
 18 19  1  0
 15 16  1  0
 19 20  1  0
 19 21  1  0
 16 22  1  0
 23 24  1  0
 12 13  2  0
 10 11  2  0
 13 14  1  0
 22 23  2  0
 24 25  2  0
 25 26  1  0
 26 22  1  0
 14  9  2  0
  9 10  1  0
 28 27  1  0
 29 31  1  0
 30 29  1  0
 31 27  1  0
 32 28  2  0
 33 30  1  0
 34 29  2  0
 35 27  1  0
 36 34  1  0
 37 38  1  0
 38 35  1  0
 39 28  1  0
 40 32  1  0
 41 37  1  0
 42 37  1  0
 43 39  2  0
 44 40  2  0
 36 33  2  0
 43 44  1  0
 46 48  1  0
 47 45  1  0
 48 47  2  0
 49 45  2  0
 50 46  2  0
 51 46  1  0
 52 45  1  0
 54 56  1  0
 55 53  1  0
 56 55  2  0
 57 53  2  0
 58 54  2  0
 59 54  1  0
 60 53  1  0
  3 61  1  0
  4 62  1  0
  7 63  1  0
  8 64  1  0
  9 65  1  0
 10 66  1  0
 13 67  1  0
 14 68  1  0
 16 69  1  0
 16 70  1  0
 17 71  1  0
 17 72  1  0
 18 73  1  0
 18 74  1  0
 20 75  1  0
 20 76  1  0
 20 77  1  0
 21 78  1  0
 21 79  1  0
 21 80  1  0
 23 81  1  0
 24 82  1  0
 25 83  1  0
 31 84  1  0
 31 85  1  0
 33 86  1  0
 34 87  1  0
 35 88  1  0
 35 89  1  0
 36 90  1  0
 38 91  1  0
 38 92  1  0
 39 93  1  0
 40 94  1  0
 41 95  1  0
 41 96  1  0
 41 97  1  0
 42 98  1  0
 42 99  1  0
 42100  1  0
 43101  1  0
 44102  1  0
 47103  1  0
 48104  1  0
 51105  1  0
 52106  1  0
 55107  1  0
 56108  1  0
 59109  1  0
 60110  1  0
M  END
> <Uni-Dock RESULT> 
ENERGY=   -6.478  LOWER_BOUND=    1.105  UPPER_BOUND=    4.826
INTER + INTRA:          -6.478
INTER:                  -6.478
INTRA:                   0.000
UNBOUND:                 0.000

$$$$

     RDKit          3D

110109  0  0  0  0  0  0  0  0999 V2000
   48.4170    8.4938   15.0275 C   0  0  0  0  0  0  0  0  0  0  0  0
   48.4190   10.7171   18.1026 C   0  0  0  0  0  0  0  0  0  0  0  0
   48.0577    9.4500   16.0773 C   0  0  0  0  0  0  0  0  0  0  0  0
   48.8669    9.7473   17.1024 C   0  0  0  0  0  0  0  0  0  0  0  0
   47.7031    8.2063   14.0845 O   0  0  0  0  0  0  0  0  0  0  0  0
   47.3603   11.3133   18.1285 O   0  0  0  0  0  0  0  0  0  0  0  0
   49.3632   10.8830   19.0407 O   0  0  0  0  0  0  0  0  0  0  0  0
   49.6288    7.9422   15.1872 O   0  0  0  0  0  0  0  0  0  0  0  0
   47.8172    4.9350   17.6356 C   0  0  0  0  0  0  0  0  0  0  0  0
   48.2649    5.3432   16.3939 C   0  0  0  0  0  0  0  0  0  0  0  0
   48.7374    6.5826   16.1308 N   0  0  0  0  0  0  0  0  0  0  0  0
   48.7575    7.4986   17.1204 C   0  0  0  0  0  0  0  0  0  0  0  0
   48.3445    7.1423   18.4095 C   0  0  0  0  0  0  0  0  0  0  0  0
   47.8675    5.8569   18.6689 C   0  0  0  0  0  0  0  0  0  0  0  0
   49.2567    8.7893   16.8785 N   0  0  0  0  0  0  0  0  0  0  0  0
   50.0159    8.9253   15.6148 C   0  0  0  0  0  0  0  0  0  0  0  0
   48.3281    9.8838   17.2274 C   0  0  0  0  0  0  0  0  0  0  0  0
   49.0975   11.1464   17.6867 C   0  0  0  0  0  0  0  0  0  0  0  0
   48.2605   12.3616   17.7883 N   0  0  0  0  0  0  0  0  0  0  0  0
   47.2674   12.2579   18.8581 C   0  0  0  0  0  0  0  0  0  0  0  0
   49.1087   13.5367   18.0050 C   0  0  0  0  0  0  0  0  0  0  0  0
   49.2893    9.3704   14.3638 C   0  0  0  0  0  0  0  0  0  0  0  0
   48.9854   10.6593   13.9606 C   0  0  0  0  0  0  0  0  0  0  0  0
   48.3054   10.6985   12.7099 C   0  0  0  0  0  0  0  0  0  0  0  0
   48.1223    9.4397   12.1883 C   0  0  0  0  0  0  0  0  0  0  0  0
   48.7755    8.2250   13.1954 S   0  0  0  0  0  0  0  0  0  0  0  0
   48.4196    9.5899   16.8210 N   0  0  0  0  0  0  0  0  0  0  0  0
   48.2378    9.0986   18.1416 C   0  0  0  0  0  0  0  0  0  0  0  0
   49.3330   11.8629   17.4366 C   0  0  0  0  0  0  0  0  0  0  0  0
   48.5046   13.0733   16.5489 S   0  0  0  0  0  0  0  0  0  0  0  0
   49.5822   10.5050   16.8245 C   0  0  0  0  0  0  0  0  0  0  0  0
   49.0542    8.1391   18.6296 N   0  0  0  0  0  0  0  0  0  0  0  0
   48.6275   14.1904   17.8383 C   0  0  0  0  0  0  0  0  0  0  0  0
   49.6894   12.3104   18.6936 C   0  0  0  0  0  0  0  0  0  0  0  0
   48.5737    8.4443   15.8928 C   0  0  0  0  0  0  0  0  0  0  0  0
   49.2793   13.6546   18.9251 C   0  0  0  0  0  0  0  0  0  0  0  0
   48.1417    7.7353   13.4862 N   0  0  0  0  0  0  0  0  0  0  0  0
   48.1521    8.8513   14.4590 C   0  0  0  0  0  0  0  0  0  0  0  0
   47.2071    9.6463   18.9075 C   0  0  0  0  0  0  0  0  0  0  0  0
   48.8281    7.7083   19.8911 C   0  0  0  0  0  0  0  0  0  0  0  0
   49.4905    7.2474   13.1970 C   0  0  0  0  0  0  0  0  0  0  0  0
   47.4977    8.1641   12.2422 C   0  0  0  0  0  0  0  0  0  0  0  0
   46.9971    9.1889   20.2045 C   0  0  0  0  0  0  0  0  0  0  0  0
   47.8228    8.1925   20.7077 C   0  0  0  0  0  0  0  0  0  0  0  0
   48.8081    8.1438   15.4222 C   0  0  0  0  0  0  0  0  0  0  0  0
   48.2885   11.0440   17.8692 C   0  0  0  0  0  0  0  0  0  0  0  0
   49.0408    9.2159   16.3934 C   0  0  0  0  0  0  0  0  0  0  0  0
   48.0557    9.9698   16.9001 C   0  0  0  0  0  0  0  0  0  0  0  0
   49.6841    7.4441   14.9478 O   0  0  0  0  0  0  0  0  0  0  0  0
   47.4126   11.7410   18.3475 O   0  0  0  0  0  0  0  0  0  0  0  0
   49.5775   11.2068   18.2008 O   0  0  0  0  0  0  0  0  0  0  0  0
   47.5194    7.9857   15.0854 O   0  0  0  0  0  0  0  0  0  0  0  0
   48.1188   11.1573   17.7652 C   0  0  0  0  0  0  0  0  0  0  0  0
   48.5361    8.1578   15.4752 C   0  0  0  0  0  0  0  0  0  0  0  0
   47.9283   10.1231   16.7441 C   0  0  0  0  0  0  0  0  0  0  0  0
   48.8170    9.1466   16.5175 C   0  0  0  0  0  0  0  0  0  0  0  0
   47.3280   12.0545   17.9927 O   0  0  0  0  0  0  0  0  0  0  0  0
   47.5597    8.1049   14.7536 O   0  0  0  0  0  0  0  0  0  0  0  0
   49.5356    7.2660   15.4044 O   0  0  0  0  0  0  0  0  0  0  0  0
   49.2660   11.0403   18.4499 O   0  0  0  0  0  0  0  0  0  0  0  0
   47.0801    9.9079   15.9656 H   0  0  0  0  0  0  0  0  0  0  0  0
   49.8467    9.3061   17.2356 H   0  0  0  0  0  0  0  0  0  0  0  0
   48.9741   11.5376   19.6575 H   0  0  0  0  0  0  0  0  0  0  0  0
   49.7166    7.3426   14.4167 H   0  0  0  0  0  0  0  0  0  0  0  0
   47.4505    3.9274   17.7931 H   0  0  0  0  0  0  0  0  0  0  0  0
   48.2580    4.6630   15.5462 H   0  0  0  0  0  0  0  0  0  0  0  0
   48.4194    7.8526   19.2256 H   0  0  0  0  0  0  0  0  0  0  0  0
   47.5497    5.5811   19.6698 H   0  0  0  0  0  0  0  0  0  0  0  0
   50.7950    9.6776   15.8026 H   0  0  0  0  0  0  0  0  0  0  0  0
   50.6017    8.0169   15.4103 H   0  0  0  0  0  0  0  0  0  0  0  0
   47.6746   10.1149   16.3788 H   0  0  0  0  0  0  0  0  0  0  0  0
   47.6534    9.5952   18.0405 H   0  0  0  0  0  0  0  0  0  0  0  0
   49.5961   10.9368   18.6434 H   0  0  0  0  0  0  0  0  0  0  0  0
   49.8977   11.3480   16.9644 H   0  0  0  0  0  0  0  0  0  0  0  0
   47.7319   12.0878   19.8357 H   0  0  0  0  0  0  0  0  0  0  0  0
   46.6680   13.1749   18.9138 H   0  0  0  0  0  0  0  0  0  0  0  0
   46.5593   11.4472   18.6648 H   0  0  0  0  0  0  0  0  0  0  0  0
   49.6721   13.4712   18.9428 H   0  0  0  0  0  0  0  0  0  0  0  0
   48.5008   14.4485   18.0303 H   0  0  0  0  0  0  0  0  0  0  0  0
   49.8213   13.6603   17.1812 H   0  0  0  0  0  0  0  0  0  0  0  0
   49.2288   11.5399   14.5432 H   0  0  0  0  0  0  0  0  0  0  0  0
   47.9679   11.6025   12.2212 H   0  0  0  0  0  0  0  0  0  0  0  0
   47.6396    9.1704   11.2596 H   0  0  0  0  0  0  0  0  0  0  0  0
   49.9083   10.6705   15.7896 H   0  0  0  0  0  0  0  0  0  0  0  0
   50.4486   10.0402   17.3173 H   0  0  0  0  0  0  0  0  0  0  0  0
   48.2127   15.1837   17.7369 H   0  0  0  0  0  0  0  0  0  0  0  0
   50.2091   11.6928   19.4164 H   0  0  0  0  0  0  0  0  0  0  0  0
   49.6084    8.0801   15.9057 H   0  0  0  0  0  0  0  0  0  0  0  0
   47.9223    7.6122   16.1962 H   0  0  0  0  0  0  0  0  0  0  0  0
   49.4544   14.1985   19.8447 H   0  0  0  0  0  0  0  0  0  0  0  0
   47.1372    9.2674   14.5304 H   0  0  0  0  0  0  0  0  0  0  0  0
   48.7921    9.6638   14.0909 H   0  0  0  0  0  0  0  0  0  0  0  0
   46.5752   10.4219   18.4862 H   0  0  0  0  0  0  0  0  0  0  0  0
   49.5015    6.9304   20.2381 H   0  0  0  0  0  0  0  0  0  0  0  0
   49.9574    6.8217   14.0892 H   0  0  0  0  0  0  0  0  0  0  0  0
   49.4552    6.4378   12.4577 H   0  0  0  0  0  0  0  0  0  0  0  0
   50.1405    8.0387   12.8085 H   0  0  0  0  0  0  0  0  0  0  0  0
   46.4655    8.4793   12.4303 H   0  0  0  0  0  0  0  0  0  0  0  0
   47.4433    7.3327   11.5300 H   0  0  0  0  0  0  0  0  0  0  0  0
   48.0326    8.9943   11.7655 H   0  0  0  0  0  0  0  0  0  0  0  0
   46.1954    9.6018   20.8083 H   0  0  0  0  0  0  0  0  0  0  0  0
   47.6843    7.8021   21.7085 H   0  0  0  0  0  0  0  0  0  0  0  0
   50.0801    9.3552   16.6702 H   0  0  0  0  0  0  0  0  0  0  0  0
   47.0164    9.8304   16.6241 H   0  0  0  0  0  0  0  0  0  0  0  0
   49.5637   11.9436   18.8474 H   0  0  0  0  0  0  0  0  0  0  0  0
   47.5326    7.2444   14.4440 H   0  0  0  0  0  0  0  0  0  0  0  0
   47.0045   10.2029   16.1790 H   0  0  0  0  0  0  0  0  0  0  0  0
   49.7439    9.0464   17.0687 H   0  0  0  0  0  0  0  0  0  0  0  0
   49.2631    6.6548   14.6885 H   0  0  0  0  0  0  0  0  0  0  0  0
   49.2392   11.7929   19.0775 H   0  0  0  0  0  0  0  0  0  0  0  0
  2  4  1  0
  3  1  1  0
  4  3  2  0
  5  1  2  0
  6  2  2  0
  7  2  1  0
  8  1  1  0
 15 17  1  0
 12 15  1  0
 17 18  1  0
 11 12  1  0
 18 19  1  0
 15 16  1  0
 19 20  1  0
 19 21  1  0
 16 22  1  0
 23 24  1  0
 12 13  2  0
 10 11  2  0
 13 14  1  0
 22 23  2  0
 24 25  2  0
 25 26  1  0
 26 22  1  0
 14  9  2  0
  9 10  1  0
 28 27  1  0
 29 31  1  0
 30 29  1  0
 31 27  1  0
 32 28  2  0
 33 30  1  0
 34 29  2  0
 35 27  1  0
 36 34  1  0
 37 38  1  0
 38 35  1  0
 39 28  1  0
 40 32  1  0
 41 37  1  0
 42 37  1  0
 43 39  2  0
 44 40  2  0
 36 33  2  0
 43 44  1  0
 46 48  1  0
 47 45  1  0
 48 47  2  0
 49 45  2  0
 50 46  2  0
 51 46  1  0
 52 45  1  0
 54 56  1  0
 55 53  1  0
 56 55  2  0
 57 53  2  0
 58 54  2  0
 59 54  1  0
 60 53  1  0
  3 61  1  0
  4 62  1  0
  7 63  1  0
  8 64  1  0
  9 65  1  0
 10 66  1  0
 13 67  1  0
 14 68  1  0
 16 69  1  0
 16 70  1  0
 17 71  1  0
 17 72  1  0
 18 73  1  0
 18 74  1  0
 20 75  1  0
 20 76  1  0
 20 77  1  0
 21 78  1  0
 21 79  1  0
 21 80  1  0
 23 81  1  0
 24 82  1  0
 25 83  1  0
 31 84  1  0
 31 85  1  0
 33 86  1  0
 34 87  1  0
 35 88  1  0
 35 89  1  0
 36 90  1  0
 38 91  1  0
 38 92  1  0
 39 93  1  0
 40 94  1  0
 41 95  1  0
 41 96  1  0
 41 97  1  0
 42 98  1  0
 42 99  1  0
 42100  1  0
 43101  1  0
 44102  1  0
 47103  1  0
 48104  1  0
 51105  1  0
 52106  1  0
 55107  1  0
 56108  1  0
 59109  1  0
 60110  1  0
M  END
> <Uni-Dock RESULT> 
ENERGY=   -6.443  LOWER_BOUND=    2.269  UPPER_BOUND=    3.866
INTER + INTRA:          -6.443
INTER:                  -6.443
INTRA:                   0.000
UNBOUND:                 0.000

$$$$

     RDKit          3D

110109  0  0  0  0  0  0  0  0999 V2000
   48.3453   10.1165   17.9112 C   0  0  0  0  0  0  0  0  0  0  0  0
   49.1206    6.6649   16.5384 C   0  0  0  0  0  0  0  0  0  0  0  0
   48.2506    8.7419   17.4142 C   0  0  0  0  0  0  0  0  0  0  0  0
   49.3164    8.0329   17.0198 C   0  0  0  0  0  0  0  0  0  0  0  0
   47.3950   10.7830   18.2777 O   0  0  0  0  0  0  0  0  0  0  0  0
   48.0705    6.0608   16.4422 O   0  0  0  0  0  0  0  0  0  0  0  0
   50.2986    6.1224   16.1962 O   0  0  0  0  0  0  0  0  0  0  0  0
   49.5956   10.6007   17.9339 O   0  0  0  0  0  0  0  0  0  0  0  0
   49.0677   11.8531   13.8752 C   0  0  0  0  0  0  0  0  0  0  0  0
   49.0236   12.1499   15.2239 C   0  0  0  0  0  0  0  0  0  0  0  0
   49.2345   11.2430   16.2046 N   0  0  0  0  0  0  0  0  0  0  0  0
   49.4792    9.9603   15.8675 C   0  0  0  0  0  0  0  0  0  0  0  0
   49.5656    9.5976   14.5184 C   0  0  0  0  0  0  0  0  0  0  0  0
   49.3546   10.5457   13.5166 C   0  0  0  0  0  0  0  0  0  0  0  0
   49.7163    9.0005   16.8656 N   0  0  0  0  0  0  0  0  0  0  0  0
   49.9875    9.5658   18.2067 C   0  0  0  0  0  0  0  0  0  0  0  0
   48.8386    7.8142   16.7996 C   0  0  0  0  0  0  0  0  0  0  0  0
   49.5664    6.5492   17.3165 C   0  0  0  0  0  0  0  0  0  0  0  0
   48.6777    5.3881   17.5394 N   0  0  0  0  0  0  0  0  0  0  0  0
   48.1190    4.8746   16.2881 C   0  0  0  0  0  0  0  0  0  0  0  0
   49.4080    4.3251   18.2349 C   0  0  0  0  0  0  0  0  0  0  0  0
   48.8378    9.7512   19.1736 C   0  0  0  0  0  0  0  0  0  0  0  0
   48.2701    8.8156   20.0214 C   0  0  0  0  0  0  0  0  0  0  0  0
   47.2109    9.3552   20.8057 C   0  0  0  0  0  0  0  0  0  0  0  0
   47.0100   10.6898   20.5439 C   0  0  0  0  0  0  0  0  0  0  0  0
   48.0981   11.2858   19.3703 S   0  0  0  0  0  0  0  0  0  0  0  0
   48.8219    8.2769   17.0130 N   0  0  0  0  0  0  0  0  0  0  0  0
   49.1507    8.0318   15.6527 C   0  0  0  0  0  0  0  0  0  0  0  0
   49.6204    6.0710   17.9488 C   0  0  0  0  0  0  0  0  0  0  0  0
   48.4089    5.4067   18.9640 S   0  0  0  0  0  0  0  0  0  0  0  0
   49.8049    7.5673   17.8609 C   0  0  0  0  0  0  0  0  0  0  0  0
   50.1882    8.6771   15.0759 N   0  0  0  0  0  0  0  0  0  0  0  0
   48.8269    3.8084   18.5211 C   0  0  0  0  0  0  0  0  0  0  0  0
   50.3230    5.0843   17.2854 C   0  0  0  0  0  0  0  0  0  0  0  0
   48.7873    9.7402   17.2488 C   0  0  0  0  0  0  0  0  0  0  0  0
   49.8621    3.7777   17.6153 C   0  0  0  0  0  0  0  0  0  0  0  0
   47.6591   11.5192   18.6782 N   0  0  0  0  0  0  0  0  0  0  0  0
   47.8660   10.0712   18.4492 C   0  0  0  0  0  0  0  0  0  0  0  0
   48.3802    7.1036   14.9502 C   0  0  0  0  0  0  0  0  0  0  0  0
   50.4487    8.4059   13.7773 C   0  0  0  0  0  0  0  0  0  0  0  0
   48.8799   12.1814   19.1387 C   0  0  0  0  0  0  0  0  0  0  0  0
   46.5909   11.7212   19.6602 C   0  0  0  0  0  0  0  0  0  0  0  0
   48.6707    6.8389   13.6156 C   0  0  0  0  0  0  0  0  0  0  0  0
   49.7263    7.5092   13.0119 C   0  0  0  0  0  0  0  0  0  0  0  0
   48.8836   10.2507   17.5598 C   0  0  0  0  0  0  0  0  0  0  0  0
   48.8828    6.4890   16.8398 C   0  0  0  0  0  0  0  0  0  0  0  0
   49.3028    8.8575   17.3876 C   0  0  0  0  0  0  0  0  0  0  0  0
   48.4644    7.8831   17.0092 C   0  0  0  0  0  0  0  0  0  0  0  0
   49.6245   11.1543   17.9010 O   0  0  0  0  0  0  0  0  0  0  0  0
   48.1434    5.5858   16.4942 O   0  0  0  0  0  0  0  0  0  0  0  0
   50.1805    6.2756   17.1011 O   0  0  0  0  0  0  0  0  0  0  0  0
   47.5838   10.4628   17.3051 O   0  0  0  0  0  0  0  0  0  0  0  0
   48.6761    6.4307   16.9196 C   0  0  0  0  0  0  0  0  0  0  0  0
   48.6453   10.1928   17.4299 C   0  0  0  0  0  0  0  0  0  0  0  0
   48.2752    7.8191   17.1649 C   0  0  0  0  0  0  0  0  0  0  0  0
   49.1430    8.8397   17.1768 C   0  0  0  0  0  0  0  0  0  0  0  0
   47.9094    5.4853   16.9022 O   0  0  0  0  0  0  0  0  0  0  0  0
   47.4967   10.5276   17.6429 O   0  0  0  0  0  0  0  0  0  0  0  0
   49.6590   11.0706   17.3970 O   0  0  0  0  0  0  0  0  0  0  0  0
   49.9918    6.2734   16.7123 O   0  0  0  0  0  0  0  0  0  0  0  0
   47.2461    8.3317   17.3885 H   0  0  0  0  0  0  0  0  0  0  0  0
   50.3281    8.4182   17.0372 H   0  0  0  0  0  0  0  0  0  0  0  0
   50.0659    5.2218   15.8879 H   0  0  0  0  0  0  0  0  0  0  0  0
   49.4888   11.5086   18.2877 H   0  0  0  0  0  0  0  0  0  0  0  0
   48.8937   12.6197   13.1292 H   0  0  0  0  0  0  0  0  0  0  0  0
   48.8117   13.1591   15.5672 H   0  0  0  0  0  0  0  0  0  0  0  0
   49.8271    8.5829   14.2387 H   0  0  0  0  0  0  0  0  0  0  0  0
   49.4243   10.2636   12.4705 H   0  0  0  0  0  0  0  0  0  0  0  0
   50.6923    8.8777   18.6946 H   0  0  0  0  0  0  0  0  0  0  0  0
   50.5716   10.4947   18.1292 H   0  0  0  0  0  0  0  0  0  0  0  0
   47.9167    7.9897   17.3652 H   0  0  0  0  0  0  0  0  0  0  0  0
   48.5131    7.6109   15.7738 H   0  0  0  0  0  0  0  0  0  0  0  0
   50.3772    6.2902   16.6213 H   0  0  0  0  0  0  0  0  0  0  0  0
   50.0497    6.7914   18.2707 H   0  0  0  0  0  0  0  0  0  0  0  0
   48.9003    4.5686   15.5836 H   0  0  0  0  0  0  0  0  0  0  0  0
   47.4714    4.0112   16.4841 H   0  0  0  0  0  0  0  0  0  0  0  0
   47.4855    5.6210   15.8006 H   0  0  0  0  0  0  0  0  0  0  0  0
   50.2565    3.9556   17.6477 H   0  0  0  0  0  0  0  0  0  0  0  0
   48.7430    3.4807   18.4498 H   0  0  0  0  0  0  0  0  0  0  0  0
   49.7844    4.6790   19.2017 H   0  0  0  0  0  0  0  0  0  0  0  0
   48.5912    7.7819   20.0703 H   0  0  0  0  0  0  0  0  0  0  0  0
   46.6273    8.7926   21.5219 H   0  0  0  0  0  0  0  0  0  0  0  0
   46.2787   11.3501   20.9880 H   0  0  0  0  0  0  0  0  0  0  0  0
   49.7443    7.9623   18.8832 H   0  0  0  0  0  0  0  0  0  0  0  0
   50.8337    7.7860   17.5397 H   0  0  0  0  0  0  0  0  0  0  0  0
   48.2905    2.9704   18.9442 H   0  0  0  0  0  0  0  0  0  0  0  0
   51.1222    5.2960   16.5850 H   0  0  0  0  0  0  0  0  0  0  0  0
   49.8012   10.1226   17.4192 H   0  0  0  0  0  0  0  0  0  0  0  0
   48.3756   10.2620   16.3731 H   0  0  0  0  0  0  0  0  0  0  0  0
   50.2710    2.8626   17.2061 H   0  0  0  0  0  0  0  0  0  0  0  0
   46.8928    9.6033   18.2436 H   0  0  0  0  0  0  0  0  0  0  0  0
   48.2477    9.5977   19.3631 H   0  0  0  0  0  0  0  0  0  0  0  0
   47.5587    6.5974   15.4476 H   0  0  0  0  0  0  0  0  0  0  0  0
   51.2844    8.9540   13.3526 H   0  0  0  0  0  0  0  0  0  0  0  0
   49.6644   12.1391   18.3784 H   0  0  0  0  0  0  0  0  0  0  0  0
   48.6927   13.2465   19.3222 H   0  0  0  0  0  0  0  0  0  0  0  0
   49.2665   11.7370   20.0622 H   0  0  0  0  0  0  0  0  0  0  0  0
   45.6522   11.2812   19.3058 H   0  0  0  0  0  0  0  0  0  0  0  0
   46.3974   12.7904   19.8046 H   0  0  0  0  0  0  0  0  0  0  0  0
   46.8359   11.2788   20.6333 H   0  0  0  0  0  0  0  0  0  0  0  0
   48.0756    6.1243   13.0564 H   0  0  0  0  0  0  0  0  0  0  0  0
   49.9768    7.3389   11.9720 H   0  0  0  0  0  0  0  0  0  0  0  0
   50.3514    8.6737   17.5947 H   0  0  0  0  0  0  0  0  0  0  0  0
   47.4160    8.0666   16.8015 H   0  0  0  0  0  0  0  0  0  0  0  0
   50.2992    5.3160   16.9393 H   0  0  0  0  0  0  0  0  0  0  0  0
   47.4668   11.4236   17.4604 H   0  0  0  0  0  0  0  0  0  0  0  0
   47.2129    7.9650   17.3358 H   0  0  0  0  0  0  0  0  0  0  0  0
   50.2060    8.7184   17.0081 H   0  0  0  0  0  0  0  0  0  0  0  0
   49.2350   11.9356   17.5764 H   0  0  0  0  0  0  0  0  0  0  0  0
   50.0901    5.3086   16.5688 H   0  0  0  0  0  0  0  0  0  0  0  0
  2  4  1  0
  3  1  1  0
  4  3  2  0
  5  1  2  0
  6  2  2  0
  7  2  1  0
  8  1  1  0
 15 17  1  0
 12 15  1  0
 17 18  1  0
 11 12  1  0
 18 19  1  0
 15 16  1  0
 19 20  1  0
 19 21  1  0
 16 22  1  0
 23 24  1  0
 12 13  2  0
 10 11  2  0
 13 14  1  0
 22 23  2  0
 24 25  2  0
 25 26  1  0
 26 22  1  0
 14  9  2  0
  9 10  1  0
 28 27  1  0
 29 31  1  0
 30 29  1  0
 31 27  1  0
 32 28  2  0
 33 30  1  0
 34 29  2  0
 35 27  1  0
 36 34  1  0
 37 38  1  0
 38 35  1  0
 39 28  1  0
 40 32  1  0
 41 37  1  0
 42 37  1  0
 43 39  2  0
 44 40  2  0
 36 33  2  0
 43 44  1  0
 46 48  1  0
 47 45  1  0
 48 47  2  0
 49 45  2  0
 50 46  2  0
 51 46  1  0
 52 45  1  0
 54 56  1  0
 55 53  1  0
 56 55  2  0
 57 53  2  0
 58 54  2  0
 59 54  1  0
 60 53  1  0
  3 61  1  0
  4 62  1  0
  7 63  1  0
  8 64  1  0
  9 65  1  0
 10 66  1  0
 13 67  1  0
 14 68  1  0
 16 69  1  0
 16 70  1  0
 17 71  1  0
 17 72  1  0
 18 73  1  0
 18 74  1  0
 20 75  1  0
 20 76  1  0
 20 77  1  0
 21 78  1  0
 21 79  1  0
 21 80  1  0
 23 81  1  0
 24 82  1  0
 25 83  1  0
 31 84  1  0
 31 85  1  0
 33 86  1  0
 34 87  1  0
 35 88  1  0
 35 89  1  0
 36 90  1  0
 38 91  1  0
 38 92  1  0
 39 93  1  0
 40 94  1  0
 41 95  1  0
 41 96  1  0
 41 97  1  0
 42 98  1  0
 42 99  1  0
 42100  1  0
 43101  1  0
 44102  1  0
 47103  1  0
 48104  1  0
 51105  1  0
 52106  1  0
 55107  1  0
 56108  1  0
 59109  1  0
 60110  1  0
M  END
> <Uni-Dock RESULT> 
ENERGY=   -6.137  LOWER_BOUND=    1.918  UPPER_BOUND=    5.869
INTER + INTRA:          -6.137
INTER:                  -6.137
INTRA:                   0.000
UNBOUND:                 0.000

$$$$

     RDKit          3D

110109  0  0  0  0  0  0  0  0999 V2000
   49.1875    8.4316   18.0644 C   0  0  0  0  0  0  0  0  0  0  0  0
   47.9845    9.4930   21.5032 C   0  0  0  0  0  0  0  0  0  0  0  0
   49.1119    8.8247   19.4734 C   0  0  0  0  0  0  0  0  0  0  0  0
   47.9582    9.1099   20.0911 C   0  0  0  0  0  0  0  0  0  0  0  0
   50.2206    8.1652   17.4785 O   0  0  0  0  0  0  0  0  0  0  0  0
   48.9598    9.5938   22.2213 O   0  0  0  0  0  0  0  0  0  0  0  0
   46.7394    9.7336   21.9401 O   0  0  0  0  0  0  0  0  0  0  0  0
   47.9969    8.3848   17.4492 O   0  0  0  0  0  0  0  0  0  0  0  0
   48.4176   12.5494   16.5551 C   0  0  0  0  0  0  0  0  0  0  0  0
   48.5690   11.2316   16.1687 C   0  0  0  0  0  0  0  0  0  0  0  0
   48.3225   10.1744   16.9750 N   0  0  0  0  0  0  0  0  0  0  0  0
   47.9286   10.3985   18.2451 C   0  0  0  0  0  0  0  0  0  0  0  0
   47.7283   11.7096   18.6926 C   0  0  0  0  0  0  0  0  0  0  0  0
   47.9780   12.7910   17.8468 C   0  0  0  0  0  0  0  0  0  0  0  0
   47.6515    9.3186   19.1000 N   0  0  0  0  0  0  0  0  0  0  0  0
   47.5170    8.0136   18.4141 C   0  0  0  0  0  0  0  0  0  0  0  0
   48.3976    9.3358   20.3748 C   0  0  0  0  0  0  0  0  0  0  0  0
   47.5744    8.6872   21.5145 C   0  0  0  0  0  0  0  0  0  0  0  0
   48.3505    8.4191   22.7448 N   0  0  0  0  0  0  0  0  0  0  0  0
   48.7809    9.6530   23.4035 C   0  0  0  0  0  0  0  0  0  0  0  0
   47.5558    7.6082   23.6710 C   0  0  0  0  0  0  0  0  0  0  0  0
   48.7331    7.1219   18.2834 C   0  0  0  0  0  0  0  0  0  0  0  0
   49.2493    6.2333   19.2109 C   0  0  0  0  0  0  0  0  0  0  0  0
   50.4014    5.5464   18.7324 C   0  0  0  0  0  0  0  0  0  0  0  0
   50.7229    5.9203   17.4492 C   0  0  0  0  0  0  0  0  0  0  0  0
   49.6366    7.0814   16.8263 S   0  0  0  0  0  0  0  0  0  0  0  0
   48.4738    9.1600   19.9024 N   0  0  0  0  0  0  0  0  0  0  0  0
   48.0444   10.4793   20.2081 C   0  0  0  0  0  0  0  0  0  0  0  0
   47.5079    8.0178   21.9375 C   0  0  0  0  0  0  0  0  0  0  0  0
   48.7007    7.0153   22.6526 S   0  0  0  0  0  0  0  0  0  0  0  0
   47.4733    8.2122   20.4403 C   0  0  0  0  0  0  0  0  0  0  0  0
   47.0473   11.0525   19.4989 N   0  0  0  0  0  0  0  0  0  0  0  0
   48.0962    7.3118   24.2249 C   0  0  0  0  0  0  0  0  0  0  0  0
   46.6708    8.5674   22.8887 C   0  0  0  0  0  0  0  0  0  0  0  0
   48.6720    9.0402   18.4381 C   0  0  0  0  0  0  0  0  0  0  0  0
   47.0132    8.1604   24.2099 C   0  0  0  0  0  0  0  0  0  0  0  0
   50.0569    7.8103   16.6915 N   0  0  0  0  0  0  0  0  0  0  0  0
   49.6895    7.9160   18.1218 C   0  0  0  0  0  0  0  0  0  0  0  0
   48.6740   11.1450   21.2613 C   0  0  0  0  0  0  0  0  0  0  0  0
   46.6865   12.3118   19.8334 C   0  0  0  0  0  0  0  0  0  0  0  0
   48.9389    7.3428   15.8714 C   0  0  0  0  0  0  0  0  0  0  0  0
   51.1946    6.9008   16.5345 C   0  0  0  0  0  0  0  0  0  0  0  0
   48.2820   12.4391   21.5887 C   0  0  0  0  0  0  0  0  0  0  0  0
   47.2681   13.0401   20.8547 C   0  0  0  0  0  0  0  0  0  0  0  0
   48.6466    8.7654   17.8991 C   0  0  0  0  0  0  0  0  0  0  0  0
   48.2198    9.1910   21.6813 C   0  0  0  0  0  0  0  0  0  0  0  0
   48.0773    8.8082   19.2484 C   0  0  0  0  0  0  0  0  0  0  0  0
   48.7883    9.1508   20.3313 C   0  0  0  0  0  0  0  0  0  0  0  0
   48.0231    8.4590   16.8994 O   0  0  0  0  0  0  0  0  0  0  0  0
   48.8416    9.5017   22.6808 O   0  0  0  0  0  0  0  0  0  0  0  0
   46.9241    8.8502   21.7358 O   0  0  0  0  0  0  0  0  0  0  0  0
   49.9446    9.0995   17.8458 O   0  0  0  0  0  0  0  0  0  0  0  0
   48.4237    9.1171   21.7555 C   0  0  0  0  0  0  0  0  0  0  0  0
   48.8698    8.9020   17.9913 C   0  0  0  0  0  0  0  0  0  0  0  0
   48.9784    9.0003   20.4039 C   0  0  0  0  0  0  0  0  0  0  0  0
   48.2221    9.0246   19.2983 C   0  0  0  0  0  0  0  0  0  0  0  0
   49.0870    9.0991   22.7762 O   0  0  0  0  0  0  0  0  0  0  0  0
   50.0571    8.7725   17.7666 O   0  0  0  0  0  0  0  0  0  0  0  0
   47.9514    8.9527   17.0150 O   0  0  0  0  0  0  0  0  0  0  0  0
   47.0891    9.2465   21.7861 O   0  0  0  0  0  0  0  0  0  0  0  0
   50.0658    8.8681   19.9892 H   0  0  0  0  0  0  0  0  0  0  0  0
   46.9940    9.0725   19.5998 H   0  0  0  0  0  0  0  0  0  0  0  0
   46.8603    9.9823   22.8802 H   0  0  0  0  0  0  0  0  0  0  0  0
   48.2164    8.1081   16.5348 H   0  0  0  0  0  0  0  0  0  0  0  0
   48.6265   13.3602   15.8671 H   0  0  0  0  0  0  0  0  0  0  0  0
   48.9028   10.9784   15.1658 H   0  0  0  0  0  0  0  0  0  0  0  0
   47.3484   11.8967   19.6910 H   0  0  0  0  0  0  0  0  0  0  0  0
   47.8199   13.8074   18.1943 H   0  0  0  0  0  0  0  0  0  0  0  0
   46.7743    7.4397   18.9862 H   0  0  0  0  0  0  0  0  0  0  0  0
   47.0280    8.1339   17.4361 H   0  0  0  0  0  0  0  0  0  0  0  0
   49.3635    8.8317   20.2585 H   0  0  0  0  0  0  0  0  0  0  0  0
   48.6413   10.3576   20.6848 H   0  0  0  0  0  0  0  0  0  0  0  0
   46.7029    9.3194   21.7348 H   0  0  0  0  0  0  0  0  0  0  0  0
   47.1739    7.7319   21.1541 H   0  0  0  0  0  0  0  0  0  0  0  0
   47.9333   10.2922   23.6742 H   0  0  0  0  0  0  0  0  0  0  0  0
   49.3466    9.4229   24.3148 H   0  0  0  0  0  0  0  0  0  0  0  0
   49.4589   10.2275   22.7659 H   0  0  0  0  0  0  0  0  0  0  0  0
   46.6416    8.1225   23.9891 H   0  0  0  0  0  0  0  0  0  0  0  0
   48.1418    7.3617   24.5639 H   0  0  0  0  0  0  0  0  0  0  0  0
   47.2737    6.6543   23.2104 H   0  0  0  0  0  0  0  0  0  0  0  0
   48.8269    6.0886   20.1982 H   0  0  0  0  0  0  0  0  0  0  0  0
   50.9640    4.8183   19.3012 H   0  0  0  0  0  0  0  0  0  0  0  0
   51.5425    5.5653   16.8406 H   0  0  0  0  0  0  0  0  0  0  0  0
   47.6325    7.2278   19.9816 H   0  0  0  0  0  0  0  0  0  0  0  0
   46.4557    8.4983   20.1367 H   0  0  0  0  0  0  0  0  0  0  0  0
   48.5669    6.8521   25.0827 H   0  0  0  0  0  0  0  0  0  0  0  0
   45.8588    9.2417   22.6439 H   0  0  0  0  0  0  0  0  0  0  0  0
   47.7141    8.8502   17.9383 H   0  0  0  0  0  0  0  0  0  0  0  0
   49.0844    9.9729   18.0274 H   0  0  0  0  0  0  0  0  0  0  0  0
   46.4897    8.4768   25.1032 H   0  0  0  0  0  0  0  0  0  0  0  0
   50.5962    8.1325   18.7044 H   0  0  0  0  0  0  0  0  0  0  0  0
   49.3142    6.9504   18.4850 H   0  0  0  0  0  0  0  0  0  0  0  0
   49.4662   10.6510   21.8153 H   0  0  0  0  0  0  0  0  0  0  0  0
   45.8886   12.7359   19.2312 H   0  0  0  0  0  0  0  0  0  0  0  0
   48.1120    8.0579   15.8843 H   0  0  0  0  0  0  0  0  0  0  0  0
   49.2447    7.2518   14.8219 H   0  0  0  0  0  0  0  0  0  0  0  0
   48.5621    6.3698   16.2045 H   0  0  0  0  0  0  0  0  0  0  0  0
   52.0613    7.2659   17.0965 H   0  0  0  0  0  0  0  0  0  0  0  0
   51.5048    6.8494   15.4846 H   0  0  0  0  0  0  0  0  0  0  0  0
   50.9615    5.8855   16.8772 H   0  0  0  0  0  0  0  0  0  0  0  0
   48.7676   12.9700   22.4011 H   0  0  0  0  0  0  0  0  0  0  0  0
   46.9423   14.0501   21.0715 H   0  0  0  0  0  0  0  0  0  0  0  0
   47.0290    8.5360   19.3039 H   0  0  0  0  0  0  0  0  0  0  0  0
   49.8363    9.4237   20.2762 H   0  0  0  0  0  0  0  0  0  0  0  0
   46.6985    8.9312   22.6864 H   0  0  0  0  0  0  0  0  0  0  0  0
   50.1684    9.0251   16.8943 H   0  0  0  0  0  0  0  0  0  0  0  0
   50.0581    8.8938   20.3602 H   0  0  0  0  0  0  0  0  0  0  0  0
   47.1445    9.1308   19.3172 H   0  0  0  0  0  0  0  0  0  0  0  0
   48.4717    8.8619   16.1895 H   0  0  0  0  0  0  0  0  0  0  0  0
   46.8842    9.3098   22.7426 H   0  0  0  0  0  0  0  0  0  0  0  0
  2  4  1  0
  3  1  1  0
  4  3  2  0
  5  1  2  0
  6  2  2  0
  7  2  1  0
  8  1  1  0
 15 17  1  0
 12 15  1  0
 17 18  1  0
 11 12  1  0
 18 19  1  0
 15 16  1  0
 19 20  1  0
 19 21  1  0
 16 22  1  0
 23 24  1  0
 12 13  2  0
 10 11  2  0
 13 14  1  0
 22 23  2  0
 24 25  2  0
 25 26  1  0
 26 22  1  0
 14  9  2  0
  9 10  1  0
 28 27  1  0
 29 31  1  0
 30 29  1  0
 31 27  1  0
 32 28  2  0
 33 30  1  0
 34 29  2  0
 35 27  1  0
 36 34  1  0
 37 38  1  0
 38 35  1  0
 39 28  1  0
 40 32  1  0
 41 37  1  0
 42 37  1  0
 43 39  2  0
 44 40  2  0
 36 33  2  0
 43 44  1  0
 46 48  1  0
 47 45  1  0
 48 47  2  0
 49 45  2  0
 50 46  2  0
 51 46  1  0
 52 45  1  0
 54 56  1  0
 55 53  1  0
 56 55  2  0
 57 53  2  0
 58 54  2  0
 59 54  1  0
 60 53  1  0
  3 61  1  0
  4 62  1  0
  7 63  1  0
  8 64  1  0
  9 65  1  0
 10 66  1  0
 13 67  1  0
 14 68  1  0
 16 69  1  0
 16 70  1  0
 17 71  1  0
 17 72  1  0
 18 73  1  0
 18 74  1  0
 20 75  1  0
 20 76  1  0
 20 77  1  0
 21 78  1  0
 21 79  1  0
 21 80  1  0
 23 81  1  0
 24 82  1  0
 25 83  1  0
 31 84  1  0
 31 85  1  0
 33 86  1  0
 34 87  1  0
 35 88  1  0
 35 89  1  0
 36 90  1  0
 38 91  1  0
 38 92  1  0
 39 93  1  0
 40 94  1  0
 41 95  1  0
 41 96  1  0
 41 97  1  0
 42 98  1  0
 42 99  1  0
 42100  1  0
 43101  1  0
 44102  1  0
 47103  1  0
 48104  1  0
 51105  1  0
 52106  1  0
 55107  1  0
 56108  1  0
 59109  1  0
 60110  1  0
M  END
> <Uni-Dock RESULT> 
ENERGY=   -6.026  LOWER_BOUND=    2.053  UPPER_BOUND=    4.674
INTER + INTRA:          -6.026
INTER:                  -6.026
INTRA:                   0.000
UNBOUND:                 0.000

$$$$

     RDKit          3D

110109  0  0  0  0  0  0  0  0999 V2000
   48.2874   11.3170   19.8086 C   0  0  0  0  0  0  0  0  0  0  0  0
   48.8630    8.8809   16.9566 C   0  0  0  0  0  0  0  0  0  0  0  0
   48.8886   10.4808   18.7670 C   0  0  0  0  0  0  0  0  0  0  0  0
   48.1711    9.6787   17.9697 C   0  0  0  0  0  0  0  0  0  0  0  0
   48.9142   12.0559   20.5453 O   0  0  0  0  0  0  0  0  0  0  0  0
   50.0574    8.8466   16.7351 O   0  0  0  0  0  0  0  0  0  0  0  0
   47.9791    8.1507   16.2605 O   0  0  0  0  0  0  0  0  0  0  0  0
   46.9537   11.2049   19.8921 O   0  0  0  0  0  0  0  0  0  0  0  0
   47.5074    7.8893   22.5416 C   0  0  0  0  0  0  0  0  0  0  0  0
   47.2932    9.2424   22.3628 C   0  0  0  0  0  0  0  0  0  0  0  0
   47.2811    9.8529   21.1562 N   0  0  0  0  0  0  0  0  0  0  0  0
   47.5156    9.1186   20.0496 C   0  0  0  0  0  0  0  0  0  0  0  0
   47.7119    7.7370   20.1575 C   0  0  0  0  0  0  0  0  0  0  0  0
   47.7129    7.1187   21.4084 C   0  0  0  0  0  0  0  0  0  0  0  0
   47.4945    9.7244   18.7822 N   0  0  0  0  0  0  0  0  0  0  0  0
   46.8972   11.0788   18.7607 C   0  0  0  0  0  0  0  0  0  0  0  0
   48.7165    9.5145   17.9793 C   0  0  0  0  0  0  0  0  0  0  0  0
   48.3930    9.4774   16.4657 C   0  0  0  0  0  0  0  0  0  0  0  0
   49.5833    9.5466   15.5904 N   0  0  0  0  0  0  0  0  0  0  0  0
   50.4222    8.3533   15.7071 C   0  0  0  0  0  0  0  0  0  0  0  0
   49.1697    9.7334   14.1972 C   0  0  0  0  0  0  0  0  0  0  0  0
   47.7997   12.2839   18.9158 C   0  0  0  0  0  0  0  0  0  0  0  0
   48.5419   12.9312   17.9430 C   0  0  0  0  0  0  0  0  0  0  0  0
   49.2639   14.0474   18.4537 C   0  0  0  0  0  0  0  0  0  0  0  0
   49.0411   14.2281   19.7983 C   0  0  0  0  0  0  0  0  0  0  0  0
   47.9619   13.0667   20.4331 S   0  0  0  0  0  0  0  0  0  0  0  0
   48.5542    9.8494   18.3277 N   0  0  0  0  0  0  0  0  0  0  0  0
   48.4860    8.4384   18.4784 C   0  0  0  0  0  0  0  0  0  0  0  0
   48.4268    9.9192   15.8061 C   0  0  0  0  0  0  0  0  0  0  0  0
   49.6626   10.9400   15.1976 S   0  0  0  0  0  0  0  0  0  0  0  0
   47.7694   10.2246   17.1309 C   0  0  0  0  0  0  0  0  0  0  0  0
   47.3683    7.8591   18.9689 N   0  0  0  0  0  0  0  0  0  0  0  0
   49.8514    9.9791   13.7953 C   0  0  0  0  0  0  0  0  0  0  0  0
   48.1725    8.8654   14.9504 C   0  0  0  0  0  0  0  0  0  0  0  0
   48.0751   10.4952   19.5732 C   0  0  0  0  0  0  0  0  0  0  0  0
   48.9978    8.9001   13.7901 C   0  0  0  0  0  0  0  0  0  0  0  0
   48.3766   12.5828   20.9988 N   0  0  0  0  0  0  0  0  0  0  0  0
   48.6884   11.9103   19.7172 C   0  0  0  0  0  0  0  0  0  0  0  0
   49.5966    7.6847   18.0942 C   0  0  0  0  0  0  0  0  0  0  0  0
   47.3655    6.5129   19.0940 C   0  0  0  0  0  0  0  0  0  0  0  0
   46.9606   12.9367   21.1019 C   0  0  0  0  0  0  0  0  0  0  0  0
   49.1956   13.7890   21.1413 C   0  0  0  0  0  0  0  0  0  0  0  0
   49.5677    6.3004   18.2291 C   0  0  0  0  0  0  0  0  0  0  0  0
   48.4279    5.6992   18.7462 C   0  0  0  0  0  0  0  0  0  0  0  0
   47.7799   10.9104   19.9004 C   0  0  0  0  0  0  0  0  0  0  0  0
   49.1087    9.1637   16.7616 C   0  0  0  0  0  0  0  0  0  0  0  0
   47.8681   10.2606   18.5902 C   0  0  0  0  0  0  0  0  0  0  0  0
   49.0197    9.8111   18.0732 C   0  0  0  0  0  0  0  0  0  0  0  0
   46.7473   11.3262   20.3933 O   0  0  0  0  0  0  0  0  0  0  0  0
   50.1401    8.7436   16.2702 O   0  0  0  0  0  0  0  0  0  0  0  0
   47.9335    9.0647   16.1236 O   0  0  0  0  0  0  0  0  0  0  0  0
   48.9567   11.0156   20.5354 O   0  0  0  0  0  0  0  0  0  0  0  0
   49.3122    9.2664   16.7389 C   0  0  0  0  0  0  0  0  0  0  0  0
   48.0373   10.8244   19.9580 C   0  0  0  0  0  0  0  0  0  0  0  0
   49.1999    9.9791   18.0148 C   0  0  0  0  0  0  0  0  0  0  0  0
   48.0482   10.0934   18.6898 C   0  0  0  0  0  0  0  0  0  0  0  0
   50.3450    9.1465   16.1056 O   0  0  0  0  0  0  0  0  0  0  0  0
   48.9774   11.3683   20.5031 O   0  0  0  0  0  0  0  0  0  0  0  0
   46.8015   10.8243   20.4795 O   0  0  0  0  0  0  0  0  0  0  0  0
   48.1563    8.7421   16.3055 O   0  0  0  0  0  0  0  0  0  0  0  0
   49.9680   10.5578   18.6834 H   0  0  0  0  0  0  0  0  0  0  0  0
   47.0941    9.5853   18.0317 H   0  0  0  0  0  0  0  0  0  0  0  0
   48.5309    7.6561   15.6192 H   0  0  0  0  0  0  0  0  0  0  0  0
   46.7121   11.8178   20.6180 H   0  0  0  0  0  0  0  0  0  0  0  0
   47.5038    7.4498   23.5322 H   0  0  0  0  0  0  0  0  0  0  0  0
   47.1178    9.8973   23.2124 H   0  0  0  0  0  0  0  0  0  0  0  0
   47.8353    7.1291   19.2678 H   0  0  0  0  0  0  0  0  0  0  0  0
   47.8630    6.0465   21.4905 H   0  0  0  0  0  0  0  0  0  0  0  0
   46.4077   11.1845   17.7822 H   0  0  0  0  0  0  0  0  0  0  0  0
   46.0520   11.1451   19.4617 H   0  0  0  0  0  0  0  0  0  0  0  0
   49.4559   10.2927   18.1990 H   0  0  0  0  0  0  0  0  0  0  0  0
   49.2082    8.5696   18.2343 H   0  0  0  0  0  0  0  0  0  0  0  0
   47.8004    8.5783   16.2454 H   0  0  0  0  0  0  0  0  0  0  0  0
   47.7489   10.3322   16.2266 H   0  0  0  0  0  0  0  0  0  0  0  0
   49.8739    7.4386   15.4559 H   0  0  0  0  0  0  0  0  0  0  0  0
   51.2914    8.4302   15.0423 H   0  0  0  0  0  0  0  0  0  0  0  0
   50.8255    8.2492   16.7184 H   0  0  0  0  0  0  0  0  0  0  0  0
   48.5658    8.8954   13.8305 H   0  0  0  0  0  0  0  0  0  0  0  0
   50.0467    9.8371   13.5479 H   0  0  0  0  0  0  0  0  0  0  0  0
   48.5874   10.6552   14.0836 H   0  0  0  0  0  0  0  0  0  0  0  0
   48.5773   12.6117   16.9082 H   0  0  0  0  0  0  0  0  0  0  0  0
   49.9128   14.6819   17.8652 H   0  0  0  0  0  0  0  0  0  0  0  0
   49.4558   14.9901   20.4427 H   0  0  0  0  0  0  0  0  0  0  0  0
   47.5762   11.3048   17.1558 H   0  0  0  0  0  0  0  0  0  0  0  0
   46.7711    9.7638   17.1534 H   0  0  0  0  0  0  0  0  0  0  0  0
   50.5815   10.2510   13.0456 H   0  0  0  0  0  0  0  0  0  0  0  0
   47.4358    8.0986   15.1584 H   0  0  0  0  0  0  0  0  0  0  0  0
   46.9793   10.5433   19.5802 H   0  0  0  0  0  0  0  0  0  0  0  0
   48.3903    9.9164   20.4531 H   0  0  0  0  0  0  0  0  0  0  0  0
   48.9652    8.1678   12.9933 H   0  0  0  0  0  0  0  0  0  0  0  0
   49.7785   11.7961   19.6341 H   0  0  0  0  0  0  0  0  0  0  0  0
   48.3810   12.5451   18.8760 H   0  0  0  0  0  0  0  0  0  0  0  0
   50.4752    8.1828   17.6962 H   0  0  0  0  0  0  0  0  0  0  0  0
   46.4512    6.0916   19.5010 H   0  0  0  0  0  0  0  0  0  0  0  0
   46.3286   12.0446   21.1059 H   0  0  0  0  0  0  0  0  0  0  0  0
   46.7623   13.4530   22.0492 H   0  0  0  0  0  0  0  0  0  0  0  0
   46.6378   13.5876   20.2823 H   0  0  0  0  0  0  0  0  0  0  0  0
   50.2615   13.5364   21.1243 H   0  0  0  0  0  0  0  0  0  0  0  0
   49.0064   14.2714   22.1072 H   0  0  0  0  0  0  0  0  0  0  0  0
   48.9990   14.5176   20.3456 H   0  0  0  0  0  0  0  0  0  0  0  0
   50.4267    5.7034   17.9400 H   0  0  0  0  0  0  0  0  0  0  0  0
   48.3709    4.6255   18.8771 H   0  0  0  0  0  0  0  0  0  0  0  0
   46.9228   10.1736   18.0659 H   0  0  0  0  0  0  0  0  0  0  0  0
   49.9650    9.8973   18.5974 H   0  0  0  0  0  0  0  0  0  0  0  0
   48.1586    8.6137   15.2827 H   0  0  0  0  0  0  0  0  0  0  0  0
   48.7304   11.4605   21.3792 H   0  0  0  0  0  0  0  0  0  0  0  0
   50.1265   10.4110   18.3806 H   0  0  0  0  0  0  0  0  0  0  0  0
   47.1126    9.6704   18.3453 H   0  0  0  0  0  0  0  0  0  0  0  0
   46.8916   11.3311   21.3134 H   0  0  0  0  0  0  0  0  0  0  0  0
   48.4001    8.3113   15.4594 H   0  0  0  0  0  0  0  0  0  0  0  0
  2  4  1  0
  3  1  1  0
  4  3  2  0
  5  1  2  0
  6  2  2  0
  7  2  1  0
  8  1  1  0
 15 17  1  0
 12 15  1  0
 17 18  1  0
 11 12  1  0
 18 19  1  0
 15 16  1  0
 19 20  1  0
 19 21  1  0
 16 22  1  0
 23 24  1  0
 12 13  2  0
 10 11  2  0
 13 14  1  0
 22 23  2  0
 24 25  2  0
 25 26  1  0
 26 22  1  0
 14  9  2  0
  9 10  1  0
 28 27  1  0
 29 31  1  0
 30 29  1  0
 31 27  1  0
 32 28  2  0
 33 30  1  0
 34 29  2  0
 35 27  1  0
 36 34  1  0
 37 38  1  0
 38 35  1  0
 39 28  1  0
 40 32  1  0
 41 37  1  0
 42 37  1  0
 43 39  2  0
 44 40  2  0
 36 33  2  0
 43 44  1  0
 46 48  1  0
 47 45  1  0
 48 47  2  0
 49 45  2  0
 50 46  2  0
 51 46  1  0
 52 45  1  0
 54 56  1  0
 55 53  1  0
 56 55  2  0
 57 53  2  0
 58 54  2  0
 59 54  1  0
 60 53  1  0
  3 61  1  0
  4 62  1  0
  7 63  1  0
  8 64  1  0
  9 65  1  0
 10 66  1  0
 13 67  1  0
 14 68  1  0
 16 69  1  0
 16 70  1  0
 17 71  1  0
 17 72  1  0
 18 73  1  0
 18 74  1  0
 20 75  1  0
 20 76  1  0
 20 77  1  0
 21 78  1  0
 21 79  1  0
 21 80  1  0
 23 81  1  0
 24 82  1  0
 25 83  1  0
 31 84  1  0
 31 85  1  0
 33 86  1  0
 34 87  1  0
 35 88  1  0
 35 89  1  0
 36 90  1  0
 38 91  1  0
 38 92  1  0
 39 93  1  0
 40 94  1  0
 41 95  1  0
 41 96  1  0
 41 97  1  0
 42 98  1  0
 42 99  1  0
 42100  1  0
 43101  1  0
 44102  1  0
 47103  1  0
 48104  1  0
 51105  1  0
 52106  1  0
 55107  1  0
 56108  1  0
 59109  1  0
 60110  1  0
M  END
> <Uni-Dock RESULT> 
ENERGY=   -5.699  LOWER_BOUND=    2.277  UPPER_BOUND=    5.037
INTER + INTRA:          -5.699
INTER:                  -5.699
INTRA:                   0.000
UNBOUND:                 0.000

$$$$

     RDKit          3D

110109  0  0  0  0  0  0  0  0999 V2000
   48.4222    7.3218   20.7644 C   0  0  0  0  0  0  0  0  0  0  0  0
   48.3851   10.6062   18.8642 C   0  0  0  0  0  0  0  0  0  0  0  0
   48.7494    8.6445   20.2268 C   0  0  0  0  0  0  0  0  0  0  0  0
   47.9737    9.2862   19.3434 C   0  0  0  0  0  0  0  0  0  0  0  0
   49.1069    6.7169   21.5687 O   0  0  0  0  0  0  0  0  0  0  0  0
   49.3848   11.2239   19.1740 O   0  0  0  0  0  0  0  0  0  0  0  0
   47.4823   11.0844   17.9952 O   0  0  0  0  0  0  0  0  0  0  0  0
   47.2762    6.8115   20.2904 O   0  0  0  0  0  0  0  0  0  0  0  0
   49.4853    5.1899   17.0025 C   0  0  0  0  0  0  0  0  0  0  0  0
   48.9352    5.0247   18.2591 C   0  0  0  0  0  0  0  0  0  0  0  0
   48.3380    6.0158   18.9590 N   0  0  0  0  0  0  0  0  0  0  0  0
   48.2885    7.2540   18.4268 C   0  0  0  0  0  0  0  0  0  0  0  0
   48.8019    7.4837   17.1451 C   0  0  0  0  0  0  0  0  0  0  0  0
   49.4075    6.4496   16.4304 C   0  0  0  0  0  0  0  0  0  0  0  0
   47.6612    8.2988   19.1258 N   0  0  0  0  0  0  0  0  0  0  0  0
   46.8250    7.8579   20.2652 C   0  0  0  0  0  0  0  0  0  0  0  0
   48.5038    9.4945   19.3317 C   0  0  0  0  0  0  0  0  0  0  0  0
   47.6486   10.7849   19.3575 C   0  0  0  0  0  0  0  0  0  0  0  0
   48.3756   11.9834   19.8295 N   0  0  0  0  0  0  0  0  0  0  0  0
   49.4309   12.3884   18.9001 C   0  0  0  0  0  0  0  0  0  0  0  0
   47.4369   13.0898   20.0339 C   0  0  0  0  0  0  0  0  0  0  0  0
   47.4387    7.7941   21.6473 C   0  0  0  0  0  0  0  0  0  0  0  0
   47.6014    8.8200   22.5623 C   0  0  0  0  0  0  0  0  0  0  0  0
   48.2058    8.3841   23.7759 C   0  0  0  0  0  0  0  0  0  0  0  0
   48.4741    7.0359   23.7574 C   0  0  0  0  0  0  0  0  0  0  0  0
   47.9903    6.3038   22.2924 S   0  0  0  0  0  0  0  0  0  0  0  0
   48.4174    9.0548   19.5750 N   0  0  0  0  0  0  0  0  0  0  0  0
   48.7150    9.1605   18.1898 C   0  0  0  0  0  0  0  0  0  0  0  0
   47.3355   11.3199   19.8546 C   0  0  0  0  0  0  0  0  0  0  0  0
   48.0004   12.1077   21.2244 S   0  0  0  0  0  0  0  0  0  0  0  0
   47.1782    9.8180   19.8408 C   0  0  0  0  0  0  0  0  0  0  0  0
   48.0173    8.4378   17.2862 N   0  0  0  0  0  0  0  0  0  0  0  0
   47.8467   13.6456   20.4919 C   0  0  0  0  0  0  0  0  0  0  0  0
   47.0088   12.2211   18.8603 C   0  0  0  0  0  0  0  0  0  0  0  0
   48.3180    7.6221   19.9430 C   0  0  0  0  0  0  0  0  0  0  0  0
   47.3066   13.5642   19.2291 C   0  0  0  0  0  0  0  0  0  0  0  0
   48.6811    6.0162   21.8846 N   0  0  0  0  0  0  0  0  0  0  0  0
   48.6220    7.4301   21.4496 C   0  0  0  0  0  0  0  0  0  0  0  0
   49.7316   10.0359   17.8037 C   0  0  0  0  0  0  0  0  0  0  0  0
   48.3502    8.5771   15.9833 C   0  0  0  0  0  0  0  0  0  0  0  0
   47.3687    5.3713   21.8331 C   0  0  0  0  0  0  0  0  0  0  0  0
   49.2145    5.9352   23.2466 C   0  0  0  0  0  0  0  0  0  0  0  0
   50.0529   10.1645   16.4562 C   0  0  0  0  0  0  0  0  0  0  0  0
   49.3501    9.4139   15.5232 C   0  0  0  0  0  0  0  0  0  0  0  0
   48.0867    7.1414   20.2294 C   0  0  0  0  0  0  0  0  0  0  0  0
   48.4723   10.8159   19.2203 C   0  0  0  0  0  0  0  0  0  0  0  0
   47.8105    8.5012   19.7588 C   0  0  0  0  0  0  0  0  0  0  0  0
   48.7489    9.4551   19.6882 C   0  0  0  0  0  0  0  0  0  0  0  0
   47.2536    6.2567   20.3020 O   0  0  0  0  0  0  0  0  0  0  0  0
   49.3058   11.6997   19.1431 O   0  0  0  0  0  0  0  0  0  0  0  0
   47.1939   11.0215   18.8721 O   0  0  0  0  0  0  0  0  0  0  0  0
   49.3642    6.9379   20.5842 O   0  0  0  0  0  0  0  0  0  0  0  0
   48.6251   10.8867   19.3757 C   0  0  0  0  0  0  0  0  0  0  0  0
   48.3588    7.1925   20.2105 C   0  0  0  0  0  0  0  0  0  0  0  0
   48.8532    9.5384   19.9034 C   0  0  0  0  0  0  0  0  0  0  0  0
   48.0462    8.5026   19.6373 C   0  0  0  0  0  0  0  0  0  0  0  0
   49.3420   11.8446   19.6003 O   0  0  0  0  0  0  0  0  0  0  0  0
   49.2951    6.9079   20.9310 O   0  0  0  0  0  0  0  0  0  0  0  0
   47.4424    6.2910   19.8273 O   0  0  0  0  0  0  0  0  0  0  0  0
   47.5324   10.9911   18.6051 O   0  0  0  0  0  0  0  0  0  0  0  0
   49.6737    9.0748   20.5988 H   0  0  0  0  0  0  0  0  0  0  0  0
   47.0468    8.8796   18.9585 H   0  0  0  0  0  0  0  0  0  0  0  0
   47.8430   11.9569   17.7324 H   0  0  0  0  0  0  0  0  0  0  0  0
   47.2016    5.9445   20.7416 H   0  0  0  0  0  0  0  0  0  0  0  0
   49.9503    4.3600   16.4834 H   0  0  0  0  0  0  0  0  0  0  0  0
   48.9579    4.0585   18.7562 H   0  0  0  0  0  0  0  0  0  0  0  0
   48.7071    8.4603   16.6830 H   0  0  0  0  0  0  0  0  0  0  0  0
   49.8032    6.6286   15.4353 H   0  0  0  0  0  0  0  0  0  0  0  0
   45.9919    8.5720   20.3308 H   0  0  0  0  0  0  0  0  0  0  0  0
   46.3142    6.9118   20.0329 H   0  0  0  0  0  0  0  0  0  0  0  0
   49.0862    9.3965   20.2546 H   0  0  0  0  0  0  0  0  0  0  0  0
   49.2453    9.6066   18.5335 H   0  0  0  0  0  0  0  0  0  0  0  0
   47.2241   10.9563   18.3584 H   0  0  0  0  0  0  0  0  0  0  0  0
   46.7952   10.6232   20.0270 H   0  0  0  0  0  0  0  0  0  0  0  0
   49.0378   12.6064   17.9009 H   0  0  0  0  0  0  0  0  0  0  0  0
   49.9464   13.2822   19.2725 H   0  0  0  0  0  0  0  0  0  0  0  0
   50.1984   11.6145   18.8096 H   0  0  0  0  0  0  0  0  0  0  0  0
   46.9338   13.3806   19.1046 H   0  0  0  0  0  0  0  0  0  0  0  0
   47.9596   13.9669   20.4325 H   0  0  0  0  0  0  0  0  0  0  0  0
   46.6721   12.8209   20.7718 H   0  0  0  0  0  0  0  0  0  0  0  0
   47.3109    9.8455   22.3671 H   0  0  0  0  0  0  0  0  0  0  0  0
   48.4323    9.0268   24.6159 H   0  0  0  0  0  0  0  0  0  0  0  0
   48.9281    6.4393   24.5359 H   0  0  0  0  0  0  0  0  0  0  0  0
   46.7823    9.5242   20.8215 H   0  0  0  0  0  0  0  0  0  0  0  0
   46.3859    9.5444   19.1287 H   0  0  0  0  0  0  0  0  0  0  0  0
   48.1631   14.5332   21.0221 H   0  0  0  0  0  0  0  0  0  0  0  0
   46.5878   11.9239   17.9072 H   0  0  0  0  0  0  0  0  0  0  0  0
   47.3231    7.2330   19.6938 H   0  0  0  0  0  0  0  0  0  0  0  0
   49.0582    7.0292   19.3868 H   0  0  0  0  0  0  0  0  0  0  0  0
   47.1331   14.4256   18.5967 H   0  0  0  0  0  0  0  0  0  0  0  0
   49.5971    7.8999   21.6413 H   0  0  0  0  0  0  0  0  0  0  0  0
   47.8914    7.9794   22.0577 H   0  0  0  0  0  0  0  0  0  0  0  0
   50.2663   10.6074   18.5561 H   0  0  0  0  0  0  0  0  0  0  0  0
   47.7704    7.9706   15.2940 H   0  0  0  0  0  0  0  0  0  0  0  0
   46.9918    5.3215   20.8080 H   0  0  0  0  0  0  0  0  0  0  0  0
   47.4372    4.3335   22.1817 H   0  0  0  0  0  0  0  0  0  0  0  0
   46.6290    5.8924   22.4504 H   0  0  0  0  0  0  0  0  0  0  0  0
   50.2224    6.3622   23.2927 H   0  0  0  0  0  0  0  0  0  0  0  0
   49.3056    4.8899   23.5633 H   0  0  0  0  0  0  0  0  0  0  0  0
   48.5809    6.4626   23.9699 H   0  0  0  0  0  0  0  0  0  0  0  0
   50.8453   10.8368   16.1434 H   0  0  0  0  0  0  0  0  0  0  0  0
   49.5780    9.4777   14.4662 H   0  0  0  0  0  0  0  0  0  0  0  0
   46.7795    8.6781   19.4728 H   0  0  0  0  0  0  0  0  0  0  0  0
   49.7800    9.2784   19.9735 H   0  0  0  0  0  0  0  0  0  0  0  0
   47.1756   11.9580   18.5828 H   0  0  0  0  0  0  0  0  0  0  0  0
   49.3837    5.9995   20.8671 H   0  0  0  0  0  0  0  0  0  0  0  0
   49.7337    9.4355   20.5305 H   0  0  0  0  0  0  0  0  0  0  0  0
   47.1637    8.5811   19.0143 H   0  0  0  0  0  0  0  0  0  0  0  0
   47.7300    5.4578   20.2554 H   0  0  0  0  0  0  0  0  0  0  0  0
   47.5246   11.9351   18.3406 H   0  0  0  0  0  0  0  0  0  0  0  0
  2  4  1  0
  3  1  1  0
  4  3  2  0
  5  1  2  0
  6  2  2  0
  7  2  1  0
  8  1  1  0
 15 17  1  0
 12 15  1  0
 17 18  1  0
 11 12  1  0
 18 19  1  0
 15 16  1  0
 19 20  1  0
 19 21  1  0
 16 22  1  0
 23 24  1  0
 12 13  2  0
 10 11  2  0
 13 14  1  0
 22 23  2  0
 24 25  2  0
 25 26  1  0
 26 22  1  0
 14  9  2  0
  9 10  1  0
 28 27  1  0
 29 31  1  0
 30 29  1  0
 31 27  1  0
 32 28  2  0
 33 30  1  0
 34 29  2  0
 35 27  1  0
 36 34  1  0
 37 38  1  0
 38 35  1  0
 39 28  1  0
 40 32  1  0
 41 37  1  0
 42 37  1  0
 43 39  2  0
 44 40  2  0
 36 33  2  0
 43 44  1  0
 46 48  1  0
 47 45  1  0
 48 47  2  0
 49 45  2  0
 50 46  2  0
 51 46  1  0
 52 45  1  0
 54 56  1  0
 55 53  1  0
 56 55  2  0
 57 53  2  0
 58 54  2  0
 59 54  1  0
 60 53  1  0
  3 61  1  0
  4 62  1  0
  7 63  1  0
  8 64  1  0
  9 65  1  0
 10 66  1  0
 13 67  1  0
 14 68  1  0
 16 69  1  0
 16 70  1  0
 17 71  1  0
 17 72  1  0
 18 73  1  0
 18 74  1  0
 20 75  1  0
 20 76  1  0
 20 77  1  0
 21 78  1  0
 21 79  1  0
 21 80  1  0
 23 81  1  0
 24 82  1  0
 25 83  1  0
 31 84  1  0
 31 85  1  0
 33 86  1  0
 34 87  1  0
 35 88  1  0
 35 89  1  0
 36 90  1  0
 38 91  1  0
 38 92  1  0
 39 93  1  0
 40 94  1  0
 41 95  1  0
 41 96  1  0
 41 97  1  0
 42 98  1  0
 42 99  1  0
 42100  1  0
 43101  1  0
 44102  1  0
 47103  1  0
 48104  1  0
 51105  1  0
 52106  1  0
 55107  1  0
 56108  1  0
 59109  1  0
 60110  1  0
M  END
> <Uni-Dock RESULT> 
ENERGY=   -5.687  LOWER_BOUND=    1.743  UPPER_BOUND=    3.956
INTER + INTRA:          -5.687
INTER:                  -5.687
INTRA:                   0.000
UNBOUND:                 0.000

$$$$
