
     RDKit          3D

 28 29  0  0  0  0  0  0  0  0999 V2000
   45.8476    3.0726    8.9101 Cl  0  0  0  0  0  0  0  0  0  0  0  0
   45.3065    5.1401   10.4850 C   0  0  0  0  0  0  0  0  0  0  0  0
   45.1152    5.1688    9.2241 N   0  0  0  0  0  0  0  0  0  0  0  0
   44.9204    3.8719   11.0046 N   0  0  0  0  0  0  0  0  0  0  0  0
   44.5654    3.8910    8.7451 C   0  0  2  0  0  0  0  0  0  0  0  0
   43.9680    3.3587   10.0003 C   0  0  0  0  0  0  0  0  0  0  0  0
   45.8818    6.0792   11.9283 S   0  0  0  0  0  0  0  0  0  0  0  0
   45.5785    3.0631    8.1062 C   0  0  0  0  0  0  0  0  0  0  0  0
   45.5877    3.5947   12.2586 C   0  0  0  0  0  0  0  0  0  0  0  0
   45.3309    4.8055   13.1450 C   0  0  0  0  0  0  0  0  0  0  0  0
   46.4486    3.6864    7.2046 C   0  0  0  0  0  0  0  0  0  0  0  0
   45.7725    1.7200    8.2965 C   0  0  0  0  0  0  0  0  0  0  0  0
   47.4380    2.9856    6.5516 C   0  0  0  0  0  0  0  0  0  0  0  0
   46.7768    1.0080    7.6338 C   0  0  0  0  0  0  0  0  0  0  0  0
   47.6217    1.6445    6.7500 C   0  0  0  0  0  0  0  0  0  0  0  0
   45.4987    3.5920   10.1376 H   0  0  0  0  0  0  0  0  0  0  0  0
   43.7408    4.2022    8.0504 H   0  0  0  0  0  0  0  0  0  0  0  0
   43.0190    3.9336   10.1958 H   0  0  0  0  0  0  0  0  0  0  0  0
   43.8178    2.2853   10.0641 H   0  0  0  0  0  0  0  0  0  0  0  0
   46.6900    3.5668   12.0762 H   0  0  0  0  0  0  0  0  0  0  0  0
   45.2150    2.6719   12.6854 H   0  0  0  0  0  0  0  0  0  0  0  0
   45.9631    4.8048   14.0237 H   0  0  0  0  0  0  0  0  0  0  0  0
   44.2580    4.8651   13.3196 H   0  0  0  0  0  0  0  0  0  0  0  0
   46.3543    4.7612    7.0007 H   0  0  0  0  0  0  0  0  0  0  0  0
   45.1335    1.1989    8.9750 H   0  0  0  0  0  0  0  0  0  0  0  0
   48.1020    3.5138    5.8495 H   0  0  0  0  0  0  0  0  0  0  0  0
   46.9015   -0.0505    7.8076 H   0  0  0  0  0  0  0  0  0  0  0  0
   48.3751    1.0560    6.2673 H   0  0  0  0  0  0  0  0  0  0  0  0
  3  2  2  0
  4  2  1  0
  5  3  1  0
  6  4  1  0
  7  2  1  0
  5  8  1  0
  9  4  1  0
 10  7  1  0
 11  8  2  0
 12  8  1  0
 13 11  1  0
 14 12  2  0
 15 13  2  0
 10  9  1  0
  6  5  1  0
 14 15  1  0
  1 16  1  0
  5 17  1  6
  6 18  1  0
  6 19  1  0
  9 20  1  0
  9 21  1  0
 10 22  1  0
 10 23  1  0
 11 24  1  0
 12 25  1  0
 13 26  1  0
 14 27  1  0
 15 28  1  0
M  END
> <Uni-Dock RESULT> 
ENERGY=   -6.057  LOWER_BOUND=    0.000  UPPER_BOUND=    0.000
INTER + INTRA:          -6.057
INTER:                  -6.057
INTRA:                   0.000
UNBOUND:                 0.000

$$$$

     RDKit          3D

 28 29  0  0  0  0  0  0  0  0999 V2000
   45.4130    4.0133   10.0677 Cl  0  0  0  0  0  0  0  0  0  0  0  0
   45.8524    2.0445    8.3419 C   0  0  0  0  0  0  0  0  0  0  0  0
   45.0350    1.9349    9.3152 N   0  0  0  0  0  0  0  0  0  0  0  0
   45.7421    3.3396    7.7605 N   0  0  0  0  0  0  0  0  0  0  0  0
   44.2658    3.1753    9.4998 C   0  0  2  0  0  0  0  0  0  0  0  0
   44.3868    3.7805    8.1452 C   0  0  0  0  0  0  0  0  0  0  0  0
   47.1309    1.2030    7.3656 S   0  0  0  0  0  0  0  0  0  0  0  0
   44.7653    3.9700   10.6129 C   0  0  0  0  0  0  0  0  0  0  0  0
   46.9522    3.7008    7.0534 C   0  0  0  0  0  0  0  0  0  0  0  0
   47.2420    2.5460    6.1046 C   0  0  0  0  0  0  0  0  0  0  0  0
   45.0643    3.2985   11.8039 C   0  0  0  0  0  0  0  0  0  0  0  0
   44.9760    5.3239   10.6181 C   0  0  0  0  0  0  0  0  0  0  0  0
   45.5413    3.9652   12.9104 C   0  0  0  0  0  0  0  0  0  0  0  0
   45.4602    6.0013   11.7413 C   0  0  0  0  0  0  0  0  0  0  0  0
   45.7476    5.3176   12.9032 C   0  0  0  0  0  0  0  0  0  0  0  0
   45.7739    3.5693    8.8144 H   0  0  0  0  0  0  0  0  0  0  0  0
   43.2134    2.8140    9.6467 H   0  0  0  0  0  0  0  0  0  0  0  0
   43.7015    3.2110    7.4558 H   0  0  0  0  0  0  0  0  0  0  0  0
   44.2489    4.8544    8.0655 H   0  0  0  0  0  0  0  0  0  0  0  0
   47.7970    3.7265    7.7846 H   0  0  0  0  0  0  0  0  0  0  0  0
   46.8189    4.6454    6.5410 H   0  0  0  0  0  0  0  0  0  0  0  0
   48.2381    2.6074    5.6854 H   0  0  0  0  0  0  0  0  0  0  0  0
   46.4195    2.4884    5.3939 H   0  0  0  0  0  0  0  0  0  0  0  0
   44.9209    2.2123   11.8754 H   0  0  0  0  0  0  0  0  0  0  0  0
   44.7623    5.8813    9.7327 H   0  0  0  0  0  0  0  0  0  0  0  0
   45.7644    3.3995   13.8286 H   0  0  0  0  0  0  0  0  0  0  0  0
   45.6146    7.0697   11.7103 H   0  0  0  0  0  0  0  0  0  0  0  0
   46.1161    5.8810   13.7361 H   0  0  0  0  0  0  0  0  0  0  0  0
  3  2  2  0
  4  2  1  0
  5  3  1  0
  6  4  1  0
  7  2  1  0
  5  8  1  0
  9  4  1  0
 10  7  1  0
 11  8  2  0
 12  8  1  0
 13 11  1  0
 14 12  2  0
 15 13  2  0
 10  9  1  0
  6  5  1  0
 14 15  1  0
  1 16  1  0
  5 17  1  6
  6 18  1  0
  6 19  1  0
  9 20  1  0
  9 21  1  0
 10 22  1  0
 10 23  1  0
 11 24  1  0
 12 25  1  0
 13 26  1  0
 14 27  1  0
 15 28  1  0
M  END
> <Uni-Dock RESULT> 
ENERGY=   -4.758  LOWER_BOUND=    2.143  UPPER_BOUND=    4.971
INTER + INTRA:          -4.758
INTER:                  -4.758
INTRA:                   0.000
UNBOUND:                 0.000

$$$$

     RDKit          3D

 28 29  0  0  0  0  0  0  0  0999 V2000
   45.2872    3.9963   10.8972 Cl  0  0  0  0  0  0  0  0  0  0  0  0
   46.1531    5.7326   12.7092 C   0  0  0  0  0  0  0  0  0  0  0  0
   45.4409    6.0808   11.7098 N   0  0  0  0  0  0  0  0  0  0  0  0
   45.6752    4.5001   13.2384 N   0  0  0  0  0  0  0  0  0  0  0  0
   44.3789    5.0961   11.4506 C   0  0  2  0  0  0  0  0  0  0  0  0
   44.2710    4.4472   12.7860 C   0  0  0  0  0  0  0  0  0  0  0  0
   47.5622    6.1772   13.7640 S   0  0  0  0  0  0  0  0  0  0  0  0
   44.7006    4.2247   10.3294 C   0  0  0  0  0  0  0  0  0  0  0  0
   46.7110    3.8111   13.9780 C   0  0  0  0  0  0  0  0  0  0  0  0
   47.2528    4.8224   14.9787 C   0  0  0  0  0  0  0  0  0  0  0  0
   45.2230    4.8211    9.1761 C   0  0  0  0  0  0  0  0  0  0  0  0
   44.5436    2.8643   10.2830 C   0  0  0  0  0  0  0  0  0  0  0  0
   45.5568    4.0788    8.0653 C   0  0  0  0  0  0  0  0  0  0  0  0
   44.8823    2.1102    9.1555 C   0  0  0  0  0  0  0  0  0  0  0  0
   45.3953    2.7207    8.0312 C   0  0  0  0  0  0  0  0  0  0  0  0
   45.6941    4.2964   12.1789 H   0  0  0  0  0  0  0  0  0  0  0  0
   43.4687    5.7291   11.2765 H   0  0  0  0  0  0  0  0  0  0  0  0
   43.7303    5.1620   13.4687 H   0  0  0  0  0  0  0  0  0  0  0  0
   43.8488    3.4476   12.8211 H   0  0  0  0  0  0  0  0  0  0  0  0
   47.5519    3.5786   13.2795 H   0  0  0  0  0  0  0  0  0  0  0  0
   46.3073    2.9241   14.4501 H   0  0  0  0  0  0  0  0  0  0  0  0
   48.1759    4.4866   15.4335 H   0  0  0  0  0  0  0  0  0  0  0  0
   46.4428    5.0802   15.6588 H   0  0  0  0  0  0  0  0  0  0  0  0
   45.3772    5.9076    9.1387 H   0  0  0  0  0  0  0  0  0  0  0  0
   44.1481    2.3625   11.1387 H   0  0  0  0  0  0  0  0  0  0  0  0
   45.9651    4.5868    7.1775 H   0  0  0  0  0  0  0  0  0  0  0  0
   44.7453    1.0389    9.1534 H   0  0  0  0  0  0  0  0  0  0  0  0
   45.6393    2.1001    7.1931 H   0  0  0  0  0  0  0  0  0  0  0  0
  3  2  2  0
  4  2  1  0
  5  3  1  0
  6  4  1  0
  7  2  1  0
  5  8  1  0
  9  4  1  0
 10  7  1  0
 11  8  2  0
 12  8  1  0
 13 11  1  0
 14 12  2  0
 15 13  2  0
 10  9  1  0
  6  5  1  0
 14 15  1  0
  1 16  1  0
  5 17  1  6
  6 18  1  0
  6 19  1  0
  9 20  1  0
  9 21  1  0
 10 22  1  0
 10 23  1  0
 11 24  1  0
 12 25  1  0
 13 26  1  0
 14 27  1  0
 15 28  1  0
M  END
> <Uni-Dock RESULT> 
ENERGY=   -4.660  LOWER_BOUND=    1.894  UPPER_BOUND=    2.607
INTER + INTRA:          -4.660
INTER:                  -4.660
INTRA:                   0.000
UNBOUND:                 0.000

$$$$

     RDKit          3D

 28 29  0  0  0  0  0  0  0  0999 V2000
   45.6648    5.0968   12.0728 Cl  0  0  0  0  0  0  0  0  0  0  0  0
   44.6246    3.1652   10.5781 C   0  0  0  0  0  0  0  0  0  0  0  0
   44.4410    3.2324   11.8387 N   0  0  0  0  0  0  0  0  0  0  0  0
   44.5559    4.4684   10.0086 N   0  0  0  0  0  0  0  0  0  0  0  0
   44.2230    4.6231   12.2663 C   0  0  2  0  0  0  0  0  0  0  0  0
   43.7645    5.2367   10.9899 C   0  0  0  0  0  0  0  0  0  0  0  0
   44.9431    2.0595    9.1738 S   0  0  0  0  0  0  0  0  0  0  0  0
   45.4119    5.2026   12.8750 C   0  0  0  0  0  0  0  0  0  0  0  0
   45.2617    4.5262    8.7465 C   0  0  0  0  0  0  0  0  0  0  0  0
   44.7109    3.3817    7.9071 C   0  0  0  0  0  0  0  0  0  0  0  0
   46.1101    4.4207   13.8023 C   0  0  0  0  0  0  0  0  0  0  0  0
   45.9264    6.4493   12.6332 C   0  0  0  0  0  0  0  0  0  0  0  0
   47.2451    4.8833   14.4300 C   0  0  0  0  0  0  0  0  0  0  0  0
   47.0787    6.9195   13.2702 C   0  0  0  0  0  0  0  0  0  0  0  0
   47.7491    6.1304   14.1800 C   0  0  0  0  0  0  0  0  0  0  0  0
   45.1911    4.6318   10.8655 H   0  0  0  0  0  0  0  0  0  0  0  0
   43.3523    4.5494   12.9706 H   0  0  0  0  0  0  0  0  0  0  0  0
   42.7026    4.9037   10.8146 H   0  0  0  0  0  0  0  0  0  0  0  0
   43.8803    6.3110   10.8840 H   0  0  0  0  0  0  0  0  0  0  0  0
   46.3388    4.2912    8.9303 H   0  0  0  0  0  0  0  0  0  0  0  0
   45.1223    5.4950    8.2832 H   0  0  0  0  0  0  0  0  0  0  0  0
   45.3179    3.1944    7.0307 H   0  0  0  0  0  0  0  0  0  0  0  0
   43.6547    3.5791    7.7324 H   0  0  0  0  0  0  0  0  0  0  0  0
   45.7578    3.4101   14.0475 H   0  0  0  0  0  0  0  0  0  0  0  0
   45.4290    7.0843   11.9334 H   0  0  0  0  0  0  0  0  0  0  0  0
   47.7652    4.2363   15.1537 H   0  0  0  0  0  0  0  0  0  0  0  0
   47.4567    7.9082   13.0557 H   0  0  0  0  0  0  0  0  0  0  0  0
   48.6267    6.5353   14.6414 H   0  0  0  0  0  0  0  0  0  0  0  0
  3  2  2  0
  4  2  1  0
  5  3  1  0
  6  4  1  0
  7  2  1  0
  5  8  1  0
  9  4  1  0
 10  7  1  0
 11  8  2  0
 12  8  1  0
 13 11  1  0
 14 12  2  0
 15 13  2  0
 10  9  1  0
  6  5  1  0
 14 15  1  0
  1 16  1  0
  5 17  1  6
  6 18  1  0
  6 19  1  0
  9 20  1  0
  9 21  1  0
 10 22  1  0
 10 23  1  0
 11 24  1  0
 12 25  1  0
 13 26  1  0
 14 27  1  0
 15 28  1  0
M  END
> <Uni-Dock RESULT> 
ENERGY=   -4.164  LOWER_BOUND=    2.447  UPPER_BOUND=    5.398
INTER + INTRA:          -4.164
INTER:                  -4.164
INTRA:                   0.000
UNBOUND:                 0.000

$$$$

     RDKit          3D

 28 29  0  0  0  0  0  0  0  0999 V2000
   46.7056    6.4349   12.0453 Cl  0  0  0  0  0  0  0  0  0  0  0  0
   44.9009    4.5629   11.5103 C   0  0  0  0  0  0  0  0  0  0  0  0
   45.0253    5.0862   12.6670 N   0  0  0  0  0  0  0  0  0  0  0  0
   45.0430    5.5642   10.5080 N   0  0  0  0  0  0  0  0  0  0  0  0
   45.2709    6.5334   12.5673 C   0  0  2  0  0  0  0  0  0  0  0  0
   44.7129    6.8165   11.2166 C   0  0  0  0  0  0  0  0  0  0  0  0
   44.6059    3.0243   10.5929 S   0  0  0  0  0  0  0  0  0  0  0  0
   46.6729    6.8674   12.7737 C   0  0  0  0  0  0  0  0  0  0  0  0
   45.4416    4.9857    9.2427 C   0  0  0  0  0  0  0  0  0  0  0  0
   44.4442    3.8705    8.9607 C   0  0  0  0  0  0  0  0  0  0  0  0
   47.3358    6.2457   13.8380 C   0  0  0  0  0  0  0  0  0  0  0  0
   47.4221    7.7380   12.0265 C   0  0  0  0  0  0  0  0  0  0  0  0
   48.6615    6.4987   14.1117 C   0  0  0  0  0  0  0  0  0  0  0  0
   48.7680    7.9952   12.3040 C   0  0  0  0  0  0  0  0  0  0  0  0
   49.3990    7.3703   13.3581 C   0  0  0  0  0  0  0  0  0  0  0  0
   45.8728    5.7830   11.1623 H   0  0  0  0  0  0  0  0  0  0  0  0
   44.5892    6.9710   13.3441 H   0  0  0  0  0  0  0  0  0  0  0  0
   43.5897    6.8012   11.3026 H   0  0  0  0  0  0  0  0  0  0  0  0
   45.0731    7.7039   10.7051 H   0  0  0  0  0  0  0  0  0  0  0  0
   46.4357    4.4923    9.3747 H   0  0  0  0  0  0  0  0  0  0  0  0
   45.4553    5.7454    8.4711 H   0  0  0  0  0  0  0  0  0  0  0  0
   44.7729    3.2288    8.1533 H   0  0  0  0  0  0  0  0  0  0  0  0
   43.4622    4.3266    8.8487 H   0  0  0  0  0  0  0  0  0  0  0  0
   46.8004    5.5351   14.4815 H   0  0  0  0  0  0  0  0  0  0  0  0
   46.9611    8.2378   11.2031 H   0  0  0  0  0  0  0  0  0  0  0  0
   49.1461    5.9885   14.9590 H   0  0  0  0  0  0  0  0  0  0  0  0
   49.3289    8.6878   11.6940 H   0  0  0  0  0  0  0  0  0  0  0  0
   50.4308    7.6004   13.5301 H   0  0  0  0  0  0  0  0  0  0  0  0
  3  2  2  0
  4  2  1  0
  5  3  1  0
  6  4  1  0
  7  2  1  0
  5  8  1  0
  9  4  1  0
 10  7  1  0
 11  8  2  0
 12  8  1  0
 13 11  1  0
 14 12  2  0
 15 13  2  0
 10  9  1  0
  6  5  1  0
 14 15  1  0
  1 16  1  0
  5 17  1  6
  6 18  1  0
  6 19  1  0
  9 20  1  0
  9 21  1  0
 10 22  1  0
 10 23  1  0
 11 24  1  0
 12 25  1  0
 13 26  1  0
 14 27  1  0
 15 28  1  0
M  END
> <Uni-Dock RESULT> 
ENERGY=   -3.307  LOWER_BOUND=    3.033  UPPER_BOUND=    5.682
INTER + INTRA:          -3.307
INTER:                  -3.307
INTRA:                   0.000
UNBOUND:                 0.000

$$$$

     RDKit          3D

 28 29  0  0  0  0  0  0  0  0999 V2000
   46.7888    6.7493   12.7748 Cl  0  0  0  0  0  0  0  0  0  0  0  0
   44.2738    5.9441   12.5028 C   0  0  0  0  0  0  0  0  0  0  0  0
   44.6188    7.1674   12.3941 N   0  0  0  0  0  0  0  0  0  0  0  0
   45.2427    5.1102   11.8756 N   0  0  0  0  0  0  0  0  0  0  0  0
   45.8895    7.2939   11.6634 C   0  0  2  0  0  0  0  0  0  0  0  0
   45.9051    6.0098   10.9106 C   0  0  0  0  0  0  0  0  0  0  0  0
   43.0189    4.7993   13.1436 S   0  0  0  0  0  0  0  0  0  0  0  0
   47.0137    7.5368   12.5561 C   0  0  0  0  0  0  0  0  0  0  0  0
   45.2014    3.7660   12.4103 C   0  0  0  0  0  0  0  0  0  0  0  0
   43.7485    3.3219   12.3121 C   0  0  0  0  0  0  0  0  0  0  0  0
   46.8401    8.4839   13.5718 C   0  0  0  0  0  0  0  0  0  0  0  0
   48.2405    6.9284   12.5063 C   0  0  0  0  0  0  0  0  0  0  0  0
   47.8462    8.7812   14.4637 C   0  0  0  0  0  0  0  0  0  0  0  0
   49.2624    7.2300   13.4116 C   0  0  0  0  0  0  0  0  0  0  0  0
   49.0671    8.1669   14.4036 C   0  0  0  0  0  0  0  0  0  0  0  0
   45.8630    5.7827   12.4478 H   0  0  0  0  0  0  0  0  0  0  0  0
   45.6992    8.1363   10.9466 H   0  0  0  0  0  0  0  0  0  0  0  0
   45.1676    6.1030   10.0639 H   0  0  0  0  0  0  0  0  0  0  0  0
   46.8696    5.6406   10.5757 H   0  0  0  0  0  0  0  0  0  0  0  0
   45.4438    3.8094   13.5005 H   0  0  0  0  0  0  0  0  0  0  0  0
   45.8778    3.1232   11.8608 H   0  0  0  0  0  0  0  0  0  0  0  0
   43.5618    2.4206   12.8818 H   0  0  0  0  0  0  0  0  0  0  0  0
   43.4830    3.2923   11.2568 H   0  0  0  0  0  0  0  0  0  0  0  0
   45.8834    9.0129   13.6747 H   0  0  0  0  0  0  0  0  0  0  0  0
   48.4223    6.1983   11.7486 H   0  0  0  0  0  0  0  0  0  0  0  0
   47.6688    9.5332   15.2487 H   0  0  0  0  0  0  0  0  0  0  0  0
   50.2177    6.7310   13.3431 H   0  0  0  0  0  0  0  0  0  0  0  0
   49.8801    8.3630   15.0726 H   0  0  0  0  0  0  0  0  0  0  0  0
  3  2  2  0
  4  2  1  0
  5  3  1  0
  6  4  1  0
  7  2  1  0
  5  8  1  0
  9  4  1  0
 10  7  1  0
 11  8  2  0
 12  8  1  0
 13 11  1  0
 14 12  2  0
 15 13  2  0
 10  9  1  0
  6  5  1  0
 14 15  1  0
  1 16  1  0
  5 17  1  6
  6 18  1  0
  6 19  1  0
  9 20  1  0
  9 21  1  0
 10 22  1  0
 10 23  1  0
 11 24  1  0
 12 25  1  0
 13 26  1  0
 14 27  1  0
 15 28  1  0
M  END
> <Uni-Dock RESULT> 
ENERGY=   -3.230  LOWER_BOUND=    3.914  UPPER_BOUND=    5.981
INTER + INTRA:          -3.230
INTER:                  -3.230
INTRA:                   0.000
UNBOUND:                 0.000

$$$$

     RDKit          3D

 28 29  0  0  0  0  0  0  0  0999 V2000
   52.7069    3.1808   19.1041 Cl  0  0  0  0  0  0  0  0  0  0  0  0
   54.5102    2.8886   21.0304 C   0  0  0  0  0  0  0  0  0  0  0  0
   54.6870    2.4380   19.8502 N   0  0  0  0  0  0  0  0  0  0  0  0
   53.8964    4.1721   20.9717 N   0  0  0  0  0  0  0  0  0  0  0  0
   54.1994    3.3929   18.8427 C   0  0  2  0  0  0  0  0  0  0  0  0
   54.2383    4.6610   19.6214 C   0  0  0  0  0  0  0  0  0  0  0  0
   54.7287    2.5575   22.8020 S   0  0  0  0  0  0  0  0  0  0  0  0
   52.9058    3.0041   18.2992 C   0  0  0  0  0  0  0  0  0  0  0  0
   53.2051    4.4789   22.2056 C   0  0  0  0  0  0  0  0  0  0  0  0
   54.2186    4.2542   23.3192 C   0  0  0  0  0  0  0  0  0  0  0  0
   52.7292    1.6608   17.9483 C   0  0  0  0  0  0  0  0  0  0  0  0
   51.8287    3.8252   18.0916 C   0  0  0  0  0  0  0  0  0  0  0  0
   51.5413    1.1994   17.4264 C   0  0  0  0  0  0  0  0  0  0  0  0
   50.6225    3.3573   17.5617 C   0  0  0  0  0  0  0  0  0  0  0  0
   50.4728    2.0294   17.2237 C   0  0  0  0  0  0  0  0  0  0  0  0
   53.2999    3.6066   20.2726 H   0  0  0  0  0  0  0  0  0  0  0  0
   55.0187    3.4089   18.0758 H   0  0  0  0  0  0  0  0  0  0  0  0
   55.3166    4.9768   19.7032 H   0  0  0  0  0  0  0  0  0  0  0  0
   53.5979    5.4710   19.2860 H   0  0  0  0  0  0  0  0  0  0  0  0
   52.3973    3.7217   22.3583 H   0  0  0  0  0  0  0  0  0  0  0  0
   52.8237    5.4920   22.1795 H   0  0  0  0  0  0  0  0  0  0  0  0
   53.7507    4.2413   24.2953 H   0  0  0  0  0  0  0  0  0  0  0  0
   55.0275    4.9690   23.1785 H   0  0  0  0  0  0  0  0  0  0  0  0
   53.5482    0.9426   18.0861 H   0  0  0  0  0  0  0  0  0  0  0  0
   51.9141    4.8595   18.3434 H   0  0  0  0  0  0  0  0  0  0  0  0
   51.4432    0.1346   17.1631 H   0  0  0  0  0  0  0  0  0  0  0  0
   49.7934    4.0328   17.4112 H   0  0  0  0  0  0  0  0  0  0  0  0
   49.5298    1.7196   16.8215 H   0  0  0  0  0  0  0  0  0  0  0  0
  3  2  2  0
  4  2  1  0
  5  3  1  0
  6  4  1  0
  7  2  1  0
  5  8  1  0
  9  4  1  0
 10  7  1  0
 11  8  2  0
 12  8  1  0
 13 11  1  0
 14 12  2  0
 15 13  2  0
 10  9  1  0
  6  5  1  0
 14 15  1  0
  1 16  1  0
  5 17  1  6
  6 18  1  0
  6 19  1  0
  9 20  1  0
  9 21  1  0
 10 22  1  0
 10 23  1  0
 11 24  1  0
 12 25  1  0
 13 26  1  0
 14 27  1  0
 15 28  1  0
M  END
> <Uni-Dock RESULT> 
ENERGY=   -3.180  LOWER_BOUND=   11.068  UPPER_BOUND=   12.954
INTER + INTRA:          -3.180
INTER:                  -3.180
INTRA:                   0.000
UNBOUND:                 0.000

$$$$
