
     RDKit          3D

 28 29  0  0  0  0  0  0  0  0999 V2000
   45.6252    3.5814    8.9089 Cl  0  0  0  0  0  0  0  0  0  0  0  0
   45.9021    2.2601    8.2193 C   0  0  0  0  0  0  0  0  0  0  0  0
   44.9952    2.4292    9.1200 N   0  0  0  0  0  0  0  0  0  0  0  0
   46.1774    3.5198    7.6166 N   0  0  0  0  0  0  0  0  0  0  0  0
   44.6033    3.8174    9.1778 C   0  0  2  0  0  0  0  0  0  0  0  0
   45.8642    4.4910    8.6824 C   0  0  0  0  0  0  0  0  0  0  0  0
   46.9554    1.0134    7.4369 S   0  0  0  0  0  0  0  0  0  0  0  0
   44.1810    4.2654   10.5199 C   0  0  0  0  0  0  0  0  0  0  0  0
   46.6250    3.3161    6.2821 C   0  0  0  0  0  0  0  0  0  0  0  0
   47.5962    2.2061    6.1989 C   0  0  0  0  0  0  0  0  0  0  0  0
   43.0429    5.0370   10.6986 C   0  0  0  0  0  0  0  0  0  0  0  0
   44.9482    3.8978   11.6034 C   0  0  0  0  0  0  0  0  0  0  0  0
   42.7007    5.4238   11.9750 C   0  0  0  0  0  0  0  0  0  0  0  0
   44.5728    4.3063   12.8773 C   0  0  0  0  0  0  0  0  0  0  0  0
   43.4392    5.0797   13.0944 C   0  0  0  0  0  0  0  0  0  0  0  0
   44.8962    3.9880    9.9962 H   0  0  0  0  0  0  0  0  0  0  0  0
   43.8355    4.0097    8.4013 H   0  0  0  0  0  0  0  0  0  0  0  0
   45.6500    5.4883    8.2971 H   0  0  0  0  0  0  0  0  0  0  0  0
   46.7021    4.4489    9.4249 H   0  0  0  0  0  0  0  0  0  0  0  0
   47.1319    4.2560    5.9398 H   0  0  0  0  0  0  0  0  0  0  0  0
   45.8148    3.1339    5.5425 H   0  0  0  0  0  0  0  0  0  0  0  0
   47.5509    1.7292    5.1884 H   0  0  0  0  0  0  0  0  0  0  0  0
   48.6104    2.5157    6.4641 H   0  0  0  0  0  0  0  0  0  0  0  0
   42.4262    5.3345    9.8450 H   0  0  0  0  0  0  0  0  0  0  0  0
   45.8322    3.2960   11.4436 H   0  0  0  0  0  0  0  0  0  0  0  0
   41.8197    6.0260   12.1528 H   0  0  0  0  0  0  0  0  0  0  0  0
   45.2200    3.9827   13.6840 H   0  0  0  0  0  0  0  0  0  0  0  0
   43.1738    5.3809   14.0919 H   0  0  0  0  0  0  0  0  0  0  0  0
  3  2  2  0
  4  2  1  0
  5  3  1  0
  6  4  1  0
  7  2  1  0
  5  8  1  0
  9  4  1  0
 10  7  1  0
 11  8  2  0
 12  8  1  0
 13 11  1  0
 14 12  2  0
 15 13  2  0
 10  9  1  0
  6  5  1  0
 14 15  1  0
  1 16  1  0
  5 17  1  1
  6 18  1  0
  6 19  1  0
  9 20  1  0
  9 21  1  0
 10 22  1  0
 10 23  1  0
 11 24  1  0
 12 25  1  0
 13 26  1  0
 14 27  1  0
 15 28  1  0
M  END
> <Uni-Dock RESULT> 
ENERGY=   -5.335  LOWER_BOUND=    0.000  UPPER_BOUND=    0.000
INTER + INTRA:          -5.335
INTER:                  -5.335
INTRA:                   0.000
UNBOUND:                 0.000

$$$$

     RDKit          3D

 28 29  0  0  0  0  0  0  0  0999 V2000
   46.1925    6.9285   12.5043 Cl  0  0  0  0  0  0  0  0  0  0  0  0
   45.9803    8.4289   12.4603 C   0  0  0  0  0  0  0  0  0  0  0  0
   45.0527    7.5610   12.2398 N   0  0  0  0  0  0  0  0  0  0  0  0
   46.9932    7.8138   13.2487 N   0  0  0  0  0  0  0  0  0  0  0  0
   45.3858    6.3051   12.8689 C   0  0  2  0  0  0  0  0  0  0  0  0
   46.8965    6.3865   12.8870 C   0  0  0  0  0  0  0  0  0  0  0  0
   46.4718   10.1408   12.1386 S   0  0  0  0  0  0  0  0  0  0  0  0
   44.8652    5.1213   12.1564 C   0  0  0  0  0  0  0  0  0  0  0  0
   47.6510    8.8050   14.0281 C   0  0  0  0  0  0  0  0  0  0  0  0
   47.9380   10.0173   13.2344 C   0  0  0  0  0  0  0  0  0  0  0  0
   44.2485    4.0825   12.8369 C   0  0  0  0  0  0  0  0  0  0  0  0
   45.0055    5.0683   10.7871 C   0  0  0  0  0  0  0  0  0  0  0  0
   43.7834    3.0050   12.1166 C   0  0  0  0  0  0  0  0  0  0  0  0
   44.5242    3.9652   10.0925 C   0  0  0  0  0  0  0  0  0  0  0  0
   43.9010    2.9061   10.7407 C   0  0  0  0  0  0  0  0  0  0  0  0
   45.4727    5.8234   12.1307 H   0  0  0  0  0  0  0  0  0  0  0  0
   45.0710    6.3377   13.9316 H   0  0  0  0  0  0  0  0  0  0  0  0
   47.3151    5.7273   13.6480 H   0  0  0  0  0  0  0  0  0  0  0  0
   47.3519    6.2715   11.8698 H   0  0  0  0  0  0  0  0  0  0  0  0
   48.6242    8.3762   14.3837 H   0  0  0  0  0  0  0  0  0  0  0  0
   47.1087    9.1063   14.9511 H   0  0  0  0  0  0  0  0  0  0  0  0
   47.9627   10.9164   13.8990 H   0  0  0  0  0  0  0  0  0  0  0  0
   48.8480    9.9210   12.6364 H   0  0  0  0  0  0  0  0  0  0  0  0
   44.1317    4.1144   13.9244 H   0  0  0  0  0  0  0  0  0  0  0  0
   45.4893    5.8882   10.2745 H   0  0  0  0  0  0  0  0  0  0  0  0
   43.2970    2.1762   12.6134 H   0  0  0  0  0  0  0  0  0  0  0  0
   44.6672    3.9876    9.0186 H   0  0  0  0  0  0  0  0  0  0  0  0
   43.5386    2.0656   10.1764 H   0  0  0  0  0  0  0  0  0  0  0  0
  3  2  2  0
  4  2  1  0
  5  3  1  0
  6  4  1  0
  7  2  1  0
  5  8  1  0
  9  4  1  0
 10  7  1  0
 11  8  2  0
 12  8  1  0
 13 11  1  0
 14 12  2  0
 15 13  2  0
 10  9  1  0
  6  5  1  0
 14 15  1  0
  1 16  1  0
  5 17  1  1
  6 18  1  0
  6 19  1  0
  9 20  1  0
  9 21  1  0
 10 22  1  0
 10 23  1  0
 11 24  1  0
 12 25  1  0
 13 26  1  0
 14 27  1  0
 15 28  1  0
M  END
> <Uni-Dock RESULT> 
ENERGY=   -3.763  LOWER_BOUND=    4.700  UPPER_BOUND=    6.088
INTER + INTRA:          -3.763
INTER:                  -3.763
INTRA:                   0.000
UNBOUND:                 0.000

$$$$

     RDKit          3D

 28 29  0  0  0  0  0  0  0  0999 V2000
   46.3908    6.6825   12.9924 Cl  0  0  0  0  0  0  0  0  0  0  0  0
   47.7357    6.8404   13.6736 C   0  0  0  0  0  0  0  0  0  0  0  0
   47.4393    5.8726   12.8751 N   0  0  0  0  0  0  0  0  0  0  0  0
   46.8826    7.9416   13.3814 N   0  0  0  0  0  0  0  0  0  0  0  0
   46.3656    6.2652   11.9936 C   0  0  2  0  0  0  0  0  0  0  0  0
   45.6660    7.3051   12.8411 C   0  0  0  0  0  0  0  0  0  0  0  0
   48.8357    7.3178   15.0294 S   0  0  0  0  0  0  0  0  0  0  0  0
   45.4897    5.1499   11.5824 C   0  0  0  0  0  0  0  0  0  0  0  0
   47.5433    9.1537   13.7238 C   0  0  0  0  0  0  0  0  0  0  0  0
   48.2278    9.0488   15.0286 C   0  0  0  0  0  0  0  0  0  0  0  0
   45.0924    4.9923   10.2633 C   0  0  0  0  0  0  0  0  0  0  0  0
   45.0701    4.2587   12.5454 C   0  0  0  0  0  0  0  0  0  0  0  0
   44.2749    3.9320    9.9418 C   0  0  0  0  0  0  0  0  0  0  0  0
   44.2453    3.2003   12.1848 C   0  0  0  0  0  0  0  0  0  0  0  0
   43.8274    3.0109   10.8734 C   0  0  0  0  0  0  0  0  0  0  0  0
   45.7572    5.6923   12.2873 H   0  0  0  0  0  0  0  0  0  0  0  0
   46.7891    6.8173   11.1303 H   0  0  0  0  0  0  0  0  0  0  0  0
   45.0736    7.9802   12.2229 H   0  0  0  0  0  0  0  0  0  0  0  0
   45.1123    6.8611   13.7080 H   0  0  0  0  0  0  0  0  0  0  0  0
   46.7692    9.9619   13.7943 H   0  0  0  0  0  0  0  0  0  0  0  0
   48.2753    9.5139   12.9679 H   0  0  0  0  0  0  0  0  0  0  0  0
   49.1096    9.7359   15.0578 H   0  0  0  0  0  0  0  0  0  0  0  0
   47.5506    9.2104   15.8713 H   0  0  0  0  0  0  0  0  0  0  0  0
   45.4200    5.6943    9.4904 H   0  0  0  0  0  0  0  0  0  0  0  0
   45.3906    4.3985   13.5686 H   0  0  0  0  0  0  0  0  0  0  0  0
   43.9449    3.7774    8.9232 H   0  0  0  0  0  0  0  0  0  0  0  0
   43.9525    2.5374   12.9906 H   0  0  0  0  0  0  0  0  0  0  0  0
   43.1889    2.1824   10.6243 H   0  0  0  0  0  0  0  0  0  0  0  0
  3  2  2  0
  4  2  1  0
  5  3  1  0
  6  4  1  0
  7  2  1  0
  5  8  1  0
  9  4  1  0
 10  7  1  0
 11  8  2  0
 12  8  1  0
 13 11  1  0
 14 12  2  0
 15 13  2  0
 10  9  1  0
  6  5  1  0
 14 15  1  0
  1 16  1  0
  5 17  1  1
  6 18  1  0
  6 19  1  0
  9 20  1  0
  9 21  1  0
 10 22  1  0
 10 23  1  0
 11 24  1  0
 12 25  1  0
 13 26  1  0
 14 27  1  0
 15 28  1  0
M  END
> <Uni-Dock RESULT> 
ENERGY=   -3.635  LOWER_BOUND=    4.672  UPPER_BOUND=    6.077
INTER + INTRA:          -3.635
INTER:                  -3.635
INTRA:                   0.000
UNBOUND:                 0.000

$$$$

     RDKit          3D

 28 29  0  0  0  0  0  0  0  0999 V2000
   45.6404    6.4197   12.1428 Cl  0  0  0  0  0  0  0  0  0  0  0  0
   45.2961    5.0115   12.5861 C   0  0  0  0  0  0  0  0  0  0  0  0
   46.2464    5.7178   13.0964 N   0  0  0  0  0  0  0  0  0  0  0  0
   44.3431    5.8939   12.0038 N   0  0  0  0  0  0  0  0  0  0  0  0
   45.9895    7.1231   12.8883 C   0  0  2  0  0  0  0  0  0  0  0  0
   45.1446    7.0763   11.6341 C   0  0  0  0  0  0  0  0  0  0  0  0
   44.7247    3.3125   12.3359 S   0  0  0  0  0  0  0  0  0  0  0  0
   47.2107    7.9413   12.7493 C   0  0  0  0  0  0  0  0  0  0  0  0
   43.0598    5.2812   12.0233 C   0  0  0  0  0  0  0  0  0  0  0  0
   43.1293    3.8628   11.6163 C   0  0  0  0  0  0  0  0  0  0  0  0
   47.3482    9.1515   13.4119 C   0  0  0  0  0  0  0  0  0  0  0  0
   48.2222    7.4740   11.9395 C   0  0  0  0  0  0  0  0  0  0  0  0
   48.5110    9.8692   13.2423 C   0  0  0  0  0  0  0  0  0  0  0  0
   49.3820    8.2248   11.7914 C   0  0  0  0  0  0  0  0  0  0  0  0
   49.5548    9.4414   12.4397 C   0  0  0  0  0  0  0  0  0  0  0  0
   46.6773    7.2906   12.3560 H   0  0  0  0  0  0  0  0  0  0  0  0
   45.3169    7.4908   13.6895 H   0  0  0  0  0  0  0  0  0  0  0  0
   44.5437    7.9805   11.5327 H   0  0  0  0  0  0  0  0  0  0  0  0
   45.7338    6.8041   10.7209 H   0  0  0  0  0  0  0  0  0  0  0  0
   42.4047    5.8266   11.2947 H   0  0  0  0  0  0  0  0  0  0  0  0
   42.5293    5.3441   12.9986 H   0  0  0  0  0  0  0  0  0  0  0  0
   42.3029    3.2828   12.0971 H   0  0  0  0  0  0  0  0  0  0  0  0
   43.1433    3.7386   10.5304 H   0  0  0  0  0  0  0  0  0  0  0  0
   46.5510    9.5321   14.0578 H   0  0  0  0  0  0  0  0  0  0  0  0
   48.0961    6.5280   11.4311 H   0  0  0  0  0  0  0  0  0  0  0  0
   48.6537   10.8173   13.7434 H   0  0  0  0  0  0  0  0  0  0  0  0
   50.1369    7.7995   11.1406 H   0  0  0  0  0  0  0  0  0  0  0  0
   50.4636   10.0004   12.3059 H   0  0  0  0  0  0  0  0  0  0  0  0
  3  2  2  0
  4  2  1  0
  5  3  1  0
  6  4  1  0
  7  2  1  0
  5  8  1  0
  9  4  1  0
 10  7  1  0
 11  8  2  0
 12  8  1  0
 13 11  1  0
 14 12  2  0
 15 13  2  0
 10  9  1  0
  6  5  1  0
 14 15  1  0
  1 16  1  0
  5 17  1  1
  6 18  1  0
  6 19  1  0
  9 20  1  0
  9 21  1  0
 10 22  1  0
 10 23  1  0
 11 24  1  0
 12 25  1  0
 13 26  1  0
 14 27  1  0
 15 28  1  0
M  END
> <Uni-Dock RESULT> 
ENERGY=   -3.572  LOWER_BOUND=    4.713  UPPER_BOUND=    5.922
INTER + INTRA:          -3.572
INTER:                  -3.572
INTRA:                   0.000
UNBOUND:                 0.000

$$$$

     RDKit          3D

 28 29  0  0  0  0  0  0  0  0999 V2000
   40.9858   12.0499   11.8033 Cl  0  0  0  0  0  0  0  0  0  0  0  0
   41.6707   10.8521   11.1752 C   0  0  0  0  0  0  0  0  0  0  0  0
   40.7780   10.7705   12.1020 N   0  0  0  0  0  0  0  0  0  0  0  0
   41.5000   12.0905   10.4946 N   0  0  0  0  0  0  0  0  0  0  0  0
   39.9494   11.9526   12.1009 C   0  0  2  0  0  0  0  0  0  0  0  0
   40.9049   12.9708   11.5184 C   0  0  0  0  0  0  0  0  0  0  0  0
   43.0611    9.9747   10.4186 S   0  0  0  0  0  0  0  0  0  0  0  0
   39.4307   12.3219   13.4331 C   0  0  0  0  0  0  0  0  0  0  0  0
   41.9618   11.9601    9.1557 C   0  0  0  0  0  0  0  0  0  0  0  0
   43.2440   11.2294    9.0926 C   0  0  0  0  0  0  0  0  0  0  0  0
   38.1051   12.6850   13.6165 C   0  0  0  0  0  0  0  0  0  0  0  0
   40.2988   12.2986   14.5023 C   0  0  0  0  0  0  0  0  0  0  0  0
   37.6808   13.0189   14.8832 C   0  0  0  0  0  0  0  0  0  0  0  0
   39.8360   12.6418   15.7667 C   0  0  0  0  0  0  0  0  0  0  0  0
   38.5149   13.0105   15.9882 C   0  0  0  0  0  0  0  0  0  0  0  0
   40.1861   12.2627   12.8962 H   0  0  0  0  0  0  0  0  0  0  0  0
   39.1451   11.8305   11.3474 H   0  0  0  0  0  0  0  0  0  0  0  0
   40.3641   13.8146   11.0890 H   0  0  0  0  0  0  0  0  0  0  0  0
   41.7247   13.2553   12.2270 H   0  0  0  0  0  0  0  0  0  0  0  0
   42.1210   12.9904    8.7426 H   0  0  0  0  0  0  0  0  0  0  0  0
   41.2424   11.4736    8.4610 H   0  0  0  0  0  0  0  0  0  0  0  0
   43.3383   10.7001    8.1120 H   0  0  0  0  0  0  0  0  0  0  0  0
   44.1035   11.8725    9.2988 H   0  0  0  0  0  0  0  0  0  0  0  0
   37.4069   12.7068   12.7742 H   0  0  0  0  0  0  0  0  0  0  0  0
   41.3288   12.0128   14.3390 H   0  0  0  0  0  0  0  0  0  0  0  0
   36.6539   13.3072   15.0643 H   0  0  0  0  0  0  0  0  0  0  0  0
   40.5707   12.6025   16.5624 H   0  0  0  0  0  0  0  0  0  0  0  0
   38.1856   13.2710   16.9780 H   0  0  0  0  0  0  0  0  0  0  0  0
  3  2  2  0
  4  2  1  0
  5  3  1  0
  6  4  1  0
  7  2  1  0
  5  8  1  0
  9  4  1  0
 10  7  1  0
 11  8  2  0
 12  8  1  0
 13 11  1  0
 14 12  2  0
 15 13  2  0
 10  9  1  0
  6  5  1  0
 14 15  1  0
  1 16  1  0
  5 17  1  1
  6 18  1  0
  6 19  1  0
  9 20  1  0
  9 21  1  0
 10 22  1  0
 10 23  1  0
 11 24  1  0
 12 25  1  0
 13 26  1  0
 14 27  1  0
 15 28  1  0
M  END
> <Uni-Dock RESULT> 
ENERGY=   -3.559  LOWER_BOUND=    8.538  UPPER_BOUND=    9.986
INTER + INTRA:          -3.559
INTER:                  -3.559
INTRA:                   0.000
UNBOUND:                 0.000

$$$$

     RDKit          3D

 28 29  0  0  0  0  0  0  0  0999 V2000
   46.0591    6.5982   12.5324 Cl  0  0  0  0  0  0  0  0  0  0  0  0
   44.7848    6.2341   11.7963 C   0  0  0  0  0  0  0  0  0  0  0  0
   45.7048    6.9981   11.3144 N   0  0  0  0  0  0  0  0  0  0  0  0
   45.3686    5.4002   12.7911 N   0  0  0  0  0  0  0  0  0  0  0  0
   46.9678    6.7235   11.9573 C   0  0  2  0  0  0  0  0  0  0  0  0
   46.4986    6.2024   13.2980 C   0  0  0  0  0  0  0  0  0  0  0  0
   43.0250    5.8289   11.6763 S   0  0  0  0  0  0  0  0  0  0  0  0
   47.8573    7.8978   12.0569 C   0  0  0  0  0  0  0  0  0  0  0  0
   44.6378    4.1829   12.8741 C   0  0  0  0  0  0  0  0  0  0  0  0
   43.1803    4.4218   12.8432 C   0  0  0  0  0  0  0  0  0  0  0  0
   49.2058    7.8105   11.7462 C   0  0  0  0  0  0  0  0  0  0  0  0
   47.3156    9.0953   12.4692 C   0  0  0  0  0  0  0  0  0  0  0  0
   49.9842    8.9408   11.8588 C   0  0  0  0  0  0  0  0  0  0  0  0
   48.1310   10.2157   12.5714 C   0  0  0  0  0  0  0  0  0  0  0  0
   49.4860   10.1658   12.2685 C   0  0  0  0  0  0  0  0  0  0  0  0
   47.0694    7.5077   12.3563 H   0  0  0  0  0  0  0  0  0  0  0  0
   47.4511    5.8622   11.4532 H   0  0  0  0  0  0  0  0  0  0  0  0
   47.2693    5.5954   13.7738 H   0  0  0  0  0  0  0  0  0  0  0  0
   46.0681    7.0043   13.9514 H   0  0  0  0  0  0  0  0  0  0  0  0
   44.8950    3.6905   13.8482 H   0  0  0  0  0  0  0  0  0  0  0  0
   44.8907    3.4345   12.0914 H   0  0  0  0  0  0  0  0  0  0  0  0
   42.6539    3.5371   12.4064 H   0  0  0  0  0  0  0  0  0  0  0  0
   42.7801    4.6984   13.8220 H   0  0  0  0  0  0  0  0  0  0  0  0
   49.6465    6.8643   11.4177 H   0  0  0  0  0  0  0  0  0  0  0  0
   46.2619    9.1432   12.7070 H   0  0  0  0  0  0  0  0  0  0  0  0
   51.0400    8.9106   11.6249 H   0  0  0  0  0  0  0  0  0  0  0  0
   47.6413   11.1244   12.9012 H   0  0  0  0  0  0  0  0  0  0  0  0
   50.0922   11.0495   12.3571 H   0  0  0  0  0  0  0  0  0  0  0  0
  3  2  2  0
  4  2  1  0
  5  3  1  0
  6  4  1  0
  7  2  1  0
  5  8  1  0
  9  4  1  0
 10  7  1  0
 11  8  2  0
 12  8  1  0
 13 11  1  0
 14 12  2  0
 15 13  2  0
 10  9  1  0
  6  5  1  0
 14 15  1  0
  1 16  1  0
  5 17  1  1
  6 18  1  0
  6 19  1  0
  9 20  1  0
  9 21  1  0
 10 22  1  0
 10 23  1  0
 11 24  1  0
 12 25  1  0
 13 26  1  0
 14 27  1  0
 15 28  1  0
M  END
> <Uni-Dock RESULT> 
ENERGY=   -3.388  LOWER_BOUND=    5.111  UPPER_BOUND=    6.401
INTER + INTRA:          -3.388
INTER:                  -3.388
INTRA:                   0.000
UNBOUND:                 0.000

$$$$

     RDKit          3D

 28 29  0  0  0  0  0  0  0  0999 V2000
   45.5305    6.3696   11.9993 Cl  0  0  0  0  0  0  0  0  0  0  0  0
   44.3805    5.5435   12.5405 C   0  0  0  0  0  0  0  0  0  0  0  0
   44.7358    6.6875   13.0174 N   0  0  0  0  0  0  0  0  0  0  0  0
   44.8227    5.4625   11.1901 N   0  0  0  0  0  0  0  0  0  0  0  0
   45.4406    7.4485   12.0134 C   0  0  2  0  0  0  0  0  0  0  0  0
   46.0110    6.3368   11.1603 C   0  0  0  0  0  0  0  0  0  0  0  0
   43.5269    4.0016   12.9524 S   0  0  0  0  0  0  0  0  0  0  0  0
   46.4653    8.3594   12.5615 C   0  0  0  0  0  0  0  0  0  0  0  0
   43.9586    4.5988   10.4620 C   0  0  0  0  0  0  0  0  0  0  0  0
   43.6376    3.3786   11.2304 C   0  0  0  0  0  0  0  0  0  0  0  0
   46.5834    9.6663   12.1139 C   0  0  0  0  0  0  0  0  0  0  0  0
   47.3113    7.8802   13.5373 C   0  0  0  0  0  0  0  0  0  0  0  0
   47.5589   10.4674   12.6639 C   0  0  0  0  0  0  0  0  0  0  0  0
   48.2845    8.7169   14.0699 C   0  0  0  0  0  0  0  0  0  0  0  0
   48.4321   10.0318   13.6460 C   0  0  0  0  0  0  0  0  0  0  0  0
   46.2289    7.4730   12.4165 H   0  0  0  0  0  0  0  0  0  0  0  0
   44.7031    7.9711   11.3711 H   0  0  0  0  0  0  0  0  0  0  0  0
   46.2486    6.6947   10.1582 H   0  0  0  0  0  0  0  0  0  0  0  0
   46.8426    5.7818   11.6658 H   0  0  0  0  0  0  0  0  0  0  0  0
   44.4860    4.2952    9.5201 H   0  0  0  0  0  0  0  0  0  0  0  0
   43.0071    5.0671   10.1274 H   0  0  0  0  0  0  0  0  0  0  0  0
   42.6351    2.9856   10.9287 H   0  0  0  0  0  0  0  0  0  0  0  0
   44.4190    2.6180   11.1547 H   0  0  0  0  0  0  0  0  0  0  0  0
   45.9165   10.0572   11.3393 H   0  0  0  0  0  0  0  0  0  0  0  0
   47.2035    6.8581   13.8732 H   0  0  0  0  0  0  0  0  0  0  0  0
   47.6807   11.4923   12.3395 H   0  0  0  0  0  0  0  0  0  0  0  0
   48.9157    8.2769   14.8329 H   0  0  0  0  0  0  0  0  0  0  0  0
   49.1946   10.6557   14.0766 H   0  0  0  0  0  0  0  0  0  0  0  0
  3  2  2  0
  4  2  1  0
  5  3  1  0
  6  4  1  0
  7  2  1  0
  5  8  1  0
  9  4  1  0
 10  7  1  0
 11  8  2  0
 12  8  1  0
 13 11  1  0
 14 12  2  0
 15 13  2  0
 10  9  1  0
  6  5  1  0
 14 15  1  0
  1 16  1  0
  5 17  1  1
  6 18  1  0
  6 19  1  0
  9 20  1  0
  9 21  1  0
 10 22  1  0
 10 23  1  0
 11 24  1  0
 12 25  1  0
 13 26  1  0
 14 27  1  0
 15 28  1  0
M  END
> <Uni-Dock RESULT> 
ENERGY=   -3.303  LOWER_BOUND=    4.749  UPPER_BOUND=    5.617
INTER + INTRA:          -3.303
INTER:                  -3.303
INTRA:                   0.000
UNBOUND:                 0.000

$$$$

     RDKit          3D

 28 29  0  0  0  0  0  0  0  0999 V2000
   47.4585    6.7156   12.5884 Cl  0  0  0  0  0  0  0  0  0  0  0  0
   48.2447    7.9746   12.2804 C   0  0  0  0  0  0  0  0  0  0  0  0
   46.9983    7.8124   11.9932 N   0  0  0  0  0  0  0  0  0  0  0  0
   48.5770    7.0976   13.3511 N   0  0  0  0  0  0  0  0  0  0  0  0
   46.4141    6.8137   12.8565 C   0  0  2  0  0  0  0  0  0  0  0  0
   47.6301    5.9776   13.1898 C   0  0  0  0  0  0  0  0  0  0  0  0
   49.7292    8.9050   11.8262 S   0  0  0  0  0  0  0  0  0  0  0  0
   45.3208    6.0447   12.2289 C   0  0  0  0  0  0  0  0  0  0  0  0
   49.6494    7.6546   14.1012 C   0  0  0  0  0  0  0  0  0  0  0  0
   50.6977    8.2085   13.2200 C   0  0  0  0  0  0  0  0  0  0  0  0
   44.1363    5.7916   12.9038 C   0  0  0  0  0  0  0  0  0  0  0  0
   45.5024    5.5784   10.9456 C   0  0  0  0  0  0  0  0  0  0  0  0
   43.1537    5.0686   12.2653 C   0  0  0  0  0  0  0  0  0  0  0  0
   44.4892    4.8520   10.3321 C   0  0  0  0  0  0  0  0  0  0  0  0
   43.2893    4.5793   10.9773 C   0  0  0  0  0  0  0  0  0  0  0  0
   46.2347    6.2103   12.2333 H   0  0  0  0  0  0  0  0  0  0  0  0
   46.1087    7.2921   13.8090 H   0  0  0  0  0  0  0  0  0  0  0  0
   47.4781    5.4153   14.1116 H   0  0  0  0  0  0  0  0  0  0  0  0
   47.9884    5.3637   12.3238 H   0  0  0  0  0  0  0  0  0  0  0  0
   50.1025    6.8352   14.7182 H   0  0  0  0  0  0  0  0  0  0  0  0
   49.3489    8.4387   14.8302 H   0  0  0  0  0  0  0  0  0  0  0  0
   51.2321    9.0449   13.7353 H   0  0  0  0  0  0  0  0  0  0  0  0
   51.3860    7.4421   12.8544 H   0  0  0  0  0  0  0  0  0  0  0  0
   43.9815    6.1574   13.9234 H   0  0  0  0  0  0  0  0  0  0  0  0
   46.4331    5.7860   10.4359 H   0  0  0  0  0  0  0  0  0  0  0  0
   42.2166    4.8518   12.7605 H   0  0  0  0  0  0  0  0  0  0  0  0
   44.6973    4.5153    9.3233 H   0  0  0  0  0  0  0  0  0  0  0  0
   42.5233    4.0144   10.4770 H   0  0  0  0  0  0  0  0  0  0  0  0
  3  2  2  0
  4  2  1  0
  5  3  1  0
  6  4  1  0
  7  2  1  0
  5  8  1  0
  9  4  1  0
 10  7  1  0
 11  8  2  0
 12  8  1  0
 13 11  1  0
 14 12  2  0
 15 13  2  0
 10  9  1  0
  6  5  1  0
 14 15  1  0
  1 16  1  0
  5 17  1  1
  6 18  1  0
  6 19  1  0
  9 20  1  0
  9 21  1  0
 10 22  1  0
 10 23  1  0
 11 24  1  0
 12 25  1  0
 13 26  1  0
 14 27  1  0
 15 28  1  0
M  END
> <Uni-Dock RESULT> 
ENERGY=   -3.291  LOWER_BOUND=    4.872  UPPER_BOUND=    5.935
INTER + INTRA:          -3.291
INTER:                  -3.291
INTRA:                   0.000
UNBOUND:                 0.000

$$$$

     RDKit          3D

 28 29  0  0  0  0  0  0  0  0999 V2000
   46.9941    6.9376   13.1852 Cl  0  0  0  0  0  0  0  0  0  0  0  0
   48.1081    6.5558   14.1398 C   0  0  0  0  0  0  0  0  0  0  0  0
   47.3300    5.7066   13.5603 N   0  0  0  0  0  0  0  0  0  0  0  0
   48.1299    7.7483   13.3631 N   0  0  0  0  0  0  0  0  0  0  0  0
   46.7797    6.2777   12.3541 C   0  0  2  0  0  0  0  0  0  0  0  0
   46.8147    7.7516   12.6941 C   0  0  0  0  0  0  0  0  0  0  0  0
   49.1836    6.7933   15.5760 S   0  0  0  0  0  0  0  0  0  0  0  0
   45.4312    5.7799   12.0166 C   0  0  0  0  0  0  0  0  0  0  0  0
   49.3725    8.4130   13.5547 C   0  0  0  0  0  0  0  0  0  0  0  0
   49.7669    8.4267   14.9782 C   0  0  0  0  0  0  0  0  0  0  0  0
   45.1028    5.4051   10.7227 C   0  0  0  0  0  0  0  0  0  0  0  0
   44.4949    5.6941   13.0234 C   0  0  0  0  0  0  0  0  0  0  0  0
   43.8285    4.9486   10.4703 C   0  0  0  0  0  0  0  0  0  0  0  0
   43.2184    5.2289   12.7324 C   0  0  0  0  0  0  0  0  0  0  0  0
   42.8538    4.8445   11.4480 C   0  0  0  0  0  0  0  0  0  0  0  0
   45.9312    6.2927   12.6079 H   0  0  0  0  0  0  0  0  0  0  0  0
   47.5049    6.1435   11.5262 H   0  0  0  0  0  0  0  0  0  0  0  0
   46.8004    8.3623   11.7909 H   0  0  0  0  0  0  0  0  0  0  0  0
   46.0531    8.0402   13.4633 H   0  0  0  0  0  0  0  0  0  0  0  0
   49.2545    9.4736   13.2100 H   0  0  0  0  0  0  0  0  0  0  0  0
   50.2162    8.0029   12.9574 H   0  0  0  0  0  0  0  0  0  0  0  0
   50.8809    8.4622   15.0693 H   0  0  0  0  0  0  0  0  0  0  0  0
   49.2810    9.2287   15.5400 H   0  0  0  0  0  0  0  0  0  0  0  0
   45.8388    5.4692    9.9154 H   0  0  0  0  0  0  0  0  0  0  0  0
   44.7701    5.9911   14.0260 H   0  0  0  0  0  0  0  0  0  0  0  0
   43.5364    4.6474    9.4732 H   0  0  0  0  0  0  0  0  0  0  0  0
   42.5318    5.1867   13.5697 H   0  0  0  0  0  0  0  0  0  0  0  0
   41.8582    4.4884   11.2530 H   0  0  0  0  0  0  0  0  0  0  0  0
  3  2  2  0
  4  2  1  0
  5  3  1  0
  6  4  1  0
  7  2  1  0
  5  8  1  0
  9  4  1  0
 10  7  1  0
 11  8  2  0
 12  8  1  0
 13 11  1  0
 14 12  2  0
 15 13  2  0
 10  9  1  0
  6  5  1  0
 14 15  1  0
  1 16  1  0
  5 17  1  1
  6 18  1  0
  6 19  1  0
  9 20  1  0
  9 21  1  0
 10 22  1  0
 10 23  1  0
 11 24  1  0
 12 25  1  0
 13 26  1  0
 14 27  1  0
 15 28  1  0
M  END
> <Uni-Dock RESULT> 
ENERGY=   -3.289  LOWER_BOUND=    4.962  UPPER_BOUND=    6.142
INTER + INTRA:          -3.289
INTER:                  -3.289
INTRA:                   0.000
UNBOUND:                 0.000

$$$$
