
     RDKit          3D

 28 29  0  0  0  0  0  0  0  0999 V2000
   45.4135    3.4733   10.1765 Cl  0  0  0  0  0  0  0  0  0  0  0  0
   45.2969    5.1343   10.5241 C   0  0  0  0  0  0  0  0  0  0  0  0
   45.1453    5.1909    9.2443 N   0  0  0  0  0  0  0  0  0  0  0  0
   44.8658    3.8553   11.0153 N   0  0  0  0  0  0  0  0  0  0  0  0
   44.5850    3.9222    8.7547 C   0  0  2  0  0  0  0  0  0  0  0  0
   43.9294    3.3937    9.9741 C   0  0  0  0  0  0  0  0  0  0  0  0
   45.8488    6.0455   11.9946 S   0  0  0  0  0  0  0  0  0  0  0  0
   45.5898    3.0849    8.1230 C   0  0  0  0  0  0  0  0  0  0  0  0
   45.5065    3.5605   12.2797 C   0  0  0  0  0  0  0  0  0  0  0  0
   45.2758    4.7629   13.1860 C   0  0  0  0  0  0  0  0  0  0  0  0
   45.7661    1.7376    8.3092 C   0  0  0  0  0  0  0  0  0  0  0  0
   46.4779    3.6982    7.2303 C   0  0  0  0  0  0  0  0  0  0  0  0
   46.7626    1.0106    7.6577 C   0  0  0  0  0  0  0  0  0  0  0  0
   47.4615    3.0072    6.5807 C   0  0  0  0  0  0  0  0  0  0  0  0
   47.6120    1.6596    6.7885 C   0  0  0  0  0  0  0  0  0  0  0  0
   45.7719    3.0800    8.9111 H   0  0  0  0  0  0  0  0  0  0  0  0
   43.7760    4.2526    8.0436 H   0  0  0  0  0  0  0  0  0  0  0  0
   42.9752    3.9538   10.1374 H   0  0  0  0  0  0  0  0  0  0  0  0
   43.7888    2.3201   10.0502 H   0  0  0  0  0  0  0  0  0  0  0  0
   46.6020    3.5211   12.1089 H   0  0  0  0  0  0  0  0  0  0  0  0
   45.1017    2.6485   12.6997 H   0  0  0  0  0  0  0  0  0  0  0  0
   45.9248    4.7071   14.0497 H   0  0  0  0  0  0  0  0  0  0  0  0
   44.2089    4.8716   13.3831 H   0  0  0  0  0  0  0  0  0  0  0  0
   45.1167    1.2256    8.9773 H   0  0  0  0  0  0  0  0  0  0  0  0
   46.3916    4.7777    7.0353 H   0  0  0  0  0  0  0  0  0  0  0  0
   46.8555   -0.0567    7.8442 H   0  0  0  0  0  0  0  0  0  0  0  0
   48.1147    3.5387    5.9043 H   0  0  0  0  0  0  0  0  0  0  0  0
   48.4067    1.1178    6.2595 H   0  0  0  0  0  0  0  0  0  0  0  0
  3  2  2  0
  4  2  1  0
  5  3  1  0
  6  4  1  0
  7  2  1  0
  5  8  1  0
  9  4  1  0
 10  7  1  0
 11  8  2  0
 12  8  1  0
 13 11  1  0
 14 12  2  0
 15 13  2  0
 10  9  1  0
  6  5  1  0
 14 15  1  0
  1 16  1  0
  5 17  1  1
  6 18  1  0
  6 19  1  0
  9 20  1  0
  9 21  1  0
 10 22  1  0
 10 23  1  0
 11 24  1  0
 12 25  1  0
 13 26  1  0
 14 27  1  0
 15 28  1  0
M  END
> <Uni-Dock RESULT> 
ENERGY=   -6.171  LOWER_BOUND=    0.000  UPPER_BOUND=    0.000
INTER + INTRA:          -6.171
INTER:                  -6.171
INTRA:                   0.000
UNBOUND:                 0.000

$$$$

     RDKit          3D

 28 29  0  0  0  0  0  0  0  0999 V2000
   45.7639    3.6835    8.7287 Cl  0  0  0  0  0  0  0  0  0  0  0  0
   45.8807    2.0421    8.2982 C   0  0  0  0  0  0  0  0  0  0  0  0
   45.0721    1.9257    9.2964 N   0  0  0  0  0  0  0  0  0  0  0  0
   45.7540    3.3467    7.7109 N   0  0  0  0  0  0  0  0  0  0  0  0
   44.3140    3.1742    9.4688 C   0  0  2  0  0  0  0  0  0  0  0  0
   44.3988    3.7659    8.1128 C   0  0  0  0  0  0  0  0  0  0  0  0
   47.1475    1.1975    7.3085 S   0  0  0  0  0  0  0  0  0  0  0  0
   44.8126    3.9718   10.5755 C   0  0  0  0  0  0  0  0  0  0  0  0
   46.9641    3.6961    6.9969 C   0  0  0  0  0  0  0  0  0  0  0  0
   47.2735    2.5404    6.0540 C   0  0  0  0  0  0  0  0  0  0  0  0
   45.0363    5.3249   10.5726 C   0  0  0  0  0  0  0  0  0  0  0  0
   45.1001    3.3091   11.7755 C   0  0  0  0  0  0  0  0  0  0  0  0
   45.5194    6.0115   11.6868 C   0  0  0  0  0  0  0  0  0  0  0  0
   45.5739    3.9599   12.8795 C   0  0  0  0  0  0  0  0  0  0  0  0
   45.7873    5.3145   12.8446 C   0  0  0  0  0  0  0  0  0  0  0  0
   45.3863    4.0128   10.0068 H   0  0  0  0  0  0  0  0  0  0  0  0
   43.2568    2.8170    9.6239 H   0  0  0  0  0  0  0  0  0  0  0  0
   43.6884    3.2224    7.4413 H   0  0  0  0  0  0  0  0  0  0  0  0
   44.3006    4.8430    8.0218 H   0  0  0  0  0  0  0  0  0  0  0  0
   47.7995    3.7181    7.7266 H   0  0  0  0  0  0  0  0  0  0  0  0
   46.8285    4.6306    6.4673 H   0  0  0  0  0  0  0  0  0  0  0  0
   48.2815    2.6319    5.6723 H   0  0  0  0  0  0  0  0  0  0  0  0
   46.4774    2.4503    5.3142 H   0  0  0  0  0  0  0  0  0  0  0  0
   44.8331    5.8737    9.6851 H   0  0  0  0  0  0  0  0  0  0  0  0
   44.9430    2.2223   11.8458 H   0  0  0  0  0  0  0  0  0  0  0  0
   45.6778    7.0856   11.6266 H   0  0  0  0  0  0  0  0  0  0  0  0
   45.7763    3.3911   13.7752 H   0  0  0  0  0  0  0  0  0  0  0  0
   46.1683    5.8237   13.7394 H   0  0  0  0  0  0  0  0  0  0  0  0
  3  2  2  0
  4  2  1  0
  5  3  1  0
  6  4  1  0
  7  2  1  0
  5  8  1  0
  9  4  1  0
 10  7  1  0
 11  8  2  0
 12  8  1  0
 13 11  1  0
 14 12  2  0
 15 13  2  0
 10  9  1  0
  6  5  1  0
 14 15  1  0
  1 16  1  0
  5 17  1  1
  6 18  1  0
  6 19  1  0
  9 20  1  0
  9 21  1  0
 10 22  1  0
 10 23  1  0
 11 24  1  0
 12 25  1  0
 13 26  1  0
 14 27  1  0
 15 28  1  0
M  END
> <Uni-Dock RESULT> 
ENERGY=   -5.118  LOWER_BOUND=    2.164  UPPER_BOUND=    4.971
INTER + INTRA:          -5.118
INTER:                  -5.118
INTRA:                   0.000
UNBOUND:                 0.000

$$$$

     RDKit          3D

 28 29  0  0  0  0  0  0  0  0999 V2000
   45.6540    4.2403   12.2154 Cl  0  0  0  0  0  0  0  0  0  0  0  0
   46.2329    5.7623   12.7069 C   0  0  0  0  0  0  0  0  0  0  0  0
   45.5571    6.1343   11.6730 N   0  0  0  0  0  0  0  0  0  0  0  0
   45.6855    4.5470   13.2422 N   0  0  0  0  0  0  0  0  0  0  0  0
   44.4705    5.1760   11.4197 C   0  0  2  0  0  0  0  0  0  0  0  0
   44.2932    4.5634   12.7574 C   0  0  0  0  0  0  0  0  0  0  0  0
   47.6339    6.1682   13.7884 S   0  0  0  0  0  0  0  0  0  0  0  0
   44.7710    4.2839   10.3135 C   0  0  0  0  0  0  0  0  0  0  0  0
   46.6903    3.8366   14.0050 C   0  0  0  0  0  0  0  0  0  0  0  0
   47.2762    4.8288   15.0013 C   0  0  0  0  0  0  0  0  0  0  0  0
   44.5772    2.9266   10.2819 C   0  0  0  0  0  0  0  0  0  0  0  0
   45.3147    4.8492    9.1531 C   0  0  0  0  0  0  0  0  0  0  0  0
   44.8967    2.1452    9.1713 C   0  0  0  0  0  0  0  0  0  0  0  0
   45.6356    4.1045    8.0533 C   0  0  0  0  0  0  0  0  0  0  0  0
   45.4296    2.7483    8.0531 C   0  0  0  0  0  0  0  0  0  0  0  0
   45.2711    4.0620   10.9092 H   0  0  0  0  0  0  0  0  0  0  0  0
   43.5806    5.8382   11.2228 H   0  0  0  0  0  0  0  0  0  0  0  0
   43.7406    5.2846   13.4096 H   0  0  0  0  0  0  0  0  0  0  0  0
   43.8708    3.5648   12.8066 H   0  0  0  0  0  0  0  0  0  0  0  0
   47.5221    3.5758   13.3188 H   0  0  0  0  0  0  0  0  0  0  0  0
   46.2491    2.9779   14.4949 H   0  0  0  0  0  0  0  0  0  0  0  0
   48.1858    4.4309   15.4308 H   0  0  0  0  0  0  0  0  0  0  0  0
   46.5018    5.1425   15.7019 H   0  0  0  0  0  0  0  0  0  0  0  0
   44.1664    2.4498   11.1386 H   0  0  0  0  0  0  0  0  0  0  0  0
   45.4959    5.9337    9.1118 H   0  0  0  0  0  0  0  0  0  0  0  0
   44.7213    1.0725    9.2029 H   0  0  0  0  0  0  0  0  0  0  0  0
   46.0520    4.6007    7.1890 H   0  0  0  0  0  0  0  0  0  0  0  0
   45.6923    2.1631    7.1622 H   0  0  0  0  0  0  0  0  0  0  0  0
  3  2  2  0
  4  2  1  0
  5  3  1  0
  6  4  1  0
  7  2  1  0
  5  8  1  0
  9  4  1  0
 10  7  1  0
 11  8  2  0
 12  8  1  0
 13 11  1  0
 14 12  2  0
 15 13  2  0
 10  9  1  0
  6  5  1  0
 14 15  1  0
  1 16  1  0
  5 17  1  1
  6 18  1  0
  6 19  1  0
  9 20  1  0
  9 21  1  0
 10 22  1  0
 10 23  1  0
 11 24  1  0
 12 25  1  0
 13 26  1  0
 14 27  1  0
 15 28  1  0
M  END
> <Uni-Dock RESULT> 
ENERGY=   -4.855  LOWER_BOUND=    1.884  UPPER_BOUND=    2.599
INTER + INTRA:          -4.855
INTER:                  -4.855
INTRA:                   0.000
UNBOUND:                 0.000

$$$$

     RDKit          3D

 28 29  0  0  0  0  0  0  0  0999 V2000
   45.1684    4.7493   10.8210 Cl  0  0  0  0  0  0  0  0  0  0  0  0
   44.6273    3.1580   10.5597 C   0  0  0  0  0  0  0  0  0  0  0  0
   44.4536    3.2168   11.8366 N   0  0  0  0  0  0  0  0  0  0  0  0
   44.5485    4.4744    9.9906 N   0  0  0  0  0  0  0  0  0  0  0  0
   44.2377    4.6134   12.2439 C   0  0  2  0  0  0  0  0  0  0  0  0
   43.7542    5.2223   10.9823 C   0  0  0  0  0  0  0  0  0  0  0  0
   44.9377    2.0514    9.1539 S   0  0  0  0  0  0  0  0  0  0  0  0
   45.4193    5.1969   12.8546 C   0  0  0  0  0  0  0  0  0  0  0  0
   45.2563    4.5194    8.7284 C   0  0  0  0  0  0  0  0  0  0  0  0
   44.7299    3.3675    7.8821 C   0  0  0  0  0  0  0  0  0  0  0  0
   45.9418    6.4394   12.6013 C   0  0  0  0  0  0  0  0  0  0  0  0
   46.1085    4.4272   13.8003 C   0  0  0  0  0  0  0  0  0  0  0  0
   47.0866    6.9198   13.2374 C   0  0  0  0  0  0  0  0  0  0  0  0
   47.2315    4.8761   14.4362 C   0  0  0  0  0  0  0  0  0  0  0  0
   47.7293    6.1243   14.1605 C   0  0  0  0  0  0  0  0  0  0  0  0
   45.6043    5.1088   12.0721 H   0  0  0  0  0  0  0  0  0  0  0  0
   43.3636    4.5456   12.9515 H   0  0  0  0  0  0  0  0  0  0  0  0
   42.6887    4.9201   10.8258 H   0  0  0  0  0  0  0  0  0  0  0  0
   43.8983    6.2894   10.8457 H   0  0  0  0  0  0  0  0  0  0  0  0
   46.3226    4.2835    8.9238 H   0  0  0  0  0  0  0  0  0  0  0  0
   45.1068    5.4793    8.2505 H   0  0  0  0  0  0  0  0  0  0  0  0
   45.3795    3.2032    7.0329 H   0  0  0  0  0  0  0  0  0  0  0  0
   43.6733    3.5278    7.6649 H   0  0  0  0  0  0  0  0  0  0  0  0
   45.4546    7.0626   11.8911 H   0  0  0  0  0  0  0  0  0  0  0  0
   45.7425    3.4200   14.0504 H   0  0  0  0  0  0  0  0  0  0  0  0
   47.4558    7.9139   12.9966 H   0  0  0  0  0  0  0  0  0  0  0  0
   47.7172    4.2336   15.1558 H   0  0  0  0  0  0  0  0  0  0  0  0
   48.6324    6.4713   14.6793 H   0  0  0  0  0  0  0  0  0  0  0  0
  3  2  2  0
  4  2  1  0
  5  3  1  0
  6  4  1  0
  7  2  1  0
  5  8  1  0
  9  4  1  0
 10  7  1  0
 11  8  2  0
 12  8  1  0
 13 11  1  0
 14 12  2  0
 15 13  2  0
 10  9  1  0
  6  5  1  0
 14 15  1  0
  1 16  1  0
  5 17  1  1
  6 18  1  0
  6 19  1  0
  9 20  1  0
  9 21  1  0
 10 22  1  0
 10 23  1  0
 11 24  1  0
 12 25  1  0
 13 26  1  0
 14 27  1  0
 15 28  1  0
M  END
> <Uni-Dock RESULT> 
ENERGY=   -4.249  LOWER_BOUND=    2.263  UPPER_BOUND=    5.304
INTER + INTRA:          -4.249
INTER:                  -4.249
INTRA:                   0.000
UNBOUND:                 0.000

$$$$

     RDKit          3D

 28 29  0  0  0  0  0  0  0  0999 V2000
   44.2726    9.6762   10.4994 Cl  0  0  0  0  0  0  0  0  0  0  0  0
   45.0956    9.8737   11.9749 C   0  0  0  0  0  0  0  0  0  0  0  0
   44.9732   11.1163   11.6510 N   0  0  0  0  0  0  0  0  0  0  0  0
   44.0428    9.1022   11.3752 N   0  0  0  0  0  0  0  0  0  0  0  0
   43.7976   11.2894   10.7843 C   0  0  2  0  0  0  0  0  0  0  0  0
   42.9853   10.1023   11.1404 C   0  0  0  0  0  0  0  0  0  0  0  0
   46.0882    8.6749   12.9102 S   0  0  0  0  0  0  0  0  0  0  0  0
   44.1632   11.4515    9.3879 C   0  0  0  0  0  0  0  0  0  0  0  0
   44.4425    7.7160   11.2532 C   0  0  0  0  0  0  0  0  0  0  0  0
   44.9298    7.2713   12.6262 C   0  0  0  0  0  0  0  0  0  0  0  0
   43.5738   10.8384    8.3120 C   0  0  0  0  0  0  0  0  0  0  0  0
   45.2232   12.3174    9.0907 C   0  0  0  0  0  0  0  0  0  0  0  0
   43.9927   11.0538    6.9989 C   0  0  0  0  0  0  0  0  0  0  0  0
   45.6511   12.5442    7.8131 C   0  0  0  0  0  0  0  0  0  0  0  0
   45.0405   11.9153    6.7580 C   0  0  0  0  0  0  0  0  0  0  0  0
   44.3292   10.6797    9.5644 H   0  0  0  0  0  0  0  0  0  0  0  0
   43.2887   12.1976   11.2150 H   0  0  0  0  0  0  0  0  0  0  0  0
   42.4996   10.2864   12.1309 H   0  0  0  0  0  0  0  0  0  0  0  0
   42.2793    9.7308   10.4043 H   0  0  0  0  0  0  0  0  0  0  0  0
   45.3320    7.6718   10.5918 H   0  0  0  0  0  0  0  0  0  0  0  0
   43.6120    7.1176   10.9008 H   0  0  0  0  0  0  0  0  0  0  0  0
   45.4593    6.3314   12.5461 H   0  0  0  0  0  0  0  0  0  0  0  0
   44.1026    7.3069   13.3359 H   0  0  0  0  0  0  0  0  0  0  0  0
   42.7641   10.1716    8.4851 H   0  0  0  0  0  0  0  0  0  0  0  0
   45.7404   12.8419    9.9082 H   0  0  0  0  0  0  0  0  0  0  0  0
   43.4876   10.5398    6.1845 H   0  0  0  0  0  0  0  0  0  0  0  0
   46.4746   13.2240    7.6503 H   0  0  0  0  0  0  0  0  0  0  0  0
   45.3953   12.1074    5.7371 H   0  0  0  0  0  0  0  0  0  0  0  0
  3  2  2  0
  4  2  1  0
  5  3  1  0
  6  4  1  0
  7  2  1  0
  5  8  1  0
  9  4  1  0
 10  7  1  0
 11  8  2  0
 12  8  1  0
 13 11  1  0
 14 12  2  0
 15 13  2  0
 10  9  1  0
  6  5  1  0
 14 15  1  0
  1 16  1  0
  5 17  1  1
  6 18  1  0
  6 19  1  0
  9 20  1  0
  9 21  1  0
 10 22  1  0
 10 23  1  0
 11 24  1  0
 12 25  1  0
 13 26  1  0
 14 27  1  0
 15 28  1  0
M  END
> <Uni-Dock RESULT> 
ENERGY=   -3.294  LOWER_BOUND=    5.932  UPPER_BOUND=    7.444
INTER + INTRA:          -3.294
INTER:                  -3.294
INTRA:                   0.000
UNBOUND:                 0.000

$$$$

     RDKit          3D

 28 29  0  0  0  0  0  0  0  0999 V2000
   52.3541    4.3166   20.4569 Cl  0  0  0  0  0  0  0  0  0  0  0  0
   53.6752    4.0243   21.4878 C   0  0  0  0  0  0  0  0  0  0  0  0
   54.1945    3.6106   20.3819 N   0  0  0  0  0  0  0  0  0  0  0  0
   52.6608    5.0052   21.2193 N   0  0  0  0  0  0  0  0  0  0  0  0
   53.5568    4.2960   19.2476 C   0  0  2  0  0  0  0  0  0  0  0  0
   53.0395    5.5257   19.8928 C   0  0  0  0  0  0  0  0  0  0  0  0
   53.7123    3.8633   23.2961 S   0  0  0  0  0  0  0  0  0  0  0  0
   52.5960    3.4488   18.5629 C   0  0  0  0  0  0  0  0  0  0  0  0
   51.7224    5.0718   22.3197 C   0  0  0  0  0  0  0  0  0  0  0  0
   52.5407    5.2536   23.5916 C   0  0  0  0  0  0  0  0  0  0  0  0
   51.3394    3.8081   18.1470 C   0  0  0  0  0  0  0  0  0  0  0  0
   52.9731    2.1274   18.2917 C   0  0  0  0  0  0  0  0  0  0  0  0
   50.4800    2.9244   17.4940 C   0  0  0  0  0  0  0  0  0  0  0  0
   52.1489    1.2439   17.6537 C   0  0  0  0  0  0  0  0  0  0  0  0
   50.8973    1.6343   17.2500 C   0  0  0  0  0  0  0  0  0  0  0  0
   52.2598    3.6182   19.2788 H   0  0  0  0  0  0  0  0  0  0  0  0
   54.4289    4.5885   18.5970 H   0  0  0  0  0  0  0  0  0  0  0  0
   53.8944    6.2268   20.0614 H   0  0  0  0  0  0  0  0  0  0  0  0
   52.1912    6.0223   19.4325 H   0  0  0  0  0  0  0  0  0  0  0  0
   51.2357    4.0796   22.4170 H   0  0  0  0  0  0  0  0  0  0  0  0
   51.0223    5.8829   22.1648 H   0  0  0  0  0  0  0  0  0  0  0  0
   51.9224    5.0720   24.4604 H   0  0  0  0  0  0  0  0  0  0  0  0
   53.0632    6.2100   23.5554 H   0  0  0  0  0  0  0  0  0  0  0  0
   51.0062    4.8011   18.3293 H   0  0  0  0  0  0  0  0  0  0  0  0
   53.9688    1.7739   18.5988 H   0  0  0  0  0  0  0  0  0  0  0  0
   49.4940    3.2649   17.1868 H   0  0  0  0  0  0  0  0  0  0  0  0
   52.4992    0.2381   17.4741 H   0  0  0  0  0  0  0  0  0  0  0  0
   50.2464    0.9133   16.7386 H   0  0  0  0  0  0  0  0  0  0  0  0
  3  2  2  0
  4  2  1  0
  5  3  1  0
  6  4  1  0
  7  2  1  0
  5  8  1  0
  9  4  1  0
 10  7  1  0
 11  8  2  0
 12  8  1  0
 13 11  1  0
 14 12  2  0
 15 13  2  0
 10  9  1  0
  6  5  1  0
 14 15  1  0
  1 16  1  0
  5 17  1  1
  6 18  1  0
  6 19  1  0
  9 20  1  0
  9 21  1  0
 10 22  1  0
 10 23  1  0
 11 24  1  0
 12 25  1  0
 13 26  1  0
 14 27  1  0
 15 28  1  0
M  END
> <Uni-Dock RESULT> 
ENERGY=   -3.262  LOWER_BOUND=   10.972  UPPER_BOUND=   12.739
INTER + INTRA:          -3.262
INTER:                  -3.262
INTRA:                   0.000
UNBOUND:                 0.000

$$$$

     RDKit          3D

 28 29  0  0  0  0  0  0  0  0999 V2000
   52.9919    5.3400   17.2266 Cl  0  0  0  0  0  0  0  0  0  0  0  0
   52.0315    6.6091   16.6264 C   0  0  0  0  0  0  0  0  0  0  0  0
   51.1315    5.9900   17.3124 N   0  0  0  0  0  0  0  0  0  0  0  0
   53.3331    6.3552   17.1782 N   0  0  0  0  0  0  0  0  0  0  0  0
   51.7684    5.2489   18.4116 C   0  0  2  0  0  0  0  0  0  0  0  0
   53.0400    5.9917   18.5767 C   0  0  0  0  0  0  0  0  0  0  0  0
   52.3235    7.7032   15.2069 S   0  0  0  0  0  0  0  0  0  0  0  0
   51.8598    3.8259   18.1349 C   0  0  0  0  0  0  0  0  0  0  0  0
   54.3535    6.5522   16.1702 C   0  0  0  0  0  0  0  0  0  0  0  0
   54.1170    7.9283   15.5612 C   0  0  0  0  0  0  0  0  0  0  0  0
   52.9507    3.0210   18.3422 C   0  0  0  0  0  0  0  0  0  0  0  0
   50.7291    3.1945   17.6014 C   0  0  0  0  0  0  0  0  0  0  0  0
   52.9491    1.6579   18.0454 C   0  0  0  0  0  0  0  0  0  0  0  0
   50.7037    1.8614   17.3027 C   0  0  0  0  0  0  0  0  0  0  0  0
   51.8118    1.0830   17.5219 C   0  0  0  0  0  0  0  0  0  0  0  0
   52.3846    4.1764   17.6289 H   0  0  0  0  0  0  0  0  0  0  0  0
   51.1136    5.4845   19.2977 H   0  0  0  0  0  0  0  0  0  0  0  0
   52.8266    6.9495   19.1135 H   0  0  0  0  0  0  0  0  0  0  0  0
   53.8844    5.4634   19.0082 H   0  0  0  0  0  0  0  0  0  0  0  0
   54.1711    5.8274   15.3503 H   0  0  0  0  0  0  0  0  0  0  0  0
   55.3375    6.4650   16.6130 H   0  0  0  0  0  0  0  0  0  0  0  0
   54.6899    8.0347   14.6498 H   0  0  0  0  0  0  0  0  0  0  0  0
   54.2644    8.6944   16.3230 H   0  0  0  0  0  0  0  0  0  0  0  0
   53.8341    3.4531   18.7460 H   0  0  0  0  0  0  0  0  0  0  0  0
   49.8191    3.7828   17.4103 H   0  0  0  0  0  0  0  0  0  0  0  0
   53.8439    1.0685   18.2309 H   0  0  0  0  0  0  0  0  0  0  0  0
   49.8001    1.4343   16.8932 H   0  0  0  0  0  0  0  0  0  0  0  0
   51.7765    0.0135   17.2770 H   0  0  0  0  0  0  0  0  0  0  0  0
  3  2  2  0
  4  2  1  0
  5  3  1  0
  6  4  1  0
  7  2  1  0
  5  8  1  0
  9  4  1  0
 10  7  1  0
 11  8  2  0
 12  8  1  0
 13 11  1  0
 14 12  2  0
 15 13  2  0
 10  9  1  0
  6  5  1  0
 14 15  1  0
  1 16  1  0
  5 17  1  1
  6 18  1  0
  6 19  1  0
  9 20  1  0
  9 21  1  0
 10 22  1  0
 10 23  1  0
 11 24  1  0
 12 25  1  0
 13 26  1  0
 14 27  1  0
 15 28  1  0
M  END
> <Uni-Dock RESULT> 
ENERGY=   -3.186  LOWER_BOUND=    9.844  UPPER_BOUND=   10.957
INTER + INTRA:          -3.186
INTER:                  -3.186
INTRA:                   0.000
UNBOUND:                 0.000

$$$$
