
     RDKit          3D

 28 29  0  0  0  0  0  0  0  0999 V2000
   44.9703    4.1016   10.0082 Cl  0  0  0  0  0  0  0  0  0  0  0  0
   45.8453    2.1553    8.2426 C   0  0  0  0  0  0  0  0  0  0  0  0
   44.9349    2.3542    9.1071 N   0  0  0  0  0  0  0  0  0  0  0  0
   46.1609    3.3920    7.6090 N   0  0  0  0  0  0  0  0  0  0  0  0
   44.5513    3.7716    9.1306 C   0  0  2  0  0  0  0  0  0  0  0  0
   45.8006    4.4329    8.5909 C   0  0  0  0  0  0  0  0  0  0  0  0
   46.9560    0.9609    7.4348 S   0  0  0  0  0  0  0  0  0  0  0  0
   44.1970    4.2293   10.4781 C   0  0  0  0  0  0  0  0  0  0  0  0
   46.6966    3.1689    6.2808 C   0  0  0  0  0  0  0  0  0  0  0  0
   47.8954    2.2737    6.5378 C   0  0  0  0  0  0  0  0  0  0  0  0
   44.9891    3.8874   11.5517 C   0  0  0  0  0  0  0  0  0  0  0  0
   43.0730    5.0139   10.7507 C   0  0  0  0  0  0  0  0  0  0  0  0
   44.6901    4.3013   12.8541 C   0  0  0  0  0  0  0  0  0  0  0  0
   42.7630    5.4293   12.0191 C   0  0  0  0  0  0  0  0  0  0  0  0
   43.5575    5.0866   13.0965 C   0  0  0  0  0  0  0  0  0  0  0  0
   45.5841    3.7988    8.8105 H   0  0  0  0  0  0  0  0  0  0  0  0
   43.7283    3.9935    8.4271 H   0  0  0  0  0  0  0  0  0  0  0  0
   45.6136    5.3884    8.1080 H   0  0  0  0  0  0  0  0  0  0  0  0
   46.5922    4.5483    9.3578 H   0  0  0  0  0  0  0  0  0  0  0  0
   46.9436    4.0955    5.7832 H   0  0  0  0  0  0  0  0  0  0  0  0
   45.9820    2.5322    5.6990 H   0  0  0  0  0  0  0  0  0  0  0  0
   48.3467    1.8856    5.6189 H   0  0  0  0  0  0  0  0  0  0  0  0
   48.5737    2.8101    7.2130 H   0  0  0  0  0  0  0  0  0  0  0  0
   45.8656    3.2793   11.3617 H   0  0  0  0  0  0  0  0  0  0  0  0
   42.4229    5.3031    9.9210 H   0  0  0  0  0  0  0  0  0  0  0  0
   45.3356    4.0168   13.6937 H   0  0  0  0  0  0  0  0  0  0  0  0
   41.8810    6.0340   12.1667 H   0  0  0  0  0  0  0  0  0  0  0  0
   43.2932    5.4252   14.0853 H   0  0  0  0  0  0  0  0  0  0  0  0
  3  2  2  0
  4  2  1  0
  5  3  1  0
  6  4  1  0
  7  2  1  0
  5  8  1  0
  9  4  1  0
 10  7  1  0
 11  8  2  0
 12  8  1  0
 13 11  1  0
 14 12  2  0
 15 13  2  0
 10  9  1  0
  6  5  1  0
 14 15  1  0
  1 16  1  0
  5 17  1  1
  6 18  1  0
  6 19  1  0
  9 20  1  0
  9 21  1  0
 10 22  1  0
 10 23  1  0
 11 24  1  0
 12 25  1  0
 13 26  1  0
 14 27  1  0
 15 28  1  0
M  END
> <Uni-Dock RESULT> 
ENERGY=   -5.826  LOWER_BOUND=    0.000  UPPER_BOUND=    0.000
INTER + INTRA:          -5.826
INTER:                  -5.826
INTRA:                   0.000
UNBOUND:                 0.000

$$$$

     RDKit          3D

 28 29  0  0  0  0  0  0  0  0999 V2000
   45.5880    3.1877    9.2831 Cl  0  0  0  0  0  0  0  0  0  0  0  0
   43.4479    4.3105   10.6361 C   0  0  0  0  0  0  0  0  0  0  0  0
   43.7111    3.7119    9.5460 N   0  0  0  0  0  0  0  0  0  0  0  0
   44.3043    3.8090   11.6586 N   0  0  0  0  0  0  0  0  0  0  0  0
   44.7899    2.7355    9.7449 C   0  0  2  0  0  0  0  0  0  0  0  0
   45.4994    3.3093   10.9520 C   0  0  0  0  0  0  0  0  0  0  0  0
   42.4378    5.5587   11.4931 S   0  0  0  0  0  0  0  0  0  0  0  0
   45.6597    2.6210    8.5698 C   0  0  0  0  0  0  0  0  0  0  0  0
   43.6971    3.9706   12.9648 C   0  0  0  0  0  0  0  0  0  0  0  0
   43.4378    5.4643   13.0428 C   0  0  0  0  0  0  0  0  0  0  0  0
   46.0984    3.7562    7.9248 C   0  0  0  0  0  0  0  0  0  0  0  0
   46.0846    1.3967    8.0465 C   0  0  0  0  0  0  0  0  0  0  0  0
   46.9289    3.6950    6.8006 C   0  0  0  0  0  0  0  0  0  0  0  0
   46.8977    1.3157    6.9466 C   0  0  0  0  0  0  0  0  0  0  0  0
   47.3382    2.4543    6.2993 C   0  0  0  0  0  0  0  0  0  0  0  0
   44.9965    3.4899   10.4921 H   0  0  0  0  0  0  0  0  0  0  0  0
   44.4048    1.7394   10.0291 H   0  0  0  0  0  0  0  0  0  0  0  0
   46.0282    2.5645   11.5410 H   0  0  0  0  0  0  0  0  0  0  0  0
   46.1858    4.1400   10.6934 H   0  0  0  0  0  0  0  0  0  0  0  0
   44.3319    3.5968   13.7552 H   0  0  0  0  0  0  0  0  0  0  0  0
   42.6797    3.5023   12.9571 H   0  0  0  0  0  0  0  0  0  0  0  0
   42.8471    5.7528   13.9182 H   0  0  0  0  0  0  0  0  0  0  0  0
   44.4011    5.9766   12.9271 H   0  0  0  0  0  0  0  0  0  0  0  0
   45.7803    4.7158    8.3147 H   0  0  0  0  0  0  0  0  0  0  0  0
   45.7545    0.4761    8.5346 H   0  0  0  0  0  0  0  0  0  0  0  0
   47.2658    4.6125    6.3034 H   0  0  0  0  0  0  0  0  0  0  0  0
   47.1926    0.3407    6.5892 H   0  0  0  0  0  0  0  0  0  0  0  0
   47.9774    2.3654    5.4358 H   0  0  0  0  0  0  0  0  0  0  0  0
  3  2  2  0
  4  2  1  0
  5  3  1  0
  6  4  1  0
  7  2  1  0
  5  8  1  0
  9  4  1  0
 10  7  1  0
 11  8  2  0
 12  8  1  0
 13 11  1  0
 14 12  2  0
 15 13  2  0
 10  9  1  0
  6  5  1  0
 14 15  1  0
  1 16  1  0
  5 17  1  1
  6 18  1  0
  6 19  1  0
  9 20  1  0
  9 21  1  0
 10 22  1  0
 10 23  1  0
 11 24  1  0
 12 25  1  0
 13 26  1  0
 14 27  1  0
 15 28  1  0
M  END
> <Uni-Dock RESULT> 
ENERGY=   -5.278  LOWER_BOUND=    2.338  UPPER_BOUND=    5.514
INTER + INTRA:          -5.278
INTER:                  -5.278
INTRA:                   0.000
UNBOUND:                 0.000

$$$$

     RDKit          3D

 28 29  0  0  0  0  0  0  0  0999 V2000
   45.4085    5.4708   10.7918 Cl  0  0  0  0  0  0  0  0  0  0  0  0
   44.8689    8.0545   11.6311 C   0  0  0  0  0  0  0  0  0  0  0  0
   44.2657    7.0099   11.2302 N   0  0  0  0  0  0  0  0  0  0  0  0
   46.0297    7.6679   12.3615 N   0  0  0  0  0  0  0  0  0  0  0  0
   44.9837    5.8048   11.6651 C   0  0  2  0  0  0  0  0  0  0  0  0
   46.3899    6.3357   11.8391 C   0  0  0  0  0  0  0  0  0  0  0  0
   44.9106    9.8733   11.6859 S   0  0  0  0  0  0  0  0  0  0  0  0
   44.8979    4.7211   10.6808 C   0  0  0  0  0  0  0  0  0  0  0  0
   46.4053    8.6942   13.3136 C   0  0  0  0  0  0  0  0  0  0  0  0
   46.5951    9.9219   12.4412 C   0  0  0  0  0  0  0  0  0  0  0  0
   45.0933    4.9883    9.3439 C   0  0  0  0  0  0  0  0  0  0  0  0
   44.6223    3.3943   11.0231 C   0  0  0  0  0  0  0  0  0  0  0  0
   45.0210    3.9864    8.3702 C   0  0  0  0  0  0  0  0  0  0  0  0
   44.5473    2.3989   10.0844 C   0  0  0  0  0  0  0  0  0  0  0  0
   44.7433    2.6665    8.7430 C   0  0  0  0  0  0  0  0  0  0  0  0
   45.7683    6.5444   11.5797 H   0  0  0  0  0  0  0  0  0  0  0  0
   44.6398    5.4471   12.6526 H   0  0  0  0  0  0  0  0  0  0  0  0
   46.9820    5.7733   12.5561 H   0  0  0  0  0  0  0  0  0  0  0  0
   46.9402    6.4191   10.8807 H   0  0  0  0  0  0  0  0  0  0  0  0
   47.2851    8.4204   13.8778 H   0  0  0  0  0  0  0  0  0  0  0  0
   45.5233    8.9350   13.9607 H   0  0  0  0  0  0  0  0  0  0  0  0
   46.7484   10.8396   13.0183 H   0  0  0  0  0  0  0  0  0  0  0  0
   47.3705    9.6885   11.7010 H   0  0  0  0  0  0  0  0  0  0  0  0
   45.3082    6.0109    9.0574 H   0  0  0  0  0  0  0  0  0  0  0  0
   44.4620    3.1478   12.0758 H   0  0  0  0  0  0  0  0  0  0  0  0
   45.1802    4.2228    7.3113 H   0  0  0  0  0  0  0  0  0  0  0  0
   44.3310    1.3927   10.4104 H   0  0  0  0  0  0  0  0  0  0  0  0
   44.6793    1.8667    8.0230 H   0  0  0  0  0  0  0  0  0  0  0  0
  3  2  2  0
  4  2  1  0
  5  3  1  0
  6  4  1  0
  7  2  1  0
  5  8  1  0
  9  4  1  0
 10  7  1  0
 11  8  2  0
 12  8  1  0
 13 11  1  0
 14 12  2  0
 15 13  2  0
 10  9  1  0
  6  5  1  0
 14 15  1  0
  1 16  1  0
  5 17  1  1
  6 18  1  0
  6 19  1  0
  9 20  1  0
  9 21  1  0
 10 22  1  0
 10 23  1  0
 11 24  1  0
 12 25  1  0
 13 26  1  0
 14 27  1  0
 15 28  1  0
M  END
> <Uni-Dock RESULT> 
ENERGY=   -4.401  LOWER_BOUND=    4.134  UPPER_BOUND=    5.739
INTER + INTRA:          -4.401
INTER:                  -4.401
INTRA:                   0.000
UNBOUND:                 0.000

$$$$

     RDKit          3D

 28 29  0  0  0  0  0  0  0  0999 V2000
   45.4865    5.7026   11.9285 Cl  0  0  0  0  0  0  0  0  0  0  0  0
   45.6153    8.4406   12.3259 C   0  0  0  0  0  0  0  0  0  0  0  0
   44.7625    7.5208   12.1200 N   0  0  0  0  0  0  0  0  0  0  0  0
   46.6947    7.9092   13.0895 N   0  0  0  0  0  0  0  0  0  0  0  0
   45.2035    6.2647   12.7401 C   0  0  2  0  0  0  0  0  0  0  0  0
   46.7025    6.4634   12.7947 C   0  0  0  0  0  0  0  0  0  0  0  0
   46.0837   10.1806   12.0697 S   0  0  0  0  0  0  0  0  0  0  0  0
   44.8093    5.0895   11.9563 C   0  0  0  0  0  0  0  0  0  0  0  0
   47.3549    8.9547   13.8459 C   0  0  0  0  0  0  0  0  0  0  0  0
   47.7745    9.9442   12.7739 C   0  0  0  0  0  0  0  0  0  0  0  0
   44.9827    5.0836   10.5900 C   0  0  0  0  0  0  0  0  0  0  0  0
   44.2521    3.9405   12.5245 C   0  0  0  0  0  0  0  0  0  0  0  0
   44.6213    3.9852    9.8025 C   0  0  0  0  0  0  0  0  0  0  0  0
   43.8917    2.8546   11.7704 C   0  0  0  0  0  0  0  0  0  0  0  0
   44.0655    2.8482   10.3996 C   0  0  0  0  0  0  0  0  0  0  0  0
   46.1327    6.7707   12.5154 H   0  0  0  0  0  0  0  0  0  0  0  0
   44.8443    6.1635   13.7803 H   0  0  0  0  0  0  0  0  0  0  0  0
   47.1881    5.8981   13.5857 H   0  0  0  0  0  0  0  0  0  0  0  0
   47.1997    6.2570   11.8260 H   0  0  0  0  0  0  0  0  0  0  0  0
   48.1781    8.5720   14.4318 H   0  0  0  0  0  0  0  0  0  0  0  0
   46.5932    9.5009   14.4590 H   0  0  0  0  0  0  0  0  0  0  0  0
   48.1715   10.8787   13.1835 H   0  0  0  0  0  0  0  0  0  0  0  0
   48.4291    9.4156   12.0697 H   0  0  0  0  0  0  0  0  0  0  0  0
   45.4132    5.9649   10.1297 H   0  0  0  0  0  0  0  0  0  0  0  0
   44.1010    3.9123   13.6066 H   0  0  0  0  0  0  0  0  0  0  0  0
   44.7687    4.0031    8.7160 H   0  0  0  0  0  0  0  0  0  0  0  0
   43.4660    1.9957   12.2669 H   0  0  0  0  0  0  0  0  0  0  0  0
   43.7743    1.9821    9.8275 H   0  0  0  0  0  0  0  0  0  0  0  0
  3  2  2  0
  4  2  1  0
  5  3  1  0
  6  4  1  0
  7  2  1  0
  5  8  1  0
  9  4  1  0
 10  7  1  0
 11  8  2  0
 12  8  1  0
 13 11  1  0
 14 12  2  0
 15 13  2  0
 10  9  1  0
  6  5  1  0
 14 15  1  0
  1 16  1  0
  5 17  1  1
  6 18  1  0
  6 19  1  0
  9 20  1  0
  9 21  1  0
 10 22  1  0
 10 23  1  0
 11 24  1  0
 12 25  1  0
 13 26  1  0
 14 27  1  0
 15 28  1  0
M  END
> <Uni-Dock RESULT> 
ENERGY=   -3.872  LOWER_BOUND=    4.527  UPPER_BOUND=    5.938
INTER + INTRA:          -3.872
INTER:                  -3.872
INTRA:                   0.000
UNBOUND:                 0.000

$$$$

     RDKit          3D

 28 29  0  0  0  0  0  0  0  0999 V2000
   45.6401    6.0228   12.5195 Cl  0  0  0  0  0  0  0  0  0  0  0  0
   47.9133    6.8464   13.8705 C   0  0  0  0  0  0  0  0  0  0  0  0
   47.5139    5.9129   13.1058 N   0  0  0  0  0  0  0  0  0  0  0  0
   47.2385    8.0520   13.5216 N   0  0  0  0  0  0  0  0  0  0  0  0
   46.5147    6.4202   12.1565 C   0  0  2  0  0  0  0  0  0  0  0  0
   45.9715    7.6206   12.9005 C   0  0  0  0  0  0  0  0  0  0  0  0
   48.9914    7.3396   15.2515 S   0  0  0  0  0  0  0  0  0  0  0  0
   45.4847    5.4230   11.8478 C   0  0  0  0  0  0  0  0  0  0  0  0
   48.0268    9.2102   13.8934 C   0  0  0  0  0  0  0  0  0  0  0  0
   48.2376    9.0203   15.3847 C   0  0  0  0  0  0  0  0  0  0  0  0
   44.9118    4.6884   12.8621 C   0  0  0  0  0  0  0  0  0  0  0  0
   45.0336    5.1626   10.5508 C   0  0  0  0  0  0  0  0  0  0  0  0
   43.9262    3.7269   12.6146 C   0  0  0  0  0  0  0  0  0  0  0  0
   44.0695    4.2252   10.2877 C   0  0  0  0  0  0  0  0  0  0  0  0
   43.4944    3.4880   11.3051 C   0  0  0  0  0  0  0  0  0  0  0  0
   46.3931    7.0671   13.0148 H   0  0  0  0  0  0  0  0  0  0  0  0
   46.9756    6.7898   11.2224 H   0  0  0  0  0  0  0  0  0  0  0  0
   45.5651    8.3895   12.2487 H   0  0  0  0  0  0  0  0  0  0  0  0
   45.2231    7.3472   13.6707 H   0  0  0  0  0  0  0  0  0  0  0  0
   47.5316   10.1357   13.6378 H   0  0  0  0  0  0  0  0  0  0  0  0
   49.0488    9.1179   13.4446 H   0  0  0  0  0  0  0  0  0  0  0  0
   48.9407    9.7411   15.8145 H   0  0  0  0  0  0  0  0  0  0  0  0
   47.2490    8.9771   15.8585 H   0  0  0  0  0  0  0  0  0  0  0  0
   45.2476    4.8750   13.8753 H   0  0  0  0  0  0  0  0  0  0  0  0
   45.4676    5.7283    9.7223 H   0  0  0  0  0  0  0  0  0  0  0  0
   43.4842    3.1538   13.4385 H   0  0  0  0  0  0  0  0  0  0  0  0
   43.7621    4.0690    9.2647 H   0  0  0  0  0  0  0  0  0  0  0  0
   42.7376    2.7560   11.0736 H   0  0  0  0  0  0  0  0  0  0  0  0
  3  2  2  0
  4  2  1  0
  5  3  1  0
  6  4  1  0
  7  2  1  0
  5  8  1  0
  9  4  1  0
 10  7  1  0
 11  8  2  0
 12  8  1  0
 13 11  1  0
 14 12  2  0
 15 13  2  0
 10  9  1  0
  6  5  1  0
 14 15  1  0
  1 16  1  0
  5 17  1  1
  6 18  1  0
  6 19  1  0
  9 20  1  0
  9 21  1  0
 10 22  1  0
 10 23  1  0
 11 24  1  0
 12 25  1  0
 13 26  1  0
 14 27  1  0
 15 28  1  0
M  END
> <Uni-Dock RESULT> 
ENERGY=   -3.605  LOWER_BOUND=    4.706  UPPER_BOUND=    6.113
INTER + INTRA:          -3.605
INTER:                  -3.605
INTRA:                   0.000
UNBOUND:                 0.000

$$$$

     RDKit          3D

 28 29  0  0  0  0  0  0  0  0999 V2000
   46.6006    6.5763   12.6669 Cl  0  0  0  0  0  0  0  0  0  0  0  0
   44.6318    4.6435   12.4231 C   0  0  0  0  0  0  0  0  0  0  0  0
   45.0396    5.5271   13.2408 N   0  0  0  0  0  0  0  0  0  0  0  0
   44.8608    5.1018   11.0934 N   0  0  0  0  0  0  0  0  0  0  0  0
   45.5900    6.6804   12.5170 C   0  0  2  0  0  0  0  0  0  0  0  0
   45.9859    6.0506   11.1993 C   0  0  0  0  0  0  0  0  0  0  0  0
   43.8671    3.0083   12.1902 S   0  0  0  0  0  0  0  0  0  0  0  0
   46.7208    7.2916   13.2227 C   0  0  0  0  0  0  0  0  0  0  0  0
   43.9305    4.4855   10.1683 C   0  0  0  0  0  0  0  0  0  0  0  0
   44.1757    3.0009   10.3694 C   0  0  0  0  0  0  0  0  0  0  0  0
   47.7082    6.4958   13.7601 C   0  0  0  0  0  0  0  0  0  0  0  0
   46.8650    8.6717   13.3901 C   0  0  0  0  0  0  0  0  0  0  0  0
   48.8049    7.0349   14.4413 C   0  0  0  0  0  0  0  0  0  0  0  0
   47.9314    9.2190   14.0539 C   0  0  0  0  0  0  0  0  0  0  0  0
   48.9223    8.4210   14.5932 C   0  0  0  0  0  0  0  0  0  0  0  0
   45.7646    5.8553   11.8397 H   0  0  0  0  0  0  0  0  0  0  0  0
   44.8209    7.4442   12.3015 H   0  0  0  0  0  0  0  0  0  0  0  0
   45.9964    6.7505   10.3679 H   0  0  0  0  0  0  0  0  0  0  0  0
   46.9548    5.5153   11.2519 H   0  0  0  0  0  0  0  0  0  0  0  0
   44.0883    4.8195    9.1530 H   0  0  0  0  0  0  0  0  0  0  0  0
   42.8848    4.6558   10.5315 H   0  0  0  0  0  0  0  0  0  0  0  0
   43.4513    2.3706    9.8435 H   0  0  0  0  0  0  0  0  0  0  0  0
   45.2315    2.8038   10.1450 H   0  0  0  0  0  0  0  0  0  0  0  0
   47.6153    5.4229   13.6413 H   0  0  0  0  0  0  0  0  0  0  0  0
   46.0988    9.3319   12.9757 H   0  0  0  0  0  0  0  0  0  0  0  0
   49.5791    6.3815   14.8609 H   0  0  0  0  0  0  0  0  0  0  0  0
   47.9875   10.2927   14.1508 H   0  0  0  0  0  0  0  0  0  0  0  0
   49.7518    8.8747   15.1112 H   0  0  0  0  0  0  0  0  0  0  0  0
  3  2  2  0
  4  2  1  0
  5  3  1  0
  6  4  1  0
  7  2  1  0
  5  8  1  0
  9  4  1  0
 10  7  1  0
 11  8  2  0
 12  8  1  0
 13 11  1  0
 14 12  2  0
 15 13  2  0
 10  9  1  0
  6  5  1  0
 14 15  1  0
  1 16  1  0
  5 17  1  1
  6 18  1  0
  6 19  1  0
  9 20  1  0
  9 21  1  0
 10 22  1  0
 10 23  1  0
 11 24  1  0
 12 25  1  0
 13 26  1  0
 14 27  1  0
 15 28  1  0
M  END
> <Uni-Dock RESULT> 
ENERGY=   -3.594  LOWER_BOUND=    4.148  UPPER_BOUND=    5.142
INTER + INTRA:          -3.594
INTER:                  -3.594
INTRA:                   0.000
UNBOUND:                 0.000

$$$$

     RDKit          3D

 28 29  0  0  0  0  0  0  0  0999 V2000
   45.7298    6.8192   12.1444 Cl  0  0  0  0  0  0  0  0  0  0  0  0
   47.0160    9.2022   12.7256 C   0  0  0  0  0  0  0  0  0  0  0  0
   46.0435    8.4910   13.1309 N   0  0  0  0  0  0  0  0  0  0  0  0
   48.0404    8.3459   12.2276 N   0  0  0  0  0  0  0  0  0  0  0  0
   46.3354    7.0649   12.9365 C   0  0  2  0  0  0  0  0  0  0  0  0
   47.3454    7.1129   11.8108 C   0  0  0  0  0  0  0  0  0  0  0  0
   47.6983   10.8731   12.4904 S   0  0  0  0  0  0  0  0  0  0  0  0
   45.1355    6.2931   12.5974 C   0  0  0  0  0  0  0  0  0  0  0  0
   49.3373    8.9869   12.3181 C   0  0  0  0  0  0  0  0  0  0  0  0
   49.1475   10.2647   11.5209 C   0  0  0  0  0  0  0  0  0  0  0  0
   44.2494    6.7748   11.6594 C   0  0  0  0  0  0  0  0  0  0  0  0
   44.8242    5.0627   13.1829 C   0  0  0  0  0  0  0  0  0  0  0  0
   43.0923    6.0729   11.3047 C   0  0  0  0  0  0  0  0  0  0  0  0
   43.6961    4.3602   12.8491 C   0  0  0  0  0  0  0  0  0  0  0  0
   42.8069    4.8430   11.9081 C   0  0  0  0  0  0  0  0  0  0  0  0
   46.9032    7.5443   12.1505 H   0  0  0  0  0  0  0  0  0  0  0  0
   46.8376    6.6178   13.8136 H   0  0  0  0  0  0  0  0  0  0  0  0
   48.0203    6.2611   11.7948 H   0  0  0  0  0  0  0  0  0  0  0  0
   46.8748    7.2379   10.8153 H   0  0  0  0  0  0  0  0  0  0  0  0
   50.1286    8.3536   11.9441 H   0  0  0  0  0  0  0  0  0  0  0  0
   49.5054    9.3278   13.3717 H   0  0  0  0  0  0  0  0  0  0  0  0
   49.9974   10.9503   11.5991 H   0  0  0  0  0  0  0  0  0  0  0  0
   48.8547    9.9818   10.5020 H   0  0  0  0  0  0  0  0  0  0  0  0
   44.4724    7.7272   11.1934 H   0  0  0  0  0  0  0  0  0  0  0  0
   45.5065    4.6518   13.9314 H   0  0  0  0  0  0  0  0  0  0  0  0
   42.4011    6.4762   10.5550 H   0  0  0  0  0  0  0  0  0  0  0  0
   43.5097    3.4149   13.3361 H   0  0  0  0  0  0  0  0  0  0  0  0
   41.9260    4.2723   11.6620 H   0  0  0  0  0  0  0  0  0  0  0  0
  3  2  2  0
  4  2  1  0
  5  3  1  0
  6  4  1  0
  7  2  1  0
  5  8  1  0
  9  4  1  0
 10  7  1  0
 11  8  2  0
 12  8  1  0
 13 11  1  0
 14 12  2  0
 15 13  2  0
 10  9  1  0
  6  5  1  0
 14 15  1  0
  1 16  1  0
  5 17  1  1
  6 18  1  0
  6 19  1  0
  9 20  1  0
  9 21  1  0
 10 22  1  0
 10 23  1  0
 11 24  1  0
 12 25  1  0
 13 26  1  0
 14 27  1  0
 15 28  1  0
M  END
> <Uni-Dock RESULT> 
ENERGY=   -3.542  LOWER_BOUND=    5.226  UPPER_BOUND=    6.158
INTER + INTRA:          -3.542
INTER:                  -3.542
INTRA:                   0.000
UNBOUND:                 0.000

$$$$

     RDKit          3D

 28 29  0  0  0  0  0  0  0  0999 V2000
   44.4810    7.3591   11.7353 Cl  0  0  0  0  0  0  0  0  0  0  0  0
   44.7349    4.7963   10.7161 C   0  0  0  0  0  0  0  0  0  0  0  0
   45.1558    5.9778   10.5091 N   0  0  0  0  0  0  0  0  0  0  0  0
   44.5321    4.6150   12.1148 N   0  0  0  0  0  0  0  0  0  0  0  0
   45.2748    6.7089   11.7772 C   0  0  2  0  0  0  0  0  0  0  0  0
   44.2842    5.9680   12.6486 C   0  0  0  0  0  0  0  0  0  0  0  0
   44.2614    3.1914    9.9998 S   0  0  0  0  0  0  0  0  0  0  0  0
   44.9559    8.1327   11.6300 C   0  0  0  0  0  0  0  0  0  0  0  0
   44.6451    3.2155   12.4749 C   0  0  0  0  0  0  0  0  0  0  0  0
   43.5999    2.5480   11.5995 C   0  0  0  0  0  0  0  0  0  0  0  0
   43.8475    8.5190   10.9095 C   0  0  0  0  0  0  0  0  0  0  0  0
   45.7283    9.1536   12.1911 C   0  0  0  0  0  0  0  0  0  0  0  0
   43.5048    9.8651   10.7429 C   0  0  0  0  0  0  0  0  0  0  0  0
   45.4094   10.4775   12.0393 C   0  0  0  0  0  0  0  0  0  0  0  0
   44.2974   10.8655   11.3165 C   0  0  0  0  0  0  0  0  0  0  0  0
   44.4814    6.0002   11.9724 H   0  0  0  0  0  0  0  0  0  0  0  0
   46.2734    6.5903   12.2358 H   0  0  0  0  0  0  0  0  0  0  0  0
   44.5102    6.0252   13.7101 H   0  0  0  0  0  0  0  0  0  0  0  0
   43.2361    6.2808   12.4704 H   0  0  0  0  0  0  0  0  0  0  0  0
   44.4934    3.0564   13.5327 H   0  0  0  0  0  0  0  0  0  0  0  0
   45.6253    2.8194   12.1051 H   0  0  0  0  0  0  0  0  0  0  0  0
   43.6412    1.4547   11.6386 H   0  0  0  0  0  0  0  0  0  0  0  0
   42.6280    2.9977   11.8384 H   0  0  0  0  0  0  0  0  0  0  0  0
   43.2352    7.7427   10.4662 H   0  0  0  0  0  0  0  0  0  0  0  0
   46.6150    8.8815   12.7692 H   0  0  0  0  0  0  0  0  0  0  0  0
   42.6172   10.1490   10.1648 H   0  0  0  0  0  0  0  0  0  0  0  0
   46.0450   11.2207   12.4966 H   0  0  0  0  0  0  0  0  0  0  0  0
   44.0668   11.9133   11.2109 H   0  0  0  0  0  0  0  0  0  0  0  0
  3  2  2  0
  4  2  1  0
  5  3  1  0
  6  4  1  0
  7  2  1  0
  5  8  1  0
  9  4  1  0
 10  7  1  0
 11  8  2  0
 12  8  1  0
 13 11  1  0
 14 12  2  0
 15 13  2  0
 10  9  1  0
  6  5  1  0
 14 15  1  0
  1 16  1  0
  5 17  1  1
  6 18  1  0
  6 19  1  0
  9 20  1  0
  9 21  1  0
 10 22  1  0
 10 23  1  0
 11 24  1  0
 12 25  1  0
 13 26  1  0
 14 27  1  0
 15 28  1  0
M  END
> <Uni-Dock RESULT> 
ENERGY=   -3.510  LOWER_BOUND=    3.739  UPPER_BOUND=    5.057
INTER + INTRA:          -3.510
INTER:                  -3.510
INTRA:                   0.000
UNBOUND:                 0.000

$$$$

     RDKit          3D

 28 29  0  0  0  0  0  0  0  0999 V2000
   47.0368    7.4688   12.4962 Cl  0  0  0  0  0  0  0  0  0  0  0  0
   44.7018    6.2486   11.6419 C   0  0  0  0  0  0  0  0  0  0  0  0
   45.6569    6.9566   11.1923 N   0  0  0  0  0  0  0  0  0  0  0  0
   45.1982    5.4038   12.6765 N   0  0  0  0  0  0  0  0  0  0  0  0
   46.9048    6.6429   11.9003 C   0  0  2  0  0  0  0  0  0  0  0  0
   46.3811    6.1037   13.2135 C   0  0  0  0  0  0  0  0  0  0  0  0
   42.9339    5.8253   11.5504 S   0  0  0  0  0  0  0  0  0  0  0  0
   47.7615    7.8217   12.0656 C   0  0  0  0  0  0  0  0  0  0  0  0
   44.3825    4.2126   12.8052 C   0  0  0  0  0  0  0  0  0  0  0  0
   42.9949    4.7706   13.0651 C   0  0  0  0  0  0  0  0  0  0  0  0
   47.2157    9.0168   12.4789 C   0  0  0  0  0  0  0  0  0  0  0  0
   49.1379    7.8094   11.8232 C   0  0  0  0  0  0  0  0  0  0  0  0
   47.9943   10.1665   12.6500 C   0  0  0  0  0  0  0  0  0  0  0  0
   49.9174    8.9246   11.9849 C   0  0  0  0  0  0  0  0  0  0  0  0
   49.3704   10.1238   12.3996 C   0  0  0  0  0  0  0  0  0  0  0  0
   46.1411    6.4290   12.6358 H   0  0  0  0  0  0  0  0  0  0  0  0
   47.4704    5.8299   11.4099 H   0  0  0  0  0  0  0  0  0  0  0  0
   47.0632    5.4144   13.7041 H   0  0  0  0  0  0  0  0  0  0  0  0
   46.0838    6.9043   13.9197 H   0  0  0  0  0  0  0  0  0  0  0  0
   44.7422    3.5583   13.5861 H   0  0  0  0  0  0  0  0  0  0  0  0
   44.3078    3.7094   11.8074 H   0  0  0  0  0  0  0  0  0  0  0  0
   42.2136    4.0037   13.0502 H   0  0  0  0  0  0  0  0  0  0  0  0
   43.0461    5.3821   13.9746 H   0  0  0  0  0  0  0  0  0  0  0  0
   46.1501    9.0476   12.6722 H   0  0  0  0  0  0  0  0  0  0  0  0
   49.6030    6.8768   11.4939 H   0  0  0  0  0  0  0  0  0  0  0  0
   47.5377   11.1073   12.9801 H   0  0  0  0  0  0  0  0  0  0  0  0
   50.9753    8.8528   11.7821 H   0  0  0  0  0  0  0  0  0  0  0  0
   50.0039   10.9878   12.5198 H   0  0  0  0  0  0  0  0  0  0  0  0
  3  2  2  0
  4  2  1  0
  5  3  1  0
  6  4  1  0
  7  2  1  0
  5  8  1  0
  9  4  1  0
 10  7  1  0
 11  8  2  0
 12  8  1  0
 13 11  1  0
 14 12  2  0
 15 13  2  0
 10  9  1  0
  6  5  1  0
 14 15  1  0
  1 16  1  0
  5 17  1  1
  6 18  1  0
  6 19  1  0
  9 20  1  0
  9 21  1  0
 10 22  1  0
 10 23  1  0
 11 24  1  0
 12 25  1  0
 13 26  1  0
 14 27  1  0
 15 28  1  0
M  END
> <Uni-Dock RESULT> 
ENERGY=   -3.308  LOWER_BOUND=    5.053  UPPER_BOUND=    6.362
INTER + INTRA:          -3.308
INTER:                  -3.308
INTRA:                   0.000
UNBOUND:                 0.000

$$$$
