
     RDKit          3D

 28 29  0  0  0  0  0  0  0  0999 V2000
   45.1861    3.9541    9.8374 Cl  0  0  0  0  0  0  0  0  0  0  0  0
   45.9413    2.0274    8.1006 C   0  0  0  0  0  0  0  0  0  0  0  0
   45.0315    2.1757    8.9924 N   0  0  0  0  0  0  0  0  0  0  0  0
   46.1488    3.2121    7.3466 N   0  0  0  0  0  0  0  0  0  0  0  0
   44.5060    3.5043    8.9458 C   0  0  2  0  0  0  0  0  0  0  0  0
   45.5250    4.2663    8.1667 C   0  0  0  0  0  0  0  0  0  0  0  0
   47.1145    0.8290    7.4085 S   0  0  0  0  0  0  0  0  0  0  0  0
   44.3230    3.9801   10.3388 C   0  0  0  0  0  0  0  0  0  0  0  0
   46.8485    2.9712    6.1290 C   0  0  0  0  0  0  0  0  0  0  0  0
   48.0428    2.0982    6.4498 C   0  0  0  0  0  0  0  0  0  0  0  0
   44.7018    5.2298   10.7746 C   0  0  0  0  0  0  0  0  0  0  0  0
   43.7344    3.1078   11.2510 C   0  0  0  0  0  0  0  0  0  0  0  0
   44.5202    5.6549   12.0870 C   0  0  0  0  0  0  0  0  0  0  0  0
   43.5456    3.5061   12.5508 C   0  0  0  0  0  0  0  0  0  0  0  0
   43.9343    4.7681   12.9668 C   0  0  0  0  0  0  0  0  0  0  0  0
   45.7906    3.4255    8.7184 H   0  0  0  0  0  0  0  0  0  0  0  0
   43.5202    3.4346    8.4109 H   0  0  0  0  0  0  0  0  0  0  0  0
   46.2628    4.7726    8.7904 H   0  0  0  0  0  0  0  0  0  0  0  0
   44.9835    4.9871    7.5092 H   0  0  0  0  0  0  0  0  0  0  0  0
   46.2350    2.4156    5.3914 H   0  0  0  0  0  0  0  0  0  0  0  0
   47.2551    3.9194    5.7419 H   0  0  0  0  0  0  0  0  0  0  0  0
   48.4873    1.6707    5.5584 H   0  0  0  0  0  0  0  0  0  0  0  0
   48.7311    2.5689    7.1683 H   0  0  0  0  0  0  0  0  0  0  0  0
   45.1587    5.9120   10.0737 H   0  0  0  0  0  0  0  0  0  0  0  0
   43.4200    2.1092   10.9471 H   0  0  0  0  0  0  0  0  0  0  0  0
   44.8427    6.6454   12.3485 H   0  0  0  0  0  0  0  0  0  0  0  0
   43.0816    2.8001   13.2423 H   0  0  0  0  0  0  0  0  0  0  0  0
   43.7767    5.0598   13.9914 H   0  0  0  0  0  0  0  0  0  0  0  0
  3  2  2  0
  4  2  1  0
  5  3  1  0
  6  4  1  0
  7  2  1  0
  5  8  1  0
  9  4  1  0
 10  7  1  0
 11  8  2  0
 12  8  1  0
 13 11  1  0
 14 12  2  0
 15 13  2  0
 10  9  1  0
  6  5  1  0
 14 15  1  0
  1 16  1  0
  5 17  1  6
  6 18  1  0
  6 19  1  0
  9 20  1  0
  9 21  1  0
 10 22  1  0
 10 23  1  0
 11 24  1  0
 12 25  1  0
 13 26  1  0
 14 27  1  0
 15 28  1  0
M  END
> <Uni-Dock RESULT> 
ENERGY=   -6.012  LOWER_BOUND=    0.000  UPPER_BOUND=    0.000
INTER + INTRA:          -6.012
INTER:                  -6.012
INTRA:                   0.000
UNBOUND:                 0.000

$$$$

     RDKit          3D

 28 29  0  0  0  0  0  0  0  0999 V2000
   45.7528    5.0264   13.6497 Cl  0  0  0  0  0  0  0  0  0  0  0  0
   47.3638    4.1010   15.6112 C   0  0  0  0  0  0  0  0  0  0  0  0
   46.8100    3.6260   14.5563 N   0  0  0  0  0  0  0  0  0  0  0  0
   47.8584    5.4161   15.4093 N   0  0  0  0  0  0  0  0  0  0  0  0
   46.8660    4.5827   13.4957 C   0  0  2  0  0  0  0  0  0  0  0  0
   47.1683    5.8693   14.1881 C   0  0  0  0  0  0  0  0  0  0  0  0
   47.7708    3.7152   17.3367 S   0  0  0  0  0  0  0  0  0  0  0  0
   45.5641    4.5644   12.7850 C   0  0  0  0  0  0  0  0  0  0  0  0
   48.7977    5.8074   16.4067 C   0  0  0  0  0  0  0  0  0  0  0  0
   48.2098    5.4539   17.7560 C   0  0  0  0  0  0  0  0  0  0  0  0
   44.8803    5.7004   12.4150 C   0  0  0  0  0  0  0  0  0  0  0  0
   45.0089    3.3245   12.4785 C   0  0  0  0  0  0  0  0  0  0  0  0
   43.6596    5.6591   11.7486 C   0  0  0  0  0  0  0  0  0  0  0  0
   43.8055    3.2600   11.8215 C   0  0  0  0  0  0  0  0  0  0  0  0
   43.1355    4.4160   11.4589 C   0  0  0  0  0  0  0  0  0  0  0  0
   46.6659    5.1017   14.6783 H   0  0  0  0  0  0  0  0  0  0  0  0
   47.6998    4.2533   12.8180 H   0  0  0  0  0  0  0  0  0  0  0  0
   46.2802    6.4551   14.4284 H   0  0  0  0  0  0  0  0  0  0  0  0
   47.8751    6.4455   13.5451 H   0  0  0  0  0  0  0  0  0  0  0  0
   49.7575    5.2590   16.3222 H   0  0  0  0  0  0  0  0  0  0  0  0
   48.9119    6.9034   16.3979 H   0  0  0  0  0  0  0  0  0  0  0  0
   48.9500    5.4930   18.5469 H   0  0  0  0  0  0  0  0  0  0  0  0
   47.2535    5.9639   17.9484 H   0  0  0  0  0  0  0  0  0  0  0  0
   45.3039    6.6655   12.6488 H   0  0  0  0  0  0  0  0  0  0  0  0
   45.5176    2.4004   12.7536 H   0  0  0  0  0  0  0  0  0  0  0  0
   43.1887    6.5904   11.4942 H   0  0  0  0  0  0  0  0  0  0  0  0
   43.3959    2.2738   11.5951 H   0  0  0  0  0  0  0  0  0  0  0  0
   42.1926    4.3421   10.9441 H   0  0  0  0  0  0  0  0  0  0  0  0
  3  2  2  0
  4  2  1  0
  5  3  1  0
  6  4  1  0
  7  2  1  0
  5  8  1  0
  9  4  1  0
 10  7  1  0
 11  8  2  0
 12  8  1  0
 13 11  1  0
 14 12  2  0
 15 13  2  0
 10  9  1  0
  6  5  1  0
 14 15  1  0
  1 16  1  0
  5 17  1  6
  6 18  1  0
  6 19  1  0
  9 20  1  0
  9 21  1  0
 10 22  1  0
 10 23  1  0
 11 24  1  0
 12 25  1  0
 13 26  1  0
 14 27  1  0
 15 28  1  0
M  END
> <Uni-Dock RESULT> 
ENERGY=   -3.943  LOWER_BOUND=    4.862  UPPER_BOUND=    6.528
INTER + INTRA:          -3.943
INTER:                  -3.943
INTRA:                   0.000
UNBOUND:                 0.000

$$$$

     RDKit          3D

 28 29  0  0  0  0  0  0  0  0999 V2000
   46.8992    7.2491   12.2809 Cl  0  0  0  0  0  0  0  0  0  0  0  0
   45.5825    4.9038   12.5359 C   0  0  0  0  0  0  0  0  0  0  0  0
   46.7248    5.3751   12.8795 N   0  0  0  0  0  0  0  0  0  0  0  0
   44.5410    5.8543   12.6994 N   0  0  0  0  0  0  0  0  0  0  0  0
   46.5879    6.7265   13.3248 C   0  0  2  0  0  0  0  0  0  0  0  0
   45.2514    7.1414   12.8073 C   0  0  0  0  0  0  0  0  0  0  0  0
   44.7575    3.4220   11.8914 S   0  0  0  0  0  0  0  0  0  0  0  0
   47.7226    7.5118   12.7806 C   0  0  0  0  0  0  0  0  0  0  0  0
   43.2482    5.2554   12.7021 C   0  0  0  0  0  0  0  0  0  0  0  0
   43.1806    4.3016   11.5287 C   0  0  0  0  0  0  0  0  0  0  0  0
   47.5843    8.7540   12.2039 C   0  0  0  0  0  0  0  0  0  0  0  0
   48.9962    6.9541   12.8614 C   0  0  0  0  0  0  0  0  0  0  0  0
   48.6638    9.4728   11.6998 C   0  0  0  0  0  0  0  0  0  0  0  0
   50.0755    7.6454   12.3705 C   0  0  0  0  0  0  0  0  0  0  0  0
   49.9126    8.8938   11.7946 C   0  0  0  0  0  0  0  0  0  0  0  0
   45.8092    6.4081   12.3246 H   0  0  0  0  0  0  0  0  0  0  0  0
   46.6224    6.6933   14.4475 H   0  0  0  0  0  0  0  0  0  0  0  0
   45.2951    7.6524   11.8447 H   0  0  0  0  0  0  0  0  0  0  0  0
   44.7664    7.7778   13.5850 H   0  0  0  0  0  0  0  0  0  0  0  0
   43.0626    4.6538   13.6147 H   0  0  0  0  0  0  0  0  0  0  0  0
   42.4827    6.0263   12.5171 H   0  0  0  0  0  0  0  0  0  0  0  0
   42.3316    3.6310   11.5959 H   0  0  0  0  0  0  0  0  0  0  0  0
   43.3368    4.8060   10.5629 H   0  0  0  0  0  0  0  0  0  0  0  0
   46.6004    9.1933   12.1375 H   0  0  0  0  0  0  0  0  0  0  0  0
   49.1496    5.9726   13.3105 H   0  0  0  0  0  0  0  0  0  0  0  0
   48.4731   10.4361   11.2649 H   0  0  0  0  0  0  0  0  0  0  0  0
   51.0610    7.1821   12.4483 H   0  0  0  0  0  0  0  0  0  0  0  0
   50.7733    9.4185   11.4158 H   0  0  0  0  0  0  0  0  0  0  0  0
  3  2  2  0
  4  2  1  0
  5  3  1  0
  6  4  1  0
  7  2  1  0
  5  8  1  0
  9  4  1  0
 10  7  1  0
 11  8  2  0
 12  8  1  0
 13 11  1  0
 14 12  2  0
 15 13  2  0
 10  9  1  0
  6  5  1  0
 14 15  1  0
  1 16  1  0
  5 17  1  6
  6 18  1  0
  6 19  1  0
  9 20  1  0
  9 21  1  0
 10 22  1  0
 10 23  1  0
 11 24  1  0
 12 25  1  0
 13 26  1  0
 14 27  1  0
 15 28  1  0
M  END
> <Uni-Dock RESULT> 
ENERGY=   -3.655  LOWER_BOUND=    4.355  UPPER_BOUND=    6.163
INTER + INTRA:          -3.655
INTER:                  -3.655
INTRA:                   0.000
UNBOUND:                 0.000

$$$$

     RDKit          3D

 28 29  0  0  0  0  0  0  0  0999 V2000
   45.7745    5.2076   11.4638 Cl  0  0  0  0  0  0  0  0  0  0  0  0
   47.6125    7.1313   11.9327 C   0  0  0  0  0  0  0  0  0  0  0  0
   46.9150    6.7303   10.9338 N   0  0  0  0  0  0  0  0  0  0  0  0
   46.8687    7.1231   13.1416 N   0  0  0  0  0  0  0  0  0  0  0  0
   45.5912    6.3971   11.3577 C   0  0  2  0  0  0  0  0  0  0  0  0
   45.7120    6.2611   12.8386 C   0  0  0  0  0  0  0  0  0  0  0  0
   49.2584    7.7286   12.4080 S   0  0  0  0  0  0  0  0  0  0  0  0
   45.1808    5.1524   10.6629 C   0  0  0  0  0  0  0  0  0  0  0  0
   47.4740    7.9112   14.1627 C   0  0  0  0  0  0  0  0  0  0  0  0
   48.9428    7.5490   14.2134 C   0  0  0  0  0  0  0  0  0  0  0  0
   44.5593    4.0969   11.2911 C   0  0  0  0  0  0  0  0  0  0  0  0
   45.4427    5.0537    9.2987 C   0  0  0  0  0  0  0  0  0  0  0  0
   44.1831    2.9383   10.6187 C   0  0  0  0  0  0  0  0  0  0  0  0
   45.0803    3.9199    8.6153 C   0  0  0  0  0  0  0  0  0  0  0  0
   44.4559    2.8706    9.2678 C   0  0  0  0  0  0  0  0  0  0  0  0
   46.5258    6.0836   12.2157 H   0  0  0  0  0  0  0  0  0  0  0  0
   44.9376    7.2605   11.0575 H   0  0  0  0  0  0  0  0  0  0  0  0
   45.8830    5.2363   13.1706 H   0  0  0  0  0  0  0  0  0  0  0  0
   44.7896    6.6897   13.2974 H   0  0  0  0  0  0  0  0  0  0  0  0
   47.4195    8.9973   13.9469 H   0  0  0  0  0  0  0  0  0  0  0  0
   47.0540    7.6331   15.1428 H   0  0  0  0  0  0  0  0  0  0  0  0
   49.5204    8.2648   14.7869 H   0  0  0  0  0  0  0  0  0  0  0  0
   49.1093    6.4847   14.4400 H   0  0  0  0  0  0  0  0  0  0  0  0
   44.3527    4.1656   12.3485 H   0  0  0  0  0  0  0  0  0  0  0  0
   45.9332    5.8666    8.7630 H   0  0  0  0  0  0  0  0  0  0  0  0
   43.7022    2.1593   11.1804 H   0  0  0  0  0  0  0  0  0  0  0  0
   45.2988    3.8722    7.5467 H   0  0  0  0  0  0  0  0  0  0  0  0
   44.1802    1.9904    8.7121 H   0  0  0  0  0  0  0  0  0  0  0  0
  3  2  2  0
  4  2  1  0
  5  3  1  0
  6  4  1  0
  7  2  1  0
  5  8  1  0
  9  4  1  0
 10  7  1  0
 11  8  2  0
 12  8  1  0
 13 11  1  0
 14 12  2  0
 15 13  2  0
 10  9  1  0
  6  5  1  0
 14 15  1  0
  1 16  1  0
  5 17  1  6
  6 18  1  0
  6 19  1  0
  9 20  1  0
  9 21  1  0
 10 22  1  0
 10 23  1  0
 11 24  1  0
 12 25  1  0
 13 26  1  0
 14 27  1  0
 15 28  1  0
M  END
> <Uni-Dock RESULT> 
ENERGY=   -3.566  LOWER_BOUND=    3.826  UPPER_BOUND=    5.678
INTER + INTRA:          -3.566
INTER:                  -3.566
INTRA:                   0.000
UNBOUND:                 0.000

$$$$

     RDKit          3D

 28 29  0  0  0  0  0  0  0  0999 V2000
   46.0808    5.3419   12.5300 Cl  0  0  0  0  0  0  0  0  0  0  0  0
   47.4625    7.6633   12.5593 C   0  0  0  0  0  0  0  0  0  0  0  0
   46.2333    7.3075   12.6461 N   0  0  0  0  0  0  0  0  0  0  0  0
   48.3234    6.7903   13.2746 N   0  0  0  0  0  0  0  0  0  0  0  0
   46.1156    6.1288   13.4461 C   0  0  2  0  0  0  0  0  0  0  0  0
   47.5039    5.5840   13.4892 C   0  0  0  0  0  0  0  0  0  0  0  0
   48.5657    8.9099   11.8378 S   0  0  0  0  0  0  0  0  0  0  0  0
   45.1273    5.2284   12.8035 C   0  0  0  0  0  0  0  0  0  0  0  0
   49.6052    7.3630   13.5180 C   0  0  0  0  0  0  0  0  0  0  0  0
   50.0971    7.9596   12.2168 C   0  0  0  0  0  0  0  0  0  0  0  0
   45.3208    3.8754   12.6395 C   0  0  0  0  0  0  0  0  0  0  0  0
   43.9397    5.7910   12.3427 C   0  0  0  0  0  0  0  0  0  0  0  0
   44.3792    3.0497   12.0333 C   0  0  0  0  0  0  0  0  0  0  0  0
   42.9966    4.9954   11.7415 C   0  0  0  0  0  0  0  0  0  0  0  0
   43.2128    3.6366   11.5874 C   0  0  0  0  0  0  0  0  0  0  0  0
   47.1784    6.1593   12.6862 H   0  0  0  0  0  0  0  0  0  0  0  0
   45.7556    6.4677   14.4553 H   0  0  0  0  0  0  0  0  0  0  0  0
   47.7010    4.8296   12.7266 H   0  0  0  0  0  0  0  0  0  0  0  0
   47.6818    5.1827   14.5151 H   0  0  0  0  0  0  0  0  0  0  0  0
   49.5657    8.1905   14.2548 H   0  0  0  0  0  0  0  0  0  0  0  0
   50.3213    6.5684   13.7829 H   0  0  0  0  0  0  0  0  0  0  0  0
   50.9436    8.6203   12.3647 H   0  0  0  0  0  0  0  0  0  0  0  0
   50.1885    7.2110   11.4150 H   0  0  0  0  0  0  0  0  0  0  0  0
   46.2388    3.4315   12.9941 H   0  0  0  0  0  0  0  0  0  0  0  0
   43.7467    6.8583   12.4526 H   0  0  0  0  0  0  0  0  0  0  0  0
   44.6051    2.0035   11.9431 H   0  0  0  0  0  0  0  0  0  0  0  0
   42.0759    5.4654   11.3906 H   0  0  0  0  0  0  0  0  0  0  0  0
   42.4593    3.0311   11.1127 H   0  0  0  0  0  0  0  0  0  0  0  0
  3  2  2  0
  4  2  1  0
  5  3  1  0
  6  4  1  0
  7  2  1  0
  5  8  1  0
  9  4  1  0
 10  7  1  0
 11  8  2  0
 12  8  1  0
 13 11  1  0
 14 12  2  0
 15 13  2  0
 10  9  1  0
  6  5  1  0
 14 15  1  0
  1 16  1  0
  5 17  1  6
  6 18  1  0
  6 19  1  0
  9 20  1  0
  9 21  1  0
 10 22  1  0
 10 23  1  0
 11 24  1  0
 12 25  1  0
 13 26  1  0
 14 27  1  0
 15 28  1  0
M  END
> <Uni-Dock RESULT> 
ENERGY=   -3.532  LOWER_BOUND=    4.650  UPPER_BOUND=    5.761
INTER + INTRA:          -3.532
INTER:                  -3.532
INTRA:                   0.000
UNBOUND:                 0.000

$$$$

     RDKit          3D

 28 29  0  0  0  0  0  0  0  0999 V2000
   46.5908    4.5840   14.7682 Cl  0  0  0  0  0  0  0  0  0  0  0  0
   45.5400    5.8690   12.6366 C   0  0  0  0  0  0  0  0  0  0  0  0
   46.5565    6.0130   13.4054 N   0  0  0  0  0  0  0  0  0  0  0  0
   45.3009    4.5069   12.3163 N   0  0  0  0  0  0  0  0  0  0  0  0
   47.1362    4.7404   13.7014 C   0  0  2  0  0  0  0  0  0  0  0  0
   46.0690    3.7651   13.3325 C   0  0  0  0  0  0  0  0  0  0  0  0
   44.2355    6.7828   11.7678 S   0  0  0  0  0  0  0  0  0  0  0  0
   47.5081    4.7225   15.1373 C   0  0  0  0  0  0  0  0  0  0  0  0
   44.4491    4.3516   11.1847 C   0  0  0  0  0  0  0  0  0  0  0  0
   43.2612    5.2706   11.3736 C   0  0  0  0  0  0  0  0  0  0  0  0
   47.2454    3.6668   15.9808 C   0  0  0  0  0  0  0  0  0  0  0  0
   48.1592    5.8401   15.6535 C   0  0  0  0  0  0  0  0  0  0  0  0
   47.6038    3.6721   17.3253 C   0  0  0  0  0  0  0  0  0  0  0  0
   48.5220    5.8670   16.9769 C   0  0  0  0  0  0  0  0  0  0  0  0
   48.2476    4.7934   17.8069 C   0  0  0  0  0  0  0  0  0  0  0  0
   45.8313    4.7334   13.6289 H   0  0  0  0  0  0  0  0  0  0  0  0
   48.0460    4.6491   13.0482 H   0  0  0  0  0  0  0  0  0  0  0  0
   45.4369    3.4713   14.1714 H   0  0  0  0  0  0  0  0  0  0  0  0
   46.5618    2.8805   12.8639 H   0  0  0  0  0  0  0  0  0  0  0  0
   44.9419    4.6558   10.2394 H   0  0  0  0  0  0  0  0  0  0  0  0
   44.0453    3.3265   11.1634 H   0  0  0  0  0  0  0  0  0  0  0  0
   42.6926    5.3961   10.4593 H   0  0  0  0  0  0  0  0  0  0  0  0
   42.6878    5.0404   12.2846 H   0  0  0  0  0  0  0  0  0  0  0  0
   46.7411    2.7966   15.5885 H   0  0  0  0  0  0  0  0  0  0  0  0
   48.3862    6.6976   15.0197 H   0  0  0  0  0  0  0  0  0  0  0  0
   47.3634    2.8090   17.9177 H   0  0  0  0  0  0  0  0  0  0  0  0
   49.0310    6.7569   17.3522 H   0  0  0  0  0  0  0  0  0  0  0  0
   48.5412    4.8358   18.8421 H   0  0  0  0  0  0  0  0  0  0  0  0
  3  2  2  0
  4  2  1  0
  5  3  1  0
  6  4  1  0
  7  2  1  0
  5  8  1  0
  9  4  1  0
 10  7  1  0
 11  8  2  0
 12  8  1  0
 13 11  1  0
 14 12  2  0
 15 13  2  0
 10  9  1  0
  6  5  1  0
 14 15  1  0
  1 16  1  0
  5 17  1  6
  6 18  1  0
  6 19  1  0
  9 20  1  0
  9 21  1  0
 10 22  1  0
 10 23  1  0
 11 24  1  0
 12 25  1  0
 13 26  1  0
 14 27  1  0
 15 28  1  0
M  END
> <Uni-Dock RESULT> 
ENERGY=   -3.466  LOWER_BOUND=    4.773  UPPER_BOUND=    6.252
INTER + INTRA:          -3.466
INTER:                  -3.466
INTRA:                   0.000
UNBOUND:                 0.000

$$$$

     RDKit          3D

 28 29  0  0  0  0  0  0  0  0999 V2000
   47.6417    9.4842   17.8387 Cl  0  0  0  0  0  0  0  0  0  0  0  0
   48.2244    9.0022   15.2450 C   0  0  0  0  0  0  0  0  0  0  0  0
   48.2789   10.0047   16.0432 N   0  0  0  0  0  0  0  0  0  0  0  0
   48.6271    7.7953   15.8744 N   0  0  0  0  0  0  0  0  0  0  0  0
   48.7338    9.5857   17.3319 C   0  0  2  0  0  0  0  0  0  0  0  0
   48.5507    8.1051   17.3135 C   0  0  0  0  0  0  0  0  0  0  0  0
   47.8091    8.5199   13.5460 S   0  0  0  0  0  0  0  0  0  0  0  0
   47.9262   10.2869   18.3598 C   0  0  0  0  0  0  0  0  0  0  0  0
   48.9459    6.7692   14.9386 C   0  0  0  0  0  0  0  0  0  0  0  0
   47.8307    6.7161   13.9166 C   0  0  0  0  0  0  0  0  0  0  0  0
   47.3905    9.6649   19.4648 C   0  0  0  0  0  0  0  0  0  0  0  0
   47.7018   11.6508   18.1902 C   0  0  0  0  0  0  0  0  0  0  0  0
   46.6356   10.3432   20.4167 C   0  0  0  0  0  0  0  0  0  0  0  0
   46.9599   12.3400   19.1168 C   0  0  0  0  0  0  0  0  0  0  0  0
   46.4308   11.6936   20.2208 C   0  0  0  0  0  0  0  0  0  0  0  0
   47.9534    8.7265   16.7314 H   0  0  0  0  0  0  0  0  0  0  0  0
   49.8154    9.8840   17.3965 H   0  0  0  0  0  0  0  0  0  0  0  0
   47.6021    7.7769   17.7403 H   0  0  0  0  0  0  0  0  0  0  0  0
   49.4176    7.6470   17.8462 H   0  0  0  0  0  0  0  0  0  0  0  0
   49.8808    6.9806   14.3814 H   0  0  0  0  0  0  0  0  0  0  0  0
   48.9451    5.7914   15.4468 H   0  0  0  0  0  0  0  0  0  0  0  0
   48.1056    6.1380   13.0418 H   0  0  0  0  0  0  0  0  0  0  0  0
   46.8519    6.4936   14.3684 H   0  0  0  0  0  0  0  0  0  0  0  0
   47.5599    8.6078   19.6037 H   0  0  0  0  0  0  0  0  0  0  0  0
   48.1080   12.1818   17.3291 H   0  0  0  0  0  0  0  0  0  0  0  0
   46.2522    9.7861   21.2511 H   0  0  0  0  0  0  0  0  0  0  0  0
   46.8013   13.4081   18.9564 H   0  0  0  0  0  0  0  0  0  0  0  0
   45.8518   12.2538   20.9353 H   0  0  0  0  0  0  0  0  0  0  0  0
  3  2  2  0
  4  2  1  0
  5  3  1  0
  6  4  1  0
  7  2  1  0
  5  8  1  0
  9  4  1  0
 10  7  1  0
 11  8  2  0
 12  8  1  0
 13 11  1  0
 14 12  2  0
 15 13  2  0
 10  9  1  0
  6  5  1  0
 14 15  1  0
  1 16  1  0
  5 17  1  6
  6 18  1  0
  6 19  1  0
  9 20  1  0
  9 21  1  0
 10 22  1  0
 10 23  1  0
 11 24  1  0
 12 25  1  0
 13 26  1  0
 14 27  1  0
 15 28  1  0
M  END
> <Uni-Dock RESULT> 
ENERGY=   -3.346  LOWER_BOUND=    8.699  UPPER_BOUND=   10.400
INTER + INTRA:          -3.346
INTER:                  -3.346
INTRA:                   0.000
UNBOUND:                 0.000

$$$$

     RDKit          3D

 28 29  0  0  0  0  0  0  0  0999 V2000
   54.2680    6.2350    8.5316 Cl  0  0  0  0  0  0  0  0  0  0  0  0
   54.4207    7.5271    6.1639 C   0  0  0  0  0  0  0  0  0  0  0  0
   54.7362    6.3697    6.6177 N   0  0  0  0  0  0  0  0  0  0  0  0
   53.1773    7.9814    6.6763 N   0  0  0  0  0  0  0  0  0  0  0  0
   53.7235    5.8953    7.5080 C   0  0  2  0  0  0  0  0  0  0  0  0
   52.9432    7.1203    7.8497 C   0  0  0  0  0  0  0  0  0  0  0  0
   54.9842    8.8614    5.0713 S   0  0  0  0  0  0  0  0  0  0  0  0
   54.3888    5.2533    8.6680 C   0  0  0  0  0  0  0  0  0  0  0  0
   52.6276    9.0510    5.9122 C   0  0  0  0  0  0  0  0  0  0  0  0
   53.7286   10.0634    5.6797 C   0  0  0  0  0  0  0  0  0  0  0  0
   54.0160    5.4664    9.9759 C   0  0  0  0  0  0  0  0  0  0  0  0
   55.4493    4.3880    8.4112 C   0  0  0  0  0  0  0  0  0  0  0  0
   54.6551    4.8528   11.0488 C   0  0  0  0  0  0  0  0  0  0  0  0
   56.0942    3.7717    9.4543 C   0  0  0  0  0  0  0  0  0  0  0  0
   55.7019    4.0009   10.7622 C   0  0  0  0  0  0  0  0  0  0  0  0
   53.9468    7.1808    7.5832 H   0  0  0  0  0  0  0  0  0  0  0  0
   53.1176    5.1484    6.9267 H   0  0  0  0  0  0  0  0  0  0  0  0
   53.2722    7.6052    8.7697 H   0  0  0  0  0  0  0  0  0  0  0  0
   51.8656    6.8356    7.9018 H   0  0  0  0  0  0  0  0  0  0  0  0
   52.2797    8.7214    4.9125 H   0  0  0  0  0  0  0  0  0  0  0  0
   51.8534    9.5677    6.5021 H   0  0  0  0  0  0  0  0  0  0  0  0
   53.4671   10.7819    4.9114 H   0  0  0  0  0  0  0  0  0  0  0  0
   54.1360   10.4695    6.6182 H   0  0  0  0  0  0  0  0  0  0  0  0
   53.1949    6.1357   10.1834 H   0  0  0  0  0  0  0  0  0  0  0  0
   55.7764    4.1916    7.3900 H   0  0  0  0  0  0  0  0  0  0  0  0
   54.3044    5.0710   12.0403 H   0  0  0  0  0  0  0  0  0  0  0  0
   56.9217    3.0989    9.2213 H   0  0  0  0  0  0  0  0  0  0  0  0
   56.2221    3.5068   11.5652 H   0  0  0  0  0  0  0  0  0  0  0  0
  3  2  2  0
  4  2  1  0
  5  3  1  0
  6  4  1  0
  7  2  1  0
  5  8  1  0
  9  4  1  0
 10  7  1  0
 11  8  2  0
 12  8  1  0
 13 11  1  0
 14 12  2  0
 15 13  2  0
 10  9  1  0
  6  5  1  0
 14 15  1  0
  1 16  1  0
  5 17  1  6
  6 18  1  0
  6 19  1  0
  9 20  1  0
  9 21  1  0
 10 22  1  0
 10 23  1  0
 11 24  1  0
 12 25  1  0
 13 26  1  0
 14 27  1  0
 15 28  1  0
M  END
> <Uni-Dock RESULT> 
ENERGY=   -3.343  LOWER_BOUND=    9.428  UPPER_BOUND=   10.314
INTER + INTRA:          -3.343
INTER:                  -3.343
INTRA:                   0.000
UNBOUND:                 0.000

$$$$

     RDKit          3D

 28 29  0  0  0  0  0  0  0  0999 V2000
   47.4069    8.5302   19.0849 Cl  0  0  0  0  0  0  0  0  0  0  0  0
   48.2775    6.4865   17.5473 C   0  0  0  0  0  0  0  0  0  0  0  0
   48.5511    7.7318   17.6871 N   0  0  0  0  0  0  0  0  0  0  0  0
   48.0414    5.8480   18.7929 N   0  0  0  0  0  0  0  0  0  0  0  0
   48.5318    8.0894   19.0709 C   0  0  2  0  0  0  0  0  0  0  0  0
   47.7966    6.9661   19.7219 C   0  0  0  0  0  0  0  0  0  0  0  0
   48.0672    5.1760   16.3103 S   0  0  0  0  0  0  0  0  0  0  0  0
   47.8666    9.4090   19.2000 C   0  0  0  0  0  0  0  0  0  0  0  0
   48.1224    4.4283   18.7049 C   0  0  0  0  0  0  0  0  0  0  0  0
   47.3104    3.9948   17.5033 C   0  0  0  0  0  0  0  0  0  0  0  0
   46.9164    9.6948   20.1542 C   0  0  0  0  0  0  0  0  0  0  0  0
   48.2291   10.4096   18.3019 C   0  0  0  0  0  0  0  0  0  0  0  0
   46.3054   10.9406   20.2566 C   0  0  0  0  0  0  0  0  0  0  0  0
   47.6393   11.6462   18.3844 C   0  0  0  0  0  0  0  0  0  0  0  0
   46.6857   11.9111   19.3526 C   0  0  0  0  0  0  0  0  0  0  0  0
   47.6210    7.2172   18.7279 H   0  0  0  0  0  0  0  0  0  0  0  0
   49.6058    8.1458   19.3967 H   0  0  0  0  0  0  0  0  0  0  0  0
   46.7292    7.1548   19.8432 H   0  0  0  0  0  0  0  0  0  0  0  0
   48.2879    6.7588   20.7020 H   0  0  0  0  0  0  0  0  0  0  0  0
   49.1590    4.0735   18.5355 H   0  0  0  0  0  0  0  0  0  0  0  0
   47.6376    3.9746   19.5844 H   0  0  0  0  0  0  0  0  0  0  0  0
   47.5132    2.9677   17.2224 H   0  0  0  0  0  0  0  0  0  0  0  0
   46.2518    4.2864   17.5796 H   0  0  0  0  0  0  0  0  0  0  0  0
   46.6299    8.9245   20.8543 H   0  0  0  0  0  0  0  0  0  0  0  0
   48.9774   10.2250   17.5308 H   0  0  0  0  0  0  0  0  0  0  0  0
   45.5730   11.0844   21.0289 H   0  0  0  0  0  0  0  0  0  0  0  0
   47.9442   12.4099   17.6664 H   0  0  0  0  0  0  0  0  0  0  0  0
   46.2358   12.8883   19.3991 H   0  0  0  0  0  0  0  0  0  0  0  0
  3  2  2  0
  4  2  1  0
  5  3  1  0
  6  4  1  0
  7  2  1  0
  5  8  1  0
  9  4  1  0
 10  7  1  0
 11  8  2  0
 12  8  1  0
 13 11  1  0
 14 12  2  0
 15 13  2  0
 10  9  1  0
  6  5  1  0
 14 15  1  0
  1 16  1  0
  5 17  1  6
  6 18  1  0
  6 19  1  0
  9 20  1  0
  9 21  1  0
 10 22  1  0
 10 23  1  0
 11 24  1  0
 12 25  1  0
 13 26  1  0
 14 27  1  0
 15 28  1  0
M  END
> <Uni-Dock RESULT> 
ENERGY=   -3.185  LOWER_BOUND=    9.176  UPPER_BOUND=   11.046
INTER + INTRA:          -3.185
INTER:                  -3.185
INTRA:                   0.000
UNBOUND:                 0.000

$$$$
