
     RDKit          3D

 28 29  0  0  0  0  0  0  0  0999 V2000
   44.8896    3.9979    9.9903 Cl  0  0  0  0  0  0  0  0  0  0  0  0
   45.8851    2.1611    8.2594 C   0  0  0  0  0  0  0  0  0  0  0  0
   44.9947    2.3339    9.1497 N   0  0  0  0  0  0  0  0  0  0  0  0
   46.1880    3.4012    7.6297 N   0  0  0  0  0  0  0  0  0  0  0  0
   44.5948    3.7214    9.2200 C   0  0  2  0  0  0  0  0  0  0  0  0
   45.8223    4.4137    8.6277 C   0  0  0  0  0  0  0  0  0  0  0  0
   46.9530    0.9388    7.4477 S   0  0  0  0  0  0  0  0  0  0  0  0
   44.2478    4.1917   10.5597 C   0  0  0  0  0  0  0  0  0  0  0  0
   46.7126    3.2280    6.3159 C   0  0  0  0  0  0  0  0  0  0  0  0
   47.7634    2.1524    6.3281 C   0  0  0  0  0  0  0  0  0  0  0  0
   45.0087    3.9056   11.6677 C   0  0  0  0  0  0  0  0  0  0  0  0
   43.0934    4.9636   10.7150 C   0  0  0  0  0  0  0  0  0  0  0  0
   44.6003    4.3952   12.8971 C   0  0  0  0  0  0  0  0  0  0  0  0
   42.7098    5.4383   11.9506 C   0  0  0  0  0  0  0  0  0  0  0  0
   43.4632    5.1577   13.0611 C   0  0  0  0  0  0  0  0  0  0  0  0
   45.5521    3.5381    8.8692 H   0  0  0  0  0  0  0  0  0  0  0  0
   43.7416    3.8315    8.5229 H   0  0  0  0  0  0  0  0  0  0  0  0
   46.6158    4.4866    9.3718 H   0  0  0  0  0  0  0  0  0  0  0  0
   45.6024    5.3884    8.1874 H   0  0  0  0  0  0  0  0  0  0  0  0
   47.2174    4.1477    5.9887 H   0  0  0  0  0  0  0  0  0  0  0  0
   45.9149    3.0080    5.5774 H   0  0  0  0  0  0  0  0  0  0  0  0
   48.7334    2.4802    6.6912 H   0  0  0  0  0  0  0  0  0  0  0  0
   47.7980    1.6442    5.3315 H   0  0  0  0  0  0  0  0  0  0  0  0
   45.8962    3.3146   11.5618 H   0  0  0  0  0  0  0  0  0  0  0  0
   42.4748    5.2011    9.8414 H   0  0  0  0  0  0  0  0  0  0  0  0
   45.1749    4.1904   13.7949 H   0  0  0  0  0  0  0  0  0  0  0  0
   41.8034    6.0304   11.9958 H   0  0  0  0  0  0  0  0  0  0  0  0
   43.1316    5.5468   14.0144 H   0  0  0  0  0  0  0  0  0  0  0  0
  3  2  2  0
  4  2  1  0
  5  3  1  0
  6  4  1  0
  7  2  1  0
  5  8  1  0
  9  4  1  0
 10  7  1  0
 11  8  2  0
 12  8  1  0
 13 11  1  0
 14 12  2  0
 15 13  2  0
 10  9  1  0
  6  5  1  0
 14 15  1  0
  1 16  1  0
  5 17  1  6
  6 18  1  0
  6 19  1  0
  9 20  1  0
  9 21  1  0
 10 22  1  0
 10 23  1  0
 11 24  1  0
 12 25  1  0
 13 26  1  0
 14 27  1  0
 15 28  1  0
M  END
> <Uni-Dock RESULT> 
ENERGY=   -5.823  LOWER_BOUND=    0.000  UPPER_BOUND=    0.000
INTER + INTRA:          -5.823
INTER:                  -5.823
INTRA:                   0.000
UNBOUND:                 0.000

$$$$

     RDKit          3D

 28 29  0  0  0  0  0  0  0  0999 V2000
   45.4849    3.1568    9.2207 Cl  0  0  0  0  0  0  0  0  0  0  0  0
   43.4763    4.3066   10.6363 C   0  0  0  0  0  0  0  0  0  0  0  0
   43.7418    3.7537    9.5231 N   0  0  0  0  0  0  0  0  0  0  0  0
   44.3400    3.7994   11.6476 N   0  0  0  0  0  0  0  0  0  0  0  0
   44.8231    2.8041    9.6612 C   0  0  2  0  0  0  0  0  0  0  0  0
   45.5223    3.3317   10.9140 C   0  0  0  0  0  0  0  0  0  0  0  0
   42.4128    5.5135   11.4763 S   0  0  0  0  0  0  0  0  0  0  0  0
   45.7030    2.7044    8.4984 C   0  0  0  0  0  0  0  0  0  0  0  0
   43.7766    3.9187   12.9514 C   0  0  0  0  0  0  0  0  0  0  0  0
   43.1937    5.2936   13.1271 C   0  0  0  0  0  0  0  0  0  0  0  0
   46.1802    3.8071    7.8313 C   0  0  0  0  0  0  0  0  0  0  0  0
   46.0714    1.4331    8.0504 C   0  0  0  0  0  0  0  0  0  0  0  0
   47.0093    3.6139    6.7390 C   0  0  0  0  0  0  0  0  0  0  0  0
   46.8982    1.2694    6.9601 C   0  0  0  0  0  0  0  0  0  0  0  0
   47.3787    2.3640    6.2889 C   0  0  0  0  0  0  0  0  0  0  0  0
   44.8061    3.5812   10.3459 H   0  0  0  0  0  0  0  0  0  0  0  0
   44.3496    1.8296    9.8904 H   0  0  0  0  0  0  0  0  0  0  0  0
   46.1529    4.1864   10.6680 H   0  0  0  0  0  0  0  0  0  0  0  0
   46.0854    2.5671   11.4530 H   0  0  0  0  0  0  0  0  0  0  0  0
   44.5640    3.8188   13.7114 H   0  0  0  0  0  0  0  0  0  0  0  0
   43.0229    3.1297   13.1503 H   0  0  0  0  0  0  0  0  0  0  0  0
   43.9261    6.0633   13.3540 H   0  0  0  0  0  0  0  0  0  0  0  0
   42.3371    5.2538   13.8462 H   0  0  0  0  0  0  0  0  0  0  0  0
   45.9050    4.7875    8.1651 H   0  0  0  0  0  0  0  0  0  0  0  0
   45.6996    0.5427    8.5711 H   0  0  0  0  0  0  0  0  0  0  0  0
   47.4059    4.4599    6.1866 H   0  0  0  0  0  0  0  0  0  0  0  0
   47.1417    0.2544    6.6693 H   0  0  0  0  0  0  0  0  0  0  0  0
   48.0251    2.1975    5.4376 H   0  0  0  0  0  0  0  0  0  0  0  0
  3  2  2  0
  4  2  1  0
  5  3  1  0
  6  4  1  0
  7  2  1  0
  5  8  1  0
  9  4  1  0
 10  7  1  0
 11  8  2  0
 12  8  1  0
 13 11  1  0
 14 12  2  0
 15 13  2  0
 10  9  1  0
  6  5  1  0
 14 15  1  0
  1 16  1  0
  5 17  1  6
  6 18  1  0
  6 19  1  0
  9 20  1  0
  9 21  1  0
 10 22  1  0
 10 23  1  0
 11 24  1  0
 12 25  1  0
 13 26  1  0
 14 27  1  0
 15 28  1  0
M  END
> <Uni-Dock RESULT> 
ENERGY=   -5.384  LOWER_BOUND=    2.325  UPPER_BOUND=    5.555
INTER + INTRA:          -5.384
INTER:                  -5.384
INTRA:                   0.000
UNBOUND:                 0.000

$$$$

     RDKit          3D

 28 29  0  0  0  0  0  0  0  0999 V2000
   45.4649    3.5676    8.6603 Cl  0  0  0  0  0  0  0  0  0  0  0  0
   44.9509    4.5735   11.1269 C   0  0  0  0  0  0  0  0  0  0  0  0
   45.8979    4.2620   10.3386 N   0  0  0  0  0  0  0  0  0  0  0  0
   43.7972    4.9396   10.3780 N   0  0  0  0  0  0  0  0  0  0  0  0
   45.4845    4.3844    8.9586 C   0  0  2  0  0  0  0  0  0  0  0  0
   43.9673    4.2537    9.0913 C   0  0  0  0  0  0  0  0  0  0  0  0
   44.4653    4.7432   12.8673 S   0  0  0  0  0  0  0  0  0  0  0  0
   46.0789    3.4041    8.0520 C   0  0  0  0  0  0  0  0  0  0  0  0
   42.9284    5.8021   11.1078 C   0  0  0  0  0  0  0  0  0  0  0  0
   42.7415    5.2707   12.5020 C   0  0  0  0  0  0  0  0  0  0  0  0
   46.1683    2.0674    8.3583 C   0  0  0  0  0  0  0  0  0  0  0  0
   46.5755    3.8495    6.8241 C   0  0  0  0  0  0  0  0  0  0  0  0
   46.7482    1.2129    7.4355 C   0  0  0  0  0  0  0  0  0  0  0  0
   47.1480    2.9773    5.9238 C   0  0  0  0  0  0  0  0  0  0  0  0
   47.2411    1.6422    6.2214 C   0  0  0  0  0  0  0  0  0  0  0  0
   44.7330    4.1985    9.6469 H   0  0  0  0  0  0  0  0  0  0  0  0
   45.7365    5.4183    8.6524 H   0  0  0  0  0  0  0  0  0  0  0  0
   43.6824    3.2072    9.2025 H   0  0  0  0  0  0  0  0  0  0  0  0
   43.4164    4.7290    8.2771 H   0  0  0  0  0  0  0  0  0  0  0  0
   41.9316    5.8101   10.6453 H   0  0  0  0  0  0  0  0  0  0  0  0
   43.2966    6.8483   11.1180 H   0  0  0  0  0  0  0  0  0  0  0  0
   42.0256    4.4570   12.5773 H   0  0  0  0  0  0  0  0  0  0  0  0
   42.5452    6.1168   13.2077 H   0  0  0  0  0  0  0  0  0  0  0  0
   45.7912    1.7133    9.2967 H   0  0  0  0  0  0  0  0  0  0  0  0
   46.5121    4.9128    6.5638 H   0  0  0  0  0  0  0  0  0  0  0  0
   46.8368    0.1509    7.6415 H   0  0  0  0  0  0  0  0  0  0  0  0
   47.5114    3.3932    4.9916 H   0  0  0  0  0  0  0  0  0  0  0  0
   47.6966    0.9871    5.4910 H   0  0  0  0  0  0  0  0  0  0  0  0
  3  2  2  0
  4  2  1  0
  5  3  1  0
  6  4  1  0
  7  2  1  0
  5  8  1  0
  9  4  1  0
 10  7  1  0
 11  8  2  0
 12  8  1  0
 13 11  1  0
 14 12  2  0
 15 13  2  0
 10  9  1  0
  6  5  1  0
 14 15  1  0
  1 16  1  0
  5 17  1  6
  6 18  1  0
  6 19  1  0
  9 20  1  0
  9 21  1  0
 10 22  1  0
 10 23  1  0
 11 24  1  0
 12 25  1  0
 13 26  1  0
 14 27  1  0
 15 28  1  0
M  END
> <Uni-Dock RESULT> 
ENERGY=   -5.171  LOWER_BOUND=    2.256  UPPER_BOUND=    5.448
INTER + INTRA:          -5.171
INTER:                  -5.171
INTRA:                   0.000
UNBOUND:                 0.000

$$$$

     RDKit          3D

 28 29  0  0  0  0  0  0  0  0999 V2000
   45.1974    5.4242   10.7044 Cl  0  0  0  0  0  0  0  0  0  0  0  0
   44.7177    7.9851   11.4607 C   0  0  0  0  0  0  0  0  0  0  0  0
   44.1475    6.9330   11.0327 N   0  0  0  0  0  0  0  0  0  0  0  0
   45.8819    7.6381   12.2024 N   0  0  0  0  0  0  0  0  0  0  0  0
   44.8700    5.7494   11.4417 C   0  0  2  0  0  0  0  0  0  0  0  0
   46.2674    6.3224   11.6779 C   0  0  0  0  0  0  0  0  0  0  0  0
   44.6431    9.7978   11.5074 S   0  0  0  0  0  0  0  0  0  0  0  0
   44.8435    4.6517   10.4770 C   0  0  0  0  0  0  0  0  0  0  0  0
   46.2422    8.6428   13.1470 C   0  0  0  0  0  0  0  0  0  0  0  0
   46.1827    9.9961   12.4942 C   0  0  0  0  0  0  0  0  0  0  0  0
   45.0508    4.8400    9.1316 C   0  0  0  0  0  0  0  0  0  0  0  0
   44.5965    3.3592   10.9472 C   0  0  0  0  0  0  0  0  0  0  0  0
   45.0068    3.7384    8.2933 C   0  0  0  0  0  0  0  0  0  0  0  0
   44.5582    2.2803   10.0906 C   0  0  0  0  0  0  0  0  0  0  0  0
   44.7640    2.4592    8.7470 C   0  0  0  0  0  0  0  0  0  0  0  0
   45.4263    6.6192   11.3577 H   0  0  0  0  0  0  0  0  0  0  0  0
   44.4329    5.4417   12.4114 H   0  0  0  0  0  0  0  0  0  0  0  0
   46.7915    6.4535   10.7309 H   0  0  0  0  0  0  0  0  0  0  0  0
   46.8638    5.7391   12.3824 H   0  0  0  0  0  0  0  0  0  0  0  0
   47.2839    8.5011   13.4671 H   0  0  0  0  0  0  0  0  0  0  0  0
   45.6084    8.6023   14.0562 H   0  0  0  0  0  0  0  0  0  0  0  0
   47.0485   10.2353   11.8830 H   0  0  0  0  0  0  0  0  0  0  0  0
   45.9349   10.7756   13.2581 H   0  0  0  0  0  0  0  0  0  0  0  0
   45.2411    5.8263    8.7585 H   0  0  0  0  0  0  0  0  0  0  0  0
   44.4290    3.1913   12.0177 H   0  0  0  0  0  0  0  0  0  0  0  0
   45.1655    3.8471    7.2251 H   0  0  0  0  0  0  0  0  0  0  0  0
   44.3615    1.3075   10.5255 H   0  0  0  0  0  0  0  0  0  0  0  0
   44.7265    1.5896    8.1048 H   0  0  0  0  0  0  0  0  0  0  0  0
  3  2  2  0
  4  2  1  0
  5  3  1  0
  6  4  1  0
  7  2  1  0
  5  8  1  0
  9  4  1  0
 10  7  1  0
 11  8  2  0
 12  8  1  0
 13 11  1  0
 14 12  2  0
 15 13  2  0
 10  9  1  0
  6  5  1  0
 14 15  1  0
  1 16  1  0
  5 17  1  6
  6 18  1  0
  6 19  1  0
  9 20  1  0
  9 21  1  0
 10 22  1  0
 10 23  1  0
 11 24  1  0
 12 25  1  0
 13 26  1  0
 14 27  1  0
 15 28  1  0
M  END
> <Uni-Dock RESULT> 
ENERGY=   -4.224  LOWER_BOUND=    4.060  UPPER_BOUND=    5.729
INTER + INTRA:          -4.224
INTER:                  -4.224
INTRA:                   0.000
UNBOUND:                 0.000

$$$$

     RDKit          3D

 28 29  0  0  0  0  0  0  0  0999 V2000
   45.7767    5.7476   12.3010 Cl  0  0  0  0  0  0  0  0  0  0  0  0
   47.8658    6.8254   13.6555 C   0  0  0  0  0  0  0  0  0  0  0  0
   47.5509    5.8790   12.8677 N   0  0  0  0  0  0  0  0  0  0  0  0
   47.0038    7.9383   13.4451 N   0  0  0  0  0  0  0  0  0  0  0  0
   46.4321    6.2518   12.0313 C   0  0  2  0  0  0  0  0  0  0  0  0
   45.7856    7.3509   12.8744 C   0  0  0  0  0  0  0  0  0  0  0  0
   49.0005    7.3414   14.9744 S   0  0  0  0  0  0  0  0  0  0  0  0
   45.5224    5.1565   11.7013 C   0  0  0  0  0  0  0  0  0  0  0  0
   47.6014    9.1696   13.8430 C   0  0  0  0  0  0  0  0  0  0  0  0
   48.2484    9.0060   15.1906 C   0  0  0  0  0  0  0  0  0  0  0  0
   45.0794    4.2516   12.6359 C   0  0  0  0  0  0  0  0  0  0  0  0
   45.0882    5.0283   10.3793 C   0  0  0  0  0  0  0  0  0  0  0  0
   44.2180    3.2463   12.2293 C   0  0  0  0  0  0  0  0  0  0  0  0
   44.2304    4.0180   10.0017 C   0  0  0  0  0  0  0  0  0  0  0  0
   43.7835    3.1111   10.9277 C   0  0  0  0  0  0  0  0  0  0  0  0
   46.4991    6.7315   12.9470 H   0  0  0  0  0  0  0  0  0  0  0  0
   46.8672    6.7009   11.1174 H   0  0  0  0  0  0  0  0  0  0  0  0
   45.1880    6.9158   13.6758 H   0  0  0  0  0  0  0  0  0  0  0  0
   45.2016    8.0630   12.2878 H   0  0  0  0  0  0  0  0  0  0  0  0
   46.8279    9.9406   13.9646 H   0  0  0  0  0  0  0  0  0  0  0  0
   48.3238    9.5419   13.0883 H   0  0  0  0  0  0  0  0  0  0  0  0
   47.5561    9.0516   16.0265 H   0  0  0  0  0  0  0  0  0  0  0  0
   49.1186    9.7040   15.2812 H   0  0  0  0  0  0  0  0  0  0  0  0
   45.4052    4.3390   13.6529 H   0  0  0  0  0  0  0  0  0  0  0  0
   45.4320    5.7418    9.6210 H   0  0  0  0  0  0  0  0  0  0  0  0
   43.8467    2.5130   12.9382 H   0  0  0  0  0  0  0  0  0  0  0  0
   43.9356    3.9802    8.9597 H   0  0  0  0  0  0  0  0  0  0  0  0
   43.1113    2.3315   10.5953 H   0  0  0  0  0  0  0  0  0  0  0  0
  3  2  2  0
  4  2  1  0
  5  3  1  0
  6  4  1  0
  7  2  1  0
  5  8  1  0
  9  4  1  0
 10  7  1  0
 11  8  2  0
 12  8  1  0
 13 11  1  0
 14 12  2  0
 15 13  2  0
 10  9  1  0
  6  5  1  0
 14 15  1  0
  1 16  1  0
  5 17  1  6
  6 18  1  0
  6 19  1  0
  9 20  1  0
  9 21  1  0
 10 22  1  0
 10 23  1  0
 11 24  1  0
 12 25  1  0
 13 26  1  0
 14 27  1  0
 15 28  1  0
M  END
> <Uni-Dock RESULT> 
ENERGY=   -3.578  LOWER_BOUND=    4.561  UPPER_BOUND=    6.025
INTER + INTRA:          -3.578
INTER:                  -3.578
INTRA:                   0.000
UNBOUND:                 0.000

$$$$

     RDKit          3D

 28 29  0  0  0  0  0  0  0  0999 V2000
   46.6188    7.3679   12.3560 Cl  0  0  0  0  0  0  0  0  0  0  0  0
   45.2710    5.0362   12.6833 C   0  0  0  0  0  0  0  0  0  0  0  0
   46.2000    5.7463   13.1814 N   0  0  0  0  0  0  0  0  0  0  0  0
   44.3262    5.8695   12.0207 N   0  0  0  0  0  0  0  0  0  0  0  0
   45.9830    7.1492   12.9078 C   0  0  2  0  0  0  0  0  0  0  0  0
   45.0878    7.0746   11.6710 C   0  0  0  0  0  0  0  0  0  0  0  0
   44.6490    3.3446   12.4711 S   0  0  0  0  0  0  0  0  0  0  0  0
   47.2021    7.9286   12.7011 C   0  0  0  0  0  0  0  0  0  0  0  0
   43.0371    5.2672   11.9372 C   0  0  0  0  0  0  0  0  0  0  0  0
   43.1740    3.8383   11.4892 C   0  0  0  0  0  0  0  0  0  0  0  0
   48.2389    7.4908   11.9126 C   0  0  0  0  0  0  0  0  0  0  0  0
   47.3131    9.1695   13.3339 C   0  0  0  0  0  0  0  0  0  0  0  0
   49.3553    8.2990   11.7760 C   0  0  0  0  0  0  0  0  0  0  0  0
   48.4358    9.9540   13.1808 C   0  0  0  0  0  0  0  0  0  0  0  0
   49.4747    9.5249   12.3958 C   0  0  0  0  0  0  0  0  0  0  0  0
   45.5668    6.4816   12.2339 H   0  0  0  0  0  0  0  0  0  0  0  0
   45.3957    7.5419   13.7604 H   0  0  0  0  0  0  0  0  0  0  0  0
   45.6835    6.8762   10.7797 H   0  0  0  0  0  0  0  0  0  0  0  0
   44.4566    7.9554   11.5365 H   0  0  0  0  0  0  0  0  0  0  0  0
   42.4348    5.7738   11.1702 H   0  0  0  0  0  0  0  0  0  0  0  0
   42.4829    5.3411   12.8951 H   0  0  0  0  0  0  0  0  0  0  0  0
   43.3190    3.7179   10.4193 H   0  0  0  0  0  0  0  0  0  0  0  0
   42.3343    3.2274   11.9068 H   0  0  0  0  0  0  0  0  0  0  0  0
   48.1660    6.5409   11.4219 H   0  0  0  0  0  0  0  0  0  0  0  0
   46.4952    9.5339   13.9667 H   0  0  0  0  0  0  0  0  0  0  0  0
   50.1942    7.9876   11.1617 H   0  0  0  0  0  0  0  0  0  0  0  0
   48.4525   10.9043   13.7012 H   0  0  0  0  0  0  0  0  0  0  0  0
   50.3399   10.1668   12.2987 H   0  0  0  0  0  0  0  0  0  0  0  0
  3  2  2  0
  4  2  1  0
  5  3  1  0
  6  4  1  0
  7  2  1  0
  5  8  1  0
  9  4  1  0
 10  7  1  0
 11  8  2  0
 12  8  1  0
 13 11  1  0
 14 12  2  0
 15 13  2  0
 10  9  1  0
  6  5  1  0
 14 15  1  0
  1 16  1  0
  5 17  1  6
  6 18  1  0
  6 19  1  0
  9 20  1  0
  9 21  1  0
 10 22  1  0
 10 23  1  0
 11 24  1  0
 12 25  1  0
 13 26  1  0
 14 27  1  0
 15 28  1  0
M  END
> <Uni-Dock RESULT> 
ENERGY=   -3.577  LOWER_BOUND=    4.719  UPPER_BOUND=    5.939
INTER + INTRA:          -3.577
INTER:                  -3.577
INTRA:                   0.000
UNBOUND:                 0.000

$$$$

     RDKit          3D

 28 29  0  0  0  0  0  0  0  0999 V2000
   47.7067    4.8840   18.0317 Cl  0  0  0  0  0  0  0  0  0  0  0  0
   47.7954    5.4922   15.3892 C   0  0  0  0  0  0  0  0  0  0  0  0
   48.3671    5.7239   16.5004 N   0  0  0  0  0  0  0  0  0  0  0  0
   47.2100    4.1949   15.4064 N   0  0  0  0  0  0  0  0  0  0  0  0
   48.2298    4.5989   17.3980 C   0  0  2  0  0  0  0  0  0  0  0  0
   46.9850    3.9172   16.8301 C   0  0  0  0  0  0  0  0  0  0  0  0
   47.4148    6.1673   13.7482 S   0  0  0  0  0  0  0  0  0  0  0  0
   48.1091    4.9537   18.8108 C   0  0  0  0  0  0  0  0  0  0  0  0
   47.0587    3.6512   14.0976 C   0  0  0  0  0  0  0  0  0  0  0  0
   46.4748    4.6912   13.1818 C   0  0  0  0  0  0  0  0  0  0  0  0
   47.2894    5.9629   19.2558 C   0  0  0  0  0  0  0  0  0  0  0  0
   48.8606    4.2341   19.7436 C   0  0  0  0  0  0  0  0  0  0  0  0
   47.2404    6.2271   20.6144 C   0  0  0  0  0  0  0  0  0  0  0  0
   48.7929    4.5180   21.0904 C   0  0  0  0  0  0  0  0  0  0  0  0
   47.9776    5.5230   21.5429 C   0  0  0  0  0  0  0  0  0  0  0  0
   47.4911    4.7041   16.6796 H   0  0  0  0  0  0  0  0  0  0  0  0
   49.1123    3.9540   17.2205 H   0  0  0  0  0  0  0  0  0  0  0  0
   46.0831    4.4345   17.1581 H   0  0  0  0  0  0  0  0  0  0  0  0
   46.9323    2.8499   17.0547 H   0  0  0  0  0  0  0  0  0  0  0  0
   46.3403    2.8199   14.1169 H   0  0  0  0  0  0  0  0  0  0  0  0
   48.0151    3.2527   13.7018 H   0  0  0  0  0  0  0  0  0  0  0  0
   45.3993    4.8141   13.2743 H   0  0  0  0  0  0  0  0  0  0  0  0
   46.8245    4.5137   12.1337 H   0  0  0  0  0  0  0  0  0  0  0  0
   46.7080    6.5222   18.5505 H   0  0  0  0  0  0  0  0  0  0  0  0
   49.5198    3.4257   19.4055 H   0  0  0  0  0  0  0  0  0  0  0  0
   46.6050    7.0162   21.0039 H   0  0  0  0  0  0  0  0  0  0  0  0
   49.4035    3.9190   21.7556 H   0  0  0  0  0  0  0  0  0  0  0  0
   47.9499    5.7178   22.6066 H   0  0  0  0  0  0  0  0  0  0  0  0
  3  2  2  0
  4  2  1  0
  5  3  1  0
  6  4  1  0
  7  2  1  0
  5  8  1  0
  9  4  1  0
 10  7  1  0
 11  8  2  0
 12  8  1  0
 13 11  1  0
 14 12  2  0
 15 13  2  0
 10  9  1  0
  6  5  1  0
 14 15  1  0
  1 16  1  0
  5 17  1  6
  6 18  1  0
  6 19  1  0
  9 20  1  0
  9 21  1  0
 10 22  1  0
 10 23  1  0
 11 24  1  0
 12 25  1  0
 13 26  1  0
 14 27  1  0
 15 28  1  0
M  END
> <Uni-Dock RESULT> 
ENERGY=   -3.535  LOWER_BOUND=    7.090  UPPER_BOUND=    8.796
INTER + INTRA:          -3.535
INTER:                  -3.535
INTRA:                   0.000
UNBOUND:                 0.000

$$$$

     RDKit          3D

 28 29  0  0  0  0  0  0  0  0999 V2000
   50.6449    3.6965   18.1291 Cl  0  0  0  0  0  0  0  0  0  0  0  0
   49.2826    5.9832   17.6044 C   0  0  0  0  0  0  0  0  0  0  0  0
   50.0575    5.1240   17.0786 N   0  0  0  0  0  0  0  0  0  0  0  0
   48.5154    5.3758   18.6382 N   0  0  0  0  0  0  0  0  0  0  0  0
   49.8977    3.8306   17.7046 C   0  0  2  0  0  0  0  0  0  0  0  0
   49.3259    4.2289   19.0652 C   0  0  0  0  0  0  0  0  0  0  0  0
   48.7475    7.7169   17.5670 S   0  0  0  0  0  0  0  0  0  0  0  0
   51.1224    3.0380   17.7942 C   0  0  0  0  0  0  0  0  0  0  0  0
   47.2904    6.0633   18.8793 C   0  0  0  0  0  0  0  0  0  0  0  0
   47.5458    7.5435   18.9488 C   0  0  0  0  0  0  0  0  0  0  0  0
   52.3227    3.5690   18.2018 C   0  0  0  0  0  0  0  0  0  0  0  0
   51.0654    1.6849   17.4500 C   0  0  0  0  0  0  0  0  0  0  0  0
   53.4306    2.7397   18.2554 C   0  0  0  0  0  0  0  0  0  0  0  0
   52.1837    0.8820   17.5125 C   0  0  0  0  0  0  0  0  0  0  0  0
   53.3850    1.4035   17.9181 C   0  0  0  0  0  0  0  0  0  0  0  0
   49.6622    4.6537   18.2877 H   0  0  0  0  0  0  0  0  0  0  0  0
   49.1190    3.3009   17.1222 H   0  0  0  0  0  0  0  0  0  0  0  0
   50.1200    4.5772   19.7260 H   0  0  0  0  0  0  0  0  0  0  0  0
   48.7362    3.4405   19.5373 H   0  0  0  0  0  0  0  0  0  0  0  0
   46.8843    5.7748   19.8588 H   0  0  0  0  0  0  0  0  0  0  0  0
   46.5220    5.8192   18.1177 H   0  0  0  0  0  0  0  0  0  0  0  0
   47.9444    7.8835   19.9005 H   0  0  0  0  0  0  0  0  0  0  0  0
   46.6370    8.1020   18.6099 H   0  0  0  0  0  0  0  0  0  0  0  0
   52.3795    4.6052   18.4684 H   0  0  0  0  0  0  0  0  0  0  0  0
   50.1158    1.2453   17.1227 H   0  0  0  0  0  0  0  0  0  0  0  0
   54.3956    3.1224   18.5723 H   0  0  0  0  0  0  0  0  0  0  0  0
   52.0651   -0.1576   17.2307 H   0  0  0  0  0  0  0  0  0  0  0  0
   54.2414    0.7437   17.9549 H   0  0  0  0  0  0  0  0  0  0  0  0
  3  2  2  0
  4  2  1  0
  5  3  1  0
  6  4  1  0
  7  2  1  0
  5  8  1  0
  9  4  1  0
 10  7  1  0
 11  8  2  0
 12  8  1  0
 13 11  1  0
 14 12  2  0
 15 13  2  0
 10  9  1  0
  6  5  1  0
 14 15  1  0
  1 16  1  0
  5 17  1  6
  6 18  1  0
  6 19  1  0
  9 20  1  0
  9 21  1  0
 10 22  1  0
 10 23  1  0
 11 24  1  0
 12 25  1  0
 13 26  1  0
 14 27  1  0
 15 28  1  0
M  END
> <Uni-Dock RESULT> 
ENERGY=   -3.428  LOWER_BOUND=    9.716  UPPER_BOUND=   11.169
INTER + INTRA:          -3.428
INTER:                  -3.428
INTRA:                   0.000
UNBOUND:                 0.000

$$$$

     RDKit          3D

 28 29  0  0  0  0  0  0  0  0999 V2000
   46.1964    6.2400   12.2632 Cl  0  0  0  0  0  0  0  0  0  0  0  0
   48.1318    8.1413   12.2463 C   0  0  0  0  0  0  0  0  0  0  0  0
   46.8950    7.9546   12.0210 N   0  0  0  0  0  0  0  0  0  0  0  0
   48.5911    7.2163   13.2258 N   0  0  0  0  0  0  0  0  0  0  0  0
   46.3783    6.8739   12.8304 C   0  0  2  0  0  0  0  0  0  0  0  0
   47.6562    6.0889   13.1268 C   0  0  0  0  0  0  0  0  0  0  0  0
   49.5847    9.1374   11.8102 S   0  0  0  0  0  0  0  0  0  0  0  0
   45.3357    6.0739   12.1908 C   0  0  0  0  0  0  0  0  0  0  0  0
   49.7401    7.6909   13.9228 C   0  0  0  0  0  0  0  0  0  0  0  0
   50.7324    8.2503   12.9412 C   0  0  0  0  0  0  0  0  0  0  0  0
   45.4288    5.6336   10.8923 C   0  0  0  0  0  0  0  0  0  0  0  0
   44.1990    5.7459   12.9345 C   0  0  0  0  0  0  0  0  0  0  0  0
   44.3899    4.8804   10.3713 C   0  0  0  0  0  0  0  0  0  0  0  0
   43.1795    4.9946   12.3912 C   0  0  0  0  0  0  0  0  0  0  0  0
   43.2643    4.5513   11.0966 C   0  0  0  0  0  0  0  0  0  0  0  0
   47.3905    6.8394   12.6127 H   0  0  0  0  0  0  0  0  0  0  0  0
   46.0101    7.3385   13.7657 H   0  0  0  0  0  0  0  0  0  0  0  0
   47.9306    5.4695   12.2726 H   0  0  0  0  0  0  0  0  0  0  0  0
   47.6011    5.4971   14.0428 H   0  0  0  0  0  0  0  0  0  0  0  0
   50.2445    6.8556   14.4282 H   0  0  0  0  0  0  0  0  0  0  0  0
   49.4741    8.4358   14.7004 H   0  0  0  0  0  0  0  0  0  0  0  0
   51.3296    7.4985   12.4328 H   0  0  0  0  0  0  0  0  0  0  0  0
   51.3350    9.0576   13.4287 H   0  0  0  0  0  0  0  0  0  0  0  0
   46.2953    5.8785   10.3115 H   0  0  0  0  0  0  0  0  0  0  0  0
   44.1086    6.0891   13.9719 H   0  0  0  0  0  0  0  0  0  0  0  0
   44.4271    4.5148    9.3500 H   0  0  0  0  0  0  0  0  0  0  0  0
   42.3286    4.7787   13.0264 H   0  0  0  0  0  0  0  0  0  0  0  0
   42.4452    3.9642   10.7035 H   0  0  0  0  0  0  0  0  0  0  0  0
  3  2  2  0
  4  2  1  0
  5  3  1  0
  6  4  1  0
  7  2  1  0
  5  8  1  0
  9  4  1  0
 10  7  1  0
 11  8  2  0
 12  8  1  0
 13 11  1  0
 14 12  2  0
 15 13  2  0
 10  9  1  0
  6  5  1  0
 14 15  1  0
  1 16  1  0
  5 17  1  6
  6 18  1  0
  6 19  1  0
  9 20  1  0
  9 21  1  0
 10 22  1  0
 10 23  1  0
 11 24  1  0
 12 25  1  0
 13 26  1  0
 14 27  1  0
 15 28  1  0
M  END
> <Uni-Dock RESULT> 
ENERGY=   -3.316  LOWER_BOUND=    4.805  UPPER_BOUND=    5.863
INTER + INTRA:          -3.316
INTER:                  -3.316
INTRA:                   0.000
UNBOUND:                 0.000

$$$$
