
     RDKit          3D

 28 29  0  0  0  0  0  0  0  0999 V2000
   45.3819    3.7950   10.0460 Cl  0  0  0  0  0  0  0  0  0  0  0  0
   45.3607    5.1628   10.4792 C   0  0  0  0  0  0  0  0  0  0  0  0
   45.1647    5.2193    9.2080 N   0  0  0  0  0  0  0  0  0  0  0  0
   44.8986    3.9319   11.0213 N   0  0  0  0  0  0  0  0  0  0  0  0
   44.5226    3.9741    8.7607 C   0  0  2  0  0  0  0  0  0  0  0  0
   43.9108    3.4591   10.0304 C   0  0  0  0  0  0  0  0  0  0  0  0
   46.0187    6.0874   11.8979 S   0  0  0  0  0  0  0  0  0  0  0  0
   45.5399    3.1314    8.1500 C   0  0  0  0  0  0  0  0  0  0  0  0
   45.5443    3.6212   12.2752 C   0  0  0  0  0  0  0  0  0  0  0  0
   45.4286    4.8611   13.1443 C   0  0  0  0  0  0  0  0  0  0  0  0
   46.4418    3.7432    7.2704 C   0  0  0  0  0  0  0  0  0  0  0  0
   45.7130    1.7859    8.3432 C   0  0  0  0  0  0  0  0  0  0  0  0
   47.4391    3.0177    6.6448 C   0  0  0  0  0  0  0  0  0  0  0  0
   46.7042    1.0506    7.7249 C   0  0  0  0  0  0  0  0  0  0  0  0
   47.5859    1.6740    6.8588 C   0  0  0  0  0  0  0  0  0  0  0  0
   45.9296    3.2040    8.9425 H   0  0  0  0  0  0  0  0  0  0  0  0
   43.7491    4.2241    8.0216 H   0  0  0  0  0  0  0  0  0  0  0  0
   42.9646    3.9952   10.2311 H   0  0  0  0  0  0  0  0  0  0  0  0
   43.8232    2.3884   10.1382 H   0  0  0  0  0  0  0  0  0  0  0  0
   45.0256    2.7604   12.7204 H   0  0  0  0  0  0  0  0  0  0  0  0
   46.6381    3.4078   12.1259 H   0  0  0  0  0  0  0  0  0  0  0  0
   46.0856    4.8331   14.0031 H   0  0  0  0  0  0  0  0  0  0  0  0
   44.3535    5.0053   13.3521 H   0  0  0  0  0  0  0  0  0  0  0  0
   46.3651    4.8186    7.0661 H   0  0  0  0  0  0  0  0  0  0  0  0
   45.0466    1.2607    9.0098 H   0  0  0  0  0  0  0  0  0  0  0  0
   48.1081    3.5196    5.9803 H   0  0  0  0  0  0  0  0  0  0  0  0
   46.8238   -0.0097    7.8909 H   0  0  0  0  0  0  0  0  0  0  0  0
   48.3741    1.1431    6.3539 H   0  0  0  0  0  0  0  0  0  0  0  0
  3  2  2  0
  4  2  1  0
  5  3  1  0
  6  4  1  0
  7  2  1  0
  5  8  1  0
  9  4  1  0
 10  7  1  0
 11  8  2  0
 12  8  1  0
 13 11  1  0
 14 12  2  0
 15 13  2  0
 10  9  1  0
  6  5  1  0
 14 15  1  0
  1 16  1  0
  5 17  1  6
  6 18  1  0
  6 19  1  0
  9 20  1  0
  9 21  1  0
 10 22  1  0
 10 23  1  0
 11 24  1  0
 12 25  1  0
 13 26  1  0
 14 27  1  0
 15 28  1  0
M  END
> <Uni-Dock RESULT> 
ENERGY=   -6.123  LOWER_BOUND=    0.000  UPPER_BOUND=    0.000
INTER + INTRA:          -6.123
INTER:                  -6.123
INTRA:                   0.000
UNBOUND:                 0.000

$$$$

     RDKit          3D

 28 29  0  0  0  0  0  0  0  0999 V2000
   45.2828    3.5650   10.5641 Cl  0  0  0  0  0  0  0  0  0  0  0  0
   45.1405    4.8916   11.0922 C   0  0  0  0  0  0  0  0  0  0  0  0
   44.7130    4.9743    9.8806 N   0  0  0  0  0  0  0  0  0  0  0  0
   44.9680    3.5803   11.6149 N   0  0  0  0  0  0  0  0  0  0  0  0
   44.1896    3.6656    9.4607 C   0  0  2  0  0  0  0  0  0  0  0  0
   43.8979    3.0043   10.7758 C   0  0  0  0  0  0  0  0  0  0  0  0
   45.9007    5.8425   12.4407 S   0  0  0  0  0  0  0  0  0  0  0  0
   45.1924    3.0209    8.6261 C   0  0  0  0  0  0  0  0  0  0  0  0
   45.8668    3.3179   12.7144 C   0  0  0  0  0  0  0  0  0  0  0  0
   45.7296    4.4838   13.6777 C   0  0  0  0  0  0  0  0  0  0  0  0
   45.8224    3.8055    7.6519 C   0  0  0  0  0  0  0  0  0  0  0  0
   45.5919    1.7117    8.6893 C   0  0  0  0  0  0  0  0  0  0  0  0
   46.7860    3.2740    6.8144 C   0  0  0  0  0  0  0  0  0  0  0  0
   46.5524    1.1692    7.8594 C   0  0  0  0  0  0  0  0  0  0  0  0
   47.1634    1.9614    6.9027 C   0  0  0  0  0  0  0  0  0  0  0  0
   45.7034    3.1176    9.3435 H   0  0  0  0  0  0  0  0  0  0  0  0
   43.2678    3.8249    8.8846 H   0  0  0  0  0  0  0  0  0  0  0  0
   42.9353    3.3763   11.1733 H   0  0  0  0  0  0  0  0  0  0  0  0
   43.9882    1.9293   10.8193 H   0  0  0  0  0  0  0  0  0  0  0  0
   45.5679    2.3674   13.1783 H   0  0  0  0  0  0  0  0  0  0  0  0
   46.9353    3.2852   12.3655 H   0  0  0  0  0  0  0  0  0  0  0  0
   46.5273    4.5200   14.4074 H   0  0  0  0  0  0  0  0  0  0  0  0
   44.7000    4.4485   14.0759 H   0  0  0  0  0  0  0  0  0  0  0  0
   45.5542    4.8638    7.5419 H   0  0  0  0  0  0  0  0  0  0  0  0
   45.1401    1.0591    9.4202 H   0  0  0  0  0  0  0  0  0  0  0  0
   47.2442    3.9038    6.0835 H   0  0  0  0  0  0  0  0  0  0  0  0
   46.8532    0.1342    7.9255 H   0  0  0  0  0  0  0  0  0  0  0  0
   47.9168    1.5837    6.2336 H   0  0  0  0  0  0  0  0  0  0  0  0
  3  2  2  0
  4  2  1  0
  5  3  1  0
  6  4  1  0
  7  2  1  0
  5  8  1  0
  9  4  1  0
 10  7  1  0
 11  8  2  0
 12  8  1  0
 13 11  1  0
 14 12  2  0
 15 13  2  0
 10  9  1  0
  6  5  1  0
 14 15  1  0
  1 16  1  0
  5 17  1  6
  6 18  1  0
  6 19  1  0
  9 20  1  0
  9 21  1  0
 10 22  1  0
 10 23  1  0
 11 24  1  0
 12 25  1  0
 13 26  1  0
 14 27  1  0
 15 28  1  0
M  END
> <Uni-Dock RESULT> 
ENERGY=   -5.743  LOWER_BOUND=    0.652  UPPER_BOUND=    0.665
INTER + INTRA:          -5.743
INTER:                  -5.743
INTRA:                   0.000
UNBOUND:                 0.000

$$$$

     RDKit          3D

 28 29  0  0  0  0  0  0  0  0999 V2000
   44.9818    4.4603   10.9393 Cl  0  0  0  0  0  0  0  0  0  0  0  0
   44.5899    3.1388   10.5405 C   0  0  0  0  0  0  0  0  0  0  0  0
   44.3730    3.1754   11.8091 N   0  0  0  0  0  0  0  0  0  0  0  0
   44.4894    4.4328    9.9593 N   0  0  0  0  0  0  0  0  0  0  0  0
   44.0934    4.5616   12.2133 C   0  0  2  0  0  0  0  0  0  0  0  0
   43.6596    5.1873   10.9201 C   0  0  0  0  0  0  0  0  0  0  0  0
   44.9829    2.0280    9.1576 S   0  0  0  0  0  0  0  0  0  0  0  0
   45.2968    5.1102   12.8204 C   0  0  0  0  0  0  0  0  0  0  0  0
   45.2083    4.5176    8.7096 C   0  0  0  0  0  0  0  0  0  0  0  0
   44.7651    3.3322    7.8703 C   0  0  0  0  0  0  0  0  0  0  0  0
   45.9869    4.3004   13.7311 C   0  0  0  0  0  0  0  0  0  0  0  0
   45.8350    6.3503   12.5962 C   0  0  0  0  0  0  0  0  0  0  0  0
   47.1388    4.7423   14.3558 C   0  0  0  0  0  0  0  0  0  0  0  0
   46.9838    6.8031   13.2132 C   0  0  0  0  0  0  0  0  0  0  0  0
   47.6514    5.9873   14.1104 C   0  0  0  0  0  0  0  0  0  0  0  0
   45.6596    4.9103   12.0370 H   0  0  0  0  0  0  0  0  0  0  0  0
   43.2735    4.5551   12.9445 H   0  0  0  0  0  0  0  0  0  0  0  0
   42.6046    4.9258   10.7163 H   0  0  0  0  0  0  0  0  0  0  0  0
   43.8707    6.2374   10.7838 H   0  0  0  0  0  0  0  0  0  0  0  0
   44.9507    5.4743    8.2336 H   0  0  0  0  0  0  0  0  0  0  0  0
   46.3171    4.4269    8.8729 H   0  0  0  0  0  0  0  0  0  0  0  0
   45.4133    3.1537    7.0228 H   0  0  0  0  0  0  0  0  0  0  0  0
   43.6939    3.4826    7.6471 H   0  0  0  0  0  0  0  0  0  0  0  0
   45.6156    3.2937   13.9612 H   0  0  0  0  0  0  0  0  0  0  0  0
   45.3454    7.0185   11.9048 H   0  0  0  0  0  0  0  0  0  0  0  0
   47.6373    4.0957   15.0445 H   0  0  0  0  0  0  0  0  0  0  0  0
   47.3918    7.7845   13.0226 H   0  0  0  0  0  0  0  0  0  0  0  0
   48.5499    6.2960   14.6157 H   0  0  0  0  0  0  0  0  0  0  0  0
  3  2  2  0
  4  2  1  0
  5  3  1  0
  6  4  1  0
  7  2  1  0
  5  8  1  0
  9  4  1  0
 10  7  1  0
 11  8  2  0
 12  8  1  0
 13 11  1  0
 14 12  2  0
 15 13  2  0
 10  9  1  0
  6  5  1  0
 14 15  1  0
  1 16  1  0
  5 17  1  6
  6 18  1  0
  6 19  1  0
  9 20  1  0
  9 21  1  0
 10 22  1  0
 10 23  1  0
 11 24  1  0
 12 25  1  0
 13 26  1  0
 14 27  1  0
 15 28  1  0
M  END
> <Uni-Dock RESULT> 
ENERGY=   -4.296  LOWER_BOUND=    2.222  UPPER_BOUND=    5.220
INTER + INTRA:          -4.296
INTER:                  -4.296
INTRA:                   0.000
UNBOUND:                 0.000

$$$$

     RDKit          3D

 28 29  0  0  0  0  0  0  0  0999 V2000
   44.4185    9.9742   10.6950 Cl  0  0  0  0  0  0  0  0  0  0  0  0
   45.1511   10.0014   11.9285 C   0  0  0  0  0  0  0  0  0  0  0  0
   45.0073   11.2396   11.6061 N   0  0  0  0  0  0  0  0  0  0  0  0
   44.0964    9.2033   11.4060 N   0  0  0  0  0  0  0  0  0  0  0  0
   43.7858   11.3923   10.8014 C   0  0  2  0  0  0  0  0  0  0  0  0
   43.0026   10.1692   11.1790 C   0  0  0  0  0  0  0  0  0  0  0  0
   46.2190    8.8423   12.8322 S   0  0  0  0  0  0  0  0  0  0  0  0
   44.1729   11.5005    9.4027 C   0  0  0  0  0  0  0  0  0  0  0  0
   44.4781    7.8149   11.2948 C   0  0  0  0  0  0  0  0  0  0  0  0
   45.0653    7.4151   12.6370 C   0  0  0  0  0  0  0  0  0  0  0  0
   45.2552   12.3346    9.0954 C   0  0  0  0  0  0  0  0  0  0  0  0
   43.5849   10.8680    8.3388 C   0  0  0  0  0  0  0  0  0  0  0  0
   45.6895   12.4971    7.7926 C   0  0  0  0  0  0  0  0  0  0  0  0
   44.0088   11.0219    7.0342 C   0  0  0  0  0  0  0  0  0  0  0  0
   45.0806   11.8509    6.7511 C   0  0  0  0  0  0  0  0  0  0  0  0
   44.5456   10.7104    9.5510 H   0  0  0  0  0  0  0  0  0  0  0  0
   43.2682   12.3076   11.1196 H   0  0  0  0  0  0  0  0  0  0  0  0
   42.5043   10.3330   12.1526 H   0  0  0  0  0  0  0  0  0  0  0  0
   42.3455    9.7524   10.4306 H   0  0  0  0  0  0  0  0  0  0  0  0
   43.5773    7.2331   11.0535 H   0  0  0  0  0  0  0  0  0  0  0  0
   45.2767    7.6752   10.5157 H   0  0  0  0  0  0  0  0  0  0  0  0
   45.6075    6.4801   12.5949 H   0  0  0  0  0  0  0  0  0  0  0  0
   44.2450    7.4752   13.3742 H   0  0  0  0  0  0  0  0  0  0  0  0
   45.7765   12.8745    9.8960 H   0  0  0  0  0  0  0  0  0  0  0  0
   42.7454   10.2135    8.5151 H   0  0  0  0  0  0  0  0  0  0  0  0
   46.5185   13.1418    7.5976 H   0  0  0  0  0  0  0  0  0  0  0  0
   43.5314   10.5140    6.2094 H   0  0  0  0  0  0  0  0  0  0  0  0
   45.4469   12.0024    5.7507 H   0  0  0  0  0  0  0  0  0  0  0  0
  3  2  2  0
  4  2  1  0
  5  3  1  0
  6  4  1  0
  7  2  1  0
  5  8  1  0
  9  4  1  0
 10  7  1  0
 11  8  2  0
 12  8  1  0
 13 11  1  0
 14 12  2  0
 15 13  2  0
 10  9  1  0
  6  5  1  0
 14 15  1  0
  1 16  1  0
  5 17  1  6
  6 18  1  0
  6 19  1  0
  9 20  1  0
  9 21  1  0
 10 22  1  0
 10 23  1  0
 11 24  1  0
 12 25  1  0
 13 26  1  0
 14 27  1  0
 15 28  1  0
M  END
> <Uni-Dock RESULT> 
ENERGY=   -3.352  LOWER_BOUND=    5.942  UPPER_BOUND=    7.430
INTER + INTRA:          -3.352
INTER:                  -3.352
INTRA:                   0.000
UNBOUND:                 0.000

$$$$

     RDKit          3D

 28 29  0  0  0  0  0  0  0  0999 V2000
   45.6949    5.9309   12.2946 Cl  0  0  0  0  0  0  0  0  0  0  0  0
   44.2683    5.9346   12.4490 C   0  0  0  0  0  0  0  0  0  0  0  0
   44.5870    7.1759   12.3252 N   0  0  0  0  0  0  0  0  0  0  0  0
   45.2034    5.0905   11.7891 N   0  0  0  0  0  0  0  0  0  0  0  0
   45.8218    7.2827   11.5336 C   0  0  2  0  0  0  0  0  0  0  0  0
   45.8375    5.9776   10.7931 C   0  0  0  0  0  0  0  0  0  0  0  0
   43.0351    4.8077   13.1631 S   0  0  0  0  0  0  0  0  0  0  0  0
   46.9299    7.5157   12.4478 C   0  0  0  0  0  0  0  0  0  0  0  0
   45.1843    3.7482   12.3217 C   0  0  0  0  0  0  0  0  0  0  0  0
   43.7310    3.3081   12.3431 C   0  0  0  0  0  0  0  0  0  0  0  0
   46.7368    8.4535   13.4699 C   0  0  0  0  0  0  0  0  0  0  0  0
   48.1589    6.9105   12.4163 C   0  0  0  0  0  0  0  0  0  0  0  0
   47.7366    8.7379   14.3820 C   0  0  0  0  0  0  0  0  0  0  0  0
   49.1648    7.1856   13.3206 C   0  0  0  0  0  0  0  0  0  0  0  0
   48.9543    8.1159   14.3238 C   0  0  0  0  0  0  0  0  0  0  0  0
   46.6621    6.7502   12.8049 H   0  0  0  0  0  0  0  0  0  0  0  0
   45.7223    8.1296   10.8408 H   0  0  0  0  0  0  0  0  0  0  0  0
   45.1547    6.0347    9.9251 H   0  0  0  0  0  0  0  0  0  0  0  0
   46.8024    5.5601   10.5475 H   0  0  0  0  0  0  0  0  0  0  0  0
   45.7939    3.1129   11.6638 H   0  0  0  0  0  0  0  0  0  0  0  0
   45.5649    3.7264   13.3795 H   0  0  0  0  0  0  0  0  0  0  0  0
   43.5699    2.4251   12.9467 H   0  0  0  0  0  0  0  0  0  0  0  0
   43.3998    3.2518   11.2909 H   0  0  0  0  0  0  0  0  0  0  0  0
   45.7775    8.9790   13.5585 H   0  0  0  0  0  0  0  0  0  0  0  0
   48.3652    6.1797   11.6498 H   0  0  0  0  0  0  0  0  0  0  0  0
   47.5518    9.4594   15.1477 H   0  0  0  0  0  0  0  0  0  0  0  0
   50.1270    6.6972   13.2785 H   0  0  0  0  0  0  0  0  0  0  0  0
   49.7076    8.3634   15.0512 H   0  0  0  0  0  0  0  0  0  0  0  0
  3  2  2  0
  4  2  1  0
  5  3  1  0
  6  4  1  0
  7  2  1  0
  5  8  1  0
  9  4  1  0
 10  7  1  0
 11  8  2  0
 12  8  1  0
 13 11  1  0
 14 12  2  0
 15 13  2  0
 10  9  1  0
  6  5  1  0
 14 15  1  0
  1 16  1  0
  5 17  1  6
  6 18  1  0
  6 19  1  0
  9 20  1  0
  9 21  1  0
 10 22  1  0
 10 23  1  0
 11 24  1  0
 12 25  1  0
 13 26  1  0
 14 27  1  0
 15 28  1  0
M  END
> <Uni-Dock RESULT> 
ENERGY=   -3.235  LOWER_BOUND=    3.635  UPPER_BOUND=    5.753
INTER + INTRA:          -3.235
INTER:                  -3.235
INTRA:                   0.000
UNBOUND:                 0.000

$$$$

     RDKit          3D

 28 29  0  0  0  0  0  0  0  0999 V2000
   51.9305    4.5182   20.2778 Cl  0  0  0  0  0  0  0  0  0  0  0  0
   52.8420    4.6699   21.3756 C   0  0  0  0  0  0  0  0  0  0  0  0
   53.5873    4.3622   20.3717 N   0  0  0  0  0  0  0  0  0  0  0  0
   51.6566    5.3349   20.9572 N   0  0  0  0  0  0  0  0  0  0  0  0
   52.9402    4.8145   19.1309 C   0  0  2  0  0  0  0  0  0  0  0  0
   52.0073    5.8789   19.6298 C   0  0  0  0  0  0  0  0  0  0  0  0
   52.7222    4.5831   23.1863 S   0  0  0  0  0  0  0  0  0  0  0  0
   52.3188    3.6622   18.4955 C   0  0  0  0  0  0  0  0  0  0  0  0
   50.6047    5.2270   21.9408 C   0  0  0  0  0  0  0  0  0  0  0  0
   51.2092    5.6361   23.2725 C   0  0  0  0  0  0  0  0  0  0  0  0
   53.0631    2.4771   18.4390 C   0  0  0  0  0  0  0  0  0  0  0  0
   51.0684    3.6098   17.9375 C   0  0  0  0  0  0  0  0  0  0  0  0
   52.5508    1.3345   17.8521 C   0  0  0  0  0  0  0  0  0  0  0  0
   50.5456    2.4759   17.3489 C   0  0  0  0  0  0  0  0  0  0  0  0
   51.2972    1.3144   17.3031 C   0  0  0  0  0  0  0  0  0  0  0  0
   51.8802    3.6043   19.2633 H   0  0  0  0  0  0  0  0  0  0  0  0
   53.7079    5.2393   18.4696 H   0  0  0  0  0  0  0  0  0  0  0  0
   52.5694    6.8161   19.7991 H   0  0  0  0  0  0  0  0  0  0  0  0
   51.0889    6.0277   19.0819 H   0  0  0  0  0  0  0  0  0  0  0  0
   49.7878    5.8979   21.6397 H   0  0  0  0  0  0  0  0  0  0  0  0
   50.2478    4.1651   22.0379 H   0  0  0  0  0  0  0  0  0  0  0  0
   50.5906    5.3593   24.1157 H   0  0  0  0  0  0  0  0  0  0  0  0
   51.4744    6.7049   23.1870 H   0  0  0  0  0  0  0  0  0  0  0  0
   54.0735    2.4429   18.8654 H   0  0  0  0  0  0  0  0  0  0  0  0
   50.4495    4.4936   17.9508 H   0  0  0  0  0  0  0  0  0  0  0  0
   53.1486    0.4497   17.8281 H   0  0  0  0  0  0  0  0  0  0  0  0
   49.5572    2.4555   16.9145 H   0  0  0  0  0  0  0  0  0  0  0  0
   50.9329    0.4063   16.8552 H   0  0  0  0  0  0  0  0  0  0  0  0
  3  2  2  0
  4  2  1  0
  5  3  1  0
  6  4  1  0
  7  2  1  0
  5  8  1  0
  9  4  1  0
 10  7  1  0
 11  8  2  0
 12  8  1  0
 13 11  1  0
 14 12  2  0
 15 13  2  0
 10  9  1  0
  6  5  1  0
 14 15  1  0
  1 16  1  0
  5 17  1  6
  6 18  1  0
  6 19  1  0
  9 20  1  0
  9 21  1  0
 10 22  1  0
 10 23  1  0
 11 24  1  0
 12 25  1  0
 13 26  1  0
 14 27  1  0
 15 28  1  0
M  END
> <Uni-Dock RESULT> 
ENERGY=   -3.181  LOWER_BOUND=   10.744  UPPER_BOUND=   12.317
INTER + INTRA:          -3.181
INTER:                  -3.181
INTRA:                   0.000
UNBOUND:                 0.000

$$$$

     RDKit          3D

 28 29  0  0  0  0  0  0  0  0999 V2000
   44.4435   10.8626    9.9792 Cl  0  0  0  0  0  0  0  0  0  0  0  0
   43.5984   10.8486    8.8196 C   0  0  0  0  0  0  0  0  0  0  0  0
   42.9986   10.0911    9.6706 N   0  0  0  0  0  0  0  0  0  0  0  0
   44.3920   11.8331    9.4703 N   0  0  0  0  0  0  0  0  0  0  0  0
   43.3509   10.5186   11.0329 C   0  0  2  0  0  0  0  0  0  0  0  0
   43.7924   11.9363   10.8160 C   0  0  0  0  0  0  0  0  0  0  0  0
   43.8230   11.1576    7.0435 S   0  0  0  0  0  0  0  0  0  0  0  0
   44.3579    9.6044   11.5508 C   0  0  0  0  0  0  0  0  0  0  0  0
   45.4395   12.3326    8.6106 C   0  0  0  0  0  0  0  0  0  0  0  0
   44.7804   12.7148    7.2969 C   0  0  0  0  0  0  0  0  0  0  0  0
   44.1570    8.2350   11.3371 C   0  0  0  0  0  0  0  0  0  0  0  0
   45.4959    9.9420   12.2354 C   0  0  0  0  0  0  0  0  0  0  0  0
   45.0626    7.2960   11.7961 C   0  0  0  0  0  0  0  0  0  0  0  0
   46.4074    9.0145   12.6986 C   0  0  0  0  0  0  0  0  0  0  0  0
   46.1908    7.6654   12.4772 C   0  0  0  0  0  0  0  0  0  0  0  0
   44.8156    9.8683   10.8394 H   0  0  0  0  0  0  0  0  0  0  0  0
   42.4485   10.4764   11.6583 H   0  0  0  0  0  0  0  0  0  0  0  0
   42.9064   12.5923   10.7292 H   0  0  0  0  0  0  0  0  0  0  0  0
   44.5462   12.3269   11.4831 H   0  0  0  0  0  0  0  0  0  0  0  0
   45.8996   13.2001    9.1044 H   0  0  0  0  0  0  0  0  0  0  0  0
   46.2006   11.5340    8.3930 H   0  0  0  0  0  0  0  0  0  0  0  0
   45.4946   12.8660    6.4988 H   0  0  0  0  0  0  0  0  0  0  0  0
   44.1007   13.5576    7.5150 H   0  0  0  0  0  0  0  0  0  0  0  0
   43.2674    7.8887   10.7960 H   0  0  0  0  0  0  0  0  0  0  0  0
   45.7026   10.9828   12.4305 H   0  0  0  0  0  0  0  0  0  0  0  0
   44.8750    6.2604   11.6138 H   0  0  0  0  0  0  0  0  0  0  0  0
   47.2988    9.3014   13.2364 H   0  0  0  0  0  0  0  0  0  0  0  0
   46.8722    6.9059   12.8188 H   0  0  0  0  0  0  0  0  0  0  0  0
  3  2  2  0
  4  2  1  0
  5  3  1  0
  6  4  1  0
  7  2  1  0
  5  8  1  0
  9  4  1  0
 10  7  1  0
 11  8  2  0
 12  8  1  0
 13 11  1  0
 14 12  2  0
 15 13  2  0
 10  9  1  0
  6  5  1  0
 14 15  1  0
  1 16  1  0
  5 17  1  6
  6 18  1  0
  6 19  1  0
  9 20  1  0
  9 21  1  0
 10 22  1  0
 10 23  1  0
 11 24  1  0
 12 25  1  0
 13 26  1  0
 14 27  1  0
 15 28  1  0
M  END
> <Uni-Dock RESULT> 
ENERGY=   -3.168  LOWER_BOUND=    5.914  UPPER_BOUND=    7.878
INTER + INTRA:          -3.168
INTER:                  -3.168
INTRA:                   0.000
UNBOUND:                 0.000

$$$$
