
     RDKit          3D

 28 29  0  0  0  0  0  0  0  0999 V2000
   44.8670    3.7362    9.8475 Cl  0  0  0  0  0  0  0  0  0  0  0  0
   44.7490    5.2681   10.3138 C   0  0  0  0  0  0  0  0  0  0  0  0
   45.1936    5.0546    9.1160 N   0  0  0  0  0  0  0  0  0  0  0  0
   43.9243    4.1866   10.7352 N   0  0  0  0  0  0  0  0  0  0  0  0
   44.6853    3.7757    8.6303 C   0  0  2  0  0  0  0  0  0  0  0  0
   44.3938    3.0456    9.9288 C   0  0  0  0  0  0  0  0  0  0  0  0
   44.7563    6.4256   11.7137 S   0  0  0  0  0  0  0  0  0  0  0  0
   45.7473    3.0120    7.9307 C   0  0  0  0  0  0  0  0  0  0  0  0
   42.9831    4.6143   11.7492 C   0  0  0  0  0  0  0  0  0  0  0  0
   43.7878    5.3232   12.8285 C   0  0  0  0  0  0  0  0  0  0  0  0
   46.5744    3.6433    7.0205 C   0  0  0  0  0  0  0  0  0  0  0  0
   45.9348    1.6649    8.1683 C   0  0  0  0  0  0  0  0  0  0  0  0
   47.5808    2.9739    6.3415 C   0  0  0  0  0  0  0  0  0  0  0  0
   46.9357    0.9863    7.4966 C   0  0  0  0  0  0  0  0  0  0  0  0
   47.7587    1.6266    6.5874 C   0  0  0  0  0  0  0  0  0  0  0  0
   45.5660    3.2285    8.7819 H   0  0  0  0  0  0  0  0  0  0  0  0
   43.7519    3.8682    8.0595 H   0  0  0  0  0  0  0  0  0  0  0  0
   45.3499    2.7070   10.3646 H   0  0  0  0  0  0  0  0  0  0  0  0
   43.6167    2.2882    9.8503 H   0  0  0  0  0  0  0  0  0  0  0  0
   42.3037    5.3918   11.3132 H   0  0  0  0  0  0  0  0  0  0  0  0
   42.4364    3.7553   12.1232 H   0  0  0  0  0  0  0  0  0  0  0  0
   43.1314    5.8955   13.4741 H   0  0  0  0  0  0  0  0  0  0  0  0
   44.5120    4.6550   13.3134 H   0  0  0  0  0  0  0  0  0  0  0  0
   46.4269    4.6887    6.8380 H   0  0  0  0  0  0  0  0  0  0  0  0
   45.2855    1.1473    8.8893 H   0  0  0  0  0  0  0  0  0  0  0  0
   48.1784    3.5364    5.6522 H   0  0  0  0  0  0  0  0  0  0  0  0
   47.0992   -0.0781    7.6709 H   0  0  0  0  0  0  0  0  0  0  0  0
   48.5323    1.0853    6.0733 H   0  0  0  0  0  0  0  0  0  0  0  0
  3  2  2  0
  4  2  1  0
  5  3  1  0
  6  4  1  0
  7  2  1  0
  5  8  1  0
  9  4  1  0
 10  7  1  0
 11  8  2  0
 12  8  1  0
 13 11  1  0
 14 12  2  0
 15 13  2  0
 10  9  1  0
  6  5  1  0
 14 15  1  0
  1 16  1  0
  5 17  1  1
  6 18  1  0
  6 19  1  0
  9 20  1  0
  9 21  1  0
 10 22  1  0
 10 23  1  0
 11 24  1  0
 12 25  1  0
 13 26  1  0
 14 27  1  0
 15 28  1  0
M  END
> <Uni-Dock RESULT> 
ENERGY=   -7.508  LOWER_BOUND=    0.000  UPPER_BOUND=    0.000
INTER + INTRA:          -7.508
INTER:                  -7.508
INTRA:                   0.000
UNBOUND:                 0.000

$$$$
