
     RDKit          3D

 28 29  0  0  0  0  0  0  0  0999 V2000
   44.9333    3.8486    9.8460 Cl  0  0  0  0  0  0  0  0  0  0  0  0
   44.6966    5.3043   10.3345 C   0  0  0  0  0  0  0  0  0  0  0  0
   45.1664    5.1093    9.1524 N   0  0  0  0  0  0  0  0  0  0  0  0
   43.8934    4.1934   10.7448 N   0  0  0  0  0  0  0  0  0  0  0  0
   44.7244    3.8518    8.6579 C   0  0  2  0  0  0  0  0  0  0  0  0
   44.4264    3.0777    9.9384 C   0  0  0  0  0  0  0  0  0  0  0  0
   44.6426    6.4566   11.7386 S   0  0  0  0  0  0  0  0  0  0  0  0
   45.7575    3.0692    7.9424 C   0  0  0  0  0  0  0  0  0  0  0  0
   42.9233    4.5963   11.7384 C   0  0  0  0  0  0  0  0  0  0  0  0
   43.7096    5.3039   12.8336 C   0  0  0  0  0  0  0  0  0  0  0  0
   45.9379    1.7068    8.1746 C   0  0  0  0  0  0  0  0  0  0  0  0
   46.5741    3.6718    7.0215 C   0  0  0  0  0  0  0  0  0  0  0  0
   46.8946    0.9658    7.5168 C   0  0  0  0  0  0  0  0  0  0  0  0
   47.5361    2.9348    6.3577 C   0  0  0  0  0  0  0  0  0  0  0  0
   47.7108    1.5788    6.5931 C   0  0  0  0  0  0  0  0  0  0  0  0
   45.5876    3.2141    8.8088 H   0  0  0  0  0  0  0  0  0  0  0  0
   43.8264    3.9220    8.0190 H   0  0  0  0  0  0  0  0  0  0  0  0
   45.3897    2.7767   10.3798 H   0  0  0  0  0  0  0  0  0  0  0  0
   43.6941    2.2764    9.7949 H   0  0  0  0  0  0  0  0  0  0  0  0
   42.3966    3.7215   12.1044 H   0  0  0  0  0  0  0  0  0  0  0  0
   42.2361    5.3250   11.2463 H   0  0  0  0  0  0  0  0  0  0  0  0
   43.0695    5.8429   13.5186 H   0  0  0  0  0  0  0  0  0  0  0  0
   44.4239    4.6122   13.2747 H   0  0  0  0  0  0  0  0  0  0  0  0
   45.3051    1.1839    8.9047 H   0  0  0  0  0  0  0  0  0  0  0  0
   46.4930    4.7081    6.7936 H   0  0  0  0  0  0  0  0  0  0  0  0
   46.9961   -0.0889    7.7313 H   0  0  0  0  0  0  0  0  0  0  0  0
   48.1696    3.4390    5.6324 H   0  0  0  0  0  0  0  0  0  0  0  0
   48.4649    0.9886    6.0765 H   0  0  0  0  0  0  0  0  0  0  0  0
  3  2  2  0
  4  2  1  0
  5  3  1  0
  6  4  1  0
  7  2  1  0
  5  8  1  0
  9  4  1  0
 10  7  1  0
 11  8  2  0
 12  8  1  0
 13 11  1  0
 14 12  2  0
 15 13  2  0
 10  9  1  0
  6  5  1  0
 14 15  1  0
  1 16  1  0
  5 17  1  6
  6 18  1  0
  6 19  1  0
  9 20  1  0
  9 21  1  0
 10 22  1  0
 10 23  1  0
 11 24  1  0
 12 25  1  0
 13 26  1  0
 14 27  1  0
 15 28  1  0
M  END
> <Uni-Dock RESULT> 
ENERGY=   -7.476  LOWER_BOUND=    0.000  UPPER_BOUND=    0.000
INTER + INTRA:          -7.476
INTER:                  -7.476
INTRA:                   0.000
UNBOUND:                 0.000

$$$$

     RDKit          3D

 28 29  0  0  0  0  0  0  0  0999 V2000
   45.6989    3.4854    8.7128 Cl  0  0  0  0  0  0  0  0  0  0  0  0
   45.9465    2.0850    8.0874 C   0  0  0  0  0  0  0  0  0  0  0  0
   45.0159    2.2227    8.9654 N   0  0  0  0  0  0  0  0  0  0  0  0
   46.1578    3.3128    7.3833 N   0  0  0  0  0  0  0  0  0  0  0  0
   44.5150    3.5529    8.9344 C   0  0  2  0  0  0  0  0  0  0  0  0
   45.6825    4.3334    8.3380 C   0  0  0  0  0  0  0  0  0  0  0  0
   47.1407    0.9244    7.3600 S   0  0  0  0  0  0  0  0  0  0  0  0
   44.2645    4.1521   10.2648 C   0  0  0  0  0  0  0  0  0  0  0  0
   46.7240    3.0677    6.0757 C   0  0  0  0  0  0  0  0  0  0  0  0
   47.9531    2.1984    6.3040 C   0  0  0  0  0  0  0  0  0  0  0  0
   44.6645    5.4516   10.5716 C   0  0  0  0  0  0  0  0  0  0  0  0
   43.6248    3.4353   11.2420 C   0  0  0  0  0  0  0  0  0  0  0  0
   44.4384    6.0222   11.8045 C   0  0  0  0  0  0  0  0  0  0  0  0
   43.3945    4.0013   12.4814 C   0  0  0  0  0  0  0  0  0  0  0  0
   43.7950    5.2953   12.7807 C   0  0  0  0  0  0  0  0  0  0  0  0
   45.0055    4.0173    9.7819 H   0  0  0  0  0  0  0  0  0  0  0  0
   43.6062    3.6659    8.3174 H   0  0  0  0  0  0  0  0  0  0  0  0
   46.4490    4.4407    9.1218 H   0  0  0  0  0  0  0  0  0  0  0  0
   45.3714    5.2590    7.8426 H   0  0  0  0  0  0  0  0  0  0  0  0
   46.9664    4.0139    5.6039 H   0  0  0  0  0  0  0  0  0  0  0  0
   45.9653    2.4909    5.4949 H   0  0  0  0  0  0  0  0  0  0  0  0
   48.3299    1.7674    5.3864 H   0  0  0  0  0  0  0  0  0  0  0  0
   48.6698    2.7352    6.9215 H   0  0  0  0  0  0  0  0  0  0  0  0
   45.1805    6.0614    9.8176 H   0  0  0  0  0  0  0  0  0  0  0  0
   43.2915    2.4380   11.0785 H   0  0  0  0  0  0  0  0  0  0  0  0
   44.7677    7.0342   11.9947 H   0  0  0  0  0  0  0  0  0  0  0  0
   42.8848    3.4094   13.2374 H   0  0  0  0  0  0  0  0  0  0  0  0
   43.6191    5.7512   13.7529 H   0  0  0  0  0  0  0  0  0  0  0  0
  3  2  2  0
  4  2  1  0
  5  3  1  0
  6  4  1  0
  7  2  1  0
  5  8  1  0
  9  4  1  0
 10  7  1  0
 11  8  2  0
 12  8  1  0
 13 11  1  0
 14 12  2  0
 15 13  2  0
 10  9  1  0
  6  5  1  0
 14 15  1  0
  1 16  1  0
  5 17  1  6
  6 18  1  0
  6 19  1  0
  9 20  1  0
  9 21  1  0
 10 22  1  0
 10 23  1  0
 11 24  1  0
 12 25  1  0
 13 26  1  0
 14 27  1  0
 15 28  1  0
M  END
> <Uni-Dock RESULT> 
ENERGY=   -5.943  LOWER_BOUND=    2.356  UPPER_BOUND=    5.511
INTER + INTRA:          -5.943
INTER:                  -5.943
INTRA:                   0.000
UNBOUND:                 0.000

$$$$
