
     RDKit          3D

 28 29  0  0  0  0  0  0  0  0999 V2000
   44.9740    3.9979   10.0383 Cl  0  0  0  0  0  0  0  0  0  0  0  0
   45.7331    2.2223    8.2690 C   0  0  0  0  0  0  0  0  0  0  0  0
   44.7545    2.4209    9.0828 N   0  0  0  0  0  0  0  0  0  0  0  0
   46.1648    3.4354    7.6682 N   0  0  0  0  0  0  0  0  0  0  0  0
   44.4343    3.8574    9.0954 C   0  0  2  0  0  0  0  0  0  0  0  0
   45.7201    4.5120    8.5679 C   0  0  0  0  0  0  0  0  0  0  0  0
   46.8028    0.9278    7.5839 S   0  0  0  0  0  0  0  0  0  0  0  0
   44.1722    4.2298   10.4980 C   0  0  0  0  0  0  0  0  0  0  0  0
   46.8558    3.2272    6.4410 C   0  0  0  0  0  0  0  0  0  0  0  0
   47.8333    2.0870    6.5933 C   0  0  0  0  0  0  0  0  0  0  0  0
   43.0767    5.0278   10.8297 C   0  0  0  0  0  0  0  0  0  0  0  0
   45.0448    3.7626   11.4619 C   0  0  0  0  0  0  0  0  0  0  0  0
   42.8729    5.3501   12.1586 C   0  0  0  0  0  0  0  0  0  0  0  0
   44.7947    4.1153   12.7815 C   0  0  0  0  0  0  0  0  0  0  0  0
   43.7226    4.9021   13.1481 C   0  0  0  0  0  0  0  0  0  0  0  0
   45.5485    3.5374    8.8858 H   0  0  0  0  0  0  0  0  0  0  0  0
   43.5919    4.0390    8.4141 H   0  0  0  0  0  0  0  0  0  0  0  0
   45.5298    5.4504    8.0423 H   0  0  0  0  0  0  0  0  0  0  0  0
   46.4167    4.6420    9.4175 H   0  0  0  0  0  0  0  0  0  0  0  0
   46.1634    3.0192    5.5883 H   0  0  0  0  0  0  0  0  0  0  0  0
   47.4456    4.1029    6.1704 H   0  0  0  0  0  0  0  0  0  0  0  0
   47.9463    1.5978    5.6022 H   0  0  0  0  0  0  0  0  0  0  0  0
   48.7624    2.3537    7.0920 H   0  0  0  0  0  0  0  0  0  0  0  0
   42.4035    5.3833   10.0486 H   0  0  0  0  0  0  0  0  0  0  0  0
   45.8963    3.1407   11.1932 H   0  0  0  0  0  0  0  0  0  0  0  0
   42.0400    5.9622   12.4495 H   0  0  0  0  0  0  0  0  0  0  0  0
   45.4687    3.7588   13.5575 H   0  0  0  0  0  0  0  0  0  0  0  0
   43.5676    5.1503   14.1816 H   0  0  0  0  0  0  0  0  0  0  0  0
  3  2  2  0
  4  2  1  0
  5  3  1  0
  6  4  1  0
  7  2  1  0
  5  8  1  0
  9  4  1  0
 10  7  1  0
 11  8  2  0
 12  8  1  0
 13 11  1  0
 14 12  2  0
 15 13  2  0
 10  9  1  0
  6  5  1  0
 14 15  1  0
  1 16  1  0
  5 17  1  6
  6 18  1  0
  6 19  1  0
  9 20  1  0
  9 21  1  0
 10 22  1  0
 10 23  1  0
 11 24  1  0
 12 25  1  0
 13 26  1  0
 14 27  1  0
 15 28  1  0
M  END
> <Uni-Dock RESULT> 
ENERGY=   -5.857  LOWER_BOUND=    0.000  UPPER_BOUND=    0.000
INTER + INTRA:          -5.857
INTER:                  -5.857
INTRA:                   0.000
UNBOUND:                 0.000

$$$$

     RDKit          3D

 28 29  0  0  0  0  0  0  0  0999 V2000
   45.4975    3.2496    9.3168 Cl  0  0  0  0  0  0  0  0  0  0  0  0
   43.4878    4.2449   10.6696 C   0  0  0  0  0  0  0  0  0  0  0  0
   43.6911    3.5909    9.5786 N   0  0  0  0  0  0  0  0  0  0  0  0
   44.3487    3.8024   11.7098 N   0  0  0  0  0  0  0  0  0  0  0  0
   44.7604    2.6064    9.8099 C   0  0  2  0  0  0  0  0  0  0  0  0
   45.4923    3.1606   11.0416 C   0  0  0  0  0  0  0  0  0  0  0  0
   42.4802    5.5665   11.3957 S   0  0  0  0  0  0  0  0  0  0  0  0
   45.6245    2.6177    8.6150 C   0  0  0  0  0  0  0  0  0  0  0  0
   43.8473    4.1068   13.0071 C   0  0  0  0  0  0  0  0  0  0  0  0
   43.3221    5.5218   13.0316 C   0  0  0  0  0  0  0  0  0  0  0  0
   46.0539    1.4231    8.0358 C   0  0  0  0  0  0  0  0  0  0  0  0
   45.9891    3.8450    8.0959 C   0  0  0  0  0  0  0  0  0  0  0  0
   46.8629    1.4854    6.9164 C   0  0  0  0  0  0  0  0  0  0  0  0
   46.8028    3.8517    6.9706 C   0  0  0  0  0  0  0  0  0  0  0  0
   47.2473    2.6919    6.3703 C   0  0  0  0  0  0  0  0  0  0  0  0
   44.7845    3.6095   10.4270 H   0  0  0  0  0  0  0  0  0  0  0  0
   44.3038    1.6315   10.0287 H   0  0  0  0  0  0  0  0  0  0  0  0
   45.9500    2.3758   11.6479 H   0  0  0  0  0  0  0  0  0  0  0  0
   46.2314    3.9088   10.6982 H   0  0  0  0  0  0  0  0  0  0  0  0
   43.0445    3.4006   13.3336 H   0  0  0  0  0  0  0  0  0  0  0  0
   44.6399    4.0606   13.7538 H   0  0  0  0  0  0  0  0  0  0  0  0
   42.5020    5.5700   13.7797 H   0  0  0  0  0  0  0  0  0  0  0  0
   44.0902    6.2857   13.1295 H   0  0  0  0  0  0  0  0  0  0  0  0
   45.7511    0.4677    8.4662 H   0  0  0  0  0  0  0  0  0  0  0  0
   45.6490    4.7712    8.5547 H   0  0  0  0  0  0  0  0  0  0  0  0
   47.2117    0.5857    6.4453 H   0  0  0  0  0  0  0  0  0  0  0  0
   47.1026    4.8067    6.5445 H   0  0  0  0  0  0  0  0  0  0  0  0
   47.8756    2.7445    5.5008 H   0  0  0  0  0  0  0  0  0  0  0  0
  3  2  2  0
  4  2  1  0
  5  3  1  0
  6  4  1  0
  7  2  1  0
  5  8  1  0
  9  4  1  0
 10  7  1  0
 11  8  2  0
 12  8  1  0
 13 11  1  0
 14 12  2  0
 15 13  2  0
 10  9  1  0
  6  5  1  0
 14 15  1  0
  1 16  1  0
  5 17  1  6
  6 18  1  0
  6 19  1  0
  9 20  1  0
  9 21  1  0
 10 22  1  0
 10 23  1  0
 11 24  1  0
 12 25  1  0
 13 26  1  0
 14 27  1  0
 15 28  1  0
M  END
> <Uni-Dock RESULT> 
ENERGY=   -5.009  LOWER_BOUND=    2.274  UPPER_BOUND=    5.415
INTER + INTRA:          -5.009
INTER:                  -5.009
INTRA:                   0.000
UNBOUND:                 0.000

$$$$

     RDKit          3D

 28 29  0  0  0  0  0  0  0  0999 V2000
   45.2588    5.4000   10.6524 Cl  0  0  0  0  0  0  0  0  0  0  0  0
   44.5742    7.7971   11.4554 C   0  0  0  0  0  0  0  0  0  0  0  0
   44.0073    6.7079   11.0661 N   0  0  0  0  0  0  0  0  0  0  0  0
   45.7103    7.5315   12.2663 N   0  0  0  0  0  0  0  0  0  0  0  0
   44.7560    5.5642   11.6116 C   0  0  2  0  0  0  0  0  0  0  0  0
   46.1343    6.1625   11.9310 C   0  0  0  0  0  0  0  0  0  0  0  0
   44.4601    9.6039   11.3477 S   0  0  0  0  0  0  0  0  0  0  0  0
   44.8387    4.5518   10.5426 C   0  0  0  0  0  0  0  0  0  0  0  0
   46.0552    8.6270   13.1077 C   0  0  0  0  0  0  0  0  0  0  0  0
   45.9909    9.9138   12.3211 C   0  0  0  0  0  0  0  0  0  0  0  0
   44.5896    3.2064   10.8156 C   0  0  0  0  0  0  0  0  0  0  0  0
   45.1692    4.9828    9.2722 C   0  0  0  0  0  0  0  0  0  0  0  0
   44.6796    2.2949    9.7800 C   0  0  0  0  0  0  0  0  0  0  0  0
   45.2461    4.0267    8.2681 C   0  0  0  0  0  0  0  0  0  0  0  0
   45.0069    2.6879    8.4994 C   0  0  0  0  0  0  0  0  0  0  0  0
   45.3472    6.5559   11.3780 H   0  0  0  0  0  0  0  0  0  0  0  0
   44.2560    5.2166   12.5260 H   0  0  0  0  0  0  0  0  0  0  0  0
   46.6298    5.6577   12.7633 H   0  0  0  0  0  0  0  0  0  0  0  0
   46.7432    6.1430   11.0075 H   0  0  0  0  0  0  0  0  0  0  0  0
   45.3960    8.7014   14.0075 H   0  0  0  0  0  0  0  0  0  0  0  0
   47.0805    8.5375   13.4663 H   0  0  0  0  0  0  0  0  0  0  0  0
   45.7252   10.7322   13.0240 H   0  0  0  0  0  0  0  0  0  0  0  0
   46.8581   10.1009   11.6917 H   0  0  0  0  0  0  0  0  0  0  0  0
   44.3307    2.8934   11.8278 H   0  0  0  0  0  0  0  0  0  0  0  0
   45.3616    6.0344    9.0692 H   0  0  0  0  0  0  0  0  0  0  0  0
   44.4944    1.2516    9.9545 H   0  0  0  0  0  0  0  0  0  0  0  0
   45.5048    4.3430    7.2599 H   0  0  0  0  0  0  0  0  0  0  0  0
   45.0777    1.9829    7.6921 H   0  0  0  0  0  0  0  0  0  0  0  0
  3  2  2  0
  4  2  1  0
  5  3  1  0
  6  4  1  0
  7  2  1  0
  5  8  1  0
  9  4  1  0
 10  7  1  0
 11  8  2  0
 12  8  1  0
 13 11  1  0
 14 12  2  0
 15 13  2  0
 10  9  1  0
  6  5  1  0
 14 15  1  0
  1 16  1  0
  5 17  1  6
  6 18  1  0
  6 19  1  0
  9 20  1  0
  9 21  1  0
 10 22  1  0
 10 23  1  0
 11 24  1  0
 12 25  1  0
 13 26  1  0
 14 27  1  0
 15 28  1  0
M  END
> <Uni-Dock RESULT> 
ENERGY=   -4.526  LOWER_BOUND=    3.946  UPPER_BOUND=    5.631
INTER + INTRA:          -4.526
INTER:                  -4.526
INTRA:                   0.000
UNBOUND:                 0.000

$$$$

     RDKit          3D

 28 29  0  0  0  0  0  0  0  0999 V2000
   46.4886    7.5677   12.1103 Cl  0  0  0  0  0  0  0  0  0  0  0  0
   44.9278    5.5938   12.8363 C   0  0  0  0  0  0  0  0  0  0  0  0
   45.8123    6.3711   13.3588 N   0  0  0  0  0  0  0  0  0  0  0  0
   44.1059    6.2895   11.9094 N   0  0  0  0  0  0  0  0  0  0  0  0
   45.6475    7.7207   12.7953 C   0  0  2  0  0  0  0  0  0  0  0  0
   44.8805    7.4681   11.4885 C   0  0  0  0  0  0  0  0  0  0  0  0
   44.3230    3.8840   12.8413 S   0  0  0  0  0  0  0  0  0  0  0  0
   46.9996    8.2496   12.5369 C   0  0  0  0  0  0  0  0  0  0  0  0
   42.8509    5.6512   11.6984 C   0  0  0  0  0  0  0  0  0  0  0  0
   43.0560    4.1645   11.5363 C   0  0  0  0  0  0  0  0  0  0  0  0
   47.3348    9.5545   12.8999 C   0  0  0  0  0  0  0  0  0  0  0  0
   47.9131    7.4112   11.9274 C   0  0  0  0  0  0  0  0  0  0  0  0
   48.6152   10.0047   12.6369 C   0  0  0  0  0  0  0  0  0  0  0  0
   49.1852    7.9128   11.6857 C   0  0  0  0  0  0  0  0  0  0  0  0
   49.5536    9.1968   12.0301 C   0  0  0  0  0  0  0  0  0  0  0  0
   45.3584    6.7978   12.1228 H   0  0  0  0  0  0  0  0  0  0  0  0
   45.0506    8.3254   13.4916 H   0  0  0  0  0  0  0  0  0  0  0  0
   44.2466    8.3105   11.2028 H   0  0  0  0  0  0  0  0  0  0  0  0
   45.6131    7.2097   10.7008 H   0  0  0  0  0  0  0  0  0  0  0  0
   42.1264    5.8440   12.5277 H   0  0  0  0  0  0  0  0  0  0  0  0
   42.3849    5.9990   10.7766 H   0  0  0  0  0  0  0  0  0  0  0  0
   42.1428    3.6503   11.9055 H   0  0  0  0  0  0  0  0  0  0  0  0
   43.3963    3.8617   10.5486 H   0  0  0  0  0  0  0  0  0  0  0  0
   46.5940   10.1952   13.3800 H   0  0  0  0  0  0  0  0  0  0  0  0
   47.6421    6.3951   11.6480 H   0  0  0  0  0  0  0  0  0  0  0  0
   48.9072   11.0033   12.9028 H   0  0  0  0  0  0  0  0  0  0  0  0
   49.9211    7.2705   11.2067 H   0  0  0  0  0  0  0  0  0  0  0  0
   50.5494    9.5428   11.8241 H   0  0  0  0  0  0  0  0  0  0  0  0
  3  2  2  0
  4  2  1  0
  5  3  1  0
  6  4  1  0
  7  2  1  0
  5  8  1  0
  9  4  1  0
 10  7  1  0
 11  8  2  0
 12  8  1  0
 13 11  1  0
 14 12  2  0
 15 13  2  0
 10  9  1  0
  6  5  1  0
 14 15  1  0
  1 16  1  0
  5 17  1  6
  6 18  1  0
  6 19  1  0
  9 20  1  0
  9 21  1  0
 10 22  1  0
 10 23  1  0
 11 24  1  0
 12 25  1  0
 13 26  1  0
 14 27  1  0
 15 28  1  0
M  END
> <Uni-Dock RESULT> 
ENERGY=   -3.754  LOWER_BOUND=    4.857  UPPER_BOUND=    6.032
INTER + INTRA:          -3.754
INTER:                  -3.754
INTRA:                   0.000
UNBOUND:                 0.000

$$$$

     RDKit          3D

 28 29  0  0  0  0  0  0  0  0999 V2000
   46.4663    6.4790   12.6295 Cl  0  0  0  0  0  0  0  0  0  0  0  0
   44.5949    4.6869   12.2473 C   0  0  0  0  0  0  0  0  0  0  0  0
   44.8827    5.6227   13.0845 N   0  0  0  0  0  0  0  0  0  0  0  0
   44.9135    5.0644   10.9151 N   0  0  0  0  0  0  0  0  0  0  0  0
   45.4474    6.7624   12.3438 C   0  0  2  0  0  0  0  0  0  0  0  0
   45.9235    6.1291   11.0277 C   0  0  0  0  0  0  0  0  0  0  0  0
   43.9147    3.0096   12.1326 S   0  0  0  0  0  0  0  0  0  0  0  0
   46.5782    7.2769   13.1383 C   0  0  0  0  0  0  0  0  0  0  0  0
   44.1821    4.3249    9.9428 C   0  0  0  0  0  0  0  0  0  0  0  0
   44.1721    2.8623   10.3163 C   0  0  0  0  0  0  0  0  0  0  0  0
   46.7388    8.6477   13.3430 C   0  0  0  0  0  0  0  0  0  0  0  0
   47.4641    6.3580   13.6672 C   0  0  0  0  0  0  0  0  0  0  0  0
   47.8148    9.0814   14.0950 C   0  0  0  0  0  0  0  0  0  0  0  0
   48.5277    6.8463   14.4147 C   0  0  0  0  0  0  0  0  0  0  0  0
   48.7195    8.1939   14.6386 C   0  0  0  0  0  0  0  0  0  0  0  0
   45.6188    5.6792   11.9137 H   0  0  0  0  0  0  0  0  0  0  0  0
   44.6510    7.4969   12.1620 H   0  0  0  0  0  0  0  0  0  0  0  0
   45.8954    6.8287   10.1894 H   0  0  0  0  0  0  0  0  0  0  0  0
   46.9348    5.7109   11.1901 H   0  0  0  0  0  0  0  0  0  0  0  0
   43.1325    4.6914    9.8250 H   0  0  0  0  0  0  0  0  0  0  0  0
   44.6570    4.3884    8.9639 H   0  0  0  0  0  0  0  0  0  0  0  0
   43.2323    2.4156    9.9269 H   0  0  0  0  0  0  0  0  0  0  0  0
   45.0845    2.3266   10.0636 H   0  0  0  0  0  0  0  0  0  0  0  0
   46.0244    9.3514   12.9138 H   0  0  0  0  0  0  0  0  0  0  0  0
   47.3303    5.2909   13.5019 H   0  0  0  0  0  0  0  0  0  0  0  0
   47.9688   10.1292   14.2724 H   0  0  0  0  0  0  0  0  0  0  0  0
   49.2380    6.1411   14.8409 H   0  0  0  0  0  0  0  0  0  0  0  0
   49.5566    8.5269   15.2235 H   0  0  0  0  0  0  0  0  0  0  0  0
  3  2  2  0
  4  2  1  0
  5  3  1  0
  6  4  1  0
  7  2  1  0
  5  8  1  0
  9  4  1  0
 10  7  1  0
 11  8  2  0
 12  8  1  0
 13 11  1  0
 14 12  2  0
 15 13  2  0
 10  9  1  0
  6  5  1  0
 14 15  1  0
  1 16  1  0
  5 17  1  6
  6 18  1  0
  6 19  1  0
  9 20  1  0
  9 21  1  0
 10 22  1  0
 10 23  1  0
 11 24  1  0
 12 25  1  0
 13 26  1  0
 14 27  1  0
 15 28  1  0
M  END
> <Uni-Dock RESULT> 
ENERGY=   -3.691  LOWER_BOUND=    4.047  UPPER_BOUND=    4.942
INTER + INTRA:          -3.691
INTER:                  -3.691
INTRA:                   0.000
UNBOUND:                 0.000

$$$$

     RDKit          3D

 28 29  0  0  0  0  0  0  0  0999 V2000
   45.6735    5.9852   12.5903 Cl  0  0  0  0  0  0  0  0  0  0  0  0
   47.8420    6.7207   13.8618 C   0  0  0  0  0  0  0  0  0  0  0  0
   47.4755    5.8268   13.0097 N   0  0  0  0  0  0  0  0  0  0  0  0
   47.2153    7.9702   13.6072 N   0  0  0  0  0  0  0  0  0  0  0  0
   46.5237    6.4351   12.0662 C   0  0  2  0  0  0  0  0  0  0  0  0
   46.0044    7.6634   12.8288 C   0  0  0  0  0  0  0  0  0  0  0  0
   48.8927    6.9862   15.3159 S   0  0  0  0  0  0  0  0  0  0  0  0
   45.4531    5.4478   11.8349 C   0  0  0  0  0  0  0  0  0  0  0  0
   47.9318    9.0690   14.1606 C   0  0  0  0  0  0  0  0  0  0  0  0
   48.3737    8.7342   15.5647 C   0  0  0  0  0  0  0  0  0  0  0  0
   44.9898    5.1892   10.5444 C   0  0  0  0  0  0  0  0  0  0  0  0
   44.9313    4.7946   12.9350 C   0  0  0  0  0  0  0  0  0  0  0  0
   43.9845    4.2548   10.3786 C   0  0  0  0  0  0  0  0  0  0  0  0
   43.9233    3.8656   12.7133 C   0  0  0  0  0  0  0  0  0  0  0  0
   43.4394    3.5833   11.4527 C   0  0  0  0  0  0  0  0  0  0  0  0
   46.5597    6.8526   13.1671 H   0  0  0  0  0  0  0  0  0  0  0  0
   47.0661    6.7350   11.1591 H   0  0  0  0  0  0  0  0  0  0  0  0
   45.7114    8.4789   12.1639 H   0  0  0  0  0  0  0  0  0  0  0  0
   45.1743    7.3391   13.4843 H   0  0  0  0  0  0  0  0  0  0  0  0
   48.8190    9.3572   13.5444 H   0  0  0  0  0  0  0  0  0  0  0  0
   47.2958    9.9505   14.2410 H   0  0  0  0  0  0  0  0  0  0  0  0
   49.3148    9.2884   15.7691 H   0  0  0  0  0  0  0  0  0  0  0  0
   47.5964    8.8382   16.3184 H   0  0  0  0  0  0  0  0  0  0  0  0
   45.4195    5.7194    9.6935 H   0  0  0  0  0  0  0  0  0  0  0  0
   45.2993    5.0032   13.9375 H   0  0  0  0  0  0  0  0  0  0  0  0
   43.6042    4.0313    9.3996 H   0  0  0  0  0  0  0  0  0  0  0  0
   43.4973    3.3392   13.5647 H   0  0  0  0  0  0  0  0  0  0  0  0
   42.6583    2.8566   11.3280 H   0  0  0  0  0  0  0  0  0  0  0  0
  3  2  2  0
  4  2  1  0
  5  3  1  0
  6  4  1  0
  7  2  1  0
  5  8  1  0
  9  4  1  0
 10  7  1  0
 11  8  2  0
 12  8  1  0
 13 11  1  0
 14 12  2  0
 15 13  2  0
 10  9  1  0
  6  5  1  0
 14 15  1  0
  1 16  1  0
  5 17  1  6
  6 18  1  0
  6 19  1  0
  9 20  1  0
  9 21  1  0
 10 22  1  0
 10 23  1  0
 11 24  1  0
 12 25  1  0
 13 26  1  0
 14 27  1  0
 15 28  1  0
M  END
> <Uni-Dock RESULT> 
ENERGY=   -3.654  LOWER_BOUND=    4.677  UPPER_BOUND=    6.055
INTER + INTRA:          -3.654
INTER:                  -3.654
INTRA:                   0.000
UNBOUND:                 0.000

$$$$

     RDKit          3D

 28 29  0  0  0  0  0  0  0  0999 V2000
   40.0435   12.3128   12.8863 Cl  0  0  0  0  0  0  0  0  0  0  0  0
   41.3304   10.7608   11.2145 C   0  0  0  0  0  0  0  0  0  0  0  0
   40.3779   10.6751   12.0775 N   0  0  0  0  0  0  0  0  0  0  0  0
   41.2679   11.9814   10.4899 N   0  0  0  0  0  0  0  0  0  0  0  0
   39.5572   11.8942   11.9984 C   0  0  2  0  0  0  0  0  0  0  0  0
   40.4956   12.9107   11.3304 C   0  0  0  0  0  0  0  0  0  0  0  0
   42.7717    9.8753   10.5603 S   0  0  0  0  0  0  0  0  0  0  0  0
   39.2301   12.2859   13.3819 C   0  0  0  0  0  0  0  0  0  0  0  0
   41.9409   11.9138    9.2371 C   0  0  0  0  0  0  0  0  0  0  0  0
   43.2715   11.2220    9.4099 C   0  0  0  0  0  0  0  0  0  0  0  0
   37.9324   12.6661   13.7261 C   0  0  0  0  0  0  0  0  0  0  0  0
   40.2483   12.2621   14.3155 C   0  0  0  0  0  0  0  0  0  0  0  0
   37.6751   13.0248   15.0362 C   0  0  0  0  0  0  0  0  0  0  0  0
   39.9364   12.6316   15.6172 C   0  0  0  0  0  0  0  0  0  0  0  0
   38.6659   13.0133   15.9953 C   0  0  0  0  0  0  0  0  0  0  0  0
   40.7027   11.9765   11.7362 H   0  0  0  0  0  0  0  0  0  0  0  0
   38.6816   11.6920   11.3664 H   0  0  0  0  0  0  0  0  0  0  0  0
   39.9571   13.6605   10.7466 H   0  0  0  0  0  0  0  0  0  0  0  0
   41.1283   13.3664   12.1152 H   0  0  0  0  0  0  0  0  0  0  0  0
   41.3404   11.3868    8.4551 H   0  0  0  0  0  0  0  0  0  0  0  0
   42.1607   12.9111    8.8564 H   0  0  0  0  0  0  0  0  0  0  0  0
   43.5178   10.7095    8.4553 H   0  0  0  0  0  0  0  0  0  0  0  0
   44.0576   11.8531    9.8185 H   0  0  0  0  0  0  0  0  0  0  0  0
   37.1473   12.6761   12.9690 H   0  0  0  0  0  0  0  0  0  0  0  0
   41.2571   11.9641   14.0373 H   0  0  0  0  0  0  0  0  0  0  0  0
   36.6879   13.3228   15.3359 H   0  0  0  0  0  0  0  0  0  0  0  0
   40.7224   12.6204   16.3692 H   0  0  0  0  0  0  0  0  0  0  0  0
   38.4699   13.2912   17.0142 H   0  0  0  0  0  0  0  0  0  0  0  0
  3  2  2  0
  4  2  1  0
  5  3  1  0
  6  4  1  0
  7  2  1  0
  5  8  1  0
  9  4  1  0
 10  7  1  0
 11  8  2  0
 12  8  1  0
 13 11  1  0
 14 12  2  0
 15 13  2  0
 10  9  1  0
  6  5  1  0
 14 15  1  0
  1 16  1  0
  5 17  1  6
  6 18  1  0
  6 19  1  0
  9 20  1  0
  9 21  1  0
 10 22  1  0
 10 23  1  0
 11 24  1  0
 12 25  1  0
 13 26  1  0
 14 27  1  0
 15 28  1  0
M  END
> <Uni-Dock RESULT> 
ENERGY=   -3.563  LOWER_BOUND=    8.606  UPPER_BOUND=   10.076
INTER + INTRA:          -3.563
INTER:                  -3.563
INTRA:                   0.000
UNBOUND:                 0.000

$$$$

     RDKit          3D

 28 29  0  0  0  0  0  0  0  0999 V2000
   50.5101    3.6309   18.1901 Cl  0  0  0  0  0  0  0  0  0  0  0  0
   49.1234    5.7654   17.5735 C   0  0  0  0  0  0  0  0  0  0  0  0
   49.8585    4.8855   16.9863 N   0  0  0  0  0  0  0  0  0  0  0  0
   48.3201    5.1790   18.5882 N   0  0  0  0  0  0  0  0  0  0  0  0
   49.5950    3.5698   17.5910 C   0  0  2  0  0  0  0  0  0  0  0  0
   48.9913    3.9227   18.9588 C   0  0  0  0  0  0  0  0  0  0  0  0
   48.7208    7.5337   17.5899 S   0  0  0  0  0  0  0  0  0  0  0  0
   50.8961    2.8901   17.7315 C   0  0  0  0  0  0  0  0  0  0  0  0
   47.1726    5.9608   18.9034 C   0  0  0  0  0  0  0  0  0  0  0  0
   47.5615    7.4152   19.0142 C   0  0  0  0  0  0  0  0  0  0  0  0
   51.0431    1.5516   17.3659 C   0  0  0  0  0  0  0  0  0  0  0  0
   51.9541    3.6227   18.2344 C   0  0  0  0  0  0  0  0  0  0  0  0
   52.2828    0.9583   17.5163 C   0  0  0  0  0  0  0  0  0  0  0  0
   53.1777    2.9793   18.3653 C   0  0  0  0  0  0  0  0  0  0  0  0
   53.3616    1.6578   18.0147 C   0  0  0  0  0  0  0  0  0  0  0  0
   49.4797    4.5267   18.2683 H   0  0  0  0  0  0  0  0  0  0  0  0
   48.8686    3.0316   16.9669 H   0  0  0  0  0  0  0  0  0  0  0  0
   48.2955    3.1625   19.3207 H   0  0  0  0  0  0  0  0  0  0  0  0
   49.8211    4.1021   19.6682 H   0  0  0  0  0  0  0  0  0  0  0  0
   46.3544    5.8452   18.1504 H   0  0  0  0  0  0  0  0  0  0  0  0
   46.7607    5.6786   19.8722 H   0  0  0  0  0  0  0  0  0  0  0  0
   46.6820    8.0282   18.7222 H   0  0  0  0  0  0  0  0  0  0  0  0
   48.0277    7.6861   19.9588 H   0  0  0  0  0  0  0  0  0  0  0  0
   50.1910    0.9965   16.9715 H   0  0  0  0  0  0  0  0  0  0  0  0
   51.8295    4.6661   18.5167 H   0  0  0  0  0  0  0  0  0  0  0  0
   52.4314   -0.0700   17.2450 H   0  0  0  0  0  0  0  0  0  0  0  0
   54.0249    3.5365   18.7592 H   0  0  0  0  0  0  0  0  0  0  0  0
   54.3263    1.2005   18.1330 H   0  0  0  0  0  0  0  0  0  0  0  0
  3  2  2  0
  4  2  1  0
  5  3  1  0
  6  4  1  0
  7  2  1  0
  5  8  1  0
  9  4  1  0
 10  7  1  0
 11  8  2  0
 12  8  1  0
 13 11  1  0
 14 12  2  0
 15 13  2  0
 10  9  1  0
  6  5  1  0
 14 15  1  0
  1 16  1  0
  5 17  1  6
  6 18  1  0
  6 19  1  0
  9 20  1  0
  9 21  1  0
 10 22  1  0
 10 23  1  0
 11 24  1  0
 12 25  1  0
 13 26  1  0
 14 27  1  0
 15 28  1  0
M  END
> <Uni-Dock RESULT> 
ENERGY=   -3.530  LOWER_BOUND=    9.549  UPPER_BOUND=   11.009
INTER + INTRA:          -3.530
INTER:                  -3.530
INTRA:                   0.000
UNBOUND:                 0.000

$$$$

     RDKit          3D

 28 29  0  0  0  0  0  0  0  0999 V2000
   47.0412    7.0850   12.4742 Cl  0  0  0  0  0  0  0  0  0  0  0  0
   46.9431    9.7021   12.4425 C   0  0  0  0  0  0  0  0  0  0  0  0
   46.5191    8.7261   13.1686 N   0  0  0  0  0  0  0  0  0  0  0  0
   48.2523    9.4535   11.9496 N   0  0  0  0  0  0  0  0  0  0  0  0
   47.5628    7.6899   13.2240 C   0  0  2  0  0  0  0  0  0  0  0  0
   48.4290    7.9929   11.9920 C   0  0  0  0  0  0  0  0  0  0  0  0
   46.4742   11.3283   11.7908 S   0  0  0  0  0  0  0  0  0  0  0  0
   46.8847    6.3861   13.1027 C   0  0  0  0  0  0  0  0  0  0  0  0
   48.9424   10.6464   11.5920 C   0  0  0  0  0  0  0  0  0  0  0  0
   48.0197   11.5565   10.8180 C   0  0  0  0  0  0  0  0  0  0  0  0
   47.2256    5.3256   13.9430 C   0  0  0  0  0  0  0  0  0  0  0  0
   45.9079    6.2562   12.1343 C   0  0  0  0  0  0  0  0  0  0  0  0
   46.5614    4.1227   13.7907 C   0  0  0  0  0  0  0  0  0  0  0  0
   45.2715    5.0269   12.0231 C   0  0  0  0  0  0  0  0  0  0  0  0
   45.5812    3.9557   12.8353 C   0  0  0  0  0  0  0  0  0  0  0  0
   47.4922    8.3575   12.2560 H   0  0  0  0  0  0  0  0  0  0  0  0
   48.1387    7.8158   14.1509 H   0  0  0  0  0  0  0  0  0  0  0  0
   49.4717    7.6971   12.1274 H   0  0  0  0  0  0  0  0  0  0  0  0
   47.9660    7.5044   11.1140 H   0  0  0  0  0  0  0  0  0  0  0  0
   49.3500   11.1892   12.4803 H   0  0  0  0  0  0  0  0  0  0  0  0
   49.7833   10.4298   10.9334 H   0  0  0  0  0  0  0  0  0  0  0  0
   48.3307   12.6054   11.0122 H   0  0  0  0  0  0  0  0  0  0  0  0
   47.8994   11.2906    9.7702 H   0  0  0  0  0  0  0  0  0  0  0  0
   48.0007    5.4555   14.6993 H   0  0  0  0  0  0  0  0  0  0  0  0
   45.6491    7.0891   11.4837 H   0  0  0  0  0  0  0  0  0  0  0  0
   46.7986    3.2856   14.4202 H   0  0  0  0  0  0  0  0  0  0  0  0
   44.4991    4.9015   11.2674 H   0  0  0  0  0  0  0  0  0  0  0  0
   45.0629    3.0228   12.7138 H   0  0  0  0  0  0  0  0  0  0  0  0
  3  2  2  0
  4  2  1  0
  5  3  1  0
  6  4  1  0
  7  2  1  0
  5  8  1  0
  9  4  1  0
 10  7  1  0
 11  8  2  0
 12  8  1  0
 13 11  1  0
 14 12  2  0
 15 13  2  0
 10  9  1  0
  6  5  1  0
 14 15  1  0
  1 16  1  0
  5 17  1  6
  6 18  1  0
  6 19  1  0
  9 20  1  0
  9 21  1  0
 10 22  1  0
 10 23  1  0
 11 24  1  0
 12 25  1  0
 13 26  1  0
 14 27  1  0
 15 28  1  0
M  END
> <Uni-Dock RESULT> 
ENERGY=   -3.198  LOWER_BOUND=    5.742  UPPER_BOUND=    6.744
INTER + INTRA:          -3.198
INTER:                  -3.198
INTRA:                   0.000
UNBOUND:                 0.000

$$$$
