
     RDKit          3D

 71 73  0  0  0  0  0  0  0  0999 V2000
    0.6915    0.0000    0.0000 Cl  0  0  0  0  0  0  0  0  0  0  0  0
   -5.0683   -3.1744   -0.2134 C   0  0  0  0  0  0  0  0  0  0  0  0
   -4.4506   -1.9605   -0.4321 C   0  0  0  0  0  0  0  0  0  0  0  0
   -4.3002   -1.0116    0.5819 C   0  0  0  0  0  0  0  0  0  0  0  0
   -4.8123   -1.3689    1.8230 C   0  0  0  0  0  0  0  0  0  0  0  0
   -5.4319   -2.5819    2.0494 C   0  0  0  0  0  0  0  0  0  0  0  0
   -5.5675   -3.5019    1.0302 C   0  0  0  0  0  0  0  0  0  0  0  0
   -2.0639    0.6184    2.1924 C   0  0  0  0  0  0  0  0  0  0  0  0
   -2.2575    0.3641    0.8560 C   0  0  0  0  0  0  0  0  0  0  0  0
   -3.6435    0.2791    0.3489 C   0  0  2  0  0  0  0  0  0  0  0  0
   -1.2122    0.1881   -0.0161 C   0  0  0  0  0  0  0  0  0  0  0  0
    0.1254    0.2559    0.3969 C   0  0  0  0  0  0  0  0  0  0  0  0
    0.3061    0.5100    1.7322 C   0  0  0  0  0  0  0  0  0  0  0  0
   -0.7598    0.6899    2.6245 C   0  0  0  0  0  0  0  0  0  0  0  0
    1.5274    0.6036    2.2873 F   0  0  0  0  0  0  0  0  0  0  0  0
    3.0723    0.3108    0.6020 O   0  0  0  0  0  0  0  0  0  0  0  0
    2.4978    0.0892   -0.4580 C   0  0  0  0  0  0  0  0  0  0  0  0
    1.0987    0.0602   -0.5725 N   0  0  0  0  0  0  0  0  0  0  0  0
   -5.1671   -4.0756   -1.3319 C   0  0  0  0  0  0  0  0  0  0  0  0
   -5.2334   -4.7883   -2.2306 N   0  0  0  0  0  0  0  0  0  0  0  0
   -4.3696    1.3998    0.9333 N   0  0  0  0  0  0  0  0  0  0  0  0
   -5.6967    1.5599    0.4266 C   0  0  0  0  0  0  0  0  0  0  0  0
   -6.3104    2.7473    1.1209 C   0  0  0  0  0  0  0  0  0  0  0  0
   -7.6998    3.1865    0.8165 C   0  0  0  0  0  0  0  0  0  0  0  0
   -6.5120    3.9909    0.2814 C   0  0  0  0  0  0  0  0  0  0  0  0
    3.3516   -0.1529   -1.6443 C   0  0  0  0  0  0  0  0  0  0  0  0
    2.9221   -0.4243   -2.9386 C   0  0  0  0  0  0  0  0  0  0  0  0
    4.0333   -0.5891   -3.7612 C   0  0  0  0  0  0  0  0  0  0  0  0
    5.0900   -0.4148   -2.9510 N   0  0  0  0  0  0  0  0  0  0  0  0
    4.6883   -0.1604   -1.7165 N   0  0  0  0  0  0  0  0  0  0  0  0
    4.0181   -0.8945   -5.2289 C   0  0  0  0  0  0  0  0  0  0  0  0
    5.1586   -0.3559   -5.8042 F   0  0  0  0  0  0  0  0  0  0  0  0
    2.8599   -0.4614   -5.8076 F   0  0  0  0  0  0  0  0  0  0  0  0
    4.1172   -2.2667   -5.3520 F   0  0  0  0  0  0  0  0  0  0  0  0
    5.5406    0.0762   -0.6024 C   0  0  0  0  0  0  0  0  0  0  0  0
    6.1286   -0.9243    0.1341 C   0  0  0  0  0  0  0  0  0  0  0  0
    5.7591    1.4173   -0.2814 C   0  0  0  0  0  0  0  0  0  0  0  0
    6.5662    1.7797    0.7772 C   0  0  0  0  0  0  0  0  0  0  0  0
    7.1526    0.7920    1.5118 C   0  0  0  0  0  0  0  0  0  0  0  0
    6.9328   -0.5301    1.1897 C   0  0  0  0  0  0  0  0  0  0  0  0
    7.5960   -1.5741    2.0227 C   0  0  0  0  0  0  0  0  0  0  0  0
    8.8898   -1.8176    1.3704 N   0  0  0  0  0  0  0  0  0  0  0  0
    0.6832    0.0000    0.0000 Cl  0  0  0  0  0  0  0  0  0  0  0  0
   -0.6915    0.0000    0.0000 H   0  0  0  0  0  0  0  0  0  0  0  0
   -4.0480   -1.6782   -1.4058 H   0  0  0  0  0  0  0  0  0  0  0  0
   -4.7433   -0.7010    2.6674 H   0  0  0  0  0  0  0  0  0  0  0  0
   -5.8343   -2.8710    3.0112 H   0  0  0  0  0  0  0  0  0  0  0  0
   -6.0464   -4.4612    1.1705 H   0  0  0  0  0  0  0  0  0  0  0  0
   -2.8573    0.7621    2.9073 H   0  0  0  0  0  0  0  0  0  0  0  0
   -3.6359    0.4322   -0.7596 H   0  0  0  0  0  0  0  0  0  0  0  0
   -1.4791   -0.0080   -1.0532 H   0  0  0  0  0  0  0  0  0  0  0  0
   -0.5874    0.8895    3.6734 H   0  0  0  0  0  0  0  0  0  0  0  0
    0.7544   -0.1470   -1.5683 H   0  0  0  0  0  0  0  0  0  0  0  0
   -3.7854    2.2402    0.9515 H   0  0  0  0  0  0  0  0  0  0  0  0
   -6.2887    0.6598    0.7163 H   0  0  0  0  0  0  0  0  0  0  0  0
   -5.7440    1.6425   -0.6769 H   0  0  0  0  0  0  0  0  0  0  0  0
   -5.9618    2.9166    2.1696 H   0  0  0  0  0  0  0  0  0  0  0  0
   -8.2694    3.6965    1.6274 H   0  0  0  0  0  0  0  0  0  0  0  0
   -8.3078    2.6357    0.0784 H   0  0  0  0  0  0  0  0  0  0  0  0
   -6.2673    3.9256   -0.7914 H   0  0  0  0  0  0  0  0  0  0  0  0
   -6.2930    4.9775    0.7753 H   0  0  0  0  0  0  0  0  0  0  0  0
    1.8765   -0.4968   -3.2596 H   0  0  0  0  0  0  0  0  0  0  0  0
    5.9446   -1.9482   -0.1331 H   0  0  0  0  0  0  0  0  0  0  0  0
    5.2955    2.2104   -0.8618 H   0  0  0  0  0  0  0  0  0  0  0  0
    6.7071    2.8320    0.9894 H   0  0  0  0  0  0  0  0  0  0  0  0
    7.7878    1.1027    2.3458 H   0  0  0  0  0  0  0  0  0  0  0  0
    7.7548   -1.1614    3.0397 H   0  0  0  0  0  0  0  0  0  0  0  0
    7.0194   -2.5064    2.0905 H   0  0  0  0  0  0  0  0  0  0  0  0
    9.4441   -0.9269    1.5297 H   0  0  0  0  0  0  0  0  0  0  0  0
    8.6889   -1.9072    0.3310 H   0  0  0  0  0  0  0  0  0  0  0  0
   -0.6832    0.0000    0.0000 H   0  0  0  0  0  0  0  0  0  0  0  0
  2  3  2  0
  3  4  1  0
  4  5  2  0
  5  6  1  0
  6  7  2  0
  2  7  1  0
  8  9  2  0
  9 10  1  0
 10  4  1  0
 11 12  2  0
 12 13  1  0
 13 14  2  0
  8 14  1  0
  9 11  1  0
 16 17  2  0
 17 18  1  0
 15 13  1  0
 18 12  1  0
  2 19  1  0
 19 20  3  0
 10 21  1  0
 21 22  1  0
 22 23  1  0
 23 24  1  0
 23 25  1  0
 24 25  1  0
 17 26  1  0
 27 28  1  0
 28 29  2  0
 29 30  1  0
 30 26  1  0
 27 26  2  0
 28 31  1  0
 31 32  1  0
 31 33  1  0
 31 34  1  0
 30 35  1  0
 37 38  1  0
 38 39  2  0
 39 40  1  0
 36 40  2  0
 36 35  1  0
 35 37  2  0
 40 41  1  0
 41 42  1  0
  1 44  1  0
  3 45  1  0
  5 46  1  0
  6 47  1  0
  7 48  1  0
  8 49  1  0
 10 50  1  6
 11 51  1  0
 14 52  1  0
 18 53  1  0
 21 54  1  0
 22 55  1  0
 22 56  1  0
 23 57  1  0
 24 58  1  0
 24 59  1  0
 25 60  1  0
 25 61  1  0
 27 62  1  0
 36 63  1  0
 37 64  1  0
 38 65  1  0
 39 66  1  0
 41 67  1  0
 41 68  1  0
 42 69  1  0
 42 70  1  0
 43 71  1  0
M  END
$$$$
