
     RDKit          3D

 71 73  0  0  0  0  0  0  0  0999 V2000
    0.6837    0.0000    0.0000 Cl  0  0  0  0  0  0  0  0  0  0  0  0
   -5.8910    1.5099   -2.2569 C   0  0  0  0  0  0  0  0  0  0  0  0
   -4.7041    1.0013   -1.7508 C   0  0  0  0  0  0  0  0  0  0  0  0
   -4.5996    0.4588   -0.4866 C   0  0  0  0  0  0  0  0  0  0  0  0
   -5.7879    0.4584    0.2589 C   0  0  0  0  0  0  0  0  0  0  0  0
   -6.9656    0.9629   -0.2419 C   0  0  0  0  0  0  0  0  0  0  0  0
   -7.0492    1.5003   -1.5092 C   0  0  0  0  0  0  0  0  0  0  0  0
   -2.5673    2.2623   -0.0434 C   0  0  0  0  0  0  0  0  0  0  0  0
   -2.3290    0.9251    0.2000 C   0  0  0  0  0  0  0  0  0  0  0  0
   -3.3945   -0.1149    0.0934 C   0  0  2  0  0  0  0  0  0  0  0  0
   -1.0436    0.5146    0.5606 C   0  0  0  0  0  0  0  0  0  0  0  0
   -0.0426    1.4597    0.6643 C   0  0  0  0  0  0  0  0  0  0  0  0
   -0.2901    2.8118    0.4167 C   0  0  0  0  0  0  0  0  0  0  0  0
   -1.5572    3.2249    0.0600 C   0  0  0  0  0  0  0  0  0  0  0  0
    0.6970    3.7335    0.5212 F   0  0  0  0  0  0  0  0  0  0  0  0
    0.7780    1.4358    3.2214 O   0  0  0  0  0  0  0  0  0  0  0  0
    1.6885    1.1358    2.3737 C   0  0  0  0  0  0  0  0  0  0  0  0
    1.2973    1.1374    1.0245 N   0  0  0  0  0  0  0  0  0  0  0  0
   -5.9157    2.0617   -3.5957 C   0  0  0  0  0  0  0  0  0  0  0  0
   -5.9300    2.5226   -4.6719 N   0  0  0  0  0  0  0  0  0  0  0  0
   -2.9809   -1.2896   -0.5622 N   0  0  0  0  0  0  0  0  0  0  0  0
   -2.7703   -1.2835   -1.9609 C   0  0  0  0  0  0  0  0  0  0  0  0
   -2.2468   -2.6493   -2.4408 C   0  0  0  0  0  0  0  0  0  0  0  0
   -0.9542   -3.1167   -1.8517 C   0  0  0  0  0  0  0  0  0  0  0  0
   -2.2379   -3.8137   -1.5215 C   0  0  0  0  0  0  0  0  0  0  0  0
    2.9888    0.8360    2.8933 C   0  0  0  0  0  0  0  0  0  0  0  0
    3.2824    0.8583    4.2592 C   0  0  0  0  0  0  0  0  0  0  0  0
    4.6233    0.5234    4.4394 C   0  0  0  0  0  0  0  0  0  0  0  0
    5.0989    0.3123    3.2229 N   0  0  0  0  0  0  0  0  0  0  0  0
    4.1312    0.4971    2.3029 N   0  0  0  0  0  0  0  0  0  0  0  0
    5.3638    0.4234    5.7233 C   0  0  0  0  0  0  0  0  0  0  0  0
    4.4819   -0.0225    6.6913 F   0  0  0  0  0  0  0  0  0  0  0  0
    6.4576   -0.3833    5.6173 F   0  0  0  0  0  0  0  0  0  0  0  0
    5.6937    1.7263    6.0839 F   0  0  0  0  0  0  0  0  0  0  0  0
    4.3773    0.3346    0.9332 C   0  0  0  0  0  0  0  0  0  0  0  0
    4.2112   -0.9083    0.3025 C   0  0  0  0  0  0  0  0  0  0  0  0
    4.8061    1.4395    0.1967 C   0  0  0  0  0  0  0  0  0  0  0  0
    5.0694    1.3220   -1.1508 C   0  0  0  0  0  0  0  0  0  0  0  0
    4.9011    0.0836   -1.7664 C   0  0  0  0  0  0  0  0  0  0  0  0
    4.4730   -1.0289   -1.0420 C   0  0  0  0  0  0  0  0  0  0  0  0
    4.3240   -2.3018   -1.7883 C   0  0  0  0  0  0  0  0  0  0  0  0
    3.0162   -2.4877   -2.3464 N   0  0  0  0  0  0  0  0  0  0  0  0
    0.6909    0.0000    0.0000 Cl  0  0  0  0  0  0  0  0  0  0  0  0
   -0.6837    0.0000    0.0000 H   0  0  0  0  0  0  0  0  0  0  0  0
   -3.8493    1.0638   -2.3816 H   0  0  0  0  0  0  0  0  0  0  0  0
   -5.7625    0.0485    1.2490 H   0  0  0  0  0  0  0  0  0  0  0  0
   -7.8759    0.9584    0.3387 H   0  0  0  0  0  0  0  0  0  0  0  0
   -7.9741    1.8862   -1.8788 H   0  0  0  0  0  0  0  0  0  0  0  0
   -3.5368    2.6109   -0.3194 H   0  0  0  0  0  0  0  0  0  0  0  0
   -3.6088   -0.3927    1.1671 H   0  0  0  0  0  0  0  0  0  0  0  0
   -0.8086   -0.5186    0.7603 H   0  0  0  0  0  0  0  0  0  0  0  0
   -1.7708    4.2684   -0.1365 H   0  0  0  0  0  0  0  0  0  0  0  0
    1.9937    0.9018    0.2942 H   0  0  0  0  0  0  0  0  0  0  0  0
   -2.2933   -1.8720   -0.0257 H   0  0  0  0  0  0  0  0  0  0  0  0
   -3.7761   -1.2248   -2.4550 H   0  0  0  0  0  0  0  0  0  0  0  0
   -2.0612   -0.5277   -2.3280 H   0  0  0  0  0  0  0  0  0  0  0  0
   -2.4498   -2.8863   -3.5232 H   0  0  0  0  0  0  0  0  0  0  0  0
   -0.2749   -3.6494   -2.5565 H   0  0  0  0  0  0  0  0  0  0  0  0
   -0.4317   -2.5377   -1.0808 H   0  0  0  0  0  0  0  0  0  0  0  0
   -2.3781   -4.8383   -1.9808 H   0  0  0  0  0  0  0  0  0  0  0  0
   -2.6494   -3.7921   -0.5007 H   0  0  0  0  0  0  0  0  0  0  0  0
    2.6463    1.0835    5.0938 H   0  0  0  0  0  0  0  0  0  0  0  0
    3.8800   -1.7777    0.8540 H   0  0  0  0  0  0  0  0  0  0  0  0
    4.9323    2.4014    0.6968 H   0  0  0  0  0  0  0  0  0  0  0  0
    5.3993    2.1958   -1.6896 H   0  0  0  0  0  0  0  0  0  0  0  0
    5.1062   -0.0175   -2.8261 H   0  0  0  0  0  0  0  0  0  0  0  0
    4.5241   -3.1577   -1.0798 H   0  0  0  0  0  0  0  0  0  0  0  0
    5.0736   -2.3868   -2.6085 H   0  0  0  0  0  0  0  0  0  0  0  0
    3.0838   -2.9398   -3.2722 H   0  0  0  0  0  0  0  0  0  0  0  0
    2.3586   -2.9724   -1.6919 H   0  0  0  0  0  0  0  0  0  0  0  0
   -0.6909    0.0000    0.0000 H   0  0  0  0  0  0  0  0  0  0  0  0
  2  3  2  0
  3  4  1  0
  4  5  2  0
  5  6  1  0
  6  7  2  0
  2  7  1  0
  8  9  2  0
  9 10  1  0
 10  4  1  0
 11 12  2  0
 12 13  1  0
 13 14  2  0
  8 14  1  0
  9 11  1  0
 16 17  2  0
 17 18  1  0
 15 13  1  0
 18 12  1  0
  2 19  1  0
 19 20  3  0
 10 21  1  0
 21 22  1  0
 22 23  1  0
 23 24  1  0
 23 25  1  0
 24 25  1  0
 17 26  1  0
 27 28  1  0
 28 29  2  0
 29 30  1  0
 30 26  1  0
 27 26  2  0
 28 31  1  0
 31 32  1  0
 31 33  1  0
 31 34  1  0
 30 35  1  0
 37 38  1  0
 38 39  2  0
 39 40  1  0
 36 40  2  0
 36 35  1  0
 35 37  2  0
 40 41  1  0
 41 42  1  0
  1 44  1  0
  3 45  1  0
  5 46  1  0
  6 47  1  0
  7 48  1  0
  8 49  1  0
 10 50  1  1
 11 51  1  0
 14 52  1  0
 18 53  1  0
 21 54  1  0
 22 55  1  0
 22 56  1  0
 23 57  1  0
 24 58  1  0
 24 59  1  0
 25 60  1  0
 25 61  1  0
 27 62  1  0
 36 63  1  0
 37 64  1  0
 38 65  1  0
 39 66  1  0
 41 67  1  0
 41 68  1  0
 42 69  1  0
 42 70  1  0
 43 71  1  0
M  END
$$$$
