
     RDKit          3D

 71 73  0  0  0  0  0  0  0  0999 V2000
    0.6893    0.0000    0.0000 Cl  0  0  0  0  0  0  0  0  0  0  0  0
   -5.5302   -2.7046   -1.9166 C   0  0  0  0  0  0  0  0  0  0  0  0
   -4.9032   -1.8314   -1.0215 C   0  0  0  0  0  0  0  0  0  0  0  0
   -3.8855   -1.0312   -1.5353 C   0  0  0  0  0  0  0  0  0  0  0  0
   -3.5481   -1.1360   -2.8840 C   0  0  0  0  0  0  0  0  0  0  0  0
   -4.1656   -1.9918   -3.7528 C   0  0  0  0  0  0  0  0  0  0  0  0
   -5.1784   -2.7869   -3.2383 C   0  0  0  0  0  0  0  0  0  0  0  0
   -2.0712   -2.1525    0.2336 C   0  0  0  0  0  0  0  0  0  0  0  0
   -2.0974   -0.7625    0.0788 C   0  0  0  0  0  0  0  0  0  0  0  0
   -3.1403   -0.0580   -0.6848 C   0  0  2  0  0  0  0  0  0  0  0  0
   -1.0310   -0.0961    0.6768 C   0  0  0  0  0  0  0  0  0  0  0  0
   -0.0332   -0.7474    1.3654 C   0  0  0  0  0  0  0  0  0  0  0  0
   -0.0320   -2.1168    1.5032 C   0  0  0  0  0  0  0  0  0  0  0  0
   -1.0729   -2.8012    0.9215 C   0  0  0  0  0  0  0  0  0  0  0  0
    0.9382   -2.7507    2.1734 F   0  0  0  0  0  0  0  0  0  0  0  0
    2.1543   -0.1931   -0.0532 O   0  0  0  0  0  0  0  0  0  0  0  0
    2.1616    0.2502    1.1316 C   0  0  0  0  0  0  0  0  0  0  0  0
    1.0391    0.0059    1.9676 N   0  0  0  0  0  0  0  0  0  0  0  0
   -6.5778   -3.5136   -1.3552 C   0  0  0  0  0  0  0  0  0  0  0  0
   -7.4328   -4.1887   -0.9102 N   0  0  0  0  0  0  0  0  0  0  0  0
   -4.0538    0.6160    0.1932 N   0  0  0  0  0  0  0  0  0  0  0  0
   -3.4774    1.5942    1.0751 C   0  0  0  0  0  0  0  0  0  0  0  0
   -4.5904    2.3277    1.8082 C   0  0  0  0  0  0  0  0  0  0  0  0
   -5.5896    3.0815    1.0033 C   0  0  0  0  0  0  0  0  0  0  0  0
   -5.9944    1.7923    1.6849 C   0  0  0  0  0  0  0  0  0  0  0  0
    3.3150    1.0107    1.6427 C   0  0  0  0  0  0  0  0  0  0  0  0
    3.4801    1.5380    2.9171 C   0  0  0  0  0  0  0  0  0  0  0  0
    4.7171    2.1736    2.9422 C   0  0  0  0  0  0  0  0  0  0  0  0
    5.2492    2.0148    1.7105 N   0  0  0  0  0  0  0  0  0  0  0  0
    4.4232    1.3290    0.9427 N   0  0  0  0  0  0  0  0  0  0  0  0
    5.2954    2.8743    4.1218 C   0  0  0  0  0  0  0  0  0  0  0  0
    5.4699    1.9858    5.1741 F   0  0  0  0  0  0  0  0  0  0  0  0
    6.5617    3.2988    3.7660 F   0  0  0  0  0  0  0  0  0  0  0  0
    4.5569    3.9745    4.5002 F   0  0  0  0  0  0  0  0  0  0  0  0
    4.5827    0.9384   -0.4243 C   0  0  0  0  0  0  0  0  0  0  0  0
    5.0761   -0.2952   -0.7914 C   0  0  0  0  0  0  0  0  0  0  0  0
    4.2023    1.8826   -1.3840 C   0  0  0  0  0  0  0  0  0  0  0  0
    4.3383    1.5355   -2.7155 C   0  0  0  0  0  0  0  0  0  0  0  0
    4.8286    0.3093   -3.0588 C   0  0  0  0  0  0  0  0  0  0  0  0
    5.2015   -0.6157   -2.1054 C   0  0  0  0  0  0  0  0  0  0  0  0
    5.7273   -1.9356   -2.5732 C   0  0  0  0  0  0  0  0  0  0  0  0
    7.1650   -1.7878   -2.7019 N   0  0  0  0  0  0  0  0  0  0  0  0
    0.6870    0.0000    0.0000 Cl  0  0  0  0  0  0  0  0  0  0  0  0
   -0.6893    0.0000    0.0000 H   0  0  0  0  0  0  0  0  0  0  0  0
   -5.1937   -1.7886    0.0005 H   0  0  0  0  0  0  0  0  0  0  0  0
   -2.7554   -0.5128   -3.2845 H   0  0  0  0  0  0  0  0  0  0  0  0
   -3.9062   -2.0743   -4.7945 H   0  0  0  0  0  0  0  0  0  0  0  0
   -5.6952   -3.4861   -3.9066 H   0  0  0  0  0  0  0  0  0  0  0  0
   -2.8453   -2.7709   -0.1911 H   0  0  0  0  0  0  0  0  0  0  0  0
   -2.6738    0.6778   -1.4072 H   0  0  0  0  0  0  0  0  0  0  0  0
   -0.9196    0.9903    0.6087 H   0  0  0  0  0  0  0  0  0  0  0  0
   -1.0691   -3.8951    1.0330 H   0  0  0  0  0  0  0  0  0  0  0  0
    0.9811    0.3439    2.9543 H   0  0  0  0  0  0  0  0  0  0  0  0
   -4.5264   -0.0818    0.8332 H   0  0  0  0  0  0  0  0  0  0  0  0
   -2.8839    2.3253    0.5190 H   0  0  0  0  0  0  0  0  0  0  0  0
   -2.8408    1.0574    1.8526 H   0  0  0  0  0  0  0  0  0  0  0  0
   -4.2615    2.8066    2.7603 H   0  0  0  0  0  0  0  0  0  0  0  0
   -6.0180    4.0145    1.4525 H   0  0  0  0  0  0  0  0  0  0  0  0
   -5.4633    3.0529   -0.0948 H   0  0  0  0  0  0  0  0  0  0  0  0
   -6.2212    0.9159    1.0701 H   0  0  0  0  0  0  0  0  0  0  0  0
   -6.6691    1.8789    2.5774 H   0  0  0  0  0  0  0  0  0  0  0  0
    2.7655    1.4625    3.7390 H   0  0  0  0  0  0  0  0  0  0  0  0
    5.3666   -1.0173   -0.0305 H   0  0  0  0  0  0  0  0  0  0  0  0
    3.8122    2.8592   -1.0710 H   0  0  0  0  0  0  0  0  0  0  0  0
    4.0391    2.2779   -3.4638 H   0  0  0  0  0  0  0  0  0  0  0  0
    4.9330    0.0426   -4.1046 H   0  0  0  0  0  0  0  0  0  0  0  0
    5.2454   -2.1879   -3.5347 H   0  0  0  0  0  0  0  0  0  0  0  0
    5.5284   -2.7426   -1.8615 H   0  0  0  0  0  0  0  0  0  0  0  0
    7.4797   -0.8127   -2.8276 H   0  0  0  0  0  0  0  0  0  0  0  0
    7.7136   -2.3718   -2.0543 H   0  0  0  0  0  0  0  0  0  0  0  0
   -0.6870    0.0000    0.0000 H   0  0  0  0  0  0  0  0  0  0  0  0
  2  3  2  0
  3  4  1  0
  4  5  2  0
  5  6  1  0
  6  7  2  0
  2  7  1  0
  8  9  2  0
  9 10  1  0
 10  4  1  0
 11 12  2  0
 12 13  1  0
 13 14  2  0
  8 14  1  0
  9 11  1  0
 16 17  2  0
 17 18  1  0
 15 13  1  0
 18 12  1  0
  2 19  1  0
 19 20  3  0
 10 21  1  0
 21 22  1  0
 22 23  1  0
 23 24  1  0
 23 25  1  0
 24 25  1  0
 17 26  1  0
 27 28  1  0
 28 29  2  0
 29 30  1  0
 30 26  1  0
 27 26  2  0
 28 31  1  0
 31 32  1  0
 31 33  1  0
 31 34  1  0
 30 35  1  0
 37 38  1  0
 38 39  2  0
 39 40  1  0
 36 40  2  0
 36 35  1  0
 35 37  2  0
 40 41  1  0
 41 42  1  0
  1 44  1  0
  3 45  1  0
  5 46  1  0
  6 47  1  0
  7 48  1  0
  8 49  1  0
 10 50  1  6
 11 51  1  0
 14 52  1  0
 18 53  1  0
 21 54  1  0
 22 55  1  0
 22 56  1  0
 23 57  1  0
 24 58  1  0
 24 59  1  0
 25 60  1  0
 25 61  1  0
 27 62  1  0
 36 63  1  0
 37 64  1  0
 38 65  1  0
 39 66  1  0
 41 67  1  0
 41 68  1  0
 42 69  1  0
 42 70  1  0
 43 71  1  0
M  END
$$$$
