
     RDKit          3D

 71 73  0  0  0  0  0  0  0  0999 V2000
    0.6847    0.0000    0.0000 Cl  0  0  0  0  0  0  0  0  0  0  0  0
   -4.6488   -2.3316    1.4294 C   0  0  0  0  0  0  0  0  0  0  0  0
   -4.3723   -1.5599    0.3181 C   0  0  0  0  0  0  0  0  0  0  0  0
   -3.3795   -0.6033    0.3371 C   0  0  0  0  0  0  0  0  0  0  0  0
   -2.6663   -0.4444    1.5176 C   0  0  0  0  0  0  0  0  0  0  0  0
   -2.9519   -1.2268    2.6330 C   0  0  0  0  0  0  0  0  0  0  0  0
   -3.9456   -2.1835    2.6124 C   0  0  0  0  0  0  0  0  0  0  0  0
   -1.7948    2.3392   -0.9698 C   0  0  0  0  0  0  0  0  0  0  0  0
   -1.9142    0.9712   -0.9332 C   0  0  0  0  0  0  0  0  0  0  0  0
   -3.1338    0.1883   -0.8787 C   0  0  2  0  0  0  0  0  0  0  0  0
   -0.7037    0.2709   -0.9262 C   0  0  0  0  0  0  0  0  0  0  0  0
    0.5152    0.8788   -0.9526 C   0  0  0  0  0  0  0  0  0  0  0  0
    0.6187    2.2545   -0.9885 C   0  0  0  0  0  0  0  0  0  0  0  0
   -0.5592    2.9690   -0.9965 C   0  0  0  0  0  0  0  0  0  0  0  0
    1.8446    2.8279   -1.0143 F   0  0  0  0  0  0  0  0  0  0  0  0
    1.8161   -0.0431   -3.2123 O   0  0  0  0  0  0  0  0  0  0  0  0
    2.3605   -0.3591   -2.0986 C   0  0  0  0  0  0  0  0  0  0  0  0
    1.7094    0.1026   -0.9424 N   0  0  0  0  0  0  0  0  0  0  0  0
   -5.7015   -3.3206    1.3533 C   0  0  0  0  0  0  0  0  0  0  0  0
   -6.5438   -4.1328    1.3005 N   0  0  0  0  0  0  0  0  0  0  0  0
   -4.2921    0.7554   -1.4877 N   0  0  0  0  0  0  0  0  0  0  0  0
   -5.3328    1.2127   -0.6474 C   0  0  0  0  0  0  0  0  0  0  0  0
   -5.0654    2.4028    0.2258 C   0  0  0  0  0  0  0  0  0  0  0  0
   -6.2236    2.8578    1.1079 C   0  0  0  0  0  0  0  0  0  0  0  0
   -5.7525    3.6904   -0.0258 C   0  0  0  0  0  0  0  0  0  0  0  0
    3.5609   -1.1406   -2.1586 C   0  0  0  0  0  0  0  0  0  0  0  0
    4.1340   -1.5714   -3.3538 C   0  0  0  0  0  0  0  0  0  0  0  0
    5.2748   -2.2960   -3.0735 C   0  0  0  0  0  0  0  0  0  0  0  0
    5.3824   -2.2993   -1.7437 N   0  0  0  0  0  0  0  0  0  0  0  0
    4.3621   -1.6118   -1.2058 N   0  0  0  0  0  0  0  0  0  0  0  0
    6.2085   -2.9496   -4.0294 C   0  0  0  0  0  0  0  0  0  0  0  0
    7.4401   -3.1103   -3.4348 F   0  0  0  0  0  0  0  0  0  0  0  0
    6.2899   -2.2483   -5.2004 F   0  0  0  0  0  0  0  0  0  0  0  0
    5.7407   -4.2169   -4.3187 F   0  0  0  0  0  0  0  0  0  0  0  0
    4.2386   -1.4600    0.1977 C   0  0  0  0  0  0  0  0  0  0  0  0
    4.8442   -0.3413    0.7829 C   0  0  0  0  0  0  0  0  0  0  0  0
    3.5514   -2.3883    0.9880 C   0  0  0  0  0  0  0  0  0  0  0  0
    3.5006   -2.1535    2.3372 C   0  0  0  0  0  0  0  0  0  0  0  0
    4.0937   -1.0501    2.9414 C   0  0  0  0  0  0  0  0  0  0  0  0
    4.7782   -0.1287    2.1422 C   0  0  0  0  0  0  0  0  0  0  0  0
    5.4325    1.0780    2.7488 C   0  0  0  0  0  0  0  0  0  0  0  0
    4.5086    2.1896    2.7917 N   0  0  0  0  0  0  0  0  0  0  0  0
    0.6919    0.0000    0.0000 Cl  0  0  0  0  0  0  0  0  0  0  0  0
   -0.6847    0.0000    0.0000 H   0  0  0  0  0  0  0  0  0  0  0  0
   -4.9796   -1.7486   -0.5766 H   0  0  0  0  0  0  0  0  0  0  0  0
   -1.8826    0.3052    1.5440 H   0  0  0  0  0  0  0  0  0  0  0  0
   -2.3923   -1.1020    3.5586 H   0  0  0  0  0  0  0  0  0  0  0  0
   -4.1900   -2.8066    3.4651 H   0  0  0  0  0  0  0  0  0  0  0  0
   -2.6508    2.9814   -0.9947 H   0  0  0  0  0  0  0  0  0  0  0  0
   -2.9107   -0.7130   -1.6462 H   0  0  0  0  0  0  0  0  0  0  0  0
   -0.7151   -0.8161   -0.8990 H   0  0  0  0  0  0  0  0  0  0  0  0
   -0.4700    4.0528   -1.0248 H   0  0  0  0  0  0  0  0  0  0  0  0
    2.1054   -0.1252   -0.0110 H   0  0  0  0  0  0  0  0  0  0  0  0
   -4.6034    0.3661   -2.3779 H   0  0  0  0  0  0  0  0  0  0  0  0
   -6.2211    1.5062   -1.2862 H   0  0  0  0  0  0  0  0  0  0  0  0
   -5.7510    0.4302    0.0291 H   0  0  0  0  0  0  0  0  0  0  0  0
   -4.0935    2.4002    0.7962 H   0  0  0  0  0  0  0  0  0  0  0  0
   -6.0275    3.1701    2.1520 H   0  0  0  0  0  0  0  0  0  0  0  0
   -7.1910    2.3100    0.9963 H   0  0  0  0  0  0  0  0  0  0  0  0
   -6.3840    3.8286   -0.9145 H   0  0  0  0  0  0  0  0  0  0  0  0
   -5.2408    4.6362    0.2677 H   0  0  0  0  0  0  0  0  0  0  0  0
    3.8007   -1.4064   -4.3686 H   0  0  0  0  0  0  0  0  0  0  0  0
    5.3765    0.3687    0.1307 H   0  0  0  0  0  0  0  0  0  0  0  0
    3.0897   -3.2435    0.5320 H   0  0  0  0  0  0  0  0  0  0  0  0
    2.9637   -2.8771    2.9594 H   0  0  0  0  0  0  0  0  0  0  0  0
    4.0353   -0.8921    4.0140 H   0  0  0  0  0  0  0  0  0  0  0  0
    5.7457    0.8552    3.7755 H   0  0  0  0  0  0  0  0  0  0  0  0
    6.3090    1.3031    2.0816 H   0  0  0  0  0  0  0  0  0  0  0  0
    4.9528    2.9704    3.2828 H   0  0  0  0  0  0  0  0  0  0  0  0
    4.1007    2.4281    1.8824 H   0  0  0  0  0  0  0  0  0  0  0  0
   -0.6919    0.0000    0.0000 H   0  0  0  0  0  0  0  0  0  0  0  0
  2  3  2  0
  3  4  1  0
  4  5  2  0
  5  6  1  0
  6  7  2  0
  2  7  1  0
  8  9  2  0
  9 10  1  0
 10  4  1  0
 11 12  2  0
 12 13  1  0
 13 14  2  0
  8 14  1  0
  9 11  1  0
 16 17  2  0
 17 18  1  0
 15 13  1  0
 18 12  1  0
  2 19  1  0
 19 20  3  0
 10 21  1  0
 21 22  1  0
 22 23  1  0
 23 24  1  0
 23 25  1  0
 24 25  1  0
 17 26  1  0
 27 28  1  0
 28 29  2  0
 29 30  1  0
 30 26  1  0
 27 26  2  0
 28 31  1  0
 31 32  1  0
 31 33  1  0
 31 34  1  0
 30 35  1  0
 37 38  1  0
 38 39  2  0
 39 40  1  0
 36 40  2  0
 36 35  1  0
 35 37  2  0
 40 41  1  0
 41 42  1  0
  1 44  1  0
  3 45  1  0
  5 46  1  0
  6 47  1  0
  7 48  1  0
  8 49  1  0
 10 50  1  6
 11 51  1  0
 14 52  1  0
 18 53  1  0
 21 54  1  0
 22 55  1  0
 22 56  1  0
 23 57  1  0
 24 58  1  0
 24 59  1  0
 25 60  1  0
 25 61  1  0
 27 62  1  0
 36 63  1  0
 37 64  1  0
 38 65  1  0
 39 66  1  0
 41 67  1  0
 41 68  1  0
 42 69  1  0
 42 70  1  0
 43 71  1  0
M  END
$$$$
