
     RDKit          3D

 71 73  0  0  0  0  0  0  0  0999 V2000
    0.6851    0.0000    0.0000 Cl  0  0  0  0  0  0  0  0  0  0  0  0
   -6.0167    2.4842   -1.5846 C   0  0  0  0  0  0  0  0  0  0  0  0
   -5.0702    1.6353   -1.0474 C   0  0  0  0  0  0  0  0  0  0  0  0
   -4.6150    1.7826    0.2463 C   0  0  0  0  0  0  0  0  0  0  0  0
   -5.1571    2.8339    0.9920 C   0  0  0  0  0  0  0  0  0  0  0  0
   -6.1035    3.6881    0.4651 C   0  0  0  0  0  0  0  0  0  0  0  0
   -6.5301    3.5123   -0.8176 C   0  0  0  0  0  0  0  0  0  0  0  0
   -2.0368    2.4374   -0.1990 C   0  0  0  0  0  0  0  0  0  0  0  0
   -2.2290    1.2485    0.4729 C   0  0  0  0  0  0  0  0  0  0  0  0
   -3.5955    0.8842    0.8548 C   0  0  2  0  0  0  0  0  0  0  0  0
   -1.1976    0.4003    0.7934 C   0  0  0  0  0  0  0  0  0  0  0  0
    0.1286    0.6985    0.4510 C   0  0  0  0  0  0  0  0  0  0  0  0
    0.3147    1.8772   -0.2144 C   0  0  0  0  0  0  0  0  0  0  0  0
   -0.7399    2.7447   -0.5422 C   0  0  0  0  0  0  0  0  0  0  0  0
    1.5289    2.3015   -0.6071 F   0  0  0  0  0  0  0  0  0  0  0  0
    3.0541    0.7008   -0.0035 O   0  0  0  0  0  0  0  0  0  0  0  0
    2.4842   -0.2121    0.6012 C   0  0  0  0  0  0  0  0  0  0  0  0
    1.0977   -0.2353    0.8285 N   0  0  0  0  0  0  0  0  0  0  0  0
   -6.5128    2.3607   -2.9259 C   0  0  0  0  0  0  0  0  0  0  0  0
   -6.8985    2.2716   -4.0169 N   0  0  0  0  0  0  0  0  0  0  0  0
   -3.8877   -0.5200    0.5596 N   0  0  0  0  0  0  0  0  0  0  0  0
   -5.1873   -0.8715    1.0956 C   0  0  0  0  0  0  0  0  0  0  0  0
   -5.5496   -2.3048    0.8266 C   0  0  0  0  0  0  0  0  0  0  0  0
   -5.6420   -2.7815   -0.6191 C   0  0  0  0  0  0  0  0  0  0  0  0
   -6.8964   -2.5274    0.1984 C   0  0  0  0  0  0  0  0  0  0  0  0
    3.3393   -1.3151    1.0936 C   0  0  0  0  0  0  0  0  0  0  0  0
    2.9244   -2.4359    1.7920 C   0  0  0  0  0  0  0  0  0  0  0  0
    4.0264   -3.2070    2.0584 C   0  0  0  0  0  0  0  0  0  0  0  0
    5.0867   -2.5700    1.5341 N   0  0  0  0  0  0  0  0  0  0  0  0
    4.6687   -1.4527    0.9663 N   0  0  0  0  0  0  0  0  0  0  0  0
    4.0884   -4.5024    2.7822 C   0  0  0  0  0  0  0  0  0  0  0  0
    4.2485   -5.5685    1.9193 F   0  0  0  0  0  0  0  0  0  0  0  0
    5.1580   -4.4408    3.6738 F   0  0  0  0  0  0  0  0  0  0  0  0
    2.9071   -4.6987    3.5040 F   0  0  0  0  0  0  0  0  0  0  0  0
    5.5214   -0.5237    0.3089 C   0  0  0  0  0  0  0  0  0  0  0  0
    6.1787   -0.7945   -0.8674 C   0  0  0  0  0  0  0  0  0  0  0  0
    5.6713    0.7128    0.9212 C   0  0  0  0  0  0  0  0  0  0  0  0
    6.4704    1.7098    0.3909 C   0  0  0  0  0  0  0  0  0  0  0  0
    7.1255    1.4358   -0.7843 C   0  0  0  0  0  0  0  0  0  0  0  0
    6.9744    0.1939   -1.3984 C   0  0  0  0  0  0  0  0  0  0  0  0
    7.7228   -0.0078   -2.6650 C   0  0  0  0  0  0  0  0  0  0  0  0
    9.0348   -0.5579   -2.3115 N   0  0  0  0  0  0  0  0  0  0  0  0
    0.6889    0.0000    0.0000 Cl  0  0  0  0  0  0  0  0  0  0  0  0
   -0.6851    0.0000    0.0000 H   0  0  0  0  0  0  0  0  0  0  0  0
   -4.6784    0.8336   -1.6644 H   0  0  0  0  0  0  0  0  0  0  0  0
   -4.8068    2.9519    1.9967 H   0  0  0  0  0  0  0  0  0  0  0  0
   -6.4587    4.4713    1.1297 H   0  0  0  0  0  0  0  0  0  0  0  0
   -7.2785    4.2117   -1.1900 H   0  0  0  0  0  0  0  0  0  0  0  0
   -2.8320    3.1195   -0.4612 H   0  0  0  0  0  0  0  0  0  0  0  0
   -3.7044    0.9753    1.9603 H   0  0  0  0  0  0  0  0  0  0  0  0
   -1.4621   -0.5074    1.3223 H   0  0  0  0  0  0  0  0  0  0  0  0
   -0.5647    3.6698   -1.0684 H   0  0  0  0  0  0  0  0  0  0  0  0
    0.7613   -1.0972    1.3682 H   0  0  0  0  0  0  0  0  0  0  0  0
   -3.7782   -0.7618   -0.4302 H   0  0  0  0  0  0  0  0  0  0  0  0
   -5.2000   -0.7535    2.2052 H   0  0  0  0  0  0  0  0  0  0  0  0
   -5.9932   -0.2292    0.7175 H   0  0  0  0  0  0  0  0  0  0  0  0
   -5.1994   -3.0748    1.5550 H   0  0  0  0  0  0  0  0  0  0  0  0
   -5.3944   -3.8443   -0.8484 H   0  0  0  0  0  0  0  0  0  0  0  0
   -5.4988   -2.0753   -1.4468 H   0  0  0  0  0  0  0  0  0  0  0  0
   -7.4793   -3.4437    0.4891 H   0  0  0  0  0  0  0  0  0  0  0  0
   -7.5502   -1.6699   -0.0780 H   0  0  0  0  0  0  0  0  0  0  0  0
    1.9183   -2.6893    2.0907 H   0  0  0  0  0  0  0  0  0  0  0  0
    6.0620   -1.7436   -1.3349 H   0  0  0  0  0  0  0  0  0  0  0  0
    5.1588    0.9546    1.8591 H   0  0  0  0  0  0  0  0  0  0  0  0
    6.5677    2.6665    0.8927 H   0  0  0  0  0  0  0  0  0  0  0  0
    7.7480    2.2161   -1.1948 H   0  0  0  0  0  0  0  0  0  0  0  0
    7.8485    0.9672   -3.1995 H   0  0  0  0  0  0  0  0  0  0  0  0
    7.2276   -0.7098   -3.3543 H   0  0  0  0  0  0  0  0  0  0  0  0
    9.0117   -1.0815   -1.4059 H   0  0  0  0  0  0  0  0  0  0  0  0
    9.6857    0.2576   -2.1515 H   0  0  0  0  0  0  0  0  0  0  0  0
   -0.6889    0.0000    0.0000 H   0  0  0  0  0  0  0  0  0  0  0  0
  2  3  2  0
  3  4  1  0
  4  5  2  0
  5  6  1  0
  6  7  2  0
  2  7  1  0
  8  9  2  0
  9 10  1  0
 10  4  1  0
 11 12  2  0
 12 13  1  0
 13 14  2  0
  8 14  1  0
  9 11  1  0
 16 17  2  0
 17 18  1  0
 15 13  1  0
 18 12  1  0
  2 19  1  0
 19 20  3  0
 10 21  1  0
 21 22  1  0
 22 23  1  0
 23 24  1  0
 23 25  1  0
 24 25  1  0
 17 26  1  0
 27 28  1  0
 28 29  2  0
 29 30  1  0
 30 26  1  0
 27 26  2  0
 28 31  1  0
 31 32  1  0
 31 33  1  0
 31 34  1  0
 30 35  1  0
 37 38  1  0
 38 39  2  0
 39 40  1  0
 36 40  2  0
 36 35  1  0
 35 37  2  0
 40 41  1  0
 41 42  1  0
  1 44  1  0
  3 45  1  0
  5 46  1  0
  6 47  1  0
  7 48  1  0
  8 49  1  0
 10 50  1  1
 11 51  1  0
 14 52  1  0
 18 53  1  0
 21 54  1  0
 22 55  1  0
 22 56  1  0
 23 57  1  0
 24 58  1  0
 24 59  1  0
 25 60  1  0
 25 61  1  0
 27 62  1  0
 36 63  1  0
 37 64  1  0
 38 65  1  0
 39 66  1  0
 41 67  1  0
 41 68  1  0
 42 69  1  0
 42 70  1  0
 43 71  1  0
M  END
$$$$
