
     RDKit          3D

 71 73  0  0  0  0  0  0  0  0999 V2000
    0.6862    0.0000    0.0000 Cl  0  0  0  0  0  0  0  0  0  0  0  0
   -5.9791    1.9227   -0.4080 C   0  0  0  0  0  0  0  0  0  0  0  0
   -4.7311    1.3339   -0.5496 C   0  0  0  0  0  0  0  0  0  0  0  0
   -4.3173    0.3022    0.2853 C   0  0  0  0  0  0  0  0  0  0  0  0
   -5.1649   -0.1397    1.2691 C   0  0  0  0  0  0  0  0  0  0  0  0
   -6.4115    0.4431    1.4162 C   0  0  0  0  0  0  0  0  0  0  0  0
   -6.8331    1.4796    0.5810 C   0  0  0  0  0  0  0  0  0  0  0  0
   -2.3860    1.7899    1.3855 C   0  0  0  0  0  0  0  0  0  0  0  0
   -1.9454    0.7033    0.6190 C   0  0  0  0  0  0  0  0  0  0  0  0
   -2.9590   -0.2532    0.0477 C   0  0  2  0  0  0  0  0  0  0  0  0
   -0.5927    0.5445    0.4246 C   0  0  0  0  0  0  0  0  0  0  0  0
    0.3009    1.4583    0.9883 C   0  0  0  0  0  0  0  0  0  0  0  0
   -0.1308    2.5289    1.7434 C   0  0  0  0  0  0  0  0  0  0  0  0
   -1.4924    2.6855    1.9369 C   0  0  0  0  0  0  0  0  0  0  0  0
    0.7855    3.3714    2.2572 F   0  0  0  0  0  0  0  0  0  0  0  0
    1.4793    2.5409   -1.1075 O   0  0  0  0  0  0  0  0  0  0  0  0
    2.2549    1.8286   -0.3980 C   0  0  0  0  0  0  0  0  0  0  0  0
    1.7012    1.2199    0.7357 N   0  0  0  0  0  0  0  0  0  0  0  0
   -6.3903    2.9962   -1.2901 C   0  0  0  0  0  0  0  0  0  0  0  0
   -6.7003    3.8538   -1.9963 N   0  0  0  0  0  0  0  0  0  0  0  0
   -2.6572   -0.4643   -1.3040 N   0  0  0  0  0  0  0  0  0  0  0  0
   -3.4719   -1.2488   -2.1346 C   0  0  0  0  0  0  0  0  0  0  0  0
   -3.5607   -2.7085   -1.9293 C   0  0  0  0  0  0  0  0  0  0  0  0
   -4.0750   -3.3167   -0.6796 C   0  0  0  0  0  0  0  0  0  0  0  0
   -4.9265   -3.3327   -1.9069 C   0  0  0  0  0  0  0  0  0  0  0  0
    3.6280    1.7262   -0.8426 C   0  0  0  0  0  0  0  0  0  0  0  0
    4.1112    2.3850   -1.9569 C   0  0  0  0  0  0  0  0  0  0  0  0
    5.4620    2.0799   -2.1186 C   0  0  0  0  0  0  0  0  0  0  0  0
    5.7585    1.2552   -1.1118 N   0  0  0  0  0  0  0  0  0  0  0  0
    4.6707    1.0444   -0.3538 N   0  0  0  0  0  0  0  0  0  0  0  0
    6.3661    2.5756   -3.1895 C   0  0  0  0  0  0  0  0  0  0  0  0
    6.4506    1.6717   -4.2279 F   0  0  0  0  0  0  0  0  0  0  0  0
    7.6152    2.8975   -2.6866 F   0  0  0  0  0  0  0  0  0  0  0  0
    5.8364    3.7377   -3.7141 F   0  0  0  0  0  0  0  0  0  0  0  0
    4.7129    0.2005    0.7786 C   0  0  0  0  0  0  0  0  0  0  0  0
    4.3893   -1.1432    0.5559 C   0  0  0  0  0  0  0  0  0  0  0  0
    5.0651    0.6499    2.0498 C   0  0  0  0  0  0  0  0  0  0  0  0
    5.0792   -0.2757    3.0593 C   0  0  0  0  0  0  0  0  0  0  0  0
    4.7568   -1.6124    2.8351 C   0  0  0  0  0  0  0  0  0  0  0  0
    4.4066   -2.0709    1.5833 C   0  0  0  0  0  0  0  0  0  0  0  0
    4.0565   -3.4858    1.3103 C   0  0  0  0  0  0  0  0  0  0  0  0
    5.2784   -4.1935    0.9495 N   0  0  0  0  0  0  0  0  0  0  0  0
    0.6908    0.0000    0.0000 Cl  0  0  0  0  0  0  0  0  0  0  0  0
   -0.6862    0.0000    0.0000 H   0  0  0  0  0  0  0  0  0  0  0  0
   -4.0956    1.7030   -1.3271 H   0  0  0  0  0  0  0  0  0  0  0  0
   -4.8138   -0.9413    1.8995 H   0  0  0  0  0  0  0  0  0  0  0  0
   -7.0740    0.0888    2.1944 H   0  0  0  0  0  0  0  0  0  0  0  0
   -7.8168    1.8971    0.7416 H   0  0  0  0  0  0  0  0  0  0  0  0
   -3.4548    1.8863    1.5189 H   0  0  0  0  0  0  0  0  0  0  0  0
   -2.8566   -1.1847    0.6301 H   0  0  0  0  0  0  0  0  0  0  0  0
   -0.2013   -0.2730   -0.1520 H   0  0  0  0  0  0  0  0  0  0  0  0
   -1.8583    3.5159    2.5249 H   0  0  0  0  0  0  0  0  0  0  0  0
    2.2890    0.6301    1.3517 H   0  0  0  0  0  0  0  0  0  0  0  0
   -1.6689   -0.7504   -1.4333 H   0  0  0  0  0  0  0  0  0  0  0  0
   -4.5218   -0.8647   -2.2340 H   0  0  0  0  0  0  0  0  0  0  0  0
   -3.0728   -1.1059   -3.1942 H   0  0  0  0  0  0  0  0  0  0  0  0
   -2.8355   -3.3625   -2.5404 H   0  0  0  0  0  0  0  0  0  0  0  0
   -4.4876   -2.6938    0.1234 H   0  0  0  0  0  0  0  0  0  0  0  0
   -3.7052   -4.3128   -0.3416 H   0  0  0  0  0  0  0  0  0  0  0  0
   -5.8267   -2.6577   -1.9781 H   0  0  0  0  0  0  0  0  0  0  0  0
   -5.1279   -4.3069   -2.3778 H   0  0  0  0  0  0  0  0  0  0  0  0
    3.6104    3.0453   -2.6504 H   0  0  0  0  0  0  0  0  0  0  0  0
    4.1154   -1.5036   -0.4222 H   0  0  0  0  0  0  0  0  0  0  0  0
    5.3082    1.6938    2.1838 H   0  0  0  0  0  0  0  0  0  0  0  0
    5.3526    0.0639    4.0568 H   0  0  0  0  0  0  0  0  0  0  0  0
    4.7692   -2.3365    3.6330 H   0  0  0  0  0  0  0  0  0  0  0  0
    3.6053   -3.9266    2.2367 H   0  0  0  0  0  0  0  0  0  0  0  0
    3.3510   -3.5343    0.4485 H   0  0  0  0  0  0  0  0  0  0  0  0
    5.9994   -3.9143    1.6414 H   0  0  0  0  0  0  0  0  0  0  0  0
    5.5769   -3.8360    0.0221 H   0  0  0  0  0  0  0  0  0  0  0  0
   -0.6908    0.0000    0.0000 H   0  0  0  0  0  0  0  0  0  0  0  0
  2  3  2  0
  3  4  1  0
  4  5  2  0
  5  6  1  0
  6  7  2  0
  2  7  1  0
  8  9  2  0
  9 10  1  0
 10  4  1  0
 11 12  2  0
 12 13  1  0
 13 14  2  0
  8 14  1  0
  9 11  1  0
 16 17  2  0
 17 18  1  0
 15 13  1  0
 18 12  1  0
  2 19  1  0
 19 20  3  0
 10 21  1  0
 21 22  1  0
 22 23  1  0
 23 24  1  0
 23 25  1  0
 24 25  1  0
 17 26  1  0
 27 28  1  0
 28 29  2  0
 29 30  1  0
 30 26  1  0
 27 26  2  0
 28 31  1  0
 31 32  1  0
 31 33  1  0
 31 34  1  0
 30 35  1  0
 37 38  1  0
 38 39  2  0
 39 40  1  0
 36 40  2  0
 36 35  1  0
 35 37  2  0
 40 41  1  0
 41 42  1  0
  1 44  1  0
  3 45  1  0
  5 46  1  0
  6 47  1  0
  7 48  1  0
  8 49  1  0
 10 50  1  1
 11 51  1  0
 14 52  1  0
 18 53  1  0
 21 54  1  0
 22 55  1  0
 22 56  1  0
 23 57  1  0
 24 58  1  0
 24 59  1  0
 25 60  1  0
 25 61  1  0
 27 62  1  0
 36 63  1  0
 37 64  1  0
 38 65  1  0
 39 66  1  0
 41 67  1  0
 41 68  1  0
 42 69  1  0
 42 70  1  0
 43 71  1  0
M  END
$$$$
