
     RDKit          3D

 22 12  0  0  0  0  0  0  0  0999 V2000
    0.0000    0.0000    0.0000 Cl  0  0  0  0  0  0  0  0  0  0  0  0
   -0.0002    0.3604   -0.0000 O   0  0  0  0  0  0  0  0  0  0  0  0
   -0.0003    0.3854   -0.0000 O   0  0  0  0  0  0  0  0  0  0  0  0
   -0.0018    0.3922   -0.0000 O   0  0  0  0  0  0  0  0  0  0  0  0
   -0.0011    0.3756   -0.0000 O   0  0  0  0  0  0  0  0  0  0  0  0
   -0.0006    0.3882   -0.0000 O   0  0  0  0  0  0  0  0  0  0  0  0
   -0.0012    0.3578   -0.0000 O   0  0  0  0  0  0  0  0  0  0  0  0
    0.0000    0.0000    0.0000 Al  0  0  0  0  0 15  0  0  0  0  0  0
    0.0000    0.0000    0.0000 Cl  0  0  0  0  0  0  0  0  0  0  0  0
    0.0000    0.0000    0.0000 Cl  0  0  0  0  0  0  0  0  0  0  0  0
    0.8183   -0.1802    0.0000 H   0  0  0  0  0  0  0  0  0  0  0  0
   -0.8182   -0.1803   -0.0000 H   0  0  0  0  0  0  0  0  0  0  0  0
    0.8020   -0.1926    0.0000 H   0  0  0  0  0  0  0  0  0  0  0  0
   -0.8017   -0.1928   -0.0000 H   0  0  0  0  0  0  0  0  0  0  0  0
    0.7930   -0.1955    0.0000 H   0  0  0  0  0  0  0  0  0  0  0  0
   -0.7912   -0.1967   -0.0000 H   0  0  0  0  0  0  0  0  0  0  0  0
    0.8246   -0.1874    0.0000 H   0  0  0  0  0  0  0  0  0  0  0  0
   -0.8235   -0.1882   -0.0000 H   0  0  0  0  0  0  0  0  0  0  0  0
   -0.7897   -0.1944   -0.0000 H   0  0  0  0  0  0  0  0  0  0  0  0
    0.7903   -0.1939    0.0000 H   0  0  0  0  0  0  0  0  0  0  0  0
   -0.8246   -0.1793   -0.0000 H   0  0  0  0  0  0  0  0  0  0  0  0
    0.8258   -0.1785    0.0000 H   0  0  0  0  0  0  0  0  0  0  0  0
  2 11  1  0
  2 12  1  0
  3 13  1  0
  3 14  1  0
  4 15  1  0
  4 16  1  0
  5 17  1  0
  5 18  1  0
  6 19  1  0
  6 20  1  0
  7 21  1  0
  7 22  1  0
M  CHG  4   1  -1   8   3   9  -1  10  -1
M  END
$$$$
