
     RDKit          3D

 22 12  0  0  0  0  0  0  0  0999 V2000
    0.0000    0.0000    0.0000 Cl  0  0  0  0  0  0  0  0  0  0  0  0
   -0.0081    0.3918   -0.0000 O   0  0  0  0  0  0  0  0  0  0  0  0
   -0.0008    0.3771   -0.0000 O   0  0  0  0  0  0  0  0  0  0  0  0
   -0.0011    0.3835   -0.0000 O   0  0  0  0  0  0  0  0  0  0  0  0
   -0.0061    0.3611   -0.0000 O   0  0  0  0  0  0  0  0  0  0  0  0
   -0.0000    0.3830   -0.0000 O   0  0  0  0  0  0  0  0  0  0  0  0
   -0.0027    0.3701   -0.0000 O   0  0  0  0  0  0  0  0  0  0  0  0
    0.0000    0.0000    0.0000 Al  0  0  0  0  0 15  0  0  0  0  0  0
    0.0000    0.0000    0.0000 Cl  0  0  0  0  0  0  0  0  0  0  0  0
    0.0000    0.0000    0.0000 Cl  0  0  0  0  0  0  0  0  0  0  0  0
   -0.7941   -0.1989   -0.0000 H   0  0  0  0  0  0  0  0  0  0  0  0
    0.8022   -0.1929    0.0000 H   0  0  0  0  0  0  0  0  0  0  0  0
   -0.8206   -0.1888   -0.0000 H   0  0  0  0  0  0  0  0  0  0  0  0
    0.8214   -0.1883    0.0000 H   0  0  0  0  0  0  0  0  0  0  0  0
   -0.8030   -0.1922   -0.0000 H   0  0  0  0  0  0  0  0  0  0  0  0
    0.8041   -0.1913    0.0000 H   0  0  0  0  0  0  0  0  0  0  0  0
    0.8297   -0.1786    0.0000 H   0  0  0  0  0  0  0  0  0  0  0  0
   -0.8236   -0.1825   -0.0000 H   0  0  0  0  0  0  0  0  0  0  0  0
   -0.8047   -0.1915   -0.0000 H   0  0  0  0  0  0  0  0  0  0  0  0
    0.8047   -0.1915    0.0000 H   0  0  0  0  0  0  0  0  0  0  0  0
    0.8297   -0.1841    0.0000 H   0  0  0  0  0  0  0  0  0  0  0  0
   -0.8270   -0.1859   -0.0000 H   0  0  0  0  0  0  0  0  0  0  0  0
  2 11  1  0
  2 12  1  0
  3 13  1  0
  3 14  1  0
  4 15  1  0
  4 16  1  0
  5 17  1  0
  5 18  1  0
  6 19  1  0
  6 20  1  0
  7 21  1  0
  7 22  1  0
M  CHG  4   1  -1   8   3   9  -1  10  -1
M  END
$$$$
