
     RDKit          3D

 22 12  0  0  0  0  0  0  0  0999 V2000
    0.0000    0.0000    0.0000 Cl  0  0  0  0  0  0  0  0  0  0  0  0
   -0.0016    0.3554   -0.0000 O   0  0  0  0  0  0  0  0  0  0  0  0
   -0.0044    0.3845   -0.0000 O   0  0  0  0  0  0  0  0  0  0  0  0
   -0.0055    0.3765   -0.0000 O   0  0  0  0  0  0  0  0  0  0  0  0
   -0.0022    0.3689   -0.0000 O   0  0  0  0  0  0  0  0  0  0  0  0
   -0.0040    0.3606   -0.0000 O   0  0  0  0  0  0  0  0  0  0  0  0
   -0.0020    0.3640   -0.0000 O   0  0  0  0  0  0  0  0  0  0  0  0
    0.0000    0.0000    0.0000 Al  0  0  0  0  0 15  0  0  0  0  0  0
    0.0000    0.0000    0.0000 Cl  0  0  0  0  0  0  0  0  0  0  0  0
    0.0000    0.0000    0.0000 Cl  0  0  0  0  0  0  0  0  0  0  0  0
   -0.8242   -0.1782   -0.0000 H   0  0  0  0  0  0  0  0  0  0  0  0
    0.8258   -0.1772    0.0000 H   0  0  0  0  0  0  0  0  0  0  0  0
    0.8135   -0.1907    0.0000 H   0  0  0  0  0  0  0  0  0  0  0  0
   -0.8091   -0.1938   -0.0000 H   0  0  0  0  0  0  0  0  0  0  0  0
    0.8143   -0.1863    0.0000 H   0  0  0  0  0  0  0  0  0  0  0  0
   -0.8088   -0.1901   -0.0000 H   0  0  0  0  0  0  0  0  0  0  0  0
    0.8147   -0.1837    0.0000 H   0  0  0  0  0  0  0  0  0  0  0  0
   -0.8125   -0.1852   -0.0000 H   0  0  0  0  0  0  0  0  0  0  0  0
    0.8302   -0.1790    0.0000 H   0  0  0  0  0  0  0  0  0  0  0  0
   -0.8262   -0.1816   -0.0000 H   0  0  0  0  0  0  0  0  0  0  0  0
   -0.8208   -0.1827   -0.0000 H   0  0  0  0  0  0  0  0  0  0  0  0
    0.8228   -0.1813    0.0000 H   0  0  0  0  0  0  0  0  0  0  0  0
  2 11  1  0
  2 12  1  0
  3 13  1  0
  3 14  1  0
  4 15  1  0
  4 16  1  0
  5 17  1  0
  5 18  1  0
  6 19  1  0
  6 20  1  0
  7 21  1  0
  7 22  1  0
M  CHG  4   1  -1   8   3   9  -1  10  -1
M  END
$$$$
