
     RDKit          3D

 22 12  0  0  0  0  0  0  0  0999 V2000
    0.0000    0.0000    0.0000 Cl  0  0  0  0  0  0  0  0  0  0  0  0
   -0.0059    0.3630   -0.0000 O   0  0  0  0  0  0  0  0  0  0  0  0
   -0.0052    0.3750   -0.0000 O   0  0  0  0  0  0  0  0  0  0  0  0
   -0.0089    0.3989   -0.0000 O   0  0  0  0  0  0  0  0  0  0  0  0
   -0.0020    0.3883   -0.0000 O   0  0  0  0  0  0  0  0  0  0  0  0
   -0.0070    0.3735   -0.0000 O   0  0  0  0  0  0  0  0  0  0  0  0
   -0.0044    0.3703   -0.0000 O   0  0  0  0  0  0  0  0  0  0  0  0
    0.0000    0.0000    0.0000 Al  0  0  0  0  0 15  0  0  0  0  0  0
    0.0000    0.0000    0.0000 Cl  0  0  0  0  0  0  0  0  0  0  0  0
    0.0000    0.0000    0.0000 Cl  0  0  0  0  0  0  0  0  0  0  0  0
    0.8283   -0.1796    0.0000 H   0  0  0  0  0  0  0  0  0  0  0  0
   -0.8224   -0.1835   -0.0000 H   0  0  0  0  0  0  0  0  0  0  0  0
    0.8139   -0.1857    0.0000 H   0  0  0  0  0  0  0  0  0  0  0  0
   -0.8087   -0.1893   -0.0000 H   0  0  0  0  0  0  0  0  0  0  0  0
    0.7942   -0.1961    0.0000 H   0  0  0  0  0  0  0  0  0  0  0  0
   -0.7853   -0.2028   -0.0000 H   0  0  0  0  0  0  0  0  0  0  0  0
   -0.8082   -0.1949   -0.0000 H   0  0  0  0  0  0  0  0  0  0  0  0
    0.8102   -0.1934    0.0000 H   0  0  0  0  0  0  0  0  0  0  0  0
   -0.8099   -0.1892   -0.0000 H   0  0  0  0  0  0  0  0  0  0  0  0
    0.8168   -0.1844    0.0000 H   0  0  0  0  0  0  0  0  0  0  0  0
   -0.8139   -0.1866   -0.0000 H   0  0  0  0  0  0  0  0  0  0  0  0
    0.8182   -0.1836    0.0000 H   0  0  0  0  0  0  0  0  0  0  0  0
  2 11  1  0
  2 12  1  0
  3 13  1  0
  3 14  1  0
  4 15  1  0
  4 16  1  0
  5 17  1  0
  5 18  1  0
  6 19  1  0
  6 20  1  0
  7 21  1  0
  7 22  1  0
M  CHG  4   1  -1   8   3   9  -1  10  -1
M  END
$$$$
