
     RDKit          3D

 22 12  0  0  0  0  0  0  0  0999 V2000
    0.0000    0.0000    0.0000 Cl  0  0  0  0  0  0  0  0  0  0  0  0
   -0.0042    0.3710   -0.0000 O   0  0  0  0  0  0  0  0  0  0  0  0
   -0.0018    0.3771   -0.0000 O   0  0  0  0  0  0  0  0  0  0  0  0
   -0.0070    0.3646   -0.0000 O   0  0  0  0  0  0  0  0  0  0  0  0
   -0.0015    0.3534   -0.0000 O   0  0  0  0  0  0  0  0  0  0  0  0
   -0.0005    0.3661   -0.0000 O   0  0  0  0  0  0  0  0  0  0  0  0
   -0.0009    0.3856   -0.0000 O   0  0  0  0  0  0  0  0  0  0  0  0
    0.0000    0.0000    0.0000 Al  0  0  0  0  0 15  0  0  0  0  0  0
    0.0000    0.0000    0.0000 Cl  0  0  0  0  0  0  0  0  0  0  0  0
    0.0000    0.0000    0.0000 Cl  0  0  0  0  0  0  0  0  0  0  0  0
   -0.8169   -0.1870   -0.0000 H   0  0  0  0  0  0  0  0  0  0  0  0
    0.8212   -0.1841    0.0000 H   0  0  0  0  0  0  0  0  0  0  0  0
   -0.8127   -0.1892   -0.0000 H   0  0  0  0  0  0  0  0  0  0  0  0
    0.8145   -0.1879    0.0000 H   0  0  0  0  0  0  0  0  0  0  0  0
    0.8266   -0.1800    0.0000 H   0  0  0  0  0  0  0  0  0  0  0  0
   -0.8196   -0.1846   -0.0000 H   0  0  0  0  0  0  0  0  0  0  0  0
   -0.8268   -0.1772   -0.0000 H   0  0  0  0  0  0  0  0  0  0  0  0
    0.8284   -0.1762    0.0000 H   0  0  0  0  0  0  0  0  0  0  0  0
    0.8176   -0.1829    0.0000 H   0  0  0  0  0  0  0  0  0  0  0  0
   -0.8171   -0.1832   -0.0000 H   0  0  0  0  0  0  0  0  0  0  0  0
    0.8107   -0.1925    0.0000 H   0  0  0  0  0  0  0  0  0  0  0  0
   -0.8098   -0.1931   -0.0000 H   0  0  0  0  0  0  0  0  0  0  0  0
  2 11  1  0
  2 12  1  0
  3 13  1  0
  3 14  1  0
  4 15  1  0
  4 16  1  0
  5 17  1  0
  5 18  1  0
  6 19  1  0
  6 20  1  0
  7 21  1  0
  7 22  1  0
M  CHG  4   1  -1   8   3   9  -1  10  -1
M  END
$$$$
