
     RDKit          2D

 10  0  0  0  0  0  0  0  0  0999 V2000
   -1.0030   -4.0350    0.0000 Cl  0  0  0  0  0  0  0  0  0  0  0  0
   -2.9713   -3.2179    0.0000 O   0  0  0  0  0  0  0  0  0  0  0  0
   -0.3954   -3.2371    0.0000 O   0  0  0  0  0  0  0  0  0  0  0  0
    0.1626   -4.4060    0.0000 O   0  0  0  0  0  0  0  0  0  0  0  0
   -3.6255   -4.5528    0.0000 O   0  0  0  0  0  0  0  0  0  0  0  0
   -2.7765   -6.0536    0.0000 O   0  0  0  0  0  0  0  0  0  0  0  0
   -0.6671   -6.0753    0.0000 O   0  0  0  0  0  0  0  0  0  0  0  0
   -1.9149   -4.6505    0.0000 Al  0  0  0  0  0 15  0  0  0  0  0  0
   -2.5988   -4.0578    0.0000 Cl  0  0  0  0  0  0  0  0  0  0  0  0
   -1.9149   -5.6535    0.0000 Cl  0  0  0  0  0  0  0  0  0  0  0  0
M  CHG  4   1  -1   8   3   9  -1  10  -1
M  END
> <chembl_id>
CHEMBL3833314

> <chembl_pref_name>
ALUMINUM CHLORIDE
