
     RDKit          3D

 22 12  0  0  0  0  0  0  0  0999 V2000
    0.0000    0.0000    0.0000 Cl  0  0  0  0  0  0  0  0  0  0  0  0
   -0.0008    0.3615   -0.0000 O   0  0  0  0  0  0  0  0  0  0  0  0
   -0.0033    0.3868   -0.0000 O   0  0  0  0  0  0  0  0  0  0  0  0
   -0.0008    0.4007   -0.0000 O   0  0  0  0  0  0  0  0  0  0  0  0
   -0.0008    0.3788   -0.0000 O   0  0  0  0  0  0  0  0  0  0  0  0
   -0.0032    0.3853   -0.0000 O   0  0  0  0  0  0  0  0  0  0  0  0
   -0.0007    0.3942   -0.0000 O   0  0  0  0  0  0  0  0  0  0  0  0
    0.0000    0.0000    0.0000 Al  0  0  0  0  0 15  0  0  0  0  0  0
    0.0000    0.0000    0.0000 Cl  0  0  0  0  0  0  0  0  0  0  0  0
    0.0000    0.0000    0.0000 Cl  0  0  0  0  0  0  0  0  0  0  0  0
    0.8257   -0.1805    0.0000 H   0  0  0  0  0  0  0  0  0  0  0  0
   -0.8249   -0.1810   -0.0000 H   0  0  0  0  0  0  0  0  0  0  0  0
   -0.7940   -0.1946   -0.0000 H   0  0  0  0  0  0  0  0  0  0  0  0
    0.7972   -0.1922    0.0000 H   0  0  0  0  0  0  0  0  0  0  0  0
    0.7908   -0.2001    0.0000 H   0  0  0  0  0  0  0  0  0  0  0  0
   -0.7900   -0.2006   -0.0000 H   0  0  0  0  0  0  0  0  0  0  0  0
    0.8082   -0.1891    0.0000 H   0  0  0  0  0  0  0  0  0  0  0  0
   -0.8074   -0.1896   -0.0000 H   0  0  0  0  0  0  0  0  0  0  0  0
   -0.7941   -0.1938   -0.0000 H   0  0  0  0  0  0  0  0  0  0  0  0
    0.7973   -0.1915    0.0000 H   0  0  0  0  0  0  0  0  0  0  0  0
   -0.8049   -0.1974   -0.0000 H   0  0  0  0  0  0  0  0  0  0  0  0
    0.8056   -0.1968    0.0000 H   0  0  0  0  0  0  0  0  0  0  0  0
  2 11  1  0
  2 12  1  0
  3 13  1  0
  3 14  1  0
  4 15  1  0
  4 16  1  0
  5 17  1  0
  5 18  1  0
  6 19  1  0
  6 20  1  0
  7 21  1  0
  7 22  1  0
M  CHG  4   1  -1   8   3   9  -1  10  -1
M  END
$$$$
