
     RDKit          3D

 22 12  0  0  0  0  0  0  0  0999 V2000
    0.0000    0.0000    0.0000 Cl  0  0  0  0  0  0  0  0  0  0  0  0
   -0.0028    0.3670   -0.0000 O   0  0  0  0  0  0  0  0  0  0  0  0
   -0.0072    0.3798   -0.0000 O   0  0  0  0  0  0  0  0  0  0  0  0
   -0.0035    0.3653   -0.0000 O   0  0  0  0  0  0  0  0  0  0  0  0
   -0.0006    0.3828   -0.0000 O   0  0  0  0  0  0  0  0  0  0  0  0
   -0.0015    0.4058   -0.0000 O   0  0  0  0  0  0  0  0  0  0  0  0
   -0.0054    0.3634   -0.0000 O   0  0  0  0  0  0  0  0  0  0  0  0
    0.0000    0.0000    0.0000 Al  0  0  0  0  0 15  0  0  0  0  0  0
    0.0000    0.0000    0.0000 Cl  0  0  0  0  0  0  0  0  0  0  0  0
    0.0000    0.0000    0.0000 Cl  0  0  0  0  0  0  0  0  0  0  0  0
   -0.8229   -0.1845   -0.0000 H   0  0  0  0  0  0  0  0  0  0  0  0
    0.8257   -0.1826    0.0000 H   0  0  0  0  0  0  0  0  0  0  0  0
    0.8104   -0.1874    0.0000 H   0  0  0  0  0  0  0  0  0  0  0  0
   -0.8031   -0.1924   -0.0000 H   0  0  0  0  0  0  0  0  0  0  0  0
    0.8242   -0.1815    0.0000 H   0  0  0  0  0  0  0  0  0  0  0  0
   -0.8207   -0.1838   -0.0000 H   0  0  0  0  0  0  0  0  0  0  0  0
   -0.8008   -0.1916   -0.0000 H   0  0  0  0  0  0  0  0  0  0  0  0
    0.8014   -0.1911    0.0000 H   0  0  0  0  0  0  0  0  0  0  0  0
   -0.7888   -0.2035   -0.0000 H   0  0  0  0  0  0  0  0  0  0  0  0
    0.7903   -0.2023    0.0000 H   0  0  0  0  0  0  0  0  0  0  0  0
   -0.8208   -0.1835   -0.0000 H   0  0  0  0  0  0  0  0  0  0  0  0
    0.8261   -0.1799    0.0000 H   0  0  0  0  0  0  0  0  0  0  0  0
  2 11  1  0
  2 12  1  0
  3 13  1  0
  3 14  1  0
  4 15  1  0
  4 16  1  0
  5 17  1  0
  5 18  1  0
  6 19  1  0
  6 20  1  0
  7 21  1  0
  7 22  1  0
M  CHG  4   1  -1   8   3   9  -1  10  -1
M  END
$$$$
