
     RDKit          2D

 15 16  0  0  0  0  0  0  0  0999 V2000
    2.3750   -3.6792    0.0000 Cl  0  0  0  0  0  0  0  0  0  0  0  0
    5.2042   -2.9083    0.0000 C   0  0  0  0  0  0  0  0  0  0  0  0
    4.6292   -2.4917    0.0000 N   0  0  0  0  0  0  0  0  0  0  0  0
    4.9875   -3.5833    0.0000 N   0  0  0  0  0  0  0  0  0  0  0  0
    4.0583   -2.9083    0.0000 C   0  0  0  0  0  0  0  0  0  0  0  0
    4.2750   -3.5833    0.0000 C   0  0  0  0  0  0  0  0  0  0  0  0
    5.9125   -2.9125    0.0000 S   0  0  0  0  0  0  0  0  0  0  0  0
    3.4417   -2.5542    0.0000 C   0  0  0  0  0  0  0  0  0  0  0  0
    5.5583   -3.9958    0.0000 C   0  0  0  0  0  0  0  0  0  0  0  0
    6.1292   -3.5833    0.0000 C   0  0  0  0  0  0  0  0  0  0  0  0
    3.4417   -1.8417    0.0000 C   0  0  0  0  0  0  0  0  0  0  0  0
    2.8292   -2.9083    0.0000 C   0  0  0  0  0  0  0  0  0  0  0  0
    2.8292   -1.4875    0.0000 C   0  0  0  0  0  0  0  0  0  0  0  0
    2.2167   -2.5542    0.0000 C   0  0  0  0  0  0  0  0  0  0  0  0
    2.2167   -1.8417    0.0000 C   0  0  0  0  0  0  0  0  0  0  0  0
  3  2  2  0
  4  2  1  0
  5  3  1  0
  6  4  1  0
  7  2  1  0
  5  8  1  6
  9  4  1  0
 10  7  1  0
 11  8  1  0
 12  8  2  0
 13 11  2  0
 14 12  1  0
 15 13  1  0
 10  9  1  0
  6  5  1  0
 14 15  2  0
M  END
> <chembl_id>
CHEMBL1770

> <chembl_pref_name>
LEVAMISOLE HYDROCHLORIDE
