
     RDKit          3D

 28 29  0  0  0  0  0  0  0  0999 V2000
    0.6864    0.0000    0.0000 Cl  0  0  0  0  0  0  0  0  0  0  0  0
    1.5131    1.0856   -1.0155 C   0  0  0  0  0  0  0  0  0  0  0  0
    0.3892    1.7131   -0.9316 N   0  0  0  0  0  0  0  0  0  0  0  0
    1.7120    0.2728    0.1519 N   0  0  0  0  0  0  0  0  0  0  0  0
   -0.2793    1.3663    0.3317 C   0  0  2  0  0  0  0  0  0  0  0  0
    0.8645    0.9273    1.1654 C   0  0  0  0  0  0  0  0  0  0  0  0
    2.9856    0.8100   -2.0417 S   0  0  0  0  0  0  0  0  0  0  0  0
   -1.3639    0.4198    0.1380 C   0  0  0  0  0  0  0  0  0  0  0  0
    2.6258   -0.8115   -0.1404 C   0  0  0  0  0  0  0  0  0  0  0  0
    3.8660   -0.1903   -0.7700 C   0  0  0  0  0  0  0  0  0  0  0  0
   -1.6243   -0.6920    0.8976 C   0  0  0  0  0  0  0  0  0  0  0  0
   -2.2430    0.6492   -0.9280 C   0  0  0  0  0  0  0  0  0  0  0  0
   -2.6934   -1.5495    0.6371 C   0  0  0  0  0  0  0  0  0  0  0  0
   -3.2966   -0.1762   -1.2027 C   0  0  0  0  0  0  0  0  0  0  0  0
   -3.5304   -1.2809   -0.4237 C   0  0  0  0  0  0  0  0  0  0  0  0
   -0.6864    0.0000    0.0000 H   0  0  0  0  0  0  0  0  0  0  0  0
   -0.6289    2.3633    0.7230 H   0  0  0  0  0  0  0  0  0  0  0  0
    1.4246    1.8328    1.5079 H   0  0  0  0  0  0  0  0  0  0  0  0
    0.6638    0.2406    1.9817 H   0  0  0  0  0  0  0  0  0  0  0  0
    2.1710   -1.4398   -0.9336 H   0  0  0  0  0  0  0  0  0  0  0  0
    2.8574   -1.3588    0.7645 H   0  0  0  0  0  0  0  0  0  0  0  0
    4.4767   -0.9589   -1.2244 H   0  0  0  0  0  0  0  0  0  0  0  0
    4.3574    0.4584   -0.0442 H   0  0  0  0  0  0  0  0  0  0  0  0
   -0.9856   -0.9097    1.7191 H   0  0  0  0  0  0  0  0  0  0  0  0
   -2.0909    1.5243   -1.5775 H   0  0  0  0  0  0  0  0  0  0  0  0
   -2.8515   -2.4169    1.2736 H   0  0  0  0  0  0  0  0  0  0  0  0
   -3.9384    0.0559   -2.0399 H   0  0  0  0  0  0  0  0  0  0  0  0
   -4.3808   -1.9348   -0.6566 H   0  0  0  0  0  0  0  0  0  0  0  0
  3  2  2  0
  4  2  1  0
  5  3  1  0
  6  4  1  0
  7  2  1  0
  5  8  1  0
  9  4  1  0
 10  7  1  0
 11  8  2  0
 12  8  1  0
 13 11  1  0
 14 12  2  0
 15 13  2  0
 10  9  1  0
  6  5  1  0
 14 15  1  0
  1 16  1  0
  5 17  1  1
  6 18  1  0
  6 19  1  0
  9 20  1  0
  9 21  1  0
 10 22  1  0
 10 23  1  0
 11 24  1  0
 12 25  1  0
 13 26  1  0
 14 27  1  0
 15 28  1  0
M  END
$$$$
