
     RDKit          3D

 28 29  0  0  0  0  0  0  0  0999 V2000
    0.6904    0.0000    0.0000 Cl  0  0  0  0  0  0  0  0  0  0  0  0
    1.8384   -0.7346    0.7457 C   0  0  0  0  0  0  0  0  0  0  0  0
    0.6382   -1.1888    0.8419 N   0  0  0  0  0  0  0  0  0  0  0  0
    2.0167   -0.0472   -0.4967 N   0  0  0  0  0  0  0  0  0  0  0  0
   -0.1017   -0.8503   -0.3239 C   0  0  2  0  0  0  0  0  0  0  0  0
    0.6457    0.3722   -0.8481 C   0  0  0  0  0  0  0  0  0  0  0  0
    3.4483   -0.6073    1.5789 S   0  0  0  0  0  0  0  0  0  0  0  0
   -1.4883   -0.3988   -0.0687 C   0  0  0  0  0  0  0  0  0  0  0  0
    3.4079   -0.0445   -0.8906 C   0  0  0  0  0  0  0  0  0  0  0  0
    4.1832    0.5000    0.3014 C   0  0  0  0  0  0  0  0  0  0  0  0
   -2.0255    0.7183   -0.7061 C   0  0  0  0  0  0  0  0  0  0  0  0
   -2.2901   -1.0761    0.8124 C   0  0  0  0  0  0  0  0  0  0  0  0
   -3.3134    1.1501   -0.4788 C   0  0  0  0  0  0  0  0  0  0  0  0
   -3.5833   -0.6487    1.0455 C   0  0  0  0  0  0  0  0  0  0  0  0
   -4.1124    0.4640    0.4079 C   0  0  0  0  0  0  0  0  0  0  0  0
   -0.6904    0.0000    0.0000 H   0  0  0  0  0  0  0  0  0  0  0  0
   -0.1239   -1.6554   -1.0794 H   0  0  0  0  0  0  0  0  0  0  0  0
    0.3825    1.2270   -0.2051 H   0  0  0  0  0  0  0  0  0  0  0  0
    0.5166    0.5251   -1.9246 H   0  0  0  0  0  0  0  0  0  0  0  0
    3.5304    0.5653   -1.7793 H   0  0  0  0  0  0  0  0  0  0  0  0
    3.6987   -1.1074   -1.0671 H   0  0  0  0  0  0  0  0  0  0  0  0
    5.2488    0.3408    0.2081 H   0  0  0  0  0  0  0  0  0  0  0  0
    3.8582    1.5160    0.5145 H   0  0  0  0  0  0  0  0  0  0  0  0
   -1.4175    1.2905   -1.4200 H   0  0  0  0  0  0  0  0  0  0  0  0
   -1.9467   -1.9373    1.3348 H   0  0  0  0  0  0  0  0  0  0  0  0
   -3.6851    2.0226   -0.9977 H   0  0  0  0  0  0  0  0  0  0  0  0
   -4.1966   -1.2053    1.7495 H   0  0  0  0  0  0  0  0  0  0  0  0
   -5.1290    0.8097    0.5836 H   0  0  0  0  0  0  0  0  0  0  0  0
  3  2  2  0
  4  2  1  0
  5  3  1  0
  6  4  1  0
  7  2  1  0
  5  8  1  0
  9  4  1  0
 10  7  1  0
 11  8  2  0
 12  8  1  0
 13 11  1  0
 14 12  2  0
 15 13  2  0
 10  9  1  0
  6  5  1  0
 14 15  1  0
  1 16  1  0
  5 17  1  6
  6 18  1  0
  6 19  1  0
  9 20  1  0
  9 21  1  0
 10 22  1  0
 10 23  1  0
 11 24  1  0
 12 25  1  0
 13 26  1  0
 14 27  1  0
 15 28  1  0
M  END
$$$$
