
     RDKit          3D

 15 16  0  0  0  0  0  0  0  0999 V2000
    0.0000    0.0000    0.0000 Cl  0  0  0  0  0  0  0  0  0  0  0  0
    1.7528   -0.0341    0.9499 C   0  0  0  0  0  0  0  0  0  0  0  0
    0.8717   -0.5257    1.7671 N   0  0  0  0  0  0  0  0  0  0  0  0
    1.5032   -0.4724   -0.3789 N   0  0  0  0  0  0  0  0  0  0  0  0
   -0.0638   -1.3577    1.0204 C   0  0  2  0  0  0  0  0  0  0  0  0
    0.6861   -1.6923   -0.2790 C   0  0  0  0  0  0  0  0  0  0  0  0
    3.2245    1.0201    0.8236 S   0  0  0  0  0  0  0  0  0  0  0  0
   -1.1863   -0.4635    0.5983 C   0  0  0  0  0  0  0  0  0  0  0  0
    2.0961    0.3742   -1.3594 C   0  0  0  0  0  0  0  0  0  0  0  0
    3.5288    0.6647   -0.9597 C   0  0  0  0  0  0  0  0  0  0  0  0
   -2.4984   -0.9003    0.7454 C   0  0  0  0  0  0  0  0  0  0  0  0
   -0.9602    0.7916    0.0631 C   0  0  0  0  0  0  0  0  0  0  0  0
   -3.5740   -0.1169    0.3727 C   0  0  0  0  0  0  0  0  0  0  0  0
   -2.0323    1.5759   -0.3099 C   0  0  0  0  0  0  0  0  0  0  0  0
   -3.3480    1.1366   -0.1618 C   0  0  0  0  0  0  0  0  0  0  0  0
  3  2  2  0
  4  2  1  0
  5  3  1  0
  6  4  1  0
  7  2  1  0
  5  8  1  6
  9  4  1  0
 10  7  1  0
 11  8  2  0
 12  8  1  0
 13 11  1  0
 14 12  2  0
 15 13  2  0
 10  9  1  0
  6  5  1  0
 14 15  1  0
M  END
