
     RDKit          3D

 28 29  0  0  0  0  0  0  0  0999 V2000
    0.6887    0.0000    0.0000 Cl  0  0  0  0  0  0  0  0  0  0  0  0
   -1.7933    0.6966   -0.8084 C   0  0  0  0  0  0  0  0  0  0  0  0
   -0.6125    0.7024   -1.3092 N   0  0  0  0  0  0  0  0  0  0  0  0
   -2.0423   -0.4708   -0.0402 N   0  0  0  0  0  0  0  0  0  0  0  0
    0.0901   -0.4837   -0.9314 C   0  0  2  0  0  0  0  0  0  0  0  0
   -0.6977   -1.0170    0.2180 C   0  0  0  0  0  0  0  0  0  0  0  0
   -3.3304    1.6546   -0.7028 S   0  0  0  0  0  0  0  0  0  0  0  0
    1.4848   -0.1090   -0.5926 C   0  0  0  0  0  0  0  0  0  0  0  0
   -3.4311   -0.6870    0.1935 C   0  0  0  0  0  0  0  0  0  0  0  0
   -4.0296    0.6247    0.6544 C   0  0  0  0  0  0  0  0  0  0  0  0
    2.1522   -0.5748    0.5176 C   0  0  0  0  0  0  0  0  0  0  0  0
    2.1495    0.7635   -1.4507 C   0  0  0  0  0  0  0  0  0  0  0  0
    3.4613   -0.2095    0.8156 C   0  0  0  0  0  0  0  0  0  0  0  0
    3.4413    1.1374   -1.1763 C   0  0  0  0  0  0  0  0  0  0  0  0
    4.0930    0.6561   -0.0536 C   0  0  0  0  0  0  0  0  0  0  0  0
   -0.6887    0.0000    0.0000 H   0  0  0  0  0  0  0  0  0  0  0  0
    0.0614   -1.1649   -1.8247 H   0  0  0  0  0  0  0  0  0  0  0  0
   -0.3205   -0.6994    1.1909 H   0  0  0  0  0  0  0  0  0  0  0  0
   -0.7176   -2.1293    0.1318 H   0  0  0  0  0  0  0  0  0  0  0  0
   -3.9743   -0.9806   -0.7273 H   0  0  0  0  0  0  0  0  0  0  0  0
   -3.5602   -1.3948    1.0282 H   0  0  0  0  0  0  0  0  0  0  0  0
   -5.1130    0.6132    0.6214 H   0  0  0  0  0  0  0  0  0  0  0  0
   -3.5673    0.9994    1.5804 H   0  0  0  0  0  0  0  0  0  0  0  0
    1.6440   -1.2516    1.1878 H   0  0  0  0  0  0  0  0  0  0  0  0
    1.6574    1.1558   -2.3409 H   0  0  0  0  0  0  0  0  0  0  0  0
    3.9124   -0.6165    1.7013 H   0  0  0  0  0  0  0  0  0  0  0  0
    3.9358    1.8225   -1.8676 H   0  0  0  0  0  0  0  0  0  0  0  0
    5.1065    0.9626    0.1424 H   0  0  0  0  0  0  0  0  0  0  0  0
  3  2  2  0
  4  2  1  0
  5  3  1  0
  6  4  1  0
  7  2  1  0
  5  8  1  0
  9  4  1  0
 10  7  1  0
 11  8  2  0
 12  8  1  0
 13 11  1  0
 14 12  2  0
 15 13  2  0
 10  9  1  0
  6  5  1  0
 14 15  1  0
  1 16  1  0
  5 17  1  6
  6 18  1  0
  6 19  1  0
  9 20  1  0
  9 21  1  0
 10 22  1  0
 10 23  1  0
 11 24  1  0
 12 25  1  0
 13 26  1  0
 14 27  1  0
 15 28  1  0
M  END
$$$$
