
     RDKit          3D

 28 29  0  0  0  0  0  0  0  0999 V2000
    0.6832    0.0000    0.0000 Cl  0  0  0  0  0  0  0  0  0  0  0  0
    1.6332   -0.5670   -0.9138 C   0  0  0  0  0  0  0  0  0  0  0  0
    0.7095   -0.0766   -1.6648 N   0  0  0  0  0  0  0  0  0  0  0  0
    1.7238    0.1325    0.3211 N   0  0  0  0  0  0  0  0  0  0  0  0
    0.0670    1.0494   -0.9704 C   0  0  2  0  0  0  0  0  0  0  0  0
    1.1150    1.4457    0.0279 C   0  0  0  0  0  0  0  0  0  0  0  0
    2.9151   -1.8513   -0.8255 S   0  0  0  0  0  0  0  0  0  0  0  0
   -1.1984    0.5840   -0.4227 C   0  0  0  0  0  0  0  0  0  0  0  0
    2.3433   -0.6707    1.3491 C   0  0  0  0  0  0  0  0  0  0  0  0
    3.6279   -1.2227    0.7564 C   0  0  0  0  0  0  0  0  0  0  0  0
   -2.0057   -0.2094   -1.2475 C   0  0  0  0  0  0  0  0  0  0  0  0
   -1.6937    0.8422    0.8286 C   0  0  0  0  0  0  0  0  0  0  0  0
   -3.2245   -0.6934   -0.8086 C   0  0  0  0  0  0  0  0  0  0  0  0
   -2.9084    0.3651    1.2785 C   0  0  0  0  0  0  0  0  0  0  0  0
   -3.6917   -0.4176    0.4479 C   0  0  0  0  0  0  0  0  0  0  0  0
   -0.6832    0.0000    0.0000 H   0  0  0  0  0  0  0  0  0  0  0  0
   -0.1117    1.8538   -1.6971 H   0  0  0  0  0  0  0  0  0  0  0  0
    1.8882    2.0604   -0.4693 H   0  0  0  0  0  0  0  0  0  0  0  0
    0.7740    1.8663    0.9620 H   0  0  0  0  0  0  0  0  0  0  0  0
    2.5384   -0.0227    2.2152 H   0  0  0  0  0  0  0  0  0  0  0  0
    1.6920   -1.5435    1.6291 H   0  0  0  0  0  0  0  0  0  0  0  0
    4.0460   -2.0302    1.3422 H   0  0  0  0  0  0  0  0  0  0  0  0
    4.2890   -0.3582    0.5681 H   0  0  0  0  0  0  0  0  0  0  0  0
   -1.6748   -0.4583   -2.2637 H   0  0  0  0  0  0  0  0  0  0  0  0
   -1.1154    1.4493    1.5077 H   0  0  0  0  0  0  0  0  0  0  0  0
   -3.8122   -1.2954   -1.4667 H   0  0  0  0  0  0  0  0  0  0  0  0
   -3.2809    0.5802    2.2690 H   0  0  0  0  0  0  0  0  0  0  0  0
   -4.6450   -0.8120    0.7538 H   0  0  0  0  0  0  0  0  0  0  0  0
  3  2  2  0
  4  2  1  0
  5  3  1  0
  6  4  1  0
  7  2  1  0
  5  8  1  0
  9  4  1  0
 10  7  1  0
 11  8  2  0
 12  8  1  0
 13 11  1  0
 14 12  2  0
 15 13  2  0
 10  9  1  0
  6  5  1  0
 14 15  1  0
  1 16  1  0
  5 17  1  6
  6 18  1  0
  6 19  1  0
  9 20  1  0
  9 21  1  0
 10 22  1  0
 10 23  1  0
 11 24  1  0
 12 25  1  0
 13 26  1  0
 14 27  1  0
 15 28  1  0
M  END
$$$$
