
     RDKit          3D

 28 29  0  0  0  0  0  0  0  0999 V2000
    0.6838    0.0000    0.0000 Cl  0  0  0  0  0  0  0  0  0  0  0  0
   -1.7240    0.3212   -0.9793 C   0  0  0  0  0  0  0  0  0  0  0  0
   -0.5602   -0.0618   -1.3772 N   0  0  0  0  0  0  0  0  0  0  0  0
   -2.0031   -0.1417    0.3347 N   0  0  0  0  0  0  0  0  0  0  0  0
    0.0686   -0.8528   -0.3071 C   0  0  2  0  0  0  0  0  0  0  0  0
   -0.6956   -0.4166    0.9521 C   0  0  0  0  0  0  0  0  0  0  0  0
   -3.1865    1.2655   -1.4877 S   0  0  0  0  0  0  0  0  0  0  0  0
    1.4861   -0.4505   -0.2478 C   0  0  0  0  0  0  0  0  0  0  0  0
   -3.3977   -0.1912    0.6170 C   0  0  0  0  0  0  0  0  0  0  0  0
   -4.0638    1.0682    0.1180 C   0  0  0  0  0  0  0  0  0  0  0  0
    2.4945   -1.4095   -0.1463 C   0  0  0  0  0  0  0  0  0  0  0  0
    1.7745    0.8998   -0.2962 C   0  0  0  0  0  0  0  0  0  0  0  0
    3.8085   -0.9829   -0.0939 C   0  0  0  0  0  0  0  0  0  0  0  0
    3.1104    1.2748   -0.2401 C   0  0  0  0  0  0  0  0  0  0  0  0
    4.1346    0.3562   -0.1396 C   0  0  0  0  0  0  0  0  0  0  0  0
   -0.6838    0.0000    0.0000 H   0  0  0  0  0  0  0  0  0  0  0  0
   -0.0905   -1.9198   -0.5145 H   0  0  0  0  0  0  0  0  0  0  0  0
   -0.7426   -1.2023    1.7094 H   0  0  0  0  0  0  0  0  0  0  0  0
   -0.2285    0.5091    1.3379 H   0  0  0  0  0  0  0  0  0  0  0  0
   -3.8954   -1.0852    0.1666 H   0  0  0  0  0  0  0  0  0  0  0  0
   -3.5786   -0.2291    1.6911 H   0  0  0  0  0  0  0  0  0  0  0  0
   -5.1113    0.8170   -0.1544 H   0  0  0  0  0  0  0  0  0  0  0  0
   -3.9440    1.9301    0.7706 H   0  0  0  0  0  0  0  0  0  0  0  0
    2.2387   -2.4692   -0.1099 H   0  0  0  0  0  0  0  0  0  0  0  0
    0.9810    1.6401   -0.3754 H   0  0  0  0  0  0  0  0  0  0  0  0
    4.6096   -1.6937   -0.0156 H   0  0  0  0  0  0  0  0  0  0  0  0
    3.3612    2.3327   -0.2766 H   0  0  0  0  0  0  0  0  0  0  0  0
    5.1542    0.6916   -0.0992 H   0  0  0  0  0  0  0  0  0  0  0  0
  3  2  2  0
  4  2  1  0
  5  3  1  0
  6  4  1  0
  7  2  1  0
  5  8  1  0
  9  4  1  0
 10  7  1  0
 11  8  2  0
 12  8  1  0
 13 11  1  0
 14 12  2  0
 15 13  2  0
 10  9  1  0
  6  5  1  0
 14 15  1  0
  1 16  1  0
  5 17  1  6
  6 18  1  0
  6 19  1  0
  9 20  1  0
  9 21  1  0
 10 22  1  0
 10 23  1  0
 11 24  1  0
 12 25  1  0
 13 26  1  0
 14 27  1  0
 15 28  1  0
M  END
$$$$
