
     RDKit          3D

 28 29  0  0  0  0  0  0  0  0999 V2000
    0.6897    0.0000    0.0000 Cl  0  0  0  0  0  0  0  0  0  0  0  0
   -1.6597    0.0920   -1.4638 C   0  0  0  0  0  0  0  0  0  0  0  0
   -0.4604   -0.3173   -1.5631 N   0  0  0  0  0  0  0  0  0  0  0  0
   -2.0788   -0.0260   -0.1070 N   0  0  0  0  0  0  0  0  0  0  0  0
    0.0418   -0.7551   -0.2543 C   0  0  2  0  0  0  0  0  0  0  0  0
   -0.8376    0.0371    0.6884 C   0  0  0  0  0  0  0  0  0  0  0  0
   -3.1174    0.7825   -2.3071 S   0  0  0  0  0  0  0  0  0  0  0  0
    1.4698   -0.4688   -0.0827 C   0  0  0  0  0  0  0  0  0  0  0  0
   -3.5194   -0.1622   -0.0224 C   0  0  0  0  0  0  0  0  0  0  0  0
   -4.0261    1.0829   -0.7277 C   0  0  0  0  0  0  0  0  0  0  0  0
    1.9745    0.7593   -0.4487 C   0  0  0  0  0  0  0  0  0  0  0  0
    2.3788   -1.3904    0.4444 C   0  0  0  0  0  0  0  0  0  0  0  0
    3.3293    1.0764   -0.3031 C   0  0  0  0  0  0  0  0  0  0  0  0
    3.7092   -1.0990    0.5949 C   0  0  0  0  0  0  0  0  0  0  0  0
    4.2160    0.1330    0.2279 C   0  0  0  0  0  0  0  0  0  0  0  0
   -0.6897    0.0000    0.0000 H   0  0  0  0  0  0  0  0  0  0  0  0
   -0.1542   -1.8268   -0.0687 H   0  0  0  0  0  0  0  0  0  0  0  0
   -0.9639   -0.4297    1.6617 H   0  0  0  0  0  0  0  0  0  0  0  0
   -0.4986    1.0845    0.8154 H   0  0  0  0  0  0  0  0  0  0  0  0
   -3.8580   -0.2522    0.9996 H   0  0  0  0  0  0  0  0  0  0  0  0
   -3.8463   -1.0138   -0.6723 H   0  0  0  0  0  0  0  0  0  0  0  0
   -5.1099    1.0780   -0.8826 H   0  0  0  0  0  0  0  0  0  0  0  0
   -3.6239    1.9544   -0.1962 H   0  0  0  0  0  0  0  0  0  0  0  0
    1.2862    1.4883   -0.8596 H   0  0  0  0  0  0  0  0  0  0  0  0
    2.0111   -2.3748    0.7450 H   0  0  0  0  0  0  0  0  0  0  0  0
    3.7086    2.0611   -0.6015 H   0  0  0  0  0  0  0  0  0  0  0  0
    4.3625   -1.8525    1.0083 H   0  0  0  0  0  0  0  0  0  0  0  0
    5.2664    0.3391    0.3558 H   0  0  0  0  0  0  0  0  0  0  0  0
  3  2  2  0
  4  2  1  0
  5  3  1  0
  6  4  1  0
  7  2  1  0
  5  8  1  0
  9  4  1  0
 10  7  1  0
 11  8  2  0
 12  8  1  0
 13 11  1  0
 14 12  2  0
 15 13  2  0
 10  9  1  0
  6  5  1  0
 14 15  1  0
  1 16  1  0
  5 17  1  1
  6 18  1  0
  6 19  1  0
  9 20  1  0
  9 21  1  0
 10 22  1  0
 10 23  1  0
 11 24  1  0
 12 25  1  0
 13 26  1  0
 14 27  1  0
 15 28  1  0
M  END
$$$$
