
     RDKit          3D

 28 29  0  0  0  0  0  0  0  0999 V2000
    0.6859    0.0000    0.0000 Cl  0  0  0  0  0  0  0  0  0  0  0  0
    1.6752    0.9250    0.8623 C   0  0  0  0  0  0  0  0  0  0  0  0
    0.4392    0.8745    1.2467 N   0  0  0  0  0  0  0  0  0  0  0  0
    2.0225   -0.2619    0.1566 N   0  0  0  0  0  0  0  0  0  0  0  0
   -0.1524   -0.3876    0.8144 C   0  0  2  0  0  0  0  0  0  0  0  0
    0.7345   -0.7585   -0.3603 C   0  0  0  0  0  0  0  0  0  0  0  0
    3.1873    1.9316    0.8601 S   0  0  0  0  0  0  0  0  0  0  0  0
   -1.5196   -0.1784    0.2782 C   0  0  0  0  0  0  0  0  0  0  0  0
    3.4480   -0.5080    0.2222 C   0  0  0  0  0  0  0  0  0  0  0  0
    4.1388    0.7755   -0.2143 C   0  0  0  0  0  0  0  0  0  0  0  0
   -2.4144    0.6335    0.9499 C   0  0  0  0  0  0  0  0  0  0  0  0
   -1.9292   -0.7831   -0.8935 C   0  0  0  0  0  0  0  0  0  0  0  0
   -3.7024    0.8605    0.4900 C   0  0  0  0  0  0  0  0  0  0  0  0
   -3.2121   -0.5642   -1.3623 C   0  0  0  0  0  0  0  0  0  0  0  0
   -4.1007    0.2501   -0.6831 C   0  0  0  0  0  0  0  0  0  0  0  0
   -0.6859    0.0000    0.0000 H   0  0  0  0  0  0  0  0  0  0  0  0
   -0.0860   -1.1800    1.5716 H   0  0  0  0  0  0  0  0  0  0  0  0
    0.4606   -0.1252   -1.2220 H   0  0  0  0  0  0  0  0  0  0  0  0
    0.7892   -1.8269   -0.5585 H   0  0  0  0  0  0  0  0  0  0  0  0
    3.7432   -0.6663    1.2917 H   0  0  0  0  0  0  0  0  0  0  0  0
    3.6992   -1.3584   -0.4027 H   0  0  0  0  0  0  0  0  0  0  0  0
    5.1865    0.7534    0.0630 H   0  0  0  0  0  0  0  0  0  0  0  0
    3.8991    1.0444   -1.2518 H   0  0  0  0  0  0  0  0  0  0  0  0
   -2.0941    1.1016    1.8588 H   0  0  0  0  0  0  0  0  0  0  0  0
   -1.2298   -1.4322   -1.4404 H   0  0  0  0  0  0  0  0  0  0  0  0
   -4.3341    1.5034    1.0698 H   0  0  0  0  0  0  0  0  0  0  0  0
   -3.5539   -1.0332   -2.2860 H   0  0  0  0  0  0  0  0  0  0  0  0
   -5.0945    0.4104   -1.0604 H   0  0  0  0  0  0  0  0  0  0  0  0
  3  2  2  0
  4  2  1  0
  5  3  1  0
  6  4  1  0
  7  2  1  0
  5  8  1  0
  9  4  1  0
 10  7  1  0
 11  8  2  0
 12  8  1  0
 13 11  1  0
 14 12  2  0
 15 13  2  0
 10  9  1  0
  6  5  1  0
 14 15  1  0
  1 16  1  0
  5 17  1  1
  6 18  1  0
  6 19  1  0
  9 20  1  0
  9 21  1  0
 10 22  1  0
 10 23  1  0
 11 24  1  0
 12 25  1  0
 13 26  1  0
 14 27  1  0
 15 28  1  0
M  END
$$$$
