
     RDKit          3D

 22 13  0  0  0  0  0  0  0  0999 V2000
   47.2589    2.4900    6.6315 Ca  0  0  0  0  0 15  0  0  0  0  0  0
   47.2589    2.4900    6.6315 P   0  0  0  0  0  0  0  0  0  0  0  0
   48.5337    1.9840    5.9366 O   0  0  0  0  0  0  0  0  0  0  0  0
   47.4789    3.9314    7.1195 O   0  0  0  0  0  0  0  0  0  0  0  0
   46.9365    1.5858    7.8325 O   0  0  0  0  0  0  0  0  0  0  0  0
   46.0866    2.4590    5.6373 O   0  0  0  0  0  0  0  0  0  0  0  0
   47.0994    2.8372    6.9366 O   0  0  0  0  0  0  0  0  0  0  0  0
   47.2589    2.4900    6.6315 Ca  0  0  0  0  0 15  0  0  0  0  0  0
   47.2589    2.4900    6.6315 Ca  0  0  0  0  0 15  0  0  0  0  0  0
   47.2589    2.4900    6.6315 P   0  0  0  0  0  0  0  0  0  0  0  0
   46.6813    2.5861    5.2098 O   0  0  0  0  0  0  0  0  0  0  0  0
   46.4880    1.4238    7.4270 O   0  0  0  0  0  0  0  0  0  0  0  0
   48.7440    2.0990    6.5559 O   0  0  0  0  0  0  0  0  0  0  0  0
   47.1224    3.8513    7.3331 O   0  0  0  0  0  0  0  0  0  0  0  0
   47.2589    2.4900    6.6315 P   0  0  0  0  0  0  0  0  0  0  0  0
   46.6404    2.7358    5.2455 O   0  0  0  0  0  0  0  0  0  0  0  0
   46.4319    3.2247    7.6993 O   0  0  0  0  0  0  0  0  0  0  0  0
   47.2602    0.9822    6.9321 O   0  0  0  0  0  0  0  0  0  0  0  0
   48.7031    3.0174    6.6491 O   0  0  0  0  0  0  0  0  0  0  0  0
   47.2589    2.4900    6.6315 Ca  0  0  0  0  0 15  0  0  0  0  0  0
   47.2589    2.4900    6.6315 Ca  0  0  0  0  0 15  0  0  0  0  0  0
   47.4184    2.1429    6.3264 H   0  0  0  0  0  0  0  0  0  0  0  0
  3  2  1  0
  4  2  1  0
  5  2  2  0
  6  2  1  0
 10 11  1  0
 10 12  2  0
 10 13  1  0
 10 14  1  0
 15 16  1  0
 15 17  2  0
 15 18  1  0
 15 19  1  0
  7 22  1  0
M  CHG  8   1   2   3  -1   4  -1   6  -1   7  -1   8   2   9   2  11  -1
M  CHG  7  13  -1  14  -1  16  -1  18  -1  19  -1  20   2  21   2
M  END
> <Uni-Dock RESULT> 
ENERGY=   -6.352  LOWER_BOUND=    0.000  UPPER_BOUND=    0.000
INTER + INTRA:          -6.352
INTER:                  -6.352
INTRA:                   0.000
UNBOUND:                 0.000

$$$$

     RDKit          3D

 22 13  0  0  0  0  0  0  0  0999 V2000
   47.1102    2.7750    6.7173 Ca  0  0  0  0  0 15  0  0  0  0  0  0
   47.1102    2.7750    6.7173 P   0  0  0  0  0  0  0  0  0  0  0  0
   45.9084    2.0570    7.3531 O   0  0  0  0  0  0  0  0  0  0  0  0
   48.3512    1.8713    6.8032 O   0  0  0  0  0  0  0  0  0  0  0  0
   47.3795    4.0884    7.4700 O   0  0  0  0  0  0  0  0  0  0  0  0
   46.8018    3.0832    5.2430 O   0  0  0  0  0  0  0  0  0  0  0  0
   47.5987    2.7644    6.6992 O   0  0  0  0  0  0  0  0  0  0  0  0
   47.1102    2.7750    6.7173 Ca  0  0  0  0  0 15  0  0  0  0  0  0
   47.1102    2.7750    6.7173 Ca  0  0  0  0  0 15  0  0  0  0  0  0
   47.1102    2.7750    6.7173 P   0  0  0  0  0  0  0  0  0  0  0  0
   46.4225    2.4586    5.3791 O   0  0  0  0  0  0  0  0  0  0  0  0
   47.1419    4.2974    6.9300 O   0  0  0  0  0  0  0  0  0  0  0  0
   46.3285    2.1135    7.8642 O   0  0  0  0  0  0  0  0  0  0  0  0
   48.5479    2.2304    6.6960 O   0  0  0  0  0  0  0  0  0  0  0  0
   47.1102    2.7750    6.7173 P   0  0  0  0  0  0  0  0  0  0  0  0
   46.5615    2.3968    5.3318 O   0  0  0  0  0  0  0  0  0  0  0  0
   48.5741    3.2254    6.5833 O   0  0  0  0  0  0  0  0  0  0  0  0
   46.2726    3.9228    7.3045 O   0  0  0  0  0  0  0  0  0  0  0  0
   47.0327    1.5550    7.6498 O   0  0  0  0  0  0  0  0  0  0  0  0
   47.1102    2.7750    6.7173 Ca  0  0  0  0  0 15  0  0  0  0  0  0
   47.1102    2.7750    6.7173 Ca  0  0  0  0  0 15  0  0  0  0  0  0
   46.6218    2.7856    6.7355 H   0  0  0  0  0  0  0  0  0  0  0  0
  3  2  1  0
  4  2  1  0
  5  2  2  0
  6  2  1  0
 10 11  1  0
 10 12  2  0
 10 13  1  0
 10 14  1  0
 15 16  1  0
 15 17  2  0
 15 18  1  0
 15 19  1  0
  7 22  1  0
M  CHG  8   1   2   3  -1   4  -1   6  -1   7  -1   8   2   9   2  11  -1
M  CHG  7  13  -1  14  -1  16  -1  18  -1  19  -1  20   2  21   2
M  END
> <Uni-Dock RESULT> 
ENERGY=   -6.000  LOWER_BOUND=    0.469  UPPER_BOUND=    1.775
INTER + INTRA:          -6.000
INTER:                  -6.000
INTRA:                   0.000
UNBOUND:                 0.000

$$$$

     RDKit          3D

 22 13  0  0  0  0  0  0  0  0999 V2000
   47.3002    2.4640    6.5232 Ca  0  0  0  0  0 15  0  0  0  0  0  0
   47.3002    2.4640    6.5232 P   0  0  0  0  0  0  0  0  0  0  0  0
   47.1118    2.9712    5.0840 O   0  0  0  0  0  0  0  0  0  0  0  0
   47.0024    0.9566    6.5785 O   0  0  0  0  0  0  0  0  0  0  0  0
   46.3373    3.2114    7.4603 O   0  0  0  0  0  0  0  0  0  0  0  0
   48.7495    2.7167    6.9700 O   0  0  0  0  0  0  0  0  0  0  0  0
   47.1873    2.0896    6.8167 O   0  0  0  0  0  0  0  0  0  0  0  0
   47.3002    2.4640    6.5232 Ca  0  0  0  0  0 15  0  0  0  0  0  0
   47.3002    2.4640    6.5232 Ca  0  0  0  0  0 15  0  0  0  0  0  0
   47.3002    2.4640    6.5232 P   0  0  0  0  0  0  0  0  0  0  0  0
   48.8038    2.6091    6.2365 O   0  0  0  0  0  0  0  0  0  0  0  0
   46.8892    3.4599    7.6200 O   0  0  0  0  0  0  0  0  0  0  0  0
   46.5035    2.7560    5.2410 O   0  0  0  0  0  0  0  0  0  0  0  0
   47.0046    1.0309    6.9952 O   0  0  0  0  0  0  0  0  0  0  0  0
   47.3002    2.4640    6.5232 P   0  0  0  0  0  0  0  0  0  0  0  0
   48.8196    2.4591    6.2876 O   0  0  0  0  0  0  0  0  0  0  0  0
   46.9746    1.6471    7.7844 O   0  0  0  0  0  0  0  0  0  0  0  0
   46.8152    3.9109    6.7104 O   0  0  0  0  0  0  0  0  0  0  0  0
   46.5916    1.8388    5.3104 O   0  0  0  0  0  0  0  0  0  0  0  0
   47.3002    2.4640    6.5232 Ca  0  0  0  0  0 15  0  0  0  0  0  0
   47.3002    2.4640    6.5232 Ca  0  0  0  0  0 15  0  0  0  0  0  0
   47.4132    2.8383    6.2297 H   0  0  0  0  0  0  0  0  0  0  0  0
  3  2  1  0
  4  2  1  0
  5  2  2  0
  6  2  1  0
 10 11  1  0
 10 12  2  0
 10 13  1  0
 10 14  1  0
 15 16  1  0
 15 17  2  0
 15 18  1  0
 15 19  1  0
  7 22  1  0
M  CHG  8   1   2   3  -1   4  -1   6  -1   7  -1   8   2   9   2  11  -1
M  CHG  7  13  -1  14  -1  16  -1  18  -1  19  -1  20   2  21   2
M  END
> <Uni-Dock RESULT> 
ENERGY=   -5.950  LOWER_BOUND=    0.407  UPPER_BOUND=    1.905
INTER + INTRA:          -5.950
INTER:                  -5.950
INTRA:                   0.000
UNBOUND:                 0.000

$$$$

     RDKit          3D

 22 13  0  0  0  0  0  0  0  0999 V2000
   47.3743    2.4433    6.5109 Ca  0  0  0  0  0 15  0  0  0  0  0  0
   47.3743    2.4433    6.5109 P   0  0  0  0  0  0  0  0  0  0  0  0
   47.1543    1.3657    7.5854 O   0  0  0  0  0  0  0  0  0  0  0  0
   46.2845    2.3223    5.4331 O   0  0  0  0  0  0  0  0  0  0  0  0
   48.7566    2.2495    5.8662 O   0  0  0  0  0  0  0  0  0  0  0  0
   47.3018    3.8355    7.1590 O   0  0  0  0  0  0  0  0  0  0  0  0
   47.2517    2.5592    6.0520 O   0  0  0  0  0  0  0  0  0  0  0  0
   47.3743    2.4433    6.5109 Ca  0  0  0  0  0 15  0  0  0  0  0  0
   47.3743    2.4433    6.5109 Ca  0  0  0  0  0 15  0  0  0  0  0  0
   47.3743    2.4433    6.5109 P   0  0  0  0  0  0  0  0  0  0  0  0
   46.8429    3.4212    7.5717 O   0  0  0  0  0  0  0  0  0  0  0  0
   48.8469    2.7655    6.2087 O   0  0  0  0  0  0  0  0  0  0  0  0
   47.2627    1.0037    7.0393 O   0  0  0  0  0  0  0  0  0  0  0  0
   46.5446    2.5827    5.2240 O   0  0  0  0  0  0  0  0  0  0  0  0
   47.3743    2.4433    6.5109 P   0  0  0  0  0  0  0  0  0  0  0  0
   46.7410    3.4731    7.4608 O   0  0  0  0  0  0  0  0  0  0  0  0
   47.4329    3.0256    5.0892 O   0  0  0  0  0  0  0  0  0  0  0  0
   48.7979    2.1130    6.9885 O   0  0  0  0  0  0  0  0  0  0  0  0
   46.5253    1.1614    6.5052 O   0  0  0  0  0  0  0  0  0  0  0  0
   47.3743    2.4433    6.5109 Ca  0  0  0  0  0 15  0  0  0  0  0  0
   47.3743    2.4433    6.5109 Ca  0  0  0  0  0 15  0  0  0  0  0  0
   47.4969    2.3273    6.9698 H   0  0  0  0  0  0  0  0  0  0  0  0
  3  2  1  0
  4  2  1  0
  5  2  2  0
  6  2  1  0
 10 11  1  0
 10 12  2  0
 10 13  1  0
 10 14  1  0
 15 16  1  0
 15 17  2  0
 15 18  1  0
 15 19  1  0
  7 22  1  0
M  CHG  8   1   2   3  -1   4  -1   6  -1   7  -1   8   2   9   2  11  -1
M  CHG  7  13  -1  14  -1  16  -1  18  -1  19  -1  20   2  21   2
M  END
> <Uni-Dock RESULT> 
ENERGY=   -5.930  LOWER_BOUND=    0.435  UPPER_BOUND=    1.910
INTER + INTRA:          -5.930
INTER:                  -5.930
INTRA:                   0.000
UNBOUND:                 0.000

$$$$

     RDKit          3D

 22 13  0  0  0  0  0  0  0  0999 V2000
   43.1626    5.3404   11.9720 Ca  0  0  0  0  0 15  0  0  0  0  0  0
   43.1626    5.3404   11.9720 P   0  0  0  0  0  0  0  0  0  0  0  0
   42.7142    5.0247   13.4084 O   0  0  0  0  0  0  0  0  0  0  0  0
   43.0008    4.0863   11.0973 O   0  0  0  0  0  0  0  0  0  0  0  0
   44.6378    5.7736   11.9791 O   0  0  0  0  0  0  0  0  0  0  0  0
   42.2974    6.4770   11.4032 O   0  0  0  0  0  0  0  0  0  0  0  0
   43.2987    5.1237   11.5554 O   0  0  0  0  0  0  0  0  0  0  0  0
   43.1626    5.3404   11.9720 Ca  0  0  0  0  0 15  0  0  0  0  0  0
   43.1626    5.3404   11.9720 Ca  0  0  0  0  0 15  0  0  0  0  0  0
   43.1626    5.3404   11.9720 P   0  0  0  0  0  0  0  0  0  0  0  0
   41.8431    6.1235   11.8735 O   0  0  0  0  0  0  0  0  0  0  0  0
   44.3465    6.3152   11.8624 O   0  0  0  0  0  0  0  0  0  0  0  0
   43.2246    4.6086   13.3228 O   0  0  0  0  0  0  0  0  0  0  0  0
   43.2361    4.3144   10.8293 O   0  0  0  0  0  0  0  0  0  0  0  0
   43.1626    5.3404   11.9720 P   0  0  0  0  0  0  0  0  0  0  0  0
   41.8140    6.0415   11.7401 O   0  0  0  0  0  0  0  0  0  0  0  0
   43.8449    5.0814   10.6187 O   0  0  0  0  0  0  0  0  0  0  0  0
   44.0639    6.2364   12.8372 O   0  0  0  0  0  0  0  0  0  0  0  0
   42.9275    4.0023   12.6919 O   0  0  0  0  0  0  0  0  0  0  0  0
   43.1626    5.3404   11.9720 Ca  0  0  0  0  0 15  0  0  0  0  0  0
   43.1626    5.3404   11.9720 Ca  0  0  0  0  0 15  0  0  0  0  0  0
   43.0265    5.5571   12.3886 H   0  0  0  0  0  0  0  0  0  0  0  0
  3  2  1  0
  4  2  1  0
  5  2  2  0
  6  2  1  0
 10 11  1  0
 10 12  2  0
 10 13  1  0
 10 14  1  0
 15 16  1  0
 15 17  2  0
 15 18  1  0
 15 19  1  0
  7 22  1  0
M  CHG  8   1   2   3  -1   4  -1   6  -1   7  -1   8   2   9   2  11  -1
M  CHG  7  13  -1  14  -1  16  -1  18  -1  19  -1  20   2  21   2
M  END
> <Uni-Dock RESULT> 
ENERGY=   -5.491  LOWER_BOUND=    6.532  UPPER_BOUND=    7.509
INTER + INTRA:          -5.491
INTER:                  -5.491
INTRA:                   0.000
UNBOUND:                 0.000

$$$$

     RDKit          3D

 22 13  0  0  0  0  0  0  0  0999 V2000
   43.0953    5.3113   11.9409 Ca  0  0  0  0  0 15  0  0  0  0  0  0
   43.0953    5.3113   11.9409 P   0  0  0  0  0  0  0  0  0  0  0  0
   43.9280    6.1130   10.9271 O   0  0  0  0  0  0  0  0  0  0  0  0
   43.5409    5.6702   13.3681 O   0  0  0  0  0  0  0  0  0  0  0  0
   43.3054    3.8071   11.7014 O   0  0  0  0  0  0  0  0  0  0  0  0
   41.6068    5.6549   11.7672 O   0  0  0  0  0  0  0  0  0  0  0  0
   43.0929    5.1674   12.4082 O   0  0  0  0  0  0  0  0  0  0  0  0
   43.0953    5.3113   11.9409 Ca  0  0  0  0  0 15  0  0  0  0  0  0
   43.0953    5.3113   11.9409 Ca  0  0  0  0  0 15  0  0  0  0  0  0
   43.0953    5.3113   11.9409 P   0  0  0  0  0  0  0  0  0  0  0  0
   41.9593    6.2801   11.5738 O   0  0  0  0  0  0  0  0  0  0  0  0
   42.7214    3.8893   11.4917 O   0  0  0  0  0  0  0  0  0  0  0  0
   44.3895    5.7481   11.2351 O   0  0  0  0  0  0  0  0  0  0  0  0
   43.3110    5.3278   13.4631 O   0  0  0  0  0  0  0  0  0  0  0  0
   43.0953    5.3113   11.9409 P   0  0  0  0  0  0  0  0  0  0  0  0
   41.9416    6.3056   11.7300 O   0  0  0  0  0  0  0  0  0  0  0  0
   42.8334    4.4843   13.2104 O   0  0  0  0  0  0  0  0  0  0  0  0
   43.1903    4.3716   10.7277 O   0  0  0  0  0  0  0  0  0  0  0  0
   44.4157    6.0836   12.0957 O   0  0  0  0  0  0  0  0  0  0  0  0
   43.0953    5.3113   11.9409 Ca  0  0  0  0  0 15  0  0  0  0  0  0
   43.0953    5.3113   11.9409 Ca  0  0  0  0  0 15  0  0  0  0  0  0
   43.0976    5.4551   11.4737 H   0  0  0  0  0  0  0  0  0  0  0  0
  3  2  1  0
  4  2  1  0
  5  2  2  0
  6  2  1  0
 10 11  1  0
 10 12  2  0
 10 13  1  0
 10 14  1  0
 15 16  1  0
 15 17  2  0
 15 18  1  0
 15 19  1  0
  7 22  1  0
M  CHG  8   1   2   3  -1   4  -1   6  -1   7  -1   8   2   9   2  11  -1
M  CHG  7  13  -1  14  -1  16  -1  18  -1  19  -1  20   2  21   2
M  END
> <Uni-Dock RESULT> 
ENERGY=   -5.458  LOWER_BOUND=    6.641  UPPER_BOUND=    7.382
INTER + INTRA:          -5.458
INTER:                  -5.458
INTRA:                   0.000
UNBOUND:                 0.000

$$$$

     RDKit          3D

 22 13  0  0  0  0  0  0  0  0999 V2000
   43.2228    5.3351   11.9261 Ca  0  0  0  0  0 15  0  0  0  0  0  0
   43.2228    5.3351   11.9261 P   0  0  0  0  0  0  0  0  0  0  0  0
   44.7600    5.3182   11.8975 O   0  0  0  0  0  0  0  0  0  0  0  0
   42.7082    6.5330   11.1111 O   0  0  0  0  0  0  0  0  0  0  0  0
   42.7386    5.4584   13.3802 O   0  0  0  0  0  0  0  0  0  0  0  0
   42.6845    4.0307   11.3156 O   0  0  0  0  0  0  0  0  0  0  0  0
   42.8401    5.6283   11.8453 O   0  0  0  0  0  0  0  0  0  0  0  0
   43.2228    5.3351   11.9261 Ca  0  0  0  0  0 15  0  0  0  0  0  0
   43.2228    5.3351   11.9261 Ca  0  0  0  0  0 15  0  0  0  0  0  0
   43.2228    5.3351   11.9261 P   0  0  0  0  0  0  0  0  0  0  0  0
   43.3237    4.1477   10.9545 O   0  0  0  0  0  0  0  0  0  0  0  0
   42.5943    4.8638   13.2478 O   0  0  0  0  0  0  0  0  0  0  0  0
   44.6285    5.8955   12.1981 O   0  0  0  0  0  0  0  0  0  0  0  0
   42.3448    6.4332   11.3039 O   0  0  0  0  0  0  0  0  0  0  0  0
   43.2228    5.3351   11.9261 P   0  0  0  0  0  0  0  0  0  0  0  0
   43.2235    4.2274   10.8598 O   0  0  0  0  0  0  0  0  0  0  0  0
   41.8209    5.9602   12.0148 O   0  0  0  0  0  0  0  0  0  0  0  0
   43.6032    4.7344   13.2893 O   0  0  0  0  0  0  0  0  0  0  0  0
   44.2436    6.4182   11.5406 O   0  0  0  0  0  0  0  0  0  0  0  0
   43.2228    5.3351   11.9261 Ca  0  0  0  0  0 15  0  0  0  0  0  0
   43.2228    5.3351   11.9261 Ca  0  0  0  0  0 15  0  0  0  0  0  0
   43.6055    5.0418   12.0070 H   0  0  0  0  0  0  0  0  0  0  0  0
  3  2  1  0
  4  2  1  0
  5  2  2  0
  6  2  1  0
 10 11  1  0
 10 12  2  0
 10 13  1  0
 10 14  1  0
 15 16  1  0
 15 17  2  0
 15 18  1  0
 15 19  1  0
  7 22  1  0
M  CHG  8   1   2   3  -1   4  -1   6  -1   7  -1   8   2   9   2  11  -1
M  CHG  7  13  -1  14  -1  16  -1  18  -1  19  -1  20   2  21   2
M  END
> <Uni-Dock RESULT> 
ENERGY=   -5.286  LOWER_BOUND=    6.626  UPPER_BOUND=    7.295
INTER + INTRA:          -5.286
INTER:                  -5.286
INTRA:                   0.000
UNBOUND:                 0.000

$$$$

     RDKit          3D

 22 13  0  0  0  0  0  0  0  0999 V2000
   43.2546    4.9903   12.0983 Ca  0  0  0  0  0 15  0  0  0  0  0  0
   43.2546    4.9903   12.0983 P   0  0  0  0  0  0  0  0  0  0  0  0
   43.5604    4.0795   10.8979 O   0  0  0  0  0  0  0  0  0  0  0  0
   43.1020    4.1336   13.3660 O   0  0  0  0  0  0  0  0  0  0  0  0
   41.9484    5.7589   11.8389 O   0  0  0  0  0  0  0  0  0  0  0  0
   44.4074    5.9892   12.2906 O   0  0  0  0  0  0  0  0  0  0  0  0
   43.0779    4.9792   12.5541 O   0  0  0  0  0  0  0  0  0  0  0  0
   43.2546    4.9903   12.0983 Ca  0  0  0  0  0 15  0  0  0  0  0  0
   43.2546    4.9903   12.0983 Ca  0  0  0  0  0 15  0  0  0  0  0  0
   43.2546    4.9903   12.0983 P   0  0  0  0  0  0  0  0  0  0  0  0
   44.7372    5.3867   12.0063 O   0  0  0  0  0  0  0  0  0  0  0  0
   42.3768    6.2112   11.7780 O   0  0  0  0  0  0  0  0  0  0  0  0
   42.9604    3.8685   11.0888 O   0  0  0  0  0  0  0  0  0  0  0  0
   42.9440    4.4947   13.5202 O   0  0  0  0  0  0  0  0  0  0  0  0
   43.2546    4.9903   12.0983 P   0  0  0  0  0  0  0  0  0  0  0  0
   44.7474    5.3530   12.1616 O   0  0  0  0  0  0  0  0  0  0  0  0
   42.5679    5.4161   13.4064 O   0  0  0  0  0  0  0  0  0  0  0  0
   42.5994    5.7204   10.9144 O   0  0  0  0  0  0  0  0  0  0  0  0
   43.1036    3.4717   11.9109 O   0  0  0  0  0  0  0  0  0  0  0  0
   43.2546    4.9903   12.0983 Ca  0  0  0  0  0 15  0  0  0  0  0  0
   43.2546    4.9903   12.0983 Ca  0  0  0  0  0 15  0  0  0  0  0  0
   43.4312    5.0014   11.6426 H   0  0  0  0  0  0  0  0  0  0  0  0
  3  2  1  0
  4  2  1  0
  5  2  2  0
  6  2  1  0
 10 11  1  0
 10 12  2  0
 10 13  1  0
 10 14  1  0
 15 16  1  0
 15 17  2  0
 15 18  1  0
 15 19  1  0
  7 22  1  0
M  CHG  8   1   2   3  -1   4  -1   6  -1   7  -1   8   2   9   2  11  -1
M  CHG  7  13  -1  14  -1  16  -1  18  -1  19  -1  20   2  21   2
M  END
> <Uni-Dock RESULT> 
ENERGY=   -5.271  LOWER_BOUND=    6.504  UPPER_BOUND=    7.430
INTER + INTRA:          -5.271
INTER:                  -5.271
INTRA:                   0.000
UNBOUND:                 0.000

$$$$

     RDKit          3D

 22 13  0  0  0  0  0  0  0  0999 V2000
   43.3033    4.8393   11.7879 Ca  0  0  0  0  0 15  0  0  0  0  0  0
   43.3033    4.8393   11.7879 P   0  0  0  0  0  0  0  0  0  0  0  0
   43.9664    4.8850   10.4014 O   0  0  0  0  0  0  0  0  0  0  0  0
   41.9757    5.6138   11.7469 O   0  0  0  0  0  0  0  0  0  0  0  0
   44.2394    5.4812   12.8251 O   0  0  0  0  0  0  0  0  0  0  0  0
   43.0318    3.3772   12.1781 O   0  0  0  0  0  0  0  0  0  0  0  0
   42.9622    5.0618   12.0583 O   0  0  0  0  0  0  0  0  0  0  0  0
   43.3033    4.8393   11.7879 Ca  0  0  0  0  0 15  0  0  0  0  0  0
   43.3033    4.8393   11.7879 Ca  0  0  0  0  0 15  0  0  0  0  0  0
   43.3033    4.8393   11.7879 P   0  0  0  0  0  0  0  0  0  0  0  0
   42.9761    3.3786   11.4369 O   0  0  0  0  0  0  0  0  0  0  0  0
   44.2803    4.8747   12.9745 O   0  0  0  0  0  0  0  0  0  0  0  0
   43.9479    5.5263   10.5727 O   0  0  0  0  0  0  0  0  0  0  0  0
   42.0091    5.5775   12.1673 O   0  0  0  0  0  0  0  0  0  0  0  0
   43.3033    4.8393   11.7879 P   0  0  0  0  0  0  0  0  0  0  0  0
   42.8252    3.4117   11.4759 O   0  0  0  0  0  0  0  0  0  0  0  0
   42.5311    5.3849   13.0003 O   0  0  0  0  0  0  0  0  0  0  0  0
   44.8075    4.8182   12.1056 O   0  0  0  0  0  0  0  0  0  0  0  0
   43.0495    5.7424   10.5697 O   0  0  0  0  0  0  0  0  0  0  0  0
   43.3033    4.8393   11.7879 Ca  0  0  0  0  0 15  0  0  0  0  0  0
   43.3033    4.8393   11.7879 Ca  0  0  0  0  0 15  0  0  0  0  0  0
   43.6445    4.6168   11.5174 H   0  0  0  0  0  0  0  0  0  0  0  0
  3  2  1  0
  4  2  1  0
  5  2  2  0
  6  2  1  0
 10 11  1  0
 10 12  2  0
 10 13  1  0
 10 14  1  0
 15 16  1  0
 15 17  2  0
 15 18  1  0
 15 19  1  0
  7 22  1  0
M  CHG  8   1   2   3  -1   4  -1   6  -1   7  -1   8   2   9   2  11  -1
M  CHG  7  13  -1  14  -1  16  -1  18  -1  19  -1  20   2  21   2
M  END
> <Uni-Dock RESULT> 
ENERGY=   -5.234  LOWER_BOUND=    6.195  UPPER_BOUND=    7.046
INTER + INTRA:          -5.234
INTER:                  -5.234
INTRA:                   0.000
UNBOUND:                 0.000

$$$$
