
     RDKit          3D

 22 13  0  0  0  0  0  0  0  0999 V2000
   47.1908    2.7108    6.7122 Ca  0  0  0  0  0 15  0  0  0  0  0  0
   47.1908    2.7108    6.7122 P   0  0  0  0  0  0  0  0  0  0  0  0
   48.6914    2.4145    6.5560 O   0  0  0  0  0  0  0  0  0  0  0  0
   46.9987    4.1786    7.1279 O   0  0  0  0  0  0  0  0  0  0  0  0
   46.5962    1.7905    7.7909 O   0  0  0  0  0  0  0  0  0  0  0  0
   46.4767    2.4596    5.3739 O   0  0  0  0  0  0  0  0  0  0  0  0
   46.9416    3.0838    6.9065 O   0  0  0  0  0  0  0  0  0  0  0  0
   47.1908    2.7108    6.7122 Ca  0  0  0  0  0 15  0  0  0  0  0  0
   47.1908    2.7108    6.7122 Ca  0  0  0  0  0 15  0  0  0  0  0  0
   47.1908    2.7108    6.7122 P   0  0  0  0  0  0  0  0  0  0  0  0
   46.5702    2.5766    5.3119 O   0  0  0  0  0  0  0  0  0  0  0  0
   46.4644    1.7695    7.6871 O   0  0  0  0  0  0  0  0  0  0  0  0
   47.0481    4.1622    7.1990 O   0  0  0  0  0  0  0  0  0  0  0  0
   48.6803    2.3349    6.6508 O   0  0  0  0  0  0  0  0  0  0  0  0
   47.1908    2.7108    6.7122 P   0  0  0  0  0  0  0  0  0  0  0  0
   48.7134    2.7302    6.4994 O   0  0  0  0  0  0  0  0  0  0  0  0
   46.4818    2.8698    5.3571 O   0  0  0  0  0  0  0  0  0  0  0  0
   46.7796    1.3745    7.3520 O   0  0  0  0  0  0  0  0  0  0  0  0
   46.7882    3.8687    7.6402 O   0  0  0  0  0  0  0  0  0  0  0  0
   47.1908    2.7108    6.7122 Ca  0  0  0  0  0 15  0  0  0  0  0  0
   47.1908    2.7108    6.7122 Ca  0  0  0  0  0 15  0  0  0  0  0  0
   47.4399    2.3377    6.5178 H   0  0  0  0  0  0  0  0  0  0  0  0
  3  2  1  0
  4  2  1  0
  5  2  2  0
  6  2  1  0
 10 11  1  0
 10 12  2  0
 10 13  1  0
 10 14  1  0
 15 16  1  0
 15 17  2  0
 15 18  1  0
 15 19  1  0
  7 22  1  0
M  CHG  8   1   2   3  -1   4  -1   6  -1   7  -1   8   2   9   2  11  -1
M  CHG  7  13  -1  14  -1  16  -1  18  -1  19  -1  20   2  21   2
M  END
> <Uni-Dock RESULT> 
ENERGY=   -6.912  LOWER_BOUND=    0.000  UPPER_BOUND=    0.000
INTER + INTRA:          -6.912
INTER:                  -6.912
INTRA:                   0.000
UNBOUND:                 0.000

$$$$

     RDKit          3D

 22 13  0  0  0  0  0  0  0  0999 V2000
   47.2035    2.7199    6.7346 Ca  0  0  0  0  0 15  0  0  0  0  0  0
   47.2035    2.7199    6.7346 P   0  0  0  0  0  0  0  0  0  0  0  0
   47.0877    4.1546    7.2752 O   0  0  0  0  0  0  0  0  0  0  0  0
   46.3916    1.7683    7.6286 O   0  0  0  0  0  0  0  0  0  0  0  0
   48.6796    2.2895    6.7355 O   0  0  0  0  0  0  0  0  0  0  0  0
   46.6552    2.6673    5.2992 O   0  0  0  0  0  0  0  0  0  0  0  0
   47.0856    2.2824    6.9182 O   0  0  0  0  0  0  0  0  0  0  0  0
   47.2035    2.7199    6.7346 Ca  0  0  0  0  0 15  0  0  0  0  0  0
   47.2035    2.7199    6.7346 Ca  0  0  0  0  0 15  0  0  0  0  0  0
   47.2035    2.7199    6.7346 P   0  0  0  0  0  0  0  0  0  0  0  0
   46.5125    2.7128    5.3611 O   0  0  0  0  0  0  0  0  0  0  0  0
   48.6504    2.2223    6.5830 O   0  0  0  0  0  0  0  0  0  0  0  0
   46.4412    1.7940    7.6966 O   0  0  0  0  0  0  0  0  0  0  0  0
   47.2099    4.1506    7.2977 O   0  0  0  0  0  0  0  0  0  0  0  0
   47.2035    2.7199    6.7346 P   0  0  0  0  0  0  0  0  0  0  0  0
   46.8100    4.0497    7.3985 O   0  0  0  0  0  0  0  0  0  0  0  0
   46.3342    2.4930    5.4868 O   0  0  0  0  0  0  0  0  0  0  0  0
   48.6847    2.7701    6.3251 O   0  0  0  0  0  0  0  0  0  0  0  0
   46.9851    1.5668    7.7279 O   0  0  0  0  0  0  0  0  0  0  0  0
   47.2035    2.7199    6.7346 Ca  0  0  0  0  0 15  0  0  0  0  0  0
   47.2035    2.7199    6.7346 Ca  0  0  0  0  0 15  0  0  0  0  0  0
   47.3214    3.1575    6.5510 H   0  0  0  0  0  0  0  0  0  0  0  0
  3  2  1  0
  4  2  1  0
  5  2  2  0
  6  2  1  0
 10 11  1  0
 10 12  2  0
 10 13  1  0
 10 14  1  0
 15 16  1  0
 15 17  2  0
 15 18  1  0
 15 19  1  0
  7 22  1  0
M  CHG  8   1   2   3  -1   4  -1   6  -1   7  -1   8   2   9   2  11  -1
M  CHG  7  13  -1  14  -1  16  -1  18  -1  19  -1  20   2  21   2
M  END
> <Uni-Dock RESULT> 
ENERGY=   -6.901  LOWER_BOUND=    0.240  UPPER_BOUND=    1.628
INTER + INTRA:          -6.901
INTER:                  -6.901
INTRA:                   0.000
UNBOUND:                 0.000

$$$$

     RDKit          3D

 22 13  0  0  0  0  0  0  0  0999 V2000
   47.2254    2.7244    6.6880 Ca  0  0  0  0  0 15  0  0  0  0  0  0
   47.2254    2.7244    6.6880 P   0  0  0  0  0  0  0  0  0  0  0  0
   46.9578    4.1263    7.2600 O   0  0  0  0  0  0  0  0  0  0  0  0
   48.7419    2.4829    6.6118 O   0  0  0  0  0  0  0  0  0  0  0  0
   46.6185    2.6214    5.2791 O   0  0  0  0  0  0  0  0  0  0  0  0
   46.5833    1.6672    7.6012 O   0  0  0  0  0  0  0  0  0  0  0  0
   47.6274    2.5022    6.5208 O   0  0  0  0  0  0  0  0  0  0  0  0
   47.2254    2.7244    6.6880 Ca  0  0  0  0  0 15  0  0  0  0  0  0
   47.2254    2.7244    6.6880 Ca  0  0  0  0  0 15  0  0  0  0  0  0
   47.2254    2.7244    6.6880 P   0  0  0  0  0  0  0  0  0  0  0  0
   46.6821    1.7206    7.7181 O   0  0  0  0  0  0  0  0  0  0  0  0
   46.5642    2.4676    5.3239 O   0  0  0  0  0  0  0  0  0  0  0  0
   48.7480    2.5537    6.5598 O   0  0  0  0  0  0  0  0  0  0  0  0
   46.9073    4.1559    7.1503 O   0  0  0  0  0  0  0  0  0  0  0  0
   47.2254    2.7244    6.6880 P   0  0  0  0  0  0  0  0  0  0  0  0
   47.2459    4.0883    7.3975 O   0  0  0  0  0  0  0  0  0  0  0  0
   46.9725    1.6134    7.7204 O   0  0  0  0  0  0  0  0  0  0  0  0
   46.1045    2.7109    5.6356 O   0  0  0  0  0  0  0  0  0  0  0  0
   48.5786    2.4850    5.9985 O   0  0  0  0  0  0  0  0  0  0  0  0
   47.2254    2.7244    6.6880 Ca  0  0  0  0  0 15  0  0  0  0  0  0
   47.2254    2.7244    6.6880 Ca  0  0  0  0  0 15  0  0  0  0  0  0
   46.8233    2.9467    6.8552 H   0  0  0  0  0  0  0  0  0  0  0  0
  3  2  1  0
  4  2  1  0
  5  2  2  0
  6  2  1  0
 10 11  1  0
 10 12  2  0
 10 13  1  0
 10 14  1  0
 15 16  1  0
 15 17  2  0
 15 18  1  0
 15 19  1  0
  7 22  1  0
M  CHG  8   1   2   3  -1   4  -1   6  -1   7  -1   8   2   9   2  11  -1
M  CHG  7  13  -1  14  -1  16  -1  18  -1  19  -1  20   2  21   2
M  END
> <Uni-Dock RESULT> 
ENERGY=   -6.807  LOWER_BOUND=    0.303  UPPER_BOUND=    1.910
INTER + INTRA:          -6.807
INTER:                  -6.807
INTRA:                   0.000
UNBOUND:                 0.000

$$$$

     RDKit          3D

 22 13  0  0  0  0  0  0  0  0999 V2000
   47.2805    2.3098    6.6302 Ca  0  0  0  0  0 15  0  0  0  0  0  0
   47.2805    2.3098    6.6302 P   0  0  0  0  0  0  0  0  0  0  0  0
   46.6248    2.6346    5.2780 O   0  0  0  0  0  0  0  0  0  0  0  0
   47.1520    0.8041    6.9137 O   0  0  0  0  0  0  0  0  0  0  0  0
   46.5776    3.1029    7.7443 O   0  0  0  0  0  0  0  0  0  0  0  0
   48.7676    2.6977    6.5850 O   0  0  0  0  0  0  0  0  0  0  0  0
   47.2738    1.9158    6.9196 O   0  0  0  0  0  0  0  0  0  0  0  0
   47.2805    2.3098    6.6302 Ca  0  0  0  0  0 15  0  0  0  0  0  0
   47.2805    2.3098    6.6302 Ca  0  0  0  0  0 15  0  0  0  0  0  0
   47.2805    2.3098    6.6302 P   0  0  0  0  0  0  0  0  0  0  0  0
   48.7835    2.5889    6.4659 O   0  0  0  0  0  0  0  0  0  0  0  0
   46.7318    3.1338    7.8067 O   0  0  0  0  0  0  0  0  0  0  0  0
   47.0646    0.8131    6.9081 O   0  0  0  0  0  0  0  0  0  0  0  0
   46.5421    2.7034    5.3404 O   0  0  0  0  0  0  0  0  0  0  0  0
   47.2805    2.3098    6.6302 P   0  0  0  0  0  0  0  0  0  0  0  0
   46.6900    2.3270    5.2108 O   0  0  0  0  0  0  0  0  0  0  0  0
   48.8157    2.2918    6.5466 O   0  0  0  0  0  0  0  0  0  0  0  0
   46.8235    3.5655    7.3908 O   0  0  0  0  0  0  0  0  0  0  0  0
   46.7930    1.0550    7.3729 O   0  0  0  0  0  0  0  0  0  0  0  0
   47.2805    2.3098    6.6302 Ca  0  0  0  0  0 15  0  0  0  0  0  0
   47.2805    2.3098    6.6302 Ca  0  0  0  0  0 15  0  0  0  0  0  0
   47.2872    2.7039    6.3409 H   0  0  0  0  0  0  0  0  0  0  0  0
  3  2  1  0
  4  2  1  0
  5  2  2  0
  6  2  1  0
 10 11  1  0
 10 12  2  0
 10 13  1  0
 10 14  1  0
 15 16  1  0
 15 17  2  0
 15 18  1  0
 15 19  1  0
  7 22  1  0
M  CHG  8   1   2   3  -1   4  -1   6  -1   7  -1   8   2   9   2  11  -1
M  CHG  7  13  -1  14  -1  16  -1  18  -1  19  -1  20   2  21   2
M  END
> <Uni-Dock RESULT> 
ENERGY=   -6.803  LOWER_BOUND=    0.489  UPPER_BOUND=    1.959
INTER + INTRA:          -6.803
INTER:                  -6.803
INTRA:                   0.000
UNBOUND:                 0.000

$$$$

     RDKit          3D

 22 13  0  0  0  0  0  0  0  0999 V2000
   43.0357    5.2760   12.0985 Ca  0  0  0  0  0 15  0  0  0  0  0  0
   43.0357    5.2760   12.0985 P   0  0  0  0  0  0  0  0  0  0  0  0
   44.3842    5.9984   11.9442 O   0  0  0  0  0  0  0  0  0  0  0  0
   42.7702    4.9989   13.5874 O   0  0  0  0  0  0  0  0  0  0  0  0
   43.0759    3.9457   11.3287 O   0  0  0  0  0  0  0  0  0  0  0  0
   41.9126    6.1612   11.5337 O   0  0  0  0  0  0  0  0  0  0  0  0
   42.8214    5.0431   12.4711 O   0  0  0  0  0  0  0  0  0  0  0  0
   43.0357    5.2760   12.0985 Ca  0  0  0  0  0 15  0  0  0  0  0  0
   43.0357    5.2760   12.0985 Ca  0  0  0  0  0 15  0  0  0  0  0  0
   43.0357    5.2760   12.0985 P   0  0  0  0  0  0  0  0  0  0  0  0
   41.9529    6.2698   11.6471 O   0  0  0  0  0  0  0  0  0  0  0  0
   42.9198    3.9827   11.2751 O   0  0  0  0  0  0  0  0  0  0  0  0
   42.8453    4.9530   13.5896 O   0  0  0  0  0  0  0  0  0  0  0  0
   44.4248    5.8985   11.8823 O   0  0  0  0  0  0  0  0  0  0  0  0
   43.0357    5.2760   12.0985 P   0  0  0  0  0  0  0  0  0  0  0  0
   44.3276    6.0967   12.2450 O   0  0  0  0  0  0  0  0  0  0  0  0
   41.8398    6.2281   11.9323 O   0  0  0  0  0  0  0  0  0  0  0  0
   43.1430    4.3673   10.8629 O   0  0  0  0  0  0  0  0  0  0  0  0
   42.8323    4.4121   13.3539 O   0  0  0  0  0  0  0  0  0  0  0  0
   43.0357    5.2760   12.0985 Ca  0  0  0  0  0 15  0  0  0  0  0  0
   43.0357    5.2760   12.0985 Ca  0  0  0  0  0 15  0  0  0  0  0  0
   43.2501    5.5090   11.7259 H   0  0  0  0  0  0  0  0  0  0  0  0
  3  2  1  0
  4  2  1  0
  5  2  2  0
  6  2  1  0
 10 11  1  0
 10 12  2  0
 10 13  1  0
 10 14  1  0
 15 16  1  0
 15 17  2  0
 15 18  1  0
 15 19  1  0
  7 22  1  0
M  CHG  8   1   2   3  -1   4  -1   6  -1   7  -1   8   2   9   2  11  -1
M  CHG  7  13  -1  14  -1  16  -1  18  -1  19  -1  20   2  21   2
M  END
> <Uni-Dock RESULT> 
ENERGY=   -5.872  LOWER_BOUND=    6.629  UPPER_BOUND=    7.377
INTER + INTRA:          -5.872
INTER:                  -5.872
INTRA:                   0.000
UNBOUND:                 0.000

$$$$

     RDKit          3D

 22 13  0  0  0  0  0  0  0  0999 V2000
   43.0432    5.2472   12.0784 Ca  0  0  0  0  0 15  0  0  0  0  0  0
   43.0432    5.2472   12.0784 P   0  0  0  0  0  0  0  0  0  0  0  0
   43.0007    3.9545   11.2470 O   0  0  0  0  0  0  0  0  0  0  0  0
   41.8206    6.1154   11.7388 O   0  0  0  0  0  0  0  0  0  0  0  0
   44.3297    6.0238   11.7530 O   0  0  0  0  0  0  0  0  0  0  0  0
   43.0219    4.8949   13.5749 O   0  0  0  0  0  0  0  0  0  0  0  0
   42.7950    5.6678   12.0563 O   0  0  0  0  0  0  0  0  0  0  0  0
   43.0432    5.2472   12.0784 Ca  0  0  0  0  0 15  0  0  0  0  0  0
   43.0432    5.2472   12.0784 Ca  0  0  0  0  0 15  0  0  0  0  0  0
   43.0432    5.2472   12.0784 P   0  0  0  0  0  0  0  0  0  0  0  0
   42.8768    4.8277   13.5482 O   0  0  0  0  0  0  0  0  0  0  0  0
   44.3435    6.0522   11.9192 O   0  0  0  0  0  0  0  0  0  0  0  0
   41.8475    6.1160   11.6549 O   0  0  0  0  0  0  0  0  0  0  0  0
   43.1050    3.9929   11.1913 O   0  0  0  0  0  0  0  0  0  0  0  0
   43.0432    5.2472   12.0784 P   0  0  0  0  0  0  0  0  0  0  0  0
   42.6838    4.0080   11.2422 O   0  0  0  0  0  0  0  0  0  0  0  0
   42.6308    5.0155   13.5414 O   0  0  0  0  0  0  0  0  0  0  0  0
   44.5594    5.4922   12.0060 O   0  0  0  0  0  0  0  0  0  0  0  0
   42.2989    6.4730   11.5241 O   0  0  0  0  0  0  0  0  0  0  0  0
   43.0432    5.2472   12.0784 Ca  0  0  0  0  0 15  0  0  0  0  0  0
   43.0432    5.2472   12.0784 Ca  0  0  0  0  0 15  0  0  0  0  0  0
   43.2915    4.8266   12.1005 H   0  0  0  0  0  0  0  0  0  0  0  0
  3  2  1  0
  4  2  1  0
  5  2  2  0
  6  2  1  0
 10 11  1  0
 10 12  2  0
 10 13  1  0
 10 14  1  0
 15 16  1  0
 15 17  2  0
 15 18  1  0
 15 19  1  0
  7 22  1  0
M  CHG  8   1   2   3  -1   4  -1   6  -1   7  -1   8   2   9   2  11  -1
M  CHG  7  13  -1  14  -1  16  -1  18  -1  19  -1  20   2  21   2
M  END
> <Uni-Dock RESULT> 
ENERGY=   -5.854  LOWER_BOUND=    6.697  UPPER_BOUND=    7.455
INTER + INTRA:          -5.854
INTER:                  -5.854
INTRA:                   0.000
UNBOUND:                 0.000

$$$$

     RDKit          3D

 22 13  0  0  0  0  0  0  0  0999 V2000
   43.0566    5.2128   12.0792 Ca  0  0  0  0  0 15  0  0  0  0  0  0
   43.0566    5.2128   12.0792 P   0  0  0  0  0  0  0  0  0  0  0  0
   41.9578    6.2286   11.7259 O   0  0  0  0  0  0  0  0  0  0  0  0
   43.0963    4.1082   11.0104 O   0  0  0  0  0  0  0  0  0  0  0  0
   42.7549    4.5878   13.4512 O   0  0  0  0  0  0  0  0  0  0  0  0
   44.4174    5.9266   12.1293 O   0  0  0  0  0  0  0  0  0  0  0  0
   43.1672    4.7673   11.9111 O   0  0  0  0  0  0  0  0  0  0  0  0
   43.0566    5.2128   12.0792 Ca  0  0  0  0  0 15  0  0  0  0  0  0
   43.0566    5.2128   12.0792 Ca  0  0  0  0  0 15  0  0  0  0  0  0
   43.0566    5.2128   12.0792 P   0  0  0  0  0  0  0  0  0  0  0  0
   44.3952    5.9616   11.9726 O   0  0  0  0  0  0  0  0  0  0  0  0
   42.9197    4.6052   13.4849 O   0  0  0  0  0  0  0  0  0  0  0  0
   43.0121    4.0905   11.0292 O   0  0  0  0  0  0  0  0  0  0  0  0
   41.8993    6.1939   11.8300 O   0  0  0  0  0  0  0  0  0  0  0  0
   43.0566    5.2128   12.0792 P   0  0  0  0  0  0  0  0  0  0  0  0
   42.0079    6.1272   11.4249 O   0  0  0  0  0  0  0  0  0  0  0  0
   44.4656    5.7425   11.7654 O   0  0  0  0  0  0  0  0  0  0  0  0
   42.8429    5.1953   13.6017 O   0  0  0  0  0  0  0  0  0  0  0  0
   42.9101    3.7863   11.5246 O   0  0  0  0  0  0  0  0  0  0  0  0
   43.0566    5.2128   12.0792 Ca  0  0  0  0  0 15  0  0  0  0  0  0
   43.0566    5.2128   12.0792 Ca  0  0  0  0  0 15  0  0  0  0  0  0
   42.9460    5.6584   12.2472 H   0  0  0  0  0  0  0  0  0  0  0  0
  3  2  1  0
  4  2  1  0
  5  2  2  0
  6  2  1  0
 10 11  1  0
 10 12  2  0
 10 13  1  0
 10 14  1  0
 15 16  1  0
 15 17  2  0
 15 18  1  0
 15 19  1  0
  7 22  1  0
M  CHG  8   1   2   3  -1   4  -1   6  -1   7  -1   8   2   9   2  11  -1
M  CHG  7  13  -1  14  -1  16  -1  18  -1  19  -1  20   2  21   2
M  END
> <Uni-Dock RESULT> 
ENERGY=   -5.692  LOWER_BOUND=    6.635  UPPER_BOUND=    7.431
INTER + INTRA:          -5.692
INTER:                  -5.692
INTRA:                   0.000
UNBOUND:                 0.000

$$$$

     RDKit          3D

 22 13  0  0  0  0  0  0  0  0999 V2000
   43.0369    5.2404   12.0081 Ca  0  0  0  0  0 15  0  0  0  0  0  0
   43.0369    5.2404   12.0081 P   0  0  0  0  0  0  0  0  0  0  0  0
   42.7885    3.8766   11.3430 O   0  0  0  0  0  0  0  0  0  0  0  0
   44.2728    5.9015   11.3758 O   0  0  0  0  0  0  0  0  0  0  0  0
   43.2766    5.0403   13.5137 O   0  0  0  0  0  0  0  0  0  0  0  0
   41.8099    6.1432   11.8000 O   0  0  0  0  0  0  0  0  0  0  0  0
   43.4122    5.5537   11.9997 O   0  0  0  0  0  0  0  0  0  0  0  0
   43.0369    5.2404   12.0081 Ca  0  0  0  0  0 15  0  0  0  0  0  0
   43.0369    5.2404   12.0081 Ca  0  0  0  0  0 15  0  0  0  0  0  0
   43.0369    5.2404   12.0081 P   0  0  0  0  0  0  0  0  0  0  0  0
   41.8386    6.1310   11.6410 O   0  0  0  0  0  0  0  0  0  0  0  0
   43.1774    5.1752   13.5379 O   0  0  0  0  0  0  0  0  0  0  0  0
   44.3198    5.8312   11.4004 O   0  0  0  0  0  0  0  0  0  0  0  0
   42.8120    3.8243   11.4533 O   0  0  0  0  0  0  0  0  0  0  0  0
   43.0369    5.2404   12.0081 P   0  0  0  0  0  0  0  0  0  0  0  0
   42.9432    4.0080   11.0936 O   0  0  0  0  0  0  0  0  0  0  0  0
   42.0541    6.3172   11.5195 O   0  0  0  0  0  0  0  0  0  0  0  0
   42.6814    4.8379   13.4488 O   0  0  0  0  0  0  0  0  0  0  0  0
   44.4690    5.7987   11.9705 O   0  0  0  0  0  0  0  0  0  0  0  0
   43.0369    5.2404   12.0081 Ca  0  0  0  0  0 15  0  0  0  0  0  0
   43.0369    5.2404   12.0081 Ca  0  0  0  0  0 15  0  0  0  0  0  0
   42.6617    4.9272   12.0166 H   0  0  0  0  0  0  0  0  0  0  0  0
  3  2  1  0
  4  2  1  0
  5  2  2  0
  6  2  1  0
 10 11  1  0
 10 12  2  0
 10 13  1  0
 10 14  1  0
 15 16  1  0
 15 17  2  0
 15 18  1  0
 15 19  1  0
  7 22  1  0
M  CHG  8   1   2   3  -1   4  -1   6  -1   7  -1   8   2   9   2  11  -1
M  CHG  7  13  -1  14  -1  16  -1  18  -1  19  -1  20   2  21   2
M  END
> <Uni-Dock RESULT> 
ENERGY=   -5.634  LOWER_BOUND=    6.640  UPPER_BOUND=    7.290
INTER + INTRA:          -5.634
INTER:                  -5.634
INTRA:                   0.000
UNBOUND:                 0.000

$$$$

     RDKit          3D

 22 13  0  0  0  0  0  0  0  0999 V2000
   43.0937    5.0921   12.0817 Ca  0  0  0  0  0 15  0  0  0  0  0  0
   43.0937    5.0921   12.0817 P   0  0  0  0  0  0  0  0  0  0  0  0
   42.9049    3.8129   11.2498 O   0  0  0  0  0  0  0  0  0  0  0  0
   43.0713    4.7385   13.5778 O   0  0  0  0  0  0  0  0  0  0  0  0
   41.9556    6.0782   11.7710 O   0  0  0  0  0  0  0  0  0  0  0  0
   44.4430    5.7389   11.7281 O   0  0  0  0  0  0  0  0  0  0  0  0
   43.0392    5.1936   12.5568 O   0  0  0  0  0  0  0  0  0  0  0  0
   43.0937    5.0921   12.0817 Ca  0  0  0  0  0 15  0  0  0  0  0  0
   43.0937    5.0921   12.0817 Ca  0  0  0  0  0 15  0  0  0  0  0  0
   43.0937    5.0921   12.0817 P   0  0  0  0  0  0  0  0  0  0  0  0
   44.5126    5.6031   11.7826 O   0  0  0  0  0  0  0  0  0  0  0  0
   42.0737    6.1993   11.7688 O   0  0  0  0  0  0  0  0  0  0  0  0
   42.9907    4.7050   13.5661 O   0  0  0  0  0  0  0  0  0  0  0  0
   42.7977    3.8612   11.2093 O   0  0  0  0  0  0  0  0  0  0  0  0
   43.0937    5.0921   12.0817 P   0  0  0  0  0  0  0  0  0  0  0  0
   43.0283    3.6670   11.5083 O   0  0  0  0  0  0  0  0  0  0  0  0
   44.5533    5.5755   12.0883 O   0  0  0  0  0  0  0  0  0  0  0  0
   42.2458    6.0342   11.2113 O   0  0  0  0  0  0  0  0  0  0  0  0
   42.5475    5.0919   13.5189 O   0  0  0  0  0  0  0  0  0  0  0  0
   43.0937    5.0921   12.0817 Ca  0  0  0  0  0 15  0  0  0  0  0  0
   43.0937    5.0921   12.0817 Ca  0  0  0  0  0 15  0  0  0  0  0  0
   43.1482    4.9906   11.6065 H   0  0  0  0  0  0  0  0  0  0  0  0
  3  2  1  0
  4  2  1  0
  5  2  2  0
  6  2  1  0
 10 11  1  0
 10 12  2  0
 10 13  1  0
 10 14  1  0
 15 16  1  0
 15 17  2  0
 15 18  1  0
 15 19  1  0
  7 22  1  0
M  CHG  8   1   2   3  -1   4  -1   6  -1   7  -1   8   2   9   2  11  -1
M  CHG  7  13  -1  14  -1  16  -1  18  -1  19  -1  20   2  21   2
M  END
> <Uni-Dock RESULT> 
ENERGY=   -5.627  LOWER_BOUND=    6.680  UPPER_BOUND=    7.366
INTER + INTRA:          -5.627
INTER:                  -5.627
INTRA:                   0.000
UNBOUND:                 0.000

$$$$
