
     RDKit          3D

 22 13  0  0  0  0  0  0  0  0999 V2000
   47.2141    2.6091    6.7248 Ca  0  0  0  0  0 15  0  0  0  0  0  0
   47.2141    2.6091    6.7248 P   0  0  0  0  0  0  0  0  0  0  0  0
   46.3777    2.5133    5.4383 O   0  0  0  0  0  0  0  0  0  0  0  0
   48.6885    2.3175    6.4005 O   0  0  0  0  0  0  0  0  0  0  0  0
   46.7013    1.5816    7.7472 O   0  0  0  0  0  0  0  0  0  0  0  0
   47.0890    4.0241    7.3132 O   0  0  0  0  0  0  0  0  0  0  0  0
   47.6697    2.5844    6.9005 O   0  0  0  0  0  0  0  0  0  0  0  0
   47.2141    2.6091    6.7248 Ca  0  0  0  0  0 15  0  0  0  0  0  0
   47.2141    2.6091    6.7248 Ca  0  0  0  0  0 15  0  0  0  0  0  0
   47.2141    2.6091    6.7248 P   0  0  0  0  0  0  0  0  0  0  0  0
   46.7019    2.4831    5.2806 O   0  0  0  0  0  0  0  0  0  0  0  0
   47.2321    4.0909    7.1347 O   0  0  0  0  0  0  0  0  0  0  0  0
   46.2850    1.8277    7.6682 O   0  0  0  0  0  0  0  0  0  0  0  0
   48.6375    2.0349    6.8157 O   0  0  0  0  0  0  0  0  0  0  0  0
   47.2141    2.6091    6.7248 P   0  0  0  0  0  0  0  0  0  0  0  0
   48.7109    2.9316    6.5843 O   0  0  0  0  0  0  0  0  0  0  0  0
   46.5788    3.5618    7.7508 O   0  0  0  0  0  0  0  0  0  0  0  0
   47.0453    1.1568    7.2005 O   0  0  0  0  0  0  0  0  0  0  0  0
   46.5216    2.7863    5.3635 O   0  0  0  0  0  0  0  0  0  0  0  0
   47.2141    2.6091    6.7248 Ca  0  0  0  0  0 15  0  0  0  0  0  0
   47.2141    2.6091    6.7248 Ca  0  0  0  0  0 15  0  0  0  0  0  0
   46.7586    2.6338    6.5490 H   0  0  0  0  0  0  0  0  0  0  0  0
  3  2  1  0
  4  2  1  0
  5  2  2  0
  6  2  1  0
 10 11  1  0
 10 12  2  0
 10 13  1  0
 10 14  1  0
 15 16  1  0
 15 17  2  0
 15 18  1  0
 15 19  1  0
  7 22  1  0
M  CHG  8   1   2   3  -1   4  -1   6  -1   7  -1   8   2   9   2  11  -1
M  CHG  7  13  -1  14  -1  16  -1  18  -1  19  -1  20   2  21   2
M  END
> <Uni-Dock RESULT> 
ENERGY=   -6.703  LOWER_BOUND=    0.000  UPPER_BOUND=    0.000
INTER + INTRA:          -6.703
INTER:                  -6.703
INTRA:                   0.000
UNBOUND:                 0.000

$$$$

     RDKit          3D

 22 13  0  0  0  0  0  0  0  0999 V2000
   47.2117    2.6395    6.7128 Ca  0  0  0  0  0 15  0  0  0  0  0  0
   47.2117    2.6395    6.7128 P   0  0  0  0  0  0  0  0  0  0  0  0
   46.5248    2.7576    5.3424 O   0  0  0  0  0  0  0  0  0  0  0  0
   46.5923    1.4714    7.4976 O   0  0  0  0  0  0  0  0  0  0  0  0
   47.0154    3.9463    7.4989 O   0  0  0  0  0  0  0  0  0  0  0  0
   48.7143    2.3827    6.5124 O   0  0  0  0  0  0  0  0  0  0  0  0
   47.2285    2.3736    7.1228 O   0  0  0  0  0  0  0  0  0  0  0  0
   47.2117    2.6395    6.7128 Ca  0  0  0  0  0 15  0  0  0  0  0  0
   47.2117    2.6395    6.7128 Ca  0  0  0  0  0 15  0  0  0  0  0  0
   47.2117    2.6395    6.7128 P   0  0  0  0  0  0  0  0  0  0  0  0
   46.3678    2.4474    5.4421 O   0  0  0  0  0  0  0  0  0  0  0  0
   48.6494    2.1619    6.4504 O   0  0  0  0  0  0  0  0  0  0  0  0
   47.2283    4.1283    7.0968 O   0  0  0  0  0  0  0  0  0  0  0  0
   46.6013    1.8206    7.8621 O   0  0  0  0  0  0  0  0  0  0  0  0
   47.2117    2.6395    6.7128 P   0  0  0  0  0  0  0  0  0  0  0  0
   47.1939    1.2680    7.4076 O   0  0  0  0  0  0  0  0  0  0  0  0
   48.6512    3.1786    6.6797 O   0  0  0  0  0  0  0  0  0  0  0  0
   46.3153    3.6187    7.4886 O   0  0  0  0  0  0  0  0  0  0  0  0
   46.6863    2.4926    5.2753 O   0  0  0  0  0  0  0  0  0  0  0  0
   47.2117    2.6395    6.7128 Ca  0  0  0  0  0 15  0  0  0  0  0  0
   47.2117    2.6395    6.7128 Ca  0  0  0  0  0 15  0  0  0  0  0  0
   47.1948    2.9054    6.3029 H   0  0  0  0  0  0  0  0  0  0  0  0
  3  2  1  0
  4  2  1  0
  5  2  2  0
  6  2  1  0
 10 11  1  0
 10 12  2  0
 10 13  1  0
 10 14  1  0
 15 16  1  0
 15 17  2  0
 15 18  1  0
 15 19  1  0
  7 22  1  0
M  CHG  8   1   2   3  -1   4  -1   6  -1   7  -1   8   2   9   2  11  -1
M  CHG  7  13  -1  14  -1  16  -1  18  -1  19  -1  20   2  21   2
M  END
> <Uni-Dock RESULT> 
ENERGY=   -6.542  LOWER_BOUND=    0.221  UPPER_BOUND=    1.614
INTER + INTRA:          -6.542
INTER:                  -6.542
INTRA:                   0.000
UNBOUND:                 0.000

$$$$

     RDKit          3D

 22 13  0  0  0  0  0  0  0  0999 V2000
   47.1717    2.6980    6.7316 Ca  0  0  0  0  0 15  0  0  0  0  0  0
   47.1717    2.6980    6.7316 P   0  0  0  0  0  0  0  0  0  0  0  0
   46.6308    2.4748    5.3099 O   0  0  0  0  0  0  0  0  0  0  0  0
   46.9814    4.1716    7.1269 O   0  0  0  0  0  0  0  0  0  0  0  0
   48.6678    2.3457    6.7719 O   0  0  0  0  0  0  0  0  0  0  0  0
   46.4069    1.7999    7.7178 O   0  0  0  0  0  0  0  0  0  0  0  0
   47.2216    3.0315    7.0856 O   0  0  0  0  0  0  0  0  0  0  0  0
   47.1717    2.6980    6.7316 Ca  0  0  0  0  0 15  0  0  0  0  0  0
   47.1717    2.6980    6.7316 Ca  0  0  0  0  0 15  0  0  0  0  0  0
   47.1717    2.6980    6.7316 P   0  0  0  0  0  0  0  0  0  0  0  0
   46.5116    2.8142    5.3479 O   0  0  0  0  0  0  0  0  0  0  0  0
   46.2269    1.9536    7.6893 O   0  0  0  0  0  0  0  0  0  0  0  0
   48.4917    1.9195    6.6060 O   0  0  0  0  0  0  0  0  0  0  0  0
   47.4567    4.1046    7.2833 O   0  0  0  0  0  0  0  0  0  0  0  0
   47.1717    2.6980    6.7316 P   0  0  0  0  0  0  0  0  0  0  0  0
   46.5955    3.8709    7.5418 O   0  0  0  0  0  0  0  0  0  0  0  0
   47.1112    1.4139    7.5751 O   0  0  0  0  0  0  0  0  0  0  0  0
   48.6332    2.9998    6.3615 O   0  0  0  0  0  0  0  0  0  0  0  0
   46.3468    2.5074    5.4482 O   0  0  0  0  0  0  0  0  0  0  0  0
   47.1717    2.6980    6.7316 Ca  0  0  0  0  0 15  0  0  0  0  0  0
   47.1717    2.6980    6.7316 Ca  0  0  0  0  0 15  0  0  0  0  0  0
   47.1218    2.3645    6.3776 H   0  0  0  0  0  0  0  0  0  0  0  0
  3  2  1  0
  4  2  1  0
  5  2  2  0
  6  2  1  0
 10 11  1  0
 10 12  2  0
 10 13  1  0
 10 14  1  0
 15 16  1  0
 15 17  2  0
 15 18  1  0
 15 19  1  0
  7 22  1  0
M  CHG  8   1   2   3  -1   4  -1   6  -1   7  -1   8   2   9   2  11  -1
M  CHG  7  13  -1  14  -1  16  -1  18  -1  19  -1  20   2  21   2
M  END
> <Uni-Dock RESULT> 
ENERGY=   -6.506  LOWER_BOUND=    0.262  UPPER_BOUND=    1.608
INTER + INTRA:          -6.506
INTER:                  -6.506
INTRA:                   0.000
UNBOUND:                 0.000

$$$$

     RDKit          3D

 22 13  0  0  0  0  0  0  0  0999 V2000
   43.1519    5.1672   11.9885 Ca  0  0  0  0  0 15  0  0  0  0  0  0
   43.1519    5.1672   11.9885 P   0  0  0  0  0  0  0  0  0  0  0  0
   42.8275    3.9295   11.1361 O   0  0  0  0  0  0  0  0  0  0  0  0
   42.7791    4.8919   13.4545 O   0  0  0  0  0  0  0  0  0  0  0  0
   42.3462    6.3706   11.4722 O   0  0  0  0  0  0  0  0  0  0  0  0
   44.6548    5.4768   11.8914 O   0  0  0  0  0  0  0  0  0  0  0  0
   43.1534    5.3406   12.4456 O   0  0  0  0  0  0  0  0  0  0  0  0
   43.1519    5.1672   11.9885 Ca  0  0  0  0  0 15  0  0  0  0  0  0
   43.1519    5.1672   11.9885 Ca  0  0  0  0  0 15  0  0  0  0  0  0
   43.1519    5.1672   11.9885 P   0  0  0  0  0  0  0  0  0  0  0  0
   42.7624    3.7778   11.4579 O   0  0  0  0  0  0  0  0  0  0  0  0
   44.6841    5.2876   12.0334 O   0  0  0  0  0  0  0  0  0  0  0  0
   42.5798    6.2498   11.0587 O   0  0  0  0  0  0  0  0  0  0  0  0
   42.5814    5.3537   13.4041 O   0  0  0  0  0  0  0  0  0  0  0  0
   43.1519    5.1672   11.9885 P   0  0  0  0  0  0  0  0  0  0  0  0
   43.4165    4.9553   13.4882 O   0  0  0  0  0  0  0  0  0  0  0  0
   44.2928    5.9986   11.3794 O   0  0  0  0  0  0  0  0  0  0  0  0
   41.8196    5.9119   11.8034 O   0  0  0  0  0  0  0  0  0  0  0  0
   43.0788    3.8030   11.2832 O   0  0  0  0  0  0  0  0  0  0  0  0
   43.1519    5.1672   11.9885 Ca  0  0  0  0  0 15  0  0  0  0  0  0
   43.1519    5.1672   11.9885 Ca  0  0  0  0  0 15  0  0  0  0  0  0
   43.1505    4.9938   11.5314 H   0  0  0  0  0  0  0  0  0  0  0  0
  3  2  1  0
  4  2  1  0
  5  2  2  0
  6  2  1  0
 10 11  1  0
 10 12  2  0
 10 13  1  0
 10 14  1  0
 15 16  1  0
 15 17  2  0
 15 18  1  0
 15 19  1  0
  7 22  1  0
M  CHG  8   1   2   3  -1   4  -1   6  -1   7  -1   8   2   9   2  11  -1
M  CHG  7  13  -1  14  -1  16  -1  18  -1  19  -1  20   2  21   2
M  END
> <Uni-Dock RESULT> 
ENERGY=   -5.514  LOWER_BOUND=    6.670  UPPER_BOUND=    7.349
INTER + INTRA:          -5.514
INTER:                  -5.514
INTRA:                   0.000
UNBOUND:                 0.000

$$$$

     RDKit          3D

 22 13  0  0  0  0  0  0  0  0999 V2000
   43.1464    5.3561   12.0309 Ca  0  0  0  0  0 15  0  0  0  0  0  0
   43.1464    5.3561   12.0309 P   0  0  0  0  0  0  0  0  0  0  0  0
   41.7964    5.9767   11.6355 O   0  0  0  0  0  0  0  0  0  0  0  0
   44.1591    6.4754   12.3233 O   0  0  0  0  0  0  0  0  0  0  0  0
   43.6666    4.4829   10.8772 O   0  0  0  0  0  0  0  0  0  0  0  0
   42.9634    4.4893   13.2875 O   0  0  0  0  0  0  0  0  0  0  0  0
   43.5998    5.4626   12.1794 O   0  0  0  0  0  0  0  0  0  0  0  0
   43.1464    5.3561   12.0309 Ca  0  0  0  0  0 15  0  0  0  0  0  0
   43.1464    5.3561   12.0309 Ca  0  0  0  0  0 15  0  0  0  0  0  0
   43.1464    5.3561   12.0309 P   0  0  0  0  0  0  0  0  0  0  0  0
   41.9586    6.2854   11.7318 O   0  0  0  0  0  0  0  0  0  0  0  0
   42.9473    4.6960   13.4051 O   0  0  0  0  0  0  0  0  0  0  0  0
   43.2316    4.2684   10.9474 O   0  0  0  0  0  0  0  0  0  0  0  0
   44.4480    6.1745   12.0391 O   0  0  0  0  0  0  0  0  0  0  0  0
   43.1464    5.3561   12.0309 P   0  0  0  0  0  0  0  0  0  0  0  0
   44.0959    6.1985   12.8985 O   0  0  0  0  0  0  0  0  0  0  0  0
   42.9736    3.9650   12.6626 O   0  0  0  0  0  0  0  0  0  0  0  0
   43.7375    5.2082   10.6192 O   0  0  0  0  0  0  0  0  0  0  0  0
   41.7785    6.0526   11.9433 O   0  0  0  0  0  0  0  0  0  0  0  0
   43.1464    5.3561   12.0309 Ca  0  0  0  0  0 15  0  0  0  0  0  0
   43.1464    5.3561   12.0309 Ca  0  0  0  0  0 15  0  0  0  0  0  0
   42.6929    5.2496   11.8823 H   0  0  0  0  0  0  0  0  0  0  0  0
  3  2  1  0
  4  2  1  0
  5  2  2  0
  6  2  1  0
 10 11  1  0
 10 12  2  0
 10 13  1  0
 10 14  1  0
 15 16  1  0
 15 17  2  0
 15 18  1  0
 15 19  1  0
  7 22  1  0
M  CHG  8   1   2   3  -1   4  -1   6  -1   7  -1   8   2   9   2  11  -1
M  CHG  7  13  -1  14  -1  16  -1  18  -1  19  -1  20   2  21   2
M  END
> <Uni-Dock RESULT> 
ENERGY=   -5.478  LOWER_BOUND=    6.470  UPPER_BOUND=    7.383
INTER + INTRA:          -5.478
INTER:                  -5.478
INTRA:                   0.000
UNBOUND:                 0.000

$$$$

     RDKit          3D

 22 13  0  0  0  0  0  0  0  0999 V2000
   43.1803    5.0687   12.0839 Ca  0  0  0  0  0 15  0  0  0  0  0  0
   43.1803    5.0687   12.0839 P   0  0  0  0  0  0  0  0  0  0  0  0
   44.6454    5.5267   12.1711 O   0  0  0  0  0  0  0  0  0  0  0  0
   42.3124    6.2243   11.5594 O   0  0  0  0  0  0  0  0  0  0  0  0
   42.6896    4.6521   13.4802 O   0  0  0  0  0  0  0  0  0  0  0  0
   43.0738    3.8716   11.1249 O   0  0  0  0  0  0  0  0  0  0  0  0
   42.7320    5.2082   11.9475 O   0  0  0  0  0  0  0  0  0  0  0  0
   43.1803    5.0687   12.0839 Ca  0  0  0  0  0 15  0  0  0  0  0  0
   43.1803    5.0687   12.0839 Ca  0  0  0  0  0 15  0  0  0  0  0  0
   43.1803    5.0687   12.0839 P   0  0  0  0  0  0  0  0  0  0  0  0
   44.5190    5.8205   12.0021 O   0  0  0  0  0  0  0  0  0  0  0  0
   43.1048    4.0318   10.9511 O   0  0  0  0  0  0  0  0  0  0  0  0
   43.0762    4.3535   13.4410 O   0  0  0  0  0  0  0  0  0  0  0  0
   42.0212    6.0689   11.9414 O   0  0  0  0  0  0  0  0  0  0  0  0
   43.1803    5.0687   12.0839 P   0  0  0  0  0  0  0  0  0  0  0  0
   42.2609    5.7934   11.0871 O   0  0  0  0  0  0  0  0  0  0  0  0
   43.0671    3.5497   11.8744 O   0  0  0  0  0  0  0  0  0  0  0  0
   42.7583    5.4210   13.5198 O   0  0  0  0  0  0  0  0  0  0  0  0
   44.6349    5.5107   11.8541 O   0  0  0  0  0  0  0  0  0  0  0  0
   43.1803    5.0687   12.0839 Ca  0  0  0  0  0 15  0  0  0  0  0  0
   43.1803    5.0687   12.0839 Ca  0  0  0  0  0 15  0  0  0  0  0  0
   43.6286    4.9292   12.2202 H   0  0  0  0  0  0  0  0  0  0  0  0
  3  2  1  0
  4  2  1  0
  5  2  2  0
  6  2  1  0
 10 11  1  0
 10 12  2  0
 10 13  1  0
 10 14  1  0
 15 16  1  0
 15 17  2  0
 15 18  1  0
 15 19  1  0
  7 22  1  0
M  CHG  8   1   2   3  -1   4  -1   6  -1   7  -1   8   2   9   2  11  -1
M  CHG  7  13  -1  14  -1  16  -1  18  -1  19  -1  20   2  21   2
M  END
> <Uni-Dock RESULT> 
ENERGY=   -5.388  LOWER_BOUND=    6.604  UPPER_BOUND=    7.407
INTER + INTRA:          -5.388
INTER:                  -5.388
INTRA:                   0.000
UNBOUND:                 0.000

$$$$

     RDKit          3D

 22 13  0  0  0  0  0  0  0  0999 V2000
   43.1921    5.3257   11.8930 Ca  0  0  0  0  0 15  0  0  0  0  0  0
   43.1921    5.3257   11.8930 P   0  0  0  0  0  0  0  0  0  0  0  0
   41.7709    5.9109   11.9336 O   0  0  0  0  0  0  0  0  0  0  0  0
   43.6377    5.1627   10.4306 O   0  0  0  0  0  0  0  0  0  0  0  0
   43.2015    3.9540   12.5875 O   0  0  0  0  0  0  0  0  0  0  0  0
   44.1582    6.2752   12.6204 O   0  0  0  0  0  0  0  0  0  0  0  0
   43.5561    5.1971   11.5931 O   0  0  0  0  0  0  0  0  0  0  0  0
   43.1921    5.3257   11.8930 Ca  0  0  0  0  0 15  0  0  0  0  0  0
   43.1921    5.3257   11.8930 Ca  0  0  0  0  0 15  0  0  0  0  0  0
   43.1921    5.3257   11.8930 P   0  0  0  0  0  0  0  0  0  0  0  0
   41.8216    5.9469   11.5772 O   0  0  0  0  0  0  0  0  0  0  0  0
   44.1371    6.4142   12.4279 O   0  0  0  0  0  0  0  0  0  0  0  0
   43.0241    4.2261   12.9544 O   0  0  0  0  0  0  0  0  0  0  0  0
   43.7856    4.7157   10.6125 O   0  0  0  0  0  0  0  0  0  0  0  0
   43.1921    5.3257   11.8930 P   0  0  0  0  0  0  0  0  0  0  0  0
   44.0475    5.6064   10.6466 O   0  0  0  0  0  0  0  0  0  0  0  0
   43.9939    5.6819   13.1556 O   0  0  0  0  0  0  0  0  0  0  0  0
   42.8131    3.8361   11.9296 O   0  0  0  0  0  0  0  0  0  0  0  0
   41.9139    6.1786   11.8401 O   0  0  0  0  0  0  0  0  0  0  0  0
   43.1921    5.3257   11.8930 Ca  0  0  0  0  0 15  0  0  0  0  0  0
   43.1921    5.3257   11.8930 Ca  0  0  0  0  0 15  0  0  0  0  0  0
   42.8281    5.4543   12.1929 H   0  0  0  0  0  0  0  0  0  0  0  0
  3  2  1  0
  4  2  1  0
  5  2  2  0
  6  2  1  0
 10 11  1  0
 10 12  2  0
 10 13  1  0
 10 14  1  0
 15 16  1  0
 15 17  2  0
 15 18  1  0
 15 19  1  0
  7 22  1  0
M  CHG  8   1   2   3  -1   4  -1   6  -1   7  -1   8   2   9   2  11  -1
M  CHG  7  13  -1  14  -1  16  -1  18  -1  19  -1  20   2  21   2
M  END
> <Uni-Dock RESULT> 
ENERGY=   -5.300  LOWER_BOUND=    6.323  UPPER_BOUND=    7.144
INTER + INTRA:          -5.300
INTER:                  -5.300
INTRA:                   0.000
UNBOUND:                 0.000

$$$$

     RDKit          3D

 22 13  0  0  0  0  0  0  0  0999 V2000
   43.1606    5.4695   11.8250 Ca  0  0  0  0  0 15  0  0  0  0  0  0
   43.1606    5.4695   11.8250 P   0  0  0  0  0  0  0  0  0  0  0  0
   43.6435    5.6034   13.2785 O   0  0  0  0  0  0  0  0  0  0  0  0
   42.9768    3.9824   11.4809 O   0  0  0  0  0  0  0  0  0  0  0  0
   44.2027    6.0893   10.8796 O   0  0  0  0  0  0  0  0  0  0  0  0
   41.8193    6.2031   11.6611 O   0  0  0  0  0  0  0  0  0  0  0  0
   43.0174    5.1475   11.4862 O   0  0  0  0  0  0  0  0  0  0  0  0
   43.1606    5.4695   11.8250 Ca  0  0  0  0  0 15  0  0  0  0  0  0
   43.1606    5.4695   11.8250 Ca  0  0  0  0  0 15  0  0  0  0  0  0
   43.1606    5.4695   11.8250 P   0  0  0  0  0  0  0  0  0  0  0  0
   43.5792    5.2475   13.2877 O   0  0  0  0  0  0  0  0  0  0  0  0
   41.7254    6.0193   11.7805 O   0  0  0  0  0  0  0  0  0  0  0  0
   44.1163    6.4776   11.1658 O   0  0  0  0  0  0  0  0  0  0  0  0
   43.2215    4.1337   11.0661 O   0  0  0  0  0  0  0  0  0  0  0  0
   43.1606    5.4695   11.8250 P   0  0  0  0  0  0  0  0  0  0  0  0
   42.3758    4.2034   11.4442 O   0  0  0  0  0  0  0  0  0  0  0  0
   42.3825    6.7128   11.3638 O   0  0  0  0  0  0  0  0  0  0  0  0
   44.5377    5.4438   11.1417 O   0  0  0  0  0  0  0  0  0  0  0  0
   43.3463    5.5180   13.3505 O   0  0  0  0  0  0  0  0  0  0  0  0
   43.1606    5.4695   11.8250 Ca  0  0  0  0  0 15  0  0  0  0  0  0
   43.1606    5.4695   11.8250 Ca  0  0  0  0  0 15  0  0  0  0  0  0
   43.3038    5.7916   12.1639 H   0  0  0  0  0  0  0  0  0  0  0  0
  3  2  1  0
  4  2  1  0
  5  2  2  0
  6  2  1  0
 10 11  1  0
 10 12  2  0
 10 13  1  0
 10 14  1  0
 15 16  1  0
 15 17  2  0
 15 18  1  0
 15 19  1  0
  7 22  1  0
M  CHG  8   1   2   3  -1   4  -1   6  -1   7  -1   8   2   9   2  11  -1
M  CHG  7  13  -1  14  -1  16  -1  18  -1  19  -1  20   2  21   2
M  END
> <Uni-Dock RESULT> 
ENERGY=   -5.297  LOWER_BOUND=    6.475  UPPER_BOUND=    7.357
INTER + INTRA:          -5.297
INTER:                  -5.297
INTRA:                   0.000
UNBOUND:                 0.000

$$$$

     RDKit          3D

 22 13  0  0  0  0  0  0  0  0999 V2000
   43.8501    3.3738   12.1507 Ca  0  0  0  0  0 15  0  0  0  0  0  0
   43.8501    3.3738   12.1507 P   0  0  0  0  0  0  0  0  0  0  0  0
   43.1269    4.2350   13.1991 O   0  0  0  0  0  0  0  0  0  0  0  0
   45.3590    3.3668   12.4457 O   0  0  0  0  0  0  0  0  0  0  0  0
   43.6044    3.9578   10.7499 O   0  0  0  0  0  0  0  0  0  0  0  0
   43.3100    1.9354   12.2083 O   0  0  0  0  0  0  0  0  0  0  0  0
   44.2868    3.1966   12.0207 O   0  0  0  0  0  0  0  0  0  0  0  0
   43.8501    3.3738   12.1507 Ca  0  0  0  0  0 15  0  0  0  0  0  0
   43.8501    3.3738   12.1507 Ca  0  0  0  0  0 15  0  0  0  0  0  0
   43.8501    3.3738   12.1507 P   0  0  0  0  0  0  0  0  0  0  0  0
   43.4527    4.2414   13.3562 O   0  0  0  0  0  0  0  0  0  0  0  0
   43.4358    1.9159   12.4098 O   0  0  0  0  0  0  0  0  0  0  0  0
   43.1394    3.8921   10.8897 O   0  0  0  0  0  0  0  0  0  0  0  0
   45.3724    3.4456   11.9472 O   0  0  0  0  0  0  0  0  0  0  0  0
   43.8501    3.3738   12.1507 P   0  0  0  0  0  0  0  0  0  0  0  0
   45.2011    2.7526   12.5418 O   0  0  0  0  0  0  0  0  0  0  0  0
   42.9324    2.2831   11.5744 O   0  0  0  0  0  0  0  0  0  0  0  0
   44.0754    4.4661   11.0925 O   0  0  0  0  0  0  0  0  0  0  0  0
   43.1915    3.9931   13.3944 O   0  0  0  0  0  0  0  0  0  0  0  0
   43.8501    3.3738   12.1507 Ca  0  0  0  0  0 15  0  0  0  0  0  0
   43.8501    3.3738   12.1507 Ca  0  0  0  0  0 15  0  0  0  0  0  0
   43.4134    3.5509   12.2808 H   0  0  0  0  0  0  0  0  0  0  0  0
  3  2  1  0
  4  2  1  0
  5  2  2  0
  6  2  1  0
 10 11  1  0
 10 12  2  0
 10 13  1  0
 10 14  1  0
 15 16  1  0
 15 17  2  0
 15 18  1  0
 15 19  1  0
  7 22  1  0
M  CHG  8   1   2   3  -1   4  -1   6  -1   7  -1   8   2   9   2  11  -1
M  CHG  7  13  -1  14  -1  16  -1  18  -1  19  -1  20   2  21   2
M  END
> <Uni-Dock RESULT> 
ENERGY=   -5.157  LOWER_BOUND=    5.956  UPPER_BOUND=    6.679
INTER + INTRA:          -5.157
INTER:                  -5.157
INTRA:                   0.000
UNBOUND:                 0.000

$$$$
