
     RDKit          3D

 22 13  0  0  0  0  0  0  0  0999 V2000
   47.2269    2.7506    6.6950 Ca  0  0  0  0  0 15  0  0  0  0  0  0
   47.2269    2.7506    6.6950 P   0  0  0  0  0  0  0  0  0  0  0  0
   46.4944    2.7010    5.3441 O   0  0  0  0  0  0  0  0  0  0  0  0
   46.9577    4.1031    7.3746 O   0  0  0  0  0  0  0  0  0  0  0  0
   48.7380    2.5845    6.4650 O   0  0  0  0  0  0  0  0  0  0  0  0
   46.7176    1.6138    7.5962 O   0  0  0  0  0  0  0  0  0  0  0  0
   47.3117    3.1087    7.0169 O   0  0  0  0  0  0  0  0  0  0  0  0
   47.2269    2.7506    6.6950 Ca  0  0  0  0  0 15  0  0  0  0  0  0
   47.2269    2.7506    6.6950 Ca  0  0  0  0  0 15  0  0  0  0  0  0
   47.2269    2.7506    6.6950 P   0  0  0  0  0  0  0  0  0  0  0  0
   46.4946    1.5974    7.4005 O   0  0  0  0  0  0  0  0  0  0  0  0
   48.7438    2.5062    6.7530 O   0  0  0  0  0  0  0  0  0  0  0  0
   46.8940    4.0762    7.3992 O   0  0  0  0  0  0  0  0  0  0  0  0
   46.7752    2.8226    5.2271 O   0  0  0  0  0  0  0  0  0  0  0  0
   47.2269    2.7506    6.6950 P   0  0  0  0  0  0  0  0  0  0  0  0
   46.8223    1.8083    7.8406 O   0  0  0  0  0  0  0  0  0  0  0  0
   48.6964    2.4989    6.3191 O   0  0  0  0  0  0  0  0  0  0  0  0
   47.0564    4.2102    7.1473 O   0  0  0  0  0  0  0  0  0  0  0  0
   46.3325    2.4850    5.4728 O   0  0  0  0  0  0  0  0  0  0  0  0
   47.2269    2.7506    6.6950 Ca  0  0  0  0  0 15  0  0  0  0  0  0
   47.2269    2.7506    6.6950 Ca  0  0  0  0  0 15  0  0  0  0  0  0
   47.1421    2.3925    6.3731 H   0  0  0  0  0  0  0  0  0  0  0  0
  3  2  1  0
  4  2  1  0
  5  2  2  0
  6  2  1  0
 10 11  1  0
 10 12  2  0
 10 13  1  0
 10 14  1  0
 15 16  1  0
 15 17  2  0
 15 18  1  0
 15 19  1  0
  7 22  1  0
M  CHG  8   1   2   3  -1   4  -1   6  -1   7  -1   8   2   9   2  11  -1
M  CHG  7  13  -1  14  -1  16  -1  18  -1  19  -1  20   2  21   2
M  END
> <Uni-Dock RESULT> 
ENERGY=   -6.952  LOWER_BOUND=    0.000  UPPER_BOUND=    0.000
INTER + INTRA:          -6.952
INTER:                  -6.952
INTRA:                   0.000
UNBOUND:                 0.000

$$$$

     RDKit          3D

 22 13  0  0  0  0  0  0  0  0999 V2000
   47.1925    2.7157    6.7049 Ca  0  0  0  0  0 15  0  0  0  0  0  0
   47.1925    2.7157    6.7049 P   0  0  0  0  0  0  0  0  0  0  0  0
   46.5532    1.6460    7.6055 O   0  0  0  0  0  0  0  0  0  0  0  0
   46.5082    2.7023    5.3282 O   0  0  0  0  0  0  0  0  0  0  0  0
   48.6907    2.4144    6.5354 O   0  0  0  0  0  0  0  0  0  0  0  0
   47.0180    4.1002    7.3505 O   0  0  0  0  0  0  0  0  0  0  0  0
   47.1555    2.8177    6.2282 O   0  0  0  0  0  0  0  0  0  0  0  0
   47.1925    2.7157    6.7049 Ca  0  0  0  0  0 15  0  0  0  0  0  0
   47.1925    2.7157    6.7049 Ca  0  0  0  0  0 15  0  0  0  0  0  0
   47.1925    2.7157    6.7049 P   0  0  0  0  0  0  0  0  0  0  0  0
   46.8167    3.9634    7.5210 O   0  0  0  0  0  0  0  0  0  0  0  0
   48.7101    2.7022    6.4588 O   0  0  0  0  0  0  0  0  0  0  0  0
   46.4548    2.7440    5.3563 O   0  0  0  0  0  0  0  0  0  0  0  0
   46.7884    1.4532    7.4838 O   0  0  0  0  0  0  0  0  0  0  0  0
   47.1925    2.7157    6.7049 P   0  0  0  0  0  0  0  0  0  0  0  0
   47.0515    4.2094    7.0414 O   0  0  0  0  0  0  0  0  0  0  0  0
   48.6814    2.3324    6.6889 O   0  0  0  0  0  0  0  0  0  0  0  0
   46.5778    2.4415    5.3225 O   0  0  0  0  0  0  0  0  0  0  0  0
   46.4594    1.8796    7.7668 O   0  0  0  0  0  0  0  0  0  0  0  0
   47.1925    2.7157    6.7049 Ca  0  0  0  0  0 15  0  0  0  0  0  0
   47.1925    2.7157    6.7049 Ca  0  0  0  0  0 15  0  0  0  0  0  0
   47.2295    2.6138    7.1816 H   0  0  0  0  0  0  0  0  0  0  0  0
  3  2  1  0
  4  2  1  0
  5  2  2  0
  6  2  1  0
 10 11  1  0
 10 12  2  0
 10 13  1  0
 10 14  1  0
 15 16  1  0
 15 17  2  0
 15 18  1  0
 15 19  1  0
  7 22  1  0
M  CHG  8   1   2   3  -1   4  -1   6  -1   7  -1   8   2   9   2  11  -1
M  CHG  7  13  -1  14  -1  16  -1  18  -1  19  -1  20   2  21   2
M  END
> <Uni-Dock RESULT> 
ENERGY=   -6.943  LOWER_BOUND=    0.248  UPPER_BOUND=    1.656
INTER + INTRA:          -6.943
INTER:                  -6.943
INTRA:                   0.000
UNBOUND:                 0.000

$$$$

     RDKit          3D

 22 13  0  0  0  0  0  0  0  0999 V2000
   43.0347    5.2724   12.0789 Ca  0  0  0  0  0 15  0  0  0  0  0  0
   43.0347    5.2724   12.0789 P   0  0  0  0  0  0  0  0  0  0  0  0
   43.0055    4.0860   11.1013 O   0  0  0  0  0  0  0  0  0  0  0  0
   41.8686    6.2239   11.7649 O   0  0  0  0  0  0  0  0  0  0  0  0
   44.3660    6.0268   11.9299 O   0  0  0  0  0  0  0  0  0  0  0  0
   42.8984    4.7528   13.5195 O   0  0  0  0  0  0  0  0  0  0  0  0
   42.7924    5.6966   12.0978 O   0  0  0  0  0  0  0  0  0  0  0  0
   43.0347    5.2724   12.0789 Ca  0  0  0  0  0 15  0  0  0  0  0  0
   43.0347    5.2724   12.0789 Ca  0  0  0  0  0 15  0  0  0  0  0  0
   43.0347    5.2724   12.0789 P   0  0  0  0  0  0  0  0  0  0  0  0
   42.8094    4.5008   13.3896 O   0  0  0  0  0  0  0  0  0  0  0  0
   44.3032    6.1324   12.2019 O   0  0  0  0  0  0  0  0  0  0  0  0
   41.8246    6.1802   11.8042 O   0  0  0  0  0  0  0  0  0  0  0  0
   43.2014    4.2759   10.9199 O   0  0  0  0  0  0  0  0  0  0  0  0
   43.0347    5.2724   12.0789 P   0  0  0  0  0  0  0  0  0  0  0  0
   42.7857    5.0563   13.5807 O   0  0  0  0  0  0  0  0  0  0  0  0
   44.4334    5.8765   11.8731 O   0  0  0  0  0  0  0  0  0  0  0  0
   41.9738    6.2327   11.5164 O   0  0  0  0  0  0  0  0  0  0  0  0
   42.9457    3.9240   11.3454 O   0  0  0  0  0  0  0  0  0  0  0  0
   43.0347    5.2724   12.0789 Ca  0  0  0  0  0 15  0  0  0  0  0  0
   43.0347    5.2724   12.0789 Ca  0  0  0  0  0 15  0  0  0  0  0  0
   43.2770    4.8481   12.0600 H   0  0  0  0  0  0  0  0  0  0  0  0
  3  2  1  0
  4  2  1  0
  5  2  2  0
  6  2  1  0
 10 11  1  0
 10 12  2  0
 10 13  1  0
 10 14  1  0
 15 16  1  0
 15 17  2  0
 15 18  1  0
 15 19  1  0
  7 22  1  0
M  CHG  8   1   2   3  -1   4  -1   6  -1   7  -1   8   2   9   2  11  -1
M  CHG  7  13  -1  14  -1  16  -1  18  -1  19  -1  20   2  21   2
M  END
> <Uni-Dock RESULT> 
ENERGY=   -5.948  LOWER_BOUND=    6.733  UPPER_BOUND=    7.329
INTER + INTRA:          -5.948
INTER:                  -5.948
INTRA:                   0.000
UNBOUND:                 0.000

$$$$

     RDKit          3D

 22 13  0  0  0  0  0  0  0  0999 V2000
   43.0296    5.2467   12.1028 Ca  0  0  0  0  0 15  0  0  0  0  0  0
   43.0296    5.2467   12.1028 P   0  0  0  0  0  0  0  0  0  0  0  0
   44.4135    5.9074   11.9919 O   0  0  0  0  0  0  0  0  0  0  0  0
   42.7484    4.8897   13.5716 O   0  0  0  0  0  0  0  0  0  0  0  0
   43.0025    3.9674   11.2503 O   0  0  0  0  0  0  0  0  0  0  0  0
   41.9540    6.2222   11.5975 O   0  0  0  0  0  0  0  0  0  0  0  0
   42.7976    5.0144   12.4651 O   0  0  0  0  0  0  0  0  0  0  0  0
   43.0296    5.2467   12.1028 Ca  0  0  0  0  0 15  0  0  0  0  0  0
   43.0296    5.2467   12.1028 Ca  0  0  0  0  0 15  0  0  0  0  0  0
   43.0296    5.2467   12.1028 P   0  0  0  0  0  0  0  0  0  0  0  0
   42.1681    6.4265   11.6234 O   0  0  0  0  0  0  0  0  0  0  0  0
   42.7061    4.0008   11.2619 O   0  0  0  0  0  0  0  0  0  0  0  0
   42.7268    4.9590   13.5825 O   0  0  0  0  0  0  0  0  0  0  0  0
   44.5174    5.6005   11.9435 O   0  0  0  0  0  0  0  0  0  0  0  0
   43.0296    5.2467   12.1028 P   0  0  0  0  0  0  0  0  0  0  0  0
   41.7532    6.0444   11.7889 O   0  0  0  0  0  0  0  0  0  0  0  0
   43.1271    4.0412   11.1534 O   0  0  0  0  0  0  0  0  0  0  0  0
   42.9793    4.7507   13.5573 O   0  0  0  0  0  0  0  0  0  0  0  0
   44.2588    6.1504   11.9116 O   0  0  0  0  0  0  0  0  0  0  0  0
   43.0296    5.2467   12.1028 Ca  0  0  0  0  0 15  0  0  0  0  0  0
   43.0296    5.2467   12.1028 Ca  0  0  0  0  0 15  0  0  0  0  0  0
   43.2616    5.4790   11.7405 H   0  0  0  0  0  0  0  0  0  0  0  0
  3  2  1  0
  4  2  1  0
  5  2  2  0
  6  2  1  0
 10 11  1  0
 10 12  2  0
 10 13  1  0
 10 14  1  0
 15 16  1  0
 15 17  2  0
 15 18  1  0
 15 19  1  0
  7 22  1  0
M  CHG  8   1   2   3  -1   4  -1   6  -1   7  -1   8   2   9   2  11  -1
M  CHG  7  13  -1  14  -1  16  -1  18  -1  19  -1  20   2  21   2
M  END
> <Uni-Dock RESULT> 
ENERGY=   -5.937  LOWER_BOUND=    6.753  UPPER_BOUND=    7.490
INTER + INTRA:          -5.937
INTER:                  -5.937
INTRA:                   0.000
UNBOUND:                 0.000

$$$$

     RDKit          3D

 22 13  0  0  0  0  0  0  0  0999 V2000
   42.9892    5.2412   12.0602 Ca  0  0  0  0  0 15  0  0  0  0  0  0
   42.9892    5.2412   12.0602 P   0  0  0  0  0  0  0  0  0  0  0  0
   42.8898    4.9969   13.5749 O   0  0  0  0  0  0  0  0  0  0  0  0
   41.9069    6.2452   11.6309 O   0  0  0  0  0  0  0  0  0  0  0  0
   42.7826    3.9139   11.3122 O   0  0  0  0  0  0  0  0  0  0  0  0
   44.3777    5.8090   11.7227 O   0  0  0  0  0  0  0  0  0  0  0  0
   42.7017    5.4713   11.7386 O   0  0  0  0  0  0  0  0  0  0  0  0
   42.9892    5.2412   12.0602 Ca  0  0  0  0  0 15  0  0  0  0  0  0
   42.9892    5.2412   12.0602 Ca  0  0  0  0  0 15  0  0  0  0  0  0
   42.9892    5.2412   12.0602 P   0  0  0  0  0  0  0  0  0  0  0  0
   44.3963    5.8593   12.0149 O   0  0  0  0  0  0  0  0  0  0  0  0
   42.9197    4.0532   11.0867 O   0  0  0  0  0  0  0  0  0  0  0  0
   41.9512    6.2996   11.6523 O   0  0  0  0  0  0  0  0  0  0  0  0
   42.6898    4.7529   13.4870 O   0  0  0  0  0  0  0  0  0  0  0  0
   42.9892    5.2412   12.0602 P   0  0  0  0  0  0  0  0  0  0  0  0
   44.2246    5.9299   11.4571 O   0  0  0  0  0  0  0  0  0  0  0  0
   42.8406    3.8351   11.4564 O   0  0  0  0  0  0  0  0  0  0  0  0
   41.7340    6.0706   11.7428 O   0  0  0  0  0  0  0  0  0  0  0  0
   43.1577    5.1294   13.5844 O   0  0  0  0  0  0  0  0  0  0  0  0
   42.9892    5.2412   12.0602 Ca  0  0  0  0  0 15  0  0  0  0  0  0
   42.9892    5.2412   12.0602 Ca  0  0  0  0  0 15  0  0  0  0  0  0
   43.2768    5.0112   12.3818 H   0  0  0  0  0  0  0  0  0  0  0  0
  3  2  1  0
  4  2  1  0
  5  2  2  0
  6  2  1  0
 10 11  1  0
 10 12  2  0
 10 13  1  0
 10 14  1  0
 15 16  1  0
 15 17  2  0
 15 18  1  0
 15 19  1  0
  7 22  1  0
M  CHG  8   1   2   3  -1   4  -1   6  -1   7  -1   8   2   9   2  11  -1
M  CHG  7  13  -1  14  -1  16  -1  18  -1  19  -1  20   2  21   2
M  END
> <Uni-Dock RESULT> 
ENERGY=   -5.932  LOWER_BOUND=    6.736  UPPER_BOUND=    7.489
INTER + INTRA:          -5.932
INTER:                  -5.932
INTRA:                   0.000
UNBOUND:                 0.000

$$$$

     RDKit          3D

 22 13  0  0  0  0  0  0  0  0999 V2000
   43.0877    5.2907   11.8313 Ca  0  0  0  0  0 15  0  0  0  0  0  0
   43.0877    5.2907   11.8313 P   0  0  0  0  0  0  0  0  0  0  0  0
   44.1124    5.9363   10.8840 O   0  0  0  0  0  0  0  0  0  0  0  0
   41.7495    6.0403   11.7263 O   0  0  0  0  0  0  0  0  0  0  0  0
   43.6062    5.3677   13.2767 O   0  0  0  0  0  0  0  0  0  0  0  0
   42.8827    3.8185   11.4380 O   0  0  0  0  0  0  0  0  0  0  0  0
   42.6410    5.4217   11.9808 O   0  0  0  0  0  0  0  0  0  0  0  0
   43.0877    5.2907   11.8313 Ca  0  0  0  0  0 15  0  0  0  0  0  0
   43.0877    5.2907   11.8313 Ca  0  0  0  0  0 15  0  0  0  0  0  0
   43.0877    5.2907   11.8313 P   0  0  0  0  0  0  0  0  0  0  0  0
   43.0177    3.8972   11.1853 O   0  0  0  0  0  0  0  0  0  0  0  0
   43.4123    5.1465   13.3272 O   0  0  0  0  0  0  0  0  0  0  0  0
   41.7338    6.0005   11.6667 O   0  0  0  0  0  0  0  0  0  0  0  0
   44.1870    6.1186   11.1458 O   0  0  0  0  0  0  0  0  0  0  0  0
   43.0877    5.2907   11.8313 P   0  0  0  0  0  0  0  0  0  0  0  0
   42.5920    3.8556   11.5886 O   0  0  0  0  0  0  0  0  0  0  0  0
   43.7664    5.3724   13.2084 O   0  0  0  0  0  0  0  0  0  0  0  0
   41.8942    6.2591   11.7899 O   0  0  0  0  0  0  0  0  0  0  0  0
   44.0982    5.6757   10.7382 O   0  0  0  0  0  0  0  0  0  0  0  0
   43.0877    5.2907   11.8313 Ca  0  0  0  0  0 15  0  0  0  0  0  0
   43.0877    5.2907   11.8313 Ca  0  0  0  0  0 15  0  0  0  0  0  0
   43.5343    5.1597   11.6817 H   0  0  0  0  0  0  0  0  0  0  0  0
  3  2  1  0
  4  2  1  0
  5  2  2  0
  6  2  1  0
 10 11  1  0
 10 12  2  0
 10 13  1  0
 10 14  1  0
 15 16  1  0
 15 17  2  0
 15 18  1  0
 15 19  1  0
  7 22  1  0
M  CHG  8   1   2   3  -1   4  -1   6  -1   7  -1   8   2   9   2  11  -1
M  CHG  7  13  -1  14  -1  16  -1  18  -1  19  -1  20   2  21   2
M  END
> <Uni-Dock RESULT> 
ENERGY=   -5.768  LOWER_BOUND=    6.533  UPPER_BOUND=    7.191
INTER + INTRA:          -5.768
INTER:                  -5.768
INTRA:                   0.000
UNBOUND:                 0.000

$$$$

     RDKit          3D

 22 13  0  0  0  0  0  0  0  0999 V2000
   43.0593    5.2615   12.0787 Ca  0  0  0  0  0 15  0  0  0  0  0  0
   43.0593    5.2615   12.0787 P   0  0  0  0  0  0  0  0  0  0  0  0
   42.8736    4.7474   13.5158 O   0  0  0  0  0  0  0  0  0  0  0  0
   44.4224    5.9622   11.9572 O   0  0  0  0  0  0  0  0  0  0  0  0
   41.9386    6.2589   11.7423 O   0  0  0  0  0  0  0  0  0  0  0  0
   43.0026    4.0775   11.0995 O   0  0  0  0  0  0  0  0  0  0  0  0
   43.3886    5.5551   11.8682 O   0  0  0  0  0  0  0  0  0  0  0  0
   43.0593    5.2615   12.0787 Ca  0  0  0  0  0 15  0  0  0  0  0  0
   43.0593    5.2615   12.0787 Ca  0  0  0  0  0 15  0  0  0  0  0  0
   43.0593    5.2615   12.0787 P   0  0  0  0  0  0  0  0  0  0  0  0
   43.0399    3.9115   11.3431 O   0  0  0  0  0  0  0  0  0  0  0  0
   42.0094    6.1981   11.4588 O   0  0  0  0  0  0  0  0  0  0  0  0
   44.4535    5.8964   11.9479 O   0  0  0  0  0  0  0  0  0  0  0  0
   42.7345    5.0399   13.5651 O   0  0  0  0  0  0  0  0  0  0  0  0
   43.0593    5.2615   12.0787 P   0  0  0  0  0  0  0  0  0  0  0  0
   43.1768    4.2770   10.9035 O   0  0  0  0  0  0  0  0  0  0  0  0
   41.8425    6.1758   11.8616 O   0  0  0  0  0  0  0  0  0  0  0  0
   44.3346    6.1165   12.1606 O   0  0  0  0  0  0  0  0  0  0  0  0
   42.8833    4.4767   13.3892 O   0  0  0  0  0  0  0  0  0  0  0  0
   43.0593    5.2615   12.0787 Ca  0  0  0  0  0 15  0  0  0  0  0  0
   43.0593    5.2615   12.0787 Ca  0  0  0  0  0 15  0  0  0  0  0  0
   42.7300    4.9679   12.2893 H   0  0  0  0  0  0  0  0  0  0  0  0
  3  2  1  0
  4  2  1  0
  5  2  2  0
  6  2  1  0
 10 11  1  0
 10 12  2  0
 10 13  1  0
 10 14  1  0
 15 16  1  0
 15 17  2  0
 15 18  1  0
 15 19  1  0
  7 22  1  0
M  CHG  8   1   2   3  -1   4  -1   6  -1   7  -1   8   2   9   2  11  -1
M  CHG  7  13  -1  14  -1  16  -1  18  -1  19  -1  20   2  21   2
M  END
> <Uni-Dock RESULT> 
ENERGY=   -5.698  LOWER_BOUND=    6.691  UPPER_BOUND=    7.465
INTER + INTRA:          -5.698
INTER:                  -5.698
INTRA:                   0.000
UNBOUND:                 0.000

$$$$

     RDKit          3D

 22 13  0  0  0  0  0  0  0  0999 V2000
   43.7731    3.2897   11.9930 Ca  0  0  0  0  0 15  0  0  0  0  0  0
   43.7731    3.2897   11.9930 P   0  0  0  0  0  0  0  0  0  0  0  0
   45.2978    3.1257   12.1040 O   0  0  0  0  0  0  0  0  0  0  0  0
   43.2348    3.9545   13.2705 O   0  0  0  0  0  0  0  0  0  0  0  0
   43.1203    1.9085   11.8199 O   0  0  0  0  0  0  0  0  0  0  0  0
   43.4395    4.1702   10.7775 O   0  0  0  0  0  0  0  0  0  0  0  0
   43.4260    3.4176   12.3126 O   0  0  0  0  0  0  0  0  0  0  0  0
   43.7731    3.2897   11.9930 Ca  0  0  0  0  0 15  0  0  0  0  0  0
   43.7731    3.2897   11.9930 Ca  0  0  0  0  0 15  0  0  0  0  0  0
   43.7731    3.2897   11.9930 P   0  0  0  0  0  0  0  0  0  0  0  0
   43.7276    4.2422   10.7869 O   0  0  0  0  0  0  0  0  0  0  0  0
   42.8895    2.0634   11.7112 O   0  0  0  0  0  0  0  0  0  0  0  0
   43.2535    4.0197   13.2424 O   0  0  0  0  0  0  0  0  0  0  0  0
   45.2219    2.8336   12.2313 O   0  0  0  0  0  0  0  0  0  0  0  0
   43.7731    3.2897   11.9930 P   0  0  0  0  0  0  0  0  0  0  0  0
   43.1608    4.2308   10.9424 O   0  0  0  0  0  0  0  0  0  0  0  0
   43.2718    1.8565   11.7513 O   0  0  0  0  0  0  0  0  0  0  0  0
   43.3537    3.7491   13.3991 O   0  0  0  0  0  0  0  0  0  0  0  0
   45.3061    3.3225   11.8790 O   0  0  0  0  0  0  0  0  0  0  0  0
   43.7731    3.2897   11.9930 Ca  0  0  0  0  0 15  0  0  0  0  0  0
   43.7731    3.2897   11.9930 Ca  0  0  0  0  0 15  0  0  0  0  0  0
   44.1202    3.1618   11.6733 H   0  0  0  0  0  0  0  0  0  0  0  0
  3  2  1  0
  4  2  1  0
  5  2  2  0
  6  2  1  0
 10 11  1  0
 10 12  2  0
 10 13  1  0
 10 14  1  0
 15 16  1  0
 15 17  2  0
 15 18  1  0
 15 19  1  0
  7 22  1  0
M  CHG  8   1   2   3  -1   4  -1   6  -1   7  -1   8   2   9   2  11  -1
M  CHG  7  13  -1  14  -1  16  -1  18  -1  19  -1  20   2  21   2
M  END
> <Uni-Dock RESULT> 
ENERGY=   -5.662  LOWER_BOUND=    5.896  UPPER_BOUND=    6.611
INTER + INTRA:          -5.662
INTER:                  -5.662
INTRA:                   0.000
UNBOUND:                 0.000

$$$$

     RDKit          3D

 22 13  0  0  0  0  0  0  0  0999 V2000
   43.7629    3.0859   11.3814 Ca  0  0  0  0  0 15  0  0  0  0  0  0
   43.7629    3.0859   11.3814 P   0  0  0  0  0  0  0  0  0  0  0  0
   42.7897    4.2442   11.6554 O   0  0  0  0  0  0  0  0  0  0  0  0
   43.0601    1.7481   11.6649 O   0  0  0  0  0  0  0  0  0  0  0  0
   44.9923    3.2224   12.2945 O   0  0  0  0  0  0  0  0  0  0  0  0
   44.2094    3.1287    9.9108 O   0  0  0  0  0  0  0  0  0  0  0  0
   43.7453    2.6056   11.4710 O   0  0  0  0  0  0  0  0  0  0  0  0
   43.7629    3.0859   11.3814 Ca  0  0  0  0  0 15  0  0  0  0  0  0
   43.7629    3.0859   11.3814 Ca  0  0  0  0  0 15  0  0  0  0  0  0
   43.7629    3.0859   11.3814 P   0  0  0  0  0  0  0  0  0  0  0  0
   43.9793    3.3134    9.8763 O   0  0  0  0  0  0  0  0  0  0  0  0
   45.1244    3.0446   12.0945 O   0  0  0  0  0  0  0  0  0  0  0  0
   43.0302    1.7516   11.5979 O   0  0  0  0  0  0  0  0  0  0  0  0
   42.9176    4.2340   11.9568 O   0  0  0  0  0  0  0  0  0  0  0  0
   43.7629    3.0859   11.3814 P   0  0  0  0  0  0  0  0  0  0  0  0
   44.2681    2.8076    9.9561 O   0  0  0  0  0  0  0  0  0  0  0  0
   44.9584    3.3933   12.2980 O   0  0  0  0  0  0  0  0  0  0  0  0
   43.0157    1.8507   11.9106 O   0  0  0  0  0  0  0  0  0  0  0  0
   42.8094    4.2919   11.3608 O   0  0  0  0  0  0  0  0  0  0  0  0
   43.7629    3.0859   11.3814 Ca  0  0  0  0  0 15  0  0  0  0  0  0
   43.7629    3.0859   11.3814 Ca  0  0  0  0  0 15  0  0  0  0  0  0
   43.7805    3.5662   11.2918 H   0  0  0  0  0  0  0  0  0  0  0  0
  3  2  1  0
  4  2  1  0
  5  2  2  0
  6  2  1  0
 10 11  1  0
 10 12  2  0
 10 13  1  0
 10 14  1  0
 15 16  1  0
 15 17  2  0
 15 18  1  0
 15 19  1  0
  7 22  1  0
M  CHG  8   1   2   3  -1   4  -1   6  -1   7  -1   8   2   9   2  11  -1
M  CHG  7  13  -1  14  -1  16  -1  18  -1  19  -1  20   2  21   2
M  END
> <Uni-Dock RESULT> 
ENERGY=   -5.609  LOWER_BOUND=    5.350  UPPER_BOUND=    6.086
INTER + INTRA:          -5.609
INTER:                  -5.609
INTRA:                   0.000
UNBOUND:                 0.000

$$$$
