
     RDKit          3D

 22 13  0  0  0  0  0  0  0  0999 V2000
   47.2050    2.7500    6.7259 Ca  0  0  0  0  0 15  0  0  0  0  0  0
   47.2050    2.7500    6.7259 P   0  0  0  0  0  0  0  0  0  0  0  0
   46.6119    2.6219    5.3132 O   0  0  0  0  0  0  0  0  0  0  0  0
   46.5736    1.6913    7.6448 O   0  0  0  0  0  0  0  0  0  0  0  0
   46.9084    4.1529    7.2809 O   0  0  0  0  0  0  0  0  0  0  0  0
   48.7261    2.5341    6.6648 O   0  0  0  0  0  0  0  0  0  0  0  0
   47.1417    2.5333    7.1596 O   0  0  0  0  0  0  0  0  0  0  0  0
   47.2050    2.7500    6.7259 Ca  0  0  0  0  0 15  0  0  0  0  0  0
   47.2050    2.7500    6.7259 Ca  0  0  0  0  0 15  0  0  0  0  0  0
   47.2050    2.7500    6.7259 P   0  0  0  0  0  0  0  0  0  0  0  0
   48.6821    2.5839    6.3325 O   0  0  0  0  0  0  0  0  0  0  0  0
   46.9797    4.1639    7.2865 O   0  0  0  0  0  0  0  0  0  0  0  0
   46.3182    2.5426    5.4872 O   0  0  0  0  0  0  0  0  0  0  0  0
   46.8400    1.7096    7.7975 O   0  0  0  0  0  0  0  0  0  0  0  0
   47.2050    2.7500    6.7259 P   0  0  0  0  0  0  0  0  0  0  0  0
   48.6721    2.3108    6.5889 O   0  0  0  0  0  0  0  0  0  0  0  0
   47.1476    4.1672    7.3193 O   0  0  0  0  0  0  0  0  0  0  0  0
   46.4628    1.7751    7.6547 O   0  0  0  0  0  0  0  0  0  0  0  0
   46.5375    2.7469    5.3409 O   0  0  0  0  0  0  0  0  0  0  0  0
   47.2050    2.7500    6.7259 Ca  0  0  0  0  0 15  0  0  0  0  0  0
   47.2050    2.7500    6.7259 Ca  0  0  0  0  0 15  0  0  0  0  0  0
   47.2683    2.9667    6.2923 H   0  0  0  0  0  0  0  0  0  0  0  0
  3  2  1  0
  4  2  1  0
  5  2  2  0
  6  2  1  0
 10 11  1  0
 10 12  2  0
 10 13  1  0
 10 14  1  0
 15 16  1  0
 15 17  2  0
 15 18  1  0
 15 19  1  0
  7 22  1  0
M  CHG  8   1   2   3  -1   4  -1   6  -1   7  -1   8   2   9   2  11  -1
M  CHG  7  13  -1  14  -1  16  -1  18  -1  19  -1  20   2  21   2
M  END
> <Uni-Dock RESULT> 
ENERGY=   -7.068  LOWER_BOUND=    0.000  UPPER_BOUND=    0.000
INTER + INTRA:          -7.068
INTER:                  -7.068
INTRA:                   0.000
UNBOUND:                 0.000

$$$$

     RDKit          3D

 22 13  0  0  0  0  0  0  0  0999 V2000
   47.1991    2.7575    6.7212 Ca  0  0  0  0  0 15  0  0  0  0  0  0
   47.1991    2.7575    6.7212 P   0  0  0  0  0  0  0  0  0  0  0  0
   46.4238    2.5121    5.4163 O   0  0  0  0  0  0  0  0  0  0  0  0
   46.9157    4.1820    7.2256 O   0  0  0  0  0  0  0  0  0  0  0  0
   48.7057    2.5965    6.4601 O   0  0  0  0  0  0  0  0  0  0  0  0
   46.7512    1.7393    7.7826 O   0  0  0  0  0  0  0  0  0  0  0  0
   47.2632    3.1288    7.0327 O   0  0  0  0  0  0  0  0  0  0  0  0
   47.1991    2.7575    6.7212 Ca  0  0  0  0  0 15  0  0  0  0  0  0
   47.1991    2.7575    6.7212 Ca  0  0  0  0  0 15  0  0  0  0  0  0
   47.1991    2.7575    6.7212 P   0  0  0  0  0  0  0  0  0  0  0  0
   46.6202    1.5757    7.5164 O   0  0  0  0  0  0  0  0  0  0  0  0
   48.7067    2.5431    6.5090 O   0  0  0  0  0  0  0  0  0  0  0  0
   46.4975    2.8494    5.3562 O   0  0  0  0  0  0  0  0  0  0  0  0
   46.9718    4.0617    7.5031 O   0  0  0  0  0  0  0  0  0  0  0  0
   47.1991    2.7575    6.7212 P   0  0  0  0  0  0  0  0  0  0  0  0
   46.5338    1.8437    7.7635 O   0  0  0  0  0  0  0  0  0  0  0  0
   48.7011    2.4384    6.6442 O   0  0  0  0  0  0  0  0  0  0  0  0
   47.0076    4.2270    7.1311 O   0  0  0  0  0  0  0  0  0  0  0  0
   46.5537    2.5209    5.3458 O   0  0  0  0  0  0  0  0  0  0  0  0
   47.1991    2.7575    6.7212 Ca  0  0  0  0  0 15  0  0  0  0  0  0
   47.1991    2.7575    6.7212 Ca  0  0  0  0  0 15  0  0  0  0  0  0
   47.1350    2.3862    6.4096 H   0  0  0  0  0  0  0  0  0  0  0  0
  3  2  1  0
  4  2  1  0
  5  2  2  0
  6  2  1  0
 10 11  1  0
 10 12  2  0
 10 13  1  0
 10 14  1  0
 15 16  1  0
 15 17  2  0
 15 18  1  0
 15 19  1  0
  7 22  1  0
M  CHG  8   1   2   3  -1   4  -1   6  -1   7  -1   8   2   9   2  11  -1
M  CHG  7  13  -1  14  -1  16  -1  18  -1  19  -1  20   2  21   2
M  END
> <Uni-Dock RESULT> 
ENERGY=   -7.051  LOWER_BOUND=    0.174  UPPER_BOUND=    1.638
INTER + INTRA:          -7.051
INTER:                  -7.051
INTRA:                   0.000
UNBOUND:                 0.000

$$$$

     RDKit          3D

 22 13  0  0  0  0  0  0  0  0999 V2000
   47.2022    2.7552    6.7148 Ca  0  0  0  0  0 15  0  0  0  0  0  0
   47.2022    2.7552    6.7148 P   0  0  0  0  0  0  0  0  0  0  0  0
   48.6966    2.4056    6.6229 O   0  0  0  0  0  0  0  0  0  0  0  0
   46.5607    2.6327    5.3229 O   0  0  0  0  0  0  0  0  0  0  0  0
   47.0436    4.1961    7.2272 O   0  0  0  0  0  0  0  0  0  0  0  0
   46.5080    1.7864    7.6861 O   0  0  0  0  0  0  0  0  0  0  0  0
   46.8258    2.7930    6.4051 O   0  0  0  0  0  0  0  0  0  0  0  0
   47.2022    2.7552    6.7148 Ca  0  0  0  0  0 15  0  0  0  0  0  0
   47.2022    2.7552    6.7148 Ca  0  0  0  0  0 15  0  0  0  0  0  0
   47.2022    2.7552    6.7148 P   0  0  0  0  0  0  0  0  0  0  0  0
   46.8248    1.7162    7.7835 O   0  0  0  0  0  0  0  0  0  0  0  0
   47.0065    4.1701    7.2837 O   0  0  0  0  0  0  0  0  0  0  0  0
   48.6735    2.5641    6.3113 O   0  0  0  0  0  0  0  0  0  0  0  0
   46.3041    2.5702    5.4806 O   0  0  0  0  0  0  0  0  0  0  0  0
   47.2022    2.7552    6.7148 P   0  0  0  0  0  0  0  0  0  0  0  0
   46.5702    1.6139    7.5284 O   0  0  0  0  0  0  0  0  0  0  0  0
   46.8989    4.0995    7.3965 O   0  0  0  0  0  0  0  0  0  0  0  0
   46.6155    2.7573    5.2936 O   0  0  0  0  0  0  0  0  0  0  0  0
   48.7242    2.5500    6.6406 O   0  0  0  0  0  0  0  0  0  0  0  0
   47.2022    2.7552    6.7148 Ca  0  0  0  0  0 15  0  0  0  0  0  0
   47.2022    2.7552    6.7148 Ca  0  0  0  0  0 15  0  0  0  0  0  0
   47.5786    2.7174    7.0244 H   0  0  0  0  0  0  0  0  0  0  0  0
  3  2  1  0
  4  2  1  0
  5  2  2  0
  6  2  1  0
 10 11  1  0
 10 12  2  0
 10 13  1  0
 10 14  1  0
 15 16  1  0
 15 17  2  0
 15 18  1  0
 15 19  1  0
  7 22  1  0
M  CHG  8   1   2   3  -1   4  -1   6  -1   7  -1   8   2   9   2  11  -1
M  CHG  7  13  -1  14  -1  16  -1  18  -1  19  -1  20   2  21   2
M  END
> <Uni-Dock RESULT> 
ENERGY=   -7.029  LOWER_BOUND=    0.197  UPPER_BOUND=    1.655
INTER + INTRA:          -7.029
INTER:                  -7.029
INTRA:                   0.000
UNBOUND:                 0.000

$$$$

     RDKit          3D

 22 13  0  0  0  0  0  0  0  0999 V2000
   47.1975    2.7630    6.7162 Ca  0  0  0  0  0 15  0  0  0  0  0  0
   47.1975    2.7630    6.7162 P   0  0  0  0  0  0  0  0  0  0  0  0
   46.6007    1.8375    7.7891 O   0  0  0  0  0  0  0  0  0  0  0  0
   46.4428    2.5654    5.3913 O   0  0  0  0  0  0  0  0  0  0  0  0
   48.6835    2.4231    6.5152 O   0  0  0  0  0  0  0  0  0  0  0  0
   47.0633    4.2262    7.1692 O   0  0  0  0  0  0  0  0  0  0  0  0
   47.1235    2.8513    6.2411 O   0  0  0  0  0  0  0  0  0  0  0  0
   47.1975    2.7630    6.7162 Ca  0  0  0  0  0 15  0  0  0  0  0  0
   47.1975    2.7630    6.7162 Ca  0  0  0  0  0 15  0  0  0  0  0  0
   47.1975    2.7630    6.7162 P   0  0  0  0  0  0  0  0  0  0  0  0
   47.0043    4.0876    7.4727 O   0  0  0  0  0  0  0  0  0  0  0  0
   48.6999    2.4908    6.5347 O   0  0  0  0  0  0  0  0  0  0  0  0
   46.5625    1.6164    7.5199 O   0  0  0  0  0  0  0  0  0  0  0  0
   46.5235    2.8573    5.3375 O   0  0  0  0  0  0  0  0  0  0  0  0
   47.1975    2.7630    6.7162 P   0  0  0  0  0  0  0  0  0  0  0  0
   46.8247    4.1873    7.1594 O   0  0  0  0  0  0  0  0  0  0  0  0
   48.7231    2.6590    6.5563 O   0  0  0  0  0  0  0  0  0  0  0  0
   46.5188    2.4502    5.3725 O   0  0  0  0  0  0  0  0  0  0  0  0
   46.7235    1.7557    7.7766 O   0  0  0  0  0  0  0  0  0  0  0  0
   47.1975    2.7630    6.7162 Ca  0  0  0  0  0 15  0  0  0  0  0  0
   47.1975    2.7630    6.7162 Ca  0  0  0  0  0 15  0  0  0  0  0  0
   47.2716    2.6747    7.1913 H   0  0  0  0  0  0  0  0  0  0  0  0
  3  2  1  0
  4  2  1  0
  5  2  2  0
  6  2  1  0
 10 11  1  0
 10 12  2  0
 10 13  1  0
 10 14  1  0
 15 16  1  0
 15 17  2  0
 15 18  1  0
 15 19  1  0
  7 22  1  0
M  CHG  8   1   2   3  -1   4  -1   6  -1   7  -1   8   2   9   2  11  -1
M  CHG  7  13  -1  14  -1  16  -1  18  -1  19  -1  20   2  21   2
M  END
> <Uni-Dock RESULT> 
ENERGY=   -6.995  LOWER_BOUND=    0.246  UPPER_BOUND=    1.910
INTER + INTRA:          -6.995
INTER:                  -6.995
INTRA:                   0.000
UNBOUND:                 0.000

$$$$

     RDKit          3D

 22 13  0  0  0  0  0  0  0  0999 V2000
   47.3086    2.3298    6.5191 Ca  0  0  0  0  0 15  0  0  0  0  0  0
   47.3086    2.3298    6.5191 P   0  0  0  0  0  0  0  0  0  0  0  0
   48.8109    2.6280    6.3842 O   0  0  0  0  0  0  0  0  0  0  0  0
   46.7025    3.2322    7.6065 O   0  0  0  0  0  0  0  0  0  0  0  0
   47.1117    0.8554    6.9083 O   0  0  0  0  0  0  0  0  0  0  0  0
   46.6092    2.6035    5.1775 O   0  0  0  0  0  0  0  0  0  0  0  0
   46.9389    2.4835    6.7998 O   0  0  0  0  0  0  0  0  0  0  0  0
   47.3086    2.3298    6.5191 Ca  0  0  0  0  0 15  0  0  0  0  0  0
   47.3086    2.3298    6.5191 Ca  0  0  0  0  0 15  0  0  0  0  0  0
   47.3086    2.3298    6.5191 P   0  0  0  0  0  0  0  0  0  0  0  0
   46.9249    2.5977    5.0545 O   0  0  0  0  0  0  0  0  0  0  0  0
   47.0738    0.8462    6.8473 O   0  0  0  0  0  0  0  0  0  0  0  0
   48.7922    2.6730    6.7313 O   0  0  0  0  0  0  0  0  0  0  0  0
   46.4434    3.2024    7.4433 O   0  0  0  0  0  0  0  0  0  0  0  0
   47.3086    2.3298    6.5191 P   0  0  0  0  0  0  0  0  0  0  0  0
   46.6783    2.8330    5.2101 O   0  0  0  0  0  0  0  0  0  0  0  0
   46.9649    0.8441    6.7154 O   0  0  0  0  0  0  0  0  0  0  0  0
   46.7557    3.1441    7.7003 O   0  0  0  0  0  0  0  0  0  0  0  0
   48.8353    2.4980    6.4507 O   0  0  0  0  0  0  0  0  0  0  0  0
   47.3086    2.3298    6.5191 Ca  0  0  0  0  0 15  0  0  0  0  0  0
   47.3086    2.3298    6.5191 Ca  0  0  0  0  0 15  0  0  0  0  0  0
   47.6782    2.1762    6.2384 H   0  0  0  0  0  0  0  0  0  0  0  0
  3  2  1  0
  4  2  1  0
  5  2  2  0
  6  2  1  0
 10 11  1  0
 10 12  2  0
 10 13  1  0
 10 14  1  0
 15 16  1  0
 15 17  2  0
 15 18  1  0
 15 19  1  0
  7 22  1  0
M  CHG  8   1   2   3  -1   4  -1   6  -1   7  -1   8   2   9   2  11  -1
M  CHG  7  13  -1  14  -1  16  -1  18  -1  19  -1  20   2  21   2
M  END
> <Uni-Dock RESULT> 
ENERGY=   -6.707  LOWER_BOUND=    0.694  UPPER_BOUND=    1.957
INTER + INTRA:          -6.707
INTER:                  -6.707
INTRA:                   0.000
UNBOUND:                 0.000

$$$$

     RDKit          3D

 22 13  0  0  0  0  0  0  0  0999 V2000
   43.0021    5.2403   12.1223 Ca  0  0  0  0  0 15  0  0  0  0  0  0
   43.0021    5.2403   12.1223 P   0  0  0  0  0  0  0  0  0  0  0  0
   44.4086    5.8090   11.8722 O   0  0  0  0  0  0  0  0  0  0  0  0
   41.9476    6.2592   11.6600 O   0  0  0  0  0  0  0  0  0  0  0  0
   42.8216    4.9613   13.6235 O   0  0  0  0  0  0  0  0  0  0  0  0
   42.8307    3.9317   11.3336 O   0  0  0  0  0  0  0  0  0  0  0  0
   42.5411    5.3930   12.0656 O   0  0  0  0  0  0  0  0  0  0  0  0
   43.0021    5.2403   12.1223 Ca  0  0  0  0  0 15  0  0  0  0  0  0
   43.0021    5.2403   12.1223 Ca  0  0  0  0  0 15  0  0  0  0  0  0
   43.0021    5.2403   12.1223 P   0  0  0  0  0  0  0  0  0  0  0  0
   43.1684    3.9459   11.3093 O   0  0  0  0  0  0  0  0  0  0  0  0
   42.8103    4.8917   13.6075 O   0  0  0  0  0  0  0  0  0  0  0  0
   44.2574    6.1130   11.9588 O   0  0  0  0  0  0  0  0  0  0  0  0
   41.7725    6.0106   11.6136 O   0  0  0  0  0  0  0  0  0  0  0  0
   43.0021    5.2403   12.1223 P   0  0  0  0  0  0  0  0  0  0  0  0
   42.8595    4.0690   11.1366 O   0  0  0  0  0  0  0  0  0  0  0  0
   42.7593    4.7371   13.5547 O   0  0  0  0  0  0  0  0  0  0  0  0
   41.9704    6.3275   11.7792 O   0  0  0  0  0  0  0  0  0  0  0  0
   44.4192    5.8277   12.0187 O   0  0  0  0  0  0  0  0  0  0  0  0
   43.0021    5.2403   12.1223 Ca  0  0  0  0  0 15  0  0  0  0  0  0
   43.0021    5.2403   12.1223 Ca  0  0  0  0  0 15  0  0  0  0  0  0
   43.4631    5.0876   12.1790 H   0  0  0  0  0  0  0  0  0  0  0  0
  3  2  1  0
  4  2  1  0
  5  2  2  0
  6  2  1  0
 10 11  1  0
 10 12  2  0
 10 13  1  0
 10 14  1  0
 15 16  1  0
 15 17  2  0
 15 18  1  0
 15 19  1  0
  7 22  1  0
M  CHG  8   1   2   3  -1   4  -1   6  -1   7  -1   8   2   9   2  11  -1
M  CHG  7  13  -1  14  -1  16  -1  18  -1  19  -1  20   2  21   2
M  END
> <Uni-Dock RESULT> 
ENERGY=   -6.000  LOWER_BOUND=    6.798  UPPER_BOUND=    7.480
INTER + INTRA:          -6.000
INTER:                  -6.000
INTRA:                   0.000
UNBOUND:                 0.000

$$$$

     RDKit          3D

 22 13  0  0  0  0  0  0  0  0999 V2000
   43.7845    3.2669   11.9963 Ca  0  0  0  0  0 15  0  0  0  0  0  0
   43.7845    3.2669   11.9963 P   0  0  0  0  0  0  0  0  0  0  0  0
   43.5846    4.2325   10.8166 O   0  0  0  0  0  0  0  0  0  0  0  0
   43.0614    1.9422   11.7026 O   0  0  0  0  0  0  0  0  0  0  0  0
   43.2061    3.8939   13.2754 O   0  0  0  0  0  0  0  0  0  0  0  0
   45.2861    2.9991   12.1905 O   0  0  0  0  0  0  0  0  0  0  0  0
   43.6380    2.8161   12.1161 O   0  0  0  0  0  0  0  0  0  0  0  0
   43.7845    3.2669   11.9963 Ca  0  0  0  0  0 15  0  0  0  0  0  0
   43.7845    3.2669   11.9963 Ca  0  0  0  0  0 15  0  0  0  0  0  0
   43.7845    3.2669   11.9963 P   0  0  0  0  0  0  0  0  0  0  0  0
   45.3221    3.2724   11.9936 O   0  0  0  0  0  0  0  0  0  0  0  0
   43.2720    3.8903   13.3050 O   0  0  0  0  0  0  0  0  0  0  0  0
   43.2670    4.0851   10.8019 O   0  0  0  0  0  0  0  0  0  0  0  0
   43.2771    1.8199   11.8846 O   0  0  0  0  0  0  0  0  0  0  0  0
   43.7845    3.2669   11.9963 P   0  0  0  0  0  0  0  0  0  0  0  0
   45.2777    2.9012   11.9695 O   0  0  0  0  0  0  0  0  0  0  0  0
   43.4248    3.8520   13.3718 O   0  0  0  0  0  0  0  0  0  0  0  0
   42.9433    2.0057   11.7398 O   0  0  0  0  0  0  0  0  0  0  0  0
   43.4924    4.3087   10.9039 O   0  0  0  0  0  0  0  0  0  0  0  0
   43.7845    3.2669   11.9963 Ca  0  0  0  0  0 15  0  0  0  0  0  0
   43.7845    3.2669   11.9963 Ca  0  0  0  0  0 15  0  0  0  0  0  0
   43.9311    3.7176   11.8764 H   0  0  0  0  0  0  0  0  0  0  0  0
  3  2  1  0
  4  2  1  0
  5  2  2  0
  6  2  1  0
 10 11  1  0
 10 12  2  0
 10 13  1  0
 10 14  1  0
 15 16  1  0
 15 17  2  0
 15 18  1  0
 15 19  1  0
  7 22  1  0
M  CHG  8   1   2   3  -1   4  -1   6  -1   7  -1   8   2   9   2  11  -1
M  CHG  7  13  -1  14  -1  16  -1  18  -1  19  -1  20   2  21   2
M  END
> <Uni-Dock RESULT> 
ENERGY=   -5.758  LOWER_BOUND=    5.887  UPPER_BOUND=    6.341
INTER + INTRA:          -5.758
INTER:                  -5.758
INTRA:                   0.000
UNBOUND:                 0.000

$$$$

     RDKit          3D

 22 13  0  0  0  0  0  0  0  0999 V2000
   43.1210    5.2067   11.8017 Ca  0  0  0  0  0 15  0  0  0  0  0  0
   43.1210    5.2067   11.8017 P   0  0  0  0  0  0  0  0  0  0  0  0
   43.7318    5.2203   13.2126 O   0  0  0  0  0  0  0  0  0  0  0  0
   44.1474    5.7490   10.7936 O   0  0  0  0  0  0  0  0  0  0  0  0
   41.8636    6.0912   11.7791 O   0  0  0  0  0  0  0  0  0  0  0  0
   42.7411    3.7661   11.4216 O   0  0  0  0  0  0  0  0  0  0  0  0
   43.2593    5.3415   11.3526 O   0  0  0  0  0  0  0  0  0  0  0  0
   43.1210    5.2067   11.8017 Ca  0  0  0  0  0 15  0  0  0  0  0  0
   43.1210    5.2067   11.8017 Ca  0  0  0  0  0 15  0  0  0  0  0  0
   43.1210    5.2067   11.8017 P   0  0  0  0  0  0  0  0  0  0  0  0
   42.7757    3.7091   11.7538 O   0  0  0  0  0  0  0  0  0  0  0  0
   41.8251    6.0331   11.7598 O   0  0  0  0  0  0  0  0  0  0  0  0
   43.8839    5.5154   13.1004 O   0  0  0  0  0  0  0  0  0  0  0  0
   43.9993    5.5689   10.5929 O   0  0  0  0  0  0  0  0  0  0  0  0
   43.1210    5.2067   11.8017 P   0  0  0  0  0  0  0  0  0  0  0  0
   42.9778    3.7195   11.4385 O   0  0  0  0  0  0  0  0  0  0  0  0
   41.7512    5.8958   11.6894 O   0  0  0  0  0  0  0  0  0  0  0  0
   44.1126    5.8768   10.8365 O   0  0  0  0  0  0  0  0  0  0  0  0
   43.6424    5.3345   13.2424 O   0  0  0  0  0  0  0  0  0  0  0  0
   43.1210    5.2067   11.8017 Ca  0  0  0  0  0 15  0  0  0  0  0  0
   43.1210    5.2067   11.8017 Ca  0  0  0  0  0 15  0  0  0  0  0  0
   42.9827    5.0718   12.2508 H   0  0  0  0  0  0  0  0  0  0  0  0
  3  2  1  0
  4  2  1  0
  5  2  2  0
  6  2  1  0
 10 11  1  0
 10 12  2  0
 10 13  1  0
 10 14  1  0
 15 16  1  0
 15 17  2  0
 15 18  1  0
 15 19  1  0
  7 22  1  0
M  CHG  8   1   2   3  -1   4  -1   6  -1   7  -1   8   2   9   2  11  -1
M  CHG  7  13  -1  14  -1  16  -1  18  -1  19  -1  20   2  21   2
M  END
> <Uni-Dock RESULT> 
ENERGY=   -5.704  LOWER_BOUND=    6.435  UPPER_BOUND=    7.190
INTER + INTRA:          -5.704
INTER:                  -5.704
INTRA:                   0.000
UNBOUND:                 0.000

$$$$

     RDKit          3D

 22 13  0  0  0  0  0  0  0  0999 V2000
   43.2627    4.6706   11.4912 Ca  0  0  0  0  0 15  0  0  0  0  0  0
   43.2627    4.6706   11.4912 P   0  0  0  0  0  0  0  0  0  0  0  0
   44.5128    5.0724   12.2911 O   0  0  0  0  0  0  0  0  0  0  0  0
   42.0757    5.5487   11.9198 O   0  0  0  0  0  0  0  0  0  0  0  0
   42.9326    3.1939   11.7639 O   0  0  0  0  0  0  0  0  0  0  0  0
   43.5299    4.8672    9.9898 O   0  0  0  0  0  0  0  0  0  0  0  0
   42.7924    4.8030   11.4755 O   0  0  0  0  0  0  0  0  0  0  0  0
   43.2627    4.6706   11.4912 Ca  0  0  0  0  0 15  0  0  0  0  0  0
   43.2627    4.6706   11.4912 Ca  0  0  0  0  0 15  0  0  0  0  0  0
   43.2627    4.6706   11.4912 P   0  0  0  0  0  0  0  0  0  0  0  0
   43.8540    4.8815   10.0876 O   0  0  0  0  0  0  0  0  0  0  0  0
   42.9408    3.1808   11.6932 O   0  0  0  0  0  0  0  0  0  0  0  0
   44.2819    5.1228   12.5498 O   0  0  0  0  0  0  0  0  0  0  0  0
   41.9743    5.4973   11.6340 O   0  0  0  0  0  0  0  0  0  0  0  0
   43.2627    4.6706   11.4912 P   0  0  0  0  0  0  0  0  0  0  0  0
   43.5539    5.1016   10.0443 O   0  0  0  0  0  0  0  0  0  0  0  0
   42.9369    3.1684   11.5226 O   0  0  0  0  0  0  0  0  0  0  0  0
   42.0634    5.4666   12.0316 O   0  0  0  0  0  0  0  0  0  0  0  0
   44.4967    4.9458   12.3661 O   0  0  0  0  0  0  0  0  0  0  0  0
   43.2627    4.6706   11.4912 Ca  0  0  0  0  0 15  0  0  0  0  0  0
   43.2627    4.6706   11.4912 Ca  0  0  0  0  0 15  0  0  0  0  0  0
   43.7331    4.5382   11.5068 H   0  0  0  0  0  0  0  0  0  0  0  0
  3  2  1  0
  4  2  1  0
  5  2  2  0
  6  2  1  0
 10 11  1  0
 10 12  2  0
 10 13  1  0
 10 14  1  0
 15 16  1  0
 15 17  2  0
 15 18  1  0
 15 19  1  0
  7 22  1  0
M  CHG  8   1   2   3  -1   4  -1   6  -1   7  -1   8   2   9   2  11  -1
M  CHG  7  13  -1  14  -1  16  -1  18  -1  19  -1  20   2  21   2
M  END
> <Uni-Dock RESULT> 
ENERGY=   -5.647  LOWER_BOUND=    6.008  UPPER_BOUND=    6.749
INTER + INTRA:          -5.647
INTER:                  -5.647
INTRA:                   0.000
UNBOUND:                 0.000

$$$$
