
     RDKit          3D

 22 13  0  0  0  0  0  0  0  0999 V2000
   47.2253    2.7543    6.7230 Ca  0  0  0  0  0 15  0  0  0  0  0  0
   47.2253    2.7543    6.7230 P   0  0  0  0  0  0  0  0  0  0  0  0
   46.6740    2.7530    5.2877 O   0  0  0  0  0  0  0  0  0  0  0  0
   48.7421    2.5049    6.6896 O   0  0  0  0  0  0  0  0  0  0  0  0
   46.5411    1.6430    7.5360 O   0  0  0  0  0  0  0  0  0  0  0  0
   46.9441    4.1162    7.3789 O   0  0  0  0  0  0  0  0  0  0  0  0
   47.6678    2.6001    6.8626 O   0  0  0  0  0  0  0  0  0  0  0  0
   47.2253    2.7543    6.7230 Ca  0  0  0  0  0 15  0  0  0  0  0  0
   47.2253    2.7543    6.7230 Ca  0  0  0  0  0 15  0  0  0  0  0  0
   47.2253    2.7543    6.7230 P   0  0  0  0  0  0  0  0  0  0  0  0
   46.4523    2.4970    5.4191 O   0  0  0  0  0  0  0  0  0  0  0  0
   46.7604    1.7596    7.7993 O   0  0  0  0  0  0  0  0  0  0  0  0
   46.9579    4.1904    7.2025 O   0  0  0  0  0  0  0  0  0  0  0  0
   48.7309    2.5701    6.4712 O   0  0  0  0  0  0  0  0  0  0  0  0
   47.2253    2.7543    6.7230 P   0  0  0  0  0  0  0  0  0  0  0  0
   47.0591    4.1581    7.3277 O   0  0  0  0  0  0  0  0  0  0  0  0
   46.7519    1.7000    7.7372 O   0  0  0  0  0  0  0  0  0  0  0  0
   46.3842    2.6457    5.4406 O   0  0  0  0  0  0  0  0  0  0  0  0
   48.7061    2.5132    6.3866 O   0  0  0  0  0  0  0  0  0  0  0  0
   47.2253    2.7543    6.7230 Ca  0  0  0  0  0 15  0  0  0  0  0  0
   47.2253    2.7543    6.7230 Ca  0  0  0  0  0 15  0  0  0  0  0  0
   46.7829    2.9084    6.5834 H   0  0  0  0  0  0  0  0  0  0  0  0
  3  2  1  0
  4  2  1  0
  5  2  2  0
  6  2  1  0
 10 11  1  0
 10 12  2  0
 10 13  1  0
 10 14  1  0
 15 16  1  0
 15 17  2  0
 15 18  1  0
 15 19  1  0
  7 22  1  0
M  CHG  8   1   2   3  -1   4  -1   6  -1   7  -1   8   2   9   2  11  -1
M  CHG  7  13  -1  14  -1  16  -1  18  -1  19  -1  20   2  21   2
M  END
> <Uni-Dock RESULT> 
ENERGY=   -7.143  LOWER_BOUND=    0.000  UPPER_BOUND=    0.000
INTER + INTRA:          -7.143
INTER:                  -7.143
INTRA:                   0.000
UNBOUND:                 0.000

$$$$

     RDKit          3D

 22 13  0  0  0  0  0  0  0  0999 V2000
   47.2107    2.7296    6.7354 Ca  0  0  0  0  0 15  0  0  0  0  0  0
   47.2107    2.7296    6.7354 P   0  0  0  0  0  0  0  0  0  0  0  0
   46.7678    4.0535    7.3797 O   0  0  0  0  0  0  0  0  0  0  0  0
   46.7601    1.5541    7.6181 O   0  0  0  0  0  0  0  0  0  0  0  0
   48.7423    2.7120    6.6011 O   0  0  0  0  0  0  0  0  0  0  0  0
   46.5726    2.5987    5.3427 O   0  0  0  0  0  0  0  0  0  0  0  0
   47.2127    2.2903    6.9501 O   0  0  0  0  0  0  0  0  0  0  0  0
   47.2107    2.7296    6.7354 Ca  0  0  0  0  0 15  0  0  0  0  0  0
   47.2107    2.7296    6.7354 Ca  0  0  0  0  0 15  0  0  0  0  0  0
   47.2107    2.7296    6.7354 P   0  0  0  0  0  0  0  0  0  0  0  0
   47.1210    4.1343    7.3540 O   0  0  0  0  0  0  0  0  0  0  0  0
   48.6838    2.3817    6.4653 O   0  0  0  0  0  0  0  0  0  0  0  0
   46.4264    2.7008    5.4133 O   0  0  0  0  0  0  0  0  0  0  0  0
   46.6116    1.7015    7.7091 O   0  0  0  0  0  0  0  0  0  0  0  0
   47.2107    2.7296    6.7354 P   0  0  0  0  0  0  0  0  0  0  0  0
   46.4682    2.5425    5.4021 O   0  0  0  0  0  0  0  0  0  0  0  0
   48.7046    2.4244    6.5375 O   0  0  0  0  0  0  0  0  0  0  0  0
   47.0433    4.1804    7.2160 O   0  0  0  0  0  0  0  0  0  0  0  0
   46.6266    1.7711    7.7862 O   0  0  0  0  0  0  0  0  0  0  0  0
   47.2107    2.7296    6.7354 Ca  0  0  0  0  0 15  0  0  0  0  0  0
   47.2107    2.7296    6.7354 Ca  0  0  0  0  0 15  0  0  0  0  0  0
   47.2087    3.1688    6.5208 H   0  0  0  0  0  0  0  0  0  0  0  0
  3  2  1  0
  4  2  1  0
  5  2  2  0
  6  2  1  0
 10 11  1  0
 10 12  2  0
 10 13  1  0
 10 14  1  0
 15 16  1  0
 15 17  2  0
 15 18  1  0
 15 19  1  0
  7 22  1  0
M  CHG  8   1   2   3  -1   4  -1   6  -1   7  -1   8   2   9   2  11  -1
M  CHG  7  13  -1  14  -1  16  -1  18  -1  19  -1  20   2  21   2
M  END
> <Uni-Dock RESULT> 
ENERGY=   -7.094  LOWER_BOUND=    0.164  UPPER_BOUND=    1.902
INTER + INTRA:          -7.094
INTER:                  -7.094
INTRA:                   0.000
UNBOUND:                 0.000

$$$$

     RDKit          3D

 22 13  0  0  0  0  0  0  0  0999 V2000
   47.2083    2.7489    6.7166 Ca  0  0  0  0  0 15  0  0  0  0  0  0
   47.2083    2.7489    6.7166 P   0  0  0  0  0  0  0  0  0  0  0  0
   46.5161    2.3808    5.3940 O   0  0  0  0  0  0  0  0  0  0  0  0
   46.7197    1.8078    7.8300 O   0  0  0  0  0  0  0  0  0  0  0  0
   46.8670    4.2016    7.0870 O   0  0  0  0  0  0  0  0  0  0  0  0
   48.7307    2.6052    6.5556 O   0  0  0  0  0  0  0  0  0  0  0  0
   47.0813    2.5930    7.1623 O   0  0  0  0  0  0  0  0  0  0  0  0
   47.2083    2.7489    6.7166 Ca  0  0  0  0  0 15  0  0  0  0  0  0
   47.2083    2.7489    6.7166 Ca  0  0  0  0  0 15  0  0  0  0  0  0
   47.2083    2.7489    6.7166 P   0  0  0  0  0  0  0  0  0  0  0  0
   46.4180    2.7306    5.3979 O   0  0  0  0  0  0  0  0  0  0  0  0
   47.0683    4.1293    7.3790 O   0  0  0  0  0  0  0  0  0  0  0  0
   48.6920    2.4666    6.4289 O   0  0  0  0  0  0  0  0  0  0  0  0
   46.6550    1.6690    7.6609 O   0  0  0  0  0  0  0  0  0  0  0  0
   47.2083    2.7489    6.7166 P   0  0  0  0  0  0  0  0  0  0  0  0
   48.7166    2.4781    6.5908 O   0  0  0  0  0  0  0  0  0  0  0  0
   46.9870    4.1324    7.3497 O   0  0  0  0  0  0  0  0  0  0  0  0
   46.5633    2.7145    5.3214 O   0  0  0  0  0  0  0  0  0  0  0  0
   46.5664    1.6703    7.6047 O   0  0  0  0  0  0  0  0  0  0  0  0
   47.2083    2.7489    6.7166 Ca  0  0  0  0  0 15  0  0  0  0  0  0
   47.2083    2.7489    6.7166 Ca  0  0  0  0  0 15  0  0  0  0  0  0
   47.3354    2.9047    6.2710 H   0  0  0  0  0  0  0  0  0  0  0  0
  3  2  1  0
  4  2  1  0
  5  2  2  0
  6  2  1  0
 10 11  1  0
 10 12  2  0
 10 13  1  0
 10 14  1  0
 15 16  1  0
 15 17  2  0
 15 18  1  0
 15 19  1  0
  7 22  1  0
M  CHG  8   1   2   3  -1   4  -1   6  -1   7  -1   8   2   9   2  11  -1
M  CHG  7  13  -1  14  -1  16  -1  18  -1  19  -1  20   2  21   2
M  END
> <Uni-Dock RESULT> 
ENERGY=   -7.041  LOWER_BOUND=    0.163  UPPER_BOUND=    1.656
INTER + INTRA:          -7.041
INTER:                  -7.041
INTRA:                   0.000
UNBOUND:                 0.000

$$$$

     RDKit          3D

 22 13  0  0  0  0  0  0  0  0999 V2000
   47.2095    2.7654    6.7206 Ca  0  0  0  0  0 15  0  0  0  0  0  0
   47.2095    2.7654    6.7206 P   0  0  0  0  0  0  0  0  0  0  0  0
   46.2911    2.7351    5.4878 O   0  0  0  0  0  0  0  0  0  0  0  0
   47.1256    4.1478    7.3883 O   0  0  0  0  0  0  0  0  0  0  0  0
   48.6591    2.4929    6.2867 O   0  0  0  0  0  0  0  0  0  0  0  0
   46.7621    1.6857    7.7197 O   0  0  0  0  0  0  0  0  0  0  0  0
   47.3463    3.1636    6.9691 O   0  0  0  0  0  0  0  0  0  0  0  0
   47.2095    2.7654    6.7206 Ca  0  0  0  0  0 15  0  0  0  0  0  0
   47.2095    2.7654    6.7206 Ca  0  0  0  0  0 15  0  0  0  0  0  0
   47.2095    2.7654    6.7206 P   0  0  0  0  0  0  0  0  0  0  0  0
   46.5958    2.6360    5.3168 O   0  0  0  0  0  0  0  0  0  0  0  0
   48.7282    2.5403    6.6388 O   0  0  0  0  0  0  0  0  0  0  0  0
   46.5848    1.7136    7.6519 O   0  0  0  0  0  0  0  0  0  0  0  0
   46.9291    4.1719    7.2749 O   0  0  0  0  0  0  0  0  0  0  0  0
   47.2095    2.7654    6.7206 P   0  0  0  0  0  0  0  0  0  0  0  0
   46.6793    1.7757    7.7710 O   0  0  0  0  0  0  0  0  0  0  0  0
   48.7275    2.5803    6.5621 O   0  0  0  0  0  0  0  0  0  0  0  0
   46.5176    2.5020    5.3730 O   0  0  0  0  0  0  0  0  0  0  0  0
   46.9134    4.2038    7.1762 O   0  0  0  0  0  0  0  0  0  0  0  0
   47.2095    2.7654    6.7206 Ca  0  0  0  0  0 15  0  0  0  0  0  0
   47.2095    2.7654    6.7206 Ca  0  0  0  0  0 15  0  0  0  0  0  0
   47.0726    2.3673    6.4720 H   0  0  0  0  0  0  0  0  0  0  0  0
  3  2  1  0
  4  2  1  0
  5  2  2  0
  6  2  1  0
 10 11  1  0
 10 12  2  0
 10 13  1  0
 10 14  1  0
 15 16  1  0
 15 17  2  0
 15 18  1  0
 15 19  1  0
  7 22  1  0
M  CHG  8   1   2   3  -1   4  -1   6  -1   7  -1   8   2   9   2  11  -1
M  CHG  7  13  -1  14  -1  16  -1  18  -1  19  -1  20   2  21   2
M  END
> <Uni-Dock RESULT> 
ENERGY=   -7.039  LOWER_BOUND=    0.163  UPPER_BOUND=    1.646
INTER + INTRA:          -7.039
INTER:                  -7.039
INTRA:                   0.000
UNBOUND:                 0.000

$$$$

     RDKit          3D

 22 13  0  0  0  0  0  0  0  0999 V2000
   46.6727    3.2050    6.8290 Ca  0  0  0  0  0 15  0  0  0  0  0  0
   46.6727    3.2050    6.8290 P   0  0  0  0  0  0  0  0  0  0  0  0
   47.3072    1.8724    7.2599 O   0  0  0  0  0  0  0  0  0  0  0  0
   46.8102    3.3695    5.3065 O   0  0  0  0  0  0  0  0  0  0  0  0
   47.3894    4.3666    7.5368 O   0  0  0  0  0  0  0  0  0  0  0  0
   45.1838    3.2115    7.2128 O   0  0  0  0  0  0  0  0  0  0  0  0
   46.7246    3.4224    6.3942 O   0  0  0  0  0  0  0  0  0  0  0  0
   46.6727    3.2050    6.8290 Ca  0  0  0  0  0 15  0  0  0  0  0  0
   46.6727    3.2050    6.8290 Ca  0  0  0  0  0 15  0  0  0  0  0  0
   46.6727    3.2050    6.8290 P   0  0  0  0  0  0  0  0  0  0  0  0
   47.4999    2.0856    7.4821 O   0  0  0  0  0  0  0  0  0  0  0  0
   47.1595    4.5693    7.3444 O   0  0  0  0  0  0  0  0  0  0  0  0
   45.1888    3.0215    7.1873 O   0  0  0  0  0  0  0  0  0  0  0  0
   46.8426    3.1437    5.3021 O   0  0  0  0  0  0  0  0  0  0  0  0
   46.6727    3.2050    6.8290 P   0  0  0  0  0  0  0  0  0  0  0  0
   45.1593    3.1544    7.0956 O   0  0  0  0  0  0  0  0  0  0  0  0
   47.2399    4.5375    7.3455 O   0  0  0  0  0  0  0  0  0  0  0  0
   47.3606    2.0386    7.5571 O   0  0  0  0  0  0  0  0  0  0  0  0
   46.9310    3.0894    5.3177 O   0  0  0  0  0  0  0  0  0  0  0  0
   46.6727    3.2050    6.8290 Ca  0  0  0  0  0 15  0  0  0  0  0  0
   46.6727    3.2050    6.8290 Ca  0  0  0  0  0 15  0  0  0  0  0  0
   46.6207    2.9876    7.2638 H   0  0  0  0  0  0  0  0  0  0  0  0
  3  2  1  0
  4  2  1  0
  5  2  2  0
  6  2  1  0
 10 11  1  0
 10 12  2  0
 10 13  1  0
 10 14  1  0
 15 16  1  0
 15 17  2  0
 15 18  1  0
 15 19  1  0
  7 22  1  0
M  CHG  8   1   2   3  -1   4  -1   6  -1   7  -1   8   2   9   2  11  -1
M  CHG  7  13  -1  14  -1  16  -1  18  -1  19  -1  20   2  21   2
M  END
> <Uni-Dock RESULT> 
ENERGY=   -6.093  LOWER_BOUND=    0.988  UPPER_BOUND=    1.909
INTER + INTRA:          -6.093
INTER:                  -6.093
INTRA:                   0.000
UNBOUND:                 0.000

$$$$

     RDKit          3D

 22 13  0  0  0  0  0  0  0  0999 V2000
   42.9962    5.2336   12.1167 Ca  0  0  0  0  0 15  0  0  0  0  0  0
   42.9962    5.2336   12.1167 P   0  0  0  0  0  0  0  0  0  0  0  0
   44.3327    5.9937   12.1188 O   0  0  0  0  0  0  0  0  0  0  0  0
   42.6708    4.7650   13.5444 O   0  0  0  0  0  0  0  0  0  0  0  0
   43.1024    4.0126   11.1883 O   0  0  0  0  0  0  0  0  0  0  0  0
   41.8788    6.1630   11.6151 O   0  0  0  0  0  0  0  0  0  0  0  0
   42.8206    4.9571   12.4796 O   0  0  0  0  0  0  0  0  0  0  0  0
   42.9962    5.2336   12.1167 Ca  0  0  0  0  0 15  0  0  0  0  0  0
   42.9962    5.2336   12.1167 Ca  0  0  0  0  0 15  0  0  0  0  0  0
   42.9962    5.2336   12.1167 P   0  0  0  0  0  0  0  0  0  0  0  0
   44.4225    5.7496   11.8653 O   0  0  0  0  0  0  0  0  0  0  0  0
   42.7626    3.9534   11.2979 O   0  0  0  0  0  0  0  0  0  0  0  0
   41.9806    6.3066   11.6912 O   0  0  0  0  0  0  0  0  0  0  0  0
   42.8190    4.9247   13.6124 O   0  0  0  0  0  0  0  0  0  0  0  0
   42.9962    5.2336   12.1167 P   0  0  0  0  0  0  0  0  0  0  0  0
   41.8634    6.2028   11.7407 O   0  0  0  0  0  0  0  0  0  0  0  0
   42.8451    3.9319   11.3125 O   0  0  0  0  0  0  0  0  0  0  0  0
   44.3529    5.8809   11.7937 O   0  0  0  0  0  0  0  0  0  0  0  0
   42.9235    4.9187   13.6199 O   0  0  0  0  0  0  0  0  0  0  0  0
   42.9962    5.2336   12.1167 Ca  0  0  0  0  0 15  0  0  0  0  0  0
   42.9962    5.2336   12.1167 Ca  0  0  0  0  0 15  0  0  0  0  0  0
   43.1718    5.5101   11.7537 H   0  0  0  0  0  0  0  0  0  0  0  0
  3  2  1  0
  4  2  1  0
  5  2  2  0
  6  2  1  0
 10 11  1  0
 10 12  2  0
 10 13  1  0
 10 14  1  0
 15 16  1  0
 15 17  2  0
 15 18  1  0
 15 19  1  0
  7 22  1  0
M  CHG  8   1   2   3  -1   4  -1   6  -1   7  -1   8   2   9   2  11  -1
M  CHG  7  13  -1  14  -1  16  -1  18  -1  19  -1  20   2  21   2
M  END
> <Uni-Dock RESULT> 
ENERGY=   -6.024  LOWER_BOUND=    6.791  UPPER_BOUND=    7.484
INTER + INTRA:          -6.024
INTER:                  -6.024
INTRA:                   0.000
UNBOUND:                 0.000

$$$$

     RDKit          3D

 22 13  0  0  0  0  0  0  0  0999 V2000
   43.0065    5.2367   12.1017 Ca  0  0  0  0  0 15  0  0  0  0  0  0
   43.0065    5.2367   12.1017 P   0  0  0  0  0  0  0  0  0  0  0  0
   44.4781    5.6420   11.9169 O   0  0  0  0  0  0  0  0  0  0  0  0
   42.7147    3.9744   11.2738 O   0  0  0  0  0  0  0  0  0  0  0  0
   42.0961    6.3817   11.6285 O   0  0  0  0  0  0  0  0  0  0  0  0
   42.7371    4.9485   13.5878 O   0  0  0  0  0  0  0  0  0  0  0  0
   42.7599    4.9129   11.8309 O   0  0  0  0  0  0  0  0  0  0  0  0
   43.0065    5.2367   12.1017 Ca  0  0  0  0  0 15  0  0  0  0  0  0
   43.0065    5.2367   12.1017 Ca  0  0  0  0  0 15  0  0  0  0  0  0
   43.0065    5.2367   12.1017 P   0  0  0  0  0  0  0  0  0  0  0  0
   44.3332    5.9599   11.8176 O   0  0  0  0  0  0  0  0  0  0  0  0
   41.8317    6.1510   11.7174 O   0  0  0  0  0  0  0  0  0  0  0  0
   42.9204    4.8931   13.5979 O   0  0  0  0  0  0  0  0  0  0  0  0
   42.9407    3.9426   11.2741 O   0  0  0  0  0  0  0  0  0  0  0  0
   43.0065    5.2367   12.1017 P   0  0  0  0  0  0  0  0  0  0  0  0
   42.7754    4.8237   13.5646 O   0  0  0  0  0  0  0  0  0  0  0  0
   41.8792    6.1801   11.6513 O   0  0  0  0  0  0  0  0  0  0  0  0
   44.3584    5.9589   11.9806 O   0  0  0  0  0  0  0  0  0  0  0  0
   43.0132    3.9839   11.2105 O   0  0  0  0  0  0  0  0  0  0  0  0
   43.0065    5.2367   12.1017 Ca  0  0  0  0  0 15  0  0  0  0  0  0
   43.0065    5.2367   12.1017 Ca  0  0  0  0  0 15  0  0  0  0  0  0
   43.2532    5.5604   12.3726 H   0  0  0  0  0  0  0  0  0  0  0  0
  3  2  1  0
  4  2  1  0
  5  2  2  0
  6  2  1  0
 10 11  1  0
 10 12  2  0
 10 13  1  0
 10 14  1  0
 15 16  1  0
 15 17  2  0
 15 18  1  0
 15 19  1  0
  7 22  1  0
M  CHG  8   1   2   3  -1   4  -1   6  -1   7  -1   8   2   9   2  11  -1
M  CHG  7  13  -1  14  -1  16  -1  18  -1  19  -1  20   2  21   2
M  END
> <Uni-Dock RESULT> 
ENERGY=   -5.993  LOWER_BOUND=    6.771  UPPER_BOUND=    7.480
INTER + INTRA:          -5.993
INTER:                  -5.993
INTRA:                   0.000
UNBOUND:                 0.000

$$$$

     RDKit          3D

 22 13  0  0  0  0  0  0  0  0999 V2000
   43.0003    5.2515   12.1196 Ca  0  0  0  0  0 15  0  0  0  0  0  0
   43.0003    5.2515   12.1196 P   0  0  0  0  0  0  0  0  0  0  0  0
   42.7175    4.0070   11.2621 O   0  0  0  0  0  0  0  0  0  0  0  0
   41.9772    6.3489   11.7835 O   0  0  0  0  0  0  0  0  0  0  0  0
   44.4190    5.7657   11.8245 O   0  0  0  0  0  0  0  0  0  0  0  0
   42.8877    4.8845   13.6084 O   0  0  0  0  0  0  0  0  0  0  0  0
   42.8120    5.6976   12.0522 O   0  0  0  0  0  0  0  0  0  0  0  0
   43.0003    5.2515   12.1196 Ca  0  0  0  0  0 15  0  0  0  0  0  0
   43.0003    5.2515   12.1196 Ca  0  0  0  0  0 15  0  0  0  0  0  0
   43.0003    5.2515   12.1196 P   0  0  0  0  0  0  0  0  0  0  0  0
   43.0648    4.0486   11.1642 O   0  0  0  0  0  0  0  0  0  0  0  0
   44.3289    6.0232   12.0623 O   0  0  0  0  0  0  0  0  0  0  0  0
   42.7579    4.7542   13.5541 O   0  0  0  0  0  0  0  0  0  0  0  0
   41.8498    6.1801   11.6978 O   0  0  0  0  0  0  0  0  0  0  0  0
   43.0003    5.2515   12.1196 P   0  0  0  0  0  0  0  0  0  0  0  0
   42.7583    4.9120   13.5995 O   0  0  0  0  0  0  0  0  0  0  0  0
   44.3330    6.0050   11.9779 O   0  0  0  0  0  0  0  0  0  0  0  0
   43.0560    3.9529   11.2983 O   0  0  0  0  0  0  0  0  0  0  0  0
   41.8540    6.1361   11.6026 O   0  0  0  0  0  0  0  0  0  0  0  0
   43.0003    5.2515   12.1196 Ca  0  0  0  0  0 15  0  0  0  0  0  0
   43.0003    5.2515   12.1196 Ca  0  0  0  0  0 15  0  0  0  0  0  0
   43.1887    4.8054   12.1869 H   0  0  0  0  0  0  0  0  0  0  0  0
  3  2  1  0
  4  2  1  0
  5  2  2  0
  6  2  1  0
 10 11  1  0
 10 12  2  0
 10 13  1  0
 10 14  1  0
 15 16  1  0
 15 17  2  0
 15 18  1  0
 15 19  1  0
  7 22  1  0
M  CHG  8   1   2   3  -1   4  -1   6  -1   7  -1   8   2   9   2  11  -1
M  CHG  7  13  -1  14  -1  16  -1  18  -1  19  -1  20   2  21   2
M  END
> <Uni-Dock RESULT> 
ENERGY=   -5.952  LOWER_BOUND=    6.787  UPPER_BOUND=    7.532
INTER + INTRA:          -5.952
INTER:                  -5.952
INTRA:                   0.000
UNBOUND:                 0.000

$$$$

     RDKit          3D

 22 13  0  0  0  0  0  0  0  0999 V2000
   43.0177    5.2359   12.1376 Ca  0  0  0  0  0 15  0  0  0  0  0  0
   43.0177    5.2359   12.1376 P   0  0  0  0  0  0  0  0  0  0  0  0
   43.1121    3.8792   11.4202 O   0  0  0  0  0  0  0  0  0  0  0  0
   42.7444    5.0069   13.6332 O   0  0  0  0  0  0  0  0  0  0  0  0
   41.8718    6.0597   11.5275 O   0  0  0  0  0  0  0  0  0  0  0  0
   44.3426    5.9978   11.9695 O   0  0  0  0  0  0  0  0  0  0  0  0
   42.8478    5.3124   12.5896 O   0  0  0  0  0  0  0  0  0  0  0  0
   43.0177    5.2359   12.1376 Ca  0  0  0  0  0 15  0  0  0  0  0  0
   43.0177    5.2359   12.1376 Ca  0  0  0  0  0 15  0  0  0  0  0  0
   43.0177    5.2359   12.1376 P   0  0  0  0  0  0  0  0  0  0  0  0
   42.8526    4.0213   11.2095 O   0  0  0  0  0  0  0  0  0  0  0  0
   41.9685    6.3011   11.7792 O   0  0  0  0  0  0  0  0  0  0  0  0
   44.4269    5.8257   11.9640 O   0  0  0  0  0  0  0  0  0  0  0  0
   42.8228    4.7955   13.5977 O   0  0  0  0  0  0  0  0  0  0  0  0
   43.0177    5.2359   12.1376 P   0  0  0  0  0  0  0  0  0  0  0  0
   44.3855    5.9358   12.0785 O   0  0  0  0  0  0  0  0  0  0  0  0
   41.9130    6.2371   11.7620 O   0  0  0  0  0  0  0  0  0  0  0  0
   43.0010    4.0592   11.1481 O   0  0  0  0  0  0  0  0  0  0  0  0
   42.7715    4.7114   13.5617 O   0  0  0  0  0  0  0  0  0  0  0  0
   43.0177    5.2359   12.1376 Ca  0  0  0  0  0 15  0  0  0  0  0  0
   43.0177    5.2359   12.1376 Ca  0  0  0  0  0 15  0  0  0  0  0  0
   43.1876    5.1594   11.6856 H   0  0  0  0  0  0  0  0  0  0  0  0
  3  2  1  0
  4  2  1  0
  5  2  2  0
  6  2  1  0
 10 11  1  0
 10 12  2  0
 10 13  1  0
 10 14  1  0
 15 16  1  0
 15 17  2  0
 15 18  1  0
 15 19  1  0
  7 22  1  0
M  CHG  8   1   2   3  -1   4  -1   6  -1   7  -1   8   2   9   2  11  -1
M  CHG  7  13  -1  14  -1  16  -1  18  -1  19  -1  20   2  21   2
M  END
> <Uni-Dock RESULT> 
ENERGY=   -5.951  LOWER_BOUND=    6.799  UPPER_BOUND=    7.498
INTER + INTRA:          -5.951
INTER:                  -5.951
INTRA:                   0.000
UNBOUND:                 0.000

$$$$
