
     RDKit          3D

 22 13  0  0  0  0  0  0  0  0999 V2000
   47.2172    2.7305    6.7189 Ca  0  0  0  0  0 15  0  0  0  0  0  0
   47.2172    2.7305    6.7189 P   0  0  0  0  0  0  0  0  0  0  0  0
   47.1827    4.1634    7.2754 O   0  0  0  0  0  0  0  0  0  0  0  0
   48.6776    2.2726    6.5728 O   0  0  0  0  0  0  0  0  0  0  0  0
   46.5298    2.6980    5.3440 O   0  0  0  0  0  0  0  0  0  0  0  0
   46.4787    1.7882    7.6836 O   0  0  0  0  0  0  0  0  0  0  0  0
   47.6663    2.5531    6.6429 O   0  0  0  0  0  0  0  0  0  0  0  0
   47.2172    2.7305    6.7189 Ca  0  0  0  0  0 15  0  0  0  0  0  0
   47.2172    2.7305    6.7189 Ca  0  0  0  0  0 15  0  0  0  0  0  0
   47.2172    2.7305    6.7189 P   0  0  0  0  0  0  0  0  0  0  0  0
   46.8404    4.0614    7.3905 O   0  0  0  0  0  0  0  0  0  0  0  0
   46.6576    2.7025    5.2871 O   0  0  0  0  0  0  0  0  0  0  0  0
   48.7481    2.5947    6.6737 O   0  0  0  0  0  0  0  0  0  0  0  0
   46.6226    1.5636    7.5244 O   0  0  0  0  0  0  0  0  0  0  0  0
   47.2172    2.7305    6.7189 P   0  0  0  0  0  0  0  0  0  0  0  0
   46.9642    4.1372    7.2857 O   0  0  0  0  0  0  0  0  0  0  0  0
   46.8608    1.6781    7.7816 O   0  0  0  0  0  0  0  0  0  0  0  0
   46.3439    2.5157    5.4719 O   0  0  0  0  0  0  0  0  0  0  0  0
   48.6998    2.5910    6.3365 O   0  0  0  0  0  0  0  0  0  0  0  0
   47.2172    2.7305    6.7189 Ca  0  0  0  0  0 15  0  0  0  0  0  0
   47.2172    2.7305    6.7189 Ca  0  0  0  0  0 15  0  0  0  0  0  0
   46.7680    2.9080    6.7950 H   0  0  0  0  0  0  0  0  0  0  0  0
  3  2  1  0
  4  2  1  0
  5  2  2  0
  6  2  1  0
 10 11  1  0
 10 12  2  0
 10 13  1  0
 10 14  1  0
 15 16  1  0
 15 17  2  0
 15 18  1  0
 15 19  1  0
  7 22  1  0
M  CHG  8   1   2   3  -1   4  -1   6  -1   7  -1   8   2   9   2  11  -1
M  CHG  7  13  -1  14  -1  16  -1  18  -1  19  -1  20   2  21   2
M  END
> <Uni-Dock RESULT> 
ENERGY=   -7.082  LOWER_BOUND=    0.000  UPPER_BOUND=    0.000
INTER + INTRA:          -7.082
INTER:                  -7.082
INTRA:                   0.000
UNBOUND:                 0.000

$$$$

     RDKit          3D

 22 13  0  0  0  0  0  0  0  0999 V2000
   47.2062    2.7264    6.7154 Ca  0  0  0  0  0 15  0  0  0  0  0  0
   47.2062    2.7264    6.7154 P   0  0  0  0  0  0  0  0  0  0  0  0
   46.6707    2.5364    5.2867 O   0  0  0  0  0  0  0  0  0  0  0  0
   48.7420    2.6554    6.7006 O   0  0  0  0  0  0  0  0  0  0  0  0
   46.6505    1.6167    7.6229 O   0  0  0  0  0  0  0  0  0  0  0  0
   46.7617    4.0973    7.2512 O   0  0  0  0  0  0  0  0  0  0  0  0
   47.6924    2.6948    6.7558 O   0  0  0  0  0  0  0  0  0  0  0  0
   47.2062    2.7264    6.7154 Ca  0  0  0  0  0 15  0  0  0  0  0  0
   47.2062    2.7264    6.7154 Ca  0  0  0  0  0 15  0  0  0  0  0  0
   47.2062    2.7264    6.7154 P   0  0  0  0  0  0  0  0  0  0  0  0
   46.3746    2.7230    5.4221 O   0  0  0  0  0  0  0  0  0  0  0  0
   46.7728    1.5508    7.6066 O   0  0  0  0  0  0  0  0  0  0  0  0
   48.6968    2.5829    6.3666 O   0  0  0  0  0  0  0  0  0  0  0  0
   46.9805    4.0490    7.4663 O   0  0  0  0  0  0  0  0  0  0  0  0
   47.2062    2.7264    6.7154 P   0  0  0  0  0  0  0  0  0  0  0  0
   46.4727    2.5819    5.3719 O   0  0  0  0  0  0  0  0  0  0  0  0
   47.1523    4.1932    7.1735 O   0  0  0  0  0  0  0  0  0  0  0  0
   46.5273    1.8354    7.7685 O   0  0  0  0  0  0  0  0  0  0  0  0
   48.6725    2.2954    6.5477 O   0  0  0  0  0  0  0  0  0  0  0  0
   47.2062    2.7264    6.7154 Ca  0  0  0  0  0 15  0  0  0  0  0  0
   47.2062    2.7264    6.7154 Ca  0  0  0  0  0 15  0  0  0  0  0  0
   46.7200    2.7581    6.6750 H   0  0  0  0  0  0  0  0  0  0  0  0
  3  2  1  0
  4  2  1  0
  5  2  2  0
  6  2  1  0
 10 11  1  0
 10 12  2  0
 10 13  1  0
 10 14  1  0
 15 16  1  0
 15 17  2  0
 15 18  1  0
 15 19  1  0
  7 22  1  0
M  CHG  8   1   2   3  -1   4  -1   6  -1   7  -1   8   2   9   2  11  -1
M  CHG  7  13  -1  14  -1  16  -1  18  -1  19  -1  20   2  21   2
M  END
> <Uni-Dock RESULT> 
ENERGY=   -6.999  LOWER_BOUND=    0.115  UPPER_BOUND=    1.648
INTER + INTRA:          -6.999
INTER:                  -6.999
INTRA:                   0.000
UNBOUND:                 0.000

$$$$

     RDKit          3D

 22 13  0  0  0  0  0  0  0  0999 V2000
   47.2118    2.7353    6.7110 Ca  0  0  0  0  0 15  0  0  0  0  0  0
   47.2118    2.7353    6.7110 P   0  0  0  0  0  0  0  0  0  0  0  0
   46.9268    4.0393    7.4740 O   0  0  0  0  0  0  0  0  0  0  0  0
   46.6213    1.5473    7.4880 O   0  0  0  0  0  0  0  0  0  0  0  0
   48.7310    2.5483    6.5654 O   0  0  0  0  0  0  0  0  0  0  0  0
   46.5682    2.8063    5.3164 O   0  0  0  0  0  0  0  0  0  0  0  0
   47.0528    2.3306    6.9343 O   0  0  0  0  0  0  0  0  0  0  0  0
   47.2118    2.7353    6.7110 Ca  0  0  0  0  0 15  0  0  0  0  0  0
   47.2118    2.7353    6.7110 Ca  0  0  0  0  0 15  0  0  0  0  0  0
   47.2118    2.7353    6.7110 P   0  0  0  0  0  0  0  0  0  0  0  0
   46.9660    4.1930    7.1339 O   0  0  0  0  0  0  0  0  0  0  0  0
   48.7242    2.4605    6.6741 O   0  0  0  0  0  0  0  0  0  0  0  0
   46.5433    1.7888    7.7215 O   0  0  0  0  0  0  0  0  0  0  0  0
   46.6139    2.4992    5.3143 O   0  0  0  0  0  0  0  0  0  0  0  0
   47.2118    2.7353    6.7110 P   0  0  0  0  0  0  0  0  0  0  0  0
   47.0127    4.1419    7.2990 O   0  0  0  0  0  0  0  0  0  0  0  0
   46.2947    2.5557    5.4901 O   0  0  0  0  0  0  0  0  0  0  0  0
   48.6777    2.5626    6.2806 O   0  0  0  0  0  0  0  0  0  0  0  0
   46.8622    1.6811    7.7741 O   0  0  0  0  0  0  0  0  0  0  0  0
   47.2118    2.7353    6.7110 Ca  0  0  0  0  0 15  0  0  0  0  0  0
   47.2118    2.7353    6.7110 Ca  0  0  0  0  0 15  0  0  0  0  0  0
   47.3709    3.1401    6.4876 H   0  0  0  0  0  0  0  0  0  0  0  0
  3  2  1  0
  4  2  1  0
  5  2  2  0
  6  2  1  0
 10 11  1  0
 10 12  2  0
 10 13  1  0
 10 14  1  0
 15 16  1  0
 15 17  2  0
 15 18  1  0
 15 19  1  0
  7 22  1  0
M  CHG  8   1   2   3  -1   4  -1   6  -1   7  -1   8   2   9   2  11  -1
M  CHG  7  13  -1  14  -1  16  -1  18  -1  19  -1  20   2  21   2
M  END
> <Uni-Dock RESULT> 
ENERGY=   -6.936  LOWER_BOUND=    0.179  UPPER_BOUND=    1.643
INTER + INTRA:          -6.936
INTER:                  -6.936
INTRA:                   0.000
UNBOUND:                 0.000

$$$$

     RDKit          3D

 22 13  0  0  0  0  0  0  0  0999 V2000
   47.2016    2.7432    6.7180 Ca  0  0  0  0  0 15  0  0  0  0  0  0
   47.2016    2.7432    6.7180 P   0  0  0  0  0  0  0  0  0  0  0  0
   46.5490    1.8409    7.7781 O   0  0  0  0  0  0  0  0  0  0  0  0
   47.1563    4.2053    7.1914 O   0  0  0  0  0  0  0  0  0  0  0  0
   46.4369    2.6103    5.3908 O   0  0  0  0  0  0  0  0  0  0  0  0
   48.6642    2.3164    6.5117 O   0  0  0  0  0  0  0  0  0  0  0  0
   47.1933    3.2203    6.8245 O   0  0  0  0  0  0  0  0  0  0  0  0
   47.2016    2.7432    6.7180 Ca  0  0  0  0  0 15  0  0  0  0  0  0
   47.2016    2.7432    6.7180 Ca  0  0  0  0  0 15  0  0  0  0  0  0
   47.2016    2.7432    6.7180 P   0  0  0  0  0  0  0  0  0  0  0  0
   46.7643    1.5773    7.6199 O   0  0  0  0  0  0  0  0  0  0  0  0
   46.3714    2.7295    5.4239 O   0  0  0  0  0  0  0  0  0  0  0  0
   46.9787    4.0736    7.4559 O   0  0  0  0  0  0  0  0  0  0  0  0
   48.6922    2.5924    6.3722 O   0  0  0  0  0  0  0  0  0  0  0  0
   47.2016    2.7432    6.7180 P   0  0  0  0  0  0  0  0  0  0  0  0
   46.6162    1.6724    7.6531 O   0  0  0  0  0  0  0  0  0  0  0  0
   48.7365    2.6533    6.7332 O   0  0  0  0  0  0  0  0  0  0  0  0
   46.6888    2.5101    5.2874 O   0  0  0  0  0  0  0  0  0  0  0  0
   46.7651    4.1370    7.1981 O   0  0  0  0  0  0  0  0  0  0  0  0
   47.2016    2.7432    6.7180 Ca  0  0  0  0  0 15  0  0  0  0  0  0
   47.2016    2.7432    6.7180 Ca  0  0  0  0  0 15  0  0  0  0  0  0
   47.2100    2.2661    6.6115 H   0  0  0  0  0  0  0  0  0  0  0  0
  3  2  1  0
  4  2  1  0
  5  2  2  0
  6  2  1  0
 10 11  1  0
 10 12  2  0
 10 13  1  0
 10 14  1  0
 15 16  1  0
 15 17  2  0
 15 18  1  0
 15 19  1  0
  7 22  1  0
M  CHG  8   1   2   3  -1   4  -1   6  -1   7  -1   8   2   9   2  11  -1
M  CHG  7  13  -1  14  -1  16  -1  18  -1  19  -1  20   2  21   2
M  END
> <Uni-Dock RESULT> 
ENERGY=   -6.935  LOWER_BOUND=    0.214  UPPER_BOUND=    1.655
INTER + INTRA:          -6.935
INTER:                  -6.935
INTRA:                   0.000
UNBOUND:                 0.000

$$$$

     RDKit          3D

 22 13  0  0  0  0  0  0  0  0999 V2000
   43.0295    5.2306   12.1081 Ca  0  0  0  0  0 15  0  0  0  0  0  0
   43.0295    5.2306   12.1081 P   0  0  0  0  0  0  0  0  0  0  0  0
   44.3038    6.0747   11.9424 O   0  0  0  0  0  0  0  0  0  0  0  0
   41.8169    6.0280   11.6005 O   0  0  0  0  0  0  0  0  0  0  0  0
   42.8317    4.8874   13.5938 O   0  0  0  0  0  0  0  0  0  0  0  0
   43.1655    3.9322   11.2959 O   0  0  0  0  0  0  0  0  0  0  0  0
   42.6175    5.4559   11.9718 O   0  0  0  0  0  0  0  0  0  0  0  0
   43.0295    5.2306   12.1081 Ca  0  0  0  0  0 15  0  0  0  0  0  0
   43.0295    5.2306   12.1081 Ca  0  0  0  0  0 15  0  0  0  0  0  0
   43.0295    5.2306   12.1081 P   0  0  0  0  0  0  0  0  0  0  0  0
   44.4709    5.7388   11.9411 O   0  0  0  0  0  0  0  0  0  0  0  0
   42.7395    4.9926   13.5992 O   0  0  0  0  0  0  0  0  0  0  0  0
   42.0493    6.2788   11.5563 O   0  0  0  0  0  0  0  0  0  0  0  0
   42.8581    3.9121   11.3360 O   0  0  0  0  0  0  0  0  0  0  0  0
   43.0295    5.2306   12.1081 P   0  0  0  0  0  0  0  0  0  0  0  0
   44.4125    5.8945   12.0073 O   0  0  0  0  0  0  0  0  0  0  0  0
   42.9109    4.1288   11.0423 O   0  0  0  0  0  0  0  0  0  0  0  0
   42.8583    4.6124   13.5054 O   0  0  0  0  0  0  0  0  0  0  0  0
   41.9360    6.2865   11.8775 O   0  0  0  0  0  0  0  0  0  0  0  0
   43.0295    5.2306   12.1081 Ca  0  0  0  0  0 15  0  0  0  0  0  0
   43.0295    5.2306   12.1081 Ca  0  0  0  0  0 15  0  0  0  0  0  0
   43.4414    5.0053   12.2445 H   0  0  0  0  0  0  0  0  0  0  0  0
  3  2  1  0
  4  2  1  0
  5  2  2  0
  6  2  1  0
 10 11  1  0
 10 12  2  0
 10 13  1  0
 10 14  1  0
 15 16  1  0
 15 17  2  0
 15 18  1  0
 15 19  1  0
  7 22  1  0
M  CHG  8   1   2   3  -1   4  -1   6  -1   7  -1   8   2   9   2  11  -1
M  CHG  7  13  -1  14  -1  16  -1  18  -1  19  -1  20   2  21   2
M  END
> <Uni-Dock RESULT> 
ENERGY=   -5.899  LOWER_BOUND=    6.753  UPPER_BOUND=    7.531
INTER + INTRA:          -5.899
INTER:                  -5.899
INTRA:                   0.000
UNBOUND:                 0.000

$$$$

     RDKit          3D

 22 13  0  0  0  0  0  0  0  0999 V2000
   43.0216    5.2145   12.0927 Ca  0  0  0  0  0 15  0  0  0  0  0  0
   43.0216    5.2145   12.0927 P   0  0  0  0  0  0  0  0  0  0  0  0
   42.6746    4.9675   13.5700 O   0  0  0  0  0  0  0  0  0  0  0  0
   42.0853    6.2909   11.5194 O   0  0  0  0  0  0  0  0  0  0  0  0
   42.8472    3.9086   11.3000 O   0  0  0  0  0  0  0  0  0  0  0  0
   44.4791    5.6910   11.9813 O   0  0  0  0  0  0  0  0  0  0  0  0
   42.7346    5.5408   11.8686 O   0  0  0  0  0  0  0  0  0  0  0  0
   43.0216    5.2145   12.0927 Ca  0  0  0  0  0 15  0  0  0  0  0  0
   43.0216    5.2145   12.0927 Ca  0  0  0  0  0 15  0  0  0  0  0  0
   43.0216    5.2145   12.0927 P   0  0  0  0  0  0  0  0  0  0  0  0
   43.0302    4.8488   13.5861 O   0  0  0  0  0  0  0  0  0  0  0  0
   42.7227    3.9576   11.2589 O   0  0  0  0  0  0  0  0  0  0  0  0
   41.9377    6.2732   11.8305 O   0  0  0  0  0  0  0  0  0  0  0  0
   44.3956    5.7784   11.6952 O   0  0  0  0  0  0  0  0  0  0  0  0
   43.0216    5.2145   12.0927 P   0  0  0  0  0  0  0  0  0  0  0  0
   42.8519    4.8370   13.5734 O   0  0  0  0  0  0  0  0  0  0  0  0
   44.2984    6.0536   11.9207 O   0  0  0  0  0  0  0  0  0  0  0  0
   43.1312    3.9352   11.2470 O   0  0  0  0  0  0  0  0  0  0  0  0
   41.8047    6.0323   11.6296 O   0  0  0  0  0  0  0  0  0  0  0  0
   43.0216    5.2145   12.0927 Ca  0  0  0  0  0 15  0  0  0  0  0  0
   43.0216    5.2145   12.0927 Ca  0  0  0  0  0 15  0  0  0  0  0  0
   43.3085    4.8882   12.3168 H   0  0  0  0  0  0  0  0  0  0  0  0
  3  2  1  0
  4  2  1  0
  5  2  2  0
  6  2  1  0
 10 11  1  0
 10 12  2  0
 10 13  1  0
 10 14  1  0
 15 16  1  0
 15 17  2  0
 15 18  1  0
 15 19  1  0
  7 22  1  0
M  CHG  8   1   2   3  -1   4  -1   6  -1   7  -1   8   2   9   2  11  -1
M  CHG  7  13  -1  14  -1  16  -1  18  -1  19  -1  20   2  21   2
M  END
> <Uni-Dock RESULT> 
ENERGY=   -5.873  LOWER_BOUND=    6.732  UPPER_BOUND=    7.497
INTER + INTRA:          -5.873
INTER:                  -5.873
INTRA:                   0.000
UNBOUND:                 0.000

$$$$

     RDKit          3D

 22 13  0  0  0  0  0  0  0  0999 V2000
   43.0300    5.2495   12.1154 Ca  0  0  0  0  0 15  0  0  0  0  0  0
   43.0300    5.2495   12.1154 P   0  0  0  0  0  0  0  0  0  0  0  0
   41.8689    6.2312   11.8870 O   0  0  0  0  0  0  0  0  0  0  0  0
   42.8857    4.5987   13.5009 O   0  0  0  0  0  0  0  0  0  0  0  0
   44.3650    6.0087   12.0424 O   0  0  0  0  0  0  0  0  0  0  0  0
   43.0003    4.1594   11.0316 O   0  0  0  0  0  0  0  0  0  0  0  0
   43.0289    5.0322   12.5534 O   0  0  0  0  0  0  0  0  0  0  0  0
   43.0300    5.2495   12.1154 Ca  0  0  0  0  0 15  0  0  0  0  0  0
   43.0300    5.2495   12.1154 Ca  0  0  0  0  0 15  0  0  0  0  0  0
   43.0300    5.2495   12.1154 P   0  0  0  0  0  0  0  0  0  0  0  0
   41.9460    6.1666   11.5255 O   0  0  0  0  0  0  0  0  0  0  0  0
   44.3644    6.0104   12.1823 O   0  0  0  0  0  0  0  0  0  0  0  0
   42.6173    4.8131   13.5309 O   0  0  0  0  0  0  0  0  0  0  0  0
   43.1922    4.0079   11.2231 O   0  0  0  0  0  0  0  0  0  0  0  0
   43.0300    5.2495   12.1154 P   0  0  0  0  0  0  0  0  0  0  0  0
   41.9481    6.2525   11.6826 O   0  0  0  0  0  0  0  0  0  0  0  0
   42.8499    3.9346   11.3392 O   0  0  0  0  0  0  0  0  0  0  0  0
   44.4201    5.8345   11.8170 O   0  0  0  0  0  0  0  0  0  0  0  0
   42.9018    4.9763   13.6230 O   0  0  0  0  0  0  0  0  0  0  0  0
   43.0300    5.2495   12.1154 Ca  0  0  0  0  0 15  0  0  0  0  0  0
   43.0300    5.2495   12.1154 Ca  0  0  0  0  0 15  0  0  0  0  0  0
   43.0311    5.4668   11.6775 H   0  0  0  0  0  0  0  0  0  0  0  0
  3  2  1  0
  4  2  1  0
  5  2  2  0
  6  2  1  0
 10 11  1  0
 10 12  2  0
 10 13  1  0
 10 14  1  0
 15 16  1  0
 15 17  2  0
 15 18  1  0
 15 19  1  0
  7 22  1  0
M  CHG  8   1   2   3  -1   4  -1   6  -1   7  -1   8   2   9   2  11  -1
M  CHG  7  13  -1  14  -1  16  -1  18  -1  19  -1  20   2  21   2
M  END
> <Uni-Dock RESULT> 
ENERGY=   -5.834  LOWER_BOUND=    6.737  UPPER_BOUND=    7.487
INTER + INTRA:          -5.834
INTER:                  -5.834
INTRA:                   0.000
UNBOUND:                 0.000

$$$$

     RDKit          3D

 22 13  0  0  0  0  0  0  0  0999 V2000
   43.0379    5.2112   12.0840 Ca  0  0  0  0  0 15  0  0  0  0  0  0
   43.0379    5.2112   12.0840 P   0  0  0  0  0  0  0  0  0  0  0  0
   42.8222    4.0446   11.1060 O   0  0  0  0  0  0  0  0  0  0  0  0
   41.9341    6.2618   11.8799 O   0  0  0  0  0  0  0  0  0  0  0  0
   44.4106    5.8524   11.8221 O   0  0  0  0  0  0  0  0  0  0  0  0
   42.9847    4.6859   13.5281 O   0  0  0  0  0  0  0  0  0  0  0  0
   42.7148    5.5754   12.0399 O   0  0  0  0  0  0  0  0  0  0  0  0
   43.0379    5.2112   12.0840 Ca  0  0  0  0  0 15  0  0  0  0  0  0
   43.0379    5.2112   12.0840 Ca  0  0  0  0  0 15  0  0  0  0  0  0
   43.0379    5.2112   12.0840 P   0  0  0  0  0  0  0  0  0  0  0  0
   43.0188    3.8537   11.3623 O   0  0  0  0  0  0  0  0  0  0  0  0
   44.3434    5.9513   11.7493 O   0  0  0  0  0  0  0  0  0  0  0  0
   41.8379    6.0541   11.6220 O   0  0  0  0  0  0  0  0  0  0  0  0
   42.9516    4.9856   13.6025 O   0  0  0  0  0  0  0  0  0  0  0  0
   43.0379    5.2112   12.0840 P   0  0  0  0  0  0  0  0  0  0  0  0
   42.9882    3.9459   11.2119 O   0  0  0  0  0  0  0  0  0  0  0  0
   42.6145    4.8609   13.5200 O   0  0  0  0  0  0  0  0  0  0  0  0
   44.4699    5.7708   12.0941 O   0  0  0  0  0  0  0  0  0  0  0  0
   42.0791    6.2672   11.5102 O   0  0  0  0  0  0  0  0  0  0  0  0
   43.0379    5.2112   12.0840 Ca  0  0  0  0  0 15  0  0  0  0  0  0
   43.0379    5.2112   12.0840 Ca  0  0  0  0  0 15  0  0  0  0  0  0
   43.3610    4.8469   12.1281 H   0  0  0  0  0  0  0  0  0  0  0  0
  3  2  1  0
  4  2  1  0
  5  2  2  0
  6  2  1  0
 10 11  1  0
 10 12  2  0
 10 13  1  0
 10 14  1  0
 15 16  1  0
 15 17  2  0
 15 18  1  0
 15 19  1  0
  7 22  1  0
M  CHG  8   1   2   3  -1   4  -1   6  -1   7  -1   8   2   9   2  11  -1
M  CHG  7  13  -1  14  -1  16  -1  18  -1  19  -1  20   2  21   2
M  END
> <Uni-Dock RESULT> 
ENERGY=   -5.811  LOWER_BOUND=    6.772  UPPER_BOUND=    7.513
INTER + INTRA:          -5.811
INTER:                  -5.811
INTRA:                   0.000
UNBOUND:                 0.000

$$$$

     RDKit          3D

 22 13  0  0  0  0  0  0  0  0999 V2000
   43.0423    5.2154   12.1059 Ca  0  0  0  0  0 15  0  0  0  0  0  0
   43.0423    5.2154   12.1059 P   0  0  0  0  0  0  0  0  0  0  0  0
   44.4719    5.7810   12.1201 O   0  0  0  0  0  0  0  0  0  0  0  0
   42.6032    4.8962   13.5444 O   0  0  0  0  0  0  0  0  0  0  0  0
   43.0079    3.9303   11.2625 O   0  0  0  0  0  0  0  0  0  0  0  0
   42.0862    6.2540   11.4967 O   0  0  0  0  0  0  0  0  0  0  0  0
   42.8708    5.0861   12.5451 O   0  0  0  0  0  0  0  0  0  0  0  0
   43.0423    5.2154   12.1059 Ca  0  0  0  0  0 15  0  0  0  0  0  0
   43.0423    5.2154   12.1059 Ca  0  0  0  0  0 15  0  0  0  0  0  0
   43.0423    5.2154   12.1059 P   0  0  0  0  0  0  0  0  0  0  0  0
   44.3651    5.9348   11.7949 O   0  0  0  0  0  0  0  0  0  0  0  0
   43.0142    3.8588   11.3826 O   0  0  0  0  0  0  0  0  0  0  0  0
   42.9256    4.9902   13.6224 O   0  0  0  0  0  0  0  0  0  0  0  0
   41.8642    6.0777   11.6236 O   0  0  0  0  0  0  0  0  0  0  0  0
   43.0423    5.2154   12.1059 P   0  0  0  0  0  0  0  0  0  0  0  0
   44.4430    5.8167   11.9046 O   0  0  0  0  0  0  0  0  0  0  0  0
   41.9804    6.3060   11.8890 O   0  0  0  0  0  0  0  0  0  0  0  0
   42.8227    4.0780   11.0949 O   0  0  0  0  0  0  0  0  0  0  0  0
   42.9230    4.6610   13.5350 O   0  0  0  0  0  0  0  0  0  0  0  0
   43.0423    5.2154   12.1059 Ca  0  0  0  0  0 15  0  0  0  0  0  0
   43.0423    5.2154   12.1059 Ca  0  0  0  0  0 15  0  0  0  0  0  0
   43.2138    5.3447   11.6667 H   0  0  0  0  0  0  0  0  0  0  0  0
  3  2  1  0
  4  2  1  0
  5  2  2  0
  6  2  1  0
 10 11  1  0
 10 12  2  0
 10 13  1  0
 10 14  1  0
 15 16  1  0
 15 17  2  0
 15 18  1  0
 15 19  1  0
  7 22  1  0
M  CHG  8   1   2   3  -1   4  -1   6  -1   7  -1   8   2   9   2  11  -1
M  CHG  7  13  -1  14  -1  16  -1  18  -1  19  -1  20   2  21   2
M  END
> <Uni-Dock RESULT> 
ENERGY=   -5.798  LOWER_BOUND=    6.788  UPPER_BOUND=    7.467
INTER + INTRA:          -5.798
INTER:                  -5.798
INTRA:                   0.000
UNBOUND:                 0.000

$$$$
