
     RDKit          3D

 22 13  0  0  0  0  0  0  0  0999 V2000
   47.2112    2.7465    6.6909 Ca  0  0  0  0  0 15  0  0  0  0  0  0
   47.2112    2.7465    6.6909 P   0  0  0  0  0  0  0  0  0  0  0  0
   46.5086    1.6466    7.5035 O   0  0  0  0  0  0  0  0  0  0  0  0
   47.0339    4.0996    7.3991 O   0  0  0  0  0  0  0  0  0  0  0  0
   48.7094    2.4208    6.5758 O   0  0  0  0  0  0  0  0  0  0  0  0
   46.5930    2.8190    5.2849 O   0  0  0  0  0  0  0  0  0  0  0  0
   47.2502    3.1504    6.9636 O   0  0  0  0  0  0  0  0  0  0  0  0
   47.2112    2.7465    6.6909 Ca  0  0  0  0  0 15  0  0  0  0  0  0
   47.2112    2.7465    6.6909 Ca  0  0  0  0  0 15  0  0  0  0  0  0
   47.2112    2.7465    6.6909 P   0  0  0  0  0  0  0  0  0  0  0  0
   46.3560    2.3785    5.4674 O   0  0  0  0  0  0  0  0  0  0  0  0
   48.6969    2.5235    6.3635 O   0  0  0  0  0  0  0  0  0  0  0  0
   46.9819    4.2236    7.0509 O   0  0  0  0  0  0  0  0  0  0  0  0
   46.8103    1.8605    7.8818 O   0  0  0  0  0  0  0  0  0  0  0  0
   47.2112    2.7465    6.6909 P   0  0  0  0  0  0  0  0  0  0  0  0
   46.6305    1.5494    7.4615 O   0  0  0  0  0  0  0  0  0  0  0  0
   46.8295    4.0517    7.4082 O   0  0  0  0  0  0  0  0  0  0  0  0
   46.6423    2.7614    5.2625 O   0  0  0  0  0  0  0  0  0  0  0  0
   48.7427    2.6234    6.6312 O   0  0  0  0  0  0  0  0  0  0  0  0
   47.2112    2.7465    6.6909 Ca  0  0  0  0  0 15  0  0  0  0  0  0
   47.2112    2.7465    6.6909 Ca  0  0  0  0  0 15  0  0  0  0  0  0
   47.1723    2.3426    6.4182 H   0  0  0  0  0  0  0  0  0  0  0  0
  3  2  1  0
  4  2  1  0
  5  2  2  0
  6  2  1  0
 10 11  1  0
 10 12  2  0
 10 13  1  0
 10 14  1  0
 15 16  1  0
 15 17  2  0
 15 18  1  0
 15 19  1  0
  7 22  1  0
M  CHG  8   1   2   3  -1   4  -1   6  -1   7  -1   8   2   9   2  11  -1
M  CHG  7  13  -1  14  -1  16  -1  18  -1  19  -1  20   2  21   2
M  END
> <Uni-Dock RESULT> 
ENERGY=   -6.942  LOWER_BOUND=    0.000  UPPER_BOUND=    0.000
INTER + INTRA:          -6.942
INTER:                  -6.942
INTRA:                   0.000
UNBOUND:                 0.000

$$$$

     RDKit          3D

 22 13  0  0  0  0  0  0  0  0999 V2000
   43.0064    5.2445   12.1138 Ca  0  0  0  0  0 15  0  0  0  0  0  0
   43.0064    5.2445   12.1138 P   0  0  0  0  0  0  0  0  0  0  0  0
   44.4251    5.7692   11.8381 O   0  0  0  0  0  0  0  0  0  0  0  0
   42.8356    4.9962   13.6215 O   0  0  0  0  0  0  0  0  0  0  0  0
   41.9753    6.2845   11.6457 O   0  0  0  0  0  0  0  0  0  0  0  0
   42.7896    3.9279   11.3498 O   0  0  0  0  0  0  0  0  0  0  0  0
   42.9144    5.2686   12.5933 O   0  0  0  0  0  0  0  0  0  0  0  0
   43.0064    5.2445   12.1138 Ca  0  0  0  0  0 15  0  0  0  0  0  0
   43.0064    5.2445   12.1138 Ca  0  0  0  0  0 15  0  0  0  0  0  0
   43.0064    5.2445   12.1138 P   0  0  0  0  0  0  0  0  0  0  0  0
   43.2582    4.0770   11.1456 O   0  0  0  0  0  0  0  0  0  0  0  0
   41.8388    6.0989   11.5936 O   0  0  0  0  0  0  0  0  0  0  0  0
   42.6562    4.6905   13.5046 O   0  0  0  0  0  0  0  0  0  0  0  0
   44.2723    6.1116   12.2114 O   0  0  0  0  0  0  0  0  0  0  0  0
   43.0064    5.2445   12.1138 P   0  0  0  0  0  0  0  0  0  0  0  0
   44.3590    5.8635   11.7249 O   0  0  0  0  0  0  0  0  0  0  0  0
   43.0164    4.8896   13.6098 O   0  0  0  0  0  0  0  0  0  0  0  0
   42.7690    3.9705   11.2864 O   0  0  0  0  0  0  0  0  0  0  0  0
   41.8812    6.2543   11.8341 O   0  0  0  0  0  0  0  0  0  0  0  0
   43.0064    5.2445   12.1138 Ca  0  0  0  0  0 15  0  0  0  0  0  0
   43.0064    5.2445   12.1138 Ca  0  0  0  0  0 15  0  0  0  0  0  0
   43.0984    5.2203   11.6342 H   0  0  0  0  0  0  0  0  0  0  0  0
  3  2  1  0
  4  2  1  0
  5  2  2  0
  6  2  1  0
 10 11  1  0
 10 12  2  0
 10 13  1  0
 10 14  1  0
 15 16  1  0
 15 17  2  0
 15 18  1  0
 15 19  1  0
  7 22  1  0
M  CHG  8   1   2   3  -1   4  -1   6  -1   7  -1   8   2   9   2  11  -1
M  CHG  7  13  -1  14  -1  16  -1  18  -1  19  -1  20   2  21   2
M  END
> <Uni-Dock RESULT> 
ENERGY=   -5.904  LOWER_BOUND=    6.750  UPPER_BOUND=    7.524
INTER + INTRA:          -5.904
INTER:                  -5.904
INTRA:                   0.000
UNBOUND:                 0.000

$$$$

     RDKit          3D

 22 13  0  0  0  0  0  0  0  0999 V2000
   43.0041    5.2475   12.0463 Ca  0  0  0  0  0 15  0  0  0  0  0  0
   43.0041    5.2475   12.0463 P   0  0  0  0  0  0  0  0  0  0  0  0
   44.3795    5.9073   11.8543 O   0  0  0  0  0  0  0  0  0  0  0  0
   41.9058    6.1935   11.5336 O   0  0  0  0  0  0  0  0  0  0  0  0
   42.9537    3.9287   11.2576 O   0  0  0  0  0  0  0  0  0  0  0  0
   42.7774    4.9606   13.5397 O   0  0  0  0  0  0  0  0  0  0  0  0
   42.6686    5.4933   11.7893 O   0  0  0  0  0  0  0  0  0  0  0  0
   43.0041    5.2475   12.0463 Ca  0  0  0  0  0 15  0  0  0  0  0  0
   43.0041    5.2475   12.0463 Ca  0  0  0  0  0 15  0  0  0  0  0  0
   43.0041    5.2475   12.0463 P   0  0  0  0  0  0  0  0  0  0  0  0
   43.2881    5.1107   13.5511 O   0  0  0  0  0  0  0  0  0  0  0  0
   42.8141    3.8511   11.4316 O   0  0  0  0  0  0  0  0  0  0  0  0
   41.7261    6.0768   11.8393 O   0  0  0  0  0  0  0  0  0  0  0  0
   44.1881    5.9514   11.3631 O   0  0  0  0  0  0  0  0  0  0  0  0
   43.0041    5.2475   12.0463 P   0  0  0  0  0  0  0  0  0  0  0  0
   44.4358    5.7601   11.8190 O   0  0  0  0  0  0  0  0  0  0  0  0
   41.9991    6.3415   11.6500 O   0  0  0  0  0  0  0  0  0  0  0  0
   42.8164    4.8925   13.5305 O   0  0  0  0  0  0  0  0  0  0  0  0
   42.7652    3.9959   11.1858 O   0  0  0  0  0  0  0  0  0  0  0  0
   43.0041    5.2475   12.0463 Ca  0  0  0  0  0 15  0  0  0  0  0  0
   43.0041    5.2475   12.0463 Ca  0  0  0  0  0 15  0  0  0  0  0  0
   43.3397    5.0018   12.3033 H   0  0  0  0  0  0  0  0  0  0  0  0
  3  2  1  0
  4  2  1  0
  5  2  2  0
  6  2  1  0
 10 11  1  0
 10 12  2  0
 10 13  1  0
 10 14  1  0
 15 16  1  0
 15 17  2  0
 15 18  1  0
 15 19  1  0
  7 22  1  0
M  CHG  8   1   2   3  -1   4  -1   6  -1   7  -1   8   2   9   2  11  -1
M  CHG  7  13  -1  14  -1  16  -1  18  -1  19  -1  20   2  21   2
M  END
> <Uni-Dock RESULT> 
ENERGY=   -5.880  LOWER_BOUND=    6.734  UPPER_BOUND=    7.473
INTER + INTRA:          -5.880
INTER:                  -5.880
INTRA:                   0.000
UNBOUND:                 0.000

$$$$

     RDKit          3D

 22 13  0  0  0  0  0  0  0  0999 V2000
   43.0544    5.2031   12.0791 Ca  0  0  0  0  0 15  0  0  0  0  0  0
   43.0544    5.2031   12.0791 P   0  0  0  0  0  0  0  0  0  0  0  0
   42.1708    6.3661   11.5988 O   0  0  0  0  0  0  0  0  0  0  0  0
   42.6979    4.8552   13.5337 O   0  0  0  0  0  0  0  0  0  0  0  0
   42.8158    3.9751   11.1852 O   0  0  0  0  0  0  0  0  0  0  0  0
   44.5333    5.6161   11.9985 O   0  0  0  0  0  0  0  0  0  0  0  0
   42.8721    5.0212   12.4946 O   0  0  0  0  0  0  0  0  0  0  0  0
   43.0544    5.2031   12.0791 Ca  0  0  0  0  0 15  0  0  0  0  0  0
   43.0544    5.2031   12.0791 Ca  0  0  0  0  0 15  0  0  0  0  0  0
   43.0544    5.2031   12.0791 P   0  0  0  0  0  0  0  0  0  0  0  0
   44.3082    6.0300   11.7503 O   0  0  0  0  0  0  0  0  0  0  0  0
   43.0437    3.9260   11.2230 O   0  0  0  0  0  0  0  0  0  0  0  0
   43.0681    4.8217   13.5684 O   0  0  0  0  0  0  0  0  0  0  0  0
   41.7976    6.0348   11.7746 O   0  0  0  0  0  0  0  0  0  0  0  0
   43.0544    5.2031   12.0791 P   0  0  0  0  0  0  0  0  0  0  0  0
   42.1675    6.2930   11.4549 O   0  0  0  0  0  0  0  0  0  0  0  0
   42.7171    5.0609   13.5724 O   0  0  0  0  0  0  0  0  0  0  0  0
   44.5332    5.5938   11.9226 O   0  0  0  0  0  0  0  0  0  0  0  0
   42.7997    3.8647   11.3664 O   0  0  0  0  0  0  0  0  0  0  0  0
   43.0544    5.2031   12.0791 Ca  0  0  0  0  0 15  0  0  0  0  0  0
   43.0544    5.2031   12.0791 Ca  0  0  0  0  0 15  0  0  0  0  0  0
   43.2367    5.3851   11.6635 H   0  0  0  0  0  0  0  0  0  0  0  0
  3  2  1  0
  4  2  1  0
  5  2  2  0
  6  2  1  0
 10 11  1  0
 10 12  2  0
 10 13  1  0
 10 14  1  0
 15 16  1  0
 15 17  2  0
 15 18  1  0
 15 19  1  0
  7 22  1  0
M  CHG  8   1   2   3  -1   4  -1   6  -1   7  -1   8   2   9   2  11  -1
M  CHG  7  13  -1  14  -1  16  -1  18  -1  19  -1  20   2  21   2
M  END
> <Uni-Dock RESULT> 
ENERGY=   -5.872  LOWER_BOUND=    6.728  UPPER_BOUND=    7.443
INTER + INTRA:          -5.872
INTER:                  -5.872
INTRA:                   0.000
UNBOUND:                 0.000

$$$$

     RDKit          3D

 22 13  0  0  0  0  0  0  0  0999 V2000
   43.0244    5.2634   12.1183 Ca  0  0  0  0  0 15  0  0  0  0  0  0
   43.0244    5.2634   12.1183 P   0  0  0  0  0  0  0  0  0  0  0  0
   43.1812    4.1100   11.1139 O   0  0  0  0  0  0  0  0  0  0  0  0
   41.7932    6.1051   11.7443 O   0  0  0  0  0  0  0  0  0  0  0  0
   42.8424    4.6899   13.5332 O   0  0  0  0  0  0  0  0  0  0  0  0
   44.2808    6.1489   12.0820 O   0  0  0  0  0  0  0  0  0  0  0  0
   42.5810    5.4634   12.0685 O   0  0  0  0  0  0  0  0  0  0  0  0
   43.0244    5.2634   12.1183 Ca  0  0  0  0  0 15  0  0  0  0  0  0
   43.0244    5.2634   12.1183 Ca  0  0  0  0  0 15  0  0  0  0  0  0
   43.0244    5.2634   12.1183 P   0  0  0  0  0  0  0  0  0  0  0  0
   44.4434    5.7454   11.7749 O   0  0  0  0  0  0  0  0  0  0  0  0
   42.9589    4.8819   13.6063 O   0  0  0  0  0  0  0  0  0  0  0  0
   42.0175    6.3899   11.8333 O   0  0  0  0  0  0  0  0  0  0  0  0
   42.6777    4.0366   11.2589 O   0  0  0  0  0  0  0  0  0  0  0  0
   43.0244    5.2634   12.1183 P   0  0  0  0  0  0  0  0  0  0  0  0
   43.2300    4.0194   11.2384 O   0  0  0  0  0  0  0  0  0  0  0  0
   41.8728    6.1087   11.5497 O   0  0  0  0  0  0  0  0  0  0  0  0
   44.3147    6.0994   12.1335 O   0  0  0  0  0  0  0  0  0  0  0  0
   42.6801    4.8262   13.5516 O   0  0  0  0  0  0  0  0  0  0  0  0
   43.0244    5.2634   12.1183 Ca  0  0  0  0  0 15  0  0  0  0  0  0
   43.0244    5.2634   12.1183 Ca  0  0  0  0  0 15  0  0  0  0  0  0
   43.4678    5.0635   12.1682 H   0  0  0  0  0  0  0  0  0  0  0  0
  3  2  1  0
  4  2  1  0
  5  2  2  0
  6  2  1  0
 10 11  1  0
 10 12  2  0
 10 13  1  0
 10 14  1  0
 15 16  1  0
 15 17  2  0
 15 18  1  0
 15 19  1  0
  7 22  1  0
M  CHG  8   1   2   3  -1   4  -1   6  -1   7  -1   8   2   9   2  11  -1
M  CHG  7  13  -1  14  -1  16  -1  18  -1  19  -1  20   2  21   2
M  END
> <Uni-Dock RESULT> 
ENERGY=   -5.868  LOWER_BOUND=    6.741  UPPER_BOUND=    7.475
INTER + INTRA:          -5.868
INTER:                  -5.868
INTRA:                   0.000
UNBOUND:                 0.000

$$$$

     RDKit          3D

 22 13  0  0  0  0  0  0  0  0999 V2000
   43.0601    5.2588   12.0809 Ca  0  0  0  0  0 15  0  0  0  0  0  0
   43.0601    5.2588   12.0809 P   0  0  0  0  0  0  0  0  0  0  0  0
   42.7832    4.5685   13.4266 O   0  0  0  0  0  0  0  0  0  0  0  0
   41.9528    6.2864   11.7945 O   0  0  0  0  0  0  0  0  0  0  0  0
   44.4197    5.9742   12.1421 O   0  0  0  0  0  0  0  0  0  0  0  0
   43.0848    4.2062   10.9605 O   0  0  0  0  0  0  0  0  0  0  0  0
   42.7766    5.6550   12.0400 O   0  0  0  0  0  0  0  0  0  0  0  0
   43.0601    5.2588   12.0809 Ca  0  0  0  0  0 15  0  0  0  0  0  0
   43.0601    5.2588   12.0809 Ca  0  0  0  0  0 15  0  0  0  0  0  0
   43.0601    5.2588   12.0809 P   0  0  0  0  0  0  0  0  0  0  0  0
   43.0623    3.8872   11.3863 O   0  0  0  0  0  0  0  0  0  0  0  0
   44.4376    5.9207   11.9127 O   0  0  0  0  0  0  0  0  0  0  0  0
   41.9814    6.1525   11.4472 O   0  0  0  0  0  0  0  0  0  0  0  0
   42.7591    5.0750   13.5775 O   0  0  0  0  0  0  0  0  0  0  0  0
   43.0601    5.2588   12.0809 P   0  0  0  0  0  0  0  0  0  0  0  0
   42.9429    4.5693   13.4502 O   0  0  0  0  0  0  0  0  0  0  0  0
   41.8177    6.1316   11.8386 O   0  0  0  0  0  0  0  0  0  0  0  0
   43.1609    4.1931   10.9773 O   0  0  0  0  0  0  0  0  0  0  0  0
   44.3189    6.1414   12.0576 O   0  0  0  0  0  0  0  0  0  0  0  0
   43.0601    5.2588   12.0809 Ca  0  0  0  0  0 15  0  0  0  0  0  0
   43.0601    5.2588   12.0809 Ca  0  0  0  0  0 15  0  0  0  0  0  0
   43.3436    4.8626   12.1218 H   0  0  0  0  0  0  0  0  0  0  0  0
  3  2  1  0
  4  2  1  0
  5  2  2  0
  6  2  1  0
 10 11  1  0
 10 12  2  0
 10 13  1  0
 10 14  1  0
 15 16  1  0
 15 17  2  0
 15 18  1  0
 15 19  1  0
  7 22  1  0
M  CHG  8   1   2   3  -1   4  -1   6  -1   7  -1   8   2   9   2  11  -1
M  CHG  7  13  -1  14  -1  16  -1  18  -1  19  -1  20   2  21   2
M  END
> <Uni-Dock RESULT> 
ENERGY=   -5.828  LOWER_BOUND=    6.689  UPPER_BOUND=    7.304
INTER + INTRA:          -5.828
INTER:                  -5.828
INTRA:                   0.000
UNBOUND:                 0.000

$$$$

     RDKit          3D

 22 13  0  0  0  0  0  0  0  0999 V2000
   43.0709    5.2507   11.8725 Ca  0  0  0  0  0 15  0  0  0  0  0  0
   43.0709    5.2507   11.8725 P   0  0  0  0  0  0  0  0  0  0  0  0
   43.6858    5.3181   13.2801 O   0  0  0  0  0  0  0  0  0  0  0  0
   42.6892    3.7969   11.5489 O   0  0  0  0  0  0  0  0  0  0  0  0
   41.8138    6.1344   11.8196 O   0  0  0  0  0  0  0  0  0  0  0  0
   44.0946    5.7535   10.8414 O   0  0  0  0  0  0  0  0  0  0  0  0
   42.8522    4.8178   11.8111 O   0  0  0  0  0  0  0  0  0  0  0  0
   43.0709    5.2507   11.8725 Ca  0  0  0  0  0 15  0  0  0  0  0  0
   43.0709    5.2507   11.8725 Ca  0  0  0  0  0 15  0  0  0  0  0  0
   43.0709    5.2507   11.8725 P   0  0  0  0  0  0  0  0  0  0  0  0
   44.3487    5.8787   11.2924 O   0  0  0  0  0  0  0  0  0  0  0  0
   41.8739    6.1750   11.5948 O   0  0  0  0  0  0  0  0  0  0  0  0
   42.8265    3.8836   11.2128 O   0  0  0  0  0  0  0  0  0  0  0  0
   43.2341    5.0656   13.3901 O   0  0  0  0  0  0  0  0  0  0  0  0
   43.0709    5.2507   11.8725 P   0  0  0  0  0  0  0  0  0  0  0  0
   43.6105    5.4599   13.2970 O   0  0  0  0  0  0  0  0  0  0  0  0
   42.8838    3.7472   11.6110 O   0  0  0  0  0  0  0  0  0  0  0  0
   44.0702    5.8273   10.8561 O   0  0  0  0  0  0  0  0  0  0  0  0
   41.7191    5.9686   11.7260 O   0  0  0  0  0  0  0  0  0  0  0  0
   43.0709    5.2507   11.8725 Ca  0  0  0  0  0 15  0  0  0  0  0  0
   43.0709    5.2507   11.8725 Ca  0  0  0  0  0 15  0  0  0  0  0  0
   43.2895    5.6837   11.9339 H   0  0  0  0  0  0  0  0  0  0  0  0
  3  2  1  0
  4  2  1  0
  5  2  2  0
  6  2  1  0
 10 11  1  0
 10 12  2  0
 10 13  1  0
 10 14  1  0
 15 16  1  0
 15 17  2  0
 15 18  1  0
 15 19  1  0
  7 22  1  0
M  CHG  8   1   2   3  -1   4  -1   6  -1   7  -1   8   2   9   2  11  -1
M  CHG  7  13  -1  14  -1  16  -1  18  -1  19  -1  20   2  21   2
M  END
> <Uni-Dock RESULT> 
ENERGY=   -5.778  LOWER_BOUND=    6.516  UPPER_BOUND=    7.317
INTER + INTRA:          -5.778
INTER:                  -5.778
INTRA:                   0.000
UNBOUND:                 0.000

$$$$

     RDKit          3D

 22 13  0  0  0  0  0  0  0  0999 V2000
   43.7827    3.2463   11.9783 Ca  0  0  0  0  0 15  0  0  0  0  0  0
   43.7827    3.2463   11.9783 P   0  0  0  0  0  0  0  0  0  0  0  0
   43.3345    4.2414   10.8953 O   0  0  0  0  0  0  0  0  0  0  0  0
   43.1717    1.8652   11.6899 O   0  0  0  0  0  0  0  0  0  0  0  0
   45.3165    3.1393   11.9728 O   0  0  0  0  0  0  0  0  0  0  0  0
   43.3083    3.7393   13.3552 O   0  0  0  0  0  0  0  0  0  0  0  0
   43.6823    2.7907   11.8321 O   0  0  0  0  0  0  0  0  0  0  0  0
   43.7827    3.2463   11.9783 Ca  0  0  0  0  0 15  0  0  0  0  0  0
   43.7827    3.2463   11.9783 Ca  0  0  0  0  0 15  0  0  0  0  0  0
   43.7827    3.2463   11.9783 P   0  0  0  0  0  0  0  0  0  0  0  0
   43.1851    4.1635   13.0578 O   0  0  0  0  0  0  0  0  0  0  0  0
   45.2969    3.1060   12.2058 O   0  0  0  0  0  0  0  0  0  0  0  0
   43.1217    1.8605   12.0598 O   0  0  0  0  0  0  0  0  0  0  0  0
   43.5274    3.8550   10.5897 O   0  0  0  0  0  0  0  0  0  0  0  0
   43.7827    3.2463   11.9783 P   0  0  0  0  0  0  0  0  0  0  0  0
   43.4820    4.3063   10.9059 O   0  0  0  0  0  0  0  0  0  0  0  0
   42.9884    1.9663   11.6706 O   0  0  0  0  0  0  0  0  0  0  0  0
   43.3734    3.7839   13.3594 O   0  0  0  0  0  0  0  0  0  0  0  0
   45.2871    2.9287   11.9772 O   0  0  0  0  0  0  0  0  0  0  0  0
   43.7827    3.2463   11.9783 Ca  0  0  0  0  0 15  0  0  0  0  0  0
   43.7827    3.2463   11.9783 Ca  0  0  0  0  0 15  0  0  0  0  0  0
   43.8832    3.7019   12.1244 H   0  0  0  0  0  0  0  0  0  0  0  0
  3  2  1  0
  4  2  1  0
  5  2  2  0
  6  2  1  0
 10 11  1  0
 10 12  2  0
 10 13  1  0
 10 14  1  0
 15 16  1  0
 15 17  2  0
 15 18  1  0
 15 19  1  0
  7 22  1  0
M  CHG  8   1   2   3  -1   4  -1   6  -1   7  -1   8   2   9   2  11  -1
M  CHG  7  13  -1  14  -1  16  -1  18  -1  19  -1  20   2  21   2
M  END
> <Uni-Dock RESULT> 
ENERGY=   -5.753  LOWER_BOUND=    5.864  UPPER_BOUND=    6.582
INTER + INTRA:          -5.753
INTER:                  -5.753
INTRA:                   0.000
UNBOUND:                 0.000

$$$$

     RDKit          3D

 22 13  0  0  0  0  0  0  0  0999 V2000
   43.8019    3.0762   11.3457 Ca  0  0  0  0  0 15  0  0  0  0  0  0
   43.8019    3.0762   11.3457 P   0  0  0  0  0  0  0  0  0  0  0  0
   43.0176    4.3354   11.7498 O   0  0  0  0  0  0  0  0  0  0  0  0
   42.9536    1.8278   11.6392 O   0  0  0  0  0  0  0  0  0  0  0  0
   44.1259    3.1340    9.8439 O   0  0  0  0  0  0  0  0  0  0  0  0
   45.1104    3.0073   12.1501 O   0  0  0  0  0  0  0  0  0  0  0  0
   43.4991    2.6924   11.3352 O   0  0  0  0  0  0  0  0  0  0  0  0
   43.8019    3.0762   11.3457 Ca  0  0  0  0  0 15  0  0  0  0  0  0
   43.8019    3.0762   11.3457 Ca  0  0  0  0  0 15  0  0  0  0  0  0
   43.8019    3.0762   11.3457 P   0  0  0  0  0  0  0  0  0  0  0  0
   44.9430    3.4938   12.2877 O   0  0  0  0  0  0  0  0  0  0  0  0
   44.3246    3.0198    9.9009 O   0  0  0  0  0  0  0  0  0  0  0  0
   43.2799    1.6895   11.7563 O   0  0  0  0  0  0  0  0  0  0  0  0
   42.6599    4.1015   11.4379 O   0  0  0  0  0  0  0  0  0  0  0  0
   43.8019    3.0762   11.3457 P   0  0  0  0  0  0  0  0  0  0  0  0
   43.0829    4.4072   11.6207 O   0  0  0  0  0  0  0  0  0  0  0  0
   42.9246    1.9102   11.8304 O   0  0  0  0  0  0  0  0  0  0  0  0
   45.1439    3.0540   12.0958 O   0  0  0  0  0  0  0  0  0  0  0  0
   44.0560    2.9333    9.8361 O   0  0  0  0  0  0  0  0  0  0  0  0
   43.8019    3.0762   11.3457 Ca  0  0  0  0  0 15  0  0  0  0  0  0
   43.8019    3.0762   11.3457 Ca  0  0  0  0  0 15  0  0  0  0  0  0
   44.1046    3.4599   11.3562 H   0  0  0  0  0  0  0  0  0  0  0  0
  3  2  1  0
  4  2  1  0
  5  2  2  0
  6  2  1  0
 10 11  1  0
 10 12  2  0
 10 13  1  0
 10 14  1  0
 15 16  1  0
 15 17  2  0
 15 18  1  0
 15 19  1  0
  7 22  1  0
M  CHG  8   1   2   3  -1   4  -1   6  -1   7  -1   8   2   9   2  11  -1
M  CHG  7  13  -1  14  -1  16  -1  18  -1  19  -1  20   2  21   2
M  END
> <Uni-Dock RESULT> 
ENERGY=   -5.458  LOWER_BOUND=    5.272  UPPER_BOUND=    6.083
INTER + INTRA:          -5.458
INTER:                  -5.458
INTRA:                   0.000
UNBOUND:                 0.000

$$$$
