
     RDKit          3D

 22 13  0  0  0  0  0  0  0  0999 V2000
   47.2235    2.6640    6.7119 Ca  0  0  0  0  0 15  0  0  0  0  0  0
   47.2235    2.6640    6.7119 P   0  0  0  0  0  0  0  0  0  0  0  0
   47.3582    4.1127    7.2089 O   0  0  0  0  0  0  0  0  0  0  0  0
   48.6181    2.0984    6.3966 O   0  0  0  0  0  0  0  0  0  0  0  0
   46.3599    2.6366    5.4402 O   0  0  0  0  0  0  0  0  0  0  0  0
   46.5578    1.8081    7.8020 O   0  0  0  0  0  0  0  0  0  0  0  0
   47.6378    2.4076    6.6711 O   0  0  0  0  0  0  0  0  0  0  0  0
   47.2235    2.6640    6.7119 Ca  0  0  0  0  0 15  0  0  0  0  0  0
   47.2235    2.6640    6.7119 Ca  0  0  0  0  0 15  0  0  0  0  0  0
   47.2235    2.6640    6.7119 P   0  0  0  0  0  0  0  0  0  0  0  0
   46.7976    3.9162    7.4958 O   0  0  0  0  0  0  0  0  0  0  0  0
   46.7656    1.4058    7.4678 O   0  0  0  0  0  0  0  0  0  0  0  0
   46.5768    2.6877    5.3172 O   0  0  0  0  0  0  0  0  0  0  0  0
   48.7540    2.6461    6.5669 O   0  0  0  0  0  0  0  0  0  0  0  0
   47.2235    2.6640    6.7119 P   0  0  0  0  0  0  0  0  0  0  0  0
   46.7752    4.0010    7.3245 O   0  0  0  0  0  0  0  0  0  0  0  0
   46.7891    1.5088    7.6290 O   0  0  0  0  0  0  0  0  0  0  0  0
   46.5756    2.4914    5.3283 O   0  0  0  0  0  0  0  0  0  0  0  0
   48.7540    2.6547    6.5658 O   0  0  0  0  0  0  0  0  0  0  0  0
   47.2235    2.6640    6.7119 Ca  0  0  0  0  0 15  0  0  0  0  0  0
   47.2235    2.6640    6.7119 Ca  0  0  0  0  0 15  0  0  0  0  0  0
   46.8092    2.9203    6.7527 H   0  0  0  0  0  0  0  0  0  0  0  0
  3  2  1  0
  4  2  1  0
  5  2  2  0
  6  2  1  0
 10 11  1  0
 10 12  2  0
 10 13  1  0
 10 14  1  0
 15 16  1  0
 15 17  2  0
 15 18  1  0
 15 19  1  0
  7 22  1  0
M  CHG  8   1   2   3  -1   4  -1   6  -1   7  -1   8   2   9   2  11  -1
M  CHG  7  13  -1  14  -1  16  -1  18  -1  19  -1  20   2  21   2
M  END
> <Uni-Dock RESULT> 
ENERGY=   -6.965  LOWER_BOUND=    0.000  UPPER_BOUND=    0.000
INTER + INTRA:          -6.965
INTER:                  -6.965
INTRA:                   0.000
UNBOUND:                 0.000

$$$$

     RDKit          3D

 22 13  0  0  0  0  0  0  0  0999 V2000
   47.1926    2.7469    6.7519 Ca  0  0  0  0  0 15  0  0  0  0  0  0
   47.1926    2.7469    6.7519 P   0  0  0  0  0  0  0  0  0  0  0  0
   48.5737    2.0718    6.7284 O   0  0  0  0  0  0  0  0  0  0  0  0
   46.2647    1.9828    7.7107 O   0  0  0  0  0  0  0  0  0  0  0  0
   46.5912    2.7331    5.3370 O   0  0  0  0  0  0  0  0  0  0  0  0
   47.3407    4.2001    7.2317 O   0  0  0  0  0  0  0  0  0  0  0  0
   46.8812    2.5954    7.0970 O   0  0  0  0  0  0  0  0  0  0  0  0
   47.1926    2.7469    6.7519 Ca  0  0  0  0  0 15  0  0  0  0  0  0
   47.1926    2.7469    6.7519 Ca  0  0  0  0  0 15  0  0  0  0  0  0
   47.1926    2.7469    6.7519 P   0  0  0  0  0  0  0  0  0  0  0  0
   48.7188    2.6962    6.5725 O   0  0  0  0  0  0  0  0  0  0  0  0
   46.7852    4.1295    7.2872 O   0  0  0  0  0  0  0  0  0  0  0  0
   46.5087    2.5000    5.3972 O   0  0  0  0  0  0  0  0  0  0  0  0
   46.7577    1.6621    7.7509 O   0  0  0  0  0  0  0  0  0  0  0  0
   47.1926    2.7469    6.7519 P   0  0  0  0  0  0  0  0  0  0  0  0
   48.6851    2.5811    6.4220 O   0  0  0  0  0  0  0  0  0  0  0  0
   46.9564    4.1323    7.3756 O   0  0  0  0  0  0  0  0  0  0  0  0
   46.3652    2.6175    5.4625 O   0  0  0  0  0  0  0  0  0  0  0  0
   46.7636    1.6567    7.7476 O   0  0  0  0  0  0  0  0  0  0  0  0
   47.1926    2.7469    6.7519 Ca  0  0  0  0  0 15  0  0  0  0  0  0
   47.1926    2.7469    6.7519 Ca  0  0  0  0  0 15  0  0  0  0  0  0
   47.5040    2.8985    6.4068 H   0  0  0  0  0  0  0  0  0  0  0  0
  3  2  1  0
  4  2  1  0
  5  2  2  0
  6  2  1  0
 10 11  1  0
 10 12  2  0
 10 13  1  0
 10 14  1  0
 15 16  1  0
 15 17  2  0
 15 18  1  0
 15 19  1  0
  7 22  1  0
M  CHG  8   1   2   3  -1   4  -1   6  -1   7  -1   8   2   9   2  11  -1
M  CHG  7  13  -1  14  -1  16  -1  18  -1  19  -1  20   2  21   2
M  END
> <Uni-Dock RESULT> 
ENERGY=   -6.922  LOWER_BOUND=    0.254  UPPER_BOUND=    1.698
INTER + INTRA:          -6.922
INTER:                  -6.922
INTRA:                   0.000
UNBOUND:                 0.000

$$$$

     RDKit          3D

 22 13  0  0  0  0  0  0  0  0999 V2000
   47.2207    2.7524    6.6914 Ca  0  0  0  0  0 15  0  0  0  0  0  0
   47.2207    2.7524    6.6914 P   0  0  0  0  0  0  0  0  0  0  0  0
   46.5484    1.4905    7.2566 O   0  0  0  0  0  0  0  0  0  0  0  0
   46.7356    2.9907    5.2520 O   0  0  0  0  0  0  0  0  0  0  0  0
   48.7467    2.5648    6.6935 O   0  0  0  0  0  0  0  0  0  0  0  0
   46.8521    3.9637    7.5636 O   0  0  0  0  0  0  0  0  0  0  0  0
   47.0462    2.9215    6.2672 O   0  0  0  0  0  0  0  0  0  0  0  0
   47.2207    2.7524    6.6914 Ca  0  0  0  0  0 15  0  0  0  0  0  0
   47.2207    2.7524    6.6914 Ca  0  0  0  0  0 15  0  0  0  0  0  0
   47.2207    2.7524    6.6914 P   0  0  0  0  0  0  0  0  0  0  0  0
   46.6725    1.8409    7.8017 O   0  0  0  0  0  0  0  0  0  0  0  0
   47.0527    4.2233    7.1064 O   0  0  0  0  0  0  0  0  0  0  0  0
   48.7117    2.4497    6.4692 O   0  0  0  0  0  0  0  0  0  0  0  0
   46.4459    2.4958    5.3885 O   0  0  0  0  0  0  0  0  0  0  0  0
   47.2207    2.7524    6.6914 P   0  0  0  0  0  0  0  0  0  0  0  0
   46.8112    1.7172    7.7519 O   0  0  0  0  0  0  0  0  0  0  0  0
   46.8960    4.1657    7.2026 O   0  0  0  0  0  0  0  0  0  0  0  0
   48.7300    2.6394    6.4209 O   0  0  0  0  0  0  0  0  0  0  0  0
   46.4456    2.4873    5.3903 O   0  0  0  0  0  0  0  0  0  0  0  0
   47.2207    2.7524    6.6914 Ca  0  0  0  0  0 15  0  0  0  0  0  0
   47.2207    2.7524    6.6914 Ca  0  0  0  0  0 15  0  0  0  0  0  0
   47.3952    2.5833    7.1157 H   0  0  0  0  0  0  0  0  0  0  0  0
  3  2  1  0
  4  2  1  0
  5  2  2  0
  6  2  1  0
 10 11  1  0
 10 12  2  0
 10 13  1  0
 10 14  1  0
 15 16  1  0
 15 17  2  0
 15 18  1  0
 15 19  1  0
  7 22  1  0
M  CHG  8   1   2   3  -1   4  -1   6  -1   7  -1   8   2   9   2  11  -1
M  CHG  7  13  -1  14  -1  16  -1  18  -1  19  -1  20   2  21   2
M  END
> <Uni-Dock RESULT> 
ENERGY=   -6.850  LOWER_BOUND=    0.266  UPPER_BOUND=    1.910
INTER + INTRA:          -6.850
INTER:                  -6.850
INTRA:                   0.000
UNBOUND:                 0.000

$$$$

     RDKit          3D

 22 13  0  0  0  0  0  0  0  0999 V2000
   47.2042    2.7323    6.6892 Ca  0  0  0  0  0 15  0  0  0  0  0  0
   47.2042    2.7323    6.6892 P   0  0  0  0  0  0  0  0  0  0  0  0
   48.5837    2.5580    6.0329 O   0  0  0  0  0  0  0  0  0  0  0  0
   46.1107    2.6612    5.6106 O   0  0  0  0  0  0  0  0  0  0  0  0
   47.1408    4.0972    7.3941 O   0  0  0  0  0  0  0  0  0  0  0  0
   46.9816    1.6127    7.7192 O   0  0  0  0  0  0  0  0  0  0  0  0
   46.8152    2.6406    6.4076 O   0  0  0  0  0  0  0  0  0  0  0  0
   47.2042    2.7323    6.6892 Ca  0  0  0  0  0 15  0  0  0  0  0  0
   47.2042    2.7323    6.6892 Ca  0  0  0  0  0 15  0  0  0  0  0  0
   47.2042    2.7323    6.6892 P   0  0  0  0  0  0  0  0  0  0  0  0
   48.6896    2.3379    6.6457 O   0  0  0  0  0  0  0  0  0  0  0  0
   46.4562    1.8058    7.6619 O   0  0  0  0  0  0  0  0  0  0  0  0
   47.0742    4.1883    7.1659 O   0  0  0  0  0  0  0  0  0  0  0  0
   46.5968    2.5972    5.2832 O   0  0  0  0  0  0  0  0  0  0  0  0
   47.2042    2.7323    6.6892 P   0  0  0  0  0  0  0  0  0  0  0  0
   48.7261    2.5250    6.6197 O   0  0  0  0  0  0  0  0  0  0  0  0
   46.5839    1.6704    7.6120 O   0  0  0  0  0  0  0  0  0  0  0  0
   46.9028    4.1337    7.2452 O   0  0  0  0  0  0  0  0  0  0  0  0
   46.6041    2.6002    5.2798 O   0  0  0  0  0  0  0  0  0  0  0  0
   47.2042    2.7323    6.6892 Ca  0  0  0  0  0 15  0  0  0  0  0  0
   47.2042    2.7323    6.6892 Ca  0  0  0  0  0 15  0  0  0  0  0  0
   47.5932    2.8239    6.9708 H   0  0  0  0  0  0  0  0  0  0  0  0
  3  2  1  0
  4  2  1  0
  5  2  2  0
  6  2  1  0
 10 11  1  0
 10 12  2  0
 10 13  1  0
 10 14  1  0
 15 16  1  0
 15 17  2  0
 15 18  1  0
 15 19  1  0
  7 22  1  0
M  CHG  8   1   2   3  -1   4  -1   6  -1   7  -1   8   2   9   2  11  -1
M  CHG  7  13  -1  14  -1  16  -1  18  -1  19  -1  20   2  21   2
M  END
> <Uni-Dock RESULT> 
ENERGY=   -6.765  LOWER_BOUND=    0.289  UPPER_BOUND=    1.673
INTER + INTRA:          -6.765
INTER:                  -6.765
INTRA:                   0.000
UNBOUND:                 0.000

$$$$

     RDKit          3D

 22 13  0  0  0  0  0  0  0  0999 V2000
   47.2198    2.6993    6.6980 Ca  0  0  0  0  0 15  0  0  0  0  0  0
   47.2198    2.6993    6.6980 P   0  0  0  0  0  0  0  0  0  0  0  0
   46.6319    4.1009    6.9303 O   0  0  0  0  0  0  0  0  0  0  0  0
   46.7441    2.1630    5.3378 O   0  0  0  0  0  0  0  0  0  0  0  0
   46.7479    1.7540    7.8150 O   0  0  0  0  0  0  0  0  0  0  0  0
   48.7551    2.7793    6.7089 O   0  0  0  0  0  0  0  0  0  0  0  0
   47.1671    2.5119    6.2495 O   0  0  0  0  0  0  0  0  0  0  0  0
   47.2198    2.6993    6.6980 Ca  0  0  0  0  0 15  0  0  0  0  0  0
   47.2198    2.6993    6.6980 Ca  0  0  0  0  0 15  0  0  0  0  0  0
   47.2198    2.6993    6.6980 P   0  0  0  0  0  0  0  0  0  0  0  0
   47.1847    4.1178    7.2899 O   0  0  0  0  0  0  0  0  0  0  0  0
   48.6801    2.2719    6.4774 O   0  0  0  0  0  0  0  0  0  0  0  0
   46.5408    1.7211    7.6707 O   0  0  0  0  0  0  0  0  0  0  0  0
   46.4733    2.6863    5.3539 O   0  0  0  0  0  0  0  0  0  0  0  0
   47.2198    2.6993    6.6980 P   0  0  0  0  0  0  0  0  0  0  0  0
   47.0279    4.0610    7.3857 O   0  0  0  0  0  0  0  0  0  0  0  0
   48.7174    2.4585    6.4468 O   0  0  0  0  0  0  0  0  0  0  0  0
   46.6662    1.5859    7.6024 O   0  0  0  0  0  0  0  0  0  0  0  0
   46.4675    2.6918    5.3571 O   0  0  0  0  0  0  0  0  0  0  0  0
   47.2198    2.6993    6.6980 Ca  0  0  0  0  0 15  0  0  0  0  0  0
   47.2198    2.6993    6.6980 Ca  0  0  0  0  0 15  0  0  0  0  0  0
   47.2725    2.8867    7.1465 H   0  0  0  0  0  0  0  0  0  0  0  0
  3  2  1  0
  4  2  1  0
  5  2  2  0
  6  2  1  0
 10 11  1  0
 10 12  2  0
 10 13  1  0
 10 14  1  0
 15 16  1  0
 15 17  2  0
 15 18  1  0
 15 19  1  0
  7 22  1  0
M  CHG  8   1   2   3  -1   4  -1   6  -1   7  -1   8   2   9   2  11  -1
M  CHG  7  13  -1  14  -1  16  -1  18  -1  19  -1  20   2  21   2
M  END
> <Uni-Dock RESULT> 
ENERGY=   -6.715  LOWER_BOUND=    0.228  UPPER_BOUND=    1.644
INTER + INTRA:          -6.715
INTER:                  -6.715
INTRA:                   0.000
UNBOUND:                 0.000

$$$$

     RDKit          3D

 22 13  0  0  0  0  0  0  0  0999 V2000
   43.0118    5.2582   12.1055 Ca  0  0  0  0  0 15  0  0  0  0  0  0
   43.0118    5.2582   12.1055 P   0  0  0  0  0  0  0  0  0  0  0  0
   44.0856    6.3514   11.9798 O   0  0  0  0  0  0  0  0  0  0  0  0
   41.6390    5.8430   11.7345 O   0  0  0  0  0  0  0  0  0  0  0  0
   42.9741    4.7407   13.5528 O   0  0  0  0  0  0  0  0  0  0  0  0
   43.3483    4.0976   11.1549 O   0  0  0  0  0  0  0  0  0  0  0  0
   42.5698    5.3644   11.9255 O   0  0  0  0  0  0  0  0  0  0  0  0
   43.0118    5.2582   12.1055 Ca  0  0  0  0  0 15  0  0  0  0  0  0
   43.0118    5.2582   12.1055 Ca  0  0  0  0  0 15  0  0  0  0  0  0
   43.0118    5.2582   12.1055 P   0  0  0  0  0  0  0  0  0  0  0  0
   44.4327    5.7996   11.8778 O   0  0  0  0  0  0  0  0  0  0  0  0
   42.8116    3.9792   11.2759 O   0  0  0  0  0  0  0  0  0  0  0  0
   42.8184    4.9372   13.5967 O   0  0  0  0  0  0  0  0  0  0  0  0
   41.9844    6.3166   11.6717 O   0  0  0  0  0  0  0  0  0  0  0  0
   43.0118    5.2582   12.1055 P   0  0  0  0  0  0  0  0  0  0  0  0
   44.4265    5.8585   12.0609 O   0  0  0  0  0  0  0  0  0  0  0  0
   42.9344    4.0567   11.1492 O   0  0  0  0  0  0  0  0  0  0  0  0
   42.6967    4.7947   13.5373 O   0  0  0  0  0  0  0  0  0  0  0  0
   41.9895    6.3228   11.6748 O   0  0  0  0  0  0  0  0  0  0  0  0
   43.0118    5.2582   12.1055 Ca  0  0  0  0  0 15  0  0  0  0  0  0
   43.0118    5.2582   12.1055 Ca  0  0  0  0  0 15  0  0  0  0  0  0
   43.4537    5.1520   12.2856 H   0  0  0  0  0  0  0  0  0  0  0  0
  3  2  1  0
  4  2  1  0
  5  2  2  0
  6  2  1  0
 10 11  1  0
 10 12  2  0
 10 13  1  0
 10 14  1  0
 15 16  1  0
 15 17  2  0
 15 18  1  0
 15 19  1  0
  7 22  1  0
M  CHG  8   1   2   3  -1   4  -1   6  -1   7  -1   8   2   9   2  11  -1
M  CHG  7  13  -1  14  -1  16  -1  18  -1  19  -1  20   2  21   2
M  END
> <Uni-Dock RESULT> 
ENERGY=   -5.906  LOWER_BOUND=    6.708  UPPER_BOUND=    7.575
INTER + INTRA:          -5.906
INTER:                  -5.906
INTRA:                   0.000
UNBOUND:                 0.000

$$$$

     RDKit          3D

 22 13  0  0  0  0  0  0  0  0999 V2000
   43.0343    5.2798   12.0976 Ca  0  0  0  0  0 15  0  0  0  0  0  0
   43.0343    5.2798   12.0976 P   0  0  0  0  0  0  0  0  0  0  0  0
   42.8566    3.8963   11.4506 O   0  0  0  0  0  0  0  0  0  0  0  0
   42.8739    5.1572   13.6219 O   0  0  0  0  0  0  0  0  0  0  0  0
   41.9709    6.2437   11.5463 O   0  0  0  0  0  0  0  0  0  0  0  0
   44.4356    5.8218   11.7716 O   0  0  0  0  0  0  0  0  0  0  0  0
   43.0718    5.2898   12.5850 O   0  0  0  0  0  0  0  0  0  0  0  0
   43.0343    5.2798   12.0976 Ca  0  0  0  0  0 15  0  0  0  0  0  0
   43.0343    5.2798   12.0976 Ca  0  0  0  0  0 15  0  0  0  0  0  0
   43.0343    5.2798   12.0976 P   0  0  0  0  0  0  0  0  0  0  0  0
   43.2452    4.2065   11.0170 O   0  0  0  0  0  0  0  0  0  0  0  0
   44.2877    6.1652   12.1922 O   0  0  0  0  0  0  0  0  0  0  0  0
   41.8203    6.1478   11.7277 O   0  0  0  0  0  0  0  0  0  0  0  0
   42.7838    4.5995   13.4535 O   0  0  0  0  0  0  0  0  0  0  0  0
   43.0343    5.2798   12.0976 P   0  0  0  0  0  0  0  0  0  0  0  0
   43.0567    4.2220   10.9820 O   0  0  0  0  0  0  0  0  0  0  0  0
   44.3874    6.0087   12.1401 O   0  0  0  0  0  0  0  0  0  0  0  0
   41.9137    6.2949   11.8188 O   0  0  0  0  0  0  0  0  0  0  0  0
   42.7792    4.5933   13.4496 O   0  0  0  0  0  0  0  0  0  0  0  0
   43.0343    5.2798   12.0976 Ca  0  0  0  0  0 15  0  0  0  0  0  0
   43.0343    5.2798   12.0976 Ca  0  0  0  0  0 15  0  0  0  0  0  0
   42.9967    5.2697   11.6102 H   0  0  0  0  0  0  0  0  0  0  0  0
  3  2  1  0
  4  2  1  0
  5  2  2  0
  6  2  1  0
 10 11  1  0
 10 12  2  0
 10 13  1  0
 10 14  1  0
 15 16  1  0
 15 17  2  0
 15 18  1  0
 15 19  1  0
  7 22  1  0
M  CHG  8   1   2   3  -1   4  -1   6  -1   7  -1   8   2   9   2  11  -1
M  CHG  7  13  -1  14  -1  16  -1  18  -1  19  -1  20   2  21   2
M  END
> <Uni-Dock RESULT> 
ENERGY=   -5.894  LOWER_BOUND=    6.703  UPPER_BOUND=    7.583
INTER + INTRA:          -5.894
INTER:                  -5.894
INTRA:                   0.000
UNBOUND:                 0.000

$$$$

     RDKit          3D

 22 13  0  0  0  0  0  0  0  0999 V2000
   43.0530    5.2194   12.0152 Ca  0  0  0  0  0 15  0  0  0  0  0  0
   43.0530    5.2194   12.0152 P   0  0  0  0  0  0  0  0  0  0  0  0
   44.5296    5.6469   11.9849 O   0  0  0  0  0  0  0  0  0  0  0  0
   42.6374    4.9142   13.4638 O   0  0  0  0  0  0  0  0  0  0  0  0
   42.8661    3.9606   11.1524 O   0  0  0  0  0  0  0  0  0  0  0  0
   42.1789    6.3557   11.4599 O   0  0  0  0  0  0  0  0  0  0  0  0
   42.8444    5.1856   12.4561 O   0  0  0  0  0  0  0  0  0  0  0  0
   43.0530    5.2194   12.0152 Ca  0  0  0  0  0 15  0  0  0  0  0  0
   43.0530    5.2194   12.0152 Ca  0  0  0  0  0 15  0  0  0  0  0  0
   43.0530    5.2194   12.0152 P   0  0  0  0  0  0  0  0  0  0  0  0
   44.2837    5.9492   11.4525 O   0  0  0  0  0  0  0  0  0  0  0  0
   41.7878    6.0382   11.7106 O   0  0  0  0  0  0  0  0  0  0  0  0
   42.9359    3.8328   11.3612 O   0  0  0  0  0  0  0  0  0  0  0  0
   43.2046    5.0572   13.5367 O   0  0  0  0  0  0  0  0  0  0  0  0
   43.0530    5.2194   12.0152 P   0  0  0  0  0  0  0  0  0  0  0  0
   44.3572    5.7745   11.4194 O   0  0  0  0  0  0  0  0  0  0  0  0
   41.9004    6.1941   11.7232 O   0  0  0  0  0  0  0  0  0  0  0  0
   42.7415    3.8530   11.3828 O   0  0  0  0  0  0  0  0  0  0  0  0
   43.2131    5.0558   13.5357 O   0  0  0  0  0  0  0  0  0  0  0  0
   43.0530    5.2194   12.0152 Ca  0  0  0  0  0 15  0  0  0  0  0  0
   43.0530    5.2194   12.0152 Ca  0  0  0  0  0 15  0  0  0  0  0  0
   43.2616    5.2531   11.5744 H   0  0  0  0  0  0  0  0  0  0  0  0
  3  2  1  0
  4  2  1  0
  5  2  2  0
  6  2  1  0
 10 11  1  0
 10 12  2  0
 10 13  1  0
 10 14  1  0
 15 16  1  0
 15 17  2  0
 15 18  1  0
 15 19  1  0
  7 22  1  0
M  CHG  8   1   2   3  -1   4  -1   6  -1   7  -1   8   2   9   2  11  -1
M  CHG  7  13  -1  14  -1  16  -1  18  -1  19  -1  20   2  21   2
M  END
> <Uni-Dock RESULT> 
ENERGY=   -5.820  LOWER_BOUND=    6.718  UPPER_BOUND=    7.434
INTER + INTRA:          -5.820
INTER:                  -5.820
INTRA:                   0.000
UNBOUND:                 0.000

$$$$

     RDKit          3D

 22 13  0  0  0  0  0  0  0  0999 V2000
   43.0932    5.1135   12.0242 Ca  0  0  0  0  0 15  0  0  0  0  0  0
   43.0932    5.1135   12.0242 P   0  0  0  0  0  0  0  0  0  0  0  0
   42.5852    5.0251   13.4727 O   0  0  0  0  0  0  0  0  0  0  0  0
   42.2169    6.0984   11.2329 O   0  0  0  0  0  0  0  0  0  0  0  0
   43.0212    3.7239   11.3702 O   0  0  0  0  0  0  0  0  0  0  0  0
   44.5495    5.6065   12.0211 O   0  0  0  0  0  0  0  0  0  0  0  0
   42.9031    5.4688   11.7474 O   0  0  0  0  0  0  0  0  0  0  0  0
   43.0932    5.1135   12.0242 Ca  0  0  0  0  0 15  0  0  0  0  0  0
   43.0932    5.1135   12.0242 Ca  0  0  0  0  0 15  0  0  0  0  0  0
   43.0932    5.1135   12.0242 P   0  0  0  0  0  0  0  0  0  0  0  0
   43.2237    4.8719   13.5370 O   0  0  0  0  0  0  0  0  0  0  0  0
   44.4136    5.6834   11.4804 O   0  0  0  0  0  0  0  0  0  0  0  0
   42.7794    3.7842   11.3181 O   0  0  0  0  0  0  0  0  0  0  0  0
   41.9561    6.1144   11.7613 O   0  0  0  0  0  0  0  0  0  0  0  0
   43.0932    5.1135   12.0242 P   0  0  0  0  0  0  0  0  0  0  0  0
   43.1068    4.7214   13.5108 O   0  0  0  0  0  0  0  0  0  0  0  0
   44.4357    5.7649   11.6537 O   0  0  0  0  0  0  0  0  0  0  0  0
   42.8787    3.8568   11.1647 O   0  0  0  0  0  0  0  0  0  0  0  0
   41.9515    6.1108   11.7677 O   0  0  0  0  0  0  0  0  0  0  0  0
   43.0932    5.1135   12.0242 Ca  0  0  0  0  0 15  0  0  0  0  0  0
   43.0932    5.1135   12.0242 Ca  0  0  0  0  0 15  0  0  0  0  0  0
   43.2833    4.7582   12.3011 H   0  0  0  0  0  0  0  0  0  0  0  0
  3  2  1  0
  4  2  1  0
  5  2  2  0
  6  2  1  0
 10 11  1  0
 10 12  2  0
 10 13  1  0
 10 14  1  0
 15 16  1  0
 15 17  2  0
 15 18  1  0
 15 19  1  0
  7 22  1  0
M  CHG  8   1   2   3  -1   4  -1   6  -1   7  -1   8   2   9   2  11  -1
M  CHG  7  13  -1  14  -1  16  -1  18  -1  19  -1  20   2  21   2
M  END
> <Uni-Dock RESULT> 
ENERGY=   -5.647  LOWER_BOUND=    6.679  UPPER_BOUND=    7.396
INTER + INTRA:          -5.647
INTER:                  -5.647
INTRA:                   0.000
UNBOUND:                 0.000

$$$$
