
     RDKit          3D

 22 13  0  0  0  0  0  0  0  0999 V2000
   47.1952    2.7109    6.7299 Ca  0  0  0  0  0 15  0  0  0  0  0  0
   47.1952    2.7109    6.7299 P   0  0  0  0  0  0  0  0  0  0  0  0
   48.6949    3.0077    6.5671 O   0  0  0  0  0  0  0  0  0  0  0  0
   47.0141    1.4069    7.5241 O   0  0  0  0  0  0  0  0  0  0  0  0
   46.5490    2.5601    5.3429 O   0  0  0  0  0  0  0  0  0  0  0  0
   46.5227    3.8688    7.4854 O   0  0  0  0  0  0  0  0  0  0  0  0
   47.1022    3.1908    6.7361 O   0  0  0  0  0  0  0  0  0  0  0  0
   47.1952    2.7109    6.7299 Ca  0  0  0  0  0 15  0  0  0  0  0  0
   47.1952    2.7109    6.7299 Ca  0  0  0  0  0 15  0  0  0  0  0  0
   47.1952    2.7109    6.7299 P   0  0  0  0  0  0  0  0  0  0  0  0
   46.5745    1.8969    7.8771 O   0  0  0  0  0  0  0  0  0  0  0  0
   47.2025    4.2019    7.1049 O   0  0  0  0  0  0  0  0  0  0  0  0
   48.6373    2.2364    6.4867 O   0  0  0  0  0  0  0  0  0  0  0  0
   46.3664    2.5082    5.4508 O   0  0  0  0  0  0  0  0  0  0  0  0
   47.1952    2.7109    6.7299 P   0  0  0  0  0  0  0  0  0  0  0  0
   46.3984    1.6860    7.5538 O   0  0  0  0  0  0  0  0  0  0  0  0
   46.6119    2.7914    5.3096 O   0  0  0  0  0  0  0  0  0  0  0  0
   48.6677    2.2748    6.6552 O   0  0  0  0  0  0  0  0  0  0  0  0
   47.1028    4.0911    7.4009 O   0  0  0  0  0  0  0  0  0  0  0  0
   47.1952    2.7109    6.7299 Ca  0  0  0  0  0 15  0  0  0  0  0  0
   47.1952    2.7109    6.7299 Ca  0  0  0  0  0 15  0  0  0  0  0  0
   47.2882    2.2309    6.7236 H   0  0  0  0  0  0  0  0  0  0  0  0
  3  2  1  0
  4  2  1  0
  5  2  2  0
  6  2  1  0
 10 11  1  0
 10 12  2  0
 10 13  1  0
 10 14  1  0
 15 16  1  0
 15 17  2  0
 15 18  1  0
 15 19  1  0
  7 22  1  0
M  CHG  8   1   2   3  -1   4  -1   6  -1   7  -1   8   2   9   2  11  -1
M  CHG  7  13  -1  14  -1  16  -1  18  -1  19  -1  20   2  21   2
M  END
> <Uni-Dock RESULT> 
ENERGY=   -6.761  LOWER_BOUND=    0.000  UPPER_BOUND=    0.000
INTER + INTRA:          -6.761
INTER:                  -6.761
INTRA:                   0.000
UNBOUND:                 0.000

$$$$

     RDKit          3D

 22 13  0  0  0  0  0  0  0  0999 V2000
   47.2180    2.6834    6.6615 Ca  0  0  0  0  0 15  0  0  0  0  0  0
   47.2180    2.6834    6.6615 P   0  0  0  0  0  0  0  0  0  0  0  0
   47.4934    4.0240    7.3622 O   0  0  0  0  0  0  0  0  0  0  0  0
   46.1920    2.8946    5.5361 O   0  0  0  0  0  0  0  0  0  0  0  0
   46.6603    1.6771    7.6813 O   0  0  0  0  0  0  0  0  0  0  0  0
   48.5266    2.1381    6.0663 O   0  0  0  0  0  0  0  0  0  0  0  0
   47.6772    2.5427    6.7531 O   0  0  0  0  0  0  0  0  0  0  0  0
   47.2180    2.6834    6.6615 Ca  0  0  0  0  0 15  0  0  0  0  0  0
   47.2180    2.6834    6.6615 Ca  0  0  0  0  0 15  0  0  0  0  0  0
   47.2180    2.6834    6.6615 P   0  0  0  0  0  0  0  0  0  0  0  0
   46.7513    2.5267    5.2049 O   0  0  0  0  0  0  0  0  0  0  0  0
   48.7538    2.6324    6.7158 O   0  0  0  0  0  0  0  0  0  0  0  0
   46.7302    4.0330    7.2135 O   0  0  0  0  0  0  0  0  0  0  0  0
   46.6369    1.5417    7.5116 O   0  0  0  0  0  0  0  0  0  0  0  0
   47.2180    2.6834    6.6615 P   0  0  0  0  0  0  0  0  0  0  0  0
   46.4524    2.2879    5.3882 O   0  0  0  0  0  0  0  0  0  0  0  0
   46.8739    1.7006    7.7926 O   0  0  0  0  0  0  0  0  0  0  0  0
   46.8160    4.1073    7.0797 O   0  0  0  0  0  0  0  0  0  0  0  0
   48.7299    2.6381    6.3854 O   0  0  0  0  0  0  0  0  0  0  0  0
   47.2180    2.6834    6.6615 Ca  0  0  0  0  0 15  0  0  0  0  0  0
   47.2180    2.6834    6.6615 Ca  0  0  0  0  0 15  0  0  0  0  0  0
   46.7589    2.8242    6.5698 H   0  0  0  0  0  0  0  0  0  0  0  0
  3  2  1  0
  4  2  1  0
  5  2  2  0
  6  2  1  0
 10 11  1  0
 10 12  2  0
 10 13  1  0
 10 14  1  0
 15 16  1  0
 15 17  2  0
 15 18  1  0
 15 19  1  0
  7 22  1  0
M  CHG  8   1   2   3  -1   4  -1   6  -1   7  -1   8   2   9   2  11  -1
M  CHG  7  13  -1  14  -1  16  -1  18  -1  19  -1  20   2  21   2
M  END
> <Uni-Dock RESULT> 
ENERGY=   -6.435  LOWER_BOUND=    0.336  UPPER_BOUND=    1.909
INTER + INTRA:          -6.435
INTER:                  -6.435
INTRA:                   0.000
UNBOUND:                 0.000

$$$$

     RDKit          3D

 22 13  0  0  0  0  0  0  0  0999 V2000
   43.0299    5.3098   12.0151 Ca  0  0  0  0  0 15  0  0  0  0  0  0
   43.0299    5.3098   12.0151 P   0  0  0  0  0  0  0  0  0  0  0  0
   42.7545    4.4980   13.2915 O   0  0  0  0  0  0  0  0  0  0  0  0
   44.3151    6.1333   12.1988 O   0  0  0  0  0  0  0  0  0  0  0  0
   41.8488    6.2564   11.7450 O   0  0  0  0  0  0  0  0  0  0  0  0
   43.2010    4.3513   10.8252 O   0  0  0  0  0  0  0  0  0  0  0  0
   42.8251    4.9557   11.7473 O   0  0  0  0  0  0  0  0  0  0  0  0
   43.0299    5.3098   12.0151 Ca  0  0  0  0  0 15  0  0  0  0  0  0
   43.0299    5.3098   12.0151 Ca  0  0  0  0  0 15  0  0  0  0  0  0
   43.0299    5.3098   12.0151 P   0  0  0  0  0  0  0  0  0  0  0  0
   44.4173    5.7801   11.5486 O   0  0  0  0  0  0  0  0  0  0  0  0
   42.7135    3.9433   11.3854 O   0  0  0  0  0  0  0  0  0  0  0  0
   43.0203    5.1826   13.5474 O   0  0  0  0  0  0  0  0  0  0  0  0
   41.9684    6.3331   11.5792 O   0  0  0  0  0  0  0  0  0  0  0  0
   43.0299    5.3098   12.0151 P   0  0  0  0  0  0  0  0  0  0  0  0
   44.2190    6.1547   11.5293 O   0  0  0  0  0  0  0  0  0  0  0  0
   41.7175    6.0546   11.7203 O   0  0  0  0  0  0  0  0  0  0  0  0
   43.1549    5.0715   13.5289 O   0  0  0  0  0  0  0  0  0  0  0  0
   43.0280    3.9583   11.2821 O   0  0  0  0  0  0  0  0  0  0  0  0
   43.0299    5.3098   12.0151 Ca  0  0  0  0  0 15  0  0  0  0  0  0
   43.0299    5.3098   12.0151 Ca  0  0  0  0  0 15  0  0  0  0  0  0
   43.2347    5.6638   12.2830 H   0  0  0  0  0  0  0  0  0  0  0  0
  3  2  1  0
  4  2  1  0
  5  2  2  0
  6  2  1  0
 10 11  1  0
 10 12  2  0
 10 13  1  0
 10 14  1  0
 15 16  1  0
 15 17  2  0
 15 18  1  0
 15 19  1  0
  7 22  1  0
M  CHG  8   1   2   3  -1   4  -1   6  -1   7  -1   8   2   9   2  11  -1
M  CHG  7  13  -1  14  -1  16  -1  18  -1  19  -1  20   2  21   2
M  END
> <Uni-Dock RESULT> 
ENERGY=   -5.762  LOWER_BOUND=    6.557  UPPER_BOUND=    7.442
INTER + INTRA:          -5.762
INTER:                  -5.762
INTRA:                   0.000
UNBOUND:                 0.000

$$$$

     RDKit          3D

 22 13  0  0  0  0  0  0  0  0999 V2000
   43.0310    5.2879   12.0336 Ca  0  0  0  0  0 15  0  0  0  0  0  0
   43.0310    5.2879   12.0336 P   0  0  0  0  0  0  0  0  0  0  0  0
   44.3265    6.1089   12.1402 O   0  0  0  0  0  0  0  0  0  0  0  0
   43.2092    4.1838   10.9785 O   0  0  0  0  0  0  0  0  0  0  0  0
   41.8724    6.2100   11.6197 O   0  0  0  0  0  0  0  0  0  0  0  0
   42.7157    4.6487   13.3960 O   0  0  0  0  0  0  0  0  0  0  0  0
   42.9430    5.3675   12.5079 O   0  0  0  0  0  0  0  0  0  0  0  0
   43.0310    5.2879   12.0336 Ca  0  0  0  0  0 15  0  0  0  0  0  0
   43.0310    5.2879   12.0336 Ca  0  0  0  0  0 15  0  0  0  0  0  0
   43.0310    5.2879   12.0336 P   0  0  0  0  0  0  0  0  0  0  0  0
   42.9484    3.8219   11.5775 O   0  0  0  0  0  0  0  0  0  0  0  0
   43.1741    5.3414   13.5635 O   0  0  0  0  0  0  0  0  0  0  0  0
   44.2503    5.9597   11.3809 O   0  0  0  0  0  0  0  0  0  0  0  0
   41.7512    6.0286   11.6124 O   0  0  0  0  0  0  0  0  0  0  0  0
   43.0310    5.2879   12.0336 P   0  0  0  0  0  0  0  0  0  0  0  0
   42.6572    3.9818   11.3136 O   0  0  0  0  0  0  0  0  0  0  0  0
   41.9131    6.3236   11.8295 O   0  0  0  0  0  0  0  0  0  0  0  0
   44.3469    5.8334   11.4552 O   0  0  0  0  0  0  0  0  0  0  0  0
   43.2067    5.0127   13.5360 O   0  0  0  0  0  0  0  0  0  0  0  0
   43.0310    5.2879   12.0336 Ca  0  0  0  0  0 15  0  0  0  0  0  0
   43.0310    5.2879   12.0336 Ca  0  0  0  0  0 15  0  0  0  0  0  0
   43.1190    5.2082   11.5593 H   0  0  0  0  0  0  0  0  0  0  0  0
  3  2  1  0
  4  2  1  0
  5  2  2  0
  6  2  1  0
 10 11  1  0
 10 12  2  0
 10 13  1  0
 10 14  1  0
 15 16  1  0
 15 17  2  0
 15 18  1  0
 15 19  1  0
  7 22  1  0
M  CHG  8   1   2   3  -1   4  -1   6  -1   7  -1   8   2   9   2  11  -1
M  CHG  7  13  -1  14  -1  16  -1  18  -1  19  -1  20   2  21   2
M  END
> <Uni-Dock RESULT> 
ENERGY=   -5.685  LOWER_BOUND=    6.584  UPPER_BOUND=    7.328
INTER + INTRA:          -5.685
INTER:                  -5.685
INTRA:                   0.000
UNBOUND:                 0.000

$$$$

     RDKit          3D

 22 13  0  0  0  0  0  0  0  0999 V2000
   43.1157    5.1810   11.9981 Ca  0  0  0  0  0 15  0  0  0  0  0  0
   43.1157    5.1810   11.9981 P   0  0  0  0  0  0  0  0  0  0  0  0
   44.3121    5.9214   11.3784 O   0  0  0  0  0  0  0  0  0  0  0  0
   43.3735    4.9543   13.4967 O   0  0  0  0  0  0  0  0  0  0  0  0
   42.9344    3.8240   11.2983 O   0  0  0  0  0  0  0  0  0  0  0  0
   41.8425    6.0242   11.8188 O   0  0  0  0  0  0  0  0  0  0  0  0
   42.8165    5.4006   11.6797 O   0  0  0  0  0  0  0  0  0  0  0  0
   43.1157    5.1810   11.9981 Ca  0  0  0  0  0 15  0  0  0  0  0  0
   43.1157    5.1810   11.9981 Ca  0  0  0  0  0 15  0  0  0  0  0  0
   43.1157    5.1810   11.9981 P   0  0  0  0  0  0  0  0  0  0  0  0
   42.6936    5.2627   13.4742 O   0  0  0  0  0  0  0  0  0  0  0  0
   42.3631    6.2508   11.1899 O   0  0  0  0  0  0  0  0  0  0  0  0
   44.6297    5.4231   11.8838 O   0  0  0  0  0  0  0  0  0  0  0  0
   42.7762    3.7874   11.4443 O   0  0  0  0  0  0  0  0  0  0  0  0
   43.1157    5.1810   11.9981 P   0  0  0  0  0  0  0  0  0  0  0  0
   42.7089    4.8400   13.4411 O   0  0  0  0  0  0  0  0  0  0  0  0
   42.8912    3.9542   11.0988 O   0  0  0  0  0  0  0  0  0  0  0  0
   44.6010    5.5764   11.9641 O   0  0  0  0  0  0  0  0  0  0  0  0
   42.2615    6.3533   11.4882 O   0  0  0  0  0  0  0  0  0  0  0  0
   43.1157    5.1810   11.9981 Ca  0  0  0  0  0 15  0  0  0  0  0  0
   43.1157    5.1810   11.9981 Ca  0  0  0  0  0 15  0  0  0  0  0  0
   43.4148    4.9614   12.3164 H   0  0  0  0  0  0  0  0  0  0  0  0
  3  2  1  0
  4  2  1  0
  5  2  2  0
  6  2  1  0
 10 11  1  0
 10 12  2  0
 10 13  1  0
 10 14  1  0
 15 16  1  0
 15 17  2  0
 15 18  1  0
 15 19  1  0
  7 22  1  0
M  CHG  8   1   2   3  -1   4  -1   6  -1   7  -1   8   2   9   2  11  -1
M  CHG  7  13  -1  14  -1  16  -1  18  -1  19  -1  20   2  21   2
M  END
> <Uni-Dock RESULT> 
ENERGY=   -5.667  LOWER_BOUND=    6.614  UPPER_BOUND=    7.155
INTER + INTRA:          -5.667
INTER:                  -5.667
INTRA:                   0.000
UNBOUND:                 0.000

$$$$

     RDKit          3D

 22 13  0  0  0  0  0  0  0  0999 V2000
   43.0376    5.2859   12.0213 Ca  0  0  0  0  0 15  0  0  0  0  0  0
   43.0376    5.2859   12.0213 P   0  0  0  0  0  0  0  0  0  0  0  0
   43.2631    4.2622   10.8965 O   0  0  0  0  0  0  0  0  0  0  0  0
   42.7849    4.5456   13.3449 O   0  0  0  0  0  0  0  0  0  0  0  0
   41.8189    6.1599   11.6822 O   0  0  0  0  0  0  0  0  0  0  0  0
   44.2835    6.1759   12.1616 O   0  0  0  0  0  0  0  0  0  0  0  0
   43.3405    5.5972   11.7969 O   0  0  0  0  0  0  0  0  0  0  0  0
   43.0376    5.2859   12.0213 Ca  0  0  0  0  0 15  0  0  0  0  0  0
   43.0376    5.2859   12.0213 Ca  0  0  0  0  0 15  0  0  0  0  0  0
   43.0376    5.2859   12.0213 P   0  0  0  0  0  0  0  0  0  0  0  0
   43.3210    5.0382   13.5120 O   0  0  0  0  0  0  0  0  0  0  0  0
   44.2801    5.9037   11.3592 O   0  0  0  0  0  0  0  0  0  0  0  0
   42.7009    3.9518   11.3350 O   0  0  0  0  0  0  0  0  0  0  0  0
   41.8483    6.2499   11.8790 O   0  0  0  0  0  0  0  0  0  0  0  0
   43.0376    5.2859   12.0213 P   0  0  0  0  0  0  0  0  0  0  0  0
   42.9215    5.1756   13.5505 O   0  0  0  0  0  0  0  0  0  0  0  0
   41.9487    6.2334   11.4916 O   0  0  0  0  0  0  0  0  0  0  0  0
   42.8568    3.8947   11.3920 O   0  0  0  0  0  0  0  0  0  0  0  0
   44.4233    5.8397   11.6511 O   0  0  0  0  0  0  0  0  0  0  0  0
   43.0376    5.2859   12.0213 Ca  0  0  0  0  0 15  0  0  0  0  0  0
   43.0376    5.2859   12.0213 Ca  0  0  0  0  0 15  0  0  0  0  0  0
   42.7347    4.9745   12.2457 H   0  0  0  0  0  0  0  0  0  0  0  0
  3  2  1  0
  4  2  1  0
  5  2  2  0
  6  2  1  0
 10 11  1  0
 10 12  2  0
 10 13  1  0
 10 14  1  0
 15 16  1  0
 15 17  2  0
 15 18  1  0
 15 19  1  0
  7 22  1  0
M  CHG  8   1   2   3  -1   4  -1   6  -1   7  -1   8   2   9   2  11  -1
M  CHG  7  13  -1  14  -1  16  -1  18  -1  19  -1  20   2  21   2
M  END
> <Uni-Dock RESULT> 
ENERGY=   -5.577  LOWER_BOUND=    6.544  UPPER_BOUND=    7.298
INTER + INTRA:          -5.577
INTER:                  -5.577
INTRA:                   0.000
UNBOUND:                 0.000

$$$$

     RDKit          3D

 22 13  0  0  0  0  0  0  0  0999 V2000
   43.8148    3.2594   11.9219 Ca  0  0  0  0  0 15  0  0  0  0  0  0
   43.8148    3.2594   11.9219 P   0  0  0  0  0  0  0  0  0  0  0  0
   43.6893    3.8045   13.3540 O   0  0  0  0  0  0  0  0  0  0  0  0
   43.2694    4.2983   10.9284 O   0  0  0  0  0  0  0  0  0  0  0  0
   43.0071    1.9571   11.7966 O   0  0  0  0  0  0  0  0  0  0  0  0
   45.2935    2.9776   11.6087 O   0  0  0  0  0  0  0  0  0  0  0  0
   44.2169    3.0136   12.0521 O   0  0  0  0  0  0  0  0  0  0  0  0
   43.8148    3.2594   11.9219 Ca  0  0  0  0  0 15  0  0  0  0  0  0
   43.8148    3.2594   11.9219 Ca  0  0  0  0  0 15  0  0  0  0  0  0
   43.8148    3.2594   11.9219 P   0  0  0  0  0  0  0  0  0  0  0  0
   43.9420    4.1220   10.6556 O   0  0  0  0  0  0  0  0  0  0  0  0
   45.2170    2.9147   12.4502 O   0  0  0  0  0  0  0  0  0  0  0  0
   43.0393    4.0385   12.9970 O   0  0  0  0  0  0  0  0  0  0  0  0
   43.0609    1.9625   11.5850 O   0  0  0  0  0  0  0  0  0  0  0  0
   43.8148    3.2594   11.9219 P   0  0  0  0  0  0  0  0  0  0  0  0
   43.6185    3.8788   10.5285 O   0  0  0  0  0  0  0  0  0  0  0  0
   43.1607    1.8685   11.9613 O   0  0  0  0  0  0  0  0  0  0  0  0
   43.1620    4.1629   12.9810 O   0  0  0  0  0  0  0  0  0  0  0  0
   45.3180    3.1274   12.2171 O   0  0  0  0  0  0  0  0  0  0  0  0
   43.8148    3.2594   11.9219 Ca  0  0  0  0  0 15  0  0  0  0  0  0
   43.8148    3.2594   11.9219 Ca  0  0  0  0  0 15  0  0  0  0  0  0
   43.4127    3.5052   11.7918 H   0  0  0  0  0  0  0  0  0  0  0  0
  3  2  1  0
  4  2  1  0
  5  2  2  0
  6  2  1  0
 10 11  1  0
 10 12  2  0
 10 13  1  0
 10 14  1  0
 15 16  1  0
 15 17  2  0
 15 18  1  0
 15 19  1  0
  7 22  1  0
M  CHG  8   1   2   3  -1   4  -1   6  -1   7  -1   8   2   9   2  11  -1
M  CHG  7  13  -1  14  -1  16  -1  18  -1  19  -1  20   2  21   2
M  END
> <Uni-Dock RESULT> 
ENERGY=   -5.511  LOWER_BOUND=    5.672  UPPER_BOUND=    6.491
INTER + INTRA:          -5.511
INTER:                  -5.511
INTRA:                   0.000
UNBOUND:                 0.000

$$$$

     RDKit          3D

 22 13  0  0  0  0  0  0  0  0999 V2000
   43.0994    5.4031   11.8717 Ca  0  0  0  0  0 15  0  0  0  0  0  0
   43.0994    5.4031   11.8717 P   0  0  0  0  0  0  0  0  0  0  0  0
   42.5129    4.0497   11.4379 O   0  0  0  0  0  0  0  0  0  0  0  0
   44.3182    5.7378   10.9963 O   0  0  0  0  0  0  0  0  0  0  0  0
   43.5324    5.3255   13.3450 O   0  0  0  0  0  0  0  0  0  0  0  0
   42.0340    6.4995   11.7077 O   0  0  0  0  0  0  0  0  0  0  0  0
   42.6520    5.5554   11.9970 O   0  0  0  0  0  0  0  0  0  0  0  0
   43.0994    5.4031   11.8717 Ca  0  0  0  0  0 15  0  0  0  0  0  0
   43.0994    5.4031   11.8717 Ca  0  0  0  0  0 15  0  0  0  0  0  0
   43.0994    5.4031   11.8717 P   0  0  0  0  0  0  0  0  0  0  0  0
   43.8964    6.3533   10.9630 O   0  0  0  0  0  0  0  0  0  0  0  0
   41.6085    5.7755   11.8206 O   0  0  0  0  0  0  0  0  0  0  0  0
   43.2831    3.9557   11.3865 O   0  0  0  0  0  0  0  0  0  0  0  0
   43.6095    5.5278   13.3168 O   0  0  0  0  0  0  0  0  0  0  0  0
   43.0994    5.4031   11.8717 P   0  0  0  0  0  0  0  0  0  0  0  0
   44.1734    6.3330   11.2837 O   0  0  0  0  0  0  0  0  0  0  0  0
   43.2980    5.2876   13.3920 O   0  0  0  0  0  0  0  0  0  0  0  0
   43.2211    4.0105   11.2317 O   0  0  0  0  0  0  0  0  0  0  0  0
   41.7050    5.9813   11.5795 O   0  0  0  0  0  0  0  0  0  0  0  0
   43.0994    5.4031   11.8717 Ca  0  0  0  0  0 15  0  0  0  0  0  0
   43.0994    5.4031   11.8717 Ca  0  0  0  0  0 15  0  0  0  0  0  0
   43.5467    5.2509   11.7464 H   0  0  0  0  0  0  0  0  0  0  0  0
  3  2  1  0
  4  2  1  0
  5  2  2  0
  6  2  1  0
 10 11  1  0
 10 12  2  0
 10 13  1  0
 10 14  1  0
 15 16  1  0
 15 17  2  0
 15 18  1  0
 15 19  1  0
  7 22  1  0
M  CHG  8   1   2   3  -1   4  -1   6  -1   7  -1   8   2   9   2  11  -1
M  CHG  7  13  -1  14  -1  16  -1  18  -1  19  -1  20   2  21   2
M  END
> <Uni-Dock RESULT> 
ENERGY=   -5.326  LOWER_BOUND=    6.484  UPPER_BOUND=    7.359
INTER + INTRA:          -5.326
INTER:                  -5.326
INTRA:                   0.000
UNBOUND:                 0.000

$$$$
