
     RDKit          3D

 75 80  0  0  0  0  0  0  0  0999 V2000
   46.3070   12.2100   10.5646 C   0  0  0  0  0  0  0  0  0  0  0  0
   45.1836   13.0364   10.6928 C   0  0  0  0  0  0  0  0  0  0  0  0
   43.9663   12.4356   11.0647 C   0  0  0  0  0  0  0  0  0  0  0  0
   43.8302   11.0521   11.2857 C   0  0  0  0  0  0  0  0  0  0  0  0
   45.0035   10.2738   11.1875 C   0  0  0  0  0  0  0  0  0  0  0  0
   46.2276   10.8404   10.8139 C   0  0  0  0  0  0  0  0  0  0  0  0
   45.3297   14.4143   10.4730 N   0  0  0  0  0  0  0  0  0  0  0  0
   46.1623   15.0619   11.5204 C   0  0  0  0  0  0  0  0  0  0  0  0
   45.9860   16.5979   11.5021 C   0  0  0  0  0  0  0  0  0  0  0  0
   44.5979   17.0338   11.7766 N   0  0  0  0  0  0  0  0  0  0  0  0
   43.6136   16.0895   11.1990 C   0  0  0  0  0  0  0  0  0  0  0  0
   44.1549   15.2101   10.0493 C   0  0  0  0  0  0  0  0  0  0  0  0
   42.6319   10.4706   11.7421 N   0  0  0  0  0  0  0  0  0  0  0  0
   41.3363   11.1300   11.5421 C   0  0  0  0  0  0  0  0  0  0  0  0
   40.9735   11.9707   12.7767 C   0  0  0  0  0  0  0  0  0  0  0  0
   39.4648   12.1048   12.9478 C   0  0  0  0  0  0  0  0  0  0  0  0
   38.8261   12.0463   11.6793 O   0  0  0  0  0  0  0  0  0  0  0  0
   38.9024   10.7447   11.0936 C   0  0  0  0  0  0  0  0  0  0  0  0
   40.2530   10.0729   11.3182 C   0  0  0  0  0  0  0  0  0  0  0  0
   44.9576    8.8144   11.4675 C   0  0  0  0  0  0  0  0  0  0  0  0
   45.8781    8.4024   12.3970 N   0  0  0  0  0  0  0  0  0  0  0  0
   44.0872    8.1454   10.9225 O   0  0  0  0  0  0  0  0  0  0  0  0
   46.0515    7.1291   12.8893 C   0  0  0  0  0  0  0  0  0  0  0  0
   46.7417    7.0233   14.0323 N   0  0  0  0  0  0  0  0  0  0  0  0
   46.7132    5.7125   14.3099 N   0  0  0  0  0  0  0  0  0  0  0  0
   46.0875    4.9488   13.3660 C   0  0  0  0  0  0  0  0  0  0  0  0
   45.6515    5.8501   12.3973 C   0  0  0  0  0  0  0  0  0  0  0  0
   45.0107    5.3236   11.2550 C   0  0  0  0  0  0  0  0  0  0  0  0
   44.7890    3.9373   11.1382 C   0  0  0  0  0  0  0  0  0  0  0  0
   45.2228    3.0806   12.1571 C   0  0  0  0  0  0  0  0  0  0  0  0
   45.8836    3.5683   13.2882 C   0  0  0  0  0  0  0  0  0  0  0  0
   44.1223    3.3857    9.8983 C   0  0  0  0  0  0  0  0  0  0  0  0
   45.1027    3.0098    8.8124 C   0  0  0  0  0  0  0  0  0  0  0  0
   45.5130    3.9554    7.8623 C   0  0  0  0  0  0  0  0  0  0  0  0
   46.4450    3.6093    6.8846 C   0  0  0  0  0  0  0  0  0  0  0  0
   46.9831    2.3320    6.8261 C   0  0  0  0  0  0  0  0  0  0  0  0
   46.5784    1.3973    7.7669 C   0  0  0  0  0  0  0  0  0  0  0  0
   45.6500    1.7198    8.7554 C   0  0  0  0  0  0  0  0  0  0  0  0
   47.0959    0.1627    7.7311 F   0  0  0  0  0  0  0  0  0  0  0  0
   46.8360    4.5301    5.9915 F   0  0  0  0  0  0  0  0  0  0  0  0
   44.3843   18.3982   11.3033 C   0  0  0  0  0  0  0  0  0  0  0  0
   47.2562   12.6361   10.2518 H   0  0  0  0  0  0  0  0  0  0  0  0
   43.1071   13.0763   11.2153 H   0  0  0  0  0  0  0  0  0  0  0  0
   47.1152   10.2254   10.6937 H   0  0  0  0  0  0  0  0  0  0  0  0
   45.8862   14.6870   12.5153 H   0  0  0  0  0  0  0  0  0  0  0  0
   47.2199   14.8276   11.3506 H   0  0  0  0  0  0  0  0  0  0  0  0
   46.3190   16.9672   10.5234 H   0  0  0  0  0  0  0  0  0  0  0  0
   46.6471   17.0415   12.2542 H   0  0  0  0  0  0  0  0  0  0  0  0
   43.2865   15.4332   12.0149 H   0  0  0  0  0  0  0  0  0  0  0  0
   42.7106   16.6126   10.8622 H   0  0  0  0  0  0  0  0  0  0  0  0
   44.4766   15.8610    9.2258 H   0  0  0  0  0  0  0  0  0  0  0  0
   43.3547   14.5912    9.6275 H   0  0  0  0  0  0  0  0  0  0  0  0
   42.6194    9.4759   11.4802 H   0  0  0  0  0  0  0  0  0  0  0  0
   41.3579   11.7639   10.6448 H   0  0  0  0  0  0  0  0  0  0  0  0
   41.4077   12.9714   12.6683 H   0  0  0  0  0  0  0  0  0  0  0  0
   41.4015   11.5541   13.6966 H   0  0  0  0  0  0  0  0  0  0  0  0
   39.2272   13.0674   13.4157 H   0  0  0  0  0  0  0  0  0  0  0  0
   39.0629   11.3208   13.5980 H   0  0  0  0  0  0  0  0  0  0  0  0
   38.7237   10.8710   10.0209 H   0  0  0  0  0  0  0  0  0  0  0  0
   38.0893   10.1230   11.4879 H   0  0  0  0  0  0  0  0  0  0  0  0
   40.4924    9.4148   10.4741 H   0  0  0  0  0  0  0  0  0  0  0  0
   40.1891    9.4213   12.1990 H   0  0  0  0  0  0  0  0  0  0  0  0
   46.3630    9.0966   12.9516 H   0  0  0  0  0  0  0  0  0  0  0  0
   47.1591    5.3937   15.1617 H   0  0  0  0  0  0  0  0  0  0  0  0
   44.6976    5.9856   10.4544 H   0  0  0  0  0  0  0  0  0  0  0  0
   45.0616    2.0083   12.0720 H   0  0  0  0  0  0  0  0  0  0  0  0
   46.2296    2.8936   14.0653 H   0  0  0  0  0  0  0  0  0  0  0  0
   43.5149    2.5116   10.1667 H   0  0  0  0  0  0  0  0  0  0  0  0
   43.4004    4.1155    9.5076 H   0  0  0  0  0  0  0  0  0  0  0  0
   45.1255    4.9707    7.8808 H   0  0  0  0  0  0  0  0  0  0  0  0
   47.7141    2.0748    6.0685 H   0  0  0  0  0  0  0  0  0  0  0  0
   45.3742    0.9614    9.4803 H   0  0  0  0  0  0  0  0  0  0  0  0
   43.3920   18.7549   11.6008 H   0  0  0  0  0  0  0  0  0  0  0  0
   45.1106   19.0826   11.7564 H   0  0  0  0  0  0  0  0  0  0  0  0
   44.4665   18.4747   10.2135 H   0  0  0  0  0  0  0  0  0  0  0  0
  1  2  2  0
  1  6  1  0
  2  3  1  0
  3  4  2  0
  4  5  1  0
  5  6  2  0
  2  7  1  0
  7  8  1  0
 12  7  1  0
  8  9  1  0
  9 10  1  0
 10 11  1  0
 11 12  1  0
  4 13  1  0
 13 14  1  0
 14 15  1  0
 19 14  1  0
 15 16  1  0
 16 17  1  0
 17 18  1  0
 18 19  1  0
  5 20  1  0
 20 21  1  0
 20 22  2  0
 21 23  1  0
 23 24  2  0
 23 27  1  0
 24 25  1  0
 25 26  1  0
 31 26  2  0
 26 27  1  0
 27 28  2  0
 28 29  1  0
 29 30  2  0
 30 31  1  0
 29 32  1  0
 32 33  1  0
 33 34  2  0
 33 38  1  0
 34 35  1  0
 35 36  2  0
 36 37  1  0
 37 38  2  0
 37 39  1  0
 35 40  1  0
 10 41  1  0
  1 42  1  0
  3 43  1  0
  6 44  1  0
  8 45  1  0
  8 46  1  0
  9 47  1  0
  9 48  1  0
 11 49  1  0
 11 50  1  0
 12 51  1  0
 12 52  1  0
 13 53  1  0
 14 54  1  0
 15 55  1  0
 15 56  1  0
 16 57  1  0
 16 58  1  0
 18 59  1  0
 18 60  1  0
 19 61  1  0
 19 62  1  0
 21 63  1  0
 25 64  1  0
 28 65  1  0
 30 66  1  0
 31 67  1  0
 32 68  1  0
 32 69  1  0
 34 70  1  0
 36 71  1  0
 38 72  1  0
 41 73  1  0
 41 74  1  0
 41 75  1  0
M  END
> <Uni-Dock RESULT> 
ENERGY=   -7.935  LOWER_BOUND=    0.000  UPPER_BOUND=    0.000
INTER + INTRA:          -7.935
INTER:                  -7.935
INTRA:                   0.000
UNBOUND:                 0.000

$$$$

     RDKit          3D

 75 80  0  0  0  0  0  0  0  0999 V2000
   51.5323   11.0616   10.7494 C   0  0  0  0  0  0  0  0  0  0  0  0
   51.1483   12.4021   10.8795 C   0  0  0  0  0  0  0  0  0  0  0  0
   49.8595   12.6698   11.3778 C   0  0  0  0  0  0  0  0  0  0  0  0
   48.9451   11.6567   11.7226 C   0  0  0  0  0  0  0  0  0  0  0  0
   49.4006   10.3252   11.6152 C   0  0  0  0  0  0  0  0  0  0  0  0
   50.6741   10.0261   11.1175 C   0  0  0  0  0  0  0  0  0  0  0  0
   52.0674   13.4047   10.5357 N   0  0  0  0  0  0  0  0  0  0  0  0
   53.2233   13.4469   11.4694 C   0  0  0  0  0  0  0  0  0  0  0  0
   54.0016   14.7760   11.3333 C   0  0  0  0  0  0  0  0  0  0  0  0
   53.1883   15.9697   11.6587 N   0  0  0  0  0  0  0  0  0  0  0  0
   51.7821   15.7962   11.2268 C   0  0  0  0  0  0  0  0  0  0  0  0
   51.5680   14.7363   10.1228 C   0  0  0  0  0  0  0  0  0  0  0  0
   47.6915   11.9308   12.3021 N   0  0  0  0  0  0  0  0  0  0  0  0
   47.0372   13.2331   12.1309 C   0  0  0  0  0  0  0  0  0  0  0  0
   47.3785   14.1567   13.3112 C   0  0  0  0  0  0  0  0  0  0  0  0
   46.2781   15.1800   13.5668 C   0  0  0  0  0  0  0  0  0  0  0  0
   45.6066   15.4834   12.3513 O   0  0  0  0  0  0  0  0  0  0  0  0
   44.8278   14.3843   11.8734 C   0  0  0  0  0  0  0  0  0  0  0  0
   45.5208   13.0396   12.0666 C   0  0  0  0  0  0  0  0  0  0  0  0
   48.5184    9.1988   12.0192 C   0  0  0  0  0  0  0  0  0  0  0  0
   49.0972    8.3408   12.9191 N   0  0  0  0  0  0  0  0  0  0  0  0
   47.3708    9.1766   11.5893 O   0  0  0  0  0  0  0  0  0  0  0  0
   48.5223    7.2362   13.5045 C   0  0  0  0  0  0  0  0  0  0  0  0
   49.1235    6.7673   14.6058 N   0  0  0  0  0  0  0  0  0  0  0  0
   48.3438    5.7486   14.9938 N   0  0  0  0  0  0  0  0  0  0  0  0
   47.2933    5.4918   14.1596 C   0  0  0  0  0  0  0  0  0  0  0  0
   47.3882    6.4455   13.1485 C   0  0  0  0  0  0  0  0  0  0  0  0
   46.4476    6.3811   12.0980 C   0  0  0  0  0  0  0  0  0  0  0  0
   45.4291    5.4079   12.1126 C   0  0  0  0  0  0  0  0  0  0  0  0
   45.3641    4.4926   13.1700 C   0  0  0  0  0  0  0  0  0  0  0  0
   46.2963    4.5137   14.2113 C   0  0  0  0  0  0  0  0  0  0  0  0
   44.4429    5.3365   10.9687 C   0  0  0  0  0  0  0  0  0  0  0  0
   44.8857    4.4139    9.8576 C   0  0  0  0  0  0  0  0  0  0  0  0
   45.6812    4.8920    8.8071 C   0  0  0  0  0  0  0  0  0  0  0  0
   46.1145    4.0255    7.8042 C   0  0  0  0  0  0  0  0  0  0  0  0
   45.7706    2.6816    7.8189 C   0  0  0  0  0  0  0  0  0  0  0  0
   44.9851    2.2085    8.8590 C   0  0  0  0  0  0  0  0  0  0  0  0
   44.5417    3.0544    9.8744 C   0  0  0  0  0  0  0  0  0  0  0  0
   44.6528    0.9118    8.8940 F   0  0  0  0  0  0  0  0  0  0  0  0
   46.8857    4.4970    6.8136 F   0  0  0  0  0  0  0  0  0  0  0  0
   53.7879   17.1717   11.0871 C   0  0  0  0  0  0  0  0  0  0  0  0
   52.5095   10.8183   10.3417 H   0  0  0  0  0  0  0  0  0  0  0  0
   49.5763   13.7035   11.5288 H   0  0  0  0  0  0  0  0  0  0  0  0
   50.9983    8.9966   10.9928 H   0  0  0  0  0  0  0  0  0  0  0  0
   52.8807   13.3434   12.5079 H   0  0  0  0  0  0  0  0  0  0  0  0
   53.9055   12.6165   11.2524 H   0  0  0  0  0  0  0  0  0  0  0  0
   54.3876   14.8410   10.3078 H   0  0  0  0  0  0  0  0  0  0  0  0
   54.8690   14.7510   12.0015 H   0  0  0  0  0  0  0  0  0  0  0  0
   51.2122   15.4944   12.1143 H   0  0  0  0  0  0  0  0  0  0  0  0
   51.3440   16.7489   10.9059 H   0  0  0  0  0  0  0  0  0  0  0  0
   52.1296   15.0368    9.2285 H   0  0  0  0  0  0  0  0  0  0  0  0
   50.5187   14.7151    9.8067 H   0  0  0  0  0  0  0  0  0  0  0  0
   47.0590   11.1388   12.1262 H   0  0  0  0  0  0  0  0  0  0  0  0
   47.3428   13.6993   11.1840 H   0  0  0  0  0  0  0  0  0  0  0  0
   48.3118   14.6881   13.0915 H   0  0  0  0  0  0  0  0  0  0  0  0
   47.5626   13.5925   14.2335 H   0  0  0  0  0  0  0  0  0  0  0  0
   46.7138   16.1033   13.9664 H   0  0  0  0  0  0  0  0  0  0  0  0
   45.5555   14.8171   14.3050 H   0  0  0  0  0  0  0  0  0  0  0  0
   44.6522   14.5625   10.8076 H   0  0  0  0  0  0  0  0  0  0  0  0
   43.8498   14.3918   12.3699 H   0  0  0  0  0  0  0  0  0  0  0  0
   45.2307   12.3470   11.2673 H   0  0  0  0  0  0  0  0  0  0  0  0
   45.1694   12.5844   13.0014 H   0  0  0  0  0  0  0  0  0  0  0  0
   49.9547    8.6163   13.3812 H   0  0  0  0  0  0  0  0  0  0  0  0
   48.5937    5.2495   15.8392 H   0  0  0  0  0  0  0  0  0  0  0  0
   46.5140    7.0747   11.2663 H   0  0  0  0  0  0  0  0  0  0  0  0
   44.5850    3.7337   13.1858 H   0  0  0  0  0  0  0  0  0  0  0  0
   46.2460    3.7893   15.0187 H   0  0  0  0  0  0  0  0  0  0  0  0
   43.4641    5.0151   11.3481 H   0  0  0  0  0  0  0  0  0  0  0  0
   44.2670    6.3427   10.5652 H   0  0  0  0  0  0  0  0  0  0  0  0
   45.9836    5.9351    8.7650 H   0  0  0  0  0  0  0  0  0  0  0  0
   46.1200    2.0136    7.0403 H   0  0  0  0  0  0  0  0  0  0  0  0
   43.9421    2.6377   10.6766 H   0  0  0  0  0  0  0  0  0  0  0  0
   53.2438   18.0638   11.4165 H   0  0  0  0  0  0  0  0  0  0  0  0
   54.8209   17.2906   11.4335 H   0  0  0  0  0  0  0  0  0  0  0  0
   53.7880   17.1521    9.9917 H   0  0  0  0  0  0  0  0  0  0  0  0
  1  2  2  0
  1  6  1  0
  2  3  1  0
  3  4  2  0
  4  5  1  0
  5  6  2  0
  2  7  1  0
  7  8  1  0
 12  7  1  0
  8  9  1  0
  9 10  1  0
 10 11  1  0
 11 12  1  0
  4 13  1  0
 13 14  1  0
 14 15  1  0
 19 14  1  0
 15 16  1  0
 16 17  1  0
 17 18  1  0
 18 19  1  0
  5 20  1  0
 20 21  1  0
 20 22  2  0
 21 23  1  0
 23 24  2  0
 23 27  1  0
 24 25  1  0
 25 26  1  0
 31 26  2  0
 26 27  1  0
 27 28  2  0
 28 29  1  0
 29 30  2  0
 30 31  1  0
 29 32  1  0
 32 33  1  0
 33 34  2  0
 33 38  1  0
 34 35  1  0
 35 36  2  0
 36 37  1  0
 37 38  2  0
 37 39  1  0
 35 40  1  0
 10 41  1  0
  1 42  1  0
  3 43  1  0
  6 44  1  0
  8 45  1  0
  8 46  1  0
  9 47  1  0
  9 48  1  0
 11 49  1  0
 11 50  1  0
 12 51  1  0
 12 52  1  0
 13 53  1  0
 14 54  1  0
 15 55  1  0
 15 56  1  0
 16 57  1  0
 16 58  1  0
 18 59  1  0
 18 60  1  0
 19 61  1  0
 19 62  1  0
 21 63  1  0
 25 64  1  0
 28 65  1  0
 30 66  1  0
 31 67  1  0
 32 68  1  0
 32 69  1  0
 34 70  1  0
 36 71  1  0
 38 72  1  0
 41 73  1  0
 41 74  1  0
 41 75  1  0
M  END
> <Uni-Dock RESULT> 
ENERGY=   -6.891  LOWER_BOUND=    3.871  UPPER_BOUND=    5.020
INTER + INTRA:          -6.891
INTER:                  -6.891
INTRA:                   0.000
UNBOUND:                 0.000

$$$$

     RDKit          3D

 75 80  0  0  0  0  0  0  0  0999 V2000
   52.0012   10.6239   11.0833 C   0  0  0  0  0  0  0  0  0  0  0  0
   51.7157   11.9887   11.2144 C   0  0  0  0  0  0  0  0  0  0  0  0
   50.4330   12.3499   11.6675 C   0  0  0  0  0  0  0  0  0  0  0  0
   49.4318   11.4068   11.9664 C   0  0  0  0  0  0  0  0  0  0  0  0
   49.7883   10.0453   11.8607 C   0  0  0  0  0  0  0  0  0  0  0  0
   51.0533    9.6539   11.4073 C   0  0  0  0  0  0  0  0  0  0  0  0
   52.7209   12.9209   10.9165 N   0  0  0  0  0  0  0  0  0  0  0  0
   53.8403   12.8665   11.8930 C   0  0  0  0  0  0  0  0  0  0  0  0
   54.7222   14.1333   11.8012 C   0  0  0  0  0  0  0  0  0  0  0  0
   53.9904   15.3828   12.1098 N   0  0  0  0  0  0  0  0  0  0  0  0
   52.5924   15.3212   11.6240 C   0  0  0  0  0  0  0  0  0  0  0  0
   52.3403   14.2903   10.5007 C   0  0  0  0  0  0  0  0  0  0  0  0
   48.1815   11.7710   12.5021 N   0  0  0  0  0  0  0  0  0  0  0  0
   47.6353   13.1209   12.3216 C   0  0  0  0  0  0  0  0  0  0  0  0
   48.0010   14.0055   13.5244 C   0  0  0  0  0  0  0  0  0  0  0  0
   46.9728   15.1078   13.7506 C   0  0  0  0  0  0  0  0  0  0  0  0
   46.3729   15.4722   12.5145 O   0  0  0  0  0  0  0  0  0  0  0  0
   45.5313   14.4401   11.9955 C   0  0  0  0  0  0  0  0  0  0  0  0
   46.1121   13.0447   12.1988 C   0  0  0  0  0  0  0  0  0  0  0  0
   48.8082    8.9863   12.2187 C   0  0  0  0  0  0  0  0  0  0  0  0
   49.2855    8.0788   13.1296 N   0  0  0  0  0  0  0  0  0  0  0  0
   47.6794    9.0557   11.7462 O   0  0  0  0  0  0  0  0  0  0  0  0
   48.6063    7.0164   13.6805 C   0  0  0  0  0  0  0  0  0  0  0  0
   49.1278    6.4933   14.7979 N   0  0  0  0  0  0  0  0  0  0  0  0
   48.2587    5.5340   15.1449 N   0  0  0  0  0  0  0  0  0  0  0  0
   47.2241    5.3656   14.2693 C   0  0  0  0  0  0  0  0  0  0  0  0
   47.4297    6.3179   13.2735 C   0  0  0  0  0  0  0  0  0  0  0  0
   46.5274    6.3347   12.1881 C   0  0  0  0  0  0  0  0  0  0  0  0
   45.4379    5.4423   12.1536 C   0  0  0  0  0  0  0  0  0  0  0  0
   45.2634    4.5255   13.1973 C   0  0  0  0  0  0  0  0  0  0  0  0
   46.1543    4.4662   14.2727 C   0  0  0  0  0  0  0  0  0  0  0  0
   44.4932    5.4563   10.9731 C   0  0  0  0  0  0  0  0  0  0  0  0
   44.9063    4.5122    9.8687 C   0  0  0  0  0  0  0  0  0  0  0  0
   45.7752    4.9371    8.8540 C   0  0  0  0  0  0  0  0  0  0  0  0
   46.1790    4.0487    7.8580 C   0  0  0  0  0  0  0  0  0  0  0  0
   45.7335    2.7350    7.8445 C   0  0  0  0  0  0  0  0  0  0  0  0
   44.8753    2.3144    8.8491 C   0  0  0  0  0  0  0  0  0  0  0  0
   44.4594    3.1829    9.8571 C   0  0  0  0  0  0  0  0  0  0  0  0
   44.4441    1.0466    8.8569 F   0  0  0  0  0  0  0  0  0  0  0  0
   47.0209    4.4683    6.9023 F   0  0  0  0  0  0  0  0  0  0  0  0
   54.7010   16.5404   11.5747 C   0  0  0  0  0  0  0  0  0  0  0  0
   52.9718   10.3101   10.7094 H   0  0  0  0  0  0  0  0  0  0  0  0
   50.2238   13.4009   11.8198 H   0  0  0  0  0  0  0  0  0  0  0  0
   51.3027    8.6037   11.2829 H   0  0  0  0  0  0  0  0  0  0  0  0
   53.4518   12.7806   12.9167 H   0  0  0  0  0  0  0  0  0  0  0  0
   54.4651   11.9882   11.6919 H   0  0  0  0  0  0  0  0  0  0  0  0
   55.1507   14.1774   10.7915 H   0  0  0  0  0  0  0  0  0  0  0  0
   55.5592   14.0362   12.5009 H   0  0  0  0  0  0  0  0  0  0  0  0
   51.9680   15.0562   12.4862 H   0  0  0  0  0  0  0  0  0  0  0  0
   52.2407   16.3073   11.2980 H   0  0  0  0  0  0  0  0  0  0  0  0
   52.9567   14.5547    9.6314 H   0  0  0  0  0  0  0  0  0  0  0  0
   51.3052   14.3522   10.1456 H   0  0  0  0  0  0  0  0  0  0  0  0
   47.4978   11.0313   12.2937 H   0  0  0  0  0  0  0  0  0  0  0  0
   48.0112   13.5706   11.3921 H   0  0  0  0  0  0  0  0  0  0  0  0
   48.9796   14.4658   13.3456 H   0  0  0  0  0  0  0  0  0  0  0  0
   48.1064   13.4209   14.4463 H   0  0  0  0  0  0  0  0  0  0  0  0
   47.4620   15.9916   14.1768 H   0  0  0  0  0  0  0  0  0  0  0  0
   46.1971   14.7949   14.4573 H   0  0  0  0  0  0  0  0  0  0  0  0
   45.4104   14.6403   10.9260 H   0  0  0  0  0  0  0  0  0  0  0  0
   44.5386   14.5181   12.4553 H   0  0  0  0  0  0  0  0  0  0  0  0
   45.8007   12.3832   11.3813 H   0  0  0  0  0  0  0  0  0  0  0  0
   45.6919   12.6096   13.1146 H   0  0  0  0  0  0  0  0  0  0  0  0
   50.1433    8.2839   13.6263 H   0  0  0  0  0  0  0  0  0  0  0  0
   48.4376    5.0100   15.9931 H   0  0  0  0  0  0  0  0  0  0  0  0
   46.6779    7.0284   11.3674 H   0  0  0  0  0  0  0  0  0  0  0  0
   44.4287    3.8283   13.1754 H   0  0  0  0  0  0  0  0  0  0  0  0
   46.0184    3.7409   15.0692 H   0  0  0  0  0  0  0  0  0  0  0  0
   43.4791    5.2076   11.3121 H   0  0  0  0  0  0  0  0  0  0  0  0
   44.4099    6.4765   10.5750 H   0  0  0  0  0  0  0  0  0  0  0  0
   46.1575    5.9543    8.8352 H   0  0  0  0  0  0  0  0  0  0  0  0
   46.0602    2.0489    7.0718 H   0  0  0  0  0  0  0  0  0  0  0  0
   43.7998    2.8065   10.6316 H   0  0  0  0  0  0  0  0  0  0  0  0
   54.2143   17.4686   11.8939 H   0  0  0  0  0  0  0  0  0  0  0  0
   55.7262   16.5769   11.9607 H   0  0  0  0  0  0  0  0  0  0  0  0
   54.7412   16.5302   10.4800 H   0  0  0  0  0  0  0  0  0  0  0  0
  1  2  2  0
  1  6  1  0
  2  3  1  0
  3  4  2  0
  4  5  1  0
  5  6  2  0
  2  7  1  0
  7  8  1  0
 12  7  1  0
  8  9  1  0
  9 10  1  0
 10 11  1  0
 11 12  1  0
  4 13  1  0
 13 14  1  0
 14 15  1  0
 19 14  1  0
 15 16  1  0
 16 17  1  0
 17 18  1  0
 18 19  1  0
  5 20  1  0
 20 21  1  0
 20 22  2  0
 21 23  1  0
 23 24  2  0
 23 27  1  0
 24 25  1  0
 25 26  1  0
 31 26  2  0
 26 27  1  0
 27 28  2  0
 28 29  1  0
 29 30  2  0
 30 31  1  0
 29 32  1  0
 32 33  1  0
 33 34  2  0
 33 38  1  0
 34 35  1  0
 35 36  2  0
 36 37  1  0
 37 38  2  0
 37 39  1  0
 35 40  1  0
 10 41  1  0
  1 42  1  0
  3 43  1  0
  6 44  1  0
  8 45  1  0
  8 46  1  0
  9 47  1  0
  9 48  1  0
 11 49  1  0
 11 50  1  0
 12 51  1  0
 12 52  1  0
 13 53  1  0
 14 54  1  0
 15 55  1  0
 15 56  1  0
 16 57  1  0
 16 58  1  0
 18 59  1  0
 18 60  1  0
 19 61  1  0
 19 62  1  0
 21 63  1  0
 25 64  1  0
 28 65  1  0
 30 66  1  0
 31 67  1  0
 32 68  1  0
 32 69  1  0
 34 70  1  0
 36 71  1  0
 38 72  1  0
 41 73  1  0
 41 74  1  0
 41 75  1  0
M  END
> <Uni-Dock RESULT> 
ENERGY=   -6.574  LOWER_BOUND=    4.238  UPPER_BOUND=    5.495
INTER + INTRA:          -6.574
INTER:                  -6.574
INTRA:                   0.000
UNBOUND:                 0.000

$$$$

     RDKit          3D

 75 80  0  0  0  0  0  0  0  0999 V2000
   50.5523    6.7233   15.8783 C   0  0  0  0  0  0  0  0  0  0  0  0
   50.6004    7.0992   17.2265 C   0  0  0  0  0  0  0  0  0  0  0  0
   49.7004    8.0890   17.6640 C   0  0  0  0  0  0  0  0  0  0  0  0
   48.7833    8.7245   16.8059 C   0  0  0  0  0  0  0  0  0  0  0  0
   48.7464    8.2747   15.4686 C   0  0  0  0  0  0  0  0  0  0  0  0
   49.6322    7.2968   15.0015 C   0  0  0  0  0  0  0  0  0  0  0  0
   51.5161    6.4584   18.0744 N   0  0  0  0  0  0  0  0  0  0  0  0
   51.1727    5.0280   18.2884 C   0  0  0  0  0  0  0  0  0  0  0  0
   51.9256    4.4505   19.5092 C   0  0  0  0  0  0  0  0  0  0  0  0
   51.5919    5.1305   20.7814 N   0  0  0  0  0  0  0  0  0  0  0  0
   51.3596    6.5784   20.5723 C   0  0  0  0  0  0  0  0  0  0  0  0
   51.9940    7.1590   19.2884 C   0  0  0  0  0  0  0  0  0  0  0  0
   47.8274    9.6496   17.2675 N   0  0  0  0  0  0  0  0  0  0  0  0
   48.0222   10.3919   18.5182 C   0  0  0  0  0  0  0  0  0  0  0  0
   47.3398    9.6563   19.6826 C   0  0  0  0  0  0  0  0  0  0  0  0
   46.9103   10.6166   20.7858 C   0  0  0  0  0  0  0  0  0  0  0  0
   47.7815   11.7394   20.8173 O   0  0  0  0  0  0  0  0  0  0  0  0
   47.6246   12.5794   19.6716 C   0  0  0  0  0  0  0  0  0  0  0  0
   47.4161   11.7903   18.3833 C   0  0  0  0  0  0  0  0  0  0  0  0
   47.7632    8.8503   14.5135 C   0  0  0  0  0  0  0  0  0  0  0  0
   47.0007    7.9076   13.8724 N   0  0  0  0  0  0  0  0  0  0  0  0
   47.6703   10.0703   14.4400 O   0  0  0  0  0  0  0  0  0  0  0  0
   45.9877    8.1306   12.9683 C   0  0  0  0  0  0  0  0  0  0  0  0
   45.1493    7.1086   12.7519 N   0  0  0  0  0  0  0  0  0  0  0  0
   44.2475    7.6035   11.8928 N   0  0  0  0  0  0  0  0  0  0  0  0
   44.4949    8.8849   11.4901 C   0  0  0  0  0  0  0  0  0  0  0  0
   45.6523    9.2634   12.1669 C   0  0  0  0  0  0  0  0  0  0  0  0
   46.1809   10.5434   11.8937 C   0  0  0  0  0  0  0  0  0  0  0  0
   45.5222   11.4101   10.9994 C   0  0  0  0  0  0  0  0  0  0  0  0
   44.3453   10.9876   10.3696 C   0  0  0  0  0  0  0  0  0  0  0  0
   43.8110    9.7165   10.5990 C   0  0  0  0  0  0  0  0  0  0  0  0
   46.1129   12.7691   10.6989 C   0  0  0  0  0  0  0  0  0  0  0  0
   47.0534   12.7613    9.5170 C   0  0  0  0  0  0  0  0  0  0  0  0
   48.4174   12.4888    9.6917 C   0  0  0  0  0  0  0  0  0  0  0  0
   49.2720   12.4491    8.5906 C   0  0  0  0  0  0  0  0  0  0  0  0
   48.7993   12.6785    7.3067 C   0  0  0  0  0  0  0  0  0  0  0  0
   47.4499   12.9463    7.1338 C   0  0  0  0  0  0  0  0  0  0  0  0
   46.5752   12.9890    8.2184 C   0  0  0  0  0  0  0  0  0  0  0  0
   46.9752   13.1597    5.9000 F   0  0  0  0  0  0  0  0  0  0  0  0
   50.5716   12.1742    8.7745 F   0  0  0  0  0  0  0  0  0  0  0  0
   52.6260    4.8850   21.7822 C   0  0  0  0  0  0  0  0  0  0  0  0
   51.2516    5.9826   15.5003 H   0  0  0  0  0  0  0  0  0  0  0  0
   49.6980    8.3466   18.7152 H   0  0  0  0  0  0  0  0  0  0  0  0
   49.6291    6.9915   13.9588 H   0  0  0  0  0  0  0  0  0  0  0  0
   50.0929    4.9139   18.4535 H   0  0  0  0  0  0  0  0  0  0  0  0
   51.4440    4.4449   17.4003 H   0  0  0  0  0  0  0  0  0  0  0  0
   53.0027    4.5174   19.3079 H   0  0  0  0  0  0  0  0  0  0  0  0
   51.6832    3.3869   19.6069 H   0  0  0  0  0  0  0  0  0  0  0  0
   50.2732    6.7212   20.5190 H   0  0  0  0  0  0  0  0  0  0  0  0
   51.6912    7.1636   21.4383 H   0  0  0  0  0  0  0  0  0  0  0  0
   53.0827    7.0264   19.3391 H   0  0  0  0  0  0  0  0  0  0  0  0
   51.8410    8.2432   19.2389 H   0  0  0  0  0  0  0  0  0  0  0  0
   47.5369   10.2518   16.4857 H   0  0  0  0  0  0  0  0  0  0  0  0
   49.0927   10.5239   18.7284 H   0  0  0  0  0  0  0  0  0  0  0  0
   48.0397    8.9248   20.1030 H   0  0  0  0  0  0  0  0  0  0  0  0
   46.4669    9.0819   19.3495 H   0  0  0  0  0  0  0  0  0  0  0  0
   46.9548   10.1111   21.7577 H   0  0  0  0  0  0  0  0  0  0  0  0
   45.8789   10.9558   20.6442 H   0  0  0  0  0  0  0  0  0  0  0  0
   48.5357   13.1817   19.5955 H   0  0  0  0  0  0  0  0  0  0  0  0
   46.7907   13.2711   19.8424 H   0  0  0  0  0  0  0  0  0  0  0  0
   47.8383   12.3384   17.5323 H   0  0  0  0  0  0  0  0  0  0  0  0
   46.3404   11.7057   18.1829 H   0  0  0  0  0  0  0  0  0  0  0  0
   47.0075    6.9541   14.2123 H   0  0  0  0  0  0  0  0  0  0  0  0
   43.4848    7.0039   11.6012 H   0  0  0  0  0  0  0  0  0  0  0  0
   47.1065   10.8602   12.3629 H   0  0  0  0  0  0  0  0  0  0  0  0
   43.8338   11.6478    9.6726 H   0  0  0  0  0  0  0  0  0  0  0  0
   42.9061    9.3931   10.0935 H   0  0  0  0  0  0  0  0  0  0  0  0
   45.3037   13.4897   10.5227 H   0  0  0  0  0  0  0  0  0  0  0  0
   46.6367   13.1517   11.5852 H   0  0  0  0  0  0  0  0  0  0  0  0
   48.8257   12.2908   10.6793 H   0  0  0  0  0  0  0  0  0  0  0  0
   49.4692   12.6361    6.4558 H   0  0  0  0  0  0  0  0  0  0  0  0
   45.5246   13.1868    8.0346 H   0  0  0  0  0  0  0  0  0  0  0  0
   52.3265    5.3001   22.7509 H   0  0  0  0  0  0  0  0  0  0  0  0
   52.7689    3.8091   21.9345 H   0  0  0  0  0  0  0  0  0  0  0  0
   53.5875    5.3275   21.4993 H   0  0  0  0  0  0  0  0  0  0  0  0
  1  2  2  0
  1  6  1  0
  2  3  1  0
  3  4  2  0
  4  5  1  0
  5  6  2  0
  2  7  1  0
  7  8  1  0
 12  7  1  0
  8  9  1  0
  9 10  1  0
 10 11  1  0
 11 12  1  0
  4 13  1  0
 13 14  1  0
 14 15  1  0
 19 14  1  0
 15 16  1  0
 16 17  1  0
 17 18  1  0
 18 19  1  0
  5 20  1  0
 20 21  1  0
 20 22  2  0
 21 23  1  0
 23 24  2  0
 23 27  1  0
 24 25  1  0
 25 26  1  0
 31 26  2  0
 26 27  1  0
 27 28  2  0
 28 29  1  0
 29 30  2  0
 30 31  1  0
 29 32  1  0
 32 33  1  0
 33 34  2  0
 33 38  1  0
 34 35  1  0
 35 36  2  0
 36 37  1  0
 37 38  2  0
 37 39  1  0
 35 40  1  0
 10 41  1  0
  1 42  1  0
  3 43  1  0
  6 44  1  0
  8 45  1  0
  8 46  1  0
  9 47  1  0
  9 48  1  0
 11 49  1  0
 11 50  1  0
 12 51  1  0
 12 52  1  0
 13 53  1  0
 14 54  1  0
 15 55  1  0
 15 56  1  0
 16 57  1  0
 16 58  1  0
 18 59  1  0
 18 60  1  0
 19 61  1  0
 19 62  1  0
 21 63  1  0
 25 64  1  0
 28 65  1  0
 30 66  1  0
 31 67  1  0
 32 68  1  0
 32 69  1  0
 34 70  1  0
 36 71  1  0
 38 72  1  0
 41 73  1  0
 41 74  1  0
 41 75  1  0
M  END
> <Uni-Dock RESULT> 
ENERGY=   -5.459  LOWER_BOUND=    5.784  UPPER_BOUND=   10.072
INTER + INTRA:          -5.459
INTER:                  -5.459
INTRA:                   0.000
UNBOUND:                 0.000

$$$$

     RDKit          3D

 75 80  0  0  0  0  0  0  0  0999 V2000
   48.1899   10.7750   12.5972 C   0  0  0  0  0  0  0  0  0  0  0  0
   49.3350   11.0479   11.8385 C   0  0  0  0  0  0  0  0  0  0  0  0
   50.4368   10.1833   11.9797 C   0  0  0  0  0  0  0  0  0  0  0  0
   50.4414    9.0848   12.8598 C   0  0  0  0  0  0  0  0  0  0  0  0
   49.2458    8.8298   13.5652 C   0  0  0  0  0  0  0  0  0  0  0  0
   48.1353    9.6741   13.4511 C   0  0  0  0  0  0  0  0  0  0  0  0
   49.3199   12.1434   10.9623 N   0  0  0  0  0  0  0  0  0  0  0  0
   48.3841   11.9370    9.8260 C   0  0  0  0  0  0  0  0  0  0  0  0
   48.6670   12.9380    8.6819 C   0  0  0  0  0  0  0  0  0  0  0  0
   50.0237   12.8029    8.1046 N   0  0  0  0  0  0  0  0  0  0  0  0
   51.0169   12.4445    9.1435 C   0  0  0  0  0  0  0  0  0  0  0  0
   50.5979   12.7922   10.5897 C   0  0  0  0  0  0  0  0  0  0  0  0
   51.5129    8.1741   12.9315 N   0  0  0  0  0  0  0  0  0  0  0  0
   52.8663    8.5495   12.5064 C   0  0  0  0  0  0  0  0  0  0  0  0
   53.0936    8.1424   11.0417 C   0  0  0  0  0  0  0  0  0  0  0  0
   54.5641    7.8644   10.7524 C   0  0  0  0  0  0  0  0  0  0  0  0
   55.3834    8.6533   11.6050 O   0  0  0  0  0  0  0  0  0  0  0  0
   55.3075    8.2342   12.9693 C   0  0  0  0  0  0  0  0  0  0  0  0
   53.8952    7.8414   13.3901 C   0  0  0  0  0  0  0  0  0  0  0  0
   49.1473    7.6522   14.4674 C   0  0  0  0  0  0  0  0  0  0  0  0
   48.0694    6.8457   14.2052 N   0  0  0  0  0  0  0  0  0  0  0  0
   50.0423    7.4702   15.2848 O   0  0  0  0  0  0  0  0  0  0  0  0
   47.7351    5.6708   14.8387 C   0  0  0  0  0  0  0  0  0  0  0  0
   46.8729    4.8734   14.1946 N   0  0  0  0  0  0  0  0  0  0  0  0
   46.7679    3.7987   14.9884 N   0  0  0  0  0  0  0  0  0  0  0  0
   47.4759    3.8854   16.1532 C   0  0  0  0  0  0  0  0  0  0  0  0
   48.1161    5.1217   16.1002 C   0  0  0  0  0  0  0  0  0  0  0  0
   48.8857    5.5083   17.2186 C   0  0  0  0  0  0  0  0  0  0  0  0
   49.0262    4.6418   18.3204 C   0  0  0  0  0  0  0  0  0  0  0  0
   48.3837    3.3979   18.3067 C   0  0  0  0  0  0  0  0  0  0  0  0
   47.5933    2.9971   17.2257 C   0  0  0  0  0  0  0  0  0  0  0  0
   49.8346    5.0793   19.5210 C   0  0  0  0  0  0  0  0  0  0  0  0
   49.0078    5.7834   20.5709 C   0  0  0  0  0  0  0  0  0  0  0  0
   48.8139    7.1706   20.5150 C   0  0  0  0  0  0  0  0  0  0  0  0
   48.0204    7.8075   21.4684 C   0  0  0  0  0  0  0  0  0  0  0  0
   47.4104    7.0919   22.4883 C   0  0  0  0  0  0  0  0  0  0  0  0
   47.6010    5.7195   22.5426 C   0  0  0  0  0  0  0  0  0  0  0  0
   48.3877    5.0597   21.5998 C   0  0  0  0  0  0  0  0  0  0  0  0
   47.0109    5.0122   23.5146 F   0  0  0  0  0  0  0  0  0  0  0  0
   47.8350    9.1335   21.3923 F   0  0  0  0  0  0  0  0  0  0  0  0
   50.4009   14.0178    7.3884 C   0  0  0  0  0  0  0  0  0  0  0  0
   47.3314   11.4379   12.5340 H   0  0  0  0  0  0  0  0  0  0  0  0
   51.3052   10.3591   11.3581 H   0  0  0  0  0  0  0  0  0  0  0  0
   47.2361    9.4974   14.0347 H   0  0  0  0  0  0  0  0  0  0  0  0
   48.4784   10.9158    9.4327 H   0  0  0  0  0  0  0  0  0  0  0  0
   47.3511   12.0758   10.1667 H   0  0  0  0  0  0  0  0  0  0  0  0
   48.5136   13.9527    9.0716 H   0  0  0  0  0  0  0  0  0  0  0  0
   47.9310   12.7857    7.8852 H   0  0  0  0  0  0  0  0  0  0  0  0
   51.1693   11.3602    9.0765 H   0  0  0  0  0  0  0  0  0  0  0  0
   51.9947   12.8928    8.9306 H   0  0  0  0  0  0  0  0  0  0  0  0
   50.4515   13.8777   10.6656 H   0  0  0  0  0  0  0  0  0  0  0  0
   51.4084   12.5642   11.2915 H   0  0  0  0  0  0  0  0  0  0  0  0
   51.4962    7.7063   13.8474 H   0  0  0  0  0  0  0  0  0  0  0  0
   53.0258    9.6298   12.6288 H   0  0  0  0  0  0  0  0  0  0  0  0
   52.7514    8.9530   10.3878 H   0  0  0  0  0  0  0  0  0  0  0  0
   52.5024    7.2612   10.7646 H   0  0  0  0  0  0  0  0  0  0  0  0
   54.7935    8.1199    9.7112 H   0  0  0  0  0  0  0  0  0  0  0  0
   54.8068    6.8052   10.8868 H   0  0  0  0  0  0  0  0  0  0  0  0
   55.6562    9.0753   13.5771 H   0  0  0  0  0  0  0  0  0  0  0  0
   56.0059    7.4040   13.1315 H   0  0  0  0  0  0  0  0  0  0  0  0
   53.7425    8.0632   14.4532 H   0  0  0  0  0  0  0  0  0  0  0  0
   53.7786    6.7547   13.2896 H   0  0  0  0  0  0  0  0  0  0  0  0
   47.5548    6.9758   13.3434 H   0  0  0  0  0  0  0  0  0  0  0  0
   46.1762    3.0348   14.6842 H   0  0  0  0  0  0  0  0  0  0  0  0
   49.3625    6.4828   17.2391 H   0  0  0  0  0  0  0  0  0  0  0  0
   48.4814    2.7255   19.1561 H   0  0  0  0  0  0  0  0  0  0  0  0
   47.0869    2.0367   17.2319 H   0  0  0  0  0  0  0  0  0  0  0  0
   50.3319    4.2074   19.9655 H   0  0  0  0  0  0  0  0  0  0  0  0
   50.6564    5.7327   19.1986 H   0  0  0  0  0  0  0  0  0  0  0  0
   49.2634    7.7664   19.7248 H   0  0  0  0  0  0  0  0  0  0  0  0
   46.7876    7.5940   23.2194 H   0  0  0  0  0  0  0  0  0  0  0  0
   48.4964    3.9829   21.6719 H   0  0  0  0  0  0  0  0  0  0  0  0
   51.3585   13.8769    6.8750 H   0  0  0  0  0  0  0  0  0  0  0  0
   49.6631   14.2544    6.6133 H   0  0  0  0  0  0  0  0  0  0  0  0
   50.4916   14.8803    8.0579 H   0  0  0  0  0  0  0  0  0  0  0  0
  1  2  2  0
  1  6  1  0
  2  3  1  0
  3  4  2  0
  4  5  1  0
  5  6  2  0
  2  7  1  0
  7  8  1  0
 12  7  1  0
  8  9  1  0
  9 10  1  0
 10 11  1  0
 11 12  1  0
  4 13  1  0
 13 14  1  0
 14 15  1  0
 19 14  1  0
 15 16  1  0
 16 17  1  0
 17 18  1  0
 18 19  1  0
  5 20  1  0
 20 21  1  0
 20 22  2  0
 21 23  1  0
 23 24  2  0
 23 27  1  0
 24 25  1  0
 25 26  1  0
 31 26  2  0
 26 27  1  0
 27 28  2  0
 28 29  1  0
 29 30  2  0
 30 31  1  0
 29 32  1  0
 32 33  1  0
 33 34  2  0
 33 38  1  0
 34 35  1  0
 35 36  2  0
 36 37  1  0
 37 38  2  0
 37 39  1  0
 35 40  1  0
 10 41  1  0
  1 42  1  0
  3 43  1  0
  6 44  1  0
  8 45  1  0
  8 46  1  0
  9 47  1  0
  9 48  1  0
 11 49  1  0
 11 50  1  0
 12 51  1  0
 12 52  1  0
 13 53  1  0
 14 54  1  0
 15 55  1  0
 15 56  1  0
 16 57  1  0
 16 58  1  0
 18 59  1  0
 18 60  1  0
 19 61  1  0
 19 62  1  0
 21 63  1  0
 25 64  1  0
 28 65  1  0
 30 66  1  0
 31 67  1  0
 32 68  1  0
 32 69  1  0
 34 70  1  0
 36 71  1  0
 38 72  1  0
 41 73  1  0
 41 74  1  0
 41 75  1  0
M  END
> <Uni-Dock RESULT> 
ENERGY=   -5.370  LOWER_BOUND=    6.967  UPPER_BOUND=   10.052
INTER + INTRA:          -5.370
INTER:                  -5.370
INTRA:                   0.000
UNBOUND:                 0.000

$$$$

     RDKit          3D

 75 80  0  0  0  0  0  0  0  0999 V2000
   48.1836   10.7748   12.5945 C   0  0  0  0  0  0  0  0  0  0  0  0
   49.3282   11.0484   11.8353 C   0  0  0  0  0  0  0  0  0  0  0  0
   50.4305   10.1845   11.9760 C   0  0  0  0  0  0  0  0  0  0  0  0
   50.4362    9.0861   12.8561 C   0  0  0  0  0  0  0  0  0  0  0  0
   49.2411    8.8302   13.5620 C   0  0  0  0  0  0  0  0  0  0  0  0
   48.1300    9.6739   13.4484 C   0  0  0  0  0  0  0  0  0  0  0  0
   49.3121   12.1439   10.9591 N   0  0  0  0  0  0  0  0  0  0  0  0
   48.3759   11.9369    9.8232 C   0  0  0  0  0  0  0  0  0  0  0  0
   48.6577   12.9381    8.6790 C   0  0  0  0  0  0  0  0  0  0  0  0
   50.0143   12.8039    8.1011 N   0  0  0  0  0  0  0  0  0  0  0  0
   51.0081   12.4461    9.1396 C   0  0  0  0  0  0  0  0  0  0  0  0
   50.5895   12.7936   10.5860 C   0  0  0  0  0  0  0  0  0  0  0  0
   51.5083    8.1760   12.9274 N   0  0  0  0  0  0  0  0  0  0  0  0
   52.8613    8.5523   12.5018 C   0  0  0  0  0  0  0  0  0  0  0  0
   53.0883    8.1453   11.0370 C   0  0  0  0  0  0  0  0  0  0  0  0
   54.5589    7.8683   10.7471 C   0  0  0  0  0  0  0  0  0  0  0  0
   55.3780    8.6577   11.5993 O   0  0  0  0  0  0  0  0  0  0  0  0
   55.3030    8.2385   12.9637 C   0  0  0  0  0  0  0  0  0  0  0  0
   53.8911    7.8448   13.3850 C   0  0  0  0  0  0  0  0  0  0  0  0
   49.1437    7.6527   14.4643 C   0  0  0  0  0  0  0  0  0  0  0  0
   48.0662    6.8455   14.2025 N   0  0  0  0  0  0  0  0  0  0  0  0
   50.0391    7.4711   15.2813 O   0  0  0  0  0  0  0  0  0  0  0  0
   47.7329    5.6703   14.8362 C   0  0  0  0  0  0  0  0  0  0  0  0
   46.8709    4.8724   14.1924 N   0  0  0  0  0  0  0  0  0  0  0  0
   46.7669    3.7976   14.9863 N   0  0  0  0  0  0  0  0  0  0  0  0
   47.4754    3.8848   16.1507 C   0  0  0  0  0  0  0  0  0  0  0  0
   48.1147    5.1214   16.0975 C   0  0  0  0  0  0  0  0  0  0  0  0
   48.8846    5.5085   17.2155 C   0  0  0  0  0  0  0  0  0  0  0  0
   49.0260    4.6422   18.3174 C   0  0  0  0  0  0  0  0  0  0  0  0
   48.3843    3.3979   18.3039 C   0  0  0  0  0  0  0  0  0  0  0  0
   47.5938    2.9966   17.2233 C   0  0  0  0  0  0  0  0  0  0  0  0
   49.8346    5.0802   19.5176 C   0  0  0  0  0  0  0  0  0  0  0  0
   49.0079    5.7838   20.5678 C   0  0  0  0  0  0  0  0  0  0  0  0
   48.8130    7.1709   20.5120 C   0  0  0  0  0  0  0  0  0  0  0  0
   48.0194    7.8073   21.4658 C   0  0  0  0  0  0  0  0  0  0  0  0
   47.4104    7.0912   22.4859 C   0  0  0  0  0  0  0  0  0  0  0  0
   47.6018    5.7190   22.5401 C   0  0  0  0  0  0  0  0  0  0  0  0
   48.3886    5.0597   21.5969 C   0  0  0  0  0  0  0  0  0  0  0  0
   47.0126    5.0113   23.5123 F   0  0  0  0  0  0  0  0  0  0  0  0
   47.8332    9.1331   21.3897 F   0  0  0  0  0  0  0  0  0  0  0  0
   50.3904   14.0190    7.3848 C   0  0  0  0  0  0  0  0  0  0  0  0
   47.3246   11.4371   12.5316 H   0  0  0  0  0  0  0  0  0  0  0  0
   51.2986   10.3609   11.3541 H   0  0  0  0  0  0  0  0  0  0  0  0
   47.2311    9.4966   14.0324 H   0  0  0  0  0  0  0  0  0  0  0  0
   48.4707   10.9158    9.4298 H   0  0  0  0  0  0  0  0  0  0  0  0
   47.3430   12.0750   10.1643 H   0  0  0  0  0  0  0  0  0  0  0  0
   48.5039   13.9527    9.0687 H   0  0  0  0  0  0  0  0  0  0  0  0
   47.9215   12.7854    7.8825 H   0  0  0  0  0  0  0  0  0  0  0  0
   51.1612   11.3619    9.0725 H   0  0  0  0  0  0  0  0  0  0  0  0
   51.9856   12.8950    8.9263 H   0  0  0  0  0  0  0  0  0  0  0  0
   50.4424   13.8789   10.6620 H   0  0  0  0  0  0  0  0  0  0  0  0
   51.4004   12.5660   11.2874 H   0  0  0  0  0  0  0  0  0  0  0  0
   51.4923    7.7082   13.8434 H   0  0  0  0  0  0  0  0  0  0  0  0
   53.0202    9.6327   12.6241 H   0  0  0  0  0  0  0  0  0  0  0  0
   52.7453    8.9557   10.3833 H   0  0  0  0  0  0  0  0  0  0  0  0
   52.4976    7.2638   10.7601 H   0  0  0  0  0  0  0  0  0  0  0  0
   54.7877    8.1239    9.7058 H   0  0  0  0  0  0  0  0  0  0  0  0
   54.8023    6.8092   10.8814 H   0  0  0  0  0  0  0  0  0  0  0  0
   55.6514    9.0798   13.5714 H   0  0  0  0  0  0  0  0  0  0  0  0
   56.0019    7.4088   13.1256 H   0  0  0  0  0  0  0  0  0  0  0  0
   53.7386    8.0665   14.4483 H   0  0  0  0  0  0  0  0  0  0  0  0
   53.7751    6.7581   13.2847 H   0  0  0  0  0  0  0  0  0  0  0  0
   47.5511    6.9752   13.3409 H   0  0  0  0  0  0  0  0  0  0  0  0
   46.1756    3.0334   14.6823 H   0  0  0  0  0  0  0  0  0  0  0  0
   49.3607    6.4833   17.2359 H   0  0  0  0  0  0  0  0  0  0  0  0
   48.4828    2.7255   19.1532 H   0  0  0  0  0  0  0  0  0  0  0  0
   47.0879    2.0358   17.2296 H   0  0  0  0  0  0  0  0  0  0  0  0
   50.3327    4.2086   19.9619 H   0  0  0  0  0  0  0  0  0  0  0  0
   50.6559    5.7340   19.1948 H   0  0  0  0  0  0  0  0  0  0  0  0
   49.2618    7.7669   19.7216 H   0  0  0  0  0  0  0  0  0  0  0  0
   46.7875    7.5930   23.2173 H   0  0  0  0  0  0  0  0  0  0  0  0
   48.4981    3.9829   21.6690 H   0  0  0  0  0  0  0  0  0  0  0  0
   51.3479   13.8787    6.8709 H   0  0  0  0  0  0  0  0  0  0  0  0
   49.6522   14.2551    6.6099 H   0  0  0  0  0  0  0  0  0  0  0  0
   50.4808   14.8816    8.0542 H   0  0  0  0  0  0  0  0  0  0  0  0
  1  2  2  0
  1  6  1  0
  2  3  1  0
  3  4  2  0
  4  5  1  0
  5  6  2  0
  2  7  1  0
  7  8  1  0
 12  7  1  0
  8  9  1  0
  9 10  1  0
 10 11  1  0
 11 12  1  0
  4 13  1  0
 13 14  1  0
 14 15  1  0
 19 14  1  0
 15 16  1  0
 16 17  1  0
 17 18  1  0
 18 19  1  0
  5 20  1  0
 20 21  1  0
 20 22  2  0
 21 23  1  0
 23 24  2  0
 23 27  1  0
 24 25  1  0
 25 26  1  0
 31 26  2  0
 26 27  1  0
 27 28  2  0
 28 29  1  0
 29 30  2  0
 30 31  1  0
 29 32  1  0
 32 33  1  0
 33 34  2  0
 33 38  1  0
 34 35  1  0
 35 36  2  0
 36 37  1  0
 37 38  2  0
 37 39  1  0
 35 40  1  0
 10 41  1  0
  1 42  1  0
  3 43  1  0
  6 44  1  0
  8 45  1  0
  8 46  1  0
  9 47  1  0
  9 48  1  0
 11 49  1  0
 11 50  1  0
 12 51  1  0
 12 52  1  0
 13 53  1  0
 14 54  1  0
 15 55  1  0
 15 56  1  0
 16 57  1  0
 16 58  1  0
 18 59  1  0
 18 60  1  0
 19 61  1  0
 19 62  1  0
 21 63  1  0
 25 64  1  0
 28 65  1  0
 30 66  1  0
 31 67  1  0
 32 68  1  0
 32 69  1  0
 34 70  1  0
 36 71  1  0
 38 72  1  0
 41 73  1  0
 41 74  1  0
 41 75  1  0
M  END
> <Uni-Dock RESULT> 
ENERGY=   -5.369  LOWER_BOUND=    6.963  UPPER_BOUND=   10.048
INTER + INTRA:          -5.369
INTER:                  -5.369
INTRA:                   0.000
UNBOUND:                 0.000

$$$$

     RDKit          3D

 75 80  0  0  0  0  0  0  0  0999 V2000
   51.7098    7.0620   16.1370 C   0  0  0  0  0  0  0  0  0  0  0  0
   51.6936    7.3253   17.5124 C   0  0  0  0  0  0  0  0  0  0  0  0
   50.5356    7.9144   18.0538 C   0  0  0  0  0  0  0  0  0  0  0  0
   49.4184    8.2670   17.2737 C   0  0  0  0  0  0  0  0  0  0  0  0
   49.4705    7.9374   15.9023 C   0  0  0  0  0  0  0  0  0  0  0  0
   50.6097    7.3569   15.3327 C   0  0  0  0  0  0  0  0  0  0  0  0
   52.8108    6.9680   18.2820 N   0  0  0  0  0  0  0  0  0  0  0  0
   52.9782    5.4938   18.3729 C   0  0  0  0  0  0  0  0  0  0  0  0
   53.9390    5.1116   19.5226 C   0  0  0  0  0  0  0  0  0  0  0  0
   53.4578    5.5367   20.8567 N   0  0  0  0  0  0  0  0  0  0  0  0
   52.7432    6.8320   20.7831 C   0  0  0  0  0  0  0  0  0  0  0  0
   53.0835    7.6918   19.5449 C   0  0  0  0  0  0  0  0  0  0  0  0
   48.2307    8.7747   17.8343 N   0  0  0  0  0  0  0  0  0  0  0  0
   48.2249    9.4388   19.1429 C   0  0  0  0  0  0  0  0  0  0  0  0
   47.8857    8.4268   20.2490 C   0  0  0  0  0  0  0  0  0  0  0  0
   47.2122    9.0955   21.4418 C   0  0  0  0  0  0  0  0  0  0  0  0
   47.6564   10.4408   21.5579 O   0  0  0  0  0  0  0  0  0  0  0  0
   47.1719   11.2650   20.4955 C   0  0  0  0  0  0  0  0  0  0  0  0
   47.1788   10.5554   19.1456 C   0  0  0  0  0  0  0  0  0  0  0  0
   48.3065    8.2190   15.0214 C   0  0  0  0  0  0  0  0  0  0  0  0
   47.8749    7.1270   14.3125 N   0  0  0  0  0  0  0  0  0  0  0  0
   47.8061    9.3372   15.0595 O   0  0  0  0  0  0  0  0  0  0  0  0
   46.8036    7.0639   13.4512 C   0  0  0  0  0  0  0  0  0  0  0  0
   46.3475    5.8387   13.1596 N   0  0  0  0  0  0  0  0  0  0  0  0
   45.2918    6.0647   12.3654 N   0  0  0  0  0  0  0  0  0  0  0  0
   45.0751    7.3815   12.0750 C   0  0  0  0  0  0  0  0  0  0  0  0
   46.0693    8.0753   12.7613 C   0  0  0  0  0  0  0  0  0  0  0  0
   46.1239    9.4759   12.5944 C   0  0  0  0  0  0  0  0  0  0  0  0
   45.1704   10.1355   11.7942 C   0  0  0  0  0  0  0  0  0  0  0  0
   44.1748    9.3903   11.1510 C   0  0  0  0  0  0  0  0  0  0  0  0
   44.1099    7.9995   11.2752 C   0  0  0  0  0  0  0  0  0  0  0  0
   45.2555   11.6334   11.6060 C   0  0  0  0  0  0  0  0  0  0  0  0
   46.0862   12.0370   10.4107 C   0  0  0  0  0  0  0  0  0  0  0  0
   47.4692   12.2296   10.5347 C   0  0  0  0  0  0  0  0  0  0  0  0
   48.2337   12.5679    9.4187 C   0  0  0  0  0  0  0  0  0  0  0  0
   47.6504   12.7235    8.1697 C   0  0  0  0  0  0  0  0  0  0  0  0
   46.2827   12.5313    8.0468 C   0  0  0  0  0  0  0  0  0  0  0  0
   45.4976   12.1903    9.1470 C   0  0  0  0  0  0  0  0  0  0  0  0
   45.7054   12.6673    6.8463 F   0  0  0  0  0  0  0  0  0  0  0  0
   49.5574   12.7358    9.5528 F   0  0  0  0  0  0  0  0  0  0  0  0
   54.5611    5.5783   21.8119 C   0  0  0  0  0  0  0  0  0  0  0  0
   52.5982    6.6338   15.6810 H   0  0  0  0  0  0  0  0  0  0  0  0
   50.4973    8.0728   19.1238 H   0  0  0  0  0  0  0  0  0  0  0  0
   50.6592    7.1511   14.2670 H   0  0  0  0  0  0  0  0  0  0  0  0
   52.0086    5.0082   18.5473 H   0  0  0  0  0  0  0  0  0  0  0  0
   53.3866    5.1084   17.4311 H   0  0  0  0  0  0  0  0  0  0  0  0
   54.9200    5.5548   19.3080 H   0  0  0  0  0  0  0  0  0  0  0  0
   54.0725    4.0246   19.5288 H   0  0  0  0  0  0  0  0  0  0  0  0
   51.6706    6.6023   20.7632 H   0  0  0  0  0  0  0  0  0  0  0  0
   52.9002    7.4253   21.6918 H   0  0  0  0  0  0  0  0  0  0  0  0
   54.1546    7.9320   19.5631 H   0  0  0  0  0  0  0  0  0  0  0  0
   52.5732    8.6604   19.5959 H   0  0  0  0  0  0  0  0  0  0  0  0
   47.7178    9.3021   17.1154 H   0  0  0  0  0  0  0  0  0  0  0  0
   49.1977    9.9085   19.3440 H   0  0  0  0  0  0  0  0  0  0  0  0
   48.8098    7.9449   20.5888 H   0  0  0  0  0  0  0  0  0  0  0  0
   47.2413    7.6188   19.8820 H   0  0  0  0  0  0  0  0  0  0  0  0
   47.4703    8.5605   22.3634 H   0  0  0  0  0  0  0  0  0  0  0  0
   46.1212    9.0754   21.3507 H   0  0  0  0  0  0  0  0  0  0  0  0
   47.8231   12.1442   20.4567 H   0  0  0  0  0  0  0  0  0  0  0  0
   46.1633   11.6179   20.7433 H   0  0  0  0  0  0  0  0  0  0  0  0
   47.3512   11.2788   18.3395 H   0  0  0  0  0  0  0  0  0  0  0  0
   46.1855   10.1275   18.9585 H   0  0  0  0  0  0  0  0  0  0  0  0
   48.2176    6.2087   14.5651 H   0  0  0  0  0  0  0  0  0  0  0  0
   44.7616    5.2671   12.0355 H   0  0  0  0  0  0  0  0  0  0  0  0
   46.9108   10.0497   13.0727 H   0  0  0  0  0  0  0  0  0  0  0  0
   43.4386    9.8907   10.5259 H   0  0  0  0  0  0  0  0  0  0  0  0
   43.3429    7.4295   10.7597 H   0  0  0  0  0  0  0  0  0  0  0  0
   44.2439   12.0489   11.5104 H   0  0  0  0  0  0  0  0  0  0  0  0
   45.6623   12.1001   12.5131 H   0  0  0  0  0  0  0  0  0  0  0  0
   47.9672   12.1049   11.4927 H   0  0  0  0  0  0  0  0  0  0  0  0
   48.2540   12.9771    7.3060 H   0  0  0  0  0  0  0  0  0  0  0  0
   44.4340   12.0344    9.0015 H   0  0  0  0  0  0  0  0  0  0  0  0
   54.1864    5.7903   22.8194 H   0  0  0  0  0  0  0  0  0  0  0  0
   55.0639    4.6059   21.8642 H   0  0  0  0  0  0  0  0  0  0  0  0
   55.3035    6.3408   21.5519 H   0  0  0  0  0  0  0  0  0  0  0  0
  1  2  2  0
  1  6  1  0
  2  3  1  0
  3  4  2  0
  4  5  1  0
  5  6  2  0
  2  7  1  0
  7  8  1  0
 12  7  1  0
  8  9  1  0
  9 10  1  0
 10 11  1  0
 11 12  1  0
  4 13  1  0
 13 14  1  0
 14 15  1  0
 19 14  1  0
 15 16  1  0
 16 17  1  0
 17 18  1  0
 18 19  1  0
  5 20  1  0
 20 21  1  0
 20 22  2  0
 21 23  1  0
 23 24  2  0
 23 27  1  0
 24 25  1  0
 25 26  1  0
 31 26  2  0
 26 27  1  0
 27 28  2  0
 28 29  1  0
 29 30  2  0
 30 31  1  0
 29 32  1  0
 32 33  1  0
 33 34  2  0
 33 38  1  0
 34 35  1  0
 35 36  2  0
 36 37  1  0
 37 38  2  0
 37 39  1  0
 35 40  1  0
 10 41  1  0
  1 42  1  0
  3 43  1  0
  6 44  1  0
  8 45  1  0
  8 46  1  0
  9 47  1  0
  9 48  1  0
 11 49  1  0
 11 50  1  0
 12 51  1  0
 12 52  1  0
 13 53  1  0
 14 54  1  0
 15 55  1  0
 15 56  1  0
 16 57  1  0
 16 58  1  0
 18 59  1  0
 18 60  1  0
 19 61  1  0
 19 62  1  0
 21 63  1  0
 25 64  1  0
 28 65  1  0
 30 66  1  0
 31 67  1  0
 32 68  1  0
 32 69  1  0
 34 70  1  0
 36 71  1  0
 38 72  1  0
 41 73  1  0
 41 74  1  0
 41 75  1  0
M  END
> <Uni-Dock RESULT> 
ENERGY=   -5.028  LOWER_BOUND=    6.223  UPPER_BOUND=   10.225
INTER + INTRA:          -5.028
INTER:                  -5.028
INTRA:                   0.000
UNBOUND:                 0.000

$$$$
