
     RDKit          3D

 75 80  0  0  0  0  0  0  0  0999 V2000
   45.7003   11.3211   11.4554 C   0  0  0  0  0  0  0  0  0  0  0  0
   44.5481   10.7395   10.9152 C   0  0  0  0  0  0  0  0  0  0  0  0
   44.2452    9.4287   11.3427 C   0  0  0  0  0  0  0  0  0  0  0  0
   45.0658    8.6768   12.2066 C   0  0  0  0  0  0  0  0  0  0  0  0
   46.1889    9.3259   12.7549 C   0  0  0  0  0  0  0  0  0  0  0  0
   46.5141   10.6311   12.3602 C   0  0  0  0  0  0  0  0  0  0  0  0
   43.6898   11.4048   10.0378 N   0  0  0  0  0  0  0  0  0  0  0  0
   43.2641   10.6681    8.8201 C   0  0  0  0  0  0  0  0  0  0  0  0
   44.2386   10.9362    7.6469 C   0  0  0  0  0  0  0  0  0  0  0  0
   44.3721   12.3798    7.3415 N   0  0  0  0  0  0  0  0  0  0  0  0
   44.7880   13.1058    8.5628 C   0  0  0  0  0  0  0  0  0  0  0  0
   43.8403   12.8496    9.7604 C   0  0  0  0  0  0  0  0  0  0  0  0
   44.7034    7.3720   12.6152 N   0  0  0  0  0  0  0  0  0  0  0  0
   44.1633    6.4474   11.6043 C   0  0  0  0  0  0  0  0  0  0  0  0
   43.6800    5.1814   12.3100 C   0  0  0  0  0  0  0  0  0  0  0  0
   43.1238    4.1855   11.2952 C   0  0  0  0  0  0  0  0  0  0  0  0
   43.7083    4.3098    9.9954 O   0  0  0  0  0  0  0  0  0  0  0  0
   45.0851    4.6684   10.0494 C   0  0  0  0  0  0  0  0  0  0  0  0
   45.2274    6.0989   10.5522 C   0  0  0  0  0  0  0  0  0  0  0  0
   47.0750    8.6193   13.7273 C   0  0  0  0  0  0  0  0  0  0  0  0
   47.4768    9.4012   14.7899 N   0  0  0  0  0  0  0  0  0  0  0  0
   47.3287    7.4372   13.5219 O   0  0  0  0  0  0  0  0  0  0  0  0
   48.3479    9.0114   15.7887 C   0  0  0  0  0  0  0  0  0  0  0  0
   48.9857    7.8415   15.8406 N   0  0  0  0  0  0  0  0  0  0  0  0
   49.7287    7.9121   16.9519 N   0  0  0  0  0  0  0  0  0  0  0  0
   49.6117    9.0923   17.6331 C   0  0  0  0  0  0  0  0  0  0  0  0
   48.6996    9.8394   16.8993 C   0  0  0  0  0  0  0  0  0  0  0  0
   48.3577   11.1299   17.3549 C   0  0  0  0  0  0  0  0  0  0  0  0
   48.9468   11.6303   18.5325 C   0  0  0  0  0  0  0  0  0  0  0  0
   49.8708   10.8422   19.2336 C   0  0  0  0  0  0  0  0  0  0  0  0
   50.2181    9.5561   18.8026 C   0  0  0  0  0  0  0  0  0  0  0  0
   48.6092   13.0235   19.0160 C   0  0  0  0  0  0  0  0  0  0  0  0
   49.4469   14.0978   18.3635 C   0  0  0  0  0  0  0  0  0  0  0  0
   50.6767   14.4797   18.9178 C   0  0  0  0  0  0  0  0  0  0  0  0
   51.4539   15.4531   18.2923 C   0  0  0  0  0  0  0  0  0  0  0  0
   51.0385   16.0592   17.1154 C   0  0  0  0  0  0  0  0  0  0  0  0
   49.8258   15.6767   16.5630 C   0  0  0  0  0  0  0  0  0  0  0  0
   49.0285   14.7091   17.1715 C   0  0  0  0  0  0  0  0  0  0  0  0
   49.4119   16.2436   15.4222 F   0  0  0  0  0  0  0  0  0  0  0  0
   52.6241   15.8072   18.8383 F   0  0  0  0  0  0  0  0  0  0  0  0
   45.3308   12.5922    6.2600 C   0  0  0  0  0  0  0  0  0  0  0  0
   46.0079   12.3247   11.1781 H   0  0  0  0  0  0  0  0  0  0  0  0
   43.3020    8.9954   11.0214 H   0  0  0  0  0  0  0  0  0  0  0  0
   47.4152   11.1167   12.7266 H   0  0  0  0  0  0  0  0  0  0  0  0
   43.1766    9.5880    8.9738 H   0  0  0  0  0  0  0  0  0  0  0  0
   42.2601   11.0153    8.5433 H   0  0  0  0  0  0  0  0  0  0  0  0
   43.8577   10.4124    6.7619 H   0  0  0  0  0  0  0  0  0  0  0  0
   45.2196   10.5051    7.8884 H   0  0  0  0  0  0  0  0  0  0  0  0
   44.7942   14.1834    8.3590 H   0  0  0  0  0  0  0  0  0  0  0  0
   45.8115   12.8209    8.8381 H   0  0  0  0  0  0  0  0  0  0  0  0
   42.8478   13.2491    9.5130 H   0  0  0  0  0  0  0  0  0  0  0  0
   44.1649   13.4074   10.6461 H   0  0  0  0  0  0  0  0  0  0  0  0
   45.5112    6.9389   13.0888 H   0  0  0  0  0  0  0  0  0  0  0  0
   43.2888    6.8841   11.1089 H   0  0  0  0  0  0  0  0  0  0  0  0
   44.5181    4.7179   12.8469 H   0  0  0  0  0  0  0  0  0  0  0  0
   42.9235    5.4061   13.0718 H   0  0  0  0  0  0  0  0  0  0  0  0
   42.0466    4.3397   11.1715 H   0  0  0  0  0  0  0  0  0  0  0  0
   43.2624    3.1586   11.6501 H   0  0  0  0  0  0  0  0  0  0  0  0
   45.5064    4.5802    9.0422 H   0  0  0  0  0  0  0  0  0  0  0  0
   45.6247    3.9608   10.6891 H   0  0  0  0  0  0  0  0  0  0  0  0
   45.1085    6.7907    9.7084 H   0  0  0  0  0  0  0  0  0  0  0  0
   46.2495    6.2469   10.9214 H   0  0  0  0  0  0  0  0  0  0  0  0
   47.0709   10.3170   14.8988 H   0  0  0  0  0  0  0  0  0  0  0  0
   50.3053    7.1131   17.1894 H   0  0  0  0  0  0  0  0  0  0  0  0
   47.6466   11.7328   16.7994 H   0  0  0  0  0  0  0  0  0  0  0  0
   50.3388   11.2285   20.1378 H   0  0  0  0  0  0  0  0  0  0  0  0
   50.9341    8.9564   19.3544 H   0  0  0  0  0  0  0  0  0  0  0  0
   47.5446   13.2246   18.8378 H   0  0  0  0  0  0  0  0  0  0  0  0
   48.7241   13.0777   20.1065 H   0  0  0  0  0  0  0  0  0  0  0  0
   51.0442   14.0242   19.8340 H   0  0  0  0  0  0  0  0  0  0  0  0
   51.6521   16.8122   16.6356 H   0  0  0  0  0  0  0  0  0  0  0  0
   48.0866   14.4392   16.7036 H   0  0  0  0  0  0  0  0  0  0  0  0
   45.0043   12.0733    5.3521 H   0  0  0  0  0  0  0  0  0  0  0  0
   45.3929   13.6580    6.0092 H   0  0  0  0  0  0  0  0  0  0  0  0
   46.3361   12.2374    6.5171 H   0  0  0  0  0  0  0  0  0  0  0  0
  1  2  2  0
  1  6  1  0
  2  3  1  0
  3  4  2  0
  4  5  1  0
  5  6  2  0
  2  7  1  0
  7  8  1  0
 12  7  1  0
  8  9  1  0
  9 10  1  0
 10 11  1  0
 11 12  1  0
  4 13  1  0
 13 14  1  0
 14 15  1  0
 19 14  1  0
 15 16  1  0
 16 17  1  0
 17 18  1  0
 18 19  1  0
  5 20  1  0
 20 21  1  0
 20 22  2  0
 21 23  1  0
 23 24  2  0
 23 27  1  0
 24 25  1  0
 25 26  1  0
 31 26  2  0
 26 27  1  0
 27 28  2  0
 28 29  1  0
 29 30  2  0
 30 31  1  0
 29 32  1  0
 32 33  1  0
 33 34  2  0
 33 38  1  0
 34 35  1  0
 35 36  2  0
 36 37  1  0
 37 38  2  0
 37 39  1  0
 35 40  1  0
 10 41  1  0
  1 42  1  0
  3 43  1  0
  6 44  1  0
  8 45  1  0
  8 46  1  0
  9 47  1  0
  9 48  1  0
 11 49  1  0
 11 50  1  0
 12 51  1  0
 12 52  1  0
 13 53  1  0
 14 54  1  0
 15 55  1  0
 15 56  1  0
 16 57  1  0
 16 58  1  0
 18 59  1  0
 18 60  1  0
 19 61  1  0
 19 62  1  0
 21 63  1  0
 25 64  1  0
 28 65  1  0
 30 66  1  0
 31 67  1  0
 32 68  1  0
 32 69  1  0
 34 70  1  0
 36 71  1  0
 38 72  1  0
 41 73  1  0
 41 74  1  0
 41 75  1  0
M  END
> <Uni-Dock RESULT> 
ENERGY=   -5.168  LOWER_BOUND=    0.000  UPPER_BOUND=    0.000
INTER + INTRA:          -5.168
INTER:                  -5.168
INTRA:                   0.000
UNBOUND:                 0.000

$$$$

     RDKit          3D

 75 80  0  0  0  0  0  0  0  0999 V2000
   46.1323   10.9753   11.7420 C   0  0  0  0  0  0  0  0  0  0  0  0
   44.8505   10.4867   11.4667 C   0  0  0  0  0  0  0  0  0  0  0  0
   44.5787    9.1646   11.8803 C   0  0  0  0  0  0  0  0  0  0  0  0
   45.5347    8.3172   12.4745 C   0  0  0  0  0  0  0  0  0  0  0  0
   46.7944    8.8739   12.7685 C   0  0  0  0  0  0  0  0  0  0  0  0
   47.0953   10.1870   12.3809 C   0  0  0  0  0  0  0  0  0  0  0  0
   43.8494   11.2505   10.8637 N   0  0  0  0  0  0  0  0  0  0  0  0
   43.0992   10.6210    9.7468 C   0  0  0  0  0  0  0  0  0  0  0  0
   43.7782   10.9249    8.3887 C   0  0  0  0  0  0  0  0  0  0  0  0
   43.9233   12.3786    8.1420 N   0  0  0  0  0  0  0  0  0  0  0  0
   44.6642   12.9977    9.2643 C   0  0  0  0  0  0  0  0  0  0  0  0
   44.0177   12.7027   10.6401 C   0  0  0  0  0  0  0  0  0  0  0  0
   45.2011    7.0053   12.8847 N   0  0  0  0  0  0  0  0  0  0  0  0
   44.3781    6.1793   11.9851 C   0  0  0  0  0  0  0  0  0  0  0  0
   44.0012    4.8909   12.7146 C   0  0  0  0  0  0  0  0  0  0  0  0
   43.1572    3.9949   11.8112 C   0  0  0  0  0  0  0  0  0  0  0  0
   43.4191    4.1825   10.4175 O   0  0  0  0  0  0  0  0  0  0  0  0
   44.7881    4.4724   10.1547 C   0  0  0  0  0  0  0  0  0  0  0  0
   45.1349    5.8563   10.6877 C   0  0  0  0  0  0  0  0  0  0  0  0
   47.8427    8.0610   13.4543 C   0  0  0  0  0  0  0  0  0  0  0  0
   48.5353    8.7474   14.4295 N   0  0  0  0  0  0  0  0  0  0  0  0
   47.9662    6.8856   13.1269 O   0  0  0  0  0  0  0  0  0  0  0  0
   49.5950    8.2490   15.1624 C   0  0  0  0  0  0  0  0  0  0  0  0
   50.1531    7.0501   14.9913 N   0  0  0  0  0  0  0  0  0  0  0  0
   51.1441    7.0087   15.8903 N   0  0  0  0  0  0  0  0  0  0  0  0
   51.2671    8.1427   16.6450 C   0  0  0  0  0  0  0  0  0  0  0  0
   50.2535    8.9805   16.1989 C   0  0  0  0  0  0  0  0  0  0  0  0
   50.1113   10.2504   16.7962 C   0  0  0  0  0  0  0  0  0  0  0  0
   50.9956   10.6397   17.8212 C   0  0  0  0  0  0  0  0  0  0  0  0
   52.0104    9.7628   18.2304 C   0  0  0  0  0  0  0  0  0  0  0  0
   52.1640    8.4952   17.6559 C   0  0  0  0  0  0  0  0  0  0  0  0
   50.8706   12.0099   18.4503 C   0  0  0  0  0  0  0  0  0  0  0  0
   51.5918   13.0872   17.6752 C   0  0  0  0  0  0  0  0  0  0  0  0
   52.9398   13.3723   17.9339 C   0  0  0  0  0  0  0  0  0  0  0  0
   53.6027   14.3500   17.1940 C   0  0  0  0  0  0  0  0  0  0  0  0
   52.9552   15.0553   16.1898 C   0  0  0  0  0  0  0  0  0  0  0  0
   51.6241   14.7687   15.9287 C   0  0  0  0  0  0  0  0  0  0  0  0
   50.9380   13.7989   16.6574 C   0  0  0  0  0  0  0  0  0  0  0  0
   50.9842   15.4323   14.9569 F   0  0  0  0  0  0  0  0  0  0  0  0
   54.8894   14.6107   17.4577 F   0  0  0  0  0  0  0  0  0  0  0  0
   44.6055   12.6215    6.8734 C   0  0  0  0  0  0  0  0  0  0  0  0
   46.4256   11.9805   11.4553 H   0  0  0  0  0  0  0  0  0  0  0  0
   43.5611    8.7989   11.7745 H   0  0  0  0  0  0  0  0  0  0  0  0
   48.0862   10.6037   12.5436 H   0  0  0  0  0  0  0  0  0  0  0  0
   42.9846    9.5380    9.8559 H   0  0  0  0  0  0  0  0  0  0  0  0
   42.0814   11.0326    9.7430 H   0  0  0  0  0  0  0  0  0  0  0  0
   43.1643   10.4824    7.5950 H   0  0  0  0  0  0  0  0  0  0  0  0
   44.7598   10.4332    8.3592 H   0  0  0  0  0  0  0  0  0  0  0  0
   44.6878   14.0854    9.1262 H   0  0  0  0  0  0  0  0  0  0  0  0
   45.7042   12.6473    9.2655 H   0  0  0  0  0  0  0  0  0  0  0  0
   43.0215   13.1639   10.6648 H   0  0  0  0  0  0  0  0  0  0  0  0
   44.5793   13.1817   11.4501 H   0  0  0  0  0  0  0  0  0  0  0  0
   46.0707    6.5032   13.1220 H   0  0  0  0  0  0  0  0  0  0  0  0
   43.4390    6.6895   11.7432 H   0  0  0  0  0  0  0  0  0  0  0  0
   44.9134    4.3528   13.0042 H   0  0  0  0  0  0  0  0  0  0  0  0
   43.4651    5.0966   13.6492 H   0  0  0  0  0  0  0  0  0  0  0  0
   42.0935    4.2071   11.9625 H   0  0  0  0  0  0  0  0  0  0  0  0
   43.3133    2.9405   12.0631 H   0  0  0  0  0  0  0  0  0  0  0  0
   44.9490    4.4354    9.0719 H   0  0  0  0  0  0  0  0  0  0  0  0
   45.4207    3.6978   10.6027 H   0  0  0  0  0  0  0  0  0  0  0  0
   44.8598    6.6100    9.9387 H   0  0  0  0  0  0  0  0  0  0  0  0
   46.2229    5.9308   10.8045 H   0  0  0  0  0  0  0  0  0  0  0  0
   48.2248    9.6712   14.6855 H   0  0  0  0  0  0  0  0  0  0  0  0
   51.7104    6.1693   15.9348 H   0  0  0  0  0  0  0  0  0  0  0  0
   49.3262   10.9228   16.4655 H   0  0  0  0  0  0  0  0  0  0  0  0
   52.7047   10.0630   19.0138 H   0  0  0  0  0  0  0  0  0  0  0  0
   52.9531    7.8260   17.9819 H   0  0  0  0  0  0  0  0  0  0  0  0
   49.8088   12.2719   18.5484 H   0  0  0  0  0  0  0  0  0  0  0  0
   51.2470   11.9825   19.4812 H   0  0  0  0  0  0  0  0  0  0  0  0
   53.4878   12.8375   18.7057 H   0  0  0  0  0  0  0  0  0  0  0  0
   53.4809   15.8108   15.6184 H   0  0  0  0  0  0  0  0  0  0  0  0
   49.8966   13.6061   16.4185 H   0  0  0  0  0  0  0  0  0  0  0  0
   44.0392   12.1828    6.0445 H   0  0  0  0  0  0  0  0  0  0  0  0
   44.6713   13.6982    6.6756 H   0  0  0  0  0  0  0  0  0  0  0  0
   45.6192   12.2035    6.8574 H   0  0  0  0  0  0  0  0  0  0  0  0
  1  2  2  0
  1  6  1  0
  2  3  1  0
  3  4  2  0
  4  5  1  0
  5  6  2  0
  2  7  1  0
  7  8  1  0
 12  7  1  0
  8  9  1  0
  9 10  1  0
 10 11  1  0
 11 12  1  0
  4 13  1  0
 13 14  1  0
 14 15  1  0
 19 14  1  0
 15 16  1  0
 16 17  1  0
 17 18  1  0
 18 19  1  0
  5 20  1  0
 20 21  1  0
 20 22  2  0
 21 23  1  0
 23 24  2  0
 23 27  1  0
 24 25  1  0
 25 26  1  0
 31 26  2  0
 26 27  1  0
 27 28  2  0
 28 29  1  0
 29 30  2  0
 30 31  1  0
 29 32  1  0
 32 33  1  0
 33 34  2  0
 33 38  1  0
 34 35  1  0
 35 36  2  0
 36 37  1  0
 37 38  2  0
 37 39  1  0
 35 40  1  0
 10 41  1  0
  1 42  1  0
  3 43  1  0
  6 44  1  0
  8 45  1  0
  8 46  1  0
  9 47  1  0
  9 48  1  0
 11 49  1  0
 11 50  1  0
 12 51  1  0
 12 52  1  0
 13 53  1  0
 14 54  1  0
 15 55  1  0
 15 56  1  0
 16 57  1  0
 16 58  1  0
 18 59  1  0
 18 60  1  0
 19 61  1  0
 19 62  1  0
 21 63  1  0
 25 64  1  0
 28 65  1  0
 30 66  1  0
 31 67  1  0
 32 68  1  0
 32 69  1  0
 34 70  1  0
 36 71  1  0
 38 72  1  0
 41 73  1  0
 41 74  1  0
 41 75  1  0
M  END
> <Uni-Dock RESULT> 
ENERGY=   -4.856  LOWER_BOUND=    1.490  UPPER_BOUND=    1.619
INTER + INTRA:          -4.856
INTER:                  -4.856
INTRA:                   0.000
UNBOUND:                 0.000

$$$$

     RDKit          3D

 75 80  0  0  0  0  0  0  0  0999 V2000
   48.5010    7.9238   15.2348 C   0  0  0  0  0  0  0  0  0  0  0  0
   48.3340    6.5435   15.0781 C   0  0  0  0  0  0  0  0  0  0  0  0
   47.6139    6.1221   13.9394 C   0  0  0  0  0  0  0  0  0  0  0  0
   47.0125    7.0054   13.0213 C   0  0  0  0  0  0  0  0  0  0  0  0
   47.2493    8.3819   13.2023 C   0  0  0  0  0  0  0  0  0  0  0  0
   47.9687    8.8352   14.3168 C   0  0  0  0  0  0  0  0  0  0  0  0
   48.8783    5.5990   15.9504 N   0  0  0  0  0  0  0  0  0  0  0  0
   47.9792    4.5126   16.4170 C   0  0  0  0  0  0  0  0  0  0  0  0
   47.2624    4.9176   17.7285 C   0  0  0  0  0  0  0  0  0  0  0  0
   48.2146    5.2804   18.8041 N   0  0  0  0  0  0  0  0  0  0  0  0
   49.1112    6.3572   18.3265 C   0  0  0  0  0  0  0  0  0  0  0  0
   49.8354    5.9889   17.0082 C   0  0  0  0  0  0  0  0  0  0  0  0
   46.3161    6.5261   11.8873 N   0  0  0  0  0  0  0  0  0  0  0  0
   45.4063    5.3807   12.0579 C   0  0  0  0  0  0  0  0  0  0  0  0
   44.9190    4.9355   10.6800 C   0  0  0  0  0  0  0  0  0  0  0  0
   43.9586    3.7558   10.8105 C   0  0  0  0  0  0  0  0  0  0  0  0
   43.2508    3.7319   12.0534 O   0  0  0  0  0  0  0  0  0  0  0  0
   42.9376    5.0376   12.5270 C   0  0  0  0  0  0  0  0  0  0  0  0
   44.2132    5.7533   12.9513 C   0  0  0  0  0  0  0  0  0  0  0  0
   46.6996    9.3805   12.2376 C   0  0  0  0  0  0  0  0  0  0  0  0
   47.5803   10.3912   11.9146 N   0  0  0  0  0  0  0  0  0  0  0  0
   45.5664    9.2000   11.8048 O   0  0  0  0  0  0  0  0  0  0  0  0
   47.2984   11.4716   11.1010 C   0  0  0  0  0  0  0  0  0  0  0  0
   46.1098   11.7369   10.5579 N   0  0  0  0  0  0  0  0  0  0  0  0
   46.2961   12.8762    9.8803 N   0  0  0  0  0  0  0  0  0  0  0  0
   47.5651   13.3794    9.9633 C   0  0  0  0  0  0  0  0  0  0  0  0
   48.2583   12.4721   10.7536 C   0  0  0  0  0  0  0  0  0  0  0  0
   49.6212   12.7129   11.0262 C   0  0  0  0  0  0  0  0  0  0  0  0
   50.2436   13.8609   10.4983 C   0  0  0  0  0  0  0  0  0  0  0  0
   49.4991   14.7537    9.7142 C   0  0  0  0  0  0  0  0  0  0  0  0
   48.1475   14.5294    9.4256 C   0  0  0  0  0  0  0  0  0  0  0  0
   51.6974   14.1444   10.8066 C   0  0  0  0  0  0  0  0  0  0  0  0
   51.8963   14.8681   12.1175 C   0  0  0  0  0  0  0  0  0  0  0  0
   51.8767   16.2689   12.1701 C   0  0  0  0  0  0  0  0  0  0  0  0
   52.0344   16.9254   13.3895 C   0  0  0  0  0  0  0  0  0  0  0  0
   52.2078   16.2184   14.5706 C   0  0  0  0  0  0  0  0  0  0  0  0
   52.2200   14.8329   14.5201 C   0  0  0  0  0  0  0  0  0  0  0  0
   52.0688   14.1532   13.3129 C   0  0  0  0  0  0  0  0  0  0  0  0
   52.3769   14.1324   15.6509 F   0  0  0  0  0  0  0  0  0  0  0  0
   52.0162   18.2640   13.4196 F   0  0  0  0  0  0  0  0  0  0  0  0
   47.4994    5.6968   20.0079 C   0  0  0  0  0  0  0  0  0  0  0  0
   49.0392    8.3333   16.0842 H   0  0  0  0  0  0  0  0  0  0  0  0
   47.5615    5.0556   13.7381 H   0  0  0  0  0  0  0  0  0  0  0  0
   48.1000    9.8985   14.5013 H   0  0  0  0  0  0  0  0  0  0  0  0
   47.2299    4.2194   15.6748 H   0  0  0  0  0  0  0  0  0  0  0  0
   48.5889    3.6179   16.5989 H   0  0  0  0  0  0  0  0  0  0  0  0
   46.6503    4.0693   18.0575 H   0  0  0  0  0  0  0  0  0  0  0  0
   46.5821    5.7550   17.5229 H   0  0  0  0  0  0  0  0  0  0  0  0
   49.8740    6.5578   19.0885 H   0  0  0  0  0  0  0  0  0  0  0  0
   48.5413    7.2843   18.1847 H   0  0  0  0  0  0  0  0  0  0  0  0
   50.4935    5.1307   17.1984 H   0  0  0  0  0  0  0  0  0  0  0  0
   50.5000    6.7978   16.6845 H   0  0  0  0  0  0  0  0  0  0  0  0
   45.8089    7.3137   11.4549 H   0  0  0  0  0  0  0  0  0  0  0  0
   45.9371    4.5271   12.4942 H   0  0  0  0  0  0  0  0  0  0  0  0
   44.4007    5.7686   10.1872 H   0  0  0  0  0  0  0  0  0  0  0  0
   45.7547    4.6706   10.0209 H   0  0  0  0  0  0  0  0  0  0  0  0
   44.5128    2.8134   10.7462 H   0  0  0  0  0  0  0  0  0  0  0  0
   43.2339    3.7587    9.9892 H   0  0  0  0  0  0  0  0  0  0  0  0
   42.2577    4.9433   13.3806 H   0  0  0  0  0  0  0  0  0  0  0  0
   42.4038    5.5933   11.7478 H   0  0  0  0  0  0  0  0  0  0  0  0
   44.4601    5.4683   13.9821 H   0  0  0  0  0  0  0  0  0  0  0  0
   44.0249    6.8336   12.9743 H   0  0  0  0  0  0  0  0  0  0  0  0
   48.5313   10.3288   12.2417 H   0  0  0  0  0  0  0  0  0  0  0  0
   45.5054   13.2664    9.3804 H   0  0  0  0  0  0  0  0  0  0  0  0
   50.1846   12.0179   11.6405 H   0  0  0  0  0  0  0  0  0  0  0  0
   49.9716   15.6493    9.3136 H   0  0  0  0  0  0  0  0  0  0  0  0
   47.5828   15.2277    8.8172 H   0  0  0  0  0  0  0  0  0  0  0  0
   52.2602   13.2017   10.8148 H   0  0  0  0  0  0  0  0  0  0  0  0
   52.1443   14.7284    9.9914 H   0  0  0  0  0  0  0  0  0  0  0  0
   51.7347   16.8618   11.2700 H   0  0  0  0  0  0  0  0  0  0  0  0
   52.3260   16.7387   15.5135 H   0  0  0  0  0  0  0  0  0  0  0  0
   52.0835   13.0676   13.3197 H   0  0  0  0  0  0  0  0  0  0  0  0
   46.8570    4.8868   20.3705 H   0  0  0  0  0  0  0  0  0  0  0  0
   48.2081    5.9222   20.8139 H   0  0  0  0  0  0  0  0  0  0  0  0
   46.8748    6.5820   19.8377 H   0  0  0  0  0  0  0  0  0  0  0  0
  1  2  2  0
  1  6  1  0
  2  3  1  0
  3  4  2  0
  4  5  1  0
  5  6  2  0
  2  7  1  0
  7  8  1  0
 12  7  1  0
  8  9  1  0
  9 10  1  0
 10 11  1  0
 11 12  1  0
  4 13  1  0
 13 14  1  0
 14 15  1  0
 19 14  1  0
 15 16  1  0
 16 17  1  0
 17 18  1  0
 18 19  1  0
  5 20  1  0
 20 21  1  0
 20 22  2  0
 21 23  1  0
 23 24  2  0
 23 27  1  0
 24 25  1  0
 25 26  1  0
 31 26  2  0
 26 27  1  0
 27 28  2  0
 28 29  1  0
 29 30  2  0
 30 31  1  0
 29 32  1  0
 32 33  1  0
 33 34  2  0
 33 38  1  0
 34 35  1  0
 35 36  2  0
 36 37  1  0
 37 38  2  0
 37 39  1  0
 35 40  1  0
 10 41  1  0
  1 42  1  0
  3 43  1  0
  6 44  1  0
  8 45  1  0
  8 46  1  0
  9 47  1  0
  9 48  1  0
 11 49  1  0
 11 50  1  0
 12 51  1  0
 12 52  1  0
 13 53  1  0
 14 54  1  0
 15 55  1  0
 15 56  1  0
 16 57  1  0
 16 58  1  0
 18 59  1  0
 18 60  1  0
 19 61  1  0
 19 62  1  0
 21 63  1  0
 25 64  1  0
 28 65  1  0
 30 66  1  0
 31 67  1  0
 32 68  1  0
 32 69  1  0
 34 70  1  0
 36 71  1  0
 38 72  1  0
 41 73  1  0
 41 74  1  0
 41 75  1  0
M  END
> <Uni-Dock RESULT> 
ENERGY=   -4.582  LOWER_BOUND=    3.274  UPPER_BOUND=    7.332
INTER + INTRA:          -4.582
INTER:                  -4.582
INTRA:                   0.000
UNBOUND:                 0.000

$$$$

     RDKit          3D

 75 80  0  0  0  0  0  0  0  0999 V2000
   51.3732   11.5553   15.3167 C   0  0  0  0  0  0  0  0  0  0  0  0
   50.9549   12.8903   15.3349 C   0  0  0  0  0  0  0  0  0  0  0  0
   49.7542   13.1828   14.6525 C   0  0  0  0  0  0  0  0  0  0  0  0
   49.0200   12.2325   13.9158 C   0  0  0  0  0  0  0  0  0  0  0  0
   49.4616   10.8963   13.9678 C   0  0  0  0  0  0  0  0  0  0  0  0
   50.6446   10.5682   14.6446 C   0  0  0  0  0  0  0  0  0  0  0  0
   51.6322   13.8992   16.0223 N   0  0  0  0  0  0  0  0  0  0  0  0
   51.8795   15.1676   15.2898 C   0  0  0  0  0  0  0  0  0  0  0  0
   53.2419   15.1214   14.5553 C   0  0  0  0  0  0  0  0  0  0  0  0
   54.3702   14.8420   15.4740 N   0  0  0  0  0  0  0  0  0  0  0  0
   54.1102   13.5812   16.2050 C   0  0  0  0  0  0  0  0  0  0  0  0
   52.7483   13.5894   16.9419 C   0  0  0  0  0  0  0  0  0  0  0  0
   47.8129   12.5790   13.2648 N   0  0  0  0  0  0  0  0  0  0  0  0
   47.7584   13.8500   12.5230 C   0  0  0  0  0  0  0  0  0  0  0  0
   46.3192   14.0883   12.0689 C   0  0  0  0  0  0  0  0  0  0  0  0
   46.2185   15.3920   11.2806 C   0  0  0  0  0  0  0  0  0  0  0  0
   47.4316   15.7485   10.6115 O   0  0  0  0  0  0  0  0  0  0  0  0
   48.1451   14.6122   10.1352 C   0  0  0  0  0  0  0  0  0  0  0  0
   48.7027   13.8215   11.3114 C   0  0  0  0  0  0  0  0  0  0  0  0
   48.7039    9.8180   13.2656 C   0  0  0  0  0  0  0  0  0  0  0  0
   48.5830    8.6529   13.9934 N   0  0  0  0  0  0  0  0  0  0  0  0
   48.2408   10.0671   12.1577 O   0  0  0  0  0  0  0  0  0  0  0  0
   47.9901    7.4870   13.5489 C   0  0  0  0  0  0  0  0  0  0  0  0
   47.5038    7.2894   12.3230 N   0  0  0  0  0  0  0  0  0  0  0  0
   47.0572    6.0276   12.3373 N   0  0  0  0  0  0  0  0  0  0  0  0
   47.2391    5.3796   13.5280 C   0  0  0  0  0  0  0  0  0  0  0  0
   47.8436    6.3164   14.3558 C   0  0  0  0  0  0  0  0  0  0  0  0
   48.1617    5.9466   15.6794 C   0  0  0  0  0  0  0  0  0  0  0  0
   47.8651    4.6447   16.1280 C   0  0  0  0  0  0  0  0  0  0  0  0
   47.2637    3.7303   15.2514 C   0  0  0  0  0  0  0  0  0  0  0  0
   46.9331    4.0795   13.9364 C   0  0  0  0  0  0  0  0  0  0  0  0
   48.2267    4.2277   17.5366 C   0  0  0  0  0  0  0  0  0  0  0  0
   49.6524    3.7457   17.6658 C   0  0  0  0  0  0  0  0  0  0  0  0
   49.9719    2.3966   17.4576 C   0  0  0  0  0  0  0  0  0  0  0  0
   51.2948    1.9682   17.5529 C   0  0  0  0  0  0  0  0  0  0  0  0
   52.3195    2.8559   17.8478 C   0  0  0  0  0  0  0  0  0  0  0  0
   52.0050    4.1914   18.0467 C   0  0  0  0  0  0  0  0  0  0  0  0
   50.6896    4.6438   17.9613 C   0  0  0  0  0  0  0  0  0  0  0  0
   52.9816    5.0655   18.3232 F   0  0  0  0  0  0  0  0  0  0  0  0
   51.5803    0.6751   17.3541 F   0  0  0  0  0  0  0  0  0  0  0  0
   55.6290   14.7642   14.7369 C   0  0  0  0  0  0  0  0  0  0  0  0
   52.2869   11.2444   15.8139 H   0  0  0  0  0  0  0  0  0  0  0  0
   49.3526   14.1886   14.7406 H   0  0  0  0  0  0  0  0  0  0  0  0
   51.0294    9.5515   14.6348 H   0  0  0  0  0  0  0  0  0  0  0  0
   51.0925   15.4148   14.5703 H   0  0  0  0  0  0  0  0  0  0  0  0
   51.8890   15.9881   16.0193 H   0  0  0  0  0  0  0  0  0  0  0  0
   53.4006   16.0928   14.0717 H   0  0  0  0  0  0  0  0  0  0  0  0
   53.1979   14.3619   13.7631 H   0  0  0  0  0  0  0  0  0  0  0  0
   54.8991   13.4259   16.9509 H   0  0  0  0  0  0  0  0  0  0  0  0
   54.1464   12.7314   15.5115 H   0  0  0  0  0  0  0  0  0  0  0  0
   52.7730   14.3692   17.7145 H   0  0  0  0  0  0  0  0  0  0  0  0
   52.5873   12.6501   17.4829 H   0  0  0  0  0  0  0  0  0  0  0  0
   47.5375   11.8010   12.6456 H   0  0  0  0  0  0  0  0  0  0  0  0
   48.0252   14.6896   13.1746 H   0  0  0  0  0  0  0  0  0  0  0  0
   45.9931   13.2561   11.4311 H   0  0  0  0  0  0  0  0  0  0  0  0
   45.6244   14.1057   12.9174 H   0  0  0  0  0  0  0  0  0  0  0  0
   45.9771   16.2196   11.9559 H   0  0  0  0  0  0  0  0  0  0  0  0
   45.4106   15.3329   10.5435 H   0  0  0  0  0  0  0  0  0  0  0  0
   48.9627   14.9594    9.4943 H   0  0  0  0  0  0  0  0  0  0  0  0
   47.4848   13.9974    9.5130 H   0  0  0  0  0  0  0  0  0  0  0  0
   49.6608   14.2603   11.6184 H   0  0  0  0  0  0  0  0  0  0  0  0
   48.9312   12.8016   10.9788 H   0  0  0  0  0  0  0  0  0  0  0  0
   48.8953    8.6449   14.9514 H   0  0  0  0  0  0  0  0  0  0  0  0
   46.6385    5.6622   11.4897 H   0  0  0  0  0  0  0  0  0  0  0  0
   48.6336    6.6613   16.3460 H   0  0  0  0  0  0  0  0  0  0  0  0
   47.0434    2.7186   15.5886 H   0  0  0  0  0  0  0  0  0  0  0  0
   46.4676    3.3628   13.2683 H   0  0  0  0  0  0  0  0  0  0  0  0
   48.0563    5.0682   18.2221 H   0  0  0  0  0  0  0  0  0  0  0  0
   47.5397    3.4437   17.8812 H   0  0  0  0  0  0  0  0  0  0  0  0
   49.2012    1.6689   17.2158 H   0  0  0  0  0  0  0  0  0  0  0  0
   53.3449    2.5128   17.9161 H   0  0  0  0  0  0  0  0  0  0  0  0
   50.4888    5.6985   18.1232 H   0  0  0  0  0  0  0  0  0  0  0  0
   55.8279   15.7087   14.2189 H   0  0  0  0  0  0  0  0  0  0  0  0
   56.4655   14.6005   15.4269 H   0  0  0  0  0  0  0  0  0  0  0  0
   55.6291   13.9572   13.9943 H   0  0  0  0  0  0  0  0  0  0  0  0
  1  2  2  0
  1  6  1  0
  2  3  1  0
  3  4  2  0
  4  5  1  0
  5  6  2  0
  2  7  1  0
  7  8  1  0
 12  7  1  0
  8  9  1  0
  9 10  1  0
 10 11  1  0
 11 12  1  0
  4 13  1  0
 13 14  1  0
 14 15  1  0
 19 14  1  0
 15 16  1  0
 16 17  1  0
 17 18  1  0
 18 19  1  0
  5 20  1  0
 20 21  1  0
 20 22  2  0
 21 23  1  0
 23 24  2  0
 23 27  1  0
 24 25  1  0
 25 26  1  0
 31 26  2  0
 26 27  1  0
 27 28  2  0
 28 29  1  0
 29 30  2  0
 30 31  1  0
 29 32  1  0
 32 33  1  0
 33 34  2  0
 33 38  1  0
 34 35  1  0
 35 36  2  0
 36 37  1  0
 37 38  2  0
 37 39  1  0
 35 40  1  0
 10 41  1  0
  1 42  1  0
  3 43  1  0
  6 44  1  0
  8 45  1  0
  8 46  1  0
  9 47  1  0
  9 48  1  0
 11 49  1  0
 11 50  1  0
 12 51  1  0
 12 52  1  0
 13 53  1  0
 14 54  1  0
 15 55  1  0
 15 56  1  0
 16 57  1  0
 16 58  1  0
 18 59  1  0
 18 60  1  0
 19 61  1  0
 19 62  1  0
 21 63  1  0
 25 64  1  0
 28 65  1  0
 30 66  1  0
 31 67  1  0
 32 68  1  0
 32 69  1  0
 34 70  1  0
 36 71  1  0
 38 72  1  0
 41 73  1  0
 41 74  1  0
 41 75  1  0
M  END
> <Uni-Dock RESULT> 
ENERGY=   -4.565  LOWER_BOUND=    5.204  UPPER_BOUND=    9.338
INTER + INTRA:          -4.565
INTER:                  -4.565
INTRA:                   0.000
UNBOUND:                 0.000

$$$$

     RDKit          3D

 75 80  0  0  0  0  0  0  0  0999 V2000
   53.6139   10.0766   17.7627 C   0  0  0  0  0  0  0  0  0  0  0  0
   53.2672   11.1519   18.5879 C   0  0  0  0  0  0  0  0  0  0  0  0
   51.9805   11.1113   19.1672 C   0  0  0  0  0  0  0  0  0  0  0  0
   51.0329   10.1032   18.9013 C   0  0  0  0  0  0  0  0  0  0  0  0
   51.4495    9.0230   18.0995 C   0  0  0  0  0  0  0  0  0  0  0  0
   52.7241    9.0257   17.5160 C   0  0  0  0  0  0  0  0  0  0  0  0
   54.1367   12.2021   18.8887 N   0  0  0  0  0  0  0  0  0  0  0  0
   53.5959   13.5809   18.7753 C   0  0  0  0  0  0  0  0  0  0  0  0
   53.8300   14.1479   17.3535 C   0  0  0  0  0  0  0  0  0  0  0  0
   55.2606   14.1345   16.9682 N   0  0  0  0  0  0  0  0  0  0  0  0
   55.7920   12.7583   17.0928 C   0  0  0  0  0  0  0  0  0  0  0  0
   55.5631   12.1563   18.5010 C   0  0  0  0  0  0  0  0  0  0  0  0
   49.7629   10.1045   19.5241 N   0  0  0  0  0  0  0  0  0  0  0  0
   49.0338   11.3801   19.6230 C   0  0  0  0  0  0  0  0  0  0  0  0
   47.7907   11.1658   20.4850 C   0  0  0  0  0  0  0  0  0  0  0  0
   46.9942   12.4631   20.6027 C   0  0  0  0  0  0  0  0  0  0  0  0
   47.1578   13.3359   19.4811 O   0  0  0  0  0  0  0  0  0  0  0  0
   47.2997   12.6265   18.2549 C   0  0  0  0  0  0  0  0  0  0  0  0
   48.6361   11.8965   18.2317 C   0  0  0  0  0  0  0  0  0  0  0  0
   50.5259    7.8831   17.8211 C   0  0  0  0  0  0  0  0  0  0  0  0
   51.1301    6.6449   17.8809 N   0  0  0  0  0  0  0  0  0  0  0  0
   49.3453    8.1371   17.6074 O   0  0  0  0  0  0  0  0  0  0  0  0
   50.5177    5.4389   17.5997 C   0  0  0  0  0  0  0  0  0  0  0  0
   49.2663    5.2944   17.1622 N   0  0  0  0  0  0  0  0  0  0  0  0
   49.1150    3.9736   17.0051 N   0  0  0  0  0  0  0  0  0  0  0  0
   50.2263    3.2390   17.3150 C   0  0  0  0  0  0  0  0  0  0  0  0
   51.1700    4.1730   17.7217 C   0  0  0  0  0  0  0  0  0  0  0  0
   52.4456    3.7196   18.1180 C   0  0  0  0  0  0  0  0  0  0  0  0
   52.7335    2.3410   18.0893 C   0  0  0  0  0  0  0  0  0  0  0  0
   51.7509    1.4371   17.6608 C   0  0  0  0  0  0  0  0  0  0  0  0
   50.4763    1.8656   17.2705 C   0  0  0  0  0  0  0  0  0  0  0  0
   54.1068    1.8452   18.4855 C   0  0  0  0  0  0  0  0  0  0  0  0
   55.1032    1.8863   17.3510 C   0  0  0  0  0  0  0  0  0  0  0  0
   55.2404    0.7954   16.4811 C   0  0  0  0  0  0  0  0  0  0  0  0
   56.1439    0.8550   15.4214 C   0  0  0  0  0  0  0  0  0  0  0  0
   56.9186    1.9842   15.1986 C   0  0  0  0  0  0  0  0  0  0  0  0
   56.7780    3.0660   16.0542 C   0  0  0  0  0  0  0  0  0  0  0  0
   55.8850    3.0294   17.1235 C   0  0  0  0  0  0  0  0  0  0  0  0
   57.5104    4.1688   15.8501 F   0  0  0  0  0  0  0  0  0  0  0  0
   56.2636   -0.1980   14.6030 F   0  0  0  0  0  0  0  0  0  0  0  0
   55.4334   14.6359   15.6071 C   0  0  0  0  0  0  0  0  0  0  0  0
   54.5828   10.0302   17.2750 H   0  0  0  0  0  0  0  0  0  0  0  0
   51.7268   11.8779   19.8942 H   0  0  0  0  0  0  0  0  0  0  0  0
   53.0310    8.2296   16.8422 H   0  0  0  0  0  0  0  0  0  0  0  0
   52.5310   13.6517   19.0186 H   0  0  0  0  0  0  0  0  0  0  0  0
   54.1147   14.2136   19.5074 H   0  0  0  0  0  0  0  0  0  0  0  0
   53.4592   15.1797   17.3334 H   0  0  0  0  0  0  0  0  0  0  0  0
   53.2356   13.5697   16.6332 H   0  0  0  0  0  0  0  0  0  0  0  0
   56.8714   12.7681   16.8989 H   0  0  0  0  0  0  0  0  0  0  0  0
   55.3317   12.1088   16.3374 H   0  0  0  0  0  0  0  0  0  0  0  0
   56.1288   12.7496   19.2315 H   0  0  0  0  0  0  0  0  0  0  0  0
   55.9757   11.1433   18.5683 H   0  0  0  0  0  0  0  0  0  0  0  0
   49.1692    9.3976   19.0633 H   0  0  0  0  0  0  0  0  0  0  0  0
   49.6430   12.1350   20.1326 H   0  0  0  0  0  0  0  0  0  0  0  0
   47.1564   10.3943   20.0288 H   0  0  0  0  0  0  0  0  0  0  0  0
   48.0493   10.7900   21.4824 H   0  0  0  0  0  0  0  0  0  0  0  0
   47.3190   13.0225   21.4864 H   0  0  0  0  0  0  0  0  0  0  0  0
   45.9282   12.2481   20.7328 H   0  0  0  0  0  0  0  0  0  0  0  0
   47.2496   13.3455   17.4302 H   0  0  0  0  0  0  0  0  0  0  0  0
   46.4597   11.9334   18.1316 H   0  0  0  0  0  0  0  0  0  0  0  0
   49.4178   12.5874   17.8908 H   0  0  0  0  0  0  0  0  0  0  0  0
   48.5926   11.0972   17.4819 H   0  0  0  0  0  0  0  0  0  0  0  0
   52.0809    6.5845   18.2088 H   0  0  0  0  0  0  0  0  0  0  0  0
   48.2194    3.6342   16.6736 H   0  0  0  0  0  0  0  0  0  0  0  0
   53.1999    4.4300   18.4408 H   0  0  0  0  0  0  0  0  0  0  0  0
   51.9716    0.3714   17.6247 H   0  0  0  0  0  0  0  0  0  0  0  0
   49.7248    1.1560   16.9414 H   0  0  0  0  0  0  0  0  0  0  0  0
   54.4812    2.4399   19.3291 H   0  0  0  0  0  0  0  0  0  0  0  0
   54.0352    0.8218   18.8765 H   0  0  0  0  0  0  0  0  0  0  0  0
   54.6468   -0.1056   16.6140 H   0  0  0  0  0  0  0  0  0  0  0  0
   57.6153    2.0214   14.3698 H   0  0  0  0  0  0  0  0  0  0  0  0
   55.8063    3.8997   17.7679 H   0  0  0  0  0  0  0  0  0  0  0  0
   55.0614   15.6633   15.5279 H   0  0  0  0  0  0  0  0  0  0  0  0
   56.4975   14.6645   15.3433 H   0  0  0  0  0  0  0  0  0  0  0  0
   54.9088   14.0214   14.8656 H   0  0  0  0  0  0  0  0  0  0  0  0
  1  2  2  0
  1  6  1  0
  2  3  1  0
  3  4  2  0
  4  5  1  0
  5  6  2  0
  2  7  1  0
  7  8  1  0
 12  7  1  0
  8  9  1  0
  9 10  1  0
 10 11  1  0
 11 12  1  0
  4 13  1  0
 13 14  1  0
 14 15  1  0
 19 14  1  0
 15 16  1  0
 16 17  1  0
 17 18  1  0
 18 19  1  0
  5 20  1  0
 20 21  1  0
 20 22  2  0
 21 23  1  0
 23 24  2  0
 23 27  1  0
 24 25  1  0
 25 26  1  0
 31 26  2  0
 26 27  1  0
 27 28  2  0
 28 29  1  0
 29 30  2  0
 30 31  1  0
 29 32  1  0
 32 33  1  0
 33 34  2  0
 33 38  1  0
 34 35  1  0
 35 36  2  0
 36 37  1  0
 37 38  2  0
 37 39  1  0
 35 40  1  0
 10 41  1  0
  1 42  1  0
  3 43  1  0
  6 44  1  0
  8 45  1  0
  8 46  1  0
  9 47  1  0
  9 48  1  0
 11 49  1  0
 11 50  1  0
 12 51  1  0
 12 52  1  0
 13 53  1  0
 14 54  1  0
 15 55  1  0
 15 56  1  0
 16 57  1  0
 16 58  1  0
 18 59  1  0
 18 60  1  0
 19 61  1  0
 19 62  1  0
 21 63  1  0
 25 64  1  0
 28 65  1  0
 30 66  1  0
 31 67  1  0
 32 68  1  0
 32 69  1  0
 34 70  1  0
 36 71  1  0
 38 72  1  0
 41 73  1  0
 41 74  1  0
 41 75  1  0
M  END
> <Uni-Dock RESULT> 
ENERGY=   -4.508  LOWER_BOUND=    7.455  UPPER_BOUND=   11.413
INTER + INTRA:          -4.508
INTER:                  -4.508
INTRA:                   0.000
UNBOUND:                 0.000

$$$$

     RDKit          3D

 75 80  0  0  0  0  0  0  0  0999 V2000
   48.8338   11.3975   12.4360 C   0  0  0  0  0  0  0  0  0  0  0  0
   47.9338   12.4389   12.1852 C   0  0  0  0  0  0  0  0  0  0  0  0
   46.5750   12.0788   12.0561 C   0  0  0  0  0  0  0  0  0  0  0  0
   46.1093   10.7497   12.0950 C   0  0  0  0  0  0  0  0  0  0  0  0
   47.0509    9.7460   12.3939 C   0  0  0  0  0  0  0  0  0  0  0  0
   48.4073   10.0691   12.5384 C   0  0  0  0  0  0  0  0  0  0  0  0
   48.3117   13.7809   12.1110 N   0  0  0  0  0  0  0  0  0  0  0  0
   47.7898   14.5676   10.9642 C   0  0  0  0  0  0  0  0  0  0  0  0
   48.7660   14.5030    9.7638 C   0  0  0  0  0  0  0  0  0  0  0  0
   50.1273   14.9691   10.1166 N   0  0  0  0  0  0  0  0  0  0  0  0
   50.6348   14.1851   11.2654 C   0  0  0  0  0  0  0  0  0  0  0  0
   49.6752   14.2187   12.4803 C   0  0  0  0  0  0  0  0  0  0  0  0
   44.7323   10.4487   11.9764 N   0  0  0  0  0  0  0  0  0  0  0  0
   43.9461   11.1617   10.9555 C   0  0  0  0  0  0  0  0  0  0  0  0
   42.4715   10.8073   11.1402 C   0  0  0  0  0  0  0  0  0  0  0  0
   41.6182   11.5151   10.0903 C   0  0  0  0  0  0  0  0  0  0  0  0
   42.3208   11.7876    8.8744 O   0  0  0  0  0  0  0  0  0  0  0  0
   43.2581   10.7673    8.5465 C   0  0  0  0  0  0  0  0  0  0  0  0
   44.4120   10.7867    9.5403 C   0  0  0  0  0  0  0  0  0  0  0  0
   46.6275    8.3191   12.5152 C   0  0  0  0  0  0  0  0  0  0  0  0
   47.2149    7.6477   13.5668 N   0  0  0  0  0  0  0  0  0  0  0  0
   45.7963    7.8952   11.7193 O   0  0  0  0  0  0  0  0  0  0  0  0
   47.0462    6.3078   13.8578 C   0  0  0  0  0  0  0  0  0  0  0  0
   46.3420    5.4438   13.1259 N   0  0  0  0  0  0  0  0  0  0  0  0
   46.4753    4.2748   13.7643 N   0  0  0  0  0  0  0  0  0  0  0  0
   47.2510    4.3331   14.8892 C   0  0  0  0  0  0  0  0  0  0  0  0
   47.6374    5.6632   14.9883 C   0  0  0  0  0  0  0  0  0  0  0  0
   48.4568    6.0527   16.0684 C   0  0  0  0  0  0  0  0  0  0  0  0
   48.8653    5.0913   17.0133 C   0  0  0  0  0  0  0  0  0  0  0  0
   48.4580    3.7577   16.8649 C   0  0  0  0  0  0  0  0  0  0  0  0
   47.6387    3.3519   15.8044 C   0  0  0  0  0  0  0  0  0  0  0  0
   49.7668    5.4913   18.1604 C   0  0  0  0  0  0  0  0  0  0  0  0
   51.2325    5.4818   17.7951 C   0  0  0  0  0  0  0  0  0  0  0  0
   51.9963    4.3149   17.9372 C   0  0  0  0  0  0  0  0  0  0  0  0
   53.3414    4.3103   17.5715 C   0  0  0  0  0  0  0  0  0  0  0  0
   53.9517    5.4457   17.0583 C   0  0  0  0  0  0  0  0  0  0  0  0
   53.1948    6.5979   16.9108 C   0  0  0  0  0  0  0  0  0  0  0  0
   51.8495    6.6292   17.2732 C   0  0  0  0  0  0  0  0  0  0  0  0
   53.7637    7.7016   16.4084 F   0  0  0  0  0  0  0  0  0  0  0  0
   54.0558    3.1872   17.7175 F   0  0  0  0  0  0  0  0  0  0  0  0
   51.0262   14.8519    8.9711 C   0  0  0  0  0  0  0  0  0  0  0  0
   49.8973   11.5862   12.5458 H   0  0  0  0  0  0  0  0  0  0  0  0
   45.8444   12.8782   11.9674 H   0  0  0  0  0  0  0  0  0  0  0  0
   49.1512    9.2935   12.7030 H   0  0  0  0  0  0  0  0  0  0  0  0
   46.7955   14.2495   10.6352 H   0  0  0  0  0  0  0  0  0  0  0  0
   47.6807   15.6115   11.2864 H   0  0  0  0  0  0  0  0  0  0  0  0
   48.3629   15.1349    8.9633 H   0  0  0  0  0  0  0  0  0  0  0  0
   48.8019   13.4729    9.3844 H   0  0  0  0  0  0  0  0  0  0  0  0
   51.6011   14.5941   11.5842 H   0  0  0  0  0  0  0  0  0  0  0  0
   50.8061   13.1443   10.9625 H   0  0  0  0  0  0  0  0  0  0  0  0
   49.6086   15.2523   12.8452 H   0  0  0  0  0  0  0  0  0  0  0  0
   50.0804   13.6408   13.3185 H   0  0  0  0  0  0  0  0  0  0  0  0
   44.6275    9.4302   11.8497 H   0  0  0  0  0  0  0  0  0  0  0  0
   44.0281   12.2459   11.0920 H   0  0  0  0  0  0  0  0  0  0  0  0
   42.3394    9.7220   11.0391 H   0  0  0  0  0  0  0  0  0  0  0  0
   42.1172   11.0598   12.1471 H   0  0  0  0  0  0  0  0  0  0  0  0
   41.2734   12.4799   10.4771 H   0  0  0  0  0  0  0  0  0  0  0  0
   40.7255   10.9240    9.8598 H   0  0  0  0  0  0  0  0  0  0  0  0
   43.6314   10.9515    7.5334 H   0  0  0  0  0  0  0  0  0  0  0  0
   42.7536    9.7945    8.5337 H   0  0  0  0  0  0  0  0  0  0  0  0
   45.1515   11.5314    9.2189 H   0  0  0  0  0  0  0  0  0  0  0  0
   44.9261    9.8184    9.5084 H   0  0  0  0  0  0  0  0  0  0  0  0
   47.7730    8.1693   14.2240 H   0  0  0  0  0  0  0  0  0  0  0  0
   46.0105    3.4638   13.3725 H   0  0  0  0  0  0  0  0  0  0  0  0
   48.7712    7.0866   16.1681 H   0  0  0  0  0  0  0  0  0  0  0  0
   48.7808    3.0076   17.5853 H   0  0  0  0  0  0  0  0  0  0  0  0
   47.3302    2.3170   15.7013 H   0  0  0  0  0  0  0  0  0  0  0  0
   49.4811    6.4888   18.5196 H   0  0  0  0  0  0  0  0  0  0  0  0
   49.5962    4.8272   19.0178 H   0  0  0  0  0  0  0  0  0  0  0  0
   51.5559    3.4005   18.3270 H   0  0  0  0  0  0  0  0  0  0  0  0
   54.9970    5.4302   16.7739 H   0  0  0  0  0  0  0  0  0  0  0  0
   51.2943    7.5527   17.1396 H   0  0  0  0  0  0  0  0  0  0  0  0
   50.6585   15.4543    8.1333 H   0  0  0  0  0  0  0  0  0  0  0  0
   52.0205   15.2386    9.2253 H   0  0  0  0  0  0  0  0  0  0  0  0
   51.1343   13.8156    8.6291 H   0  0  0  0  0  0  0  0  0  0  0  0
  1  2  2  0
  1  6  1  0
  2  3  1  0
  3  4  2  0
  4  5  1  0
  5  6  2  0
  2  7  1  0
  7  8  1  0
 12  7  1  0
  8  9  1  0
  9 10  1  0
 10 11  1  0
 11 12  1  0
  4 13  1  0
 13 14  1  0
 14 15  1  0
 19 14  1  0
 15 16  1  0
 16 17  1  0
 17 18  1  0
 18 19  1  0
  5 20  1  0
 20 21  1  0
 20 22  2  0
 21 23  1  0
 23 24  2  0
 23 27  1  0
 24 25  1  0
 25 26  1  0
 31 26  2  0
 26 27  1  0
 27 28  2  0
 28 29  1  0
 29 30  2  0
 30 31  1  0
 29 32  1  0
 32 33  1  0
 33 34  2  0
 33 38  1  0
 34 35  1  0
 35 36  2  0
 36 37  1  0
 37 38  2  0
 37 39  1  0
 35 40  1  0
 10 41  1  0
  1 42  1  0
  3 43  1  0
  6 44  1  0
  8 45  1  0
  8 46  1  0
  9 47  1  0
  9 48  1  0
 11 49  1  0
 11 50  1  0
 12 51  1  0
 12 52  1  0
 13 53  1  0
 14 54  1  0
 15 55  1  0
 15 56  1  0
 16 57  1  0
 16 58  1  0
 18 59  1  0
 18 60  1  0
 19 61  1  0
 19 62  1  0
 21 63  1  0
 25 64  1  0
 28 65  1  0
 30 66  1  0
 31 67  1  0
 32 68  1  0
 32 69  1  0
 34 70  1  0
 36 71  1  0
 38 72  1  0
 41 73  1  0
 41 74  1  0
 41 75  1  0
M  END
> <Uni-Dock RESULT> 
ENERGY=   -4.437  LOWER_BOUND=    4.534  UPPER_BOUND=    6.670
INTER + INTRA:          -4.437
INTER:                  -4.437
INTRA:                   0.000
UNBOUND:                 0.000

$$$$

     RDKit          3D

 75 80  0  0  0  0  0  0  0  0999 V2000
   52.1550   11.2874   14.3525 C   0  0  0  0  0  0  0  0  0  0  0  0
   51.8915   12.6570   14.2423 C   0  0  0  0  0  0  0  0  0  0  0  0
   50.6934   13.0167   13.5883 C   0  0  0  0  0  0  0  0  0  0  0  0
   49.8146   12.0882   12.9961 C   0  0  0  0  0  0  0  0  0  0  0  0
   50.1053   10.7219   13.1750 C   0  0  0  0  0  0  0  0  0  0  0  0
   51.2816   10.3287   13.8283 C   0  0  0  0  0  0  0  0  0  0  0  0
   52.7175   13.6450   14.7818 N   0  0  0  0  0  0  0  0  0  0  0  0
   53.0624   14.7917   13.9029 C   0  0  0  0  0  0  0  0  0  0  0  0
   54.3653   14.5082   13.1155 C   0  0  0  0  0  0  0  0  0  0  0  0
   55.5071   14.1948   14.0061 N   0  0  0  0  0  0  0  0  0  0  0  0
   55.1503   13.0568   14.8834 C   0  0  0  0  0  0  0  0  0  0  0  0
   53.8438   13.3031   15.6772 C   0  0  0  0  0  0  0  0  0  0  0  0
   48.6181   12.5052   12.3674 N   0  0  0  0  0  0  0  0  0  0  0  0
   48.6634   13.6892   11.4930 C   0  0  0  0  0  0  0  0  0  0  0  0
   47.2360   14.0473   11.0826 C   0  0  0  0  0  0  0  0  0  0  0  0
   47.2364   15.2642   10.1605 C   0  0  0  0  0  0  0  0  0  0  0  0
   48.4405   15.4028    9.4005 O   0  0  0  0  0  0  0  0  0  0  0  0
   48.9922   14.1467    9.0202 C   0  0  0  0  0  0  0  0  0  0  0  0
   49.5254   13.4227   10.2494 C   0  0  0  0  0  0  0  0  0  0  0  0
   49.1909    9.6734   12.6322 C   0  0  0  0  0  0  0  0  0  0  0  0
   48.9827    8.6132   13.4892 N   0  0  0  0  0  0  0  0  0  0  0  0
   48.6943    9.8584   11.5263 O   0  0  0  0  0  0  0  0  0  0  0  0
   48.2371    7.4857   13.2044 C   0  0  0  0  0  0  0  0  0  0  0  0
   47.6603    7.2201   12.0318 N   0  0  0  0  0  0  0  0  0  0  0  0
   47.0760    6.0284   12.2063 N   0  0  0  0  0  0  0  0  0  0  0  0
   47.2536    5.4914   13.4515 C   0  0  0  0  0  0  0  0  0  0  0  0
   48.0075    6.4314   14.1418 C   0  0  0  0  0  0  0  0  0  0  0  0
   48.3593    6.1668   15.4819 C   0  0  0  0  0  0  0  0  0  0  0  0
   47.9450    4.9632   16.0850 C   0  0  0  0  0  0  0  0  0  0  0  0
   47.1939    4.0399   15.3437 C   0  0  0  0  0  0  0  0  0  0  0  0
   46.8278    4.2865   14.0149 C   0  0  0  0  0  0  0  0  0  0  0  0
   48.3397    4.6558   17.5128 C   0  0  0  0  0  0  0  0  0  0  0  0
   49.7071    4.0247   17.6282 C   0  0  0  0  0  0  0  0  0  0  0  0
   49.8598    2.6330   17.5558 C   0  0  0  0  0  0  0  0  0  0  0  0
   51.1294    2.0633   17.6365 C   0  0  0  0  0  0  0  0  0  0  0  0
   52.2631    2.8494   17.7835 C   0  0  0  0  0  0  0  0  0  0  0  0
   52.1133    4.2263   17.8478 C   0  0  0  0  0  0  0  0  0  0  0  0
   50.8545    4.8197   17.7740 C   0  0  0  0  0  0  0  0  0  0  0  0
   53.1967    5.0027   17.9804 F   0  0  0  0  0  0  0  0  0  0  0  0
   51.2552    0.7319   17.5688 F   0  0  0  0  0  0  0  0  0  0  0  0
   56.7035   13.8919   13.2246 C   0  0  0  0  0  0  0  0  0  0  0  0
   53.0556   10.9242   14.8381 H   0  0  0  0  0  0  0  0  0  0  0  0
   50.4134   14.0666   13.5832 H   0  0  0  0  0  0  0  0  0  0  0  0
   51.5482    9.2781   13.9131 H   0  0  0  0  0  0  0  0  0  0  0  0
   52.2673   15.0537   13.1978 H   0  0  0  0  0  0  0  0  0  0  0  0
   53.2072   15.6770   14.5359 H   0  0  0  0  0  0  0  0  0  0  0  0
   54.6037   15.3981   12.5206 H   0  0  0  0  0  0  0  0  0  0  0  0
   54.1895   13.6807   12.4151 H   0  0  0  0  0  0  0  0  0  0  0  0
   55.9593   12.8881   15.6045 H   0  0  0  0  0  0  0  0  0  0  0  0
   55.0497   12.1410   14.2872 H   0  0  0  0  0  0  0  0  0  0  0  0
   54.0017   14.1509   16.3569 H   0  0  0  0  0  0  0  0  0  0  0  0
   53.6102   12.4511   16.3257 H   0  0  0  0  0  0  0  0  0  0  0  0
   48.2208   11.7048   11.8516 H   0  0  0  0  0  0  0  0  0  0  0  0
   49.0610   14.5548   12.0347 H   0  0  0  0  0  0  0  0  0  0  0  0
   46.7812   13.1975   10.5566 H   0  0  0  0  0  0  0  0  0  0  0  0
   46.5987   14.2354   11.9553 H   0  0  0  0  0  0  0  0  0  0  0  0
   47.1299   16.1806   10.7506 H   0  0  0  0  0  0  0  0  0  0  0  0
   46.3850   15.2245    9.4727 H   0  0  0  0  0  0  0  0  0  0  0  0
   49.8044   14.3259    8.3075 H   0  0  0  0  0  0  0  0  0  0  0  0
   48.2313   13.5527    8.5012 H   0  0  0  0  0  0  0  0  0  0  0  0
   50.5432   13.7747   10.4612 H   0  0  0  0  0  0  0  0  0  0  0  0
   49.6176   12.3539   10.0215 H   0  0  0  0  0  0  0  0  0  0  0  0
   49.3480    8.6685   14.4267 H   0  0  0  0  0  0  0  0  0  0  0  0
   46.5697    5.6286   11.4246 H   0  0  0  0  0  0  0  0  0  0  0  0
   48.9472    6.8864   16.0427 H   0  0  0  0  0  0  0  0  0  0  0  0
   46.8812    3.1022   15.8007 H   0  0  0  0  0  0  0  0  0  0  0  0
   46.2460    3.5640   13.4525 H   0  0  0  0  0  0  0  0  0  0  0  0
   48.3057    5.5776   18.1083 H   0  0  0  0  0  0  0  0  0  0  0  0
   47.5903    3.9989   17.9735 H   0  0  0  0  0  0  0  0  0  0  0  0
   48.9992    1.9802   17.4320 H   0  0  0  0  0  0  0  0  0  0  0  0
   53.2456    2.3965   17.8417 H   0  0  0  0  0  0  0  0  0  0  0  0
   50.7836    5.9018   17.8275 H   0  0  0  0  0  0  0  0  0  0  0  0
   56.9767   14.7470   12.5966 H   0  0  0  0  0  0  0  0  0  0  0  0
   57.5555   13.7034   13.8889 H   0  0  0  0  0  0  0  0  0  0  0  0
   56.5691   13.0175   12.5766 H   0  0  0  0  0  0  0  0  0  0  0  0
  1  2  2  0
  1  6  1  0
  2  3  1  0
  3  4  2  0
  4  5  1  0
  5  6  2  0
  2  7  1  0
  7  8  1  0
 12  7  1  0
  8  9  1  0
  9 10  1  0
 10 11  1  0
 11 12  1  0
  4 13  1  0
 13 14  1  0
 14 15  1  0
 19 14  1  0
 15 16  1  0
 16 17  1  0
 17 18  1  0
 18 19  1  0
  5 20  1  0
 20 21  1  0
 20 22  2  0
 21 23  1  0
 23 24  2  0
 23 27  1  0
 24 25  1  0
 25 26  1  0
 31 26  2  0
 26 27  1  0
 27 28  2  0
 28 29  1  0
 29 30  2  0
 30 31  1  0
 29 32  1  0
 32 33  1  0
 33 34  2  0
 33 38  1  0
 34 35  1  0
 35 36  2  0
 36 37  1  0
 37 38  2  0
 37 39  1  0
 35 40  1  0
 10 41  1  0
  1 42  1  0
  3 43  1  0
  6 44  1  0
  8 45  1  0
  8 46  1  0
  9 47  1  0
  9 48  1  0
 11 49  1  0
 11 50  1  0
 12 51  1  0
 12 52  1  0
 13 53  1  0
 14 54  1  0
 15 55  1  0
 15 56  1  0
 16 57  1  0
 16 58  1  0
 18 59  1  0
 18 60  1  0
 19 61  1  0
 19 62  1  0
 21 63  1  0
 25 64  1  0
 28 65  1  0
 30 66  1  0
 31 67  1  0
 32 68  1  0
 32 69  1  0
 34 70  1  0
 36 71  1  0
 38 72  1  0
 41 73  1  0
 41 74  1  0
 41 75  1  0
M  END
> <Uni-Dock RESULT> 
ENERGY=   -4.401  LOWER_BOUND=    5.519  UPPER_BOUND=    9.362
INTER + INTRA:          -4.401
INTER:                  -4.401
INTRA:                   0.000
UNBOUND:                 0.000

$$$$

     RDKit          3D

 75 80  0  0  0  0  0  0  0  0999 V2000
   44.7455   13.2204    9.1472 C   0  0  0  0  0  0  0  0  0  0  0  0
   43.6803   14.0816    9.4319 C   0  0  0  0  0  0  0  0  0  0  0  0
   42.7192   13.6108   10.3525 C   0  0  0  0  0  0  0  0  0  0  0  0
   42.7461   12.3233   10.9238 C   0  0  0  0  0  0  0  0  0  0  0  0
   43.8630   11.5148   10.6371 C   0  0  0  0  0  0  0  0  0  0  0  0
   44.8417   11.9547    9.7350 C   0  0  0  0  0  0  0  0  0  0  0  0
   43.5646   15.3654    8.8954 N   0  0  0  0  0  0  0  0  0  0  0  0
   42.2431   15.7471    8.3346 C   0  0  0  0  0  0  0  0  0  0  0  0
   42.1646   15.3994    6.8276 C   0  0  0  0  0  0  0  0  0  0  0  0
   43.2479   16.0369    6.0433 N   0  0  0  0  0  0  0  0  0  0  0  0
   44.5597   15.6574    6.6152 C   0  0  0  0  0  0  0  0  0  0  0  0
   44.6673   15.9808    8.1257 C   0  0  0  0  0  0  0  0  0  0  0  0
   41.7642   11.9107   11.8547 N   0  0  0  0  0  0  0  0  0  0  0  0
   40.3560   12.2413   11.5784 C   0  0  0  0  0  0  0  0  0  0  0  0
   39.5174   11.8599   12.7973 C   0  0  0  0  0  0  0  0  0  0  0  0
   38.0438   12.1726   12.5487 C   0  0  0  0  0  0  0  0  0  0  0  0
   37.6762   12.1240   11.1671 O   0  0  0  0  0  0  0  0  0  0  0  0
   38.3824   11.1166   10.4506 C   0  0  0  0  0  0  0  0  0  0  0  0
   39.8511   11.5012   10.3303 C   0  0  0  0  0  0  0  0  0  0  0  0
   43.9985   10.1607   11.2522 C   0  0  0  0  0  0  0  0  0  0  0  0
   45.2752    9.8657   11.6820 N   0  0  0  0  0  0  0  0  0  0  0  0
   42.9905    9.4692   11.3505 O   0  0  0  0  0  0  0  0  0  0  0  0
   45.6815    8.6610   12.2224 C   0  0  0  0  0  0  0  0  0  0  0  0
   44.9159    7.5765   12.3486 N   0  0  0  0  0  0  0  0  0  0  0  0
   45.7226    6.6561   12.8909 N   0  0  0  0  0  0  0  0  0  0  0  0
   46.9988    7.0912   13.1201 C   0  0  0  0  0  0  0  0  0  0  0  0
   47.0060    8.4148   12.7001 C   0  0  0  0  0  0  0  0  0  0  0  0
   48.2010    9.1556   12.8132 C   0  0  0  0  0  0  0  0  0  0  0  0
   49.3528    8.5409   13.3418 C   0  0  0  0  0  0  0  0  0  0  0  0
   49.2992    7.1982   13.7428 C   0  0  0  0  0  0  0  0  0  0  0  0
   48.1213    6.4475   13.6459 C   0  0  0  0  0  0  0  0  0  0  0  0
   50.6477    9.3168   13.4423 C   0  0  0  0  0  0  0  0  0  0  0  0
   51.4522    9.2977   12.1640 C   0  0  0  0  0  0  0  0  0  0  0  0
   52.3805    8.2760   11.9196 C   0  0  0  0  0  0  0  0  0  0  0  0
   53.0978    8.2536   10.7247 C   0  0  0  0  0  0  0  0  0  0  0  0
   52.9106    9.2273    9.7543 C   0  0  0  0  0  0  0  0  0  0  0  0
   51.9873   10.2339    9.9924 C   0  0  0  0  0  0  0  0  0  0  0  0
   51.2610   10.2809   11.1809 C   0  0  0  0  0  0  0  0  0  0  0  0
   51.7857   11.1779    9.0638 F   0  0  0  0  0  0  0  0  0  0  0  0
   53.9827    7.2716   10.5104 F   0  0  0  0  0  0  0  0  0  0  0  0
   43.1636   15.6500    4.6372 C   0  0  0  0  0  0  0  0  0  0  0  0
   45.5267   13.5026    8.4480 H   0  0  0  0  0  0  0  0  0  0  0  0
   41.9415   14.2996   10.6711 H   0  0  0  0  0  0  0  0  0  0  0  0
   45.6728   11.3117    9.4561 H   0  0  0  0  0  0  0  0  0  0  0  0
   41.3995   15.2820    8.8542 H   0  0  0  0  0  0  0  0  0  0  0  0
   42.1162   16.8299    8.4635 H   0  0  0  0  0  0  0  0  0  0  0  0
   41.1939   15.7422    6.4497 H   0  0  0  0  0  0  0  0  0  0  0  0
   42.1984   14.3082    6.7079 H   0  0  0  0  0  0  0  0  0  0  0  0
   45.3541   16.2045    6.0932 H   0  0  0  0  0  0  0  0  0  0  0  0
   44.7428   14.5872    6.4557 H   0  0  0  0  0  0  0  0  0  0  0  0
   44.6013   17.0691    8.2562 H   0  0  0  0  0  0  0  0  0  0  0  0
   45.6509   15.7006    8.5195 H   0  0  0  0  0  0  0  0  0  0  0  0
   41.8612   10.8949   12.0073 H   0  0  0  0  0  0  0  0  0  0  0  0
   40.2329   13.3210   11.4380 H   0  0  0  0  0  0  0  0  0  0  0  0
   39.6285   10.7860   12.9977 H   0  0  0  0  0  0  0  0  0  0  0  0
   39.8640   12.3713   13.7036 H   0  0  0  0  0  0  0  0  0  0  0  0
   37.8115   13.1833   12.9005 H   0  0  0  0  0  0  0  0  0  0  0  0
   37.4053   11.4824   13.1105 H   0  0  0  0  0  0  0  0  0  0  0  0
   37.9360   11.0213    9.4550 H   0  0  0  0  0  0  0  0  0  0  0  0
   38.2585   10.1514   10.9546 H   0  0  0  0  0  0  0  0  0  0  0  0
   39.9795   12.1667    9.4670 H   0  0  0  0  0  0  0  0  0  0  0  0
   40.4379   10.6018   10.1073 H   0  0  0  0  0  0  0  0  0  0  0  0
   45.9734   10.5919   11.6625 H   0  0  0  0  0  0  0  0  0  0  0  0
   45.3374    5.7373   13.0771 H   0  0  0  0  0  0  0  0  0  0  0  0
   48.2315   10.1920   12.4926 H   0  0  0  0  0  0  0  0  0  0  0  0
   50.1897    6.7140   14.1407 H   0  0  0  0  0  0  0  0  0  0  0  0
   48.0929    5.4096   13.9601 H   0  0  0  0  0  0  0  0  0  0  0  0
   50.4311   10.3545   13.7281 H   0  0  0  0  0  0  0  0  0  0  0  0
   51.2559    8.9220   14.2667 H   0  0  0  0  0  0  0  0  0  0  0  0
   52.5522    7.4882   12.6490 H   0  0  0  0  0  0  0  0  0  0  0  0
   53.4709    9.1985    8.8275 H   0  0  0  0  0  0  0  0  0  0  0  0
   50.5476   11.0865   11.3251 H   0  0  0  0  0  0  0  0  0  0  0  0
   42.2009   15.9560    4.2134 H   0  0  0  0  0  0  0  0  0  0  0  0
   43.9410   16.1586    4.0543 H   0  0  0  0  0  0  0  0  0  0  0  0
   43.2749   14.5684    4.4940 H   0  0  0  0  0  0  0  0  0  0  0  0
  1  2  2  0
  1  6  1  0
  2  3  1  0
  3  4  2  0
  4  5  1  0
  5  6  2  0
  2  7  1  0
  7  8  1  0
 12  7  1  0
  8  9  1  0
  9 10  1  0
 10 11  1  0
 11 12  1  0
  4 13  1  0
 13 14  1  0
 14 15  1  0
 19 14  1  0
 15 16  1  0
 16 17  1  0
 17 18  1  0
 18 19  1  0
  5 20  1  0
 20 21  1  0
 20 22  2  0
 21 23  1  0
 23 24  2  0
 23 27  1  0
 24 25  1  0
 25 26  1  0
 31 26  2  0
 26 27  1  0
 27 28  2  0
 28 29  1  0
 29 30  2  0
 30 31  1  0
 29 32  1  0
 32 33  1  0
 33 34  2  0
 33 38  1  0
 34 35  1  0
 35 36  2  0
 36 37  1  0
 37 38  2  0
 37 39  1  0
 35 40  1  0
 10 41  1  0
  1 42  1  0
  3 43  1  0
  6 44  1  0
  8 45  1  0
  8 46  1  0
  9 47  1  0
  9 48  1  0
 11 49  1  0
 11 50  1  0
 12 51  1  0
 12 52  1  0
 13 53  1  0
 14 54  1  0
 15 55  1  0
 15 56  1  0
 16 57  1  0
 16 58  1  0
 18 59  1  0
 18 60  1  0
 19 61  1  0
 19 62  1  0
 21 63  1  0
 25 64  1  0
 28 65  1  0
 30 66  1  0
 31 67  1  0
 32 68  1  0
 32 69  1  0
 34 70  1  0
 36 71  1  0
 38 72  1  0
 41 73  1  0
 41 74  1  0
 41 75  1  0
M  END
> <Uni-Dock RESULT> 
ENERGY=   -4.114  LOWER_BOUND=    4.893  UPPER_BOUND=    6.642
INTER + INTRA:          -4.114
INTER:                  -4.114
INTRA:                   0.000
UNBOUND:                 0.000

$$$$

     RDKit          3D

 75 80  0  0  0  0  0  0  0  0999 V2000
   49.5662    7.1429   15.0258 C   0  0  0  0  0  0  0  0  0  0  0  0
   50.3904    7.0280   16.1505 C   0  0  0  0  0  0  0  0  0  0  0  0
   51.6609    7.6371   16.0644 C   0  0  0  0  0  0  0  0  0  0  0  0
   52.1482    8.2731   14.9055 C   0  0  0  0  0  0  0  0  0  0  0  0
   51.2613    8.3986   13.8187 C   0  0  0  0  0  0  0  0  0  0  0  0
   49.9882    7.8145   13.8736 C   0  0  0  0  0  0  0  0  0  0  0  0
   49.9956    6.3979   17.3322 N   0  0  0  0  0  0  0  0  0  0  0  0
   50.9507    5.4334   17.9356 C   0  0  0  0  0  0  0  0  0  0  0  0
   50.6971    4.0021   17.4019 C   0  0  0  0  0  0  0  0  0  0  0  0
   49.3065    3.5488   17.6382 N   0  0  0  0  0  0  0  0  0  0  0  0
   48.3628    4.5207   17.0409 C   0  0  0  0  0  0  0  0  0  0  0  0
   48.5973    5.9660   17.5449 C   0  0  0  0  0  0  0  0  0  0  0  0
   53.4248    8.8817   14.8818 N   0  0  0  0  0  0  0  0  0  0  0  0
   54.5532    8.1641   15.4985 C   0  0  0  0  0  0  0  0  0  0  0  0
   55.7699    9.0880   15.5119 C   0  0  0  0  0  0  0  0  0  0  0  0
   56.9712    8.3777   16.1312 C   0  0  0  0  0  0  0  0  0  0  0  0
   56.9368    6.9564   15.9725 O   0  0  0  0  0  0  0  0  0  0  0  0
   56.3623    6.5607   14.7313 C   0  0  0  0  0  0  0  0  0  0  0  0
   54.8717    6.8732   14.7286 C   0  0  0  0  0  0  0  0  0  0  0  0
   51.6790    9.1140   12.5762 C   0  0  0  0  0  0  0  0  0  0  0  0
   50.7049    9.9347   12.0477 N   0  0  0  0  0  0  0  0  0  0  0  0
   52.8235    8.9430   12.1701 O   0  0  0  0  0  0  0  0  0  0  0  0
   50.8116   10.6527   10.8723 C   0  0  0  0  0  0  0  0  0  0  0  0
   51.8482   10.6087   10.0347 N   0  0  0  0  0  0  0  0  0  0  0  0
   51.5092   11.4330    9.0359 N   0  0  0  0  0  0  0  0  0  0  0  0
   50.2796   12.0145    9.1789 C   0  0  0  0  0  0  0  0  0  0  0  0
   49.7935   11.5302   10.3861 C   0  0  0  0  0  0  0  0  0  0  0  0
   48.5225   11.9562   10.8252 C   0  0  0  0  0  0  0  0  0  0  0  0
   47.7783   12.8534   10.0344 C   0  0  0  0  0  0  0  0  0  0  0  0
   48.3071   13.3066    8.8174 C   0  0  0  0  0  0  0  0  0  0  0  0
   49.5696   12.9019    8.3670 C   0  0  0  0  0  0  0  0  0  0  0  0
   46.4023   13.2958   10.4813 C   0  0  0  0  0  0  0  0  0  0  0  0
   45.3099   12.3315   10.0830 C   0  0  0  0  0  0  0  0  0  0  0  0
   44.6668   12.4533    8.8433 C   0  0  0  0  0  0  0  0  0  0  0  0
   43.6790   11.5415    8.4750 C   0  0  0  0  0  0  0  0  0  0  0  0
   43.3137   10.4982    9.3135 C   0  0  0  0  0  0  0  0  0  0  0  0
   43.9545   10.3731   10.5366 C   0  0  0  0  0  0  0  0  0  0  0  0
   44.9421   11.2744   10.9296 C   0  0  0  0  0  0  0  0  0  0  0  0
   43.6223    9.3669   11.3561 F   0  0  0  0  0  0  0  0  0  0  0  0
   43.0735   11.6758    7.2883 F   0  0  0  0  0  0  0  0  0  0  0  0
   49.0971    2.2140   17.0829 C   0  0  0  0  0  0  0  0  0  0  0  0
   48.5746    6.7011   15.0066 H   0  0  0  0  0  0  0  0  0  0  0  0
   52.2772    7.6543   16.9592 H   0  0  0  0  0  0  0  0  0  0  0  0
   49.3213    7.8484   13.0157 H   0  0  0  0  0  0  0  0  0  0  0  0
   51.9996    5.6977   17.7684 H   0  0  0  0  0  0  0  0  0  0  0  0
   50.8072    5.4447   19.0240 H   0  0  0  0  0  0  0  0  0  0  0  0
   51.3911    3.3217   17.9100 H   0  0  0  0  0  0  0  0  0  0  0  0
   50.9312    3.9714   16.3293 H   0  0  0  0  0  0  0  0  0  0  0  0
   47.3362    4.2335   17.2984 H   0  0  0  0  0  0  0  0  0  0  0  0
   48.4426    4.4967   15.9467 H   0  0  0  0  0  0  0  0  0  0  0  0
   48.3967    5.9972   18.6241 H   0  0  0  0  0  0  0  0  0  0  0  0
   47.8788    6.6612   17.0961 H   0  0  0  0  0  0  0  0  0  0  0  0
   53.6562    9.1239   13.9059 H   0  0  0  0  0  0  0  0  0  0  0  0
   54.3318    7.9211   16.5438 H   0  0  0  0  0  0  0  0  0  0  0  0
   56.0175    9.3838   14.4839 H   0  0  0  0  0  0  0  0  0  0  0  0
   55.5642   10.0209   16.0508 H   0  0  0  0  0  0  0  0  0  0  0  0
   57.0066    8.5729   17.2083 H   0  0  0  0  0  0  0  0  0  0  0  0
   57.9046    8.7602   15.7047 H   0  0  0  0  0  0  0  0  0  0  0  0
   56.5211    5.4846   14.6028 H   0  0  0  0  0  0  0  0  0  0  0  0
   56.8813    7.0651   13.9083 H   0  0  0  0  0  0  0  0  0  0  0  0
   54.3302    6.0491   15.2107 H   0  0  0  0  0  0  0  0  0  0  0  0
   54.5155    6.9019   13.6917 H   0  0  0  0  0  0  0  0  0  0  0  0
   49.8581   10.0828   12.5733 H   0  0  0  0  0  0  0  0  0  0  0  0
   52.1672   11.5522    8.2742 H   0  0  0  0  0  0  0  0  0  0  0  0
   48.1212   11.5925   11.7657 H   0  0  0  0  0  0  0  0  0  0  0  0
   47.7312   13.9906    8.1958 H   0  0  0  0  0  0  0  0  0  0  0  0
   49.9675   13.2603    7.4237 H   0  0  0  0  0  0  0  0  0  0  0  0
   46.3975   13.4315   11.5708 H   0  0  0  0  0  0  0  0  0  0  0  0
   46.1809   14.2917   10.0757 H   0  0  0  0  0  0  0  0  0  0  0  0
   44.9282   13.2507    8.1520 H   0  0  0  0  0  0  0  0  0  0  0  0
   42.5470    9.7930    9.0160 H   0  0  0  0  0  0  0  0  0  0  0  0
   45.4186   11.1380   11.8957 H   0  0  0  0  0  0  0  0  0  0  0  0
   49.7809    1.4951   17.5471 H   0  0  0  0  0  0  0  0  0  0  0  0
   48.0796    1.8663   17.2988 H   0  0  0  0  0  0  0  0  0  0  0  0
   49.2506    2.1843   15.9975 H   0  0  0  0  0  0  0  0  0  0  0  0
  1  2  2  0
  1  6  1  0
  2  3  1  0
  3  4  2  0
  4  5  1  0
  5  6  2  0
  2  7  1  0
  7  8  1  0
 12  7  1  0
  8  9  1  0
  9 10  1  0
 10 11  1  0
 11 12  1  0
  4 13  1  0
 13 14  1  0
 14 15  1  0
 19 14  1  0
 15 16  1  0
 16 17  1  0
 17 18  1  0
 18 19  1  0
  5 20  1  0
 20 21  1  0
 20 22  2  0
 21 23  1  0
 23 24  2  0
 23 27  1  0
 24 25  1  0
 25 26  1  0
 31 26  2  0
 26 27  1  0
 27 28  2  0
 28 29  1  0
 29 30  2  0
 30 31  1  0
 29 32  1  0
 32 33  1  0
 33 34  2  0
 33 38  1  0
 34 35  1  0
 35 36  2  0
 36 37  1  0
 37 38  2  0
 37 39  1  0
 35 40  1  0
 10 41  1  0
  1 42  1  0
  3 43  1  0
  6 44  1  0
  8 45  1  0
  8 46  1  0
  9 47  1  0
  9 48  1  0
 11 49  1  0
 11 50  1  0
 12 51  1  0
 12 52  1  0
 13 53  1  0
 14 54  1  0
 15 55  1  0
 15 56  1  0
 16 57  1  0
 16 58  1  0
 18 59  1  0
 18 60  1  0
 19 61  1  0
 19 62  1  0
 21 63  1  0
 25 64  1  0
 28 65  1  0
 30 66  1  0
 31 67  1  0
 32 68  1  0
 32 69  1  0
 34 70  1  0
 36 71  1  0
 38 72  1  0
 41 73  1  0
 41 74  1  0
 41 75  1  0
M  END
> <Uni-Dock RESULT> 
ENERGY=   -4.056  LOWER_BOUND=    5.570  UPPER_BOUND=   10.440
INTER + INTRA:          -4.056
INTER:                  -4.056
INTRA:                   0.000
UNBOUND:                 0.000

$$$$
