
     RDKit          3D

 75 80  0  0  0  0  0  0  0  0999 V2000
   46.3941    9.0220   12.7450 C   0  0  0  0  0  0  0  0  0  0  0  0
   47.2457   10.1168   12.5626 C   0  0  0  0  0  0  0  0  0  0  0  0
   46.7675   11.2070   11.8028 C   0  0  0  0  0  0  0  0  0  0  0  0
   45.4937   11.2332   11.2109 C   0  0  0  0  0  0  0  0  0  0  0  0
   44.6630   10.1280   11.4772 C   0  0  0  0  0  0  0  0  0  0  0  0
   45.1078    9.0230   12.2103 C   0  0  0  0  0  0  0  0  0  0  0  0
   48.5476   10.1787   13.0838 N   0  0  0  0  0  0  0  0  0  0  0  0
   49.5804   10.1136   12.0169 C   0  0  0  0  0  0  0  0  0  0  0  0
   50.9713    9.7756   12.6004 C   0  0  0  0  0  0  0  0  0  0  0  0
   51.0178    8.4651   13.2861 N   0  0  0  0  0  0  0  0  0  0  0  0
   49.7492    8.1759   13.9926 C   0  0  0  0  0  0  0  0  0  0  0  0
   48.8803    9.4139   14.3048 C   0  0  0  0  0  0  0  0  0  0  0  0
   44.9991   12.3501   10.5075 N   0  0  0  0  0  0  0  0  0  0  0  0
   45.9279   13.2792    9.8372 C   0  0  0  0  0  0  0  0  0  0  0  0
   46.2096   14.4772   10.7578 C   0  0  0  0  0  0  0  0  0  0  0  0
   46.5251   15.7132    9.9326 C   0  0  0  0  0  0  0  0  0  0  0  0
   45.4356   16.1162    9.1021 O   0  0  0  0  0  0  0  0  0  0  0  0
   44.5796   15.0568    8.6710 C   0  0  0  0  0  0  0  0  0  0  0  0
   45.3261   13.7443    8.4975 C   0  0  0  0  0  0  0  0  0  0  0  0
   43.2661   10.0871   10.9985 C   0  0  0  0  0  0  0  0  0  0  0  0
   42.4105   10.7945   11.8122 N   0  0  0  0  0  0  0  0  0  0  0  0
   43.0335    9.4667    9.9693 O   0  0  0  0  0  0  0  0  0  0  0  0
   41.0403   10.8606   11.6638 C   0  0  0  0  0  0  0  0  0  0  0  0
   40.3429   10.2359   10.7138 N   0  0  0  0  0  0  0  0  0  0  0  0
   39.0695   10.5666   10.9579 N   0  0  0  0  0  0  0  0  0  0  0  0
   38.8973   11.3794   12.0434 C   0  0  0  0  0  0  0  0  0  0  0  0
   40.1796   11.5983   12.5331 C   0  0  0  0  0  0  0  0  0  0  0  0
   40.3376   12.4128   13.6734 C   0  0  0  0  0  0  0  0  0  0  0  0
   39.2014   12.9757   14.2879 C   0  0  0  0  0  0  0  0  0  0  0  0
   37.9284   12.7312   13.7514 C   0  0  0  0  0  0  0  0  0  0  0  0
   37.7489   11.9274   12.6203 C   0  0  0  0  0  0  0  0  0  0  0  0
   39.3572   13.8570   15.5075 C   0  0  0  0  0  0  0  0  0  0  0  0
   39.7955   15.2655   15.1804 C   0  0  0  0  0  0  0  0  0  0  0  0
   41.1200   15.6745   15.3945 C   0  0  0  0  0  0  0  0  0  0  0  0
   41.5123   16.9737   15.0754 C   0  0  0  0  0  0  0  0  0  0  0  0
   40.6136   17.8859   14.5422 C   0  0  0  0  0  0  0  0  0  0  0  0
   39.3046   17.4816   14.3289 C   0  0  0  0  0  0  0  0  0  0  0  0
   38.8878   16.1887   14.6397 C   0  0  0  0  0  0  0  0  0  0  0  0
   38.4216   18.3486   13.8167 F   0  0  0  0  0  0  0  0  0  0  0  0
   42.7809   17.3460   15.2892 F   0  0  0  0  0  0  0  0  0  0  0  0
   52.1708    8.3946   14.1778 C   0  0  0  0  0  0  0  0  0  0  0  0
   46.7206    8.1408   13.2885 H   0  0  0  0  0  0  0  0  0  0  0  0
   47.4290   12.0620   11.7067 H   0  0  0  0  0  0  0  0  0  0  0  0
   44.4552    8.1669   12.3584 H   0  0  0  0  0  0  0  0  0  0  0  0
   49.3148    9.3564   11.2641 H   0  0  0  0  0  0  0  0  0  0  0  0
   49.6445   11.0835   11.5101 H   0  0  0  0  0  0  0  0  0  0  0  0
   51.2497   10.5821   13.2920 H   0  0  0  0  0  0  0  0  0  0  0  0
   51.7094    9.7755   11.7892 H   0  0  0  0  0  0  0  0  0  0  0  0
   49.9281    7.6171   14.9202 H   0  0  0  0  0  0  0  0  0  0  0  0
   49.1725    7.5001   13.3484 H   0  0  0  0  0  0  0  0  0  0  0  0
   49.4435   10.0811   14.9712 H   0  0  0  0  0  0  0  0  0  0  0  0
   47.9884    9.1252   14.8745 H   0  0  0  0  0  0  0  0  0  0  0  0
   44.2416   12.0563    9.8853 H   0  0  0  0  0  0  0  0  0  0  0  0
   46.8637   12.7629    9.5879 H   0  0  0  0  0  0  0  0  0  0  0  0
   45.3355   14.6818   11.3889 H   0  0  0  0  0  0  0  0  0  0  0  0
   47.0436   14.2585   11.4317 H   0  0  0  0  0  0  0  0  0  0  0  0
   47.3953   15.5386    9.2909 H   0  0  0  0  0  0  0  0  0  0  0  0
   46.7729   16.5570   10.5830 H   0  0  0  0  0  0  0  0  0  0  0  0
   44.1325   15.3650    7.7202 H   0  0  0  0  0  0  0  0  0  0  0  0
   43.7640   14.9535    9.3958 H   0  0  0  0  0  0  0  0  0  0  0  0
   44.6746   12.9832    8.0521 H   0  0  0  0  0  0  0  0  0  0  0  0
   46.1508   13.9106    7.7911 H   0  0  0  0  0  0  0  0  0  0  0  0
   42.8060   11.3272   12.5725 H   0  0  0  0  0  0  0  0  0  0  0  0
   38.3559   10.1966   10.3407 H   0  0  0  0  0  0  0  0  0  0  0  0
   41.3287   12.6050   14.0749 H   0  0  0  0  0  0  0  0  0  0  0  0
   37.0484   13.1755   14.2154 H   0  0  0  0  0  0  0  0  0  0  0  0
   36.7591   11.7462   12.2134 H   0  0  0  0  0  0  0  0  0  0  0  0
   38.4146   13.9006   16.0689 H   0  0  0  0  0  0  0  0  0  0  0  0
   40.0712   13.3863   16.1964 H   0  0  0  0  0  0  0  0  0  0  0  0
   41.8587   14.9931   15.8061 H   0  0  0  0  0  0  0  0  0  0  0  0
   40.9282   18.8928   14.2975 H   0  0  0  0  0  0  0  0  0  0  0  0
   37.8545   15.9127   14.4504 H   0  0  0  0  0  0  0  0  0  0  0  0
   52.2590    7.3925   14.6101 H   0  0  0  0  0  0  0  0  0  0  0  0
   53.0986    8.5766   13.6208 H   0  0  0  0  0  0  0  0  0  0  0  0
   52.1127    9.1215   14.9972 H   0  0  0  0  0  0  0  0  0  0  0  0
  1  2  2  0
  1  6  1  0
  2  3  1  0
  3  4  2  0
  4  5  1  0
  5  6  2  0
  2  7  1  0
  7  8  1  0
 12  7  1  0
  8  9  1  0
  9 10  1  0
 10 11  1  0
 11 12  1  0
  4 13  1  0
 13 14  1  0
 14 15  1  0
 19 14  1  0
 15 16  1  0
 16 17  1  0
 17 18  1  0
 18 19  1  0
  5 20  1  0
 20 21  1  0
 20 22  2  0
 21 23  1  0
 23 24  2  0
 23 27  1  0
 24 25  1  0
 25 26  1  0
 31 26  2  0
 26 27  1  0
 27 28  2  0
 28 29  1  0
 29 30  2  0
 30 31  1  0
 29 32  1  0
 32 33  1  0
 33 34  2  0
 33 38  1  0
 34 35  1  0
 35 36  2  0
 36 37  1  0
 37 38  2  0
 37 39  1  0
 35 40  1  0
 10 41  1  0
  1 42  1  0
  3 43  1  0
  6 44  1  0
  8 45  1  0
  8 46  1  0
  9 47  1  0
  9 48  1  0
 11 49  1  0
 11 50  1  0
 12 51  1  0
 12 52  1  0
 13 53  1  0
 14 54  1  0
 15 55  1  0
 15 56  1  0
 16 57  1  0
 16 58  1  0
 18 59  1  0
 18 60  1  0
 19 61  1  0
 19 62  1  0
 21 63  1  0
 25 64  1  0
 28 65  1  0
 30 66  1  0
 31 67  1  0
 32 68  1  0
 32 69  1  0
 34 70  1  0
 36 71  1  0
 38 72  1  0
 41 73  1  0
 41 74  1  0
 41 75  1  0
M  END
> <Uni-Dock RESULT> 
ENERGY=   -5.333  LOWER_BOUND=    0.000  UPPER_BOUND=    0.000
INTER + INTRA:          -5.333
INTER:                  -5.333
INTRA:                   0.000
UNBOUND:                 0.000

$$$$

     RDKit          3D

 75 80  0  0  0  0  0  0  0  0999 V2000
   49.6253   11.8782   11.2198 C   0  0  0  0  0  0  0  0  0  0  0  0
   50.4501   11.6503   10.1131 C   0  0  0  0  0  0  0  0  0  0  0  0
   51.0329   10.3713    9.9750 C   0  0  0  0  0  0  0  0  0  0  0  0
   50.8391    9.3328   10.9011 C   0  0  0  0  0  0  0  0  0  0  0  0
   49.9546    9.6049   11.9623 C   0  0  0  0  0  0  0  0  0  0  0  0
   49.3727   10.8642   12.1410 C   0  0  0  0  0  0  0  0  0  0  0  0
   50.7346   12.6278    9.1467 N   0  0  0  0  0  0  0  0  0  0  0  0
   52.1510   13.0750    9.2041 C   0  0  0  0  0  0  0  0  0  0  0  0
   52.3525   14.4039    8.4410 C   0  0  0  0  0  0  0  0  0  0  0  0
   51.5547   15.5230    8.9896 N   0  0  0  0  0  0  0  0  0  0  0  0
   50.2366   15.0612    9.4809 C   0  0  0  0  0  0  0  0  0  0  0  0
   49.7603   13.7122    8.8991 C   0  0  0  0  0  0  0  0  0  0  0  0
   51.3722    8.0400   10.7244 N   0  0  0  0  0  0  0  0  0  0  0  0
   52.6054    7.8437    9.9396 C   0  0  0  0  0  0  0  0  0  0  0  0
   52.2405    7.4643    8.4958 C   0  0  0  0  0  0  0  0  0  0  0  0
   53.3324    6.6019    7.8855 C   0  0  0  0  0  0  0  0  0  0  0  0
   53.5081    5.3634    8.5743 O   0  0  0  0  0  0  0  0  0  0  0  0
   53.1908    5.3953    9.9668 C   0  0  0  0  0  0  0  0  0  0  0  0
   53.4728    6.7511   10.5933 C   0  0  0  0  0  0  0  0  0  0  0  0
   49.5884    8.5606   12.9408 C   0  0  0  0  0  0  0  0  0  0  0  0
   48.6027    7.7225   12.4714 N   0  0  0  0  0  0  0  0  0  0  0  0
   50.1836    8.5469   14.0103 O   0  0  0  0  0  0  0  0  0  0  0  0
   48.0014    6.7135   13.1955 C   0  0  0  0  0  0  0  0  0  0  0  0
   48.2811    6.4115   14.4642 N   0  0  0  0  0  0  0  0  0  0  0  0
   47.4627    5.3941   14.7568 N   0  0  0  0  0  0  0  0  0  0  0  0
   46.6423    5.0186   13.7299 C   0  0  0  0  0  0  0  0  0  0  0  0
   46.9733    5.8665   12.6794 C   0  0  0  0  0  0  0  0  0  0  0  0
   46.2856    5.7273   11.4562 C   0  0  0  0  0  0  0  0  0  0  0  0
   45.2836    4.7448   11.3305 C   0  0  0  0  0  0  0  0  0  0  0  0
   44.9908    3.9078   12.4176 C   0  0  0  0  0  0  0  0  0  0  0  0
   45.6616    4.0277   13.6397 C   0  0  0  0  0  0  0  0  0  0  0  0
   44.5430    4.5800   10.0218 C   0  0  0  0  0  0  0  0  0  0  0  0
   45.3269    3.8188    8.9781 C   0  0  0  0  0  0  0  0  0  0  0  0
   45.9443    4.4890    7.9118 C   0  0  0  0  0  0  0  0  0  0  0  0
   46.6751    3.7740    6.9641 C   0  0  0  0  0  0  0  0  0  0  0  0
   46.8110    2.3962    7.0502 C   0  0  0  0  0  0  0  0  0  0  0  0
   46.2021    1.7334    8.1049 C   0  0  0  0  0  0  0  0  0  0  0  0
   45.4661    2.4253    9.0649 C   0  0  0  0  0  0  0  0  0  0  0  0
   46.3201    0.4031    8.2042 F   0  0  0  0  0  0  0  0  0  0  0  0
   47.2554    4.4316    5.9519 F   0  0  0  0  0  0  0  0  0  0  0  0
   51.4291   16.5930    8.0052 C   0  0  0  0  0  0  0  0  0  0  0  0
   49.1798   12.8521   11.3974 H   0  0  0  0  0  0  0  0  0  0  0  0
   51.6372   10.2036    9.0893 H   0  0  0  0  0  0  0  0  0  0  0  0
   48.7304   11.0529   12.9970 H   0  0  0  0  0  0  0  0  0  0  0  0
   52.4745   13.2088   10.2472 H   0  0  0  0  0  0  0  0  0  0  0  0
   52.7937   12.3133    8.7477 H   0  0  0  0  0  0  0  0  0  0  0  0
   52.0957   14.2280    7.3878 H   0  0  0  0  0  0  0  0  0  0  0  0
   53.4139   14.6783    8.4740 H   0  0  0  0  0  0  0  0  0  0  0  0
   49.4612   15.8200    9.3149 H   0  0  0  0  0  0  0  0  0  0  0  0
   50.3203   14.9595   10.5705 H   0  0  0  0  0  0  0  0  0  0  0  0
   49.6494   13.8168    7.8113 H   0  0  0  0  0  0  0  0  0  0  0  0
   48.7568   13.4662    9.2676 H   0  0  0  0  0  0  0  0  0  0  0  0
   51.4168    7.5604   11.6274 H   0  0  0  0  0  0  0  0  0  0  0  0
   53.2097    8.7597    9.9510 H   0  0  0  0  0  0  0  0  0  0  0  0
   51.2945    6.9086    8.4792 H   0  0  0  0  0  0  0  0  0  0  0  0
   52.0927    8.3613    7.8864 H   0  0  0  0  0  0  0  0  0  0  0  0
   54.2910    7.1314    7.8884 H   0  0  0  0  0  0  0  0  0  0  0  0
   53.1004    6.3685    6.8424 H   0  0  0  0  0  0  0  0  0  0  0  0
   53.7913    4.6215   10.4562 H   0  0  0  0  0  0  0  0  0  0  0  0
   52.1380    5.1161   10.0889 H   0  0  0  0  0  0  0  0  0  0  0  0
   53.3364    6.7122   11.6804 H   0  0  0  0  0  0  0  0  0  0  0  0
   54.5279    6.9983   10.4132 H   0  0  0  0  0  0  0  0  0  0  0  0
   48.2980    7.8323   11.5156 H   0  0  0  0  0  0  0  0  0  0  0  0
   47.5117    4.9978   15.6881 H   0  0  0  0  0  0  0  0  0  0  0  0
   46.5272    6.3733   10.6166 H   0  0  0  0  0  0  0  0  0  0  0  0
   44.2262    3.1377   12.3204 H   0  0  0  0  0  0  0  0  0  0  0  0
   45.4274    3.3735   14.4736 H   0  0  0  0  0  0  0  0  0  0  0  0
   43.5852    4.0695   10.1876 H   0  0  0  0  0  0  0  0  0  0  0  0
   44.2683    5.5731    9.6422 H   0  0  0  0  0  0  0  0  0  0  0  0
   45.8682    5.5671    7.8065 H   0  0  0  0  0  0  0  0  0  0  0  0
   47.3809    1.8499    6.3090 H   0  0  0  0  0  0  0  0  0  0  0  0
   45.0114    1.8668    9.8779 H   0  0  0  0  0  0  0  0  0  0  0  0
   50.9228   17.4588    8.4443 H   0  0  0  0  0  0  0  0  0  0  0  0
   52.4203   16.9398    7.6867 H   0  0  0  0  0  0  0  0  0  0  0  0
   50.8709   16.2801    7.1143 H   0  0  0  0  0  0  0  0  0  0  0  0
  1  2  2  0
  1  6  1  0
  2  3  1  0
  3  4  2  0
  4  5  1  0
  5  6  2  0
  2  7  1  0
  7  8  1  0
 12  7  1  0
  8  9  1  0
  9 10  1  0
 10 11  1  0
 11 12  1  0
  4 13  1  0
 13 14  1  0
 14 15  1  0
 19 14  1  0
 15 16  1  0
 16 17  1  0
 17 18  1  0
 18 19  1  0
  5 20  1  0
 20 21  1  0
 20 22  2  0
 21 23  1  0
 23 24  2  0
 23 27  1  0
 24 25  1  0
 25 26  1  0
 31 26  2  0
 26 27  1  0
 27 28  2  0
 28 29  1  0
 29 30  2  0
 30 31  1  0
 29 32  1  0
 32 33  1  0
 33 34  2  0
 33 38  1  0
 34 35  1  0
 35 36  2  0
 36 37  1  0
 37 38  2  0
 37 39  1  0
 35 40  1  0
 10 41  1  0
  1 42  1  0
  3 43  1  0
  6 44  1  0
  8 45  1  0
  8 46  1  0
  9 47  1  0
  9 48  1  0
 11 49  1  0
 11 50  1  0
 12 51  1  0
 12 52  1  0
 13 53  1  0
 14 54  1  0
 15 55  1  0
 15 56  1  0
 16 57  1  0
 16 58  1  0
 18 59  1  0
 18 60  1  0
 19 61  1  0
 19 62  1  0
 21 63  1  0
 25 64  1  0
 28 65  1  0
 30 66  1  0
 31 67  1  0
 32 68  1  0
 32 69  1  0
 34 70  1  0
 36 71  1  0
 38 72  1  0
 41 73  1  0
 41 74  1  0
 41 75  1  0
M  END
> <Uni-Dock RESULT> 
ENERGY=   -5.310  LOWER_BOUND=    8.216  UPPER_BOUND=   10.887
INTER + INTRA:          -5.310
INTER:                  -5.310
INTRA:                   0.000
UNBOUND:                 0.000

$$$$

     RDKit          3D

 75 80  0  0  0  0  0  0  0  0999 V2000
   47.9070    6.9648   12.3669 C   0  0  0  0  0  0  0  0  0  0  0  0
   47.3008    6.1835   13.3564 C   0  0  0  0  0  0  0  0  0  0  0  0
   47.9102    6.1393   14.6297 C   0  0  0  0  0  0  0  0  0  0  0  0
   49.0978    6.8231   14.9390 C   0  0  0  0  0  0  0  0  0  0  0  0
   49.6287    7.6367   13.9199 C   0  0  0  0  0  0  0  0  0  0  0  0
   49.0629    7.6921   12.6420 C   0  0  0  0  0  0  0  0  0  0  0  0
   46.1316    5.4366   13.1432 N   0  0  0  0  0  0  0  0  0  0  0  0
   46.3921    3.9733   13.1607 C   0  0  0  0  0  0  0  0  0  0  0  0
   45.2185    3.1856   12.5351 C   0  0  0  0  0  0  0  0  0  0  0  0
   44.9670    3.5327   11.1188 N   0  0  0  0  0  0  0  0  0  0  0  0
   45.2087    4.9703   10.8602 C   0  0  0  0  0  0  0  0  0  0  0  0
   45.1662    5.8738   12.1121 C   0  0  0  0  0  0  0  0  0  0  0  0
   49.6660    6.8256   16.2290 N   0  0  0  0  0  0  0  0  0  0  0  0
   49.4378    5.6930   17.1456 C   0  0  0  0  0  0  0  0  0  0  0  0
   48.2686    6.0219   18.0873 C   0  0  0  0  0  0  0  0  0  0  0  0
   48.4398    5.2988   19.4125 C   0  0  0  0  0  0  0  0  0  0  0  0
   49.6190    5.6985   20.1118 O   0  0  0  0  0  0  0  0  0  0  0  0
   50.7003    6.1238   19.2807 C   0  0  0  0  0  0  0  0  0  0  0  0
   50.7220    5.3998   17.9445 C   0  0  0  0  0  0  0  0  0  0  0  0
   50.8140    8.4857   14.1573 C   0  0  0  0  0  0  0  0  0  0  0  0
   50.4973    9.6656   14.7914 N   0  0  0  0  0  0  0  0  0  0  0  0
   51.9024    8.0613   13.7919 O   0  0  0  0  0  0  0  0  0  0  0  0
   51.3828   10.6884   15.0629 C   0  0  0  0  0  0  0  0  0  0  0  0
   52.6763   10.6866   14.7375 N   0  0  0  0  0  0  0  0  0  0  0  0
   53.1354   11.8651   15.1744 N   0  0  0  0  0  0  0  0  0  0  0  0
   52.1888   12.6528   15.7677 C   0  0  0  0  0  0  0  0  0  0  0  0
   51.0180   11.9055   15.7158 C   0  0  0  0  0  0  0  0  0  0  0  0
   49.8390   12.4582   16.2570 C   0  0  0  0  0  0  0  0  0  0  0  0
   49.8736   13.7463   16.8271 C   0  0  0  0  0  0  0  0  0  0  0  0
   51.0818   14.4583   16.8623 C   0  0  0  0  0  0  0  0  0  0  0  0
   52.2635   13.9285   16.3325 C   0  0  0  0  0  0  0  0  0  0  0  0
   48.6177   14.3483   17.4175 C   0  0  0  0  0  0  0  0  0  0  0  0
   48.2867   13.8207   18.7942 C   0  0  0  0  0  0  0  0  0  0  0  0
   47.2625   12.8799   18.9767 C   0  0  0  0  0  0  0  0  0  0  0  0
   46.9779   12.3927   20.2516 C   0  0  0  0  0  0  0  0  0  0  0  0
   47.6930   12.8195   21.3609 C   0  0  0  0  0  0  0  0  0  0  0  0
   48.7066   13.7483   21.1807 C   0  0  0  0  0  0  0  0  0  0  0  0
   49.0103   14.2505   19.9168 C   0  0  0  0  0  0  0  0  0  0  0  0
   49.4070   14.1740   22.2398 F   0  0  0  0  0  0  0  0  0  0  0  0
   45.9946   11.4966   20.4059 F   0  0  0  0  0  0  0  0  0  0  0  0
   43.6241    3.1221   10.7217 C   0  0  0  0  0  0  0  0  0  0  0  0
   47.5042    7.0077   11.3598 H   0  0  0  0  0  0  0  0  0  0  0  0
   47.4026    5.5591   15.3936 H   0  0  0  0  0  0  0  0  0  0  0  0
   49.5250    8.2956   11.8654 H   0  0  0  0  0  0  0  0  0  0  0  0
   47.3153    3.7361   12.6112 H   0  0  0  0  0  0  0  0  0  0  0  0
   46.5212    3.6371   14.1960 H   0  0  0  0  0  0  0  0  0  0  0  0
   44.3242    3.3774   13.1432 H   0  0  0  0  0  0  0  0  0  0  0  0
   45.4317    2.1119   12.6025 H   0  0  0  0  0  0  0  0  0  0  0  0
   44.5124    5.3626   10.1080 H   0  0  0  0  0  0  0  0  0  0  0  0
   46.2056    5.0497   10.4082 H   0  0  0  0  0  0  0  0  0  0  0  0
   44.1617    5.8183   12.5530 H   0  0  0  0  0  0  0  0  0  0  0  0
   45.2992    6.9262   11.8326 H   0  0  0  0  0  0  0  0  0  0  0  0
   50.6581    7.0694   16.1668 H   0  0  0  0  0  0  0  0  0  0  0  0
   49.2205    4.7822   16.5732 H   0  0  0  0  0  0  0  0  0  0  0  0
   48.2256    7.1026   18.2723 H   0  0  0  0  0  0  0  0  0  0  0  0
   47.3146    5.7395   17.6315 H   0  0  0  0  0  0  0  0  0  0  0  0
   48.4862    4.2154   19.2592 H   0  0  0  0  0  0  0  0  0  0  0  0
   47.5865    5.4916   20.0690 H   0  0  0  0  0  0  0  0  0  0  0  0
   51.6284    5.9316   19.8289 H   0  0  0  0  0  0  0  0  0  0  0  0
   50.6238    7.2080   19.1403 H   0  0  0  0  0  0  0  0  0  0  0  0
   51.6261    5.6553   17.3793 H   0  0  0  0  0  0  0  0  0  0  0  0
   50.7638    4.3198   18.1412 H   0  0  0  0  0  0  0  0  0  0  0  0
   49.5473    9.7991   15.1046 H   0  0  0  0  0  0  0  0  0  0  0  0
   54.1164   12.0752   15.0317 H   0  0  0  0  0  0  0  0  0  0  0  0
   48.9105   11.8944   16.2346 H   0  0  0  0  0  0  0  0  0  0  0  0
   51.1160   15.4490   17.3144 H   0  0  0  0  0  0  0  0  0  0  0  0
   53.1929   14.4883   16.3666 H   0  0  0  0  0  0  0  0  0  0  0  0
   48.7069   15.4414   17.4690 H   0  0  0  0  0  0  0  0  0  0  0  0
   47.7808   14.1684   16.7296 H   0  0  0  0  0  0  0  0  0  0  0  0
   46.6793   12.5144   18.1368 H   0  0  0  0  0  0  0  0  0  0  0  0
   47.4643   12.4349   22.3470 H   0  0  0  0  0  0  0  0  0  0  0  0
   49.8166   14.9719   19.8206 H   0  0  0  0  0  0  0  0  0  0  0  0
   43.4739    3.2908    9.6504 H   0  0  0  0  0  0  0  0  0  0  0  0
   43.4860    2.0466   10.8904 H   0  0  0  0  0  0  0  0  0  0  0  0
   42.8414    3.6602   11.2704 H   0  0  0  0  0  0  0  0  0  0  0  0
  1  2  2  0
  1  6  1  0
  2  3  1  0
  3  4  2  0
  4  5  1  0
  5  6  2  0
  2  7  1  0
  7  8  1  0
 12  7  1  0
  8  9  1  0
  9 10  1  0
 10 11  1  0
 11 12  1  0
  4 13  1  0
 13 14  1  0
 14 15  1  0
 19 14  1  0
 15 16  1  0
 16 17  1  0
 17 18  1  0
 18 19  1  0
  5 20  1  0
 20 21  1  0
 20 22  2  0
 21 23  1  0
 23 24  2  0
 23 27  1  0
 24 25  1  0
 25 26  1  0
 31 26  2  0
 26 27  1  0
 27 28  2  0
 28 29  1  0
 29 30  2  0
 30 31  1  0
 29 32  1  0
 32 33  1  0
 33 34  2  0
 33 38  1  0
 34 35  1  0
 35 36  2  0
 36 37  1  0
 37 38  2  0
 37 39  1  0
 35 40  1  0
 10 41  1  0
  1 42  1  0
  3 43  1  0
  6 44  1  0
  8 45  1  0
  8 46  1  0
  9 47  1  0
  9 48  1  0
 11 49  1  0
 11 50  1  0
 12 51  1  0
 12 52  1  0
 13 53  1  0
 14 54  1  0
 15 55  1  0
 15 56  1  0
 16 57  1  0
 16 58  1  0
 18 59  1  0
 18 60  1  0
 19 61  1  0
 19 62  1  0
 21 63  1  0
 25 64  1  0
 28 65  1  0
 30 66  1  0
 31 67  1  0
 32 68  1  0
 32 69  1  0
 34 70  1  0
 36 71  1  0
 38 72  1  0
 41 73  1  0
 41 74  1  0
 41 75  1  0
M  END
> <Uni-Dock RESULT> 
ENERGY=   -5.041  LOWER_BOUND=    7.363  UPPER_BOUND=   10.433
INTER + INTRA:          -5.041
INTER:                  -5.041
INTRA:                   0.000
UNBOUND:                 0.000

$$$$

     RDKit          3D

 75 80  0  0  0  0  0  0  0  0999 V2000
   49.0778    8.9370   16.3339 C   0  0  0  0  0  0  0  0  0  0  0  0
   48.9519    9.5829   17.5684 C   0  0  0  0  0  0  0  0  0  0  0  0
   48.7296    8.7851   18.7124 C   0  0  0  0  0  0  0  0  0  0  0  0
   48.6109    7.3861   18.6642 C   0  0  0  0  0  0  0  0  0  0  0  0
   48.8030    6.7902   17.4030 C   0  0  0  0  0  0  0  0  0  0  0  0
   49.0077    7.5485   16.2457 C   0  0  0  0  0  0  0  0  0  0  0  0
   49.0227   10.9763   17.7225 N   0  0  0  0  0  0  0  0  0  0  0  0
   47.7091   11.5652   18.0928 C   0  0  0  0  0  0  0  0  0  0  0  0
   47.6938   13.0939   17.8649 C   0  0  0  0  0  0  0  0  0  0  0  0
   47.9249   13.4799   16.4551 N   0  0  0  0  0  0  0  0  0  0  0  0
   48.8875   12.5703   15.7933 C   0  0  0  0  0  0  0  0  0  0  0  0
   49.8010   11.7775   16.7537 C   0  0  0  0  0  0  0  0  0  0  0  0
   48.4524    6.5910   19.8172 N   0  0  0  0  0  0  0  0  0  0  0  0
   47.8137    7.1483   21.0242 C   0  0  0  0  0  0  0  0  0  0  0  0
   48.8963    7.6466   21.9946 C   0  0  0  0  0  0  0  0  0  0  0  0
   48.4019    7.5542   23.4282 C   0  0  0  0  0  0  0  0  0  0  0  0
   48.1160    6.2137   23.8289 O   0  0  0  0  0  0  0  0  0  0  0  0
   47.6993    5.3433   22.7755 C   0  0  0  0  0  0  0  0  0  0  0  0
   46.9292    6.0769   21.6897 C   0  0  0  0  0  0  0  0  0  0  0  0
   48.8070    5.3218   17.2426 C   0  0  0  0  0  0  0  0  0  0  0  0
   50.0180    4.7595   17.5772 N   0  0  0  0  0  0  0  0  0  0  0  0
   47.7752    4.7869   16.8586 O   0  0  0  0  0  0  0  0  0  0  0  0
   50.3423    3.4250   17.4439 C   0  0  0  0  0  0  0  0  0  0  0  0
   49.5299    2.4855   16.9578 N   0  0  0  0  0  0  0  0  0  0  0  0
   50.2531    1.3604   16.9990 N   0  0  0  0  0  0  0  0  0  0  0  0
   51.5204    1.5234   17.4847 C   0  0  0  0  0  0  0  0  0  0  0  0
   51.6139    2.8755   17.7932 C   0  0  0  0  0  0  0  0  0  0  0  0
   52.8252    3.3656   18.3232 C   0  0  0  0  0  0  0  0  0  0  0  0
   53.9051    2.4822   18.5201 C   0  0  0  0  0  0  0  0  0  0  0  0
   53.7592    1.1241   18.2001 C   0  0  0  0  0  0  0  0  0  0  0  0
   52.5660    0.6165   17.6744 C   0  0  0  0  0  0  0  0  0  0  0  0
   55.2079    2.9933   19.0945 C   0  0  0  0  0  0  0  0  0  0  0  0
   55.1732    3.1790   20.5937 C   0  0  0  0  0  0  0  0  0  0  0  0
   55.0582    4.4582   21.1574 C   0  0  0  0  0  0  0  0  0  0  0  0
   55.0143    4.6121   22.5423 C   0  0  0  0  0  0  0  0  0  0  0  0
   55.0809    3.5163   23.3902 C   0  0  0  0  0  0  0  0  0  0  0  0
   55.1929    2.2514   22.8334 C   0  0  0  0  0  0  0  0  0  0  0  0
   55.2390    2.0713   21.4523 C   0  0  0  0  0  0  0  0  0  0  0  0
   55.2605    1.1812   23.6357 F   0  0  0  0  0  0  0  0  0  0  0  0
   54.9067    5.8419   23.0616 F   0  0  0  0  0  0  0  0  0  0  0  0
   48.3404   14.8761   16.3681 C   0  0  0  0  0  0  0  0  0  0  0  0
   49.2129    9.5009   15.4161 H   0  0  0  0  0  0  0  0  0  0  0  0
   48.6742    9.3026   19.6647 H   0  0  0  0  0  0  0  0  0  0  0  0
   49.1069    7.0579   15.2813 H   0  0  0  0  0  0  0  0  0  0  0  0
   46.8986   11.1079   17.5058 H   0  0  0  0  0  0  0  0  0  0  0  0
   47.5071   11.3716   19.1527 H   0  0  0  0  0  0  0  0  0  0  0  0
   48.4590   13.5376   18.5160 H   0  0  0  0  0  0  0  0  0  0  0  0
   46.7243   13.4940   18.1856 H   0  0  0  0  0  0  0  0  0  0  0  0
   49.5088   13.1084   15.0659 H   0  0  0  0  0  0  0  0  0  0  0  0
   48.2980   11.8555   15.2051 H   0  0  0  0  0  0  0  0  0  0  0  0
   50.4124   12.4882   17.3260 H   0  0  0  0  0  0  0  0  0  0  0  0
   50.5194   11.1705   16.1891 H   0  0  0  0  0  0  0  0  0  0  0  0
   48.0496    5.6866   19.5581 H   0  0  0  0  0  0  0  0  0  0  0  0
   47.1413    7.9709   20.7496 H   0  0  0  0  0  0  0  0  0  0  0  0
   49.8050    7.0405   21.8897 H   0  0  0  0  0  0  0  0  0  0  0  0
   49.1752    8.6795   21.7646 H   0  0  0  0  0  0  0  0  0  0  0  0
   47.4934    8.1506   23.5637 H   0  0  0  0  0  0  0  0  0  0  0  0
   49.1503    7.9519   24.1197 H   0  0  0  0  0  0  0  0  0  0  0  0
   47.0716    4.5660   23.2235 H   0  0  0  0  0  0  0  0  0  0  0  0
   48.5862    4.8483   22.3637 H   0  0  0  0  0  0  0  0  0  0  0  0
   46.5190    5.3694   20.9594 H   0  0  0  0  0  0  0  0  0  0  0  0
   46.0739    6.5822   22.1589 H   0  0  0  0  0  0  0  0  0  0  0  0
   50.7297    5.3575   17.9699 H   0  0  0  0  0  0  0  0  0  0  0  0
   49.8191    0.5045   16.6734 H   0  0  0  0  0  0  0  0  0  0  0  0
   52.9248    4.4171   18.5781 H   0  0  0  0  0  0  0  0  0  0  0  0
   54.5871    0.4351   18.3635 H   0  0  0  0  0  0  0  0  0  0  0  0
   52.4643   -0.4366   17.4317 H   0  0  0  0  0  0  0  0  0  0  0  0
   56.0298    2.3108   18.8410 H   0  0  0  0  0  0  0  0  0  0  0  0
   55.4670    3.9387   18.5997 H   0  0  0  0  0  0  0  0  0  0  0  0
   54.9989    5.3442   20.5323 H   0  0  0  0  0  0  0  0  0  0  0  0
   55.0458    3.6463   24.4647 H   0  0  0  0  0  0  0  0  0  0  0  0
   55.3207    1.0622   21.0591 H   0  0  0  0  0  0  0  0  0  0  0  0
   48.4170   15.1876   15.3213 H   0  0  0  0  0  0  0  0  0  0  0  0
   47.5915   15.5292   16.8338 H   0  0  0  0  0  0  0  0  0  0  0  0
   49.3063   15.0575   16.8553 H   0  0  0  0  0  0  0  0  0  0  0  0
  1  2  2  0
  1  6  1  0
  2  3  1  0
  3  4  2  0
  4  5  1  0
  5  6  2  0
  2  7  1  0
  7  8  1  0
 12  7  1  0
  8  9  1  0
  9 10  1  0
 10 11  1  0
 11 12  1  0
  4 13  1  0
 13 14  1  0
 14 15  1  0
 19 14  1  0
 15 16  1  0
 16 17  1  0
 17 18  1  0
 18 19  1  0
  5 20  1  0
 20 21  1  0
 20 22  2  0
 21 23  1  0
 23 24  2  0
 23 27  1  0
 24 25  1  0
 25 26  1  0
 31 26  2  0
 26 27  1  0
 27 28  2  0
 28 29  1  0
 29 30  2  0
 30 31  1  0
 29 32  1  0
 32 33  1  0
 33 34  2  0
 33 38  1  0
 34 35  1  0
 35 36  2  0
 36 37  1  0
 37 38  2  0
 37 39  1  0
 35 40  1  0
 10 41  1  0
  1 42  1  0
  3 43  1  0
  6 44  1  0
  8 45  1  0
  8 46  1  0
  9 47  1  0
  9 48  1  0
 11 49  1  0
 11 50  1  0
 12 51  1  0
 12 52  1  0
 13 53  1  0
 14 54  1  0
 15 55  1  0
 15 56  1  0
 16 57  1  0
 16 58  1  0
 18 59  1  0
 18 60  1  0
 19 61  1  0
 19 62  1  0
 21 63  1  0
 25 64  1  0
 28 65  1  0
 30 66  1  0
 31 67  1  0
 32 68  1  0
 32 69  1  0
 34 70  1  0
 36 71  1  0
 38 72  1  0
 41 73  1  0
 41 74  1  0
 41 75  1  0
M  END
> <Uni-Dock RESULT> 
ENERGY=   -4.991  LOWER_BOUND=    8.933  UPPER_BOUND=   14.870
INTER + INTRA:          -4.991
INTER:                  -4.991
INTRA:                   0.000
UNBOUND:                 0.000

$$$$

     RDKit          3D

 75 80  0  0  0  0  0  0  0  0999 V2000
   45.0664   15.0594   13.7535 C   0  0  0  0  0  0  0  0  0  0  0  0
   43.8985   15.0309   12.9838 C   0  0  0  0  0  0  0  0  0  0  0  0
   43.9250   14.3120   11.7685 C   0  0  0  0  0  0  0  0  0  0  0  0
   45.0669   13.6462   11.2925 C   0  0  0  0  0  0  0  0  0  0  0  0
   46.1928   13.6636   12.1378 C   0  0  0  0  0  0  0  0  0  0  0  0
   46.2093   14.3789   13.3396 C   0  0  0  0  0  0  0  0  0  0  0  0
   42.7140   15.6879   13.3519 N   0  0  0  0  0  0  0  0  0  0  0  0
   42.4139   16.8398   12.4617 C   0  0  0  0  0  0  0  0  0  0  0  0
   41.3665   17.7830   13.0962 C   0  0  0  0  0  0  0  0  0  0  0  0
   41.8074   18.3710   14.3806 N   0  0  0  0  0  0  0  0  0  0  0  0
   42.6193   17.4142   15.1662 C   0  0  0  0  0  0  0  0  0  0  0  0
   42.4300   15.9302   14.7827 C   0  0  0  0  0  0  0  0  0  0  0  0
   45.0683   12.8781   10.1106 N   0  0  0  0  0  0  0  0  0  0  0  0
   44.1276   13.1902    9.0184 C   0  0  0  0  0  0  0  0  0  0  0  0
   42.8876   12.2899    9.1356 C   0  0  0  0  0  0  0  0  0  0  0  0
   42.2796   12.0492    7.7642 C   0  0  0  0  0  0  0  0  0  0  0  0
   43.1669   11.3655    6.8786 O   0  0  0  0  0  0  0  0  0  0  0  0
   44.5563   11.6007    7.1137 C   0  0  0  0  0  0  0  0  0  0  0  0
   44.8229   12.9947    7.6576 C   0  0  0  0  0  0  0  0  0  0  0  0
   47.4181   12.9124   11.7967 C   0  0  0  0  0  0  0  0  0  0  0  0
   47.3243   11.5781   12.1214 N   0  0  0  0  0  0  0  0  0  0  0  0
   48.3380   13.5280   11.2742 O   0  0  0  0  0  0  0  0  0  0  0  0
   48.3414   10.6537   11.9991 C   0  0  0  0  0  0  0  0  0  0  0  0
   49.5711   10.9234   11.5586 N   0  0  0  0  0  0  0  0  0  0  0  0
   50.2156    9.7524   11.6203 N   0  0  0  0  0  0  0  0  0  0  0  0
   49.4595    8.7183   12.0972 C   0  0  0  0  0  0  0  0  0  0  0  0
   48.2126    9.2761   12.3544 C   0  0  0  0  0  0  0  0  0  0  0  0
   47.1940    8.4466   12.8672 C   0  0  0  0  0  0  0  0  0  0  0  0
   47.4635    7.0851   13.1107 C   0  0  0  0  0  0  0  0  0  0  0  0
   48.7363    6.5674   12.8278 C   0  0  0  0  0  0  0  0  0  0  0  0
   49.7609    7.3720   12.3174 C   0  0  0  0  0  0  0  0  0  0  0  0
   46.3780    6.1826   13.6540 C   0  0  0  0  0  0  0  0  0  0  0  0
   45.3896    5.7303   12.6044 C   0  0  0  0  0  0  0  0  0  0  0  0
   44.1116    6.3030   12.5259 C   0  0  0  0  0  0  0  0  0  0  0  0
   43.2155    5.8843   11.5435 C   0  0  0  0  0  0  0  0  0  0  0  0
   43.5605    4.9022   10.6267 C   0  0  0  0  0  0  0  0  0  0  0  0
   44.8243    4.3369   10.7029 C   0  0  0  0  0  0  0  0  0  0  0  0
   45.7379    4.7381   11.6757 C   0  0  0  0  0  0  0  0  0  0  0  0
   45.1753    3.3858    9.8278 F   0  0  0  0  0  0  0  0  0  0  0  0
   41.9989    6.4414   11.4862 F   0  0  0  0  0  0  0  0  0  0  0  0
   40.6621   18.8683   15.1359 C   0  0  0  0  0  0  0  0  0  0  0  0
   45.1161   15.6260   14.6782 H   0  0  0  0  0  0  0  0  0  0  0  0
   42.9977   14.2698   11.2064 H   0  0  0  0  0  0  0  0  0  0  0  0
   47.1107   14.4083   13.9458 H   0  0  0  0  0  0  0  0  0  0  0  0
   43.3279   17.4134   12.2465 H   0  0  0  0  0  0  0  0  0  0  0  0
   42.0157   16.4719   11.5090 H   0  0  0  0  0  0  0  0  0  0  0  0
   40.4392   17.2106   13.2330 H   0  0  0  0  0  0  0  0  0  0  0  0
   41.1448   18.5958   12.3940 H   0  0  0  0  0  0  0  0  0  0  0  0
   42.4449   17.5338   16.2432 H   0  0  0  0  0  0  0  0  0  0  0  0
   43.6714   17.6829   15.0069 H   0  0  0  0  0  0  0  0  0  0  0  0
   41.3841   15.6493   14.9657 H   0  0  0  0  0  0  0  0  0  0  0  0
   43.0208   15.2831   15.4426 H   0  0  0  0  0  0  0  0  0  0  0  0
   46.0273   12.7768    9.7679 H   0  0  0  0  0  0  0  0  0  0  0  0
   43.8357   14.2472    9.0622 H   0  0  0  0  0  0  0  0  0  0  0  0
   43.1625   11.3249    9.5796 H   0  0  0  0  0  0  0  0  0  0  0  0
   42.1426   12.7430    9.7970 H   0  0  0  0  0  0  0  0  0  0  0  0
   41.9946   12.9969    7.2952 H   0  0  0  0  0  0  0  0  0  0  0  0
   41.3694   11.4483    7.8470 H   0  0  0  0  0  0  0  0  0  0  0  0
   45.0767   11.4620    6.1604 H   0  0  0  0  0  0  0  0  0  0  0  0
   44.9264   10.8319    7.8015 H   0  0  0  0  0  0  0  0  0  0  0  0
   45.9003   13.1900    7.7136 H   0  0  0  0  0  0  0  0  0  0  0  0
   44.4033   13.7237    6.9509 H   0  0  0  0  0  0  0  0  0  0  0  0
   46.4399   11.2304   12.4608 H   0  0  0  0  0  0  0  0  0  0  0  0
   51.1837    9.7267   11.3218 H   0  0  0  0  0  0  0  0  0  0  0  0
   46.2083    8.8547   13.0729 H   0  0  0  0  0  0  0  0  0  0  0  0
   48.9449    5.5123   13.0017 H   0  0  0  0  0  0  0  0  0  0  0  0
   50.7415    6.9599   12.1011 H   0  0  0  0  0  0  0  0  0  0  0  0
   46.8209    5.2970   14.1286 H   0  0  0  0  0  0  0  0  0  0  0  0
   45.8571    6.7045   14.4678 H   0  0  0  0  0  0  0  0  0  0  0  0
   43.7996    7.0778   13.2200 H   0  0  0  0  0  0  0  0  0  0  0  0
   42.8573    4.5839    9.8672 H   0  0  0  0  0  0  0  0  0  0  0  0
   46.7193    4.2730   11.6948 H   0  0  0  0  0  0  0  0  0  0  0  0
   40.9967   19.3888   16.0391 H   0  0  0  0  0  0  0  0  0  0  0  0
   40.1006   19.6017   14.5433 H   0  0  0  0  0  0  0  0  0  0  0  0
   39.9749   18.0664   15.4325 H   0  0  0  0  0  0  0  0  0  0  0  0
  1  2  2  0
  1  6  1  0
  2  3  1  0
  3  4  2  0
  4  5  1  0
  5  6  2  0
  2  7  1  0
  7  8  1  0
 12  7  1  0
  8  9  1  0
  9 10  1  0
 10 11  1  0
 11 12  1  0
  4 13  1  0
 13 14  1  0
 14 15  1  0
 19 14  1  0
 15 16  1  0
 16 17  1  0
 17 18  1  0
 18 19  1  0
  5 20  1  0
 20 21  1  0
 20 22  2  0
 21 23  1  0
 23 24  2  0
 23 27  1  0
 24 25  1  0
 25 26  1  0
 31 26  2  0
 26 27  1  0
 27 28  2  0
 28 29  1  0
 29 30  2  0
 30 31  1  0
 29 32  1  0
 32 33  1  0
 33 34  2  0
 33 38  1  0
 34 35  1  0
 35 36  2  0
 36 37  1  0
 37 38  2  0
 37 39  1  0
 35 40  1  0
 10 41  1  0
  1 42  1  0
  3 43  1  0
  6 44  1  0
  8 45  1  0
  8 46  1  0
  9 47  1  0
  9 48  1  0
 11 49  1  0
 11 50  1  0
 12 51  1  0
 12 52  1  0
 13 53  1  0
 14 54  1  0
 15 55  1  0
 15 56  1  0
 16 57  1  0
 16 58  1  0
 18 59  1  0
 18 60  1  0
 19 61  1  0
 19 62  1  0
 21 63  1  0
 25 64  1  0
 28 65  1  0
 30 66  1  0
 31 67  1  0
 32 68  1  0
 32 69  1  0
 34 70  1  0
 36 71  1  0
 38 72  1  0
 41 73  1  0
 41 74  1  0
 41 75  1  0
M  END
> <Uni-Dock RESULT> 
ENERGY=   -4.692  LOWER_BOUND=    4.173  UPPER_BOUND=    9.574
INTER + INTRA:          -4.692
INTER:                  -4.692
INTRA:                   0.000
UNBOUND:                 0.000

$$$$

     RDKit          3D

 75 80  0  0  0  0  0  0  0  0999 V2000
   48.4946   11.3305   17.9682 C   0  0  0  0  0  0  0  0  0  0  0  0
   49.2336   12.3834   17.4183 C   0  0  0  0  0  0  0  0  0  0  0  0
   49.7501   12.2183   16.1142 C   0  0  0  0  0  0  0  0  0  0  0  0
   49.5733   11.0473   15.3585 C   0  0  0  0  0  0  0  0  0  0  0  0
   48.7737   10.0466   15.9430 C   0  0  0  0  0  0  0  0  0  0  0  0
   48.2600   10.1673   17.2383 C   0  0  0  0  0  0  0  0  0  0  0  0
   49.4954   13.5824   18.0996 N   0  0  0  0  0  0  0  0  0  0  0  0
   50.9306   13.7171   18.4625 C   0  0  0  0  0  0  0  0  0  0  0  0
   51.1384   14.8061   19.5395 C   0  0  0  0  0  0  0  0  0  0  0  0
   50.4279   14.5225   20.8062 N   0  0  0  0  0  0  0  0  0  0  0  0
   49.1265   13.8598   20.5629 C   0  0  0  0  0  0  0  0  0  0  0  0
   48.5548   14.0488   19.1407 C   0  0  0  0  0  0  0  0  0  0  0  0
   50.0370   10.9134   14.0343 N   0  0  0  0  0  0  0  0  0  0  0  0
   51.2060   11.6854   13.5728 C   0  0  0  0  0  0  0  0  0  0  0  0
   50.7301   12.9616   12.8609 C   0  0  0  0  0  0  0  0  0  0  0  0
   51.7407   13.3863   11.8090 C   0  0  0  0  0  0  0  0  0  0  0  0
   51.9079   12.4123   10.7782 O   0  0  0  0  0  0  0  0  0  0  0  0
   51.6853   11.0601   11.1817 C   0  0  0  0  0  0  0  0  0  0  0  0
   52.0666   10.8195   12.6332 C   0  0  0  0  0  0  0  0  0  0  0  0
   48.4283    8.8143   15.2053 C   0  0  0  0  0  0  0  0  0  0  0  0
   47.3783    8.9993   14.3348 N   0  0  0  0  0  0  0  0  0  0  0  0
   49.0919    7.8103   15.4289 O   0  0  0  0  0  0  0  0  0  0  0  0
   46.7832    8.0092   13.5803 C   0  0  0  0  0  0  0  0  0  0  0  0
   47.1330    6.7222   13.5948 N   0  0  0  0  0  0  0  0  0  0  0  0
   46.2926    6.1347   12.7351 N   0  0  0  0  0  0  0  0  0  0  0  0
   45.3904    6.9854   12.1598 C   0  0  0  0  0  0  0  0  0  0  0  0
   45.6875    8.2347   12.6919 C   0  0  0  0  0  0  0  0  0  0  0  0
   44.9149    9.3427   12.2870 C   0  0  0  0  0  0  0  0  0  0  0  0
   43.8651    9.1581   11.3654 C   0  0  0  0  0  0  0  0  0  0  0  0
   43.6091    7.8782   10.8510 C   0  0  0  0  0  0  0  0  0  0  0  0
   44.3639    6.7655   11.2380 C   0  0  0  0  0  0  0  0  0  0  0  0
   43.0330   10.3392   10.9172 C   0  0  0  0  0  0  0  0  0  0  0  0
   43.7123   11.1918    9.8709 C   0  0  0  0  0  0  0  0  0  0  0  0
   44.2861   12.4258   10.2105 C   0  0  0  0  0  0  0  0  0  0  0  0
   44.9209   13.1950    9.2363 C   0  0  0  0  0  0  0  0  0  0  0  0
   45.0024   12.7646    7.9202 C   0  0  0  0  0  0  0  0  0  0  0  0
   44.4367   11.5441    7.5843 C   0  0  0  0  0  0  0  0  0  0  0  0
   43.7966   10.7568    8.5396 C   0  0  0  0  0  0  0  0  0  0  0  0
   44.5033   11.1122    6.3184 F   0  0  0  0  0  0  0  0  0  0  0  0
   45.4608   14.3716    9.5797 F   0  0  0  0  0  0  0  0  0  0  0  0
   50.2838   15.7410   21.5963 C   0  0  0  0  0  0  0  0  0  0  0  0
   48.1045   11.3862   18.9797 H   0  0  0  0  0  0  0  0  0  0  0  0
   50.2865   13.0618   15.6917 H   0  0  0  0  0  0  0  0  0  0  0  0
   47.6846    9.3560   17.6759 H   0  0  0  0  0  0  0  0  0  0  0  0
   51.3281   12.7623   18.8378 H   0  0  0  0  0  0  0  0  0  0  0  0
   51.5081   13.9956   17.5734 H   0  0  0  0  0  0  0  0  0  0  0  0
   50.8050   15.7635   19.1171 H   0  0  0  0  0  0  0  0  0  0  0  0
   52.2105   14.9010   19.7504 H   0  0  0  0  0  0  0  0  0  0  0  0
   48.3754   14.1742   21.2987 H   0  0  0  0  0  0  0  0  0  0  0  0
   49.2778   12.7868   20.7368 H   0  0  0  0  0  0  0  0  0  0  0  0
   48.3766   15.1194   18.9716 H   0  0  0  0  0  0  0  0  0  0  0  0
   47.5682   13.5767   19.0560 H   0  0  0  0  0  0  0  0  0  0  0  0
   50.1206    9.9210   13.7983 H   0  0  0  0  0  0  0  0  0  0  0  0
   51.8487   11.9421   14.4244 H   0  0  0  0  0  0  0  0  0  0  0  0
   49.7618   12.7844   12.3759 H   0  0  0  0  0  0  0  0  0  0  0  0
   50.5812   13.7725   13.5805 H   0  0  0  0  0  0  0  0  0  0  0  0
   52.7195   13.5705   12.2645 H   0  0  0  0  0  0  0  0  0  0  0  0
   51.4302   14.3203   11.3321 H   0  0  0  0  0  0  0  0  0  0  0  0
   52.2829   10.4206   10.5238 H   0  0  0  0  0  0  0  0  0  0  0  0
   50.6318   10.8147   11.0051 H   0  0  0  0  0  0  0  0  0  0  0  0
   52.0010    9.7533   12.8801 H   0  0  0  0  0  0  0  0  0  0  0  0
   53.1172   11.1128   12.7640 H   0  0  0  0  0  0  0  0  0  0  0  0
   47.0159    9.9336   14.2157 H   0  0  0  0  0  0  0  0  0  0  0  0
   46.3860    5.1366   12.5865 H   0  0  0  0  0  0  0  0  0  0  0  0
   45.1280   10.3318   12.6829 H   0  0  0  0  0  0  0  0  0  0  0  0
   42.8072    7.7334   10.1279 H   0  0  0  0  0  0  0  0  0  0  0  0
   44.1574    5.7801   10.8322 H   0  0  0  0  0  0  0  0  0  0  0  0
   42.0671    9.9970   10.5229 H   0  0  0  0  0  0  0  0  0  0  0  0
   42.7770   10.9464   11.7956 H   0  0  0  0  0  0  0  0  0  0  0  0
   44.2499   12.8008   11.2290 H   0  0  0  0  0  0  0  0  0  0  0  0
   45.4978   13.3693    7.1708 H   0  0  0  0  0  0  0  0  0  0  0  0
   43.3729    9.8046    8.2339 H   0  0  0  0  0  0  0  0  0  0  0  0
   49.8456   15.5133   22.5735 H   0  0  0  0  0  0  0  0  0  0  0  0
   51.2658   16.1900   21.7919 H   0  0  0  0  0  0  0  0  0  0  0  0
   49.6548   16.4905   21.1006 H   0  0  0  0  0  0  0  0  0  0  0  0
  1  2  2  0
  1  6  1  0
  2  3  1  0
  3  4  2  0
  4  5  1  0
  5  6  2  0
  2  7  1  0
  7  8  1  0
 12  7  1  0
  8  9  1  0
  9 10  1  0
 10 11  1  0
 11 12  1  0
  4 13  1  0
 13 14  1  0
 14 15  1  0
 19 14  1  0
 15 16  1  0
 16 17  1  0
 17 18  1  0
 18 19  1  0
  5 20  1  0
 20 21  1  0
 20 22  2  0
 21 23  1  0
 23 24  2  0
 23 27  1  0
 24 25  1  0
 25 26  1  0
 31 26  2  0
 26 27  1  0
 27 28  2  0
 28 29  1  0
 29 30  2  0
 30 31  1  0
 29 32  1  0
 32 33  1  0
 33 34  2  0
 33 38  1  0
 34 35  1  0
 35 36  2  0
 36 37  1  0
 37 38  2  0
 37 39  1  0
 35 40  1  0
 10 41  1  0
  1 42  1  0
  3 43  1  0
  6 44  1  0
  8 45  1  0
  8 46  1  0
  9 47  1  0
  9 48  1  0
 11 49  1  0
 11 50  1  0
 12 51  1  0
 12 52  1  0
 13 53  1  0
 14 54  1  0
 15 55  1  0
 15 56  1  0
 16 57  1  0
 16 58  1  0
 18 59  1  0
 18 60  1  0
 19 61  1  0
 19 62  1  0
 21 63  1  0
 25 64  1  0
 28 65  1  0
 30 66  1  0
 31 67  1  0
 32 68  1  0
 32 69  1  0
 34 70  1  0
 36 71  1  0
 38 72  1  0
 41 73  1  0
 41 74  1  0
 41 75  1  0
M  END
> <Uni-Dock RESULT> 
ENERGY=   -4.421  LOWER_BOUND=    5.141  UPPER_BOUND=    7.649
INTER + INTRA:          -4.421
INTER:                  -4.421
INTRA:                   0.000
UNBOUND:                 0.000

$$$$

     RDKit          3D

 75 80  0  0  0  0  0  0  0  0999 V2000
   46.3061   10.0544   12.1618 C   0  0  0  0  0  0  0  0  0  0  0  0
   46.1623   11.1410   11.2925 C   0  0  0  0  0  0  0  0  0  0  0  0
   47.3143   11.8971   10.9831 C   0  0  0  0  0  0  0  0  0  0  0  0
   48.5832   11.6215   11.5194 C   0  0  0  0  0  0  0  0  0  0  0  0
   48.6749   10.4826   12.3422 C   0  0  0  0  0  0  0  0  0  0  0  0
   47.5533    9.7203   12.6845 C   0  0  0  0  0  0  0  0  0  0  0  0
   44.9353   11.5212   10.7267 N   0  0  0  0  0  0  0  0  0  0  0  0
   44.4457   12.8149   11.2711 C   0  0  0  0  0  0  0  0  0  0  0  0
   42.9451   13.0223   10.9641 C   0  0  0  0  0  0  0  0  0  0  0  0
   42.0753   11.9817   11.5560 N   0  0  0  0  0  0  0  0  0  0  0  0
   42.7302   10.6540   11.5431 C   0  0  0  0  0  0  0  0  0  0  0  0
   43.8808   10.5047   10.5238 C   0  0  0  0  0  0  0  0  0  0  0  0
   49.7401   12.3406   11.1573 N   0  0  0  0  0  0  0  0  0  0  0  0
   49.6356   13.7399   10.7030 C   0  0  0  0  0  0  0  0  0  0  0  0
   49.6061   13.7804    9.1670 C   0  0  0  0  0  0  0  0  0  0  0  0
   50.1966   15.0863    8.6628 C   0  0  0  0  0  0  0  0  0  0  0  0
   51.5686   15.2483    9.0240 O   0  0  0  0  0  0  0  0  0  0  0  0
   51.9535   14.6072   10.2412 C   0  0  0  0  0  0  0  0  0  0  0  0
   50.8199   14.5579   11.2524 C   0  0  0  0  0  0  0  0  0  0  0  0
   49.9738   10.0293   12.8803 C   0  0  0  0  0  0  0  0  0  0  0  0
   50.6959    9.2980   11.9646 N   0  0  0  0  0  0  0  0  0  0  0  0
   50.2598   10.3495   14.0265 O   0  0  0  0  0  0  0  0  0  0  0  0
   51.9013    8.6744   12.2137 C   0  0  0  0  0  0  0  0  0  0  0  0
   52.5373    8.6799   13.3860 N   0  0  0  0  0  0  0  0  0  0  0  0
   53.6395    7.9510   13.1750 N   0  0  0  0  0  0  0  0  0  0  0  0
   53.7505    7.4531   11.9068 C   0  0  0  0  0  0  0  0  0  0  0  0
   52.6209    7.9145   11.2413 C   0  0  0  0  0  0  0  0  0  0  0  0
   52.4424    7.5612    9.8878 C   0  0  0  0  0  0  0  0  0  0  0  0
   53.4018    6.7507    9.2491 C   0  0  0  0  0  0  0  0  0  0  0  0
   54.5294    6.3159    9.9616 C   0  0  0  0  0  0  0  0  0  0  0  0
   54.7269    6.6557   11.3045 C   0  0  0  0  0  0  0  0  0  0  0  0
   53.2263    6.3701    7.7956 C   0  0  0  0  0  0  0  0  0  0  0  0
   53.6131    7.4698    6.8343 C   0  0  0  0  0  0  0  0  0  0  0  0
   52.6332    8.2333    6.1832 C   0  0  0  0  0  0  0  0  0  0  0  0
   53.0061    9.2533    5.3090 C   0  0  0  0  0  0  0  0  0  0  0  0
   54.3413    9.5381    5.0637 C   0  0  0  0  0  0  0  0  0  0  0  0
   55.3104    8.7846    5.7084 C   0  0  0  0  0  0  0  0  0  0  0  0
   54.9634    7.7597    6.5866 C   0  0  0  0  0  0  0  0  0  0  0  0
   56.6050    9.0431    5.4831 F   0  0  0  0  0  0  0  0  0  0  0  0
   52.0557    9.9698    4.6949 F   0  0  0  0  0  0  0  0  0  0  0  0
   40.7772   11.9597   10.8895 C   0  0  0  0  0  0  0  0  0  0  0  0
   45.4496    9.4598   12.4642 H   0  0  0  0  0  0  0  0  0  0  0  0
   47.1883   12.7111   10.2765 H   0  0  0  0  0  0  0  0  0  0  0  0
   47.6528    8.8741   13.3589 H   0  0  0  0  0  0  0  0  0  0  0  0
   44.5979   12.8612   12.3598 H   0  0  0  0  0  0  0  0  0  0  0  0
   45.0085   13.6390   10.8175 H   0  0  0  0  0  0  0  0  0  0  0  0
   42.8266   13.0481    9.8726 H   0  0  0  0  0  0  0  0  0  0  0  0
   42.6335   14.0018   11.3469 H   0  0  0  0  0  0  0  0  0  0  0  0
   41.9996    9.8507   11.3831 H   0  0  0  0  0  0  0  0  0  0  0  0
   43.1342   10.4881   12.5499 H   0  0  0  0  0  0  0  0  0  0  0  0
   43.4761   10.6437    9.5122 H   0  0  0  0  0  0  0  0  0  0  0  0
   44.2768    9.4818   10.5365 H   0  0  0  0  0  0  0  0  0  0  0  0
   50.4545   12.2293   11.8816 H   0  0  0  0  0  0  0  0  0  0  0  0
   48.7292   14.2030   11.1131 H   0  0  0  0  0  0  0  0  0  0  0  0
   50.1852   12.9437    8.7562 H   0  0  0  0  0  0  0  0  0  0  0  0
   48.5821   13.6695    8.7974 H   0  0  0  0  0  0  0  0  0  0  0  0
   49.6379   15.9417    9.0573 H   0  0  0  0  0  0  0  0  0  0  0  0
   50.1347   15.1408    7.5721 H   0  0  0  0  0  0  0  0  0  0  0  0
   52.8005   15.1669   10.6512 H   0  0  0  0  0  0  0  0  0  0  0  0
   52.3136   13.5997   10.0035 H   0  0  0  0  0  0  0  0  0  0  0  0
   51.1752   14.1726   12.2154 H   0  0  0  0  0  0  0  0  0  0  0  0
   50.4737   15.5855   11.4286 H   0  0  0  0  0  0  0  0  0  0  0  0
   50.3346    9.2182   11.0258 H   0  0  0  0  0  0  0  0  0  0  0  0
   54.2821    7.8266   13.9486 H   0  0  0  0  0  0  0  0  0  0  0  0
   51.5712    7.9119    9.3415 H   0  0  0  0  0  0  0  0  0  0  0  0
   55.2805    5.7004    9.4677 H   0  0  0  0  0  0  0  0  0  0  0  0
   55.6040    6.3144   11.8453 H   0  0  0  0  0  0  0  0  0  0  0  0
   53.8149    5.4728    7.5630 H   0  0  0  0  0  0  0  0  0  0  0  0
   52.1829    6.0701    7.6310 H   0  0  0  0  0  0  0  0  0  0  0  0
   51.5758    8.0485    6.3479 H   0  0  0  0  0  0  0  0  0  0  0  0
   54.6207   10.3326    4.3830 H   0  0  0  0  0  0  0  0  0  0  0  0
   55.7551    7.1989    7.0748 H   0  0  0  0  0  0  0  0  0  0  0  0
   40.1023   11.2579   11.3902 H   0  0  0  0  0  0  0  0  0  0  0  0
   40.2997   12.9461   10.9464 H   0  0  0  0  0  0  0  0  0  0  0  0
   40.8528   11.6740    9.8331 H   0  0  0  0  0  0  0  0  0  0  0  0
  1  2  2  0
  1  6  1  0
  2  3  1  0
  3  4  2  0
  4  5  1  0
  5  6  2  0
  2  7  1  0
  7  8  1  0
 12  7  1  0
  8  9  1  0
  9 10  1  0
 10 11  1  0
 11 12  1  0
  4 13  1  0
 13 14  1  0
 14 15  1  0
 19 14  1  0
 15 16  1  0
 16 17  1  0
 17 18  1  0
 18 19  1  0
  5 20  1  0
 20 21  1  0
 20 22  2  0
 21 23  1  0
 23 24  2  0
 23 27  1  0
 24 25  1  0
 25 26  1  0
 31 26  2  0
 26 27  1  0
 27 28  2  0
 28 29  1  0
 29 30  2  0
 30 31  1  0
 29 32  1  0
 32 33  1  0
 33 34  2  0
 33 38  1  0
 34 35  1  0
 35 36  2  0
 36 37  1  0
 37 38  2  0
 37 39  1  0
 35 40  1  0
 10 41  1  0
  1 42  1  0
  3 43  1  0
  6 44  1  0
  8 45  1  0
  8 46  1  0
  9 47  1  0
  9 48  1  0
 11 49  1  0
 11 50  1  0
 12 51  1  0
 12 52  1  0
 13 53  1  0
 14 54  1  0
 15 55  1  0
 15 56  1  0
 16 57  1  0
 16 58  1  0
 18 59  1  0
 18 60  1  0
 19 61  1  0
 19 62  1  0
 21 63  1  0
 25 64  1  0
 28 65  1  0
 30 66  1  0
 31 67  1  0
 32 68  1  0
 32 69  1  0
 34 70  1  0
 36 71  1  0
 38 72  1  0
 41 73  1  0
 41 74  1  0
 41 75  1  0
M  END
> <Uni-Dock RESULT> 
ENERGY=   -4.393  LOWER_BOUND=    5.724  UPPER_BOUND=   12.098
INTER + INTRA:          -4.393
INTER:                  -4.393
INTRA:                   0.000
UNBOUND:                 0.000

$$$$

     RDKit          3D

 75 80  0  0  0  0  0  0  0  0999 V2000
   45.6296   13.9383   12.3902 C   0  0  0  0  0  0  0  0  0  0  0  0
   46.1268   12.8378   11.6840 C   0  0  0  0  0  0  0  0  0  0  0  0
   47.3663   12.2965   12.0904 C   0  0  0  0  0  0  0  0  0  0  0  0
   48.1250   12.8207   13.1502 C   0  0  0  0  0  0  0  0  0  0  0  0
   47.5459   13.8916   13.8576 C   0  0  0  0  0  0  0  0  0  0  0  0
   46.3291   14.4648   13.4738 C   0  0  0  0  0  0  0  0  0  0  0  0
   45.4644   12.2574   10.5910 N   0  0  0  0  0  0  0  0  0  0  0  0
   46.1846   12.4923    9.3121 C   0  0  0  0  0  0  0  0  0  0  0  0
   45.2726   12.2183    8.0945 C   0  0  0  0  0  0  0  0  0  0  0  0
   44.0768   13.0888    8.0488 N   0  0  0  0  0  0  0  0  0  0  0  0
   43.5560   13.3688    9.4061 C   0  0  0  0  0  0  0  0  0  0  0  0
   43.9928   12.3615   10.4924 C   0  0  0  0  0  0  0  0  0  0  0  0
   49.3299   12.2372   13.5911 N   0  0  0  0  0  0  0  0  0  0  0  0
   50.1666   11.4602   12.6575 C   0  0  0  0  0  0  0  0  0  0  0  0
   49.8460    9.9643   12.8039 C   0  0  0  0  0  0  0  0  0  0  0  0
   51.0657    9.1276   12.4567 C   0  0  0  0  0  0  0  0  0  0  0  0
   52.1691    9.3701   13.3301 O   0  0  0  0  0  0  0  0  0  0  0  0
   52.2259   10.6867   13.8817 C   0  0  0  0  0  0  0  0  0  0  0  0
   51.6563   11.7338   12.9388 C   0  0  0  0  0  0  0  0  0  0  0  0
   48.1975   14.4595   15.0555 C   0  0  0  0  0  0  0  0  0  0  0  0
   47.9549   13.7161   16.1883 N   0  0  0  0  0  0  0  0  0  0  0  0
   48.8629   15.4771   14.9148 O   0  0  0  0  0  0  0  0  0  0  0  0
   48.3603   14.0504   17.4641 C   0  0  0  0  0  0  0  0  0  0  0  0
   49.0378   15.1530   17.7870 N   0  0  0  0  0  0  0  0  0  0  0  0
   49.2004   15.0726   19.1128 N   0  0  0  0  0  0  0  0  0  0  0  0
   48.6444   13.9609   19.6815 C   0  0  0  0  0  0  0  0  0  0  0  0
   48.0834   13.2592   18.6208 C   0  0  0  0  0  0  0  0  0  0  0  0
   47.4210   12.0437   18.8897 C   0  0  0  0  0  0  0  0  0  0  0  0
   47.3384   11.5762   20.2163 C   0  0  0  0  0  0  0  0  0  0  0  0
   47.9273   12.3169   21.2520 C   0  0  0  0  0  0  0  0  0  0  0  0
   48.5904   13.5245   21.0076 C   0  0  0  0  0  0  0  0  0  0  0  0
   46.6368   10.2704   20.5179 C   0  0  0  0  0  0  0  0  0  0  0  0
   47.4754    9.0514   20.2112 C   0  0  0  0  0  0  0  0  0  0  0  0
   47.2334    8.2824   19.0634 C   0  0  0  0  0  0  0  0  0  0  0  0
   48.0243    7.1680   18.7872 C   0  0  0  0  0  0  0  0  0  0  0  0
   49.0610    6.7951   19.6300 C   0  0  0  0  0  0  0  0  0  0  0  0
   49.3016    7.5559   20.7639 C   0  0  0  0  0  0  0  0  0  0  0  0
   48.5252    8.6741   21.0621 C   0  0  0  0  0  0  0  0  0  0  0  0
   50.2968    7.2107   21.5909 F   0  0  0  0  0  0  0  0  0  0  0  0
   47.7761    6.4450   17.6875 F   0  0  0  0  0  0  0  0  0  0  0  0
   43.0573   12.5127    7.1780 C   0  0  0  0  0  0  0  0  0  0  0  0
   44.7004   14.4188   12.1001 H   0  0  0  0  0  0  0  0  0  0  0  0
   47.7147   11.4194   11.5547 H   0  0  0  0  0  0  0  0  0  0  0  0
   45.9331   15.3199   14.0148 H   0  0  0  0  0  0  0  0  0  0  0  0
   46.5526   13.5277    9.2575 H   0  0  0  0  0  0  0  0  0  0  0  0
   47.0513   11.8238    9.2522 H   0  0  0  0  0  0  0  0  0  0  0  0
   44.9780   11.1608    8.1276 H   0  0  0  0  0  0  0  0  0  0  0  0
   45.8507   12.3647    7.1741 H   0  0  0  0  0  0  0  0  0  0  0  0
   42.4612   13.4463    9.4048 H   0  0  0  0  0  0  0  0  0  0  0  0
   43.9212   14.3644    9.6885 H   0  0  0  0  0  0  0  0  0  0  0  0
   43.6067   11.3679   10.2275 H   0  0  0  0  0  0  0  0  0  0  0  0
   43.5244   12.6045   11.4541 H   0  0  0  0  0  0  0  0  0  0  0  0
   49.8794   12.9307   14.1056 H   0  0  0  0  0  0  0  0  0  0  0  0
   49.9859   11.7888   11.6262 H   0  0  0  0  0  0  0  0  0  0  0  0
   49.5416    9.7427   13.8345 H   0  0  0  0  0  0  0  0  0  0  0  0
   49.0082    9.6840   12.1581 H   0  0  0  0  0  0  0  0  0  0  0  0
   51.3935    9.3279   11.4312 H   0  0  0  0  0  0  0  0  0  0  0  0
   50.8293    8.0611   12.5132 H   0  0  0  0  0  0  0  0  0  0  0  0
   53.2770   10.9051   14.0972 H   0  0  0  0  0  0  0  0  0  0  0  0
   51.6911   10.6851   14.8383 H   0  0  0  0  0  0  0  0  0  0  0  0
   51.8225   12.7431   13.3336 H   0  0  0  0  0  0  0  0  0  0  0  0
   52.2016   11.6701   11.9872 H   0  0  0  0  0  0  0  0  0  0  0  0
   47.4565   12.8443   16.0894 H   0  0  0  0  0  0  0  0  0  0  0  0
   49.7034   15.8205   19.5759 H   0  0  0  0  0  0  0  0  0  0  0  0
   46.9775   11.4718   18.0793 H   0  0  0  0  0  0  0  0  0  0  0  0
   47.8776   11.9522   22.2775 H   0  0  0  0  0  0  0  0  0  0  0  0
   49.0433   14.0885   21.8170 H   0  0  0  0  0  0  0  0  0  0  0  0
   46.3336   10.2356   21.5727 H   0  0  0  0  0  0  0  0  0  0  0  0
   45.6946   10.2358   19.9551 H   0  0  0  0  0  0  0  0  0  0  0  0
   46.4353    8.5392   18.3732 H   0  0  0  0  0  0  0  0  0  0  0  0
   49.6698    5.9278   19.4066 H   0  0  0  0  0  0  0  0  0  0  0  0
   48.7528    9.2450   21.9576 H   0  0  0  0  0  0  0  0  0  0  0  0
   42.2142   13.2025    7.0682 H   0  0  0  0  0  0  0  0  0  0  0  0
   43.4604   12.3501    6.1703 H   0  0  0  0  0  0  0  0  0  0  0  0
   42.6755   11.5559    7.5548 H   0  0  0  0  0  0  0  0  0  0  0  0
  1  2  2  0
  1  6  1  0
  2  3  1  0
  3  4  2  0
  4  5  1  0
  5  6  2  0
  2  7  1  0
  7  8  1  0
 12  7  1  0
  8  9  1  0
  9 10  1  0
 10 11  1  0
 11 12  1  0
  4 13  1  0
 13 14  1  0
 14 15  1  0
 19 14  1  0
 15 16  1  0
 16 17  1  0
 17 18  1  0
 18 19  1  0
  5 20  1  0
 20 21  1  0
 20 22  2  0
 21 23  1  0
 23 24  2  0
 23 27  1  0
 24 25  1  0
 25 26  1  0
 31 26  2  0
 26 27  1  0
 27 28  2  0
 28 29  1  0
 29 30  2  0
 30 31  1  0
 29 32  1  0
 32 33  1  0
 33 34  2  0
 33 38  1  0
 34 35  1  0
 35 36  2  0
 36 37  1  0
 37 38  2  0
 37 39  1  0
 35 40  1  0
 10 41  1  0
  1 42  1  0
  3 43  1  0
  6 44  1  0
  8 45  1  0
  8 46  1  0
  9 47  1  0
  9 48  1  0
 11 49  1  0
 11 50  1  0
 12 51  1  0
 12 52  1  0
 13 53  1  0
 14 54  1  0
 15 55  1  0
 15 56  1  0
 16 57  1  0
 16 58  1  0
 18 59  1  0
 18 60  1  0
 19 61  1  0
 19 62  1  0
 21 63  1  0
 25 64  1  0
 28 65  1  0
 30 66  1  0
 31 67  1  0
 32 68  1  0
 32 69  1  0
 34 70  1  0
 36 71  1  0
 38 72  1  0
 41 73  1  0
 41 74  1  0
 41 75  1  0
M  END
> <Uni-Dock RESULT> 
ENERGY=   -4.363  LOWER_BOUND=    5.603  UPPER_BOUND=    9.967
INTER + INTRA:          -4.363
INTER:                  -4.363
INTRA:                   0.000
UNBOUND:                 0.000

$$$$

     RDKit          3D

 75 80  0  0  0  0  0  0  0  0999 V2000
   47.2171   13.7376   17.1745 C   0  0  0  0  0  0  0  0  0  0  0  0
   48.5080   14.0849   16.7621 C   0  0  0  0  0  0  0  0  0  0  0  0
   49.5942   13.6495   17.5527 C   0  0  0  0  0  0  0  0  0  0  0  0
   49.4372   12.9064   18.7346 C   0  0  0  0  0  0  0  0  0  0  0  0
   48.1189   12.5399   19.0665 C   0  0  0  0  0  0  0  0  0  0  0  0
   47.0175   12.9670   18.3177 C   0  0  0  0  0  0  0  0  0  0  0  0
   48.7736   14.8503   15.6158 N   0  0  0  0  0  0  0  0  0  0  0  0
   49.2951   16.2005   15.9538 C   0  0  0  0  0  0  0  0  0  0  0  0
   49.1994   17.1591   14.7450 C   0  0  0  0  0  0  0  0  0  0  0  0
   47.8136   17.3700   14.2709 N   0  0  0  0  0  0  0  0  0  0  0  0
   47.0031   16.1372   14.3951 C   0  0  0  0  0  0  0  0  0  0  0  0
   47.8176   14.8283   14.4880 C   0  0  0  0  0  0  0  0  0  0  0  0
   50.5277   12.4211   19.4844 N   0  0  0  0  0  0  0  0  0  0  0  0
   51.8242   13.1234   19.4535 C   0  0  0  0  0  0  0  0  0  0  0  0
   52.7447   12.4571   18.4188 C   0  0  0  0  0  0  0  0  0  0  0  0
   54.1999   12.6284   18.8203 C   0  0  0  0  0  0  0  0  0  0  0  0
   54.5070   12.0015   20.0661 O   0  0  0  0  0  0  0  0  0  0  0  0
   53.4198   11.9270   20.9899 C   0  0  0  0  0  0  0  0  0  0  0  0
   52.4644   13.1013   20.8546 C   0  0  0  0  0  0  0  0  0  0  0  0
   47.8348   11.6709   20.2268 C   0  0  0  0  0  0  0  0  0  0  0  0
   48.0238   10.3372   19.9437 N   0  0  0  0  0  0  0  0  0  0  0  0
   47.4896   12.2081   21.2711 O   0  0  0  0  0  0  0  0  0  0  0  0
   47.7526    9.2927   20.8036 C   0  0  0  0  0  0  0  0  0  0  0  0
   47.2545    9.4245   22.0338 N   0  0  0  0  0  0  0  0  0  0  0  0
   47.1429    8.1709   22.4883 N   0  0  0  0  0  0  0  0  0  0  0  0
   47.5389    7.2122   21.5981 C   0  0  0  0  0  0  0  0  0  0  0  0
   47.9525    7.9172   20.4738 C   0  0  0  0  0  0  0  0  0  0  0  0
   48.4247    7.1945   19.3588 C   0  0  0  0  0  0  0  0  0  0  0  0
   48.4601    5.7867   19.4077 C   0  0  0  0  0  0  0  0  0  0  0  0
   48.0386    5.1209   20.5684 C   0  0  0  0  0  0  0  0  0  0  0  0
   47.5679    5.8182   21.6864 C   0  0  0  0  0  0  0  0  0  0  0  0
   48.9709    4.9994   18.2213 C   0  0  0  0  0  0  0  0  0  0  0  0
   50.4784    4.9673   18.1240 C   0  0  0  0  0  0  0  0  0  0  0  0
   51.1558    5.7639   17.1892 C   0  0  0  0  0  0  0  0  0  0  0  0
   52.5479    5.7330   17.1205 C   0  0  0  0  0  0  0  0  0  0  0  0
   53.2920    4.9238   17.9663 C   0  0  0  0  0  0  0  0  0  0  0  0
   52.6229    4.1373   18.8917 C   0  0  0  0  0  0  0  0  0  0  0  0
   51.2322    4.1502   18.9800 C   0  0  0  0  0  0  0  0  0  0  0  0
   53.3237    3.3478   19.7158 F   0  0  0  0  0  0  0  0  0  0  0  0
   53.1764    6.4992   16.2195 F   0  0  0  0  0  0  0  0  0  0  0  0
   47.8126   17.8922   12.9082 C   0  0  0  0  0  0  0  0  0  0  0  0
   46.3426   14.0751   16.6270 H   0  0  0  0  0  0  0  0  0  0  0  0
   50.5884   13.8960   17.1940 H   0  0  0  0  0  0  0  0  0  0  0  0
   46.0101   12.7034   18.6283 H   0  0  0  0  0  0  0  0  0  0  0  0
   48.7373   16.6327   16.7980 H   0  0  0  0  0  0  0  0  0  0  0  0
   50.3474   16.1224   16.2507 H   0  0  0  0  0  0  0  0  0  0  0  0
   49.8232   16.7472   13.9403 H   0  0  0  0  0  0  0  0  0  0  0  0
   49.6285   18.1294   15.0228 H   0  0  0  0  0  0  0  0  0  0  0  0
   46.2771   16.0534   13.5763 H   0  0  0  0  0  0  0  0  0  0  0  0
   46.4049   16.2399   15.3095 H   0  0  0  0  0  0  0  0  0  0  0  0
   48.3979   14.7077   13.5633 H   0  0  0  0  0  0  0  0  0  0  0  0
   47.1486   13.9596   14.5224 H   0  0  0  0  0  0  0  0  0  0  0  0
   50.2255   12.2245   20.4423 H   0  0  0  0  0  0  0  0  0  0  0  0
   51.6744   14.1815   19.2038 H   0  0  0  0  0  0  0  0  0  0  0  0
   52.5173   11.3861   18.3457 H   0  0  0  0  0  0  0  0  0  0  0  0
   52.5817   12.8850   17.4248 H   0  0  0  0  0  0  0  0  0  0  0  0
   54.4568   13.6899   18.9016 H   0  0  0  0  0  0  0  0  0  0  0  0
   54.8612   12.1975   18.0631 H   0  0  0  0  0  0  0  0  0  0  0  0
   53.8486   11.9038   21.9972 H   0  0  0  0  0  0  0  0  0  0  0  0
   52.8987   10.9752   20.8360 H   0  0  0  0  0  0  0  0  0  0  0  0
   51.7115   13.0829   21.6514 H   0  0  0  0  0  0  0  0  0  0  0  0
   53.0408   14.0278   20.9822 H   0  0  0  0  0  0  0  0  0  0  0  0
   48.4082   10.0900   19.0441 H   0  0  0  0  0  0  0  0  0  0  0  0
   46.7813    8.0358   23.4253 H   0  0  0  0  0  0  0  0  0  0  0  0
   48.7590    7.7198   18.4685 H   0  0  0  0  0  0  0  0  0  0  0  0
   48.0772    4.0331   20.6154 H   0  0  0  0  0  0  0  0  0  0  0  0
   47.2456    5.2922   22.5795 H   0  0  0  0  0  0  0  0  0  0  0  0
   48.5962    3.9679   18.2587 H   0  0  0  0  0  0  0  0  0  0  0  0
   48.5390    5.4204   17.3037 H   0  0  0  0  0  0  0  0  0  0  0  0
   50.6147    6.4157   16.5097 H   0  0  0  0  0  0  0  0  0  0  0  0
   54.3730    4.9070   17.9052 H   0  0  0  0  0  0  0  0  0  0  0  0
   50.7497    3.5230   19.7239 H   0  0  0  0  0  0  0  0  0  0  0  0
   46.7932   18.1388   12.5941 H   0  0  0  0  0  0  0  0  0  0  0  0
   48.3897   18.8240   12.8538 H   0  0  0  0  0  0  0  0  0  0  0  0
   48.2355   17.1825   12.1866 H   0  0  0  0  0  0  0  0  0  0  0  0
  1  2  2  0
  1  6  1  0
  2  3  1  0
  3  4  2  0
  4  5  1  0
  5  6  2  0
  2  7  1  0
  7  8  1  0
 12  7  1  0
  8  9  1  0
  9 10  1  0
 10 11  1  0
 11 12  1  0
  4 13  1  0
 13 14  1  0
 14 15  1  0
 19 14  1  0
 15 16  1  0
 16 17  1  0
 17 18  1  0
 18 19  1  0
  5 20  1  0
 20 21  1  0
 20 22  2  0
 21 23  1  0
 23 24  2  0
 23 27  1  0
 24 25  1  0
 25 26  1  0
 31 26  2  0
 26 27  1  0
 27 28  2  0
 28 29  1  0
 29 30  2  0
 30 31  1  0
 29 32  1  0
 32 33  1  0
 33 34  2  0
 33 38  1  0
 34 35  1  0
 35 36  2  0
 36 37  1  0
 37 38  2  0
 37 39  1  0
 35 40  1  0
 10 41  1  0
  1 42  1  0
  3 43  1  0
  6 44  1  0
  8 45  1  0
  8 46  1  0
  9 47  1  0
  9 48  1  0
 11 49  1  0
 11 50  1  0
 12 51  1  0
 12 52  1  0
 13 53  1  0
 14 54  1  0
 15 55  1  0
 15 56  1  0
 16 57  1  0
 16 58  1  0
 18 59  1  0
 18 60  1  0
 19 61  1  0
 19 62  1  0
 21 63  1  0
 25 64  1  0
 28 65  1  0
 30 66  1  0
 31 67  1  0
 32 68  1  0
 32 69  1  0
 34 70  1  0
 36 71  1  0
 38 72  1  0
 41 73  1  0
 41 74  1  0
 41 75  1  0
M  END
> <Uni-Dock RESULT> 
ENERGY=   -4.241  LOWER_BOUND=    8.275  UPPER_BOUND=   12.532
INTER + INTRA:          -4.241
INTER:                  -4.241
INTRA:                   0.000
UNBOUND:                 0.000

$$$$
