
     RDKit          3D

 75 80  0  0  0  0  0  0  0  0999 V2000
   45.8760    8.8427   12.6990 C   0  0  0  0  0  0  0  0  0  0  0  0
   44.8715    8.7386   11.7288 C   0  0  0  0  0  0  0  0  0  0  0  0
   44.5130    7.4352   11.3297 C   0  0  0  0  0  0  0  0  0  0  0  0
   45.1055    6.2686   11.8576 C   0  0  0  0  0  0  0  0  0  0  0  0
   46.0551    6.4283   12.8886 C   0  0  0  0  0  0  0  0  0  0  0  0
   46.4633    7.7129   13.2741 C   0  0  0  0  0  0  0  0  0  0  0  0
   44.2763    9.8655   11.1879 N   0  0  0  0  0  0  0  0  0  0  0  0
   44.1972   11.1296   11.9413 C   0  0  0  0  0  0  0  0  0  0  0  0
   42.9162   11.9214   11.5808 C   0  0  0  0  0  0  0  0  0  0  0  0
   42.7226   12.2146   10.1455 N   0  0  0  0  0  0  0  0  0  0  0  0
   43.4257   11.2260    9.2967 C   0  0  0  0  0  0  0  0  0  0  0  0
   43.5191    9.8158    9.9239 C   0  0  0  0  0  0  0  0  0  0  0  0
   44.6689    4.9828   11.4608 N   0  0  0  0  0  0  0  0  0  0  0  0
   44.4396    4.7187   10.0292 C   0  0  0  0  0  0  0  0  0  0  0  0
   43.7922    3.3315    9.8808 C   0  0  0  0  0  0  0  0  0  0  0  0
   44.8260    2.2933    9.4775 C   0  0  0  0  0  0  0  0  0  0  0  0
   45.4237    2.5934    8.2155 O   0  0  0  0  0  0  0  0  0  0  0  0
   45.6730    3.9784    7.9753 C   0  0  0  0  0  0  0  0  0  0  0  0
   45.7557    4.8103    9.2440 C   0  0  0  0  0  0  0  0  0  0  0  0
   46.6705    5.2341   13.5519 C   0  0  0  0  0  0  0  0  0  0  0  0
   46.8897    5.3888   14.9057 N   0  0  0  0  0  0  0  0  0  0  0  0
   46.8872    4.2398   12.8669 O   0  0  0  0  0  0  0  0  0  0  0  0
   47.4773    4.4558   15.7377 C   0  0  0  0  0  0  0  0  0  0  0  0
   47.9542    3.2724   15.3533 N   0  0  0  0  0  0  0  0  0  0  0  0
   48.4211    2.7152   16.4771 N   0  0  0  0  0  0  0  0  0  0  0  0
   48.2824    3.4962   17.5913 C   0  0  0  0  0  0  0  0  0  0  0  0
   47.6642    4.6551   17.1405 C   0  0  0  0  0  0  0  0  0  0  0  0
   47.3858    5.6796   18.0694 C   0  0  0  0  0  0  0  0  0  0  0  0
   47.7390    5.5064   19.4219 C   0  0  0  0  0  0  0  0  0  0  0  0
   48.3627    4.3174   19.8289 C   0  0  0  0  0  0  0  0  0  0  0  0
   48.6439    3.2873   18.9243 C   0  0  0  0  0  0  0  0  0  0  0  0
   47.4796    6.6132   20.4202 C   0  0  0  0  0  0  0  0  0  0  0  0
   48.6435    7.5646   20.5662 C   0  0  0  0  0  0  0  0  0  0  0  0
   48.7850    8.6604   19.7015 C   0  0  0  0  0  0  0  0  0  0  0  0
   49.8821    9.5117   19.8227 C   0  0  0  0  0  0  0  0  0  0  0  0
   50.8526    9.3005   20.7908 C   0  0  0  0  0  0  0  0  0  0  0  0
   50.7138    8.2169   21.6457 C   0  0  0  0  0  0  0  0  0  0  0  0
   49.6262    7.3501   21.5440 C   0  0  0  0  0  0  0  0  0  0  0  0
   51.6417    7.9960   22.5860 F   0  0  0  0  0  0  0  0  0  0  0  0
   50.0005   10.5500   18.9848 F   0  0  0  0  0  0  0  0  0  0  0  0
   43.1371   13.5730    9.8062 C   0  0  0  0  0  0  0  0  0  0  0  0
   46.2384    9.8192   13.0121 H   0  0  0  0  0  0  0  0  0  0  0  0
   43.7056    7.3184   10.6155 H   0  0  0  0  0  0  0  0  0  0  0  0
   47.2595    7.8568   13.9993 H   0  0  0  0  0  0  0  0  0  0  0  0
   44.1679   10.9391   13.0209 H   0  0  0  0  0  0  0  0  0  0  0  0
   45.0857   11.7353   11.7268 H   0  0  0  0  0  0  0  0  0  0  0  0
   42.8671   12.8353   12.1850 H   0  0  0  0  0  0  0  0  0  0  0  0
   42.0544   11.3186   11.8950 H   0  0  0  0  0  0  0  0  0  0  0  0
   44.4506   11.5651    9.0868 H   0  0  0  0  0  0  0  0  0  0  0  0
   42.9048   11.1571    8.3344 H   0  0  0  0  0  0  0  0  0  0  0  0
   44.0214    9.1629    9.2004 H   0  0  0  0  0  0  0  0  0  0  0  0
   42.5131    9.4182   10.1068 H   0  0  0  0  0  0  0  0  0  0  0  0
   45.3254    4.2827   11.8444 H   0  0  0  0  0  0  0  0  0  0  0  0
   43.7173    5.4388    9.6283 H   0  0  0  0  0  0  0  0  0  0  0  0
   43.0361    3.3883    9.0886 H   0  0  0  0  0  0  0  0  0  0  0  0
   43.2762    3.0255   10.7976 H   0  0  0  0  0  0  0  0  0  0  0  0
   45.6164    2.2040   10.2320 H   0  0  0  0  0  0  0  0  0  0  0  0
   44.3545    1.3094    9.3867 H   0  0  0  0  0  0  0  0  0  0  0  0
   46.6109    4.0520    7.4131 H   0  0  0  0  0  0  0  0  0  0  0  0
   44.8764    4.3532    7.3202 H   0  0  0  0  0  0  0  0  0  0  0  0
   45.9820    5.8537    8.9974 H   0  0  0  0  0  0  0  0  0  0  0  0
   46.5912    4.4408    9.8536 H   0  0  0  0  0  0  0  0  0  0  0  0
   46.5504    6.2200   15.3631 H   0  0  0  0  0  0  0  0  0  0  0  0
   48.8314    1.7909   16.4152 H   0  0  0  0  0  0  0  0  0  0  0  0
   46.9050    6.5974   17.7419 H   0  0  0  0  0  0  0  0  0  0  0  0
   48.6463    4.1813   20.8711 H   0  0  0  0  0  0  0  0  0  0  0  0
   49.1317    2.3735   19.2486 H   0  0  0  0  0  0  0  0  0  0  0  0
   46.5817    7.1750   20.1281 H   0  0  0  0  0  0  0  0  0  0  0  0
   47.2291    6.1787   21.3969 H   0  0  0  0  0  0  0  0  0  0  0  0
   48.0518    8.8599   18.9252 H   0  0  0  0  0  0  0  0  0  0  0  0
   51.7045    9.9649   20.8754 H   0  0  0  0  0  0  0  0  0  0  0  0
   49.5620    6.5093   22.2294 H   0  0  0  0  0  0  0  0  0  0  0  0
   42.9633   13.7781    8.7450 H   0  0  0  0  0  0  0  0  0  0  0  0
   44.1967   13.7482   10.0213 H   0  0  0  0  0  0  0  0  0  0  0  0
   42.5465   14.3048   10.3688 H   0  0  0  0  0  0  0  0  0  0  0  0
  1  2  2  0
  1  6  1  0
  2  3  1  0
  3  4  2  0
  4  5  1  0
  5  6  2  0
  2  7  1  0
  7  8  1  0
 12  7  1  0
  8  9  1  0
  9 10  1  0
 10 11  1  0
 11 12  1  0
  4 13  1  0
 13 14  1  0
 14 15  1  0
 19 14  1  0
 15 16  1  0
 16 17  1  0
 17 18  1  0
 18 19  1  0
  5 20  1  0
 20 21  1  0
 20 22  2  0
 21 23  1  0
 23 24  2  0
 23 27  1  0
 24 25  1  0
 25 26  1  0
 31 26  2  0
 26 27  1  0
 27 28  2  0
 28 29  1  0
 29 30  2  0
 30 31  1  0
 29 32  1  0
 32 33  1  0
 33 34  2  0
 33 38  1  0
 34 35  1  0
 35 36  2  0
 36 37  1  0
 37 38  2  0
 37 39  1  0
 35 40  1  0
 10 41  1  0
  1 42  1  0
  3 43  1  0
  6 44  1  0
  8 45  1  0
  8 46  1  0
  9 47  1  0
  9 48  1  0
 11 49  1  0
 11 50  1  0
 12 51  1  0
 12 52  1  0
 13 53  1  0
 14 54  1  0
 15 55  1  0
 15 56  1  0
 16 57  1  0
 16 58  1  0
 18 59  1  0
 18 60  1  0
 19 61  1  0
 19 62  1  0
 21 63  1  0
 25 64  1  0
 28 65  1  0
 30 66  1  0
 31 67  1  0
 32 68  1  0
 32 69  1  0
 34 70  1  0
 36 71  1  0
 38 72  1  0
 41 73  1  0
 41 74  1  0
 41 75  1  0
M  END
> <Uni-Dock RESULT> 
ENERGY=   -5.818  LOWER_BOUND=    0.000  UPPER_BOUND=    0.000
INTER + INTRA:          -5.818
INTER:                  -5.818
INTRA:                   0.000
UNBOUND:                 0.000

$$$$

     RDKit          3D

 75 80  0  0  0  0  0  0  0  0999 V2000
   46.7742    9.3647   12.6000 C   0  0  0  0  0  0  0  0  0  0  0  0
   45.5668    9.3377   11.8911 C   0  0  0  0  0  0  0  0  0  0  0  0
   44.8878    8.1033   11.8490 C   0  0  0  0  0  0  0  0  0  0  0  0
   45.3611    6.9324   12.4784 C   0  0  0  0  0  0  0  0  0  0  0  0
   46.5409    7.0351   13.2450 C   0  0  0  0  0  0  0  0  0  0  0  0
   47.2605    8.2381   13.2680 C   0  0  0  0  0  0  0  0  0  0  0  0
   45.0805   10.4688   11.2579 N   0  0  0  0  0  0  0  0  0  0  0  0
   45.4191   11.8217   11.7343 C   0  0  0  0  0  0  0  0  0  0  0  0
   44.2594   12.8157   11.4792 C   0  0  0  0  0  0  0  0  0  0  0  0
   43.7887   12.9115   10.0818 N   0  0  0  0  0  0  0  0  0  0  0  0
   44.0737   11.6662    9.3334 C   0  0  0  0  0  0  0  0  0  0  0  0
   44.0493   10.3908   10.2072 C   0  0  0  0  0  0  0  0  0  0  0  0
   44.6114    5.7331   12.4504 N   0  0  0  0  0  0  0  0  0  0  0  0
   44.0038    5.3023   11.1787 C   0  0  0  0  0  0  0  0  0  0  0  0
   43.0933    4.0931   11.4515 C   0  0  0  0  0  0  0  0  0  0  0  0
   43.7902    2.7963   11.0747 C   0  0  0  0  0  0  0  0  0  0  0  0
   44.1163    2.7466    9.6850 O   0  0  0  0  0  0  0  0  0  0  0  0
   44.5545    3.9820    9.1194 C   0  0  0  0  0  0  0  0  0  0  0  0
   45.0893    4.9655   10.1465 C   0  0  0  0  0  0  0  0  0  0  0  0
   47.0630    5.8544   14.0052 C   0  0  0  0  0  0  0  0  0  0  0  0
   47.6221    6.1700   15.2270 N   0  0  0  0  0  0  0  0  0  0  0  0
   46.9220    4.7404   13.5114 O   0  0  0  0  0  0  0  0  0  0  0  0
   48.2062    5.2734   16.1004 C   0  0  0  0  0  0  0  0  0  0  0  0
   48.3496    3.9667   15.8820 N   0  0  0  0  0  0  0  0  0  0  0  0
   48.9579    3.5053   16.9814 N   0  0  0  0  0  0  0  0  0  0  0  0
   49.2354    4.4655   17.9151 C   0  0  0  0  0  0  0  0  0  0  0  0
   48.7545    5.6470   17.3662 C   0  0  0  0  0  0  0  0  0  0  0  0
   48.9002    6.8431   18.0997 C   0  0  0  0  0  0  0  0  0  0  0  0
   49.5258    6.8130   19.3614 C   0  0  0  0  0  0  0  0  0  0  0  0
   49.9959    5.5943   19.8733 C   0  0  0  0  0  0  0  0  0  0  0  0
   49.8577    4.3961   19.1637 C   0  0  0  0  0  0  0  0  0  0  0  0
   49.7213    8.0949   20.1406 C   0  0  0  0  0  0  0  0  0  0  0  0
   51.0427    8.7677   19.8532 C   0  0  0  0  0  0  0  0  0  0  0  0
   51.1761    9.6498   18.7703 C   0  0  0  0  0  0  0  0  0  0  0  0
   52.4092   10.2376   18.4930 C   0  0  0  0  0  0  0  0  0  0  0  0
   53.5251    9.9692   19.2718 C   0  0  0  0  0  0  0  0  0  0  0  0
   53.3941    9.0967   20.3423 C   0  0  0  0  0  0  0  0  0  0  0  0
   52.1717    8.4949   20.6396 C   0  0  0  0  0  0  0  0  0  0  0  0
   54.4609    8.8242   21.1050 F   0  0  0  0  0  0  0  0  0  0  0  0
   52.5163   11.0739   17.4522 F   0  0  0  0  0  0  0  0  0  0  0  0
   44.3559   14.0678    9.3940 C   0  0  0  0  0  0  0  0  0  0  0  0
   47.3756   10.2705   12.6264 H   0  0  0  0  0  0  0  0  0  0  0  0
   43.9267    8.0601   11.3489 H   0  0  0  0  0  0  0  0  0  0  0  0
   48.2186    8.3115   13.7753 H   0  0  0  0  0  0  0  0  0  0  0  0
   45.6120   11.8182   12.8139 H   0  0  0  0  0  0  0  0  0  0  0  0
   46.3279   12.1673   11.2275 H   0  0  0  0  0  0  0  0  0  0  0  0
   44.5259   13.8015   11.8791 H   0  0  0  0  0  0  0  0  0  0  0  0
   43.4001   12.4828   12.0758 H   0  0  0  0  0  0  0  0  0  0  0  0
   45.0640   11.7254    8.8592 H   0  0  0  0  0  0  0  0  0  0  0  0
   43.3357   11.5643    8.5290 H   0  0  0  0  0  0  0  0  0  0  0  0
   44.2350    9.5336    9.5494 H   0  0  0  0  0  0  0  0  0  0  0  0
   43.0595   10.2668   10.6641 H   0  0  0  0  0  0  0  0  0  0  0  0
   45.1982    4.9727   12.8324 H   0  0  0  0  0  0  0  0  0  0  0  0
   43.3539    6.0939   10.7890 H   0  0  0  0  0  0  0  0  0  0  0  0
   42.1950    4.1927   10.8306 H   0  0  0  0  0  0  0  0  0  0  0  0
   42.7621    4.0632   12.4955 H   0  0  0  0  0  0  0  0  0  0  0  0
   44.7062    2.6517   11.6593 H   0  0  0  0  0  0  0  0  0  0  0  0
   43.1360    1.9438   11.2844 H   0  0  0  0  0  0  0  0  0  0  0  0
   45.3290    3.7495    8.3795 H   0  0  0  0  0  0  0  0  0  0  0  0
   43.7093    4.4181    8.5721 H   0  0  0  0  0  0  0  0  0  0  0  0
   45.4407    5.8768    9.6499 H   0  0  0  0  0  0  0  0  0  0  0  0
   45.9618    4.5183   10.6414 H   0  0  0  0  0  0  0  0  0  0  0  0
   47.5618    7.1187   15.5608 H   0  0  0  0  0  0  0  0  0  0  0  0
   49.1625    2.5143   17.0317 H   0  0  0  0  0  0  0  0  0  0  0  0
   48.5348    7.7815   17.6917 H   0  0  0  0  0  0  0  0  0  0  0  0
   50.4884    5.5660   20.8438 H   0  0  0  0  0  0  0  0  0  0  0  0
   50.2297    3.4593   19.5665 H   0  0  0  0  0  0  0  0  0  0  0  0
   48.9003    8.7919   19.9227 H   0  0  0  0  0  0  0  0  0  0  0  0
   49.6335    7.8909   21.2158 H   0  0  0  0  0  0  0  0  0  0  0  0
   50.3299    9.8837   18.1306 H   0  0  0  0  0  0  0  0  0  0  0  0
   54.4810   10.4273   19.0468 H   0  0  0  0  0  0  0  0  0  0  0  0
   52.1169    7.8116   21.4827 H   0  0  0  0  0  0  0  0  0  0  0  0
   43.9764   14.1344    8.3692 H   0  0  0  0  0  0  0  0  0  0  0  0
   45.4499   14.0297    9.3538 H   0  0  0  0  0  0  0  0  0  0  0  0
   44.0625   14.9951    9.8989 H   0  0  0  0  0  0  0  0  0  0  0  0
  1  2  2  0
  1  6  1  0
  2  3  1  0
  3  4  2  0
  4  5  1  0
  5  6  2  0
  2  7  1  0
  7  8  1  0
 12  7  1  0
  8  9  1  0
  9 10  1  0
 10 11  1  0
 11 12  1  0
  4 13  1  0
 13 14  1  0
 14 15  1  0
 19 14  1  0
 15 16  1  0
 16 17  1  0
 17 18  1  0
 18 19  1  0
  5 20  1  0
 20 21  1  0
 20 22  2  0
 21 23  1  0
 23 24  2  0
 23 27  1  0
 24 25  1  0
 25 26  1  0
 31 26  2  0
 26 27  1  0
 27 28  2  0
 28 29  1  0
 29 30  2  0
 30 31  1  0
 29 32  1  0
 32 33  1  0
 33 34  2  0
 33 38  1  0
 34 35  1  0
 35 36  2  0
 36 37  1  0
 37 38  2  0
 37 39  1  0
 35 40  1  0
 10 41  1  0
  1 42  1  0
  3 43  1  0
  6 44  1  0
  8 45  1  0
  8 46  1  0
  9 47  1  0
  9 48  1  0
 11 49  1  0
 11 50  1  0
 12 51  1  0
 12 52  1  0
 13 53  1  0
 14 54  1  0
 15 55  1  0
 15 56  1  0
 16 57  1  0
 16 58  1  0
 18 59  1  0
 18 60  1  0
 19 61  1  0
 19 62  1  0
 21 63  1  0
 25 64  1  0
 28 65  1  0
 30 66  1  0
 31 67  1  0
 32 68  1  0
 32 69  1  0
 34 70  1  0
 36 71  1  0
 38 72  1  0
 41 73  1  0
 41 74  1  0
 41 75  1  0
M  END
> <Uni-Dock RESULT> 
ENERGY=   -4.920  LOWER_BOUND=    1.608  UPPER_BOUND=    1.844
INTER + INTRA:          -4.920
INTER:                  -4.920
INTRA:                   0.000
UNBOUND:                 0.000

$$$$

     RDKit          3D

 75 80  0  0  0  0  0  0  0  0999 V2000
   46.2237   10.4272   11.9023 C   0  0  0  0  0  0  0  0  0  0  0  0
   44.9316   10.0942   11.4772 C   0  0  0  0  0  0  0  0  0  0  0  0
   44.4814    8.7950   11.7865 C   0  0  0  0  0  0  0  0  0  0  0  0
   45.2566    7.8491   12.4902 C   0  0  0  0  0  0  0  0  0  0  0  0
   46.5193    8.2632   12.9640 C   0  0  0  0  0  0  0  0  0  0  0  0
   47.0110    9.5337   12.6331 C   0  0  0  0  0  0  0  0  0  0  0  0
   44.1500   10.9991   10.7792 N   0  0  0  0  0  0  0  0  0  0  0  0
   44.3285   12.4531   10.9398 C   0  0  0  0  0  0  0  0  0  0  0  0
   42.9870   13.2078   10.7702 C   0  0  0  0  0  0  0  0  0  0  0  0
   42.2625   12.9579    9.5069 N   0  0  0  0  0  0  0  0  0  0  0  0
   42.6198   11.6396    8.9355 C   0  0  0  0  0  0  0  0  0  0  0  0
   42.9756   10.5727    9.9966 C   0  0  0  0  0  0  0  0  0  0  0  0
   44.7343    6.5770   12.8220 N   0  0  0  0  0  0  0  0  0  0  0  0
   43.9915    5.8224   11.7970 C   0  0  0  0  0  0  0  0  0  0  0  0
   43.3695    4.5785   12.4539 C   0  0  0  0  0  0  0  0  0  0  0  0
   44.2016    3.3408   12.1626 C   0  0  0  0  0  0  0  0  0  0  0  0
   44.2751    3.0605   10.7641 O   0  0  0  0  0  0  0  0  0  0  0  0
   44.3826    4.2067    9.9197 C   0  0  0  0  0  0  0  0  0  0  0  0
   44.9147    5.4389   10.6317 C   0  0  0  0  0  0  0  0  0  0  0  0
   47.3671    7.3405   13.7851 C   0  0  0  0  0  0  0  0  0  0  0  0
   48.0740    7.9666   14.7917 N   0  0  0  0  0  0  0  0  0  0  0  0
   47.3352    6.1418   13.5263 O   0  0  0  0  0  0  0  0  0  0  0  0
   48.9530    7.3507   15.6611 C   0  0  0  0  0  0  0  0  0  0  0  0
   49.2796    6.0590   15.6403 N   0  0  0  0  0  0  0  0  0  0  0  0
   50.1470    5.9136   16.6492 N   0  0  0  0  0  0  0  0  0  0  0  0
   50.4172    7.0692   17.3290 C   0  0  0  0  0  0  0  0  0  0  0  0
   49.6473    8.0405   16.7026 C   0  0  0  0  0  0  0  0  0  0  0  0
   49.7127    9.3671   17.1776 C   0  0  0  0  0  0  0  0  0  0  0  0
   50.5513    9.6750   18.2667 C   0  0  0  0  0  0  0  0  0  0  0  0
   51.3106    8.6588   18.8660 C   0  0  0  0  0  0  0  0  0  0  0  0
   51.2570    7.3359   18.4128 C   0  0  0  0  0  0  0  0  0  0  0  0
   50.6583   11.1008   18.7609 C   0  0  0  0  0  0  0  0  0  0  0  0
   51.7687   11.8776   18.0939 C   0  0  0  0  0  0  0  0  0  0  0  0
   51.5491   12.5362   16.8746 C   0  0  0  0  0  0  0  0  0  0  0  0
   52.5906   13.2204   16.2501 C   0  0  0  0  0  0  0  0  0  0  0  0
   53.8581   13.2680   16.8114 C   0  0  0  0  0  0  0  0  0  0  0  0
   54.0762   12.6167   18.0166 C   0  0  0  0  0  0  0  0  0  0  0  0
   53.0511   11.9243   18.6604 C   0  0  0  0  0  0  0  0  0  0  0  0
   55.2939   12.6504   18.5732 F   0  0  0  0  0  0  0  0  0  0  0  0
   52.3612   13.8393   15.0846 F   0  0  0  0  0  0  0  0  0  0  0  0
   42.4865   14.0207    8.5311 C   0  0  0  0  0  0  0  0  0  0  0  0
   46.6533   11.3938   11.6494 H   0  0  0  0  0  0  0  0  0  0  0  0
   43.4682    8.5217   11.5136 H   0  0  0  0  0  0  0  0  0  0  0  0
   48.0173    9.8374   12.9085 H   0  0  0  0  0  0  0  0  0  0  0  0
   44.7107   12.6911   11.9398 H   0  0  0  0  0  0  0  0  0  0  0  0
   45.0569   12.8121   10.2030 H   0  0  0  0  0  0  0  0  0  0  0  0
   43.1458   14.2805   10.9339 H   0  0  0  0  0  0  0  0  0  0  0  0
   42.3207   12.8857   11.5810 H   0  0  0  0  0  0  0  0  0  0  0  0
   43.4827   11.7384    8.2610 H   0  0  0  0  0  0  0  0  0  0  0  0
   41.7780   11.2793    8.3325 H   0  0  0  0  0  0  0  0  0  0  0  0
   43.1857    9.6354    9.4680 H   0  0  0  0  0  0  0  0  0  0  0  0
   42.1215   10.4076   10.6651 H   0  0  0  0  0  0  0  0  0  0  0  0
   45.5035    5.9957   13.1947 H   0  0  0  0  0  0  0  0  0  0  0  0
   43.1544    6.4238   11.4249 H   0  0  0  0  0  0  0  0  0  0  0  0
   42.3704    4.4283   12.0275 H   0  0  0  0  0  0  0  0  0  0  0  0
   43.2424    4.7120   13.5339 H   0  0  0  0  0  0  0  0  0  0  0  0
   45.2190    3.4425   12.5580 H   0  0  0  0  0  0  0  0  0  0  0  0
   43.7543    2.4656   12.6451 H   0  0  0  0  0  0  0  0  0  0  0  0
   45.0393    3.9400    9.0837 H   0  0  0  0  0  0  0  0  0  0  0  0
   43.3897    4.4050    9.4965 H   0  0  0  0  0  0  0  0  0  0  0  0
   45.0068    6.2724    9.9265 H   0  0  0  0  0  0  0  0  0  0  0  0
   45.9264    5.2231   11.0005 H   0  0  0  0  0  0  0  0  0  0  0  0
   47.9110    8.9454   14.9664 H   0  0  0  0  0  0  0  0  0  0  0  0
   50.5264    4.9901   16.8212 H   0  0  0  0  0  0  0  0  0  0  0  0
   49.1222   10.1463   16.7035 H   0  0  0  0  0  0  0  0  0  0  0  0
   51.9674    8.8921   19.7023 H   0  0  0  0  0  0  0  0  0  0  0  0
   51.8528    6.5582   18.8802 H   0  0  0  0  0  0  0  0  0  0  0  0
   49.7030   11.6211   18.6060 H   0  0  0  0  0  0  0  0  0  0  0  0
   50.8028   11.1050   19.8492 H   0  0  0  0  0  0  0  0  0  0  0  0
   50.5738   12.5197   16.3966 H   0  0  0  0  0  0  0  0  0  0  0  0
   54.6633   13.7988   16.3172 H   0  0  0  0  0  0  0  0  0  0  0  0
   53.2689   11.4217   19.5988 H   0  0  0  0  0  0  0  0  0  0  0  0
   41.9226   13.8293    7.6124 H   0  0  0  0  0  0  0  0  0  0  0  0
   43.5449   14.1258    8.2694 H   0  0  0  0  0  0  0  0  0  0  0  0
   42.1324   14.9808    8.9231 H   0  0  0  0  0  0  0  0  0  0  0  0
  1  2  2  0
  1  6  1  0
  2  3  1  0
  3  4  2  0
  4  5  1  0
  5  6  2  0
  2  7  1  0
  7  8  1  0
 12  7  1  0
  8  9  1  0
  9 10  1  0
 10 11  1  0
 11 12  1  0
  4 13  1  0
 13 14  1  0
 14 15  1  0
 19 14  1  0
 15 16  1  0
 16 17  1  0
 17 18  1  0
 18 19  1  0
  5 20  1  0
 20 21  1  0
 20 22  2  0
 21 23  1  0
 23 24  2  0
 23 27  1  0
 24 25  1  0
 25 26  1  0
 31 26  2  0
 26 27  1  0
 27 28  2  0
 28 29  1  0
 29 30  2  0
 30 31  1  0
 29 32  1  0
 32 33  1  0
 33 34  2  0
 33 38  1  0
 34 35  1  0
 35 36  2  0
 36 37  1  0
 37 38  2  0
 37 39  1  0
 35 40  1  0
 10 41  1  0
  1 42  1  0
  3 43  1  0
  6 44  1  0
  8 45  1  0
  8 46  1  0
  9 47  1  0
  9 48  1  0
 11 49  1  0
 11 50  1  0
 12 51  1  0
 12 52  1  0
 13 53  1  0
 14 54  1  0
 15 55  1  0
 15 56  1  0
 16 57  1  0
 16 58  1  0
 18 59  1  0
 18 60  1  0
 19 61  1  0
 19 62  1  0
 21 63  1  0
 25 64  1  0
 28 65  1  0
 30 66  1  0
 31 67  1  0
 32 68  1  0
 32 69  1  0
 34 70  1  0
 36 71  1  0
 38 72  1  0
 41 73  1  0
 41 74  1  0
 41 75  1  0
M  END
> <Uni-Dock RESULT> 
ENERGY=   -4.888  LOWER_BOUND=    2.933  UPPER_BOUND=    3.807
INTER + INTRA:          -4.888
INTER:                  -4.888
INTRA:                   0.000
UNBOUND:                 0.000

$$$$

     RDKit          3D

 75 80  0  0  0  0  0  0  0  0999 V2000
   53.5813    9.9837   18.8113 C   0  0  0  0  0  0  0  0  0  0  0  0
   53.1601   10.9685   19.7135 C   0  0  0  0  0  0  0  0  0  0  0  0
   51.8328   10.8719   20.1778 C   0  0  0  0  0  0  0  0  0  0  0  0
   50.9426    9.8503   19.7844 C   0  0  0  0  0  0  0  0  0  0  0  0
   51.4427    8.8399   18.9363 C   0  0  0  0  0  0  0  0  0  0  0  0
   52.7442    8.9344   18.4237 C   0  0  0  0  0  0  0  0  0  0  0  0
   54.0089   11.9867   20.1128 N   0  0  0  0  0  0  0  0  0  0  0  0
   55.4717   11.8085   20.1225 C   0  0  0  0  0  0  0  0  0  0  0  0
   56.1321   12.6296   21.2572 C   0  0  0  0  0  0  0  0  0  0  0  0
   55.8329   14.0767   21.2632 N   0  0  0  0  0  0  0  0  0  0  0  0
   54.5425   14.3603   20.5951 C   0  0  0  0  0  0  0  0  0  0  0  0
   53.5026   13.2244   20.7335 C   0  0  0  0  0  0  0  0  0  0  0  0
   49.6374    9.7698   20.3240 N   0  0  0  0  0  0  0  0  0  0  0  0
   48.8335   11.0003   20.4308 C   0  0  0  0  0  0  0  0  0  0  0  0
   47.5496   10.6843   21.2166 C   0  0  0  0  0  0  0  0  0  0  0  0
   46.3722   10.4963   20.2744 C   0  0  0  0  0  0  0  0  0  0  0  0
   46.0979   11.6753   19.5165 O   0  0  0  0  0  0  0  0  0  0  0  0
   47.2488   12.4005   19.0833 C   0  0  0  0  0  0  0  0  0  0  0  0
   48.5147   11.5615   19.0378 C   0  0  0  0  0  0  0  0  0  0  0  0
   50.5806    7.6812   18.5378 C   0  0  0  0  0  0  0  0  0  0  0  0
   51.2540    6.4800   18.4456 N   0  0  0  0  0  0  0  0  0  0  0  0
   49.3827    7.8833   18.3679 O   0  0  0  0  0  0  0  0  0  0  0  0
   50.7000    5.2742   18.0618 C   0  0  0  0  0  0  0  0  0  0  0  0
   49.4339    5.0918   17.6886 N   0  0  0  0  0  0  0  0  0  0  0  0
   49.3487    3.7853   17.4107 N   0  0  0  0  0  0  0  0  0  0  0  0
   50.5201    3.0984   17.5737 C   0  0  0  0  0  0  0  0  0  0  0  0
   51.4360    4.0506   18.0014 C   0  0  0  0  0  0  0  0  0  0  0  0
   52.7639    3.6475   18.2543 C   0  0  0  0  0  0  0  0  0  0  0  0
   53.1288    2.2998   18.0679 C   0  0  0  0  0  0  0  0  0  0  0  0
   52.1674    1.3749   17.6337 C   0  0  0  0  0  0  0  0  0  0  0  0
   50.8440    1.7534   17.3812 C   0  0  0  0  0  0  0  0  0  0  0  0
   54.5586    1.8632   18.2998 C   0  0  0  0  0  0  0  0  0  0  0  0
   55.4102    1.9366   17.0546 C   0  0  0  0  0  0  0  0  0  0  0  0
   56.0522    3.1316   16.6960 C   0  0  0  0  0  0  0  0  0  0  0  0
   56.8067    3.1980   15.5259 C   0  0  0  0  0  0  0  0  0  0  0  0
   56.9416    2.0965   14.6938 C   0  0  0  0  0  0  0  0  0  0  0  0
   56.3067    0.9149   15.0474 C   0  0  0  0  0  0  0  0  0  0  0  0
   55.5452    0.8233   16.2120 C   0  0  0  0  0  0  0  0  0  0  0  0
   56.4243   -0.1591   14.2557 F   0  0  0  0  0  0  0  0  0  0  0  0
   57.4084    4.3493   15.1996 F   0  0  0  0  0  0  0  0  0  0  0  0
   56.9088   14.8579   20.6596 C   0  0  0  0  0  0  0  0  0  0  0  0
   54.5753   10.0299   18.3723 H   0  0  0  0  0  0  0  0  0  0  0  0
   51.4903   11.5908   20.9137 H   0  0  0  0  0  0  0  0  0  0  0  0
   53.1165    8.2177   17.6968 H   0  0  0  0  0  0  0  0  0  0  0  0
   55.7354   10.7568   20.2872 H   0  0  0  0  0  0  0  0  0  0  0  0
   55.8802   12.1135   19.1517 H   0  0  0  0  0  0  0  0  0  0  0  0
   57.2132   12.4455   21.2625 H   0  0  0  0  0  0  0  0  0  0  0  0
   55.7647   12.2311   22.2118 H   0  0  0  0  0  0  0  0  0  0  0  0
   54.7007   14.5372   19.5213 H   0  0  0  0  0  0  0  0  0  0  0  0
   54.1251   15.2824   21.0164 H   0  0  0  0  0  0  0  0  0  0  0  0
   52.5821   13.5544   20.2377 H   0  0  0  0  0  0  0  0  0  0  0  0
   53.2789   13.0463   21.7927 H   0  0  0  0  0  0  0  0  0  0  0  0
   49.1105    9.0529   19.7978 H   0  0  0  0  0  0  0  0  0  0  0  0
   49.3758   11.7501   21.0179 H   0  0  0  0  0  0  0  0  0  0  0  0
   47.3309   11.5348   21.8733 H   0  0  0  0  0  0  0  0  0  0  0  0
   47.6739    9.8050   21.8583 H   0  0  0  0  0  0  0  0  0  0  0  0
   46.5439    9.6624   19.5836 H   0  0  0  0  0  0  0  0  0  0  0  0
   45.4683   10.2609   20.8455 H   0  0  0  0  0  0  0  0  0  0  0  0
   47.0281   12.8061   18.0893 H   0  0  0  0  0  0  0  0  0  0  0  0
   47.3782   13.2567   19.7573 H   0  0  0  0  0  0  0  0  0  0  0  0
   49.3527   12.1620   18.6665 H   0  0  0  0  0  0  0  0  0  0  0  0
   48.3692   10.7431   18.3200 H   0  0  0  0  0  0  0  0  0  0  0  0
   52.2192    6.4384   18.7317 H   0  0  0  0  0  0  0  0  0  0  0  0
   48.4535    3.4208   17.1070 H   0  0  0  0  0  0  0  0  0  0  0  0
   53.5006    4.3735   18.5875 H   0  0  0  0  0  0  0  0  0  0  0  0
   52.4454    0.3338   17.4791 H   0  0  0  0  0  0  0  0  0  0  0  0
   50.1091    1.0308   17.0403 H   0  0  0  0  0  0  0  0  0  0  0  0
   55.0117    2.4773   19.0902 H   0  0  0  0  0  0  0  0  0  0  0  0
   54.5725    0.8412   18.7006 H   0  0  0  0  0  0  0  0  0  0  0  0
   55.9685    4.0202   17.3151 H   0  0  0  0  0  0  0  0  0  0  0  0
   57.5267    2.1579   13.7839 H   0  0  0  0  0  0  0  0  0  0  0  0
   55.0587   -0.1198   16.4456 H   0  0  0  0  0  0  0  0  0  0  0  0
   56.6790   15.9276   20.6957 H   0  0  0  0  0  0  0  0  0  0  0  0
   57.0867   14.5794   19.6153 H   0  0  0  0  0  0  0  0  0  0  0  0
   57.8421   14.7177   21.2165 H   0  0  0  0  0  0  0  0  0  0  0  0
  1  2  2  0
  1  6  1  0
  2  3  1  0
  3  4  2  0
  4  5  1  0
  5  6  2  0
  2  7  1  0
  7  8  1  0
 12  7  1  0
  8  9  1  0
  9 10  1  0
 10 11  1  0
 11 12  1  0
  4 13  1  0
 13 14  1  0
 14 15  1  0
 19 14  1  0
 15 16  1  0
 16 17  1  0
 17 18  1  0
 18 19  1  0
  5 20  1  0
 20 21  1  0
 20 22  2  0
 21 23  1  0
 23 24  2  0
 23 27  1  0
 24 25  1  0
 25 26  1  0
 31 26  2  0
 26 27  1  0
 27 28  2  0
 28 29  1  0
 29 30  2  0
 30 31  1  0
 29 32  1  0
 32 33  1  0
 33 34  2  0
 33 38  1  0
 34 35  1  0
 35 36  2  0
 36 37  1  0
 37 38  2  0
 37 39  1  0
 35 40  1  0
 10 41  1  0
  1 42  1  0
  3 43  1  0
  6 44  1  0
  8 45  1  0
  8 46  1  0
  9 47  1  0
  9 48  1  0
 11 49  1  0
 11 50  1  0
 12 51  1  0
 12 52  1  0
 13 53  1  0
 14 54  1  0
 15 55  1  0
 15 56  1  0
 16 57  1  0
 16 58  1  0
 18 59  1  0
 18 60  1  0
 19 61  1  0
 19 62  1  0
 21 63  1  0
 25 64  1  0
 28 65  1  0
 30 66  1  0
 31 67  1  0
 32 68  1  0
 32 69  1  0
 34 70  1  0
 36 71  1  0
 38 72  1  0
 41 73  1  0
 41 74  1  0
 41 75  1  0
M  END
> <Uni-Dock RESULT> 
ENERGY=   -4.560  LOWER_BOUND=    7.376  UPPER_BOUND=   10.914
INTER + INTRA:          -4.560
INTER:                  -4.560
INTRA:                   0.000
UNBOUND:                 0.000

$$$$

     RDKit          3D

 75 80  0  0  0  0  0  0  0  0999 V2000
   50.6985   11.8794   15.3463 C   0  0  0  0  0  0  0  0  0  0  0  0
   50.2086   13.1863   15.2301 C   0  0  0  0  0  0  0  0  0  0  0  0
   49.1330   13.3795   14.3401 C   0  0  0  0  0  0  0  0  0  0  0  0
   48.5464   12.3385   13.5897 C   0  0  0  0  0  0  0  0  0  0  0  0
   49.0260   11.0292   13.8044 C   0  0  0  0  0  0  0  0  0  0  0  0
   50.1237   10.8136   14.6495 C   0  0  0  0  0  0  0  0  0  0  0  0
   50.7680   14.2292   15.9486 N   0  0  0  0  0  0  0  0  0  0  0  0
   51.4455   13.9985   17.2369 C   0  0  0  0  0  0  0  0  0  0  0  0
   51.2746   15.2084   18.1881 C   0  0  0  0  0  0  0  0  0  0  0  0
   51.7101   16.5151   17.6532 N   0  0  0  0  0  0  0  0  0  0  0  0
   51.6590   16.5328   16.1736 C   0  0  0  0  0  0  0  0  0  0  0  0
   50.5491   15.6383   15.5745 C   0  0  0  0  0  0  0  0  0  0  0  0
   47.4323   12.5789   12.7519 N   0  0  0  0  0  0  0  0  0  0  0  0
   47.4416   13.7647   11.8769 C   0  0  0  0  0  0  0  0  0  0  0  0
   46.0571   13.9058   11.2221 C   0  0  0  0  0  0  0  0  0  0  0  0
   46.0760   13.3737    9.7988 C   0  0  0  0  0  0  0  0  0  0  0  0
   46.9871   14.0950    8.9684 O   0  0  0  0  0  0  0  0  0  0  0  0
   48.2066   14.4847    9.6001 C   0  0  0  0  0  0  0  0  0  0  0  0
   48.5518   13.6511   10.8225 C   0  0  0  0  0  0  0  0  0  0  0  0
   48.4016    9.8623   13.1023 C   0  0  0  0  0  0  0  0  0  0  0  0
   48.3256    8.7160   13.8671 N   0  0  0  0  0  0  0  0  0  0  0  0
   47.9912   10.0279   11.9582 O   0  0  0  0  0  0  0  0  0  0  0  0
   47.8304    7.4977   13.4444 C   0  0  0  0  0  0  0  0  0  0  0  0
   47.3791    7.2326   12.2190 N   0  0  0  0  0  0  0  0  0  0  0  0
   47.0059    5.9481   12.2671 N   0  0  0  0  0  0  0  0  0  0  0  0
   47.2084    5.3491   13.4799 C   0  0  0  0  0  0  0  0  0  0  0  0
   47.7538    6.3425   14.2824 C   0  0  0  0  0  0  0  0  0  0  0  0
   48.0867    6.0288   15.6168 C   0  0  0  0  0  0  0  0  0  0  0  0
   47.8613    4.7255   16.1014 C   0  0  0  0  0  0  0  0  0  0  0  0
   47.3082    3.7558   15.2516 C   0  0  0  0  0  0  0  0  0  0  0  0
   46.9674    4.0475   13.9260 C   0  0  0  0  0  0  0  0  0  0  0  0
   48.2488    4.3670   17.5191 C   0  0  0  0  0  0  0  0  0  0  0  0
   49.6541    3.8248   17.6305 C   0  0  0  0  0  0  0  0  0  0  0  0
   50.7471    4.6930   17.7720 C   0  0  0  0  0  0  0  0  0  0  0  0
   52.0429    4.1836   17.8381 C   0  0  0  0  0  0  0  0  0  0  0  0
   52.2837    2.8195   17.7665 C   0  0  0  0  0  0  0  0  0  0  0  0
   51.2036    1.9605   17.6260 C   0  0  0  0  0  0  0  0  0  0  0  0
   49.8980    2.4454   17.5562 C   0  0  0  0  0  0  0  0  0  0  0  0
   51.4165    0.6401   17.5538 F   0  0  0  0  0  0  0  0  0  0  0  0
   53.0729    5.0297   17.9693 F   0  0  0  0  0  0  0  0  0  0  0  0
   53.0416   16.8815   18.1276 C   0  0  0  0  0  0  0  0  0  0  0  0
   51.5618   11.6701   15.9738 H   0  0  0  0  0  0  0  0  0  0  0  0
   48.6993   14.3703   14.2628 H   0  0  0  0  0  0  0  0  0  0  0  0
   50.5670    9.8273   14.7562 H   0  0  0  0  0  0  0  0  0  0  0  0
   51.0261   13.1228   17.7469 H   0  0  0  0  0  0  0  0  0  0  0  0
   52.5106   13.8098   17.0573 H   0  0  0  0  0  0  0  0  0  0  0  0
   51.7551   14.9904   19.1496 H   0  0  0  0  0  0  0  0  0  0  0  0
   50.2045   15.3045   18.4133 H   0  0  0  0  0  0  0  0  0  0  0  0
   52.6189   16.1964   15.7556 H   0  0  0  0  0  0  0  0  0  0  0  0
   51.5060   17.5661   15.8407 H   0  0  0  0  0  0  0  0  0  0  0  0
   50.5796   15.7558   14.4849 H   0  0  0  0  0  0  0  0  0  0  0  0
   49.5657   15.9705   15.9298 H   0  0  0  0  0  0  0  0  0  0  0  0
   47.2590   11.7301   12.1880 H   0  0  0  0  0  0  0  0  0  0  0  0
   47.5908   14.6696   12.4769 H   0  0  0  0  0  0  0  0  0  0  0  0
   45.8010   14.9715   11.1865 H   0  0  0  0  0  0  0  0  0  0  0  0
   45.2787   13.4067   11.8098 H   0  0  0  0  0  0  0  0  0  0  0  0
   46.3401   12.3099    9.7746 H   0  0  0  0  0  0  0  0  0  0  0  0
   45.0826   13.4696    9.3489 H   0  0  0  0  0  0  0  0  0  0  0  0
   49.0044   14.4078    8.8525 H   0  0  0  0  0  0  0  0  0  0  0  0
   48.1205   15.5451    9.8688 H   0  0  0  0  0  0  0  0  0  0  0  0
   49.5114   13.9740   11.2414 H   0  0  0  0  0  0  0  0  0  0  0  0
   48.6781   12.6054   10.5115 H   0  0  0  0  0  0  0  0  0  0  0  0
   48.5942    8.7579   14.8373 H   0  0  0  0  0  0  0  0  0  0  0  0
   46.6199    5.5329   11.4275 H   0  0  0  0  0  0  0  0  0  0  0  0
   48.5172    6.7874   16.2648 H   0  0  0  0  0  0  0  0  0  0  0  0
   47.1401    2.7444   15.6175 H   0  0  0  0  0  0  0  0  0  0  0  0
   46.5450    3.2884   13.2752 H   0  0  0  0  0  0  0  0  0  0  0  0
   48.1435    5.2476   18.1678 H   0  0  0  0  0  0  0  0  0  0  0  0
   47.5352    3.6376   17.9242 H   0  0  0  0  0  0  0  0  0  0  0  0
   50.6049    5.7686   17.8260 H   0  0  0  0  0  0  0  0  0  0  0  0
   53.2945    2.4321   17.8146 H   0  0  0  0  0  0  0  0  0  0  0  0
   49.0828    1.7368   17.4379 H   0  0  0  0  0  0  0  0  0  0  0  0
   53.3354   17.8623   17.7399 H   0  0  0  0  0  0  0  0  0  0  0  0
   53.8023   16.1519   17.8295 H   0  0  0  0  0  0  0  0  0  0  0  0
   53.0500   16.9599   19.2205 H   0  0  0  0  0  0  0  0  0  0  0  0
  1  2  2  0
  1  6  1  0
  2  3  1  0
  3  4  2  0
  4  5  1  0
  5  6  2  0
  2  7  1  0
  7  8  1  0
 12  7  1  0
  8  9  1  0
  9 10  1  0
 10 11  1  0
 11 12  1  0
  4 13  1  0
 13 14  1  0
 14 15  1  0
 19 14  1  0
 15 16  1  0
 16 17  1  0
 17 18  1  0
 18 19  1  0
  5 20  1  0
 20 21  1  0
 20 22  2  0
 21 23  1  0
 23 24  2  0
 23 27  1  0
 24 25  1  0
 25 26  1  0
 31 26  2  0
 26 27  1  0
 27 28  2  0
 28 29  1  0
 29 30  2  0
 30 31  1  0
 29 32  1  0
 32 33  1  0
 33 34  2  0
 33 38  1  0
 34 35  1  0
 35 36  2  0
 36 37  1  0
 37 38  2  0
 37 39  1  0
 35 40  1  0
 10 41  1  0
  1 42  1  0
  3 43  1  0
  6 44  1  0
  8 45  1  0
  8 46  1  0
  9 47  1  0
  9 48  1  0
 11 49  1  0
 11 50  1  0
 12 51  1  0
 12 52  1  0
 13 53  1  0
 14 54  1  0
 15 55  1  0
 15 56  1  0
 16 57  1  0
 16 58  1  0
 18 59  1  0
 18 60  1  0
 19 61  1  0
 19 62  1  0
 21 63  1  0
 25 64  1  0
 28 65  1  0
 30 66  1  0
 31 67  1  0
 32 68  1  0
 32 69  1  0
 34 70  1  0
 36 71  1  0
 38 72  1  0
 41 73  1  0
 41 74  1  0
 41 75  1  0
M  END
> <Uni-Dock RESULT> 
ENERGY=   -4.469  LOWER_BOUND=    5.199  UPPER_BOUND=    7.846
INTER + INTRA:          -4.469
INTER:                  -4.469
INTRA:                   0.000
UNBOUND:                 0.000

$$$$

     RDKit          3D

 75 80  0  0  0  0  0  0  0  0999 V2000
   45.7361    8.5711   12.1986 C   0  0  0  0  0  0  0  0  0  0  0  0
   44.5495    8.1048   11.6193 C   0  0  0  0  0  0  0  0  0  0  0  0
   43.6859    9.0793   11.0798 C   0  0  0  0  0  0  0  0  0  0  0  0
   43.9653   10.4622   11.0962 C   0  0  0  0  0  0  0  0  0  0  0  0
   45.2100   10.8702   11.6203 C   0  0  0  0  0  0  0  0  0  0  0  0
   46.0687    9.9280   12.2039 C   0  0  0  0  0  0  0  0  0  0  0  0
   44.2451    6.7544   11.5941 N   0  0  0  0  0  0  0  0  0  0  0  0
   45.3025    5.7279   11.6061 C   0  0  0  0  0  0  0  0  0  0  0  0
   44.8752    4.4693   10.8118 C   0  0  0  0  0  0  0  0  0  0  0  0
   43.6045    3.8429   11.2319 N   0  0  0  0  0  0  0  0  0  0  0  0
   42.7127    4.8264   11.8871 C   0  0  0  0  0  0  0  0  0  0  0  0
   42.8736    6.2694   11.3552 C   0  0  0  0  0  0  0  0  0  0  0  0
   43.0884   11.3927   10.4910 N   0  0  0  0  0  0  0  0  0  0  0  0
   41.6391   11.2609   10.7233 C   0  0  0  0  0  0  0  0  0  0  0  0
   40.9009   12.2572    9.8133 C   0  0  0  0  0  0  0  0  0  0  0  0
   40.4888   13.4960   10.5910 C   0  0  0  0  0  0  0  0  0  0  0  0
   39.5905   13.1860   11.6572 O   0  0  0  0  0  0  0  0  0  0  0  0
   39.8668   11.9686   12.3498 C   0  0  0  0  0  0  0  0  0  0  0  0
   41.3038   11.4979   12.2027 C   0  0  0  0  0  0  0  0  0  0  0  0
   45.6105   12.3137   11.6013 C   0  0  0  0  0  0  0  0  0  0  0  0
   46.9523   12.5257   11.3574 N   0  0  0  0  0  0  0  0  0  0  0  0
   44.7360   13.1587   11.7625 O   0  0  0  0  0  0  0  0  0  0  0  0
   47.5801   13.7557   11.3259 C   0  0  0  0  0  0  0  0  0  0  0  0
   46.9911   14.9278   11.5597 N   0  0  0  0  0  0  0  0  0  0  0  0
   47.9691   15.8309   11.4211 N   0  0  0  0  0  0  0  0  0  0  0  0
   49.1902   15.2949   11.1172 C   0  0  0  0  0  0  0  0  0  0  0  0
   48.9718   13.9252   11.0482 C   0  0  0  0  0  0  0  0  0  0  0  0
   50.0616   13.0795   10.7534 C   0  0  0  0  0  0  0  0  0  0  0  0
   51.3367   13.6382   10.5384 C   0  0  0  0  0  0  0  0  0  0  0  0
   51.5072   15.0284   10.6195 C   0  0  0  0  0  0  0  0  0  0  0  0
   50.4386   15.8851   10.9067 C   0  0  0  0  0  0  0  0  0  0  0  0
   52.5204   12.7386   10.2587 C   0  0  0  0  0  0  0  0  0  0  0  0
   53.2601   12.3260   11.5092 C   0  0  0  0  0  0  0  0  0  0  0  0
   52.8483   11.2065   12.2479 C   0  0  0  0  0  0  0  0  0  0  0  0
   53.5163   10.8557   13.4199 C   0  0  0  0  0  0  0  0  0  0  0  0
   54.5944   11.5959   13.8821 C   0  0  0  0  0  0  0  0  0  0  0  0
   55.0018   12.7033   13.1526 C   0  0  0  0  0  0  0  0  0  0  0  0
   54.3492   13.0756   11.9778 C   0  0  0  0  0  0  0  0  0  0  0  0
   56.0401   13.4312   13.5840 F   0  0  0  0  0  0  0  0  0  0  0  0
   53.1049    9.7856   14.1125 F   0  0  0  0  0  0  0  0  0  0  0  0
   43.8265    2.6898   12.0998 C   0  0  0  0  0  0  0  0  0  0  0  0
   46.4211    7.8779   12.6816 H   0  0  0  0  0  0  0  0  0  0  0  0
   42.7817    8.7480   10.5815 H   0  0  0  0  0  0  0  0  0  0  0  0
   46.9883   10.2329   12.6958 H   0  0  0  0  0  0  0  0  0  0  0  0
   46.2206    6.1082   11.1424 H   0  0  0  0  0  0  0  0  0  0  0  0
   45.5325    5.4569   12.6434 H   0  0  0  0  0  0  0  0  0  0  0  0
   45.6961    3.7421   10.8064 H   0  0  0  0  0  0  0  0  0  0  0  0
   44.7443    4.7675    9.7634 H   0  0  0  0  0  0  0  0  0  0  0  0
   42.9009    4.8484   12.9703 H   0  0  0  0  0  0  0  0  0  0  0  0
   41.6738    4.5057   11.7461 H   0  0  0  0  0  0  0  0  0  0  0  0
   42.1461    6.9000   11.8798 H   0  0  0  0  0  0  0  0  0  0  0  0
   42.6477    6.3020   10.2821 H   0  0  0  0  0  0  0  0  0  0  0  0
   43.3977   12.3456   10.7456 H   0  0  0  0  0  0  0  0  0  0  0  0
   41.3025   10.2625   10.4217 H   0  0  0  0  0  0  0  0  0  0  0  0
   39.9930   11.7708    9.4368 H   0  0  0  0  0  0  0  0  0  0  0  0
   41.5043   12.5327    8.9412 H   0  0  0  0  0  0  0  0  0  0  0  0
   41.3614   14.0168   11.0024 H   0  0  0  0  0  0  0  0  0  0  0  0
   39.9750   14.2010    9.9294 H   0  0  0  0  0  0  0  0  0  0  0  0
   39.6281   12.1295   13.4074 H   0  0  0  0  0  0  0  0  0  0  0  0
   39.1715   11.2060   11.9768 H   0  0  0  0  0  0  0  0  0  0  0  0
   41.4625   10.5816   12.7822 H   0  0  0  0  0  0  0  0  0  0  0  0
   41.9697   12.2607   12.6281 H   0  0  0  0  0  0  0  0  0  0  0  0
   47.5359   11.7387   11.1226 H   0  0  0  0  0  0  0  0  0  0  0  0
   47.7366   16.8083   11.5524 H   0  0  0  0  0  0  0  0  0  0  0  0
   49.9180   12.0040   10.6961 H   0  0  0  0  0  0  0  0  0  0  0  0
   52.4920   15.4654   10.4634 H   0  0  0  0  0  0  0  0  0  0  0  0
   50.5824   16.9589   10.9725 H   0  0  0  0  0  0  0  0  0  0  0  0
   52.1871   11.8422    9.7177 H   0  0  0  0  0  0  0  0  0  0  0  0
   53.2099   13.2395    9.5665 H   0  0  0  0  0  0  0  0  0  0  0  0
   52.0052   10.6020   11.9259 H   0  0  0  0  0  0  0  0  0  0  0  0
   55.1056   11.3186   14.7964 H   0  0  0  0  0  0  0  0  0  0  0  0
   54.6972   13.9551   11.4429 H   0  0  0  0  0  0  0  0  0  0  0  0
   42.8751    2.2261   12.3799 H   0  0  0  0  0  0  0  0  0  0  0  0
   44.3610    2.9592   13.0171 H   0  0  0  0  0  0  0  0  0  0  0  0
   44.4079    1.9229   11.5757 H   0  0  0  0  0  0  0  0  0  0  0  0
  1  2  2  0
  1  6  1  0
  2  3  1  0
  3  4  2  0
  4  5  1  0
  5  6  2  0
  2  7  1  0
  7  8  1  0
 12  7  1  0
  8  9  1  0
  9 10  1  0
 10 11  1  0
 11 12  1  0
  4 13  1  0
 13 14  1  0
 14 15  1  0
 19 14  1  0
 15 16  1  0
 16 17  1  0
 17 18  1  0
 18 19  1  0
  5 20  1  0
 20 21  1  0
 20 22  2  0
 21 23  1  0
 23 24  2  0
 23 27  1  0
 24 25  1  0
 25 26  1  0
 31 26  2  0
 26 27  1  0
 27 28  2  0
 28 29  1  0
 29 30  2  0
 30 31  1  0
 29 32  1  0
 32 33  1  0
 33 34  2  0
 33 38  1  0
 34 35  1  0
 35 36  2  0
 36 37  1  0
 37 38  2  0
 37 39  1  0
 35 40  1  0
 10 41  1  0
  1 42  1  0
  3 43  1  0
  6 44  1  0
  8 45  1  0
  8 46  1  0
  9 47  1  0
  9 48  1  0
 11 49  1  0
 11 50  1  0
 12 51  1  0
 12 52  1  0
 13 53  1  0
 14 54  1  0
 15 55  1  0
 15 56  1  0
 16 57  1  0
 16 58  1  0
 18 59  1  0
 18 60  1  0
 19 61  1  0
 19 62  1  0
 21 63  1  0
 25 64  1  0
 28 65  1  0
 30 66  1  0
 31 67  1  0
 32 68  1  0
 32 69  1  0
 34 70  1  0
 36 71  1  0
 38 72  1  0
 41 73  1  0
 41 74  1  0
 41 75  1  0
M  END
> <Uni-Dock RESULT> 
ENERGY=   -4.336  LOWER_BOUND=    5.791  UPPER_BOUND=    9.472
INTER + INTRA:          -4.336
INTER:                  -4.336
INTRA:                   0.000
UNBOUND:                 0.000

$$$$

     RDKit          3D

 75 80  0  0  0  0  0  0  0  0999 V2000
   44.3899    8.5467   11.3681 C   0  0  0  0  0  0  0  0  0  0  0  0
   45.1611    7.6368   12.1019 C   0  0  0  0  0  0  0  0  0  0  0  0
   46.3124    8.1505   12.7320 C   0  0  0  0  0  0  0  0  0  0  0  0
   46.7021    9.5046   12.6580 C   0  0  0  0  0  0  0  0  0  0  0  0
   45.8470   10.3930   11.9724 C   0  0  0  0  0  0  0  0  0  0  0  0
   44.7195    9.9026   11.2988 C   0  0  0  0  0  0  0  0  0  0  0  0
   44.8075    6.3009   12.1872 N   0  0  0  0  0  0  0  0  0  0  0  0
   43.4052    5.8672   12.0562 C   0  0  0  0  0  0  0  0  0  0  0  0
   43.1201    4.6131   12.9186 C   0  0  0  0  0  0  0  0  0  0  0  0
   43.9985    3.4502   12.6746 N   0  0  0  0  0  0  0  0  0  0  0  0
   45.3063    3.8723   12.1235 C   0  0  0  0  0  0  0  0  0  0  0  0
   45.7695    5.2659   12.6074 C   0  0  0  0  0  0  0  0  0  0  0  0
   47.8380    9.9779   13.3557 N   0  0  0  0  0  0  0  0  0  0  0  0
   49.0808    9.1871   13.3130 C   0  0  0  0  0  0  0  0  0  0  0  0
   50.0921    9.8039   14.2941 C   0  0  0  0  0  0  0  0  0  0  0  0
   51.1067   10.6612   13.5561 C   0  0  0  0  0  0  0  0  0  0  0  0
   51.8707    9.9012   12.6187 O   0  0  0  0  0  0  0  0  0  0  0  0
   51.1423    8.8945   11.9158 C   0  0  0  0  0  0  0  0  0  0  0  0
   49.6429    9.1382   11.8852 C   0  0  0  0  0  0  0  0  0  0  0  0
   46.1538   11.8584   11.9171 C   0  0  0  0  0  0  0  0  0  0  0  0
   45.0413   12.6725   11.9838 N   0  0  0  0  0  0  0  0  0  0  0  0
   47.3300   12.2010   11.8558 O   0  0  0  0  0  0  0  0  0  0  0  0
   45.0483   14.0521   11.9151 C   0  0  0  0  0  0  0  0  0  0  0  0
   46.1305   14.8096   11.7401 N   0  0  0  0  0  0  0  0  0  0  0  0
   45.6672   16.0652   11.7381 N   0  0  0  0  0  0  0  0  0  0  0  0
   44.3118   16.1644   11.8916 C   0  0  0  0  0  0  0  0  0  0  0  0
   43.8688   14.8536   12.0097 C   0  0  0  0  0  0  0  0  0  0  0  0
   42.4880   14.6175   12.1759 C   0  0  0  0  0  0  0  0  0  0  0  0
   41.5965   15.7074   12.2169 C   0  0  0  0  0  0  0  0  0  0  0  0
   42.0924   17.0139   12.0926 C   0  0  0  0  0  0  0  0  0  0  0  0
   43.4587   17.2698   11.9311 C   0  0  0  0  0  0  0  0  0  0  0  0
   40.1098   15.4649   12.3570 C   0  0  0  0  0  0  0  0  0  0  0  0
   39.4013   15.3426   11.0288 C   0  0  0  0  0  0  0  0  0  0  0  0
   39.3298   14.1076   10.3668 C   0  0  0  0  0  0  0  0  0  0  0  0
   38.7045   14.0134    9.1246 C   0  0  0  0  0  0  0  0  0  0  0  0
   38.1422   15.1260    8.5165 C   0  0  0  0  0  0  0  0  0  0  0  0
   38.2130   16.3475    9.1701 C   0  0  0  0  0  0  0  0  0  0  0  0
   38.8343   16.4680   10.4127 C   0  0  0  0  0  0  0  0  0  0  0  0
   37.6769   17.4334    8.5979 F   0  0  0  0  0  0  0  0  0  0  0  0
   38.6503   12.8259    8.5075 F   0  0  0  0  0  0  0  0  0  0  0  0
   43.3663    2.4632   11.8039 C   0  0  0  0  0  0  0  0  0  0  0  0
   43.5192    8.2061   10.8125 H   0  0  0  0  0  0  0  0  0  0  0  0
   46.9050    7.4826   13.3472 H   0  0  0  0  0  0  0  0  0  0  0  0
   44.1005   10.5545   10.6884 H   0  0  0  0  0  0  0  0  0  0  0  0
   42.7202    6.6549   12.3925 H   0  0  0  0  0  0  0  0  0  0  0  0
   43.1885    5.6553   11.0024 H   0  0  0  0  0  0  0  0  0  0  0  0
   42.0618    4.3394   12.8304 H   0  0  0  0  0  0  0  0  0  0  0  0
   43.2606    4.8950   13.9702 H   0  0  0  0  0  0  0  0  0  0  0  0
   45.2657    3.8984   11.0249 H   0  0  0  0  0  0  0  0  0  0  0  0
   46.0606    3.1268   12.4015 H   0  0  0  0  0  0  0  0  0  0  0  0
   46.7565    5.4583   12.1704 H   0  0  0  0  0  0  0  0  0  0  0  0
   45.8694    5.2706   13.7000 H   0  0  0  0  0  0  0  0  0  0  0  0
   48.0294   10.9461   13.0486 H   0  0  0  0  0  0  0  0  0  0  0  0
   48.8877    8.1695   13.6710 H   0  0  0  0  0  0  0  0  0  0  0  0
   50.6298    8.9877   14.7914 H   0  0  0  0  0  0  0  0  0  0  0  0
   49.5932   10.3855   15.0773 H   0  0  0  0  0  0  0  0  0  0  0  0
   50.6197   11.4894   13.0281 H   0  0  0  0  0  0  0  0  0  0  0  0
   51.8128   11.1029   14.2667 H   0  0  0  0  0  0  0  0  0  0  0  0
   51.5394    8.8523   10.8951 H   0  0  0  0  0  0  0  0  0  0  0  0
   51.3661    7.9290   12.3868 H   0  0  0  0  0  0  0  0  0  0  0  0
   49.1445    8.3538   11.3047 H   0  0  0  0  0  0  0  0  0  0  0  0
   49.4508   10.0866   11.3660 H   0  0  0  0  0  0  0  0  0  0  0  0
   44.1405   12.2548   12.1545 H   0  0  0  0  0  0  0  0  0  0  0  0
   46.3346   16.8186   11.6221 H   0  0  0  0  0  0  0  0  0  0  0  0
   42.1152   13.6011   12.2682 H   0  0  0  0  0  0  0  0  0  0  0  0
   41.4075   17.8597   12.1144 H   0  0  0  0  0  0  0  0  0  0  0  0
   43.8314   18.2843   11.8304 H   0  0  0  0  0  0  0  0  0  0  0  0
   39.9351   14.5567   12.9504 H   0  0  0  0  0  0  0  0  0  0  0  0
   39.6576   16.2727   12.9472 H   0  0  0  0  0  0  0  0  0  0  0  0
   39.7620   13.2119   10.8037 H   0  0  0  0  0  0  0  0  0  0  0  0
   37.6615   15.0448    7.5488 H   0  0  0  0  0  0  0  0  0  0  0  0
   38.8737   17.4460   10.8847 H   0  0  0  0  0  0  0  0  0  0  0  0
   44.0227    1.5997   11.6553 H   0  0  0  0  0  0  0  0  0  0  0  0
   43.1161    2.8781   10.8215 H   0  0  0  0  0  0  0  0  0  0  0  0
   42.4458    2.0835   12.2613 H   0  0  0  0  0  0  0  0  0  0  0  0
  1  2  2  0
  1  6  1  0
  2  3  1  0
  3  4  2  0
  4  5  1  0
  5  6  2  0
  2  7  1  0
  7  8  1  0
 12  7  1  0
  8  9  1  0
  9 10  1  0
 10 11  1  0
 11 12  1  0
  4 13  1  0
 13 14  1  0
 14 15  1  0
 19 14  1  0
 15 16  1  0
 16 17  1  0
 17 18  1  0
 18 19  1  0
  5 20  1  0
 20 21  1  0
 20 22  2  0
 21 23  1  0
 23 24  2  0
 23 27  1  0
 24 25  1  0
 25 26  1  0
 31 26  2  0
 26 27  1  0
 27 28  2  0
 28 29  1  0
 29 30  2  0
 30 31  1  0
 29 32  1  0
 32 33  1  0
 33 34  2  0
 33 38  1  0
 34 35  1  0
 35 36  2  0
 36 37  1  0
 37 38  2  0
 37 39  1  0
 35 40  1  0
 10 41  1  0
  1 42  1  0
  3 43  1  0
  6 44  1  0
  8 45  1  0
  8 46  1  0
  9 47  1  0
  9 48  1  0
 11 49  1  0
 11 50  1  0
 12 51  1  0
 12 52  1  0
 13 53  1  0
 14 54  1  0
 15 55  1  0
 15 56  1  0
 16 57  1  0
 16 58  1  0
 18 59  1  0
 18 60  1  0
 19 61  1  0
 19 62  1  0
 21 63  1  0
 25 64  1  0
 28 65  1  0
 30 66  1  0
 31 67  1  0
 32 68  1  0
 32 69  1  0
 34 70  1  0
 36 71  1  0
 38 72  1  0
 41 73  1  0
 41 74  1  0
 41 75  1  0
M  END
> <Uni-Dock RESULT> 
ENERGY=   -4.230  LOWER_BOUND=    6.169  UPPER_BOUND=   11.625
INTER + INTRA:          -4.230
INTER:                  -4.230
INTRA:                   0.000
UNBOUND:                 0.000

$$$$

     RDKit          3D

 75 80  0  0  0  0  0  0  0  0999 V2000
   50.4701    8.2914   16.2973 C   0  0  0  0  0  0  0  0  0  0  0  0
   49.3687    8.7601   17.0242 C   0  0  0  0  0  0  0  0  0  0  0  0
   48.8952   10.0455   16.6924 C   0  0  0  0  0  0  0  0  0  0  0  0
   49.4674   10.8501   15.6844 C   0  0  0  0  0  0  0  0  0  0  0  0
   50.5238   10.2976   14.9299 C   0  0  0  0  0  0  0  0  0  0  0  0
   51.0442    9.0402   15.2668 C   0  0  0  0  0  0  0  0  0  0  0  0
   48.7901    7.9961   18.0233 N   0  0  0  0  0  0  0  0  0  0  0  0
   48.8624    6.5243   18.0046 C   0  0  0  0  0  0  0  0  0  0  0  0
   47.6010    5.8899   18.6404 C   0  0  0  0  0  0  0  0  0  0  0  0
   47.2817    6.3293   20.0145 N   0  0  0  0  0  0  0  0  0  0  0  0
   47.8359    7.6744   20.2898 C   0  0  0  0  0  0  0  0  0  0  0  0
   47.9080    8.5888   19.0450 C   0  0  0  0  0  0  0  0  0  0  0  0
   48.9176   12.1111   15.3551 N   0  0  0  0  0  0  0  0  0  0  0  0
   48.5301   13.0257   16.4438 C   0  0  0  0  0  0  0  0  0  0  0  0
   47.7898   14.2296   15.8370 C   0  0  0  0  0  0  0  0  0  0  0  0
   48.7143   15.4301   15.7221 C   0  0  0  0  0  0  0  0  0  0  0  0
   49.1987   15.8582   16.9957 O   0  0  0  0  0  0  0  0  0  0  0  0
   49.5043   14.8084   17.9136 C   0  0  0  0  0  0  0  0  0  0  0  0
   49.7636   13.4701   17.2425 C   0  0  0  0  0  0  0  0  0  0  0  0
   51.1308   11.0610   13.7927 C   0  0  0  0  0  0  0  0  0  0  0  0
   51.4939   10.2784   12.7154 N   0  0  0  0  0  0  0  0  0  0  0  0
   51.2180   12.2802   13.8958 O   0  0  0  0  0  0  0  0  0  0  0  0
   52.1057   10.7301   11.5623 C   0  0  0  0  0  0  0  0  0  0  0  0
   52.4704   11.9898   11.3261 N   0  0  0  0  0  0  0  0  0  0  0  0
   53.0141   11.9604   10.1034 N   0  0  0  0  0  0  0  0  0  0  0  0
   53.0348   10.7201    9.5272 C   0  0  0  0  0  0  0  0  0  0  0  0
   52.4443    9.8814   10.4634 C   0  0  0  0  0  0  0  0  0  0  0  0
   52.3222    8.5089   10.1615 C   0  0  0  0  0  0  0  0  0  0  0  0
   52.7988    8.0233    8.9281 C   0  0  0  0  0  0  0  0  0  0  0  0
   53.3885    8.9103    8.0150 C   0  0  0  0  0  0  0  0  0  0  0  0
   53.5156   10.2759    8.2933 C   0  0  0  0  0  0  0  0  0  0  0  0
   52.7074    6.5474    8.6089 C   0  0  0  0  0  0  0  0  0  0  0  0
   53.9345    5.7730    9.0281 C   0  0  0  0  0  0  0  0  0  0  0  0
   54.0530    5.2713   10.3330 C   0  0  0  0  0  0  0  0  0  0  0  0
   55.2053    4.5889   10.7195 C   0  0  0  0  0  0  0  0  0  0  0  0
   56.2541    4.3896    9.8340 C   0  0  0  0  0  0  0  0  0  0  0  0
   56.1379    4.8858    8.5438 C   0  0  0  0  0  0  0  0  0  0  0  0
   54.9960    5.5731    8.1333 C   0  0  0  0  0  0  0  0  0  0  0  0
   57.1409    4.7044    7.6749 F   0  0  0  0  0  0  0  0  0  0  0  0
   55.3003    4.1212   11.9711 F   0  0  0  0  0  0  0  0  0  0  0  0
   47.7398    5.3684   21.0140 C   0  0  0  0  0  0  0  0  0  0  0  0
   50.9195    7.3310   16.5392 H   0  0  0  0  0  0  0  0  0  0  0  0
   48.0145   10.4184   17.2033 H   0  0  0  0  0  0  0  0  0  0  0  0
   51.9165    8.6374   14.7594 H   0  0  0  0  0  0  0  0  0  0  0  0
   48.9306    6.1501   16.9760 H   0  0  0  0  0  0  0  0  0  0  0  0
   49.7592    6.1988   18.5451 H   0  0  0  0  0  0  0  0  0  0  0  0
   47.6672    4.7971   18.5760 H   0  0  0  0  0  0  0  0  0  0  0  0
   46.7408    6.1661   18.0167 H   0  0  0  0  0  0  0  0  0  0  0  0
   48.8527    7.5904   20.7000 H   0  0  0  0  0  0  0  0  0  0  0  0
   47.2176    8.1581   21.0552 H   0  0  0  0  0  0  0  0  0  0  0  0
   48.2952    9.5619   19.3695 H   0  0  0  0  0  0  0  0  0  0  0  0
   46.9036    8.7385   18.6297 H   0  0  0  0  0  0  0  0  0  0  0  0
   49.5666   12.5915   14.7098 H   0  0  0  0  0  0  0  0  0  0  0  0
   47.8151   12.5300   17.1103 H   0  0  0  0  0  0  0  0  0  0  0  0
   46.9625   14.4965   16.5056 H   0  0  0  0  0  0  0  0  0  0  0  0
   47.3514   13.9861   14.8629 H   0  0  0  0  0  0  0  0  0  0  0  0
   49.5699   15.2134   15.0718 H   0  0  0  0  0  0  0  0  0  0  0  0
   48.1784   16.2756   15.2786 H   0  0  0  0  0  0  0  0  0  0  0  0
   50.3837   15.1193   18.4892 H   0  0  0  0  0  0  0  0  0  0  0  0
   48.6696   14.7291   18.6214 H   0  0  0  0  0  0  0  0  0  0  0  0
   50.0255   12.7158   17.9928 H   0  0  0  0  0  0  0  0  0  0  0  0
   50.6327   13.5714   16.5788 H   0  0  0  0  0  0  0  0  0  0  0  0
   51.2523    9.3002   12.7194 H   0  0  0  0  0  0  0  0  0  0  0  0
   53.3605   12.8299    9.7155 H   0  0  0  0  0  0  0  0  0  0  0  0
   51.8662    7.8310   10.8779 H   0  0  0  0  0  0  0  0  0  0  0  0
   53.7670    8.5395    7.0640 H   0  0  0  0  0  0  0  0  0  0  0  0
   53.9784   10.9527    7.5820 H   0  0  0  0  0  0  0  0  0  0  0  0
   51.8195    6.1164    9.0919 H   0  0  0  0  0  0  0  0  0  0  0  0
   52.5310    6.4120    7.5337 H   0  0  0  0  0  0  0  0  0  0  0  0
   53.2586    5.4098   11.0608 H   0  0  0  0  0  0  0  0  0  0  0  0
   57.1481    3.8615   10.1439 H   0  0  0  0  0  0  0  0  0  0  0  0
   54.9514    5.9515    7.1157 H   0  0  0  0  0  0  0  0  0  0  0  0
   47.4726    5.7003   22.0225 H   0  0  0  0  0  0  0  0  0  0  0  0
   48.8242    5.2186   20.9773 H   0  0  0  0  0  0  0  0  0  0  0  0
   47.2534    4.3982   20.8630 H   0  0  0  0  0  0  0  0  0  0  0  0
  1  2  2  0
  1  6  1  0
  2  3  1  0
  3  4  2  0
  4  5  1  0
  5  6  2  0
  2  7  1  0
  7  8  1  0
 12  7  1  0
  8  9  1  0
  9 10  1  0
 10 11  1  0
 11 12  1  0
  4 13  1  0
 13 14  1  0
 14 15  1  0
 19 14  1  0
 15 16  1  0
 16 17  1  0
 17 18  1  0
 18 19  1  0
  5 20  1  0
 20 21  1  0
 20 22  2  0
 21 23  1  0
 23 24  2  0
 23 27  1  0
 24 25  1  0
 25 26  1  0
 31 26  2  0
 26 27  1  0
 27 28  2  0
 28 29  1  0
 29 30  2  0
 30 31  1  0
 29 32  1  0
 32 33  1  0
 33 34  2  0
 33 38  1  0
 34 35  1  0
 35 36  2  0
 36 37  1  0
 37 38  2  0
 37 39  1  0
 35 40  1  0
 10 41  1  0
  1 42  1  0
  3 43  1  0
  6 44  1  0
  8 45  1  0
  8 46  1  0
  9 47  1  0
  9 48  1  0
 11 49  1  0
 11 50  1  0
 12 51  1  0
 12 52  1  0
 13 53  1  0
 14 54  1  0
 15 55  1  0
 15 56  1  0
 16 57  1  0
 16 58  1  0
 18 59  1  0
 18 60  1  0
 19 61  1  0
 19 62  1  0
 21 63  1  0
 25 64  1  0
 28 65  1  0
 30 66  1  0
 31 67  1  0
 32 68  1  0
 32 69  1  0
 34 70  1  0
 36 71  1  0
 38 72  1  0
 41 73  1  0
 41 74  1  0
 41 75  1  0
M  END
> <Uni-Dock RESULT> 
ENERGY=   -4.138  LOWER_BOUND=    7.263  UPPER_BOUND=   11.416
INTER + INTRA:          -4.138
INTER:                  -4.138
INTRA:                   0.000
UNBOUND:                 0.000

$$$$
