
     RDKit          3D

 75 80  0  0  0  0  0  0  0  0999 V2000
   50.9325    7.9857   14.4086 C   0  0  0  0  0  0  0  0  0  0  0  0
   51.1318    7.4844   15.7007 C   0  0  0  0  0  0  0  0  0  0  0  0
   50.0557    6.8135   16.3121 C   0  0  0  0  0  0  0  0  0  0  0  0
   48.8163    6.6037   15.6799 C   0  0  0  0  0  0  0  0  0  0  0  0
   48.6467    7.1868   14.4024 C   0  0  0  0  0  0  0  0  0  0  0  0
   49.7059    7.8474   13.7619 C   0  0  0  0  0  0  0  0  0  0  0  0
   52.3862    7.6545   16.3086 N   0  0  0  0  0  0  0  0  0  0  0  0
   53.4558    6.8962   15.6067 C   0  0  0  0  0  0  0  0  0  0  0  0
   54.6873    6.6756   16.5159 C   0  0  0  0  0  0  0  0  0  0  0  0
   54.3781    5.9090   17.7443 N   0  0  0  0  0  0  0  0  0  0  0  0
   53.0542    6.2796   18.2943 C   0  0  0  0  0  0  0  0  0  0  0  0
   52.4901    7.6253   17.7852 C   0  0  0  0  0  0  0  0  0  0  0  0
   47.7387    5.9696   16.3153 N   0  0  0  0  0  0  0  0  0  0  0  0
   47.8340    4.9624   17.3800 C   0  0  0  0  0  0  0  0  0  0  0  0
   48.0775    5.5843   18.7575 C   0  0  0  0  0  0  0  0  0  0  0  0
   48.9441    4.6783   19.6195 C   0  0  0  0  0  0  0  0  0  0  0  0
   48.5240    3.3267   19.4706 O   0  0  0  0  0  0  0  0  0  0  0  0
   48.7957    2.7852   18.1766 C   0  0  0  0  0  0  0  0  0  0  0  0
   48.7895    3.8182   17.0528 C   0  0  0  0  0  0  0  0  0  0  0  0
   47.3433    7.0641   13.6838 C   0  0  0  0  0  0  0  0  0  0  0  0
   46.9164    8.2340   13.0907 N   0  0  0  0  0  0  0  0  0  0  0  0
   46.7741    5.9789   13.7116 O   0  0  0  0  0  0  0  0  0  0  0  0
   45.7551    8.3802   12.3558 C   0  0  0  0  0  0  0  0  0  0  0  0
   44.9006    7.3978   12.0666 N   0  0  0  0  0  0  0  0  0  0  0  0
   43.9339    7.9893   11.3557 N   0  0  0  0  0  0  0  0  0  0  0  0
   44.1299    9.3261   11.1432 C   0  0  0  0  0  0  0  0  0  0  0  0
   45.3228    9.6210   11.7908 C   0  0  0  0  0  0  0  0  0  0  0  0
   45.8014   10.9480   11.7554 C   0  0  0  0  0  0  0  0  0  0  0  0
   45.0672   11.9343   11.0671 C   0  0  0  0  0  0  0  0  0  0  0  0
   43.8653   11.5885   10.4325 C   0  0  0  0  0  0  0  0  0  0  0  0
   43.3725   10.2788   10.4575 C   0  0  0  0  0  0  0  0  0  0  0  0
   45.5597   13.3648   11.0416 C   0  0  0  0  0  0  0  0  0  0  0  0
   45.1825   14.1467   12.2778 C   0  0  0  0  0  0  0  0  0  0  0  0
   43.9233   14.7569   12.3819 C   0  0  0  0  0  0  0  0  0  0  0  0
   43.5757   15.4521   13.5385 C   0  0  0  0  0  0  0  0  0  0  0  0
   44.4539   15.5549   14.6068 C   0  0  0  0  0  0  0  0  0  0  0  0
   45.6972   14.9492   14.5052 C   0  0  0  0  0  0  0  0  0  0  0  0
   46.0697   14.2502   13.3590 C   0  0  0  0  0  0  0  0  0  0  0  0
   46.5578   15.0345   15.5277 F   0  0  0  0  0  0  0  0  0  0  0  0
   42.3698   16.0301   13.6188 F   0  0  0  0  0  0  0  0  0  0  0  0
   55.4430    6.0672   18.7303 C   0  0  0  0  0  0  0  0  0  0  0  0
   51.7397    8.5117   13.9043 H   0  0  0  0  0  0  0  0  0  0  0  0
   50.2031    6.4108   17.3043 H   0  0  0  0  0  0  0  0  0  0  0  0
   49.5955    8.2358   12.7532 H   0  0  0  0  0  0  0  0  0  0  0  0
   53.0852    5.9146   15.2772 H   0  0  0  0  0  0  0  0  0  0  0  0
   53.7731    7.4531   14.7166 H   0  0  0  0  0  0  0  0  0  0  0  0
   55.4553    6.1367   15.9484 H   0  0  0  0  0  0  0  0  0  0  0  0
   55.1053    7.6596   16.7735 H   0  0  0  0  0  0  0  0  0  0  0  0
   52.3589    5.4801   18.0088 H   0  0  0  0  0  0  0  0  0  0  0  0
   53.0670    6.2846   19.3921 H   0  0  0  0  0  0  0  0  0  0  0  0
   51.5390    7.8605   18.2770 H   0  0  0  0  0  0  0  0  0  0  0  0
   53.1723    8.4315   18.0870 H   0  0  0  0  0  0  0  0  0  0  0  0
   47.0595    5.6654   15.5995 H   0  0  0  0  0  0  0  0  0  0  0  0
   46.8326    4.5104   17.4307 H   0  0  0  0  0  0  0  0  0  0  0  0
   47.1009    5.7086   19.2450 H   0  0  0  0  0  0  0  0  0  0  0  0
   48.5086    6.5896   18.7161 H   0  0  0  0  0  0  0  0  0  0  0  0
   48.8386    4.9544   20.6734 H   0  0  0  0  0  0  0  0  0  0  0  0
   50.0069    4.7672   19.3650 H   0  0  0  0  0  0  0  0  0  0  0  0
   49.7606    2.2686   18.2115 H   0  0  0  0  0  0  0  0  0  0  0  0
   48.0322    2.0235   17.9879 H   0  0  0  0  0  0  0  0  0  0  0  0
   49.8134    4.1868   16.9285 H   0  0  0  0  0  0  0  0  0  0  0  0
   48.5308    3.3389   16.1015 H   0  0  0  0  0  0  0  0  0  0  0  0
   47.4393    9.0796   13.2545 H   0  0  0  0  0  0  0  0  0  0  0  0
   43.1596    7.4175   11.0385 H   0  0  0  0  0  0  0  0  0  0  0  0
   46.7281   11.2071   12.2576 H   0  0  0  0  0  0  0  0  0  0  0  0
   43.2895   12.3486    9.9060 H   0  0  0  0  0  0  0  0  0  0  0  0
   42.4399   10.0222    9.9657 H   0  0  0  0  0  0  0  0  0  0  0  0
   46.6505   13.3709   10.9130 H   0  0  0  0  0  0  0  0  0  0  0  0
   45.1719   13.8790   10.1521 H   0  0  0  0  0  0  0  0  0  0  0  0
   43.2010   14.6940   11.5726 H   0  0  0  0  0  0  0  0  0  0  0  0
   44.1730   16.0930   15.5036 H   0  0  0  0  0  0  0  0  0  0  0  0
   47.0517   13.7871   13.3257 H   0  0  0  0  0  0  0  0  0  0  0  0
   55.5309    7.1018   19.0820 H   0  0  0  0  0  0  0  0  0  0  0  0
   56.4066    5.7616   18.3090 H   0  0  0  0  0  0  0  0  0  0  0  0
   55.2607    5.4218   19.5973 H   0  0  0  0  0  0  0  0  0  0  0  0
  1  2  2  0
  1  6  1  0
  2  3  1  0
  3  4  2  0
  4  5  1  0
  5  6  2  0
  2  7  1  0
  7  8  1  0
 12  7  1  0
  8  9  1  0
  9 10  1  0
 10 11  1  0
 11 12  1  0
  4 13  1  0
 13 14  1  0
 14 15  1  0
 19 14  1  0
 15 16  1  0
 16 17  1  0
 17 18  1  0
 18 19  1  0
  5 20  1  0
 20 21  1  0
 20 22  2  0
 21 23  1  0
 23 24  2  0
 23 27  1  0
 24 25  1  0
 25 26  1  0
 31 26  2  0
 26 27  1  0
 27 28  2  0
 28 29  1  0
 29 30  2  0
 30 31  1  0
 29 32  1  0
 32 33  1  0
 33 34  2  0
 33 38  1  0
 34 35  1  0
 35 36  2  0
 36 37  1  0
 37 38  2  0
 37 39  1  0
 35 40  1  0
 10 41  1  0
  1 42  1  0
  3 43  1  0
  6 44  1  0
  8 45  1  0
  8 46  1  0
  9 47  1  0
  9 48  1  0
 11 49  1  0
 11 50  1  0
 12 51  1  0
 12 52  1  0
 13 53  1  0
 14 54  1  0
 15 55  1  0
 15 56  1  0
 16 57  1  0
 16 58  1  0
 18 59  1  0
 18 60  1  0
 19 61  1  0
 19 62  1  0
 21 63  1  0
 25 64  1  0
 28 65  1  0
 30 66  1  0
 31 67  1  0
 32 68  1  0
 32 69  1  0
 34 70  1  0
 36 71  1  0
 38 72  1  0
 41 73  1  0
 41 74  1  0
 41 75  1  0
M  END
> <Uni-Dock RESULT> 
ENERGY=   -5.394  LOWER_BOUND=    0.000  UPPER_BOUND=    0.000
INTER + INTRA:          -5.394
INTER:                  -5.394
INTRA:                   0.000
UNBOUND:                 0.000

$$$$

     RDKit          3D

 75 80  0  0  0  0  0  0  0  0999 V2000
   44.9664    9.5704   12.2906 C   0  0  0  0  0  0  0  0  0  0  0  0
   44.8872   10.8199   11.6636 C   0  0  0  0  0  0  0  0  0  0  0  0
   46.0923   11.5098   11.4321 C   0  0  0  0  0  0  0  0  0  0  0  0
   47.3561   10.9938   11.7734 C   0  0  0  0  0  0  0  0  0  0  0  0
   47.3744    9.7587   12.4626 C   0  0  0  0  0  0  0  0  0  0  0  0
   46.1910    9.0411   12.6932 C   0  0  0  0  0  0  0  0  0  0  0  0
   43.6275   11.3089   11.2817 N   0  0  0  0  0  0  0  0  0  0  0  0
   43.0065   10.4821   10.2128 C   0  0  0  0  0  0  0  0  0  0  0  0
   41.9011   11.2602    9.4615 C   0  0  0  0  0  0  0  0  0  0  0  0
   42.3974   12.4867    8.7967 N   0  0  0  0  0  0  0  0  0  0  0  0
   43.4170   13.1741    9.6215 C   0  0  0  0  0  0  0  0  0  0  0  0
   43.4328   12.7668   11.1122 C   0  0  0  0  0  0  0  0  0  0  0  0
   48.5460   11.7091   11.5746 N   0  0  0  0  0  0  0  0  0  0  0  0
   48.7813   12.7256   10.5409 C   0  0  0  0  0  0  0  0  0  0  0  0
   48.2063   14.0929   10.9194 C   0  0  0  0  0  0  0  0  0  0  0  0
   47.7118   14.8366    9.6877 C   0  0  0  0  0  0  0  0  0  0  0  0
   48.6471   14.6843    8.6259 O   0  0  0  0  0  0  0  0  0  0  0  0
   48.7131   13.3530    8.1116 C   0  0  0  0  0  0  0  0  0  0  0  0
   48.3906   12.2698    9.1378 C   0  0  0  0  0  0  0  0  0  0  0  0
   48.6683    9.1658   12.9147 C   0  0  0  0  0  0  0  0  0  0  0  0
   48.6354    8.6559   14.1959 N   0  0  0  0  0  0  0  0  0  0  0  0
   49.6200    9.2125   12.1437 O   0  0  0  0  0  0  0  0  0  0  0  0
   49.6932    8.0419   14.8395 C   0  0  0  0  0  0  0  0  0  0  0  0
   50.8883    7.8043   14.2972 N   0  0  0  0  0  0  0  0  0  0  0  0
   51.5886    7.2102   15.2700 N   0  0  0  0  0  0  0  0  0  0  0  0
   50.8911    7.0241   16.4317 C   0  0  0  0  0  0  0  0  0  0  0  0
   49.6347    7.5628   16.1858 C   0  0  0  0  0  0  0  0  0  0  0  0
   48.6697    7.5253   17.2146 C   0  0  0  0  0  0  0  0  0  0  0  0
   48.9979    6.9442   18.4557 C   0  0  0  0  0  0  0  0  0  0  0  0
   50.2820    6.4177   18.6576 C   0  0  0  0  0  0  0  0  0  0  0  0
   51.2539    6.4468   17.6510 C   0  0  0  0  0  0  0  0  0  0  0  0
   47.9780    6.9186   19.5732 C   0  0  0  0  0  0  0  0  0  0  0  0
   47.9167    8.2107   20.3533 C   0  0  0  0  0  0  0  0  0  0  0  0
   48.8152    8.4562   21.4026 C   0  0  0  0  0  0  0  0  0  0  0  0
   48.7676    9.6634   22.0971 C   0  0  0  0  0  0  0  0  0  0  0  0
   47.8436   10.6447   21.7706 C   0  0  0  0  0  0  0  0  0  0  0  0
   46.9577   10.4033   20.7315 C   0  0  0  0  0  0  0  0  0  0  0  0
   46.9833    9.2039   20.0230 C   0  0  0  0  0  0  0  0  0  0  0  0
   46.0602   11.3401   20.3991 F   0  0  0  0  0  0  0  0  0  0  0  0
   49.6321    9.8790   23.0976 F   0  0  0  0  0  0  0  0  0  0  0  0
   41.2869   13.3698    8.4529 C   0  0  0  0  0  0  0  0  0  0  0  0
   44.0568    9.0081   12.4881 H   0  0  0  0  0  0  0  0  0  0  0  0
   46.0438   12.4692   10.9366 H   0  0  0  0  0  0  0  0  0  0  0  0
   46.2127    8.0612   13.1621 H   0  0  0  0  0  0  0  0  0  0  0  0
   43.7623   10.1577    9.4829 H   0  0  0  0  0  0  0  0  0  0  0  0
   42.5612    9.5845   10.6589 H   0  0  0  0  0  0  0  0  0  0  0  0
   41.4578   10.6036    8.7034 H   0  0  0  0  0  0  0  0  0  0  0  0
   41.1065   11.5087   10.1799 H   0  0  0  0  0  0  0  0  0  0  0  0
   44.3934   12.9308    9.1836 H   0  0  0  0  0  0  0  0  0  0  0  0
   43.3206   14.2651    9.5454 H   0  0  0  0  0  0  0  0  0  0  0  0
   44.1705   13.3557   11.6697 H   0  0  0  0  0  0  0  0  0  0  0  0
   42.4645   13.0278   11.5603 H   0  0  0  0  0  0  0  0  0  0  0  0
   49.3422   11.0526   11.6137 H   0  0  0  0  0  0  0  0  0  0  0  0
   49.8729   12.8579   10.5191 H   0  0  0  0  0  0  0  0  0  0  0  0
   49.0119   14.6765   11.3856 H   0  0  0  0  0  0  0  0  0  0  0  0
   47.4137   14.0434   11.6728 H   0  0  0  0  0  0  0  0  0  0  0  0
   47.6183   15.9044    9.9096 H   0  0  0  0  0  0  0  0  0  0  0  0
   46.7246   14.4837    9.3667 H   0  0  0  0  0  0  0  0  0  0  0  0
   48.0355   13.2773    7.2547 H   0  0  0  0  0  0  0  0  0  0  0  0
   49.7293   13.2138    7.7286 H   0  0  0  0  0  0  0  0  0  0  0  0
   47.3173   12.0594    9.0794 H   0  0  0  0  0  0  0  0  0  0  0  0
   48.8903   11.3326    8.8665 H   0  0  0  0  0  0  0  0  0  0  0  0
   47.8072    8.7963   14.7526 H   0  0  0  0  0  0  0  0  0  0  0  0
   52.5484    6.9505   15.0741 H   0  0  0  0  0  0  0  0  0  0  0  0
   47.6816    7.9439   17.0511 H   0  0  0  0  0  0  0  0  0  0  0  0
   50.5438    5.9747   19.6177 H   0  0  0  0  0  0  0  0  0  0  0  0
   52.2455    6.0392   17.8184 H   0  0  0  0  0  0  0  0  0  0  0  0
   46.9890    6.6855   19.1565 H   0  0  0  0  0  0  0  0  0  0  0  0
   48.1939    6.0883   20.2587 H   0  0  0  0  0  0  0  0  0  0  0  0
   49.5613    7.7189   21.6863 H   0  0  0  0  0  0  0  0  0  0  0  0
   47.8174   11.5817   22.3127 H   0  0  0  0  0  0  0  0  0  0  0  0
   46.2740    9.0606   19.2130 H   0  0  0  0  0  0  0  0  0  0  0  0
   40.7665   13.7455    9.3417 H   0  0  0  0  0  0  0  0  0  0  0  0
   40.5606   12.8475    7.8212 H   0  0  0  0  0  0  0  0  0  0  0  0
   41.6460   14.2285    7.8740 H   0  0  0  0  0  0  0  0  0  0  0  0
  1  2  2  0
  1  6  1  0
  2  3  1  0
  3  4  2  0
  4  5  1  0
  5  6  2  0
  2  7  1  0
  7  8  1  0
 12  7  1  0
  8  9  1  0
  9 10  1  0
 10 11  1  0
 11 12  1  0
  4 13  1  0
 13 14  1  0
 14 15  1  0
 19 14  1  0
 15 16  1  0
 16 17  1  0
 17 18  1  0
 18 19  1  0
  5 20  1  0
 20 21  1  0
 20 22  2  0
 21 23  1  0
 23 24  2  0
 23 27  1  0
 24 25  1  0
 25 26  1  0
 31 26  2  0
 26 27  1  0
 27 28  2  0
 28 29  1  0
 29 30  2  0
 30 31  1  0
 29 32  1  0
 32 33  1  0
 33 34  2  0
 33 38  1  0
 34 35  1  0
 35 36  2  0
 36 37  1  0
 37 38  2  0
 37 39  1  0
 35 40  1  0
 10 41  1  0
  1 42  1  0
  3 43  1  0
  6 44  1  0
  8 45  1  0
  8 46  1  0
  9 47  1  0
  9 48  1  0
 11 49  1  0
 11 50  1  0
 12 51  1  0
 12 52  1  0
 13 53  1  0
 14 54  1  0
 15 55  1  0
 15 56  1  0
 16 57  1  0
 16 58  1  0
 18 59  1  0
 18 60  1  0
 19 61  1  0
 19 62  1  0
 21 63  1  0
 25 64  1  0
 28 65  1  0
 30 66  1  0
 31 67  1  0
 32 68  1  0
 32 69  1  0
 34 70  1  0
 36 71  1  0
 38 72  1  0
 41 73  1  0
 41 74  1  0
 41 75  1  0
M  END
> <Uni-Dock RESULT> 
ENERGY=   -4.870  LOWER_BOUND=    3.742  UPPER_BOUND=   10.439
INTER + INTRA:          -4.870
INTER:                  -4.870
INTRA:                   0.000
UNBOUND:                 0.000

$$$$

     RDKit          3D

 75 80  0  0  0  0  0  0  0  0999 V2000
   48.1345   11.4842   12.0769 C   0  0  0  0  0  0  0  0  0  0  0  0
   49.2735   11.5573   11.2658 C   0  0  0  0  0  0  0  0  0  0  0  0
   50.3310   10.6716   11.5468 C   0  0  0  0  0  0  0  0  0  0  0  0
   50.2827    9.7116   12.5745 C   0  0  0  0  0  0  0  0  0  0  0  0
   49.1372    9.7246   13.4041 C   0  0  0  0  0  0  0  0  0  0  0  0
   48.0610   10.5849   13.1388 C   0  0  0  0  0  0  0  0  0  0  0  0
   49.2974   12.4845   10.2114 N   0  0  0  0  0  0  0  0  0  0  0  0
   48.2947   12.1636    9.1610 C   0  0  0  0  0  0  0  0  0  0  0  0
   48.6382   12.8491    7.8180 C   0  0  0  0  0  0  0  0  0  0  0  0
   49.9520   12.4398    7.2711 N   0  0  0  0  0  0  0  0  0  0  0  0
   50.9570   12.2735    8.3457 C   0  0  0  0  0  0  0  0  0  0  0  0
   50.5985   12.9559    9.6852 C   0  0  0  0  0  0  0  0  0  0  0  0
   51.3593    8.8628   12.8703 N   0  0  0  0  0  0  0  0  0  0  0  0
   52.3817    8.4008   11.9226 C   0  0  0  0  0  0  0  0  0  0  0  0
   53.4746    9.4454   11.6816 C   0  0  0  0  0  0  0  0  0  0  0  0
   53.9888    9.3769   10.2514 C   0  0  0  0  0  0  0  0  0  0  0  0
   54.1521    8.0175    9.8633 O   0  0  0  0  0  0  0  0  0  0  0  0
   52.9172    7.3123    9.7253 C   0  0  0  0  0  0  0  0  0  0  0  0
   51.8022    7.8205   10.6356 C   0  0  0  0  0  0  0  0  0  0  0  0
   49.0283    8.7794   14.5552 C   0  0  0  0  0  0  0  0  0  0  0  0
   48.5540    9.3578   15.7142 N   0  0  0  0  0  0  0  0  0  0  0  0
   49.3879    7.6206   14.3807 O   0  0  0  0  0  0  0  0  0  0  0  0
   48.3471    8.6974   16.9105 C   0  0  0  0  0  0  0  0  0  0  0  0
   48.5257    7.3904   17.1070 N   0  0  0  0  0  0  0  0  0  0  0  0
   48.2192    7.1974   18.3948 N   0  0  0  0  0  0  0  0  0  0  0  0
   47.8205    8.3278   19.0535 C   0  0  0  0  0  0  0  0  0  0  0  0
   47.8939    9.3401   18.1052 C   0  0  0  0  0  0  0  0  0  0  0  0
   47.5416   10.6518   18.4877 C   0  0  0  0  0  0  0  0  0  0  0  0
   47.1236   10.9026   19.8098 C   0  0  0  0  0  0  0  0  0  0  0  0
   47.0706    9.8480   20.7328 C   0  0  0  0  0  0  0  0  0  0  0  0
   47.4176    8.5404   20.3741 C   0  0  0  0  0  0  0  0  0  0  0  0
   46.7649   12.3093   20.2366 C   0  0  0  0  0  0  0  0  0  0  0  0
   47.9678   13.1440   20.6078 C   0  0  0  0  0  0  0  0  0  0  0  0
   48.5191   13.0715   21.8961 C   0  0  0  0  0  0  0  0  0  0  0  0
   49.6458   13.8252   22.2189 C   0  0  0  0  0  0  0  0  0  0  0  0
   50.2477   14.6547   21.2848 C   0  0  0  0  0  0  0  0  0  0  0  0
   49.7048   14.7241   20.0107 C   0  0  0  0  0  0  0  0  0  0  0  0
   48.5777   13.9825   19.6634 C   0  0  0  0  0  0  0  0  0  0  0  0
   50.2739   15.5170   19.0937 F   0  0  0  0  0  0  0  0  0  0  0  0
   50.1567   13.7446   23.4548 F   0  0  0  0  0  0  0  0  0  0  0  0
   50.3976   13.3801    6.2471 C   0  0  0  0  0  0  0  0  0  0  0  0
   47.2976   12.1535   11.8920 H   0  0  0  0  0  0  0  0  0  0  0  0
   51.2096   10.7104   10.9185 H   0  0  0  0  0  0  0  0  0  0  0  0
   47.1537   10.5471   13.7353 H   0  0  0  0  0  0  0  0  0  0  0  0
   48.2391   11.0780    8.9943 H   0  0  0  0  0  0  0  0  0  0  0  0
   47.3046   12.5061    9.4857 H   0  0  0  0  0  0  0  0  0  0  0  0
   47.8601   12.6041    7.0853 H   0  0  0  0  0  0  0  0  0  0  0  0
   48.6090   13.9378    7.9701 H   0  0  0  0  0  0  0  0  0  0  0  0
   51.0568   11.1947    8.5201 H   0  0  0  0  0  0  0  0  0  0  0  0
   51.9482   12.6149    8.0195 H   0  0  0  0  0  0  0  0  0  0  0  0
   51.4112   12.8400   10.4117 H   0  0  0  0  0  0  0  0  0  0  0  0
   50.5182   14.0388    9.5199 H   0  0  0  0  0  0  0  0  0  0  0  0
   51.0152    8.0695   13.4349 H   0  0  0  0  0  0  0  0  0  0  0  0
   52.8791    7.5621   12.4313 H   0  0  0  0  0  0  0  0  0  0  0  0
   54.3043    9.2247   12.3671 H   0  0  0  0  0  0  0  0  0  0  0  0
   53.1666   10.4678   11.9225 H   0  0  0  0  0  0  0  0  0  0  0  0
   54.9629    9.8712   10.1814 H   0  0  0  0  0  0  0  0  0  0  0  0
   53.3155    9.8850    9.5508 H   0  0  0  0  0  0  0  0  0  0  0  0
   52.6036    7.3622    8.6774 H   0  0  0  0  0  0  0  0  0  0  0  0
   53.1292    6.2610    9.9457 H   0  0  0  0  0  0  0  0  0  0  0  0
   51.2367    8.5792   10.0841 H   0  0  0  0  0  0  0  0  0  0  0  0
   51.0890    7.0145   10.8443 H   0  0  0  0  0  0  0  0  0  0  0  0
   48.4098   10.3549   15.7347 H   0  0  0  0  0  0  0  0  0  0  0  0
   48.3010    6.2585   18.7673 H   0  0  0  0  0  0  0  0  0  0  0  0
   47.5949   11.4627   17.7680 H   0  0  0  0  0  0  0  0  0  0  0  0
   46.7560   10.0376   21.7583 H   0  0  0  0  0  0  0  0  0  0  0  0
   47.3759    7.7320   21.0967 H   0  0  0  0  0  0  0  0  0  0  0  0
   46.2023   12.8005   19.4314 H   0  0  0  0  0  0  0  0  0  0  0  0
   46.0672   12.2775   21.0841 H   0  0  0  0  0  0  0  0  0  0  0  0
   48.0850   12.4279   22.6565 H   0  0  0  0  0  0  0  0  0  0  0  0
   51.1260   15.2329   21.5434 H   0  0  0  0  0  0  0  0  0  0  0  0
   48.1901   14.0639   18.6519 H   0  0  0  0  0  0  0  0  0  0  0  0
   50.5838   14.3800    6.6563 H   0  0  0  0  0  0  0  0  0  0  0  0
   49.6505   13.4654    5.4510 H   0  0  0  0  0  0  0  0  0  0  0  0
   51.3200   13.0228    5.7749 H   0  0  0  0  0  0  0  0  0  0  0  0
  1  2  2  0
  1  6  1  0
  2  3  1  0
  3  4  2  0
  4  5  1  0
  5  6  2  0
  2  7  1  0
  7  8  1  0
 12  7  1  0
  8  9  1  0
  9 10  1  0
 10 11  1  0
 11 12  1  0
  4 13  1  0
 13 14  1  0
 14 15  1  0
 19 14  1  0
 15 16  1  0
 16 17  1  0
 17 18  1  0
 18 19  1  0
  5 20  1  0
 20 21  1  0
 20 22  2  0
 21 23  1  0
 23 24  2  0
 23 27  1  0
 24 25  1  0
 25 26  1  0
 31 26  2  0
 26 27  1  0
 27 28  2  0
 28 29  1  0
 29 30  2  0
 30 31  1  0
 29 32  1  0
 32 33  1  0
 33 34  2  0
 33 38  1  0
 34 35  1  0
 35 36  2  0
 36 37  1  0
 37 38  2  0
 37 39  1  0
 35 40  1  0
 10 41  1  0
  1 42  1  0
  3 43  1  0
  6 44  1  0
  8 45  1  0
  8 46  1  0
  9 47  1  0
  9 48  1  0
 11 49  1  0
 11 50  1  0
 12 51  1  0
 12 52  1  0
 13 53  1  0
 14 54  1  0
 15 55  1  0
 15 56  1  0
 16 57  1  0
 16 58  1  0
 18 59  1  0
 18 60  1  0
 19 61  1  0
 19 62  1  0
 21 63  1  0
 25 64  1  0
 28 65  1  0
 30 66  1  0
 31 67  1  0
 32 68  1  0
 32 69  1  0
 34 70  1  0
 36 71  1  0
 38 72  1  0
 41 73  1  0
 41 74  1  0
 41 75  1  0
M  END
> <Uni-Dock RESULT> 
ENERGY=   -4.862  LOWER_BOUND=    5.146  UPPER_BOUND=    8.775
INTER + INTRA:          -4.862
INTER:                  -4.862
INTRA:                   0.000
UNBOUND:                 0.000

$$$$

     RDKit          3D

 75 80  0  0  0  0  0  0  0  0999 V2000
   52.2551    8.5857   13.9359 C   0  0  0  0  0  0  0  0  0  0  0  0
   52.7410    8.2847   15.2142 C   0  0  0  0  0  0  0  0  0  0  0  0
   51.8726    7.6209   16.1013 C   0  0  0  0  0  0  0  0  0  0  0  0
   50.5665    7.2280   15.7552 C   0  0  0  0  0  0  0  0  0  0  0  0
   50.1038    7.6141   14.4755 C   0  0  0  0  0  0  0  0  0  0  0  0
   50.9515    8.2624   13.5645 C   0  0  0  0  0  0  0  0  0  0  0  0
   54.0613    8.6363   15.5384 N   0  0  0  0  0  0  0  0  0  0  0  0
   55.0562    7.8761   14.7359 C   0  0  0  0  0  0  0  0  0  0  0  0
   56.4506    7.8817   15.4048 C   0  0  0  0  0  0  0  0  0  0  0  0
   56.4556    7.2695   16.7530 N   0  0  0  0  0  0  0  0  0  0  0  0
   55.2247    7.6057   17.5042 C   0  0  0  0  0  0  0  0  0  0  0  0
   54.4386    8.8192   16.9584 C   0  0  0  0  0  0  0  0  0  0  0  0
   49.6972    6.6037   16.6616 N   0  0  0  0  0  0  0  0  0  0  0  0
   50.0924    5.7636   17.7996 C   0  0  0  0  0  0  0  0  0  0  0  0
   50.5197    6.5868   19.0175 C   0  0  0  0  0  0  0  0  0  0  0  0
   51.6205    5.8801   19.7945 C   0  0  0  0  0  0  0  0  0  0  0  0
   51.3239    4.4919   19.8944 O   0  0  0  0  0  0  0  0  0  0  0  0
   51.4070    3.8005   18.6468 C   0  0  0  0  0  0  0  0  0  0  0  0
   51.0853    4.6651   17.4305 C   0  0  0  0  0  0  0  0  0  0  0  0
   48.7103    7.2901   14.0474 C   0  0  0  0  0  0  0  0  0  0  0  0
   48.0611    8.3293   13.4139 N   0  0  0  0  0  0  0  0  0  0  0  0
   48.2727    6.1772   14.3166 O   0  0  0  0  0  0  0  0  0  0  0  0
   46.7753    8.2799   12.9098 C   0  0  0  0  0  0  0  0  0  0  0  0
   45.9897    7.2022   12.9144 N   0  0  0  0  0  0  0  0  0  0  0  0
   44.8518    7.6111   12.3418 N   0  0  0  0  0  0  0  0  0  0  0  0
   44.8643    8.9172   11.9361 C   0  0  0  0  0  0  0  0  0  0  0  0
   46.1187    9.3927   12.2963 C   0  0  0  0  0  0  0  0  0  0  0  0
   46.4410   10.7359   12.0084 C   0  0  0  0  0  0  0  0  0  0  0  0
   45.4933   11.5564   11.3648 C   0  0  0  0  0  0  0  0  0  0  0  0
   44.2377   11.0318   11.0253 C   0  0  0  0  0  0  0  0  0  0  0  0
   43.8978    9.7030   11.3036 C   0  0  0  0  0  0  0  0  0  0  0  0
   45.8202   13.0044   11.0715 C   0  0  0  0  0  0  0  0  0  0  0  0
   45.5982   13.9166   12.2548 C   0  0  0  0  0  0  0  0  0  0  0  0
   44.3231   14.4330   12.5307 C   0  0  0  0  0  0  0  0  0  0  0  0
   44.1243   15.2511   13.6412 C   0  0  0  0  0  0  0  0  0  0  0  0
   45.1690   15.5697   14.4956 C   0  0  0  0  0  0  0  0  0  0  0  0
   46.4286   15.0568   14.2248 C   0  0  0  0  0  0  0  0  0  0  0  0
   46.6540   14.2385   13.1200 C   0  0  0  0  0  0  0  0  0  0  0  0
   47.4495   15.3505   15.0402 F   0  0  0  0  0  0  0  0  0  0  0  0
   42.9002   15.7367   13.8873 F   0  0  0  0  0  0  0  0  0  0  0  0
   57.6618    7.6464   17.4838 C   0  0  0  0  0  0  0  0  0  0  0  0
   52.8958    9.0997   13.2233 H   0  0  0  0  0  0  0  0  0  0  0  0
   52.2420    7.3718   17.0861 H   0  0  0  0  0  0  0  0  0  0  0  0
   50.6167    8.4980   12.5581 H   0  0  0  0  0  0  0  0  0  0  0  0
   54.7359    6.8322   14.6060 H   0  0  0  0  0  0  0  0  0  0  0  0
   55.1436    8.3285   13.7406 H   0  0  0  0  0  0  0  0  0  0  0  0
   57.1527    7.3326   14.7661 H   0  0  0  0  0  0  0  0  0  0  0  0
   56.8038    8.9219   15.4552 H   0  0  0  0  0  0  0  0  0  0  0  0
   54.5761    6.7217   17.4591 H   0  0  0  0  0  0  0  0  0  0  0  0
   55.4394    7.7630   18.5693 H   0  0  0  0  0  0  0  0  0  0  0  0
   53.5754    9.0435   17.5958 H   0  0  0  0  0  0  0  0  0  0  0  0
   55.0767    9.7111   17.0211 H   0  0  0  0  0  0  0  0  0  0  0  0
   48.9331    6.1506   16.1352 H   0  0  0  0  0  0  0  0  0  0  0  0
   49.1705    5.2446   18.1003 H   0  0  0  0  0  0  0  0  0  0  0  0
   49.6424    6.6990   19.6692 H   0  0  0  0  0  0  0  0  0  0  0  0
   50.8282    7.6079   18.7719 H   0  0  0  0  0  0  0  0  0  0  0  0
   51.6832    6.2895   20.8077 H   0  0  0  0  0  0  0  0  0  0  0  0
   52.6028    6.0176   19.3271 H   0  0  0  0  0  0  0  0  0  0  0  0
   52.4105    3.3722   18.5529 H   0  0  0  0  0  0  0  0  0  0  0  0
   50.7058    2.9617   18.7047 H   0  0  0  0  0  0  0  0  0  0  0  0
   52.0244    5.0934   17.0639 H   0  0  0  0  0  0  0  0  0  0  0  0
   50.7070    4.0401   16.6132 H   0  0  0  0  0  0  0  0  0  0  0  0
   48.5140    9.2284   13.3690 H   0  0  0  0  0  0  0  0  0  0  0  0
   44.0964    6.9413   12.2541 H   0  0  0  0  0  0  0  0  0  0  0  0
   47.4123   11.1348   12.2837 H   0  0  0  0  0  0  0  0  0  0  0  0
   43.4983   11.6638   10.5350 H   0  0  0  0  0  0  0  0  0  0  0  0
   42.9224    9.3076   11.0393 H   0  0  0  0  0  0  0  0  0  0  0  0
   46.8617   13.0795   10.7310 H   0  0  0  0  0  0  0  0  0  0  0  0
   45.2232   13.3586   10.2206 H   0  0  0  0  0  0  0  0  0  0  0  0
   43.4742   14.2019   11.8929 H   0  0  0  0  0  0  0  0  0  0  0  0
   45.0039   16.2022   15.3590 H   0  0  0  0  0  0  0  0  0  0  0  0
   47.6559   13.8548   12.9499 H   0  0  0  0  0  0  0  0  0  0  0  0
   57.7044    8.7233   17.6847 H   0  0  0  0  0  0  0  0  0  0  0  0
   58.5576    7.3634   16.9210 H   0  0  0  0  0  0  0  0  0  0  0  0
   57.7113    7.1142   18.4408 H   0  0  0  0  0  0  0  0  0  0  0  0
  1  2  2  0
  1  6  1  0
  2  3  1  0
  3  4  2  0
  4  5  1  0
  5  6  2  0
  2  7  1  0
  7  8  1  0
 12  7  1  0
  8  9  1  0
  9 10  1  0
 10 11  1  0
 11 12  1  0
  4 13  1  0
 13 14  1  0
 14 15  1  0
 19 14  1  0
 15 16  1  0
 16 17  1  0
 17 18  1  0
 18 19  1  0
  5 20  1  0
 20 21  1  0
 20 22  2  0
 21 23  1  0
 23 24  2  0
 23 27  1  0
 24 25  1  0
 25 26  1  0
 31 26  2  0
 26 27  1  0
 27 28  2  0
 28 29  1  0
 29 30  2  0
 30 31  1  0
 29 32  1  0
 32 33  1  0
 33 34  2  0
 33 38  1  0
 34 35  1  0
 35 36  2  0
 36 37  1  0
 37 38  2  0
 37 39  1  0
 35 40  1  0
 10 41  1  0
  1 42  1  0
  3 43  1  0
  6 44  1  0
  8 45  1  0
  8 46  1  0
  9 47  1  0
  9 48  1  0
 11 49  1  0
 11 50  1  0
 12 51  1  0
 12 52  1  0
 13 53  1  0
 14 54  1  0
 15 55  1  0
 15 56  1  0
 16 57  1  0
 16 58  1  0
 18 59  1  0
 18 60  1  0
 19 61  1  0
 19 62  1  0
 21 63  1  0
 25 64  1  0
 28 65  1  0
 30 66  1  0
 31 67  1  0
 32 68  1  0
 32 69  1  0
 34 70  1  0
 36 71  1  0
 38 72  1  0
 41 73  1  0
 41 74  1  0
 41 75  1  0
M  END
> <Uni-Dock RESULT> 
ENERGY=   -4.749  LOWER_BOUND=    1.581  UPPER_BOUND=    1.790
INTER + INTRA:          -4.749
INTER:                  -4.749
INTRA:                   0.000
UNBOUND:                 0.000

$$$$

     RDKit          3D

 75 80  0  0  0  0  0  0  0  0999 V2000
   50.2261   13.8693   14.3258 C   0  0  0  0  0  0  0  0  0  0  0  0
   49.5168   14.4315   13.2575 C   0  0  0  0  0  0  0  0  0  0  0  0
   48.1413   14.6680   13.4417 C   0  0  0  0  0  0  0  0  0  0  0  0
   47.4642   14.3937   14.6443 C   0  0  0  0  0  0  0  0  0  0  0  0
   48.2130   13.7666   15.6675 C   0  0  0  0  0  0  0  0  0  0  0  0
   49.5884   13.5330   15.5184 C   0  0  0  0  0  0  0  0  0  0  0  0
   50.2071   14.7478   12.0762 N   0  0  0  0  0  0  0  0  0  0  0  0
   51.2005   15.8351   12.2824 C   0  0  0  0  0  0  0  0  0  0  0  0
   51.5896   16.5111   10.9470 C   0  0  0  0  0  0  0  0  0  0  0  0
   50.4407   17.1309   10.2482 N   0  0  0  0  0  0  0  0  0  0  0  0
   49.2177   16.3072   10.3823 C   0  0  0  0  0  0  0  0  0  0  0  0
   49.4625   14.8394   10.7998 C   0  0  0  0  0  0  0  0  0  0  0  0
   46.0853   14.5958   14.8012 N   0  0  0  0  0  0  0  0  0  0  0  0
   45.2697   15.5857   14.0857 C   0  0  0  0  0  0  0  0  0  0  0  0
   44.8831   15.1223   12.6787 C   0  0  0  0  0  0  0  0  0  0  0  0
   44.8097   16.2995   11.7177 C   0  0  0  0  0  0  0  0  0  0  0  0
   44.1615   17.3973   12.3501 O   0  0  0  0  0  0  0  0  0  0  0  0
   44.9265   17.9779   13.4079 C   0  0  0  0  0  0  0  0  0  0  0  0
   45.8518   16.9960   14.1219 C   0  0  0  0  0  0  0  0  0  0  0  0
   47.5600   13.3863   16.9556 C   0  0  0  0  0  0  0  0  0  0  0  0
   47.9055   12.1312   17.4116 N   0  0  0  0  0  0  0  0  0  0  0  0
   46.7776   14.1847   17.4586 O   0  0  0  0  0  0  0  0  0  0  0  0
   47.4524   11.5532   18.5823 C   0  0  0  0  0  0  0  0  0  0  0  0
   46.6542   12.1450   19.4719 N   0  0  0  0  0  0  0  0  0  0  0  0
   46.4722   11.2257   20.4267 N   0  0  0  0  0  0  0  0  0  0  0  0
   47.1417   10.0525   20.2125 C   0  0  0  0  0  0  0  0  0  0  0  0
   47.7994   10.2307   19.0021 C   0  0  0  0  0  0  0  0  0  0  0  0
   48.5877    9.1741   18.4989 C   0  0  0  0  0  0  0  0  0  0  0  0
   48.6921    7.9743   19.2304 C   0  0  0  0  0  0  0  0  0  0  0  0
   48.0049    7.8401   20.4455 C   0  0  0  0  0  0  0  0  0  0  0  0
   47.2164    8.8753   20.9610 C   0  0  0  0  0  0  0  0  0  0  0  0
   49.5167    6.8268   18.6891 C   0  0  0  0  0  0  0  0  0  0  0  0
   48.7733    5.9829   17.6807 C   0  0  0  0  0  0  0  0  0  0  0  0
   47.9187    4.9526   18.1011 C   0  0  0  0  0  0  0  0  0  0  0  0
   47.2165    4.1987   17.1628 C   0  0  0  0  0  0  0  0  0  0  0  0
   47.3394    4.4466   15.8039 C   0  0  0  0  0  0  0  0  0  0  0  0
   48.1817    5.4669   15.3885 C   0  0  0  0  0  0  0  0  0  0  0  0
   48.8964    6.2337   16.3063 C   0  0  0  0  0  0  0  0  0  0  0  0
   48.3110    5.7238   14.0806 F   0  0  0  0  0  0  0  0  0  0  0  0
   46.4069    3.2175   17.5830 F   0  0  0  0  0  0  0  0  0  0  0  0
   50.7710   17.3949    8.8509 C   0  0  0  0  0  0  0  0  0  0  0  0
   51.2899   13.6700   14.2207 H   0  0  0  0  0  0  0  0  0  0  0  0
   47.5869   15.1142   12.6281 H   0  0  0  0  0  0  0  0  0  0  0  0
   50.1764   13.1135   16.3301 H   0  0  0  0  0  0  0  0  0  0  0  0
   50.8012   16.6042   12.9594 H   0  0  0  0  0  0  0  0  0  0  0  0
   52.1059   15.4192   12.7410 H   0  0  0  0  0  0  0  0  0  0  0  0
   52.3397   17.2856   11.1467 H   0  0  0  0  0  0  0  0  0  0  0  0
   52.0663   15.7560   10.3052 H   0  0  0  0  0  0  0  0  0  0  0  0
   48.5958   16.7879   11.1481 H   0  0  0  0  0  0  0  0  0  0  0  0
   48.6220   16.3266    9.4603 H   0  0  0  0  0  0  0  0  0  0  0  0
   48.5211   14.2781   10.8224 H   0  0  0  0  0  0  0  0  0  0  0  0
   50.0671   14.3479   10.0256 H   0  0  0  0  0  0  0  0  0  0  0  0
   45.8619   14.6148   15.8093 H   0  0  0  0  0  0  0  0  0  0  0  0
   44.3277   15.6365   14.6511 H   0  0  0  0  0  0  0  0  0  0  0  0
   43.8911   14.6545   12.7421 H   0  0  0  0  0  0  0  0  0  0  0  0
   45.5417   14.3469   12.2747 H   0  0  0  0  0  0  0  0  0  0  0  0
   44.2273   16.0227   10.8332 H   0  0  0  0  0  0  0  0  0  0  0  0
   45.8036   16.6051   11.3698 H   0  0  0  0  0  0  0  0  0  0  0  0
   45.5033   18.8150   13.0009 H   0  0  0  0  0  0  0  0  0  0  0  0
   44.2095   18.4001   14.1195 H   0  0  0  0  0  0  0  0  0  0  0  0
   46.8270   17.0297   13.6244 H   0  0  0  0  0  0  0  0  0  0  0  0
   46.0335   17.3288   15.1504 H   0  0  0  0  0  0  0  0  0  0  0  0
   48.4743   11.5417   16.8247 H   0  0  0  0  0  0  0  0  0  0  0  0
   45.8746   11.4651   21.2094 H   0  0  0  0  0  0  0  0  0  0  0  0
   49.1082    9.2847   17.5527 H   0  0  0  0  0  0  0  0  0  0  0  0
   48.0754    6.9119   21.0111 H   0  0  0  0  0  0  0  0  0  0  0  0
   46.6864    8.7603   21.9009 H   0  0  0  0  0  0  0  0  0  0  0  0
   50.4379    7.2219   18.2403 H   0  0  0  0  0  0  0  0  0  0  0  0
   49.8606    6.1900   19.5151 H   0  0  0  0  0  0  0  0  0  0  0  0
   47.7857    4.7297   19.1563 H   0  0  0  0  0  0  0  0  0  0  0  0
   46.7859    3.8587   15.0824 H   0  0  0  0  0  0  0  0  0  0  0  0
   49.5401    7.0262   15.9358 H   0  0  0  0  0  0  0  0  0  0  0  0
   50.9540   16.4724    8.2875 H   0  0  0  0  0  0  0  0  0  0  0  0
   51.6621   18.0274    8.7784 H   0  0  0  0  0  0  0  0  0  0  0  0
   49.9570   17.9425    8.3621 H   0  0  0  0  0  0  0  0  0  0  0  0
  1  2  2  0
  1  6  1  0
  2  3  1  0
  3  4  2  0
  4  5  1  0
  5  6  2  0
  2  7  1  0
  7  8  1  0
 12  7  1  0
  8  9  1  0
  9 10  1  0
 10 11  1  0
 11 12  1  0
  4 13  1  0
 13 14  1  0
 14 15  1  0
 19 14  1  0
 15 16  1  0
 16 17  1  0
 17 18  1  0
 18 19  1  0
  5 20  1  0
 20 21  1  0
 20 22  2  0
 21 23  1  0
 23 24  2  0
 23 27  1  0
 24 25  1  0
 25 26  1  0
 31 26  2  0
 26 27  1  0
 27 28  2  0
 28 29  1  0
 29 30  2  0
 30 31  1  0
 29 32  1  0
 32 33  1  0
 33 34  2  0
 33 38  1  0
 34 35  1  0
 35 36  2  0
 36 37  1  0
 37 38  2  0
 37 39  1  0
 35 40  1  0
 10 41  1  0
  1 42  1  0
  3 43  1  0
  6 44  1  0
  8 45  1  0
  8 46  1  0
  9 47  1  0
  9 48  1  0
 11 49  1  0
 11 50  1  0
 12 51  1  0
 12 52  1  0
 13 53  1  0
 14 54  1  0
 15 55  1  0
 15 56  1  0
 16 57  1  0
 16 58  1  0
 18 59  1  0
 18 60  1  0
 19 61  1  0
 19 62  1  0
 21 63  1  0
 25 64  1  0
 28 65  1  0
 30 66  1  0
 31 67  1  0
 32 68  1  0
 32 69  1  0
 34 70  1  0
 36 71  1  0
 38 72  1  0
 41 73  1  0
 41 74  1  0
 41 75  1  0
M  END
> <Uni-Dock RESULT> 
ENERGY=   -4.703  LOWER_BOUND=    5.341  UPPER_BOUND=   10.730
INTER + INTRA:          -4.703
INTER:                  -4.703
INTRA:                   0.000
UNBOUND:                 0.000

$$$$

     RDKit          3D

 75 80  0  0  0  0  0  0  0  0999 V2000
   49.2493   12.1059   17.1021 C   0  0  0  0  0  0  0  0  0  0  0  0
   50.3053   12.9394   16.7138 C   0  0  0  0  0  0  0  0  0  0  0  0
   50.8238   12.7717   15.4159 C   0  0  0  0  0  0  0  0  0  0  0  0
   50.3165   11.8356   14.4959 C   0  0  0  0  0  0  0  0  0  0  0  0
   49.2945   10.9755   14.9612 C   0  0  0  0  0  0  0  0  0  0  0  0
   48.7473   11.1294   16.2440 C   0  0  0  0  0  0  0  0  0  0  0  0
   50.7762   13.9044   17.6188 N   0  0  0  0  0  0  0  0  0  0  0  0
   49.7577   14.9504   17.9021 C   0  0  0  0  0  0  0  0  0  0  0  0
   50.4040   16.2341   18.4731 C   0  0  0  0  0  0  0  0  0  0  0  0
   51.3854   16.8540   17.5539 N   0  0  0  0  0  0  0  0  0  0  0  0
   52.1788   15.8288   16.8383 C   0  0  0  0  0  0  0  0  0  0  0  0
   52.1561   14.4224   17.4787 C   0  0  0  0  0  0  0  0  0  0  0  0
   50.8688   11.6503   13.2201 N   0  0  0  0  0  0  0  0  0  0  0  0
   51.5749   12.6657   12.4279 C   0  0  0  0  0  0  0  0  0  0  0  0
   53.0324   12.8411   12.8621 C   0  0  0  0  0  0  0  0  0  0  0  0
   53.4802   14.2859   12.6983 C   0  0  0  0  0  0  0  0  0  0  0  0
   52.9986   14.8019   11.4626 O   0  0  0  0  0  0  0  0  0  0  0  0
   51.5799   14.9682   11.4290 C   0  0  0  0  0  0  0  0  0  0  0  0
   50.8141   13.9832   12.3085 C   0  0  0  0  0  0  0  0  0  0  0  0
   48.7383    9.9135   14.0707 C   0  0  0  0  0  0  0  0  0  0  0  0
   48.5678    8.6931   14.6905 N   0  0  0  0  0  0  0  0  0  0  0  0
   48.5201   10.2041   12.9001 O   0  0  0  0  0  0  0  0  0  0  0  0
   48.0566    7.5570   14.0920 C   0  0  0  0  0  0  0  0  0  0  0  0
   47.6029    7.4868   12.8399 N   0  0  0  0  0  0  0  0  0  0  0  0
   47.2196    6.2138   12.6903 N   0  0  0  0  0  0  0  0  0  0  0  0
   47.3816    5.4428   13.8083 C   0  0  0  0  0  0  0  0  0  0  0  0
   47.9342    6.2957   14.7552 C   0  0  0  0  0  0  0  0  0  0  0  0
   48.2265    5.7842   16.0374 C   0  0  0  0  0  0  0  0  0  0  0  0
   47.9504    4.4331   16.3271 C   0  0  0  0  0  0  0  0  0  0  0  0
   47.3967    3.6098   15.3360 C   0  0  0  0  0  0  0  0  0  0  0  0
   47.1012    4.0971   14.0577 C   0  0  0  0  0  0  0  0  0  0  0  0
   48.2805    3.8686   17.6917 C   0  0  0  0  0  0  0  0  0  0  0  0
   49.7272    3.4572   17.8320 C   0  0  0  0  0  0  0  0  0  0  0  0
   50.1589    2.1976   17.3897 C   0  0  0  0  0  0  0  0  0  0  0  0
   51.5012    1.8395   17.4987 C   0  0  0  0  0  0  0  0  0  0  0  0
   52.4361    2.7105   18.0376 C   0  0  0  0  0  0  0  0  0  0  0  0
   52.0100    3.9566   18.4719 C   0  0  0  0  0  0  0  0  0  0  0  0
   50.6734    4.3379   18.3760 C   0  0  0  0  0  0  0  0  0  0  0  0
   52.8985    4.8129   18.9922 F   0  0  0  0  0  0  0  0  0  0  0  0
   51.8944    0.6316   17.0730 F   0  0  0  0  0  0  0  0  0  0  0  0
   52.2352   17.7997   18.2714 C   0  0  0  0  0  0  0  0  0  0  0  0
   48.8236   12.2041   18.0979 H   0  0  0  0  0  0  0  0  0  0  0  0
   51.6302   13.4190   15.1011 H   0  0  0  0  0  0  0  0  0  0  0  0
   47.9165   10.5129   16.5760 H   0  0  0  0  0  0  0  0  0  0  0  0
   49.2060   15.2144   16.9882 H   0  0  0  0  0  0  0  0  0  0  0  0
   49.0355   14.5671   18.6332 H   0  0  0  0  0  0  0  0  0  0  0  0
   49.6141   16.9633   18.6887 H   0  0  0  0  0  0  0  0  0  0  0  0
   50.8823   15.9818   19.4306 H   0  0  0  0  0  0  0  0  0  0  0  0
   51.7618   15.7572   15.8257 H   0  0  0  0  0  0  0  0  0  0  0  0
   53.2204   16.1507   16.7090 H   0  0  0  0  0  0  0  0  0  0  0  0
   52.8087   13.7334   16.9299 H   0  0  0  0  0  0  0  0  0  0  0  0
   52.5920   14.4850   18.4849 H   0  0  0  0  0  0  0  0  0  0  0  0
   50.1853   11.1514   12.6283 H   0  0  0  0  0  0  0  0  0  0  0  0
   51.6158   12.2508   11.4102 H   0  0  0  0  0  0  0  0  0  0  0  0
   53.6520   12.2032   12.2171 H   0  0  0  0  0  0  0  0  0  0  0  0
   53.2316   12.4985   13.8825 H   0  0  0  0  0  0  0  0  0  0  0  0
   54.5734   14.3382   12.6872 H   0  0  0  0  0  0  0  0  0  0  0  0
   53.1330   14.9170   13.5250 H   0  0  0  0  0  0  0  0  0  0  0  0
   51.3437   15.9977   11.7181 H   0  0  0  0  0  0  0  0  0  0  0  0
   51.2742   14.8517   10.3842 H   0  0  0  0  0  0  0  0  0  0  0  0
   50.6764   14.4461   13.2916 H   0  0  0  0  0  0  0  0  0  0  0  0
   49.8043   13.8290   11.9108 H   0  0  0  0  0  0  0  0  0  0  0  0
   48.9040    8.5769   15.6333 H   0  0  0  0  0  0  0  0  0  0  0  0
   46.8484    5.9317   11.7905 H   0  0  0  0  0  0  0  0  0  0  0  0
   48.6635    6.4276   16.7946 H   0  0  0  0  0  0  0  0  0  0  0  0
   47.1889    2.5626   15.5519 H   0  0  0  0  0  0  0  0  0  0  0  0
   46.6755    3.4510   13.2969 H   0  0  0  0  0  0  0  0  0  0  0  0
   48.0252    4.6087   18.4620 H   0  0  0  0  0  0  0  0  0  0  0  0
   47.6337    3.0079   17.9077 H   0  0  0  0  0  0  0  0  0  0  0  0
   49.4621    1.4873   16.9529 H   0  0  0  0  0  0  0  0  0  0  0  0
   53.4780    2.4253   18.1137 H   0  0  0  0  0  0  0  0  0  0  0  0
   50.3859    5.3259   18.7238 H   0  0  0  0  0  0  0  0  0  0  0  0
   52.8584   17.3059   19.0262 H   0  0  0  0  0  0  0  0  0  0  0  0
   51.6275   18.5626   18.7694 H   0  0  0  0  0  0  0  0  0  0  0  0
   52.8931   18.3292   17.5728 H   0  0  0  0  0  0  0  0  0  0  0  0
  1  2  2  0
  1  6  1  0
  2  3  1  0
  3  4  2  0
  4  5  1  0
  5  6  2  0
  2  7  1  0
  7  8  1  0
 12  7  1  0
  8  9  1  0
  9 10  1  0
 10 11  1  0
 11 12  1  0
  4 13  1  0
 13 14  1  0
 14 15  1  0
 19 14  1  0
 15 16  1  0
 16 17  1  0
 17 18  1  0
 18 19  1  0
  5 20  1  0
 20 21  1  0
 20 22  2  0
 21 23  1  0
 23 24  2  0
 23 27  1  0
 24 25  1  0
 25 26  1  0
 31 26  2  0
 26 27  1  0
 27 28  2  0
 28 29  1  0
 29 30  2  0
 30 31  1  0
 29 32  1  0
 32 33  1  0
 33 34  2  0
 33 38  1  0
 34 35  1  0
 35 36  2  0
 36 37  1  0
 37 38  2  0
 37 39  1  0
 35 40  1  0
 10 41  1  0
  1 42  1  0
  3 43  1  0
  6 44  1  0
  8 45  1  0
  8 46  1  0
  9 47  1  0
  9 48  1  0
 11 49  1  0
 11 50  1  0
 12 51  1  0
 12 52  1  0
 13 53  1  0
 14 54  1  0
 15 55  1  0
 15 56  1  0
 16 57  1  0
 16 58  1  0
 18 59  1  0
 18 60  1  0
 19 61  1  0
 19 62  1  0
 21 63  1  0
 25 64  1  0
 28 65  1  0
 30 66  1  0
 31 67  1  0
 32 68  1  0
 32 69  1  0
 34 70  1  0
 36 71  1  0
 38 72  1  0
 41 73  1  0
 41 74  1  0
 41 75  1  0
M  END
> <Uni-Dock RESULT> 
ENERGY=   -4.642  LOWER_BOUND=    5.605  UPPER_BOUND=    9.971
INTER + INTRA:          -4.642
INTER:                  -4.642
INTRA:                   0.000
UNBOUND:                 0.000

$$$$

     RDKit          3D

 75 80  0  0  0  0  0  0  0  0999 V2000
   47.1184   12.5675   19.9652 C   0  0  0  0  0  0  0  0  0  0  0  0
   47.5761   11.2503   20.0920 C   0  0  0  0  0  0  0  0  0  0  0  0
   48.1809   10.6599   18.9662 C   0  0  0  0  0  0  0  0  0  0  0  0
   48.3675   11.3352   17.7459 C   0  0  0  0  0  0  0  0  0  0  0  0
   47.8286   12.6396   17.6515 C   0  0  0  0  0  0  0  0  0  0  0  0
   47.2346   13.2594   18.7613 C   0  0  0  0  0  0  0  0  0  0  0  0
   47.4307   10.5972   21.3266 N   0  0  0  0  0  0  0  0  0  0  0  0
   48.2563   11.2248   22.3926 C   0  0  0  0  0  0  0  0  0  0  0  0
   48.4882   10.2572   23.5765 C   0  0  0  0  0  0  0  0  0  0  0  0
   49.1939    9.0150   23.1875 N   0  0  0  0  0  0  0  0  0  0  0  0
   48.7516    8.5351   21.8584 C   0  0  0  0  0  0  0  0  0  0  0  0
   47.4061    9.1175   21.3695 C   0  0  0  0  0  0  0  0  0  0  0  0
   48.9345   10.7222   16.6191 N   0  0  0  0  0  0  0  0  0  0  0  0
   49.9023    9.6176   16.6310 C   0  0  0  0  0  0  0  0  0  0  0  0
   49.2369    8.2553   16.8433 C   0  0  0  0  0  0  0  0  0  0  0  0
   50.1411    7.3244   17.6374 C   0  0  0  0  0  0  0  0  0  0  0  0
   51.4804    7.4401   17.1701 O   0  0  0  0  0  0  0  0  0  0  0  0
   52.0820    8.7003   17.4720 C   0  0  0  0  0  0  0  0  0  0  0  0
   51.0942    9.8613   17.5525 C   0  0  0  0  0  0  0  0  0  0  0  0
   47.9293   13.4071   16.3743 C   0  0  0  0  0  0  0  0  0  0  0  0
   46.7679   14.0610   16.0188 N   0  0  0  0  0  0  0  0  0  0  0  0
   48.9899   13.3626   15.7616 O   0  0  0  0  0  0  0  0  0  0  0  0
   46.6060   14.8488   14.8949 C   0  0  0  0  0  0  0  0  0  0  0  0
   47.5655   15.1366   14.0143 N   0  0  0  0  0  0  0  0  0  0  0  0
   46.9656   15.9090   13.1015 N   0  0  0  0  0  0  0  0  0  0  0  0
   45.6466   16.1630   13.3592 C   0  0  0  0  0  0  0  0  0  0  0  0
   45.3726   15.4775   14.5357 C   0  0  0  0  0  0  0  0  0  0  0  0
   44.0673   15.5425   15.0679 C   0  0  0  0  0  0  0  0  0  0  0  0
   43.0812   16.2974   14.4022 C   0  0  0  0  0  0  0  0  0  0  0  0
   43.4052   16.9684   13.2140 C   0  0  0  0  0  0  0  0  0  0  0  0
   44.6930   16.9151   12.6687 C   0  0  0  0  0  0  0  0  0  0  0  0
   41.6727   16.3557   14.9520 C   0  0  0  0  0  0  0  0  0  0  0  0
   40.8293   15.1665   14.5567 C   0  0  0  0  0  0  0  0  0  0  0  0
   40.1677   15.1382   13.3197 C   0  0  0  0  0  0  0  0  0  0  0  0
   39.4150   14.0240   12.9537 C   0  0  0  0  0  0  0  0  0  0  0  0
   39.3043   12.9244   13.7913 C   0  0  0  0  0  0  0  0  0  0  0  0
   39.9607   12.9511   15.0126 C   0  0  0  0  0  0  0  0  0  0  0  0
   40.7177   14.0537   15.4029 C   0  0  0  0  0  0  0  0  0  0  0  0
   39.8687   11.8974   15.8339 F   0  0  0  0  0  0  0  0  0  0  0  0
   38.7885   14.0160   11.7695 F   0  0  0  0  0  0  0  0  0  0  0  0
   49.0382    7.9919   24.2172 C   0  0  0  0  0  0  0  0  0  0  0  0
   46.6439   13.0569   20.8125 H   0  0  0  0  0  0  0  0  0  0  0  0
   48.5499    9.6481   19.0572 H   0  0  0  0  0  0  0  0  0  0  0  0
   46.8820   14.2857   18.7073 H   0  0  0  0  0  0  0  0  0  0  0  0
   49.2350   11.5326   21.9967 H   0  0  0  0  0  0  0  0  0  0  0  0
   47.7471   12.1210   22.7675 H   0  0  0  0  0  0  0  0  0  0  0  0
   49.0779   10.7714   24.3447 H   0  0  0  0  0  0  0  0  0  0  0  0
   47.5117   10.0193   24.0227 H   0  0  0  0  0  0  0  0  0  0  0  0
   49.5344    8.8195   21.1438 H   0  0  0  0  0  0  0  0  0  0  0  0
   48.7042    7.4388   21.8270 H   0  0  0  0  0  0  0  0  0  0  0  0
   47.1156    8.6752   20.4094 H   0  0  0  0  0  0  0  0  0  0  0  0
   46.6155    8.8178   22.0706 H   0  0  0  0  0  0  0  0  0  0  0  0
   49.2402   11.4540   15.9577 H   0  0  0  0  0  0  0  0  0  0  0  0
   50.3132    9.5919   15.6111 H   0  0  0  0  0  0  0  0  0  0  0  0
   49.0563    7.8141   15.8535 H   0  0  0  0  0  0  0  0  0  0  0  0
   48.2512    8.3161   17.3155 H   0  0  0  0  0  0  0  0  0  0  0  0
   49.8203    6.2869   17.5005 H   0  0  0  0  0  0  0  0  0  0  0  0
   50.1030    7.5373   18.7124 H   0  0  0  0  0  0  0  0  0  0  0  0
   52.6335    8.6057   18.4133 H   0  0  0  0  0  0  0  0  0  0  0  0
   52.8207    8.8923   16.6870 H   0  0  0  0  0  0  0  0  0  0  0  0
   50.7703    9.9563   18.5944 H   0  0  0  0  0  0  0  0  0  0  0  0
   51.6000   10.8041   17.3135 H   0  0  0  0  0  0  0  0  0  0  0  0
   45.9372   13.9071   16.5681 H   0  0  0  0  0  0  0  0  0  0  0  0
   47.5191   16.2368   12.3184 H   0  0  0  0  0  0  0  0  0  0  0  0
   43.8246   15.0119   15.9832 H   0  0  0  0  0  0  0  0  0  0  0  0
   42.6447   17.5467   12.6908 H   0  0  0  0  0  0  0  0  0  0  0  0
   44.9327   17.4356   11.7472 H   0  0  0  0  0  0  0  0  0  0  0  0
   41.7135   16.4386   16.0464 H   0  0  0  0  0  0  0  0  0  0  0  0
   41.1792   17.2793   14.6213 H   0  0  0  0  0  0  0  0  0  0  0  0
   40.2344   15.9742   12.6287 H   0  0  0  0  0  0  0  0  0  0  0  0
   38.7212   12.0610   13.4962 H   0  0  0  0  0  0  0  0  0  0  0  0
   41.2191   14.0285   16.3661 H   0  0  0  0  0  0  0  0  0  0  0  0
   47.9948    7.6757   24.3321 H   0  0  0  0  0  0  0  0  0  0  0  0
   49.3968    8.3606   25.1841 H   0  0  0  0  0  0  0  0  0  0  0  0
   49.6418    7.1097   23.9745 H   0  0  0  0  0  0  0  0  0  0  0  0
  1  2  2  0
  1  6  1  0
  2  3  1  0
  3  4  2  0
  4  5  1  0
  5  6  2  0
  2  7  1  0
  7  8  1  0
 12  7  1  0
  8  9  1  0
  9 10  1  0
 10 11  1  0
 11 12  1  0
  4 13  1  0
 13 14  1  0
 14 15  1  0
 19 14  1  0
 15 16  1  0
 16 17  1  0
 17 18  1  0
 18 19  1  0
  5 20  1  0
 20 21  1  0
 20 22  2  0
 21 23  1  0
 23 24  2  0
 23 27  1  0
 24 25  1  0
 25 26  1  0
 31 26  2  0
 26 27  1  0
 27 28  2  0
 28 29  1  0
 29 30  2  0
 30 31  1  0
 29 32  1  0
 32 33  1  0
 33 34  2  0
 33 38  1  0
 34 35  1  0
 35 36  2  0
 36 37  1  0
 37 38  2  0
 37 39  1  0
 35 40  1  0
 10 41  1  0
  1 42  1  0
  3 43  1  0
  6 44  1  0
  8 45  1  0
  8 46  1  0
  9 47  1  0
  9 48  1  0
 11 49  1  0
 11 50  1  0
 12 51  1  0
 12 52  1  0
 13 53  1  0
 14 54  1  0
 15 55  1  0
 15 56  1  0
 16 57  1  0
 16 58  1  0
 18 59  1  0
 18 60  1  0
 19 61  1  0
 19 62  1  0
 21 63  1  0
 25 64  1  0
 28 65  1  0
 30 66  1  0
 31 67  1  0
 32 68  1  0
 32 69  1  0
 34 70  1  0
 36 71  1  0
 38 72  1  0
 41 73  1  0
 41 74  1  0
 41 75  1  0
M  END
> <Uni-Dock RESULT> 
ENERGY=   -4.611  LOWER_BOUND=    4.677  UPPER_BOUND=    6.644
INTER + INTRA:          -4.611
INTER:                  -4.611
INTRA:                   0.000
UNBOUND:                 0.000

$$$$

     RDKit          3D

 75 80  0  0  0  0  0  0  0  0999 V2000
   46.5144   12.5329   10.1806 C   0  0  0  0  0  0  0  0  0  0  0  0
   47.6005   12.0340   10.9099 C   0  0  0  0  0  0  0  0  0  0  0  0
   47.3648   10.9384   11.7618 C   0  0  0  0  0  0  0  0  0  0  0  0
   46.1100   10.3146   11.8893 C   0  0  0  0  0  0  0  0  0  0  0  0
   45.0340   10.8986   11.1809 C   0  0  0  0  0  0  0  0  0  0  0  0
   45.2417   11.9809   10.3125 C   0  0  0  0  0  0  0  0  0  0  0  0
   48.8612   12.6297   10.7428 N   0  0  0  0  0  0  0  0  0  0  0  0
   49.3994   12.4256    9.3715 C   0  0  0  0  0  0  0  0  0  0  0  0
   50.9320   12.6274    9.3259 C   0  0  0  0  0  0  0  0  0  0  0  0
   51.6721   11.6907   10.2019 N   0  0  0  0  0  0  0  0  0  0  0  0
   50.9503   11.4541   11.4729 C   0  0  0  0  0  0  0  0  0  0  0  0
   49.8728   12.5073   11.8168 C   0  0  0  0  0  0  0  0  0  0  0  0
   45.8789    9.2497   12.7723 N   0  0  0  0  0  0  0  0  0  0  0  0
   46.8746    8.2685   13.2228 C   0  0  0  0  0  0  0  0  0  0  0  0
   47.7607    8.8054   14.3498 C   0  0  0  0  0  0  0  0  0  0  0  0
   49.1701    8.2409   14.2514 C   0  0  0  0  0  0  0  0  0  0  0  0
   49.1122    6.8536   13.9392 O   0  0  0  0  0  0  0  0  0  0  0  0
   48.6367    6.5864   12.6187 C   0  0  0  0  0  0  0  0  0  0  0  0
   47.6627    7.6319   12.0815 C   0  0  0  0  0  0  0  0  0  0  0  0
   43.6557   10.3369   11.3045 C   0  0  0  0  0  0  0  0  0  0  0  0
   42.6712   11.2917   11.4522 N   0  0  0  0  0  0  0  0  0  0  0  0
   43.5313    9.1176   11.2953 O   0  0  0  0  0  0  0  0  0  0  0  0
   41.3186   11.0336   11.5702 C   0  0  0  0  0  0  0  0  0  0  0  0
   40.7592    9.8246   11.5059 N   0  0  0  0  0  0  0  0  0  0  0  0
   39.4512   10.0480   11.6764 N   0  0  0  0  0  0  0  0  0  0  0  0
   39.1211   11.3666   11.8281 C   0  0  0  0  0  0  0  0  0  0  0  0
   40.3297   12.0484   11.7651 C   0  0  0  0  0  0  0  0  0  0  0  0
   40.3211   13.4534   11.8949 C   0  0  0  0  0  0  0  0  0  0  0  0
   39.0977   14.1277   12.0800 C   0  0  0  0  0  0  0  0  0  0  0  0
   37.9036   13.3947   12.1420 C   0  0  0  0  0  0  0  0  0  0  0  0
   37.8908   12.0007   12.0174 C   0  0  0  0  0  0  0  0  0  0  0  0
   39.0792   15.6319   12.2427 C   0  0  0  0  0  0  0  0  0  0  0  0
   39.3796   16.0823   13.6529 C   0  0  0  0  0  0  0  0  0  0  0  0
   38.3641   16.1315   14.6199 C   0  0  0  0  0  0  0  0  0  0  0  0
   38.6583   16.5217   15.9249 C   0  0  0  0  0  0  0  0  0  0  0  0
   39.9489   16.8643   16.2991 C   0  0  0  0  0  0  0  0  0  0  0  0
   40.9531   16.8127   15.3443 C   0  0  0  0  0  0  0  0  0  0  0  0
   40.6847   16.4279   14.0324 C   0  0  0  0  0  0  0  0  0  0  0  0
   42.2065   17.1366   15.6872 F   0  0  0  0  0  0  0  0  0  0  0  0
   37.6752   16.5648   16.8339 F   0  0  0  0  0  0  0  0  0  0  0  0
   53.0340   12.1655   10.4273 C   0  0  0  0  0  0  0  0  0  0  0  0
   46.6567   13.3798    9.5134 H   0  0  0  0  0  0  0  0  0  0  0  0
   48.1992   10.5368   12.3193 H   0  0  0  0  0  0  0  0  0  0  0  0
   44.4277   12.3854    9.7173 H   0  0  0  0  0  0  0  0  0  0  0  0
   49.1701   11.4127    9.0099 H   0  0  0  0  0  0  0  0  0  0  0  0
   48.9314   13.1425    8.6859 H   0  0  0  0  0  0  0  0  0  0  0  0
   51.2772   12.4918    8.2940 H   0  0  0  0  0  0  0  0  0  0  0  0
   51.1505   13.6680    9.6067 H   0  0  0  0  0  0  0  0  0  0  0  0
   50.4635   10.4748   11.3818 H   0  0  0  0  0  0  0  0  0  0  0  0
   51.6482   11.3620   12.3154 H   0  0  0  0  0  0  0  0  0  0  0  0
   49.4229   12.3000   12.7947 H   0  0  0  0  0  0  0  0  0  0  0  0
   50.3585   13.4860   11.9299 H   0  0  0  0  0  0  0  0  0  0  0  0
   45.0073    8.7692   12.4969 H   0  0  0  0  0  0  0  0  0  0  0  0
   46.2856    7.4544   13.6700 H   0  0  0  0  0  0  0  0  0  0  0  0
   47.3176    8.4871   15.3034 H   0  0  0  0  0  0  0  0  0  0  0  0
   47.7955    9.8984   14.3992 H   0  0  0  0  0  0  0  0  0  0  0  0
   49.6845    8.3536   15.2109 H   0  0  0  0  0  0  0  0  0  0  0  0
   49.7687    8.7666   13.4980 H   0  0  0  0  0  0  0  0  0  0  0  0
   49.4994    6.4933   11.9507 H   0  0  0  0  0  0  0  0  0  0  0  0
   48.1510    5.6057   12.6517 H   0  0  0  0  0  0  0  0  0  0  0  0
   48.2432    8.3856   11.5387 H   0  0  0  0  0  0  0  0  0  0  0  0
   46.9969    7.1798   11.3373 H   0  0  0  0  0  0  0  0  0  0  0  0
   42.9431   12.2561   11.5589 H   0  0  0  0  0  0  0  0  0  0  0  0
   38.8284    9.2486   11.6764 H   0  0  0  0  0  0  0  0  0  0  0  0
   41.2518   14.0106   11.8548 H   0  0  0  0  0  0  0  0  0  0  0  0
   36.9559   13.9099   12.2931 H   0  0  0  0  0  0  0  0  0  0  0  0
   36.9617   11.4426   12.0696 H   0  0  0  0  0  0  0  0  0  0  0  0
   39.7985   16.0812   11.5448 H   0  0  0  0  0  0  0  0  0  0  0  0
   38.1042   16.0306   11.9322 H   0  0  0  0  0  0  0  0  0  0  0  0
   37.3406   15.8630   14.3725 H   0  0  0  0  0  0  0  0  0  0  0  0
   40.1689   17.1616   17.3169 H   0  0  0  0  0  0  0  0  0  0  0  0
   41.5035   16.3967   13.3193 H   0  0  0  0  0  0  0  0  0  0  0  0
   53.0561   13.1129   10.9785 H   0  0  0  0  0  0  0  0  0  0  0  0
   53.5554   12.3069    9.4747 H   0  0  0  0  0  0  0  0  0  0  0  0
   53.6093   11.4234   10.9927 H   0  0  0  0  0  0  0  0  0  0  0  0
  1  2  2  0
  1  6  1  0
  2  3  1  0
  3  4  2  0
  4  5  1  0
  5  6  2  0
  2  7  1  0
  7  8  1  0
 12  7  1  0
  8  9  1  0
  9 10  1  0
 10 11  1  0
 11 12  1  0
  4 13  1  0
 13 14  1  0
 14 15  1  0
 19 14  1  0
 15 16  1  0
 16 17  1  0
 17 18  1  0
 18 19  1  0
  5 20  1  0
 20 21  1  0
 20 22  2  0
 21 23  1  0
 23 24  2  0
 23 27  1  0
 24 25  1  0
 25 26  1  0
 31 26  2  0
 26 27  1  0
 27 28  2  0
 28 29  1  0
 29 30  2  0
 30 31  1  0
 29 32  1  0
 32 33  1  0
 33 34  2  0
 33 38  1  0
 34 35  1  0
 35 36  2  0
 36 37  1  0
 37 38  2  0
 37 39  1  0
 35 40  1  0
 10 41  1  0
  1 42  1  0
  3 43  1  0
  6 44  1  0
  8 45  1  0
  8 46  1  0
  9 47  1  0
  9 48  1  0
 11 49  1  0
 11 50  1  0
 12 51  1  0
 12 52  1  0
 13 53  1  0
 14 54  1  0
 15 55  1  0
 15 56  1  0
 16 57  1  0
 16 58  1  0
 18 59  1  0
 18 60  1  0
 19 61  1  0
 19 62  1  0
 21 63  1  0
 25 64  1  0
 28 65  1  0
 30 66  1  0
 31 67  1  0
 32 68  1  0
 32 69  1  0
 34 70  1  0
 36 71  1  0
 38 72  1  0
 41 73  1  0
 41 74  1  0
 41 75  1  0
M  END
> <Uni-Dock RESULT> 
ENERGY=   -4.582  LOWER_BOUND=    4.251  UPPER_BOUND=    6.666
INTER + INTRA:          -4.582
INTER:                  -4.582
INTRA:                   0.000
UNBOUND:                 0.000

$$$$

     RDKit          3D

 75 80  0  0  0  0  0  0  0  0999 V2000
   50.0596   12.2582   15.2021 C   0  0  0  0  0  0  0  0  0  0  0  0
   51.1552   12.8630   14.5742 C   0  0  0  0  0  0  0  0  0  0  0  0
   51.5268   12.3800   13.3052 C   0  0  0  0  0  0  0  0  0  0  0  0
   50.8382   11.3498   12.6384 C   0  0  0  0  0  0  0  0  0  0  0  0
   49.7807   10.7303   13.3445 C   0  0  0  0  0  0  0  0  0  0  0  0
   49.3780   11.2003   14.6037 C   0  0  0  0  0  0  0  0  0  0  0  0
   51.8093   13.9228   15.2231 N   0  0  0  0  0  0  0  0  0  0  0  0
   50.9382   15.1207   15.3563 C   0  0  0  0  0  0  0  0  0  0  0  0
   51.7675   16.4030   15.6005 C   0  0  0  0  0  0  0  0  0  0  0  0
   52.7161   16.7043   14.5043 N   0  0  0  0  0  0  0  0  0  0  0  0
   53.3253   15.4687   13.9614 C   0  0  0  0  0  0  0  0  0  0  0  0
   53.2162   14.2301   14.8793 C   0  0  0  0  0  0  0  0  0  0  0  0
   51.2434   10.8500   11.3922 N   0  0  0  0  0  0  0  0  0  0  0  0
   51.9732   11.5946   10.3578 C   0  0  0  0  0  0  0  0  0  0  0  0
   53.4759   11.6727   10.6397 C   0  0  0  0  0  0  0  0  0  0  0  0
   54.0553   12.9908   10.1481 C   0  0  0  0  0  0  0  0  0  0  0  0
   53.5146   13.3074    8.8703 O   0  0  0  0  0  0  0  0  0  0  0  0
   52.1246   13.6362    8.9057 C   0  0  0  0  0  0  0  0  0  0  0  0
   51.3472   12.9456   10.0232 C   0  0  0  0  0  0  0  0  0  0  0  0
   49.0333    9.5894   12.7361 C   0  0  0  0  0  0  0  0  0  0  0  0
   48.7957    8.5457   13.6060 N   0  0  0  0  0  0  0  0  0  0  0  0
   48.7359    9.6675   11.5495 O   0  0  0  0  0  0  0  0  0  0  0  0
   48.1131    7.3850   13.2946 C   0  0  0  0  0  0  0  0  0  0  0  0
   47.5367    7.1249   12.1203 N   0  0  0  0  0  0  0  0  0  0  0  0
   47.0092    5.9041   12.2660 N   0  0  0  0  0  0  0  0  0  0  0  0
   47.1956    5.3552   13.5049 C   0  0  0  0  0  0  0  0  0  0  0  0
   47.9227    6.3043   14.2119 C   0  0  0  0  0  0  0  0  0  0  0  0
   48.2810    6.0244   15.5477 C   0  0  0  0  0  0  0  0  0  0  0  0
   47.8935    4.8013   16.1304 C   0  0  0  0  0  0  0  0  0  0  0  0
   47.1640    3.8725   15.3741 C   0  0  0  0  0  0  0  0  0  0  0  0
   46.8005    4.1300   14.0473 C   0  0  0  0  0  0  0  0  0  0  0  0
   48.2914    4.4815   17.5548 C   0  0  0  0  0  0  0  0  0  0  0  0
   49.6936    3.9321   17.6724 C   0  0  0  0  0  0  0  0  0  0  0  0
   49.9463    2.5667   17.4708 C   0  0  0  0  0  0  0  0  0  0  0  0
   51.2478    2.0758   17.5543 C   0  0  0  0  0  0  0  0  0  0  0  0
   52.3163    2.9150   17.8320 C   0  0  0  0  0  0  0  0  0  0  0  0
   52.0670    4.2649   18.0282 C   0  0  0  0  0  0  0  0  0  0  0  0
   50.7748    4.7804   17.9522 C   0  0  0  0  0  0  0  0  0  0  0  0
   53.0862    5.0919   18.2941 F   0  0  0  0  0  0  0  0  0  0  0  0
   51.4693    0.7688   17.3610 F   0  0  0  0  0  0  0  0  0  0  0  0
   53.7253   17.6619   14.9469 C   0  0  0  0  0  0  0  0  0  0  0  0
   49.7437   12.6026   16.1841 H   0  0  0  0  0  0  0  0  0  0  0  0
   52.3629   12.8487   12.8057 H   0  0  0  0  0  0  0  0  0  0  0  0
   48.5226   10.7680   15.1154 H   0  0  0  0  0  0  0  0  0  0  0  0
   50.3324   15.2644   14.4498 H   0  0  0  0  0  0  0  0  0  0  0  0
   50.2529   14.9807   16.2012 H   0  0  0  0  0  0  0  0  0  0  0  0
   51.0828   17.2515   15.7168 H   0  0  0  0  0  0  0  0  0  0  0  0
   52.3060   16.2883   16.5524 H   0  0  0  0  0  0  0  0  0  0  0  0
   52.8082   15.2500   13.0185 H   0  0  0  0  0  0  0  0  0  0  0  0
   54.3777   15.6288   13.6931 H   0  0  0  0  0  0  0  0  0  0  0  0
   53.7374   13.3717   14.4395 H   0  0  0  0  0  0  0  0  0  0  0  0
   53.7506   14.4365   15.8165 H   0  0  0  0  0  0  0  0  0  0  0  0
   50.4577   10.3314   10.9677 H   0  0  0  0  0  0  0  0  0  0  0  0
   51.8727   10.9850    9.4480 H   0  0  0  0  0  0  0  0  0  0  0  0
   53.9605   10.8490   10.0979 H   0  0  0  0  0  0  0  0  0  0  0  0
   53.7347   11.5167   11.6918 H   0  0  0  0  0  0  0  0  0  0  0  0
   55.1419   12.9058   10.0474 H   0  0  0  0  0  0  0  0  0  0  0  0
   53.8570   13.8105   10.8489 H   0  0  0  0  0  0  0  0  0  0  0  0
   52.0266   14.7234    8.9914 H   0  0  0  0  0  0  0  0  0  0  0  0
   51.7098   13.3538    7.9326 H   0  0  0  0  0  0  0  0  0  0  0  0
   51.3536   13.6069   10.8963 H   0  0  0  0  0  0  0  0  0  0  0  0
   50.2933   12.8405    9.7402 H   0  0  0  0  0  0  0  0  0  0  0  0
   49.2064    8.5779   14.5256 H   0  0  0  0  0  0  0  0  0  0  0  0
   46.5261    5.4973   11.4735 H   0  0  0  0  0  0  0  0  0  0  0  0
   48.8536    6.7463   16.1215 H   0  0  0  0  0  0  0  0  0  0  0  0
   46.8689    2.9220   15.8168 H   0  0  0  0  0  0  0  0  0  0  0  0
   46.2384    3.4033   13.4699 H   0  0  0  0  0  0  0  0  0  0  0  0
   48.1902    5.3848   18.1714 H   0  0  0  0  0  0  0  0  0  0  0  0
   47.5814    3.7661   17.9908 H   0  0  0  0  0  0  0  0  0  0  0  0
   49.1401    1.8749   17.2423 H   0  0  0  0  0  0  0  0  0  0  0  0
   53.3249    2.5252   17.8900 H   0  0  0  0  0  0  0  0  0  0  0  0
   50.6273    5.8452   18.1075 H   0  0  0  0  0  0  0  0  0  0  0  0
   54.3624   17.2545   15.7406 H   0  0  0  0  0  0  0  0  0  0  0  0
   53.2516   18.5767   15.3185 H   0  0  0  0  0  0  0  0  0  0  0  0
   54.3654   17.9584   14.1080 H   0  0  0  0  0  0  0  0  0  0  0  0
  1  2  2  0
  1  6  1  0
  2  3  1  0
  3  4  2  0
  4  5  1  0
  5  6  2  0
  2  7  1  0
  7  8  1  0
 12  7  1  0
  8  9  1  0
  9 10  1  0
 10 11  1  0
 11 12  1  0
  4 13  1  0
 13 14  1  0
 14 15  1  0
 19 14  1  0
 15 16  1  0
 16 17  1  0
 17 18  1  0
 18 19  1  0
  5 20  1  0
 20 21  1  0
 20 22  2  0
 21 23  1  0
 23 24  2  0
 23 27  1  0
 24 25  1  0
 25 26  1  0
 31 26  2  0
 26 27  1  0
 27 28  2  0
 28 29  1  0
 29 30  2  0
 30 31  1  0
 29 32  1  0
 32 33  1  0
 33 34  2  0
 33 38  1  0
 34 35  1  0
 35 36  2  0
 36 37  1  0
 37 38  2  0
 37 39  1  0
 35 40  1  0
 10 41  1  0
  1 42  1  0
  3 43  1  0
  6 44  1  0
  8 45  1  0
  8 46  1  0
  9 47  1  0
  9 48  1  0
 11 49  1  0
 11 50  1  0
 12 51  1  0
 12 52  1  0
 13 53  1  0
 14 54  1  0
 15 55  1  0
 15 56  1  0
 16 57  1  0
 16 58  1  0
 18 59  1  0
 18 60  1  0
 19 61  1  0
 19 62  1  0
 21 63  1  0
 25 64  1  0
 28 65  1  0
 30 66  1  0
 31 67  1  0
 32 68  1  0
 32 69  1  0
 34 70  1  0
 36 71  1  0
 38 72  1  0
 41 73  1  0
 41 74  1  0
 41 75  1  0
M  END
> <Uni-Dock RESULT> 
ENERGY=   -4.509  LOWER_BOUND=    5.610  UPPER_BOUND=    9.944
INTER + INTRA:          -4.509
INTER:                  -4.509
INTRA:                   0.000
UNBOUND:                 0.000

$$$$
