
     RDKit          3D

 75 80  0  0  0  0  0  0  0  0999 V2000
   45.4431   11.5772   11.1308 C   0  0  0  0  0  0  0  0  0  0  0  0
   44.1987   11.0010   11.4167 C   0  0  0  0  0  0  0  0  0  0  0  0
   44.2199    9.7733   12.1041 C   0  0  0  0  0  0  0  0  0  0  0  0
   45.4123    9.1301   12.5079 C   0  0  0  0  0  0  0  0  0  0  0  0
   46.6327    9.7800   12.2462 C   0  0  0  0  0  0  0  0  0  0  0  0
   46.6433   10.9853   11.5370 C   0  0  0  0  0  0  0  0  0  0  0  0
   43.0139   11.6005   11.0224 N   0  0  0  0  0  0  0  0  0  0  0  0
   42.9280   13.0570   10.8120 C   0  0  0  0  0  0  0  0  0  0  0  0
   41.5150   13.5938   11.1466 C   0  0  0  0  0  0  0  0  0  0  0  0
   40.3868   12.9391   10.4487 N   0  0  0  0  0  0  0  0  0  0  0  0
   40.7439   11.5724   10.0091 C   0  0  0  0  0  0  0  0  0  0  0  0
   41.7457   10.8531   10.9423 C   0  0  0  0  0  0  0  0  0  0  0  0
   45.2993    7.8634   13.1416 N   0  0  0  0  0  0  0  0  0  0  0  0
   45.9646    6.7394   12.4259 C   0  0  0  0  0  0  0  0  0  0  0  0
   45.8565    5.4709   13.2887 C   0  0  0  0  0  0  0  0  0  0  0  0
   44.7158    4.5811   12.8139 C   0  0  0  0  0  0  0  0  0  0  0  0
   44.8445    4.1716   11.4517 O   0  0  0  0  0  0  0  0  0  0  0  0
   45.5461    5.0787   10.5988 C   0  0  0  0  0  0  0  0  0  0  0  0
   45.3649    6.5244   11.0274 C   0  0  0  0  0  0  0  0  0  0  0  0
   47.9548    9.2757   12.7141 C   0  0  0  0  0  0  0  0  0  0  0  0
   47.9415    8.7934   14.0043 N   0  0  0  0  0  0  0  0  0  0  0  0
   48.9040    9.3513   11.9412 O   0  0  0  0  0  0  0  0  0  0  0  0
   49.0081    8.2079   14.6545 C   0  0  0  0  0  0  0  0  0  0  0  0
   50.1972    7.9589   14.1042 N   0  0  0  0  0  0  0  0  0  0  0  0
   50.9087    7.3833   15.0808 N   0  0  0  0  0  0  0  0  0  0  0  0
   50.2330    7.2466   16.2610 C   0  0  0  0  0  0  0  0  0  0  0  0
   48.9720    7.7781   16.0171 C   0  0  0  0  0  0  0  0  0  0  0  0
   48.0325    7.8036   17.0685 C   0  0  0  0  0  0  0  0  0  0  0  0
   48.3971    7.3047   18.3363 C   0  0  0  0  0  0  0  0  0  0  0  0
   49.6794    6.7673   18.5303 C   0  0  0  0  0  0  0  0  0  0  0  0
   50.6208    6.7228   17.4969 C   0  0  0  0  0  0  0  0  0  0  0  0
   47.4336    7.4057   19.4991 C   0  0  0  0  0  0  0  0  0  0  0  0
   47.6629    8.6398   20.3417 C   0  0  0  0  0  0  0  0  0  0  0  0
   47.1851    9.8920   19.9236 C   0  0  0  0  0  0  0  0  0  0  0  0
   47.4476   11.0318   20.6808 C   0  0  0  0  0  0  0  0  0  0  0  0
   48.1735   10.9601   21.8605 C   0  0  0  0  0  0  0  0  0  0  0  0
   48.6450    9.7235   22.2762 C   0  0  0  0  0  0  0  0  0  0  0  0
   48.4029    8.5692   21.5319 C   0  0  0  0  0  0  0  0  0  0  0  0
   49.3603    9.6347   23.4075 F   0  0  0  0  0  0  0  0  0  0  0  0
   47.0063   12.2181   20.2489 F   0  0  0  0  0  0  0  0  0  0  0  0
   39.9094   13.7363    9.3210 C   0  0  0  0  0  0  0  0  0  0  0  0
   45.5077   12.4953   10.5555 H   0  0  0  0  0  0  0  0  0  0  0  0
   43.2754    9.2920   12.3409 H   0  0  0  0  0  0  0  0  0  0  0  0
   47.5869   11.4744   11.3007 H   0  0  0  0  0  0  0  0  0  0  0  0
   43.6365   13.5869   11.4627 H   0  0  0  0  0  0  0  0  0  0  0  0
   43.1827   13.2919    9.7700 H   0  0  0  0  0  0  0  0  0  0  0  0
   41.3480   13.4408   12.2219 H   0  0  0  0  0  0  0  0  0  0  0  0
   41.4973   14.6822   11.0015 H   0  0  0  0  0  0  0  0  0  0  0  0
   41.1854   11.5974    9.0039 H   0  0  0  0  0  0  0  0  0  0  0  0
   39.8279   10.9727    9.9415 H   0  0  0  0  0  0  0  0  0  0  0  0
   41.3128   10.7452   11.9445 H   0  0  0  0  0  0  0  0  0  0  0  0
   41.9176    9.8518   10.5272 H   0  0  0  0  0  0  0  0  0  0  0  0
   44.3097    7.6373   13.2752 H   0  0  0  0  0  0  0  0  0  0  0  0
   47.0354    6.9458   12.3252 H   0  0  0  0  0  0  0  0  0  0  0  0
   45.7394    5.7111   14.3524 H   0  0  0  0  0  0  0  0  0  0  0  0
   46.7947    4.9069   13.1895 H   0  0  0  0  0  0  0  0  0  0  0  0
   43.7545    5.0952   12.9252 H   0  0  0  0  0  0  0  0  0  0  0  0
   44.6677    3.6746   13.4262 H   0  0  0  0  0  0  0  0  0  0  0  0
   46.6054    4.7990   10.5892 H   0  0  0  0  0  0  0  0  0  0  0  0
   45.1588    4.9368    9.5851 H   0  0  0  0  0  0  0  0  0  0  0  0
   45.8446    7.1967   10.3045 H   0  0  0  0  0  0  0  0  0  0  0  0
   44.2918    6.7631   11.0266 H   0  0  0  0  0  0  0  0  0  0  0  0
   47.0547    8.7892   14.4933 H   0  0  0  0  0  0  0  0  0  0  0  0
   51.8653    7.1139   14.8782 H   0  0  0  0  0  0  0  0  0  0  0  0
   47.0466    8.2310   16.9039 H   0  0  0  0  0  0  0  0  0  0  0  0
   49.9686    6.3880   19.5100 H   0  0  0  0  0  0  0  0  0  0  0  0
   51.6141    6.3178   17.6612 H   0  0  0  0  0  0  0  0  0  0  0  0
   47.5170    6.5024   20.1196 H   0  0  0  0  0  0  0  0  0  0  0  0
   46.3981    7.4007   19.1338 H   0  0  0  0  0  0  0  0  0  0  0  0
   46.6207   10.0011   19.0019 H   0  0  0  0  0  0  0  0  0  0  0  0
   48.3730   11.8536   22.4375 H   0  0  0  0  0  0  0  0  0  0  0  0
   48.8063    7.6237   21.8870 H   0  0  0  0  0  0  0  0  0  0  0  0
   39.5762   14.7243    9.6609 H   0  0  0  0  0  0  0  0  0  0  0  0
   40.6798   13.8760    8.5566 H   0  0  0  0  0  0  0  0  0  0  0  0
   39.0419   13.2584    8.8541 H   0  0  0  0  0  0  0  0  0  0  0  0
  1  2  2  0
  1  6  1  0
  2  3  1  0
  3  4  2  0
  4  5  1  0
  5  6  2  0
  2  7  1  0
  7  8  1  0
 12  7  1  0
  8  9  1  0
  9 10  1  0
 10 11  1  0
 11 12  1  0
  4 13  1  0
 13 14  1  0
 14 15  1  0
 19 14  1  0
 15 16  1  0
 16 17  1  0
 17 18  1  0
 18 19  1  0
  5 20  1  0
 20 21  1  0
 20 22  2  0
 21 23  1  0
 23 24  2  0
 23 27  1  0
 24 25  1  0
 25 26  1  0
 31 26  2  0
 26 27  1  0
 27 28  2  0
 28 29  1  0
 29 30  2  0
 30 31  1  0
 29 32  1  0
 32 33  1  0
 33 34  2  0
 33 38  1  0
 34 35  1  0
 35 36  2  0
 36 37  1  0
 37 38  2  0
 37 39  1  0
 35 40  1  0
 10 41  1  0
  1 42  1  0
  3 43  1  0
  6 44  1  0
  8 45  1  0
  8 46  1  0
  9 47  1  0
  9 48  1  0
 11 49  1  0
 11 50  1  0
 12 51  1  0
 12 52  1  0
 13 53  1  0
 14 54  1  0
 15 55  1  0
 15 56  1  0
 16 57  1  0
 16 58  1  0
 18 59  1  0
 18 60  1  0
 19 61  1  0
 19 62  1  0
 21 63  1  0
 25 64  1  0
 28 65  1  0
 30 66  1  0
 31 67  1  0
 32 68  1  0
 32 69  1  0
 34 70  1  0
 36 71  1  0
 38 72  1  0
 41 73  1  0
 41 74  1  0
 41 75  1  0
M  END
> <Uni-Dock RESULT> 
ENERGY=   -5.108  LOWER_BOUND=    0.000  UPPER_BOUND=    0.000
INTER + INTRA:          -5.108
INTER:                  -5.108
INTRA:                   0.000
UNBOUND:                 0.000

$$$$

     RDKit          3D

 75 80  0  0  0  0  0  0  0  0999 V2000
   52.7870    4.2768   21.2873 C   0  0  0  0  0  0  0  0  0  0  0  0
   53.0508    4.0456   19.9311 C   0  0  0  0  0  0  0  0  0  0  0  0
   52.0883    4.5128   19.0170 C   0  0  0  0  0  0  0  0  0  0  0  0
   50.9107    5.1901   19.4081 C   0  0  0  0  0  0  0  0  0  0  0  0
   50.7225    5.4467   20.7790 C   0  0  0  0  0  0  0  0  0  0  0  0
   51.6470    4.9665   21.7120 C   0  0  0  0  0  0  0  0  0  0  0  0
   54.1892    3.3732   19.5178 N   0  0  0  0  0  0  0  0  0  0  0  0
   55.4115    3.3628   20.3418 C   0  0  0  0  0  0  0  0  0  0  0  0
   56.6841    3.2846   19.4638 C   0  0  0  0  0  0  0  0  0  0  0  0
   56.7434    2.1638   18.5001 N   0  0  0  0  0  0  0  0  0  0  0  0
   55.3902    1.6717   18.1603 C   0  0  0  0  0  0  0  0  0  0  0  0
   54.2994    2.7680   18.1781 C   0  0  0  0  0  0  0  0  0  0  0  0
   49.9891    5.5570   18.3908 N   0  0  0  0  0  0  0  0  0  0  0  0
   48.6367    4.9456   18.5157 C   0  0  0  0  0  0  0  0  0  0  0  0
   47.7280    5.5273   17.4196 C   0  0  0  0  0  0  0  0  0  0  0  0
   47.6193    4.5756   16.2361 C   0  0  0  0  0  0  0  0  0  0  0  0
   47.1089    3.2888   16.5874 O   0  0  0  0  0  0  0  0  0  0  0  0
   47.3835    2.8601   17.9228 C   0  0  0  0  0  0  0  0  0  0  0  0
   48.6996    3.4119   18.4425 C   0  0  0  0  0  0  0  0  0  0  0  0
   49.5888    6.2473   21.3221 C   0  0  0  0  0  0  0  0  0  0  0  0
   49.2997    7.3742   20.5847 N   0  0  0  0  0  0  0  0  0  0  0  0
   49.0487    5.8531   22.3503 O   0  0  0  0  0  0  0  0  0  0  0  0
   48.2598    8.2479   20.8263 C   0  0  0  0  0  0  0  0  0  0  0  0
   47.3340    8.0930   21.7739 N   0  0  0  0  0  0  0  0  0  0  0  0
   46.5302    9.1545   21.6389 N   0  0  0  0  0  0  0  0  0  0  0  0
   46.8943   10.0100   20.6371 C   0  0  0  0  0  0  0  0  0  0  0  0
   48.0320    9.4425   20.0754 C   0  0  0  0  0  0  0  0  0  0  0  0
   48.6700   10.1143   19.0121 C   0  0  0  0  0  0  0  0  0  0  0  0
   48.1493   11.3433   18.5566 C   0  0  0  0  0  0  0  0  0  0  0  0
   46.9907   11.8705   19.1487 C   0  0  0  0  0  0  0  0  0  0  0  0
   46.3375   11.2133   20.1964 C   0  0  0  0  0  0  0  0  0  0  0  0
   48.8710   12.1220   17.4781 C   0  0  0  0  0  0  0  0  0  0  0  0
   49.8103   13.1646   18.0403 C   0  0  0  0  0  0  0  0  0  0  0  0
   51.0748   12.8005   18.5301 C   0  0  0  0  0  0  0  0  0  0  0  0
   51.9117   13.7607   19.0948 C   0  0  0  0  0  0  0  0  0  0  0  0
   51.5261   15.0903   19.1801 C   0  0  0  0  0  0  0  0  0  0  0  0
   50.2779   15.4524   18.6951 C   0  0  0  0  0  0  0  0  0  0  0  0
   49.4184   14.5089   18.1329 C   0  0  0  0  0  0  0  0  0  0  0  0
   49.8808   16.7309   18.7800 F   0  0  0  0  0  0  0  0  0  0  0  0
   53.1003   13.3863   19.5801 F   0  0  0  0  0  0  0  0  0  0  0  0
   57.5828    1.0717   18.9879 C   0  0  0  0  0  0  0  0  0  0  0  0
   53.4561    3.8970   22.0528 H   0  0  0  0  0  0  0  0  0  0  0  0
   52.2541    4.3493   17.9561 H   0  0  0  0  0  0  0  0  0  0  0  0
   51.4879    5.1313   22.7764 H   0  0  0  0  0  0  0  0  0  0  0  0
   55.4871    4.2821   20.9379 H   0  0  0  0  0  0  0  0  0  0  0  0
   55.3790    2.5107   21.0338 H   0  0  0  0  0  0  0  0  0  0  0  0
   56.7357    4.2087   18.8714 H   0  0  0  0  0  0  0  0  0  0  0  0
   57.5717    3.3036   20.1101 H   0  0  0  0  0  0  0  0  0  0  0  0
   55.0822    0.8852   18.8621 H   0  0  0  0  0  0  0  0  0  0  0  0
   55.4202    1.2167   17.1627 H   0  0  0  0  0  0  0  0  0  0  0  0
   54.5346    3.5424   17.4375 H   0  0  0  0  0  0  0  0  0  0  0  0
   53.3524    2.2910   17.8949 H   0  0  0  0  0  0  0  0  0  0  0  0
   50.3813    5.3199   17.4754 H   0  0  0  0  0  0  0  0  0  0  0  0
   48.1843    5.2374   19.4694 H   0  0  0  0  0  0  0  0  0  0  0  0
   48.0711    6.5149   17.0885 H   0  0  0  0  0  0  0  0  0  0  0  0
   46.7229    5.6633   17.8431 H   0  0  0  0  0  0  0  0  0  0  0  0
   48.5980    4.4359   15.7632 H   0  0  0  0  0  0  0  0  0  0  0  0
   46.9530    4.9970   15.4763 H   0  0  0  0  0  0  0  0  0  0  0  0
   46.5477    3.1616   18.5641 H   0  0  0  0  0  0  0  0  0  0  0  0
   47.4133    1.7662   17.9131 H   0  0  0  0  0  0  0  0  0  0  0  0
   48.9192    2.9962   19.4343 H   0  0  0  0  0  0  0  0  0  0  0  0
   49.5089    3.0902   17.7718 H   0  0  0  0  0  0  0  0  0  0  0  0
   49.8409    7.5350   19.7440 H   0  0  0  0  0  0  0  0  0  0  0  0
   45.7471    9.2435   22.2774 H   0  0  0  0  0  0  0  0  0  0  0  0
   49.5712    9.6966   18.5703 H   0  0  0  0  0  0  0  0  0  0  0  0
   46.5892   12.8236   18.8058 H   0  0  0  0  0  0  0  0  0  0  0  0
   45.4504   11.6365   20.6564 H   0  0  0  0  0  0  0  0  0  0  0  0
   48.1325   12.5951   16.8157 H   0  0  0  0  0  0  0  0  0  0  0  0
   49.4325   11.4373   16.8287 H   0  0  0  0  0  0  0  0  0  0  0  0
   51.4178   11.7705   18.4952 H   0  0  0  0  0  0  0  0  0  0  0  0
   52.1845   15.8255   19.6239 H   0  0  0  0  0  0  0  0  0  0  0  0
   48.4423   14.8346   17.7811 H   0  0  0  0  0  0  0  0  0  0  0  0
   58.6056    1.4230   19.1694 H   0  0  0  0  0  0  0  0  0  0  0  0
   57.1981    0.6356   19.9148 H   0  0  0  0  0  0  0  0  0  0  0  0
   57.6545    0.2786   18.2365 H   0  0  0  0  0  0  0  0  0  0  0  0
  1  2  2  0
  1  6  1  0
  2  3  1  0
  3  4  2  0
  4  5  1  0
  5  6  2  0
  2  7  1  0
  7  8  1  0
 12  7  1  0
  8  9  1  0
  9 10  1  0
 10 11  1  0
 11 12  1  0
  4 13  1  0
 13 14  1  0
 14 15  1  0
 19 14  1  0
 15 16  1  0
 16 17  1  0
 17 18  1  0
 18 19  1  0
  5 20  1  0
 20 21  1  0
 20 22  2  0
 21 23  1  0
 23 24  2  0
 23 27  1  0
 24 25  1  0
 25 26  1  0
 31 26  2  0
 26 27  1  0
 27 28  2  0
 28 29  1  0
 29 30  2  0
 30 31  1  0
 29 32  1  0
 32 33  1  0
 33 34  2  0
 33 38  1  0
 34 35  1  0
 35 36  2  0
 36 37  1  0
 37 38  2  0
 37 39  1  0
 35 40  1  0
 10 41  1  0
  1 42  1  0
  3 43  1  0
  6 44  1  0
  8 45  1  0
  8 46  1  0
  9 47  1  0
  9 48  1  0
 11 49  1  0
 11 50  1  0
 12 51  1  0
 12 52  1  0
 13 53  1  0
 14 54  1  0
 15 55  1  0
 15 56  1  0
 16 57  1  0
 16 58  1  0
 18 59  1  0
 18 60  1  0
 19 61  1  0
 19 62  1  0
 21 63  1  0
 25 64  1  0
 28 65  1  0
 30 66  1  0
 31 67  1  0
 32 68  1  0
 32 69  1  0
 34 70  1  0
 36 71  1  0
 38 72  1  0
 41 73  1  0
 41 74  1  0
 41 75  1  0
M  END
> <Uni-Dock RESULT> 
ENERGY=   -4.502  LOWER_BOUND=    6.370  UPPER_BOUND=   10.878
INTER + INTRA:          -4.502
INTER:                  -4.502
INTRA:                   0.000
UNBOUND:                 0.000

$$$$

     RDKit          3D

 75 80  0  0  0  0  0  0  0  0999 V2000
   45.5042    9.3196   12.6040 C   0  0  0  0  0  0  0  0  0  0  0  0
   45.5811   10.5184   11.8833 C   0  0  0  0  0  0  0  0  0  0  0  0
   46.8128   11.1976   11.9269 C   0  0  0  0  0  0  0  0  0  0  0  0
   47.9363   10.7229   12.6415 C   0  0  0  0  0  0  0  0  0  0  0  0
   47.8227    9.4851   13.3013 C   0  0  0  0  0  0  0  0  0  0  0  0
   46.6014    8.8038   13.3010 C   0  0  0  0  0  0  0  0  0  0  0  0
   44.4935   11.0158   11.1846 N   0  0  0  0  0  0  0  0  0  0  0  0
   43.4334   10.1218   10.6842 C   0  0  0  0  0  0  0  0  0  0  0  0
   42.8081   10.6639    9.3760 C   0  0  0  0  0  0  0  0  0  0  0  0
   42.2868   12.0475    9.4270 N   0  0  0  0  0  0  0  0  0  0  0  0
   42.9399   12.8313   10.4985 C   0  0  0  0  0  0  0  0  0  0  0  0
   44.4083   12.4272   10.7676 C   0  0  0  0  0  0  0  0  0  0  0  0
   49.1031   11.5337   12.6554 N   0  0  0  0  0  0  0  0  0  0  0  0
   49.5327   11.9962   14.0044 C   0  0  0  0  0  0  0  0  0  0  0  0
   50.8630   12.7556   13.8663 C   0  0  0  0  0  0  0  0  0  0  0  0
   50.6354   14.2610   13.8534 C   0  0  0  0  0  0  0  0  0  0  0  0
   49.9769   14.7457   15.0244 O   0  0  0  0  0  0  0  0  0  0  0  0
   49.0969   13.8195   15.6649 C   0  0  0  0  0  0  0  0  0  0  0  0
   48.4551   12.8616   14.6762 C   0  0  0  0  0  0  0  0  0  0  0  0
   48.9566    8.8111   13.9952 C   0  0  0  0  0  0  0  0  0  0  0  0
   50.1472    8.8733   13.3054 N   0  0  0  0  0  0  0  0  0  0  0  0
   48.7289    8.2657   15.0698 O   0  0  0  0  0  0  0  0  0  0  0  0
   51.3610    8.3934   13.7523 C   0  0  0  0  0  0  0  0  0  0  0  0
   51.5764    7.8561   14.9538 N   0  0  0  0  0  0  0  0  0  0  0  0
   52.8783    7.5459   14.9578 N   0  0  0  0  0  0  0  0  0  0  0  0
   53.5321    7.8553   13.7980 C   0  0  0  0  0  0  0  0  0  0  0  0
   52.5620    8.4199   12.9781 C   0  0  0  0  0  0  0  0  0  0  0  0
   52.9275    8.8292   11.6789 C   0  0  0  0  0  0  0  0  0  0  0  0
   54.2557    8.6449   11.2419 C   0  0  0  0  0  0  0  0  0  0  0  0
   55.2024    8.0803   12.1113 C   0  0  0  0  0  0  0  0  0  0  0  0
   54.8617    7.6789   13.4070 C   0  0  0  0  0  0  0  0  0  0  0  0
   54.6445    8.9951    9.8218 C   0  0  0  0  0  0  0  0  0  0  0  0
   54.5764    7.8079    8.8883 C   0  0  0  0  0  0  0  0  0  0  0  0
   53.3456    7.3713    8.3727 C   0  0  0  0  0  0  0  0  0  0  0  0
   53.2872    6.2441    7.5559 C   0  0  0  0  0  0  0  0  0  0  0  0
   54.4325    5.5347    7.2261 C   0  0  0  0  0  0  0  0  0  0  0  0
   55.6497    5.9654    7.7331 C   0  0  0  0  0  0  0  0  0  0  0  0
   55.7338    7.0857    8.5596 C   0  0  0  0  0  0  0  0  0  0  0  0
   56.7675    5.2855    7.4368 F   0  0  0  0  0  0  0  0  0  0  0  0
   52.1005    5.8302    7.0987 F   0  0  0  0  0  0  0  0  0  0  0  0
   40.8338   12.0755    9.5788 C   0  0  0  0  0  0  0  0  0  0  0  0
   44.5707    8.7690   12.6622 H   0  0  0  0  0  0  0  0  0  0  0  0
   46.9116   12.1333   11.3842 H   0  0  0  0  0  0  0  0  0  0  0  0
   46.4980    7.8633   13.8396 H   0  0  0  0  0  0  0  0  0  0  0  0
   43.8379    9.1258   10.4596 H   0  0  0  0  0  0  0  0  0  0  0  0
   42.6576   10.0081   11.4531 H   0  0  0  0  0  0  0  0  0  0  0  0
   43.5909   10.6535    8.6048 H   0  0  0  0  0  0  0  0  0  0  0  0
   42.0421    9.9610    9.0223 H   0  0  0  0  0  0  0  0  0  0  0  0
   42.3875   12.7236   11.4415 H   0  0  0  0  0  0  0  0  0  0  0  0
   42.9077   13.8939   10.2282 H   0  0  0  0  0  0  0  0  0  0  0  0
   45.0119   12.5864    9.8654 H   0  0  0  0  0  0  0  0  0  0  0  0
   44.7874   13.0839   11.5610 H   0  0  0  0  0  0  0  0  0  0  0  0
   48.9582   12.3480   12.0519 H   0  0  0  0  0  0  0  0  0  0  0  0
   49.7432   11.1319   14.6432 H   0  0  0  0  0  0  0  0  0  0  0  0
   51.4190   12.4433   12.9741 H   0  0  0  0  0  0  0  0  0  0  0  0
   51.4897   12.5115   14.7356 H   0  0  0  0  0  0  0  0  0  0  0  0
   50.0384   14.5528   12.9820 H   0  0  0  0  0  0  0  0  0  0  0  0
   51.5940   14.7843   13.7754 H   0  0  0  0  0  0  0  0  0  0  0  0
   49.6606   13.2769   16.4319 H   0  0  0  0  0  0  0  0  0  0  0  0
   48.3253   14.4042   16.1751 H   0  0  0  0  0  0  0  0  0  0  0  0
   47.7240   12.2228   15.1881 H   0  0  0  0  0  0  0  0  0  0  0  0
   47.9036   13.4441   13.9246 H   0  0  0  0  0  0  0  0  0  0  0  0
   50.1564    9.3875   12.4330 H   0  0  0  0  0  0  0  0  0  0  0  0
   53.2617    7.1093   15.7892 H   0  0  0  0  0  0  0  0  0  0  0  0
   52.1802    9.2569   11.0153 H   0  0  0  0  0  0  0  0  0  0  0  0
   56.2279    7.9285   11.7756 H   0  0  0  0  0  0  0  0  0  0  0  0
   55.5981    7.2307   14.0663 H   0  0  0  0  0  0  0  0  0  0  0  0
   55.6569    9.4231    9.8173 H   0  0  0  0  0  0  0  0  0  0  0  0
   53.9991    9.7971    9.4398 H   0  0  0  0  0  0  0  0  0  0  0  0
   52.4198    7.8873    8.6105 H   0  0  0  0  0  0  0  0  0  0  0  0
   54.3727    4.6589    6.5933 H   0  0  0  0  0  0  0  0  0  0  0  0
   56.7068    7.3772    8.9481 H   0  0  0  0  0  0  0  0  0  0  0  0
   40.3488   11.5564    8.7434 H   0  0  0  0  0  0  0  0  0  0  0  0
   40.5056   11.6086   10.5124 H   0  0  0  0  0  0  0  0  0  0  0  0
   40.4665   13.1068    9.5603 H   0  0  0  0  0  0  0  0  0  0  0  0
  1  2  2  0
  1  6  1  0
  2  3  1  0
  3  4  2  0
  4  5  1  0
  5  6  2  0
  2  7  1  0
  7  8  1  0
 12  7  1  0
  8  9  1  0
  9 10  1  0
 10 11  1  0
 11 12  1  0
  4 13  1  0
 13 14  1  0
 14 15  1  0
 19 14  1  0
 15 16  1  0
 16 17  1  0
 17 18  1  0
 18 19  1  0
  5 20  1  0
 20 21  1  0
 20 22  2  0
 21 23  1  0
 23 24  2  0
 23 27  1  0
 24 25  1  0
 25 26  1  0
 31 26  2  0
 26 27  1  0
 27 28  2  0
 28 29  1  0
 29 30  2  0
 30 31  1  0
 29 32  1  0
 32 33  1  0
 33 34  2  0
 33 38  1  0
 34 35  1  0
 35 36  2  0
 36 37  1  0
 37 38  2  0
 37 39  1  0
 35 40  1  0
 10 41  1  0
  1 42  1  0
  3 43  1  0
  6 44  1  0
  8 45  1  0
  8 46  1  0
  9 47  1  0
  9 48  1  0
 11 49  1  0
 11 50  1  0
 12 51  1  0
 12 52  1  0
 13 53  1  0
 14 54  1  0
 15 55  1  0
 15 56  1  0
 16 57  1  0
 16 58  1  0
 18 59  1  0
 18 60  1  0
 19 61  1  0
 19 62  1  0
 21 63  1  0
 25 64  1  0
 28 65  1  0
 30 66  1  0
 31 67  1  0
 32 68  1  0
 32 69  1  0
 34 70  1  0
 36 71  1  0
 38 72  1  0
 41 73  1  0
 41 74  1  0
 41 75  1  0
M  END
> <Uni-Dock RESULT> 
ENERGY=   -4.487  LOWER_BOUND=    5.879  UPPER_BOUND=    8.699
INTER + INTRA:          -4.487
INTER:                  -4.487
INTRA:                   0.000
UNBOUND:                 0.000

$$$$

     RDKit          3D

 75 80  0  0  0  0  0  0  0  0999 V2000
   45.5002    9.3362   12.5862 C   0  0  0  0  0  0  0  0  0  0  0  0
   45.5800   10.5355   11.8668 C   0  0  0  0  0  0  0  0  0  0  0  0
   46.8122   11.2135   11.9138 C   0  0  0  0  0  0  0  0  0  0  0  0
   47.9336   10.7371   12.6307 C   0  0  0  0  0  0  0  0  0  0  0  0
   47.8173    9.4987   13.2891 C   0  0  0  0  0  0  0  0  0  0  0  0
   46.5953    8.8186   13.2853 C   0  0  0  0  0  0  0  0  0  0  0  0
   44.4945   11.0346   11.1659 N   0  0  0  0  0  0  0  0  0  0  0  0
   43.4347   10.1422   10.6623 C   0  0  0  0  0  0  0  0  0  0  0  0
   42.8130   10.6861    9.3530 C   0  0  0  0  0  0  0  0  0  0  0  0
   42.2930   12.0701    9.4041 N   0  0  0  0  0  0  0  0  0  0  0  0
   42.9443   12.8523   10.4779 C   0  0  0  0  0  0  0  0  0  0  0  0
   44.4117   12.4465   10.7500 C   0  0  0  0  0  0  0  0  0  0  0  0
   49.1011   11.5467   12.6481 N   0  0  0  0  0  0  0  0  0  0  0  0
   49.5280   12.0075   13.9986 C   0  0  0  0  0  0  0  0  0  0  0  0
   50.8593   12.7658   13.8642 C   0  0  0  0  0  0  0  0  0  0  0  0
   50.6333   14.2714   13.8522 C   0  0  0  0  0  0  0  0  0  0  0  0
   49.9725   14.7557   15.0221 O   0  0  0  0  0  0  0  0  0  0  0  0
   49.0900   13.8297   15.6596 C   0  0  0  0  0  0  0  0  0  0  0  0
   48.4496   12.8734   14.6686 C   0  0  0  0  0  0  0  0  0  0  0  0
   48.9488    8.8230   13.9851 C   0  0  0  0  0  0  0  0  0  0  0  0
   50.1411    8.8847   13.2982 N   0  0  0  0  0  0  0  0  0  0  0  0
   48.7180    8.2769   15.0586 O   0  0  0  0  0  0  0  0  0  0  0  0
   51.3533    8.4032   13.7474 C   0  0  0  0  0  0  0  0  0  0  0  0
   51.5654    7.8645   14.9490 N   0  0  0  0  0  0  0  0  0  0  0  0
   52.8670    7.5531   14.9558 N   0  0  0  0  0  0  0  0  0  0  0  0
   53.5238    7.8630   13.7978 C   0  0  0  0  0  0  0  0  0  0  0  0
   52.5563    8.4292   12.9761 C   0  0  0  0  0  0  0  0  0  0  0  0
   52.9252    8.8393   11.6782 C   0  0  0  0  0  0  0  0  0  0  0  0
   54.2543    8.6542   11.2441 C   0  0  0  0  0  0  0  0  0  0  0  0
   55.1984    8.0878   12.1152 C   0  0  0  0  0  0  0  0  0  0  0  0
   54.8542    7.6855   13.4098 C   0  0  0  0  0  0  0  0  0  0  0  0
   54.6468    9.0053    9.8253 C   0  0  0  0  0  0  0  0  0  0  0  0
   54.5796    7.8190    8.8906 C   0  0  0  0  0  0  0  0  0  0  0  0
   53.3497    7.3840    8.3717 C   0  0  0  0  0  0  0  0  0  0  0  0
   53.2920    6.2576    7.5536 C   0  0  0  0  0  0  0  0  0  0  0  0
   54.4374    5.5473    7.2260 C   0  0  0  0  0  0  0  0  0  0  0  0
   55.6539    5.9765    7.7362 C   0  0  0  0  0  0  0  0  0  0  0  0
   55.7371    7.0959    8.5639 C   0  0  0  0  0  0  0  0  0  0  0  0
   56.7717    5.2957    7.4419 F   0  0  0  0  0  0  0  0  0  0  0  0
   52.1060    5.8453    7.0933 F   0  0  0  0  0  0  0  0  0  0  0  0
   40.8397   12.0993    9.5525 C   0  0  0  0  0  0  0  0  0  0  0  0
   44.5661    8.7864   12.6417 H   0  0  0  0  0  0  0  0  0  0  0  0
   46.9132   12.1496   11.3723 H   0  0  0  0  0  0  0  0  0  0  0  0
   46.4896    7.8777   13.8228 H   0  0  0  0  0  0  0  0  0  0  0  0
   43.8388    9.1460   10.4377 H   0  0  0  0  0  0  0  0  0  0  0  0
   42.6570   10.0285   11.4292 H   0  0  0  0  0  0  0  0  0  0  0  0
   43.5976   10.6756    8.5837 H   0  0  0  0  0  0  0  0  0  0  0  0
   42.0472    9.9842    8.9969 H   0  0  0  0  0  0  0  0  0  0  0  0
   42.3896   12.7442   11.4194 H   0  0  0  0  0  0  0  0  0  0  0  0
   42.9138   13.9151   10.2085 H   0  0  0  0  0  0  0  0  0  0  0  0
   45.0175   12.6059    9.8495 H   0  0  0  0  0  0  0  0  0  0  0  0
   44.7896   13.1021   11.5450 H   0  0  0  0  0  0  0  0  0  0  0  0
   48.9585   12.3616   12.0450 H   0  0  0  0  0  0  0  0  0  0  0  0
   49.7362   11.1425   14.6371 H   0  0  0  0  0  0  0  0  0  0  0  0
   51.4171   12.4537   12.9731 H   0  0  0  0  0  0  0  0  0  0  0  0
   51.4838   12.5202   14.7348 H   0  0  0  0  0  0  0  0  0  0  0  0
   50.0386   14.5645   12.9796 H   0  0  0  0  0  0  0  0  0  0  0  0
   51.5926   14.7939   13.7769 H   0  0  0  0  0  0  0  0  0  0  0  0
   49.6515   13.2859   16.4275 H   0  0  0  0  0  0  0  0  0  0  0  0
   48.3178   14.4148   16.1686 H   0  0  0  0  0  0  0  0  0  0  0  0
   47.7167   12.2348   15.1782 H   0  0  0  0  0  0  0  0  0  0  0  0
   47.9005   13.4571   13.9162 H   0  0  0  0  0  0  0  0  0  0  0  0
   50.1528    9.3996   12.4262 H   0  0  0  0  0  0  0  0  0  0  0  0
   53.2480    7.1153   15.7876 H   0  0  0  0  0  0  0  0  0  0  0  0
   52.1799    9.2684   11.0132 H   0  0  0  0  0  0  0  0  0  0  0  0
   56.2245    7.9353   11.7818 H   0  0  0  0  0  0  0  0  0  0  0  0
   55.5886    7.2361   14.0704 H   0  0  0  0  0  0  0  0  0  0  0  0
   55.6595    9.4322    9.8236 H   0  0  0  0  0  0  0  0  0  0  0  0
   54.0030    9.8082    9.4424 H   0  0  0  0  0  0  0  0  0  0  0  0
   52.4238    7.9007    8.6077 H   0  0  0  0  0  0  0  0  0  0  0  0
   54.3783    4.6723    6.5921 H   0  0  0  0  0  0  0  0  0  0  0  0
   56.7095    7.3861    8.9550 H   0  0  0  0  0  0  0  0  0  0  0  0
   40.3561   11.5815    8.7155 H   0  0  0  0  0  0  0  0  0  0  0  0
   40.5088   11.6320   10.4850 H   0  0  0  0  0  0  0  0  0  0  0  0
   40.4734   13.1310    9.5341 H   0  0  0  0  0  0  0  0  0  0  0  0
  1  2  2  0
  1  6  1  0
  2  3  1  0
  3  4  2  0
  4  5  1  0
  5  6  2  0
  2  7  1  0
  7  8  1  0
 12  7  1  0
  8  9  1  0
  9 10  1  0
 10 11  1  0
 11 12  1  0
  4 13  1  0
 13 14  1  0
 14 15  1  0
 19 14  1  0
 15 16  1  0
 16 17  1  0
 17 18  1  0
 18 19  1  0
  5 20  1  0
 20 21  1  0
 20 22  2  0
 21 23  1  0
 23 24  2  0
 23 27  1  0
 24 25  1  0
 25 26  1  0
 31 26  2  0
 26 27  1  0
 27 28  2  0
 28 29  1  0
 29 30  2  0
 30 31  1  0
 29 32  1  0
 32 33  1  0
 33 34  2  0
 33 38  1  0
 34 35  1  0
 35 36  2  0
 36 37  1  0
 37 38  2  0
 37 39  1  0
 35 40  1  0
 10 41  1  0
  1 42  1  0
  3 43  1  0
  6 44  1  0
  8 45  1  0
  8 46  1  0
  9 47  1  0
  9 48  1  0
 11 49  1  0
 11 50  1  0
 12 51  1  0
 12 52  1  0
 13 53  1  0
 14 54  1  0
 15 55  1  0
 15 56  1  0
 16 57  1  0
 16 58  1  0
 18 59  1  0
 18 60  1  0
 19 61  1  0
 19 62  1  0
 21 63  1  0
 25 64  1  0
 28 65  1  0
 30 66  1  0
 31 67  1  0
 32 68  1  0
 32 69  1  0
 34 70  1  0
 36 71  1  0
 38 72  1  0
 41 73  1  0
 41 74  1  0
 41 75  1  0
M  END
> <Uni-Dock RESULT> 
ENERGY=   -4.487  LOWER_BOUND=    5.879  UPPER_BOUND=    8.698
INTER + INTRA:          -4.487
INTER:                  -4.487
INTRA:                   0.000
UNBOUND:                 0.000

$$$$

     RDKit          3D

 75 80  0  0  0  0  0  0  0  0999 V2000
   48.4999   14.7089   13.8820 C   0  0  0  0  0  0  0  0  0  0  0  0
   49.8773   14.5102   13.7219 C   0  0  0  0  0  0  0  0  0  0  0  0
   50.5516   13.9017   14.7968 C   0  0  0  0  0  0  0  0  0  0  0  0
   49.9064   13.4921   15.9861 C   0  0  0  0  0  0  0  0  0  0  0  0
   48.5121   13.6630   16.0718 C   0  0  0  0  0  0  0  0  0  0  0  0
   47.8212   14.2933   15.0320 C   0  0  0  0  0  0  0  0  0  0  0  0
   50.5398   14.9128   12.5740 N   0  0  0  0  0  0  0  0  0  0  0  0
   49.8322   15.0336   11.2864 C   0  0  0  0  0  0  0  0  0  0  0  0
   50.7703   14.7226   10.0949 C   0  0  0  0  0  0  0  0  0  0  0  0
   52.0240   15.5052   10.0306 N   0  0  0  0  0  0  0  0  0  0  0  0
   52.4106   16.0160   11.3643 C   0  0  0  0  0  0  0  0  0  0  0  0
   52.0027   15.0908   12.5346 C   0  0  0  0  0  0  0  0  0  0  0  0
   50.7113   12.9450   17.0213 N   0  0  0  0  0  0  0  0  0  0  0  0
   50.6902   13.7033   18.3030 C   0  0  0  0  0  0  0  0  0  0  0  0
   51.5075   12.9277   19.3499 C   0  0  0  0  0  0  0  0  0  0  0  0
   52.9105   13.5033   19.4857 C   0  0  0  0  0  0  0  0  0  0  0  0
   52.9248   14.8825   19.8566 O   0  0  0  0  0  0  0  0  0  0  0  0
   51.7953   15.6473   19.4304 C   0  0  0  0  0  0  0  0  0  0  0  0
   51.2173   15.1355   18.1224 C   0  0  0  0  0  0  0  0  0  0  0  0
   47.6882   13.1753   17.2140 C   0  0  0  0  0  0  0  0  0  0  0  0
   48.0403   11.9199   17.6582 N   0  0  0  0  0  0  0  0  0  0  0  0
   46.7915   13.9032   17.6265 O   0  0  0  0  0  0  0  0  0  0  0  0
   47.4880   11.2659   18.7400 C   0  0  0  0  0  0  0  0  0  0  0  0
   46.5738   11.7829   19.5621 N   0  0  0  0  0  0  0  0  0  0  0  0
   46.3393   10.8170   20.4584 N   0  0  0  0  0  0  0  0  0  0  0  0
   47.0638    9.6759   20.2556 C   0  0  0  0  0  0  0  0  0  0  0  0
   47.8367    9.9359   19.1300 C   0  0  0  0  0  0  0  0  0  0  0  0
   48.6908    8.9234   18.6459 C   0  0  0  0  0  0  0  0  0  0  0  0
   48.7297    7.6762   19.3032 C   0  0  0  0  0  0  0  0  0  0  0  0
   47.9384    7.4655   20.4435 C   0  0  0  0  0  0  0  0  0  0  0  0
   47.0940    8.4612   20.9453 C   0  0  0  0  0  0  0  0  0  0  0  0
   49.5719    6.5490   18.7461 C   0  0  0  0  0  0  0  0  0  0  0  0
   48.7852    5.6213   17.8483 C   0  0  0  0  0  0  0  0  0  0  0  0
   48.5033    5.9779   16.5199 C   0  0  0  0  0  0  0  0  0  0  0  0
   47.7323    5.1401   15.7168 C   0  0  0  0  0  0  0  0  0  0  0  0
   47.2343    3.9392   16.2001 C   0  0  0  0  0  0  0  0  0  0  0  0
   47.5131    3.5841   17.5118 C   0  0  0  0  0  0  0  0  0  0  0  0
   48.2754    4.4092   18.3384 C   0  0  0  0  0  0  0  0  0  0  0  0
   47.0298    2.4330   18.0024 F   0  0  0  0  0  0  0  0  0  0  0  0
   47.4532    5.5131   14.4632 F   0  0  0  0  0  0  0  0  0  0  0  0
   51.9333   16.5983    9.0652 C   0  0  0  0  0  0  0  0  0  0  0  0
   47.9234   15.2217   13.1188 H   0  0  0  0  0  0  0  0  0  0  0  0
   51.6215   13.7340   14.7133 H   0  0  0  0  0  0  0  0  0  0  0  0
   46.7481   14.4600   15.1085 H   0  0  0  0  0  0  0  0  0  0  0  0
   48.9968   14.3228   11.2331 H   0  0  0  0  0  0  0  0  0  0  0  0
   49.4224   16.0477   11.1879 H   0  0  0  0  0  0  0  0  0  0  0  0
   51.0650   13.6667   10.1715 H   0  0  0  0  0  0  0  0  0  0  0  0
   50.2029   14.7989    9.1578 H   0  0  0  0  0  0  0  0  0  0  0  0
   51.9552   16.9990   11.5436 H   0  0  0  0  0  0  0  0  0  0  0  0
   53.4980   16.1581   11.3862 H   0  0  0  0  0  0  0  0  0  0  0  0
   52.4941   14.1156   12.4299 H   0  0  0  0  0  0  0  0  0  0  0  0
   52.3557   15.5614   13.4611 H   0  0  0  0  0  0  0  0  0  0  0  0
   51.6782   12.8658   16.6941 H   0  0  0  0  0  0  0  0  0  0  0  0
   49.6671   13.7478   18.6910 H   0  0  0  0  0  0  0  0  0  0  0  0
   51.5522   11.8565   19.1190 H   0  0  0  0  0  0  0  0  0  0  0  0
   51.0020   13.0248   20.3211 H   0  0  0  0  0  0  0  0  0  0  0  0
   53.4625   13.3983   18.5449 H   0  0  0  0  0  0  0  0  0  0  0  0
   53.4695   12.9522   20.2490 H   0  0  0  0  0  0  0  0  0  0  0  0
   51.0437   15.6322   20.2275 H   0  0  0  0  0  0  0  0  0  0  0  0
   52.1298   16.6827   19.3127 H   0  0  0  0  0  0  0  0  0  0  0  0
   50.4082   15.7945   17.7824 H   0  0  0  0  0  0  0  0  0  0  0  0
   52.0014   15.1642   17.3525 H   0  0  0  0  0  0  0  0  0  0  0  0
   48.8274   11.4681   17.2087 H   0  0  0  0  0  0  0  0  0  0  0  0
   45.6563   10.9978   21.1862 H   0  0  0  0  0  0  0  0  0  0  0  0
   49.2906    9.1000   17.7566 H   0  0  0  0  0  0  0  0  0  0  0  0
   47.9589    6.5011   20.9501 H   0  0  0  0  0  0  0  0  0  0  0  0
   46.4760    8.2832   21.8195 H   0  0  0  0  0  0  0  0  0  0  0  0
   50.0182    5.9842   19.5766 H   0  0  0  0  0  0  0  0  0  0  0  0
   50.4278    6.9550   18.1907 H   0  0  0  0  0  0  0  0  0  0  0  0
   48.8622    6.9127   16.0988 H   0  0  0  0  0  0  0  0  0  0  0  0
   46.6340    3.2991   15.5668 H   0  0  0  0  0  0  0  0  0  0  0  0
   48.4547    4.0990   19.3652 H   0  0  0  0  0  0  0  0  0  0  0  0
   51.7190   16.2101    8.0622 H   0  0  0  0  0  0  0  0  0  0  0  0
   51.1550   17.3208    9.3292 H   0  0  0  0  0  0  0  0  0  0  0  0
   52.8885   17.1290    8.9965 H   0  0  0  0  0  0  0  0  0  0  0  0
  1  2  2  0
  1  6  1  0
  2  3  1  0
  3  4  2  0
  4  5  1  0
  5  6  2  0
  2  7  1  0
  7  8  1  0
 12  7  1  0
  8  9  1  0
  9 10  1  0
 10 11  1  0
 11 12  1  0
  4 13  1  0
 13 14  1  0
 14 15  1  0
 19 14  1  0
 15 16  1  0
 16 17  1  0
 17 18  1  0
 18 19  1  0
  5 20  1  0
 20 21  1  0
 20 22  2  0
 21 23  1  0
 23 24  2  0
 23 27  1  0
 24 25  1  0
 25 26  1  0
 31 26  2  0
 26 27  1  0
 27 28  2  0
 28 29  1  0
 29 30  2  0
 30 31  1  0
 29 32  1  0
 32 33  1  0
 33 34  2  0
 33 38  1  0
 34 35  1  0
 35 36  2  0
 36 37  1  0
 37 38  2  0
 37 39  1  0
 35 40  1  0
 10 41  1  0
  1 42  1  0
  3 43  1  0
  6 44  1  0
  8 45  1  0
  8 46  1  0
  9 47  1  0
  9 48  1  0
 11 49  1  0
 11 50  1  0
 12 51  1  0
 12 52  1  0
 13 53  1  0
 14 54  1  0
 15 55  1  0
 15 56  1  0
 16 57  1  0
 16 58  1  0
 18 59  1  0
 18 60  1  0
 19 61  1  0
 19 62  1  0
 21 63  1  0
 25 64  1  0
 28 65  1  0
 30 66  1  0
 31 67  1  0
 32 68  1  0
 32 69  1  0
 34 70  1  0
 36 71  1  0
 38 72  1  0
 41 73  1  0
 41 74  1  0
 41 75  1  0
M  END
> <Uni-Dock RESULT> 
ENERGY=   -4.451  LOWER_BOUND=    5.801  UPPER_BOUND=    8.505
INTER + INTRA:          -4.451
INTER:                  -4.451
INTRA:                   0.000
UNBOUND:                 0.000

$$$$

     RDKit          3D

 75 80  0  0  0  0  0  0  0  0999 V2000
   48.8574   10.2907   18.0561 C   0  0  0  0  0  0  0  0  0  0  0  0
   49.6006   10.6252   19.1954 C   0  0  0  0  0  0  0  0  0  0  0  0
   50.0417    9.5529   19.9929 C   0  0  0  0  0  0  0  0  0  0  0  0
   49.7758    8.1983   19.6883 C   0  0  0  0  0  0  0  0  0  0  0  0
   49.0741    7.9151   18.5018 C   0  0  0  0  0  0  0  0  0  0  0  0
   48.5966    8.9619   17.7068 C   0  0  0  0  0  0  0  0  0  0  0  0
   49.8659   11.9436   19.5273 N   0  0  0  0  0  0  0  0  0  0  0  0
   49.9042   12.9976   18.4973 C   0  0  0  0  0  0  0  0  0  0  0  0
   50.9080   14.1156   18.8699 C   0  0  0  0  0  0  0  0  0  0  0  0
   50.7207   14.7446   20.1958 N   0  0  0  0  0  0  0  0  0  0  0  0
   49.9974   13.8460   21.1223 C   0  0  0  0  0  0  0  0  0  0  0  0
   50.2754   12.3431   20.8860 C   0  0  0  0  0  0  0  0  0  0  0  0
   50.2254    7.2125   20.6075 N   0  0  0  0  0  0  0  0  0  0  0  0
   49.1497    6.3810   21.2156 C   0  0  0  0  0  0  0  0  0  0  0  0
   49.7989    5.2931   22.0876 C   0  0  0  0  0  0  0  0  0  0  0  0
   49.7842    5.6886   23.5579 C   0  0  0  0  0  0  0  0  0  0  0  0
   48.4721    5.9298   24.0677 O   0  0  0  0  0  0  0  0  0  0  0  0
   47.5167    6.3992   23.1141 C   0  0  0  0  0  0  0  0  0  0  0  0
   48.1604    7.2364   22.0226 C   0  0  0  0  0  0  0  0  0  0  0  0
   48.8236    6.5346   17.9989 C   0  0  0  0  0  0  0  0  0  0  0  0
   49.9067    5.6925   18.1218 N   0  0  0  0  0  0  0  0  0  0  0  0
   47.7210    6.2893   17.5213 O   0  0  0  0  0  0  0  0  0  0  0  0
   49.9226    4.3512   17.7996 C   0  0  0  0  0  0  0  0  0  0  0  0
   48.8663    3.6513   17.3832 N   0  0  0  0  0  0  0  0  0  0  0  0
   49.3324    2.4098   17.2027 N   0  0  0  0  0  0  0  0  0  0  0  0
   50.6626    2.2641   17.4811 C   0  0  0  0  0  0  0  0  0  0  0  0
   51.0865    3.5259   17.8813 C   0  0  0  0  0  0  0  0  0  0  0  0
   52.4433    3.7092   18.2195 C   0  0  0  0  0  0  0  0  0  0  0  0
   53.3333    2.6186   18.1314 C   0  0  0  0  0  0  0  0  0  0  0  0
   52.8549    1.3604   17.7328 C   0  0  0  0  0  0  0  0  0  0  0  0
   51.5107    1.1564   17.4045 C   0  0  0  0  0  0  0  0  0  0  0  0
   54.8087    2.8172   18.4037 C   0  0  0  0  0  0  0  0  0  0  0  0
   55.6047    3.0769   17.1449 C   0  0  0  0  0  0  0  0  0  0  0  0
   55.6114    4.3489   16.5508 C   0  0  0  0  0  0  0  0  0  0  0  0
   56.3051    4.5645   15.3618 C   0  0  0  0  0  0  0  0  0  0  0  0
   57.0078    3.5410   14.7434 C   0  0  0  0  0  0  0  0  0  0  0  0
   57.0038    2.2838   15.3297 C   0  0  0  0  0  0  0  0  0  0  0  0
   56.3104    2.0403   16.5151 C   0  0  0  0  0  0  0  0  0  0  0  0
   57.6664    1.2771   14.7406 F   0  0  0  0  0  0  0  0  0  0  0  0
   56.2747    5.7773   14.7991 F   0  0  0  0  0  0  0  0  0  0  0  0
   50.0433   16.0353   20.0940 C   0  0  0  0  0  0  0  0  0  0  0  0
   48.4371   11.0660   17.4235 H   0  0  0  0  0  0  0  0  0  0  0  0
   50.6177    9.7709   20.8876 H   0  0  0  0  0  0  0  0  0  0  0  0
   48.0225    8.7491   16.8066 H   0  0  0  0  0  0  0  0  0  0  0  0
   50.2243   12.5860   17.5307 H   0  0  0  0  0  0  0  0  0  0  0  0
   48.8992   13.4214   18.3700 H   0  0  0  0  0  0  0  0  0  0  0  0
   51.9130   13.6712   18.8745 H   0  0  0  0  0  0  0  0  0  0  0  0
   50.9262   14.8675   18.0698 H   0  0  0  0  0  0  0  0  0  0  0  0
   48.9136   14.0009   21.0367 H   0  0  0  0  0  0  0  0  0  0  0  0
   50.2770   14.1013   22.1518 H   0  0  0  0  0  0  0  0  0  0  0  0
   51.3421   12.1321   21.0309 H   0  0  0  0  0  0  0  0  0  0  0  0
   49.7041   11.7833   21.6375 H   0  0  0  0  0  0  0  0  0  0  0  0
   50.7631    7.6632   21.3531 H   0  0  0  0  0  0  0  0  0  0  0  0
   48.6016    5.8508   20.4296 H   0  0  0  0  0  0  0  0  0  0  0  0
   50.8209    5.0660   21.7609 H   0  0  0  0  0  0  0  0  0  0  0  0
   49.2145    4.3690   21.9757 H   0  0  0  0  0  0  0  0  0  0  0  0
   50.3834    6.5917   23.7197 H   0  0  0  0  0  0  0  0  0  0  0  0
   50.2311    4.8940   24.1643 H   0  0  0  0  0  0  0  0  0  0  0  0
   46.9925    5.5346   22.6918 H   0  0  0  0  0  0  0  0  0  0  0  0
   46.7799    6.9969   23.6596 H   0  0  0  0  0  0  0  0  0  0  0  0
   47.3905    7.6493   21.3583 H   0  0  0  0  0  0  0  0  0  0  0  0
   48.6764    8.0889   22.4868 H   0  0  0  0  0  0  0  0  0  0  0  0
   50.7396    6.0626   18.5633 H   0  0  0  0  0  0  0  0  0  0  0  0
   48.6858    1.7012   16.8731 H   0  0  0  0  0  0  0  0  0  0  0  0
   52.7993    4.6920   18.5182 H   0  0  0  0  0  0  0  0  0  0  0  0
   53.5400    0.5167   17.6554 H   0  0  0  0  0  0  0  0  0  0  0  0
   51.1540    0.1828   17.0842 H   0  0  0  0  0  0  0  0  0  0  0  0
   55.2036    1.9348   18.9265 H   0  0  0  0  0  0  0  0  0  0  0  0
   54.9552    3.6486   19.1060 H   0  0  0  0  0  0  0  0  0  0  0  0
   55.0680    5.1799   16.9913 H   0  0  0  0  0  0  0  0  0  0  0  0
   57.5397    3.7210   13.8184 H   0  0  0  0  0  0  0  0  0  0  0  0
   56.3208    1.0351   16.9300 H   0  0  0  0  0  0  0  0  0  0  0  0
   50.6196   16.7246   19.4652 H   0  0  0  0  0  0  0  0  0  0  0  0
   49.0374   15.9434   19.6732 H   0  0  0  0  0  0  0  0  0  0  0  0
   49.9640   16.5051   21.0798 H   0  0  0  0  0  0  0  0  0  0  0  0
  1  2  2  0
  1  6  1  0
  2  3  1  0
  3  4  2  0
  4  5  1  0
  5  6  2  0
  2  7  1  0
  7  8  1  0
 12  7  1  0
  8  9  1  0
  9 10  1  0
 10 11  1  0
 11 12  1  0
  4 13  1  0
 13 14  1  0
 14 15  1  0
 19 14  1  0
 15 16  1  0
 16 17  1  0
 17 18  1  0
 18 19  1  0
  5 20  1  0
 20 21  1  0
 20 22  2  0
 21 23  1  0
 23 24  2  0
 23 27  1  0
 24 25  1  0
 25 26  1  0
 31 26  2  0
 26 27  1  0
 27 28  2  0
 28 29  1  0
 29 30  2  0
 30 31  1  0
 29 32  1  0
 32 33  1  0
 33 34  2  0
 33 38  1  0
 34 35  1  0
 35 36  2  0
 36 37  1  0
 37 38  2  0
 37 39  1  0
 35 40  1  0
 10 41  1  0
  1 42  1  0
  3 43  1  0
  6 44  1  0
  8 45  1  0
  8 46  1  0
  9 47  1  0
  9 48  1  0
 11 49  1  0
 11 50  1  0
 12 51  1  0
 12 52  1  0
 13 53  1  0
 14 54  1  0
 15 55  1  0
 15 56  1  0
 16 57  1  0
 16 58  1  0
 18 59  1  0
 18 60  1  0
 19 61  1  0
 19 62  1  0
 21 63  1  0
 25 64  1  0
 28 65  1  0
 30 66  1  0
 31 67  1  0
 32 68  1  0
 32 69  1  0
 34 70  1  0
 36 71  1  0
 38 72  1  0
 41 73  1  0
 41 74  1  0
 41 75  1  0
M  END
> <Uni-Dock RESULT> 
ENERGY=   -4.433  LOWER_BOUND=    7.022  UPPER_BOUND=   10.100
INTER + INTRA:          -4.433
INTER:                  -4.433
INTRA:                   0.000
UNBOUND:                 0.000

$$$$

     RDKit          3D

 75 80  0  0  0  0  0  0  0  0999 V2000
   48.1137   13.0357   17.5060 C   0  0  0  0  0  0  0  0  0  0  0  0
   49.0545   13.1520   16.4748 C   0  0  0  0  0  0  0  0  0  0  0  0
   49.7824   11.9904   16.1567 C   0  0  0  0  0  0  0  0  0  0  0  0
   49.5960   10.7530   16.8145 C   0  0  0  0  0  0  0  0  0  0  0  0
   48.5982   10.6765   17.8039 C   0  0  0  0  0  0  0  0  0  0  0  0
   47.8815   11.8227   18.1622 C   0  0  0  0  0  0  0  0  0  0  0  0
   49.2691   14.3541   15.8207 N   0  0  0  0  0  0  0  0  0  0  0  0
   48.2130   15.3795   15.7415 C   0  0  0  0  0  0  0  0  0  0  0  0
   48.3184   16.1991   14.4324 C   0  0  0  0  0  0  0  0  0  0  0  0
   49.6274   16.8343   14.1645 N   0  0  0  0  0  0  0  0  0  0  0  0
   50.7219   16.1351   14.8732 C   0  0  0  0  0  0  0  0  0  0  0  0
   50.4925   14.6148   15.0406 C   0  0  0  0  0  0  0  0  0  0  0  0
   50.4375    9.6710   16.4403 N   0  0  0  0  0  0  0  0  0  0  0  0
   51.2933    9.1314   17.5333 C   0  0  0  0  0  0  0  0  0  0  0  0
   52.0504    7.9006   17.0066 C   0  0  0  0  0  0  0  0  0  0  0  0
   53.4730    8.2637   16.6036 C   0  0  0  0  0  0  0  0  0  0  0  0
   54.2401    8.8231   17.6706 O   0  0  0  0  0  0  0  0  0  0  0  0
   53.4933    9.5351   18.6595 C   0  0  0  0  0  0  0  0  0  0  0  0
   52.2571   10.1978   18.0769 C   0  0  0  0  0  0  0  0  0  0  0  0
   48.2160    9.4133   18.4965 C   0  0  0  0  0  0  0  0  0  0  0  0
   48.1396    8.3214   17.6603 N   0  0  0  0  0  0  0  0  0  0  0  0
   47.9940    9.4643   19.7015 O   0  0  0  0  0  0  0  0  0  0  0  0
   47.8755    7.0254   18.0528 C   0  0  0  0  0  0  0  0  0  0  0  0
   47.7217    6.6241   19.3154 N   0  0  0  0  0  0  0  0  0  0  0  0
   47.4963    5.3078   19.2274 N   0  0  0  0  0  0  0  0  0  0  0  0
   47.4911    4.8239   17.9492 C   0  0  0  0  0  0  0  0  0  0  0  0
   47.7410    5.9298   17.1450 C   0  0  0  0  0  0  0  0  0  0  0  0
   47.7753    5.7563   15.7459 C   0  0  0  0  0  0  0  0  0  0  0  0
   47.5439    4.4766   15.2001 C   0  0  0  0  0  0  0  0  0  0  0  0
   47.3070    3.3880   16.0543 C   0  0  0  0  0  0  0  0  0  0  0  0
   47.2805    3.5381   17.4447 C   0  0  0  0  0  0  0  0  0  0  0  0
   47.4880    4.2887   13.6994 C   0  0  0  0  0  0  0  0  0  0  0  0
   46.0794    4.3567   13.1547 C   0  0  0  0  0  0  0  0  0  0  0  0
   45.4468    5.5943   12.9561 C   0  0  0  0  0  0  0  0  0  0  0  0
   44.1298    5.6447   12.5041 C   0  0  0  0  0  0  0  0  0  0  0  0
   43.4178    4.4858   12.2325 C   0  0  0  0  0  0  0  0  0  0  0  0
   44.0416    3.2620   12.4264 C   0  0  0  0  0  0  0  0  0  0  0  0
   45.3561    3.1846   12.8860 C   0  0  0  0  0  0  0  0  0  0  0  0
   43.3660    2.1292   12.1820 F   0  0  0  0  0  0  0  0  0  0  0  0
   43.5381    6.8339   12.3486 F   0  0  0  0  0  0  0  0  0  0  0  0
   49.6202   18.2563   14.5004 C   0  0  0  0  0  0  0  0  0  0  0  0
   47.5543   13.9022   17.8438 H   0  0  0  0  0  0  0  0  0  0  0  0
   50.5246   12.0405   15.3653 H   0  0  0  0  0  0  0  0  0  0  0  0
   47.1333   11.7771   18.9518 H   0  0  0  0  0  0  0  0  0  0  0  0
   47.2178   14.9152   15.7517 H   0  0  0  0  0  0  0  0  0  0  0  0
   48.2854   16.0472   16.6103 H   0  0  0  0  0  0  0  0  0  0  0  0
   48.1271   15.5135   13.5953 H   0  0  0  0  0  0  0  0  0  0  0  0
   47.5032   16.9340   14.3985 H   0  0  0  0  0  0  0  0  0  0  0  0
   50.8625   16.5621   15.8751 H   0  0  0  0  0  0  0  0  0  0  0  0
   51.6572   16.2947   14.3230 H   0  0  0  0  0  0  0  0  0  0  0  0
   50.4156   14.1370   14.0561 H   0  0  0  0  0  0  0  0  0  0  0  0
   51.3702   14.2072   15.5583 H   0  0  0  0  0  0  0  0  0  0  0  0
   51.0330    9.9582   15.6586 H   0  0  0  0  0  0  0  0  0  0  0  0
   50.6638    8.7706   18.3536 H   0  0  0  0  0  0  0  0  0  0  0  0
   51.5232    7.4259   16.1703 H   0  0  0  0  0  0  0  0  0  0  0  0
   52.1026    7.1576   17.8149 H   0  0  0  0  0  0  0  0  0  0  0  0
   53.4673    8.9819   15.7759 H   0  0  0  0  0  0  0  0  0  0  0  0
   54.0019    7.3722   16.2513 H   0  0  0  0  0  0  0  0  0  0  0  0
   53.2273    8.8392   19.4630 H   0  0  0  0  0  0  0  0  0  0  0  0
   54.1586   10.2921   19.0863 H   0  0  0  0  0  0  0  0  0  0  0  0
   51.7557   10.8035   18.8426 H   0  0  0  0  0  0  0  0  0  0  0  0
   52.5664   10.8834   17.2752 H   0  0  0  0  0  0  0  0  0  0  0  0
   48.3786    8.4602   16.6861 H   0  0  0  0  0  0  0  0  0  0  0  0
   47.3405    4.7925   20.0871 H   0  0  0  0  0  0  0  0  0  0  0  0
   47.9517    6.6113   15.0980 H   0  0  0  0  0  0  0  0  0  0  0  0
   47.1197    2.3990   15.6373 H   0  0  0  0  0  0  0  0  0  0  0  0
   47.0828    2.6926   18.0956 H   0  0  0  0  0  0  0  0  0  0  0  0
   47.9500    3.3267   13.4362 H   0  0  0  0  0  0  0  0  0  0  0  0
   48.1091    5.0442   13.2002 H   0  0  0  0  0  0  0  0  0  0  0  0
   45.9590    6.5292   13.1644 H   0  0  0  0  0  0  0  0  0  0  0  0
   42.3944    4.5389   11.8849 H   0  0  0  0  0  0  0  0  0  0  0  0
   45.7994    2.2036   13.0399 H   0  0  0  0  0  0  0  0  0  0  0  0
   48.8560   18.7859   13.9187 H   0  0  0  0  0  0  0  0  0  0  0  0
   49.4269   18.4302   15.5633 H   0  0  0  0  0  0  0  0  0  0  0  0
   50.5806   18.7154   14.2441 H   0  0  0  0  0  0  0  0  0  0  0  0
  1  2  2  0
  1  6  1  0
  2  3  1  0
  3  4  2  0
  4  5  1  0
  5  6  2  0
  2  7  1  0
  7  8  1  0
 12  7  1  0
  8  9  1  0
  9 10  1  0
 10 11  1  0
 11 12  1  0
  4 13  1  0
 13 14  1  0
 14 15  1  0
 19 14  1  0
 15 16  1  0
 16 17  1  0
 17 18  1  0
 18 19  1  0
  5 20  1  0
 20 21  1  0
 20 22  2  0
 21 23  1  0
 23 24  2  0
 23 27  1  0
 24 25  1  0
 25 26  1  0
 31 26  2  0
 26 27  1  0
 27 28  2  0
 28 29  1  0
 29 30  2  0
 30 31  1  0
 29 32  1  0
 32 33  1  0
 33 34  2  0
 33 38  1  0
 34 35  1  0
 35 36  2  0
 36 37  1  0
 37 38  2  0
 37 39  1  0
 35 40  1  0
 10 41  1  0
  1 42  1  0
  3 43  1  0
  6 44  1  0
  8 45  1  0
  8 46  1  0
  9 47  1  0
  9 48  1  0
 11 49  1  0
 11 50  1  0
 12 51  1  0
 12 52  1  0
 13 53  1  0
 14 54  1  0
 15 55  1  0
 15 56  1  0
 16 57  1  0
 16 58  1  0
 18 59  1  0
 18 60  1  0
 19 61  1  0
 19 62  1  0
 21 63  1  0
 25 64  1  0
 28 65  1  0
 30 66  1  0
 31 67  1  0
 32 68  1  0
 32 69  1  0
 34 70  1  0
 36 71  1  0
 38 72  1  0
 41 73  1  0
 41 74  1  0
 41 75  1  0
M  END
> <Uni-Dock RESULT> 
ENERGY=   -4.303  LOWER_BOUND=    5.491  UPPER_BOUND=    8.515
INTER + INTRA:          -4.303
INTER:                  -4.303
INTRA:                   0.000
UNBOUND:                 0.000

$$$$

     RDKit          3D

 75 80  0  0  0  0  0  0  0  0999 V2000
   53.3583    9.5616   10.1197 C   0  0  0  0  0  0  0  0  0  0  0  0
   52.9313    8.2276   10.0970 C   0  0  0  0  0  0  0  0  0  0  0  0
   51.7109    7.9494   10.7399 C   0  0  0  0  0  0  0  0  0  0  0  0
   50.9264    8.9375   11.3777 C   0  0  0  0  0  0  0  0  0  0  0  0
   51.3730   10.2709   11.3217 C   0  0  0  0  0  0  0  0  0  0  0  0
   52.5976   10.5717   10.7169 C   0  0  0  0  0  0  0  0  0  0  0  0
   53.6844    7.2350    9.4918 N   0  0  0  0  0  0  0  0  0  0  0  0
   54.6222    7.5476    8.3982 C   0  0  0  0  0  0  0  0  0  0  0  0
   54.7428    6.3681    7.4029 C   0  0  0  0  0  0  0  0  0  0  0  0
   55.1030    5.0571    7.9861 N   0  0  0  0  0  0  0  0  0  0  0  0
   54.7406    4.9857    9.4187 C   0  0  0  0  0  0  0  0  0  0  0  0
   53.4832    5.8056    9.7910 C   0  0  0  0  0  0  0  0  0  0  0  0
   49.7439    8.5163   12.0433 N   0  0  0  0  0  0  0  0  0  0  0  0
   49.7137    8.7896   13.5071 C   0  0  0  0  0  0  0  0  0  0  0  0
   48.3345    8.3879   14.0566 C   0  0  0  0  0  0  0  0  0  0  0  0
   48.3846    7.0140   14.7111 C   0  0  0  0  0  0  0  0  0  0  0  0
   49.3224    6.9306   15.7850 O   0  0  0  0  0  0  0  0  0  0  0  0
   50.4527    7.7996   15.6855 C   0  0  0  0  0  0  0  0  0  0  0  0
   50.8492    8.0609   14.2428 C   0  0  0  0  0  0  0  0  0  0  0  0
   50.5936   11.4265   11.8493 C   0  0  0  0  0  0  0  0  0  0  0  0
   49.2470   11.3652   11.5664 N   0  0  0  0  0  0  0  0  0  0  0  0
   51.2045   12.3046   12.4492 O   0  0  0  0  0  0  0  0  0  0  0  0
   48.2938   12.2657   11.9950 C   0  0  0  0  0  0  0  0  0  0  0  0
   48.5258   13.2972   12.8081 N   0  0  0  0  0  0  0  0  0  0  0  0
   47.3321   13.8824   12.9620 N   0  0  0  0  0  0  0  0  0  0  0  0
   46.3177   13.2765   12.2749 C   0  0  0  0  0  0  0  0  0  0  0  0
   46.9146   12.2021   11.6258 C   0  0  0  0  0  0  0  0  0  0  0  0
   46.1176   11.3805   10.8020 C   0  0  0  0  0  0  0  0  0  0  0  0
   44.7469   11.6748   10.6476 C   0  0  0  0  0  0  0  0  0  0  0  0
   44.1876   12.7646   11.3333 C   0  0  0  0  0  0  0  0  0  0  0  0
   44.9593   13.5839   12.1637 C   0  0  0  0  0  0  0  0  0  0  0  0
   43.8962   10.8589    9.6984 C   0  0  0  0  0  0  0  0  0  0  0  0
   43.7934   11.4817    8.3246 C   0  0  0  0  0  0  0  0  0  0  0  0
   44.8387   11.3477    7.3969 C   0  0  0  0  0  0  0  0  0  0  0  0
   44.7571   11.9700    6.1530 C   0  0  0  0  0  0  0  0  0  0  0  0
   43.6487   12.7242    5.7975 C   0  0  0  0  0  0  0  0  0  0  0  0
   42.6140   12.8564    6.7120 C   0  0  0  0  0  0  0  0  0  0  0  0
   42.6753   12.2504    7.9666 C   0  0  0  0  0  0  0  0  0  0  0  0
   41.5390   13.5924    6.3926 F   0  0  0  0  0  0  0  0  0  0  0  0
   45.7767   11.8516    5.2958 F   0  0  0  0  0  0  0  0  0  0  0  0
   56.5184    4.7480    7.7954 C   0  0  0  0  0  0  0  0  0  0  0  0
   54.3158    9.8424    9.6928 H   0  0  0  0  0  0  0  0  0  0  0  0
   51.3472    6.9259   10.7480 H   0  0  0  0  0  0  0  0  0  0  0  0
   52.9648   11.5966   10.7021 H   0  0  0  0  0  0  0  0  0  0  0  0
   54.2762    8.4185    7.8255 H   0  0  0  0  0  0  0  0  0  0  0  0
   55.6079    7.7873    8.8187 H   0  0  0  0  0  0  0  0  0  0  0  0
   53.7630    6.2375    6.9228 H   0  0  0  0  0  0  0  0  0  0  0  0
   55.4290    6.6470    6.5921 H   0  0  0  0  0  0  0  0  0  0  0  0
   55.5697    5.3478   10.0412 H   0  0  0  0  0  0  0  0  0  0  0  0
   54.5726    3.9358    9.6884 H   0  0  0  0  0  0  0  0  0  0  0  0
   52.6131    5.4283    9.2396 H   0  0  0  0  0  0  0  0  0  0  0  0
   53.3051    5.6611   10.8643 H   0  0  0  0  0  0  0  0  0  0  0  0
   49.6039    7.5144   11.8860 H   0  0  0  0  0  0  0  0  0  0  0  0
   49.8081    9.8659   13.6856 H   0  0  0  0  0  0  0  0  0  0  0  0
   47.5627    8.4148   13.2780 H   0  0  0  0  0  0  0  0  0  0  0  0
   48.0427    9.1211   14.8217 H   0  0  0  0  0  0  0  0  0  0  0  0
   48.6426    6.2455   13.9737 H   0  0  0  0  0  0  0  0  0  0  0  0
   47.4001    6.7546   15.1139 H   0  0  0  0  0  0  0  0  0  0  0  0
   50.2200    8.7347   16.2071 H   0  0  0  0  0  0  0  0  0  0  0  0
   51.2786    7.3208   16.2205 H   0  0  0  0  0  0  0  0  0  0  0  0
   51.7678    8.6603   14.2053 H   0  0  0  0  0  0  0  0  0  0  0  0
   51.0709    7.1005   13.7561 H   0  0  0  0  0  0  0  0  0  0  0  0
   48.9091   10.5478   11.0730 H   0  0  0  0  0  0  0  0  0  0  0  0
   47.2785   14.7091   13.5473 H   0  0  0  0  0  0  0  0  0  0  0  0
   46.5682   10.5455   10.2713 H   0  0  0  0  0  0  0  0  0  0  0  0
   43.1309   13.0009   11.2111 H   0  0  0  0  0  0  0  0  0  0  0  0
   44.5198   14.4323   12.6784 H   0  0  0  0  0  0  0  0  0  0  0  0
   42.8943   10.7269   10.1305 H   0  0  0  0  0  0  0  0  0  0  0  0
   44.2994    9.8415    9.6084 H   0  0  0  0  0  0  0  0  0  0  0  0
   45.7318   10.7760    7.6324 H   0  0  0  0  0  0  0  0  0  0  0  0
   43.5993   13.2050    4.8293 H   0  0  0  0  0  0  0  0  0  0  0  0
   41.8487   12.3951    8.6583 H   0  0  0  0  0  0  0  0  0  0  0  0
   56.7684    4.7293    6.7278 H   0  0  0  0  0  0  0  0  0  0  0  0
   57.1714    5.4734    8.2901 H   0  0  0  0  0  0  0  0  0  0  0  0
   56.7491    3.7519    8.1870 H   0  0  0  0  0  0  0  0  0  0  0  0
  1  2  2  0
  1  6  1  0
  2  3  1  0
  3  4  2  0
  4  5  1  0
  5  6  2  0
  2  7  1  0
  7  8  1  0
 12  7  1  0
  8  9  1  0
  9 10  1  0
 10 11  1  0
 11 12  1  0
  4 13  1  0
 13 14  1  0
 14 15  1  0
 19 14  1  0
 15 16  1  0
 16 17  1  0
 17 18  1  0
 18 19  1  0
  5 20  1  0
 20 21  1  0
 20 22  2  0
 21 23  1  0
 23 24  2  0
 23 27  1  0
 24 25  1  0
 25 26  1  0
 31 26  2  0
 26 27  1  0
 27 28  2  0
 28 29  1  0
 29 30  2  0
 30 31  1  0
 29 32  1  0
 32 33  1  0
 33 34  2  0
 33 38  1  0
 34 35  1  0
 35 36  2  0
 36 37  1  0
 37 38  2  0
 37 39  1  0
 35 40  1  0
 10 41  1  0
  1 42  1  0
  3 43  1  0
  6 44  1  0
  8 45  1  0
  8 46  1  0
  9 47  1  0
  9 48  1  0
 11 49  1  0
 11 50  1  0
 12 51  1  0
 12 52  1  0
 13 53  1  0
 14 54  1  0
 15 55  1  0
 15 56  1  0
 16 57  1  0
 16 58  1  0
 18 59  1  0
 18 60  1  0
 19 61  1  0
 19 62  1  0
 21 63  1  0
 25 64  1  0
 28 65  1  0
 30 66  1  0
 31 67  1  0
 32 68  1  0
 32 69  1  0
 34 70  1  0
 36 71  1  0
 38 72  1  0
 41 73  1  0
 41 74  1  0
 41 75  1  0
M  END
> <Uni-Dock RESULT> 
ENERGY=   -4.266  LOWER_BOUND=    5.683  UPPER_BOUND=   10.858
INTER + INTRA:          -4.266
INTER:                  -4.266
INTRA:                   0.000
UNBOUND:                 0.000

$$$$

     RDKit          3D

 75 80  0  0  0  0  0  0  0  0999 V2000
   46.2867   12.3440   11.2520 C   0  0  0  0  0  0  0  0  0  0  0  0
   45.5282   12.0657   10.1077 C   0  0  0  0  0  0  0  0  0  0  0  0
   46.1322   12.3548    8.8700 C   0  0  0  0  0  0  0  0  0  0  0  0
   47.4350   12.8899    8.7482 C   0  0  0  0  0  0  0  0  0  0  0  0
   48.1752   13.0971    9.9271 C   0  0  0  0  0  0  0  0  0  0  0  0
   47.5886   12.8482   11.1720 C   0  0  0  0  0  0  0  0  0  0  0  0
   44.2440   11.5538   10.1953 N   0  0  0  0  0  0  0  0  0  0  0  0
   43.8142   10.7655   11.3645 C   0  0  0  0  0  0  0  0  0  0  0  0
   42.7598    9.7021   10.9722 C   0  0  0  0  0  0  0  0  0  0  0  0
   41.5622   10.2023   10.2621 N   0  0  0  0  0  0  0  0  0  0  0  0
   41.8368   11.4851    9.5781 C   0  0  0  0  0  0  0  0  0  0  0  0
   43.2913   11.6298    9.0728 C   0  0  0  0  0  0  0  0  0  0  0  0
   47.9065   13.1938    7.4427 N   0  0  0  0  0  0  0  0  0  0  0  0
   48.2381   14.6272    7.2107 C   0  0  0  0  0  0  0  0  0  0  0  0
   48.8412   14.7735    5.8034 C   0  0  0  0  0  0  0  0  0  0  0  0
   47.7967   15.2593    4.8078 C   0  0  0  0  0  0  0  0  0  0  0  0
   47.2128   16.5131    5.1639 O   0  0  0  0  0  0  0  0  0  0  0  0
   47.1589   16.7926    6.5644 C   0  0  0  0  0  0  0  0  0  0  0  0
   47.0084   15.5301    7.3951 C   0  0  0  0  0  0  0  0  0  0  0  0
   49.5961   13.5463    9.9427 C   0  0  0  0  0  0  0  0  0  0  0  0
   50.3828   12.9378    8.9897 N   0  0  0  0  0  0  0  0  0  0  0  0
   49.9271   14.3735   10.7856 O   0  0  0  0  0  0  0  0  0  0  0  0
   51.7104   13.2203    8.7435 C   0  0  0  0  0  0  0  0  0  0  0  0
   52.4146   14.1775    9.3491 N   0  0  0  0  0  0  0  0  0  0  0  0
   53.6328   14.1007    8.8002 N   0  0  0  0  0  0  0  0  0  0  0  0
   53.7612   13.1221    7.8546 C   0  0  0  0  0  0  0  0  0  0  0  0
   52.5100   12.5205    7.7877 C   0  0  0  0  0  0  0  0  0  0  0  0
   52.3248   11.4387    6.9020 C   0  0  0  0  0  0  0  0  0  0  0  0
   53.4095   10.9887    6.1210 C   0  0  0  0  0  0  0  0  0  0  0  0
   54.6514   11.6365    6.2156 C   0  0  0  0  0  0  0  0  0  0  0  0
   54.8512   12.7181    7.0796 C   0  0  0  0  0  0  0  0  0  0  0  0
   53.2542    9.7737    5.2321 C   0  0  0  0  0  0  0  0  0  0  0  0
   53.7033    8.4967    5.9053 C   0  0  0  0  0  0  0  0  0  0  0  0
   52.8729    7.8435    6.8299 C   0  0  0  0  0  0  0  0  0  0  0  0
   53.3174    6.6966    7.4845 C   0  0  0  0  0  0  0  0  0  0  0  0
   54.5761    6.1694    7.2369 C   0  0  0  0  0  0  0  0  0  0  0  0
   55.3975    6.8123    6.3223 C   0  0  0  0  0  0  0  0  0  0  0  0
   54.9792    7.9663    5.6603 C   0  0  0  0  0  0  0  0  0  0  0  0
   56.6236    6.3259    6.0784 F   0  0  0  0  0  0  0  0  0  0  0  0
   52.5201    6.1069    8.3818 F   0  0  0  0  0  0  0  0  0  0  0  0
   40.4138   10.3293   11.1565 C   0  0  0  0  0  0  0  0  0  0  0  0
   45.8664   12.1989   12.2421 H   0  0  0  0  0  0  0  0  0  0  0  0
   45.5749   12.1571    7.9590 H   0  0  0  0  0  0  0  0  0  0  0  0
   48.1443   13.0405   12.0883 H   0  0  0  0  0  0  0  0  0  0  0  0
   44.6645   10.2287   11.8061 H   0  0  0  0  0  0  0  0  0  0  0  0
   43.4033   11.4387   12.1286 H   0  0  0  0  0  0  0  0  0  0  0  0
   43.2468    8.9854   10.2963 H   0  0  0  0  0  0  0  0  0  0  0  0
   42.4832    9.1208   11.8619 H   0  0  0  0  0  0  0  0  0  0  0  0
   41.6336   12.3284   10.2515 H   0  0  0  0  0  0  0  0  0  0  0  0
   41.1533   11.5841    8.7259 H   0  0  0  0  0  0  0  0  0  0  0  0
   43.5137   10.8431    8.3413 H   0  0  0  0  0  0  0  0  0  0  0  0
   43.3676   12.6033    8.5719 H   0  0  0  0  0  0  0  0  0  0  0  0
   47.2125   12.8939    6.7524 H   0  0  0  0  0  0  0  0  0  0  0  0
   49.0198   14.9448    7.9087 H   0  0  0  0  0  0  0  0  0  0  0  0
   49.2968   13.8381    5.4568 H   0  0  0  0  0  0  0  0  0  0  0  0
   49.6442   15.5225    5.8500 H   0  0  0  0  0  0  0  0  0  0  0  0
   46.9898   14.5247    4.7070 H   0  0  0  0  0  0  0  0  0  0  0  0
   48.2489   15.3771    3.8176 H   0  0  0  0  0  0  0  0  0  0  0  0
   48.0630   17.3446    6.8444 H   0  0  0  0  0  0  0  0  0  0  0  0
   46.3038   17.4550    6.7308 H   0  0  0  0  0  0  0  0  0  0  0  0
   46.8852   15.7867    8.4551 H   0  0  0  0  0  0  0  0  0  0  0  0
   46.0941   15.0061    7.0821 H   0  0  0  0  0  0  0  0  0  0  0  0
   49.9329   12.2870    8.3575 H   0  0  0  0  0  0  0  0  0  0  0  0
   54.3443   14.7455    9.1270 H   0  0  0  0  0  0  0  0  0  0  0  0
   51.3591   10.9427    6.8470 H   0  0  0  0  0  0  0  0  0  0  0  0
   55.4946   11.2875    5.6203 H   0  0  0  0  0  0  0  0  0  0  0  0
   55.8191   13.2030    7.1553 H   0  0  0  0  0  0  0  0  0  0  0  0
   53.8176    9.9299    4.3015 H   0  0  0  0  0  0  0  0  0  0  0  0
   52.2086    9.6696    4.9131 H   0  0  0  0  0  0  0  0  0  0  0  0
   51.8829    8.2234    7.0652 H   0  0  0  0  0  0  0  0  0  0  0  0
   54.9103    5.2798    7.7545 H   0  0  0  0  0  0  0  0  0  0  0  0
   55.6628    8.4469    4.9642 H   0  0  0  0  0  0  0  0  0  0  0  0
   40.1664    9.3602   11.6064 H   0  0  0  0  0  0  0  0  0  0  0  0
   40.5931   11.0479   11.9620 H   0  0  0  0  0  0  0  0  0  0  0  0
   39.5275   10.6492   10.5989 H   0  0  0  0  0  0  0  0  0  0  0  0
  1  2  2  0
  1  6  1  0
  2  3  1  0
  3  4  2  0
  4  5  1  0
  5  6  2  0
  2  7  1  0
  7  8  1  0
 12  7  1  0
  8  9  1  0
  9 10  1  0
 10 11  1  0
 11 12  1  0
  4 13  1  0
 13 14  1  0
 14 15  1  0
 19 14  1  0
 15 16  1  0
 16 17  1  0
 17 18  1  0
 18 19  1  0
  5 20  1  0
 20 21  1  0
 20 22  2  0
 21 23  1  0
 23 24  2  0
 23 27  1  0
 24 25  1  0
 25 26  1  0
 31 26  2  0
 26 27  1  0
 27 28  2  0
 28 29  1  0
 29 30  2  0
 30 31  1  0
 29 32  1  0
 32 33  1  0
 33 34  2  0
 33 38  1  0
 34 35  1  0
 35 36  2  0
 36 37  1  0
 37 38  2  0
 37 39  1  0
 35 40  1  0
 10 41  1  0
  1 42  1  0
  3 43  1  0
  6 44  1  0
  8 45  1  0
  8 46  1  0
  9 47  1  0
  9 48  1  0
 11 49  1  0
 11 50  1  0
 12 51  1  0
 12 52  1  0
 13 53  1  0
 14 54  1  0
 15 55  1  0
 15 56  1  0
 16 57  1  0
 16 58  1  0
 18 59  1  0
 18 60  1  0
 19 61  1  0
 19 62  1  0
 21 63  1  0
 25 64  1  0
 28 65  1  0
 30 66  1  0
 31 67  1  0
 32 68  1  0
 32 69  1  0
 34 70  1  0
 36 71  1  0
 38 72  1  0
 41 73  1  0
 41 74  1  0
 41 75  1  0
M  END
> <Uni-Dock RESULT> 
ENERGY=   -4.250  LOWER_BOUND=    7.381  UPPER_BOUND=   10.713
INTER + INTRA:          -4.250
INTER:                  -4.250
INTRA:                   0.000
UNBOUND:                 0.000

$$$$
