
     RDKit          3D

 75 80  0  0  0  0  0  0  0  0999 V2000
   50.6083   10.3596   12.5459 C   0  0  0  0  0  0  0  0  0  0  0  0
   50.2958   11.6756   12.9126 C   0  0  0  0  0  0  0  0  0  0  0  0
   49.6034   11.8517   14.1279 C   0  0  0  0  0  0  0  0  0  0  0  0
   49.2776   10.7920   14.9952 C   0  0  0  0  0  0  0  0  0  0  0  0
   49.5714    9.4872   14.5490 C   0  0  0  0  0  0  0  0  0  0  0  0
   50.2449    9.2723   13.3417 C   0  0  0  0  0  0  0  0  0  0  0  0
   50.6436   12.7468   12.1010 N   0  0  0  0  0  0  0  0  0  0  0  0
   51.8797   12.6988   11.3012 C   0  0  0  0  0  0  0  0  0  0  0  0
   52.4884   14.1056   11.1214 C   0  0  0  0  0  0  0  0  0  0  0  0
   51.5775   15.0695   10.4718 N   0  0  0  0  0  0  0  0  0  0  0  0
   50.1836   14.9014   10.9426 C   0  0  0  0  0  0  0  0  0  0  0  0
   50.0045   14.0665   12.2345 C   0  0  0  0  0  0  0  0  0  0  0  0
   48.5644   10.9880   16.1926 N   0  0  0  0  0  0  0  0  0  0  0  0
   48.5786   12.2739   16.9015 C   0  0  0  0  0  0  0  0  0  0  0  0
   47.5111   12.2407   18.0076 C   0  0  0  0  0  0  0  0  0  0  0  0
   47.8631   13.1668   19.1666 C   0  0  0  0  0  0  0  0  0  0  0  0
   48.6246   14.2736   18.6967 O   0  0  0  0  0  0  0  0  0  0  0  0
   49.9307   13.8887   18.2561 C   0  0  0  0  0  0  0  0  0  0  0  0
   49.9471   12.5523   17.5167 C   0  0  0  0  0  0  0  0  0  0  0  0
   49.2117    8.3076   15.3825 C   0  0  0  0  0  0  0  0  0  0  0  0
   48.5506    7.3212   14.6975 N   0  0  0  0  0  0  0  0  0  0  0  0
   49.4849    8.3414   16.5765 O   0  0  0  0  0  0  0  0  0  0  0  0
   48.0852    6.1172   15.1714 C   0  0  0  0  0  0  0  0  0  0  0  0
   47.3046    5.4258   14.3329 N   0  0  0  0  0  0  0  0  0  0  0  0
   46.9553    4.3368   15.0318 N   0  0  0  0  0  0  0  0  0  0  0  0
   47.5006    4.2704   16.2812 C   0  0  0  0  0  0  0  0  0  0  0  0
   48.2768    5.4205   16.4040 C   0  0  0  0  0  0  0  0  0  0  0  0
   48.9972    5.5902   17.6048 C   0  0  0  0  0  0  0  0  0  0  0  0
   48.8942    4.6466   18.6444 C   0  0  0  0  0  0  0  0  0  0  0  0
   48.0787    3.5227   18.4777 C   0  0  0  0  0  0  0  0  0  0  0  0
   47.3762    3.3067   17.2877 C   0  0  0  0  0  0  0  0  0  0  0  0
   49.6426    4.8735   19.9365 C   0  0  0  0  0  0  0  0  0  0  0  0
   48.8361    5.6054   20.9844 C   0  0  0  0  0  0  0  0  0  0  0  0
   48.6134    6.9875   20.8821 C   0  0  0  0  0  0  0  0  0  0  0  0
   47.8671    7.6489   21.8554 C   0  0  0  0  0  0  0  0  0  0  0  0
   47.3316    6.9669   22.9386 C   0  0  0  0  0  0  0  0  0  0  0  0
   47.5467    5.5993   23.0355 C   0  0  0  0  0  0  0  0  0  0  0  0
   48.2865    4.9143   22.0734 C   0  0  0  0  0  0  0  0  0  0  0  0
   47.0376    4.9276   24.0757 F   0  0  0  0  0  0  0  0  0  0  0  0
   47.6751    8.9700   21.7497 F   0  0  0  0  0  0  0  0  0  0  0  0
   52.0541   16.4398   10.6409 C   0  0  0  0  0  0  0  0  0  0  0  0
   51.1145   10.1603   11.6058 H   0  0  0  0  0  0  0  0  0  0  0  0
   49.3385   12.8606   14.4188 H   0  0  0  0  0  0  0  0  0  0  0  0
   50.5124    8.2684   13.0215 H   0  0  0  0  0  0  0  0  0  0  0  0
   51.6616   12.2589   10.3206 H   0  0  0  0  0  0  0  0  0  0  0  0
   52.6365   12.0705   11.7905 H   0  0  0  0  0  0  0  0  0  0  0  0
   52.7913   14.4781   12.1127 H   0  0  0  0  0  0  0  0  0  0  0  0
   53.4008   14.0227   10.5208 H   0  0  0  0  0  0  0  0  0  0  0  0
   49.6865   15.8714   11.0738 H   0  0  0  0  0  0  0  0  0  0  0  0
   49.6399   14.3950   10.1341 H   0  0  0  0  0  0  0  0  0  0  0  0
   50.4356   14.6030   13.0883 H   0  0  0  0  0  0  0  0  0  0  0  0
   48.9263   13.9554   12.4068 H   0  0  0  0  0  0  0  0  0  0  0  0
   48.7492   10.2027   16.8282 H   0  0  0  0  0  0  0  0  0  0  0  0
   48.3027   13.0886   16.2227 H   0  0  0  0  0  0  0  0  0  0  0  0
   46.5557   12.5519   17.5660 H   0  0  0  0  0  0  0  0  0  0  0  0
   47.3435   11.2289   18.3957 H   0  0  0  0  0  0  0  0  0  0  0  0
   46.9496   13.5510   19.6344 H   0  0  0  0  0  0  0  0  0  0  0  0
   48.4283   12.6369   19.9429 H   0  0  0  0  0  0  0  0  0  0  0  0
   50.6093   13.8617   19.1177 H   0  0  0  0  0  0  0  0  0  0  0  0
   50.2874   14.6854   17.5937 H   0  0  0  0  0  0  0  0  0  0  0  0
   50.1988   11.7502   18.2244 H   0  0  0  0  0  0  0  0  0  0  0  0
   50.7504   12.5542   16.7736 H   0  0  0  0  0  0  0  0  0  0  0  0
   48.2155    7.5098   13.7639 H   0  0  0  0  0  0  0  0  0  0  0  0
   46.3326    3.6671   14.5943 H   0  0  0  0  0  0  0  0  0  0  0  0
   49.6373    6.4541   17.7403 H   0  0  0  0  0  0  0  0  0  0  0  0
   47.9841    2.7959   19.2821 H   0  0  0  0  0  0  0  0  0  0  0  0
   46.7608    2.4225   17.1595 H   0  0  0  0  0  0  0  0  0  0  0  0
   49.9870    3.9075   20.3298 H   0  0  0  0  0  0  0  0  0  0  0  0
   50.5669    5.4336   19.7424 H   0  0  0  0  0  0  0  0  0  0  0  0
   49.0169    7.5598   20.0495 H   0  0  0  0  0  0  0  0  0  0  0  0
   46.7561    7.4905   23.6936 H   0  0  0  0  0  0  0  0  0  0  0  0
   48.4299    3.8444   22.1860 H   0  0  0  0  0  0  0  0  0  0  0  0
   53.0806   16.5421   10.2704 H   0  0  0  0  0  0  0  0  0  0  0  0
   52.0291   16.7581   11.6891 H   0  0  0  0  0  0  0  0  0  0  0  0
   51.4413   17.1296   10.0503 H   0  0  0  0  0  0  0  0  0  0  0  0
  1  2  2  0
  1  6  1  0
  2  3  1  0
  3  4  2  0
  4  5  1  0
  5  6  2  0
  2  7  1  0
  7  8  1  0
 12  7  1  0
  8  9  1  0
  9 10  1  0
 10 11  1  0
 11 12  1  0
  4 13  1  0
 13 14  1  0
 14 15  1  0
 19 14  1  0
 15 16  1  0
 16 17  1  0
 17 18  1  0
 18 19  1  0
  5 20  1  0
 20 21  1  0
 20 22  2  0
 21 23  1  0
 23 24  2  0
 23 27  1  0
 24 25  1  0
 25 26  1  0
 31 26  2  0
 26 27  1  0
 27 28  2  0
 28 29  1  0
 29 30  2  0
 30 31  1  0
 29 32  1  0
 32 33  1  0
 33 34  2  0
 33 38  1  0
 34 35  1  0
 35 36  2  0
 36 37  1  0
 37 38  2  0
 37 39  1  0
 35 40  1  0
 10 41  1  0
  1 42  1  0
  3 43  1  0
  6 44  1  0
  8 45  1  0
  8 46  1  0
  9 47  1  0
  9 48  1  0
 11 49  1  0
 11 50  1  0
 12 51  1  0
 12 52  1  0
 13 53  1  0
 14 54  1  0
 15 55  1  0
 15 56  1  0
 16 57  1  0
 16 58  1  0
 18 59  1  0
 18 60  1  0
 19 61  1  0
 19 62  1  0
 21 63  1  0
 25 64  1  0
 28 65  1  0
 30 66  1  0
 31 67  1  0
 32 68  1  0
 32 69  1  0
 34 70  1  0
 36 71  1  0
 38 72  1  0
 41 73  1  0
 41 74  1  0
 41 75  1  0
M  END
> <Uni-Dock RESULT> 
ENERGY=   -5.053  LOWER_BOUND=    0.000  UPPER_BOUND=    0.000
INTER + INTRA:          -5.053
INTER:                  -5.053
INTRA:                   0.000
UNBOUND:                 0.000

$$$$

     RDKit          3D

 75 80  0  0  0  0  0  0  0  0999 V2000
   48.5246   14.5111   11.5731 C   0  0  0  0  0  0  0  0  0  0  0  0
   48.9008   13.3958   10.8123 C   0  0  0  0  0  0  0  0  0  0  0  0
   49.1929   12.2112   11.5185 C   0  0  0  0  0  0  0  0  0  0  0  0
   49.0645   12.0894   12.9150 C   0  0  0  0  0  0  0  0  0  0  0  0
   48.7326   13.2579   13.6308 C   0  0  0  0  0  0  0  0  0  0  0  0
   48.4498   14.4556   12.9655 C   0  0  0  0  0  0  0  0  0  0  0  0
   48.9928   13.4706    9.4292 N   0  0  0  0  0  0  0  0  0  0  0  0
   48.0796   14.3446    8.6727 C   0  0  0  0  0  0  0  0  0  0  0  0
   47.7787   13.7673    7.2734 C   0  0  0  0  0  0  0  0  0  0  0  0
   48.9826   13.5602    6.4436 N   0  0  0  0  0  0  0  0  0  0  0  0
   50.1147   13.0462    7.2482 C   0  0  0  0  0  0  0  0  0  0  0  0
   49.7490   12.4817    8.6430 C   0  0  0  0  0  0  0  0  0  0  0  0
   49.3847   10.9038   13.6024 N   0  0  0  0  0  0  0  0  0  0  0  0
   49.3423    9.5913   12.9451 C   0  0  0  0  0  0  0  0  0  0  0  0
   49.9887    8.5514   13.8750 C   0  0  0  0  0  0  0  0  0  0  0  0
   49.4334    7.1514   13.6368 C   0  0  0  0  0  0  0  0  0  0  0  0
   49.0355    7.0058   12.2781 O   0  0  0  0  0  0  0  0  0  0  0  0
   47.8926    7.8049   11.9564 C   0  0  0  0  0  0  0  0  0  0  0  0
   47.9083    9.1763   12.6285 C   0  0  0  0  0  0  0  0  0  0  0  0
   48.6284   13.2272   15.1154 C   0  0  0  0  0  0  0  0  0  0  0  0
   49.3147   14.2340   15.7437 N   0  0  0  0  0  0  0  0  0  0  0  0
   48.0012   12.3089   15.6299 O   0  0  0  0  0  0  0  0  0  0  0  0
   49.4193   14.4843   17.0918 C   0  0  0  0  0  0  0  0  0  0  0  0
   50.3104   15.4191   17.4413 N   0  0  0  0  0  0  0  0  0  0  0  0
   50.2527   15.4439   18.7801 N   0  0  0  0  0  0  0  0  0  0  0  0
   49.3378   14.5871   19.3204 C   0  0  0  0  0  0  0  0  0  0  0  0
   48.7457   13.9494   18.2327 C   0  0  0  0  0  0  0  0  0  0  0  0
   47.7179   13.0230   18.5062 C   0  0  0  0  0  0  0  0  0  0  0  0
   47.3439   12.7350   19.8326 C   0  0  0  0  0  0  0  0  0  0  0  0
   47.9906   13.3853   20.8884 C   0  0  0  0  0  0  0  0  0  0  0  0
   48.9913   14.3334   20.6518 C   0  0  0  0  0  0  0  0  0  0  0  0
   46.2697   11.7075   20.0998 C   0  0  0  0  0  0  0  0  0  0  0  0
   46.8055   10.3102   20.3108 C   0  0  0  0  0  0  0  0  0  0  0  0
   47.2554    9.5430   19.2248 C   0  0  0  0  0  0  0  0  0  0  0  0
   47.7476    8.2564   19.4346 C   0  0  0  0  0  0  0  0  0  0  0  0
   47.8047    7.7062   20.7070 C   0  0  0  0  0  0  0  0  0  0  0  0
   47.3659    8.4679   21.7810 C   0  0  0  0  0  0  0  0  0  0  0  0
   46.8726    9.7583   21.5979 C   0  0  0  0  0  0  0  0  0  0  0  0
   47.4133    7.9502   23.0147 F   0  0  0  0  0  0  0  0  0  0  0  0
   48.1606    7.5329   18.3861 F   0  0  0  0  0  0  0  0  0  0  0  0
   48.6900   12.7052    5.2961 C   0  0  0  0  0  0  0  0  0  0  0  0
   48.3167   15.4593   11.0859 H   0  0  0  0  0  0  0  0  0  0  0  0
   49.5018   11.3442   10.9482 H   0  0  0  0  0  0  0  0  0  0  0  0
   48.1484   15.3434   13.5158 H   0  0  0  0  0  0  0  0  0  0  0  0
   48.5266   15.3413    8.5765 H   0  0  0  0  0  0  0  0  0  0  0  0
   47.1213   14.4554    9.1984 H   0  0  0  0  0  0  0  0  0  0  0  0
   47.2387   12.8161    7.4031 H   0  0  0  0  0  0  0  0  0  0  0  0
   47.1008   14.4483    6.7475 H   0  0  0  0  0  0  0  0  0  0  0  0
   50.6857   12.2885    6.6959 H   0  0  0  0  0  0  0  0  0  0  0  0
   50.8025   13.8897    7.3940 H   0  0  0  0  0  0  0  0  0  0  0  0
   49.1570   11.5653    8.5312 H   0  0  0  0  0  0  0  0  0  0  0  0
   50.6879   12.2249    9.1499 H   0  0  0  0  0  0  0  0  0  0  0  0
   48.8924   10.8924   14.5037 H   0  0  0  0  0  0  0  0  0  0  0  0
   49.9379    9.6040   12.0255 H   0  0  0  0  0  0  0  0  0  0  0  0
   51.0700    8.5544   13.6873 H   0  0  0  0  0  0  0  0  0  0  0  0
   49.8703    8.8081   14.9345 H   0  0  0  0  0  0  0  0  0  0  0  0
   50.1999    6.3988   13.8537 H   0  0  0  0  0  0  0  0  0  0  0  0
   48.5790    6.9443   14.2926 H   0  0  0  0  0  0  0  0  0  0  0  0
   46.9811    7.2551   12.2218 H   0  0  0  0  0  0  0  0  0  0  0  0
   47.8877    7.9238   10.8671 H   0  0  0  0  0  0  0  0  0  0  0  0
   47.3281    9.1292   13.5606 H   0  0  0  0  0  0  0  0  0  0  0  0
   47.3903    9.9018   11.9938 H   0  0  0  0  0  0  0  0  0  0  0  0
   49.9514   14.8051   15.2074 H   0  0  0  0  0  0  0  0  0  0  0  0
   50.8728   16.0757   19.2740 H   0  0  0  0  0  0  0  0  0  0  0  0
   47.2060   12.5195   17.6945 H   0  0  0  0  0  0  0  0  0  0  0  0
   47.7156   13.1580   21.9165 H   0  0  0  0  0  0  0  0  0  0  0  0
   49.4746   14.8473   21.4761 H   0  0  0  0  0  0  0  0  0  0  0  0
   45.6770   12.0213   20.9697 H   0  0  0  0  0  0  0  0  0  0  0  0
   45.5496   11.6920   19.2710 H   0  0  0  0  0  0  0  0  0  0  0  0
   47.2264    9.9364   18.2109 H   0  0  0  0  0  0  0  0  0  0  0  0
   48.1850    6.7026   20.8603 H   0  0  0  0  0  0  0  0  0  0  0  0
   46.5410   10.3207   22.4648 H   0  0  0  0  0  0  0  0  0  0  0  0
   47.8606   13.1152    4.7084 H   0  0  0  0  0  0  0  0  0  0  0  0
   48.4310   11.6844    5.5985 H   0  0  0  0  0  0  0  0  0  0  0  0
   49.5547   12.6634    4.6247 H   0  0  0  0  0  0  0  0  0  0  0  0
  1  2  2  0
  1  6  1  0
  2  3  1  0
  3  4  2  0
  4  5  1  0
  5  6  2  0
  2  7  1  0
  7  8  1  0
 12  7  1  0
  8  9  1  0
  9 10  1  0
 10 11  1  0
 11 12  1  0
  4 13  1  0
 13 14  1  0
 14 15  1  0
 19 14  1  0
 15 16  1  0
 16 17  1  0
 17 18  1  0
 18 19  1  0
  5 20  1  0
 20 21  1  0
 20 22  2  0
 21 23  1  0
 23 24  2  0
 23 27  1  0
 24 25  1  0
 25 26  1  0
 31 26  2  0
 26 27  1  0
 27 28  2  0
 28 29  1  0
 29 30  2  0
 30 31  1  0
 29 32  1  0
 32 33  1  0
 33 34  2  0
 33 38  1  0
 34 35  1  0
 35 36  2  0
 36 37  1  0
 37 38  2  0
 37 39  1  0
 35 40  1  0
 10 41  1  0
  1 42  1  0
  3 43  1  0
  6 44  1  0
  8 45  1  0
  8 46  1  0
  9 47  1  0
  9 48  1  0
 11 49  1  0
 11 50  1  0
 12 51  1  0
 12 52  1  0
 13 53  1  0
 14 54  1  0
 15 55  1  0
 15 56  1  0
 16 57  1  0
 16 58  1  0
 18 59  1  0
 18 60  1  0
 19 61  1  0
 19 62  1  0
 21 63  1  0
 25 64  1  0
 28 65  1  0
 30 66  1  0
 31 67  1  0
 32 68  1  0
 32 69  1  0
 34 70  1  0
 36 71  1  0
 38 72  1  0
 41 73  1  0
 41 74  1  0
 41 75  1  0
M  END
> <Uni-Dock RESULT> 
ENERGY=   -4.615  LOWER_BOUND=    3.126  UPPER_BOUND=    6.606
INTER + INTRA:          -4.615
INTER:                  -4.615
INTRA:                   0.000
UNBOUND:                 0.000

$$$$

     RDKit          3D

 75 80  0  0  0  0  0  0  0  0999 V2000
   49.5758    5.0738   18.3469 C   0  0  0  0  0  0  0  0  0  0  0  0
   50.9536    5.3304   18.3489 C   0  0  0  0  0  0  0  0  0  0  0  0
   51.4671    6.0646   17.2606 C   0  0  0  0  0  0  0  0  0  0  0  0
   50.6632    6.5904   16.2316 C   0  0  0  0  0  0  0  0  0  0  0  0
   49.2937    6.2563   16.2564 C   0  0  0  0  0  0  0  0  0  0  0  0
   48.7504    5.5172   17.3126 C   0  0  0  0  0  0  0  0  0  0  0  0
   51.7672    4.8645   19.3727 N   0  0  0  0  0  0  0  0  0  0  0  0
   51.2445    4.7651   20.7465 C   0  0  0  0  0  0  0  0  0  0  0  0
   52.3573    4.9993   21.7900 C   0  0  0  0  0  0  0  0  0  0  0  0
   53.4876    4.0557   21.6765 N   0  0  0  0  0  0  0  0  0  0  0  0
   53.8224    3.7771   20.2611 C   0  0  0  0  0  0  0  0  0  0  0  0
   53.2280    4.7593   19.2219 C   0  0  0  0  0  0  0  0  0  0  0  0
   51.2002    7.3004   15.1416 N   0  0  0  0  0  0  0  0  0  0  0  0
   52.4814    8.0119   15.2355 C   0  0  0  0  0  0  0  0  0  0  0  0
   52.9058    8.4545   13.8255 C   0  0  0  0  0  0  0  0  0  0  0  0
   53.7874    9.6981   13.8604 C   0  0  0  0  0  0  0  0  0  0  0  0
   54.5385    9.7335   15.0688 O   0  0  0  0  0  0  0  0  0  0  0  0
   53.7138    9.9584   16.2167 C   0  0  0  0  0  0  0  0  0  0  0  0
   52.3722    9.2319   16.1458 C   0  0  0  0  0  0  0  0  0  0  0  0
   48.3841    6.7282   15.1767 C   0  0  0  0  0  0  0  0  0  0  0  0
   47.5936    5.7433   14.6432 N   0  0  0  0  0  0  0  0  0  0  0  0
   48.4538    7.9035   14.8376 O   0  0  0  0  0  0  0  0  0  0  0  0
   46.6570    5.8487   13.6418 C   0  0  0  0  0  0  0  0  0  0  0  0
   46.1666    4.6921   13.1815 N   0  0  0  0  0  0  0  0  0  0  0  0
   45.3249    5.0576   12.2046 N   0  0  0  0  0  0  0  0  0  0  0  0
   45.2194    6.4069   12.0277 C   0  0  0  0  0  0  0  0  0  0  0  0
   46.0686    6.9688   12.9782 C   0  0  0  0  0  0  0  0  0  0  0  0
   46.1246    8.3767   13.0446 C   0  0  0  0  0  0  0  0  0  0  0  0
   45.3771    9.1687   12.1525 C   0  0  0  0  0  0  0  0  0  0  0  0
   44.5606    8.5513   11.1996 C   0  0  0  0  0  0  0  0  0  0  0  0
   44.4564    7.1584   11.1275 C   0  0  0  0  0  0  0  0  0  0  0  0
   45.4878   10.6736   12.2167 C   0  0  0  0  0  0  0  0  0  0  0  0
   46.5438   11.2442   11.2982 C   0  0  0  0  0  0  0  0  0  0  0  0
   47.9062   11.1402   11.6198 C   0  0  0  0  0  0  0  0  0  0  0  0
   48.8687   11.6702   10.7630 C   0  0  0  0  0  0  0  0  0  0  0  0
   48.5101   12.3078    9.5840 C   0  0  0  0  0  0  0  0  0  0  0  0
   47.1632   12.4043    9.2635 C   0  0  0  0  0  0  0  0  0  0  0  0
   46.1816   11.8793   10.1019 C   0  0  0  0  0  0  0  0  0  0  0  0
   46.8014   13.0179    8.1300 F   0  0  0  0  0  0  0  0  0  0  0  0
   50.1635   11.5740   11.0911 F   0  0  0  0  0  0  0  0  0  0  0  0
   54.6446    4.5272   22.4332 C   0  0  0  0  0  0  0  0  0  0  0  0
   49.1285    4.4873   19.1441 H   0  0  0  0  0  0  0  0  0  0  0  0
   52.5324    6.2575   17.2368 H   0  0  0  0  0  0  0  0  0  0  0  0
   47.6859    5.3003   17.3542 H   0  0  0  0  0  0  0  0  0  0  0  0
   50.7970    3.7750   20.8946 H   0  0  0  0  0  0  0  0  0  0  0  0
   50.4628    5.5169   20.9215 H   0  0  0  0  0  0  0  0  0  0  0  0
   52.7155    6.0355   21.6836 H   0  0  0  0  0  0  0  0  0  0  0  0
   51.9258    4.9138   22.7932 H   0  0  0  0  0  0  0  0  0  0  0  0
   54.9083    3.7153   20.1122 H   0  0  0  0  0  0  0  0  0  0  0  0
   53.4339    2.7742   20.0400 H   0  0  0  0  0  0  0  0  0  0  0  0
   53.6855    5.7491   19.3396 H   0  0  0  0  0  0  0  0  0  0  0  0
   53.4847    4.3780   18.2253 H   0  0  0  0  0  0  0  0  0  0  0  0
   50.4681    7.8910   14.7294 H   0  0  0  0  0  0  0  0  0  0  0  0
   53.2658    7.3414   15.6039 H   0  0  0  0  0  0  0  0  0  0  0  0
   53.4570    7.6265   13.3619 H   0  0  0  0  0  0  0  0  0  0  0  0
   52.0465    8.6429   13.1709 H   0  0  0  0  0  0  0  0  0  0  0  0
   54.4893    9.6876   13.0189 H   0  0  0  0  0  0  0  0  0  0  0  0
   53.1894   10.6134   13.7743 H   0  0  0  0  0  0  0  0  0  0  0  0
   53.5624   11.0371   16.3471 H   0  0  0  0  0  0  0  0  0  0  0  0
   54.2816    9.6084   17.0861 H   0  0  0  0  0  0  0  0  0  0  0  0
   51.6104    9.9166   15.7479 H   0  0  0  0  0  0  0  0  0  0  0  0
   52.0404    8.9748   17.1563 H   0  0  0  0  0  0  0  0  0  0  0  0
   47.7803    4.7798   14.8799 H   0  0  0  0  0  0  0  0  0  0  0  0
   44.8465    4.3286   11.6877 H   0  0  0  0  0  0  0  0  0  0  0  0
   46.7488    8.8642   13.7842 H   0  0  0  0  0  0  0  0  0  0  0  0
   43.9901    9.1571   10.4984 H   0  0  0  0  0  0  0  0  0  0  0  0
   43.8059    6.6878   10.3977 H   0  0  0  0  0  0  0  0  0  0  0  0
   44.5092   11.1185   11.9912 H   0  0  0  0  0  0  0  0  0  0  0  0
   45.7008   10.9915   13.2459 H   0  0  0  0  0  0  0  0  0  0  0  0
   48.2297   10.6494   12.5353 H   0  0  0  0  0  0  0  0  0  0  0  0
   49.2656   12.7212    8.9256 H   0  0  0  0  0  0  0  0  0  0  0  0
   45.1398   11.9749    9.8133 H   0  0  0  0  0  0  0  0  0  0  0  0
   54.3752    4.7102   23.4798 H   0  0  0  0  0  0  0  0  0  0  0  0
   55.0620    5.4499   22.0149 H   0  0  0  0  0  0  0  0  0  0  0  0
   55.4277    3.7613   22.4441 H   0  0  0  0  0  0  0  0  0  0  0  0
  1  2  2  0
  1  6  1  0
  2  3  1  0
  3  4  2  0
  4  5  1  0
  5  6  2  0
  2  7  1  0
  7  8  1  0
 12  7  1  0
  8  9  1  0
  9 10  1  0
 10 11  1  0
 11 12  1  0
  4 13  1  0
 13 14  1  0
 14 15  1  0
 19 14  1  0
 15 16  1  0
 16 17  1  0
 17 18  1  0
 18 19  1  0
  5 20  1  0
 20 21  1  0
 20 22  2  0
 21 23  1  0
 23 24  2  0
 23 27  1  0
 24 25  1  0
 25 26  1  0
 31 26  2  0
 26 27  1  0
 27 28  2  0
 28 29  1  0
 29 30  2  0
 30 31  1  0
 29 32  1  0
 32 33  1  0
 33 34  2  0
 33 38  1  0
 34 35  1  0
 35 36  2  0
 36 37  1  0
 37 38  2  0
 37 39  1  0
 35 40  1  0
 10 41  1  0
  1 42  1  0
  3 43  1  0
  6 44  1  0
  8 45  1  0
  8 46  1  0
  9 47  1  0
  9 48  1  0
 11 49  1  0
 11 50  1  0
 12 51  1  0
 12 52  1  0
 13 53  1  0
 14 54  1  0
 15 55  1  0
 15 56  1  0
 16 57  1  0
 16 58  1  0
 18 59  1  0
 18 60  1  0
 19 61  1  0
 19 62  1  0
 21 63  1  0
 25 64  1  0
 28 65  1  0
 30 66  1  0
 31 67  1  0
 32 68  1  0
 32 69  1  0
 34 70  1  0
 36 71  1  0
 38 72  1  0
 41 73  1  0
 41 74  1  0
 41 75  1  0
M  END
> <Uni-Dock RESULT> 
ENERGY=   -4.604  LOWER_BOUND=    4.859  UPPER_BOUND=    9.687
INTER + INTRA:          -4.604
INTER:                  -4.604
INTRA:                   0.000
UNBOUND:                 0.000

$$$$

     RDKit          3D

 75 80  0  0  0  0  0  0  0  0999 V2000
   50.3539    6.1075   17.6103 C   0  0  0  0  0  0  0  0  0  0  0  0
   51.7139    6.3359   17.3606 C   0  0  0  0  0  0  0  0  0  0  0  0
   52.0411    6.9745   16.1472 C   0  0  0  0  0  0  0  0  0  0  0  0
   51.0784    7.4360   15.2298 C   0  0  0  0  0  0  0  0  0  0  0  0
   49.7305    7.1322   15.5104 C   0  0  0  0  0  0  0  0  0  0  0  0
   49.3686    6.4869   16.6977 C   0  0  0  0  0  0  0  0  0  0  0  0
   52.6856    5.9336   18.2668 N   0  0  0  0  0  0  0  0  0  0  0  0
   52.4021    5.9499   19.7123 C   0  0  0  0  0  0  0  0  0  0  0  0
   53.6767    6.2410   20.5323 C   0  0  0  0  0  0  0  0  0  0  0  0
   54.7652    5.2691   20.3053 N   0  0  0  0  0  0  0  0  0  0  0  0
   54.8540    4.8765   18.8801 C   0  0  0  0  0  0  0  0  0  0  0  0
   54.0992    5.7881   17.8814 C   0  0  0  0  0  0  0  0  0  0  0  0
   51.4282    8.0498   14.0125 N   0  0  0  0  0  0  0  0  0  0  0  0
   52.7116    8.7406   13.8336 C   0  0  0  0  0  0  0  0  0  0  0  0
   52.8946    9.0657   12.3420 C   0  0  0  0  0  0  0  0  0  0  0  0
   53.7779   10.2905   12.1303 C   0  0  0  0  0  0  0  0  0  0  0  0
   54.7226   10.4031   13.1888 O   0  0  0  0  0  0  0  0  0  0  0  0
   54.1053   10.7315   14.4376 C   0  0  0  0  0  0  0  0  0  0  0  0
   52.7661   10.0285   14.6504 C   0  0  0  0  0  0  0  0  0  0  0  0
   48.6547    7.5381   14.5651 C   0  0  0  0  0  0  0  0  0  0  0  0
   47.7788    6.5313   14.2511 N   0  0  0  0  0  0  0  0  0  0  0  0
   48.6740    8.6825   14.1277 O   0  0  0  0  0  0  0  0  0  0  0  0
   46.6872    6.5786   13.4162 C   0  0  0  0  0  0  0  0  0  0  0  0
   46.1182    5.4001   13.1372 N   0  0  0  0  0  0  0  0  0  0  0  0
   45.1260    5.7067   12.2899 N   0  0  0  0  0  0  0  0  0  0  0  0
   45.0013    7.0403   12.0276 C   0  0  0  0  0  0  0  0  0  0  0  0
   46.0027    7.6562   12.7747 C   0  0  0  0  0  0  0  0  0  0  0  0
   46.0787    9.0636   12.7197 C   0  0  0  0  0  0  0  0  0  0  0  0
   45.1965    9.7999   11.9064 C   0  0  0  0  0  0  0  0  0  0  0  0
   44.2265    9.1278   11.1558 C   0  0  0  0  0  0  0  0  0  0  0  0
   44.1022    7.7358   11.2121 C   0  0  0  0  0  0  0  0  0  0  0  0
   45.3266   11.3028   11.8324 C   0  0  0  0  0  0  0  0  0  0  0  0
   46.2160   11.7803   10.7076 C   0  0  0  0  0  0  0  0  0  0  0  0
   47.6124   11.6740   10.8029 C   0  0  0  0  0  0  0  0  0  0  0  0
   48.4198   12.1177    9.7576 C   0  0  0  0  0  0  0  0  0  0  0  0
   47.8714   12.6703    8.6091 C   0  0  0  0  0  0  0  0  0  0  0  0
   46.4904   12.7689    8.5129 C   0  0  0  0  0  0  0  0  0  0  0  0
   45.6611   12.3292    9.5429 C   0  0  0  0  0  0  0  0  0  0  0  0
   45.9464   13.3011    7.4114 F   0  0  0  0  0  0  0  0  0  0  0  0
   49.7508   12.0211    9.8701 F   0  0  0  0  0  0  0  0  0  0  0  0
   56.0366    5.7739   20.8174 C   0  0  0  0  0  0  0  0  0  0  0  0
   50.0439    5.5927   18.5150 H   0  0  0  0  0  0  0  0  0  0  0  0
   53.0883    7.1437   15.9297 H   0  0  0  0  0  0  0  0  0  0  0  0
   48.3250    6.2951   16.9345 H   0  0  0  0  0  0  0  0  0  0  0  0
   51.9794    4.9832   20.0109 H   0  0  0  0  0  0  0  0  0  0  0  0
   51.6662    6.7283   19.9564 H   0  0  0  0  0  0  0  0  0  0  0  0
   54.0188    7.2586   20.2860 H   0  0  0  0  0  0  0  0  0  0  0  0
   53.4205    6.2410   21.5973 H   0  0  0  0  0  0  0  0  0  0  0  0
   55.8987    4.7819   18.5562 H   0  0  0  0  0  0  0  0  0  0  0  0
   54.4270    3.8676   18.8070 H   0  0  0  0  0  0  0  0  0  0  0  0
   54.5767    6.7746   17.8423 H   0  0  0  0  0  0  0  0  0  0  0  0
   54.1813    5.3267   16.8890 H   0  0  0  0  0  0  0  0  0  0  0  0
   50.6410    8.6216   13.6840 H   0  0  0  0  0  0  0  0  0  0  0  0
   53.5425    8.0847   14.1166 H   0  0  0  0  0  0  0  0  0  0  0  0
   53.3539    8.1938   11.8590 H   0  0  0  0  0  0  0  0  0  0  0  0
   51.9384    9.2206   11.8282 H   0  0  0  0  0  0  0  0  0  0  0  0
   54.3273   10.2017   11.1863 H   0  0  0  0  0  0  0  0  0  0  0  0
   53.1801   11.2082   12.0741 H   0  0  0  0  0  0  0  0  0  0  0  0
   53.9854   11.8198   14.5063 H   0  0  0  0  0  0  0  0  0  0  0  0
   54.8095   10.4377   15.2241 H   0  0  0  0  0  0  0  0  0  0  0  0
   51.9527   10.6959   14.3335 H   0  0  0  0  0  0  0  0  0  0  0  0
   52.6081    9.8562   15.7194 H   0  0  0  0  0  0  0  0  0  0  0  0
   47.9964    5.5852   14.5282 H   0  0  0  0  0  0  0  0  0  0  0  0
   44.5623    4.9499   11.9197 H   0  0  0  0  0  0  0  0  0  0  0  0
   46.8221    9.5937   13.3033 H   0  0  0  0  0  0  0  0  0  0  0  0
   43.5498    9.6895   10.5149 H   0  0  0  0  0  0  0  0  0  0  0  0
   43.3345    7.2239   10.6412 H   0  0  0  0  0  0  0  0  0  0  0  0
   44.3269   11.7486   11.7402 H   0  0  0  0  0  0  0  0  0  0  0  0
   45.7126   11.6941   12.7829 H   0  0  0  0  0  0  0  0  0  0  0  0
   48.0826   11.2483   11.6868 H   0  0  0  0  0  0  0  0  0  0  0  0
   48.5076   13.0171    7.8027 H   0  0  0  0  0  0  0  0  0  0  0  0
   44.5862   12.4232    9.4268 H   0  0  0  0  0  0  0  0  0  0  0  0
   55.9492    6.0417   21.8766 H   0  0  0  0  0  0  0  0  0  0  0  0
   56.3835    6.6534   20.2636 H   0  0  0  0  0  0  0  0  0  0  0  0
   56.8051    4.9956   20.7568 H   0  0  0  0  0  0  0  0  0  0  0  0
  1  2  2  0
  1  6  1  0
  2  3  1  0
  3  4  2  0
  4  5  1  0
  5  6  2  0
  2  7  1  0
  7  8  1  0
 12  7  1  0
  8  9  1  0
  9 10  1  0
 10 11  1  0
 11 12  1  0
  4 13  1  0
 13 14  1  0
 14 15  1  0
 19 14  1  0
 15 16  1  0
 16 17  1  0
 17 18  1  0
 18 19  1  0
  5 20  1  0
 20 21  1  0
 20 22  2  0
 21 23  1  0
 23 24  2  0
 23 27  1  0
 24 25  1  0
 25 26  1  0
 31 26  2  0
 26 27  1  0
 27 28  2  0
 28 29  1  0
 29 30  2  0
 30 31  1  0
 29 32  1  0
 32 33  1  0
 33 34  2  0
 33 38  1  0
 34 35  1  0
 35 36  2  0
 36 37  1  0
 37 38  2  0
 37 39  1  0
 35 40  1  0
 10 41  1  0
  1 42  1  0
  3 43  1  0
  6 44  1  0
  8 45  1  0
  8 46  1  0
  9 47  1  0
  9 48  1  0
 11 49  1  0
 11 50  1  0
 12 51  1  0
 12 52  1  0
 13 53  1  0
 14 54  1  0
 15 55  1  0
 15 56  1  0
 16 57  1  0
 16 58  1  0
 18 59  1  0
 18 60  1  0
 19 61  1  0
 19 62  1  0
 21 63  1  0
 25 64  1  0
 28 65  1  0
 30 66  1  0
 31 67  1  0
 32 68  1  0
 32 69  1  0
 34 70  1  0
 36 71  1  0
 38 72  1  0
 41 73  1  0
 41 74  1  0
 41 75  1  0
M  END
> <Uni-Dock RESULT> 
ENERGY=   -4.498  LOWER_BOUND=    5.208  UPPER_BOUND=    9.641
INTER + INTRA:          -4.498
INTER:                  -4.498
INTRA:                   0.000
UNBOUND:                 0.000

$$$$

     RDKit          3D

 75 80  0  0  0  0  0  0  0  0999 V2000
   51.4174    6.5323   17.2502 C   0  0  0  0  0  0  0  0  0  0  0  0
   52.7349    6.7854   16.8451 C   0  0  0  0  0  0  0  0  0  0  0  0
   52.9094    7.3873   15.5823 C   0  0  0  0  0  0  0  0  0  0  0  0
   51.8396    7.7909   14.7613 C   0  0  0  0  0  0  0  0  0  0  0  0
   50.5396    7.4638   15.1983 C   0  0  0  0  0  0  0  0  0  0  0  0
   50.3280    6.8534   16.4392 C   0  0  0  0  0  0  0  0  0  0  0  0
   53.8108    6.4408   17.6519 N   0  0  0  0  0  0  0  0  0  0  0  0
   53.6860    6.5028   19.1185 C   0  0  0  0  0  0  0  0  0  0  0  0
   55.0334    6.8553   19.7833 C   0  0  0  0  0  0  0  0  0  0  0  0
   56.1183    5.9033   19.4707 N   0  0  0  0  0  0  0  0  0  0  0  0
   56.0627    5.4614   18.0584 C   0  0  0  0  0  0  0  0  0  0  0  0
   55.1776    6.3167   17.1187 C   0  0  0  0  0  0  0  0  0  0  0  0
   52.0369    8.3684   13.4931 N   0  0  0  0  0  0  0  0  0  0  0  0
   53.2727    9.0841   13.1513 C   0  0  0  0  0  0  0  0  0  0  0  0
   53.2827    9.3591   11.6385 C   0  0  0  0  0  0  0  0  0  0  0  0
   54.1019   10.5970   11.2902 C   0  0  0  0  0  0  0  0  0  0  0  0
   55.1527   10.7718   12.2341 O   0  0  0  0  0  0  0  0  0  0  0  0
   54.6659   11.1299   13.5315 C   0  0  0  0  0  0  0  0  0  0  0  0
   53.3787   10.4019   13.9135 C   0  0  0  0  0  0  0  0  0  0  0  0
   49.3560    7.8080   14.3639 C   0  0  0  0  0  0  0  0  0  0  0  0
   48.4806    6.7689   14.1820 N   0  0  0  0  0  0  0  0  0  0  0  0
   49.2946    8.9359   13.8889 O   0  0  0  0  0  0  0  0  0  0  0  0
   47.3036    6.7583   13.4709 C   0  0  0  0  0  0  0  0  0  0  0  0
   46.7418    5.5566   13.2958 N   0  0  0  0  0  0  0  0  0  0  0  0
   45.6548    5.8072   12.5528 N   0  0  0  0  0  0  0  0  0  0  0  0
   45.4638    7.1268   12.2613 C   0  0  0  0  0  0  0  0  0  0  0  0
   46.5224    7.7944   12.8728 C   0  0  0  0  0  0  0  0  0  0  0  0
   46.5514    9.2003   12.7627 C   0  0  0  0  0  0  0  0  0  0  0  0
   45.5650    9.8842   12.0269 C   0  0  0  0  0  0  0  0  0  0  0  0
   44.5388    9.1611   11.4104 C   0  0  0  0  0  0  0  0  0  0  0  0
   44.4615    7.7694   11.5266 C   0  0  0  0  0  0  0  0  0  0  0  0
   45.6428   11.3862   11.8888 C   0  0  0  0  0  0  0  0  0  0  0  0
   46.3903   11.8444   10.6577 C   0  0  0  0  0  0  0  0  0  0  0  0
   47.7912   11.7766   10.6026 C   0  0  0  0  0  0  0  0  0  0  0  0
   48.4669   12.2020    9.4606 C   0  0  0  0  0  0  0  0  0  0  0  0
   47.7809   12.6985    8.3615 C   0  0  0  0  0  0  0  0  0  0  0  0
   46.3954   12.7590    8.4143 C   0  0  0  0  0  0  0  0  0  0  0  0
   45.6962   12.3365    9.5433 C   0  0  0  0  0  0  0  0  0  0  0  0
   45.7195   13.2369    7.3621 F   0  0  0  0  0  0  0  0  0  0  0  0
   49.8044   12.1428    9.4294 F   0  0  0  0  0  0  0  0  0  0  0  0
   57.4228    6.4581   19.8229 C   0  0  0  0  0  0  0  0  0  0  0  0
   51.2227    6.0432   18.2002 H   0  0  0  0  0  0  0  0  0  0  0  0
   53.9214    7.5746   15.2456 H   0  0  0  0  0  0  0  0  0  0  0  0
   49.3224    6.6444   16.7955 H   0  0  0  0  0  0  0  0  0  0  0  0
   53.3264    5.5373   19.4940 H   0  0  0  0  0  0  0  0  0  0  0  0
   52.9590    7.2708   19.4158 H   0  0  0  0  0  0  0  0  0  0  0  0
   55.3172    7.8715   19.4670 H   0  0  0  0  0  0  0  0  0  0  0  0
   54.8948    6.8877   20.8694 H   0  0  0  0  0  0  0  0  0  0  0  0
   57.0681    5.3811   17.6250 H   0  0  0  0  0  0  0  0  0  0  0  0
   55.6595    4.4400   18.0665 H   0  0  0  0  0  0  0  0  0  0  0  0
   55.6193    7.3129   16.9944 H   0  0  0  0  0  0  0  0  0  0  0  0
   55.1643    5.8217   16.1393 H   0  0  0  0  0  0  0  0  0  0  0  0
   51.2024    8.9080   13.2341 H   0  0  0  0  0  0  0  0  0  0  0  0
   54.1480    8.4600   13.3631 H   0  0  0  0  0  0  0  0  0  0  0  0
   53.7117    8.4819   11.1374 H   0  0  0  0  0  0  0  0  0  0  0  0
   52.2721    9.4712   11.2280 H   0  0  0  0  0  0  0  0  0  0  0  0
   54.5476   10.4877   10.2950 H   0  0  0  0  0  0  0  0  0  0  0  0
   53.4754   11.4969   11.2692 H   0  0  0  0  0  0  0  0  0  0  0  0
   54.5229   12.2167   13.5764 H   0  0  0  0  0  0  0  0  0  0  0  0
   55.4597   10.8827   14.2452 H   0  0  0  0  0  0  0  0  0  0  0  0
   52.5167   11.0368   13.6657 H   0  0  0  0  0  0  0  0  0  0  0  0
   53.3431   10.2648   14.9986 H   0  0  0  0  0  0  0  0  0  0  0  0
   48.7542    5.8392   14.4650 H   0  0  0  0  0  0  0  0  0  0  0  0
   45.0762    5.0236   12.2724 H   0  0  0  0  0  0  0  0  0  0  0  0
   47.3384    9.7698   13.2429 H   0  0  0  0  0  0  0  0  0  0  0  0
   43.7804    9.6820   10.8293 H   0  0  0  0  0  0  0  0  0  0  0  0
   43.6514    7.2180   11.0611 H   0  0  0  0  0  0  0  0  0  0  0  0
   44.6267   11.8031   11.8921 H   0  0  0  0  0  0  0  0  0  0  0  0
   46.1186   11.8214   12.7775 H   0  0  0  0  0  0  0  0  0  0  0  0
   48.3671   11.3954   11.4432 H   0  0  0  0  0  0  0  0  0  0  0  0
   48.3152   13.0314    7.4789 H   0  0  0  0  0  0  0  0  0  0  0  0
   44.6128   12.3992    9.5429 H   0  0  0  0  0  0  0  0  0  0  0  0
   57.4437    6.7620   20.8757 H   0  0  0  0  0  0  0  0  0  0  0  0
   57.6819    7.3252   19.2052 H   0  0  0  0  0  0  0  0  0  0  0  0
   58.2023    5.6975   19.7043 H   0  0  0  0  0  0  0  0  0  0  0  0
  1  2  2  0
  1  6  1  0
  2  3  1  0
  3  4  2  0
  4  5  1  0
  5  6  2  0
  2  7  1  0
  7  8  1  0
 12  7  1  0
  8  9  1  0
  9 10  1  0
 10 11  1  0
 11 12  1  0
  4 13  1  0
 13 14  1  0
 14 15  1  0
 19 14  1  0
 15 16  1  0
 16 17  1  0
 17 18  1  0
 18 19  1  0
  5 20  1  0
 20 21  1  0
 20 22  2  0
 21 23  1  0
 23 24  2  0
 23 27  1  0
 24 25  1  0
 25 26  1  0
 31 26  2  0
 26 27  1  0
 27 28  2  0
 28 29  1  0
 29 30  2  0
 30 31  1  0
 29 32  1  0
 32 33  1  0
 33 34  2  0
 33 38  1  0
 34 35  1  0
 35 36  2  0
 36 37  1  0
 37 38  2  0
 37 39  1  0
 35 40  1  0
 10 41  1  0
  1 42  1  0
  3 43  1  0
  6 44  1  0
  8 45  1  0
  8 46  1  0
  9 47  1  0
  9 48  1  0
 11 49  1  0
 11 50  1  0
 12 51  1  0
 12 52  1  0
 13 53  1  0
 14 54  1  0
 15 55  1  0
 15 56  1  0
 16 57  1  0
 16 58  1  0
 18 59  1  0
 18 60  1  0
 19 61  1  0
 19 62  1  0
 21 63  1  0
 25 64  1  0
 28 65  1  0
 30 66  1  0
 31 67  1  0
 32 68  1  0
 32 69  1  0
 34 70  1  0
 36 71  1  0
 38 72  1  0
 41 73  1  0
 41 74  1  0
 41 75  1  0
M  END
> <Uni-Dock RESULT> 
ENERGY=   -4.485  LOWER_BOUND=    5.497  UPPER_BOUND=    9.595
INTER + INTRA:          -4.485
INTER:                  -4.485
INTRA:                   0.000
UNBOUND:                 0.000

$$$$

     RDKit          3D

 75 80  0  0  0  0  0  0  0  0999 V2000
   49.3459   13.7662   11.4653 C   0  0  0  0  0  0  0  0  0  0  0  0
   49.8060   14.4645   12.5898 C   0  0  0  0  0  0  0  0  0  0  0  0
   49.6207   13.8474   13.8436 C   0  0  0  0  0  0  0  0  0  0  0  0
   49.0638   12.5643   14.0015 C   0  0  0  0  0  0  0  0  0  0  0  0
   48.5729   11.9331   12.8402 C   0  0  0  0  0  0  0  0  0  0  0  0
   48.7258   12.5212   11.5801 C   0  0  0  0  0  0  0  0  0  0  0  0
   50.4012   15.7123   12.4637 N   0  0  0  0  0  0  0  0  0  0  0  0
   51.2113   16.0293   11.2748 C   0  0  0  0  0  0  0  0  0  0  0  0
   52.3483   17.0157   11.6155 C   0  0  0  0  0  0  0  0  0  0  0  0
   51.8764   18.2944   12.1840 N   0  0  0  0  0  0  0  0  0  0  0  0
   50.7459   18.0889   13.1183 C   0  0  0  0  0  0  0  0  0  0  0  0
   50.5287   16.6347   13.6042 C   0  0  0  0  0  0  0  0  0  0  0  0
   48.8660   11.9770   15.2651 N   0  0  0  0  0  0  0  0  0  0  0  0
   49.6742   12.3561   16.4311 C   0  0  0  0  0  0  0  0  0  0  0  0
   49.0457   11.7378   17.6907 C   0  0  0  0  0  0  0  0  0  0  0  0
   50.0816   11.4933   18.7826 C   0  0  0  0  0  0  0  0  0  0  0  0
   51.1291   12.4522   18.6888 O   0  0  0  0  0  0  0  0  0  0  0  0
   51.9295   12.2721   17.5160 C   0  0  0  0  0  0  0  0  0  0  0  0
   51.1151   11.8746   16.2867 C   0  0  0  0  0  0  0  0  0  0  0  0
   47.9216   10.5975   12.9275 C   0  0  0  0  0  0  0  0  0  0  0  0
   46.7190   10.5195   12.2739 N   0  0  0  0  0  0  0  0  0  0  0  0
   48.4741    9.7297   13.5932 O   0  0  0  0  0  0  0  0  0  0  0  0
   45.8748    9.4396   12.1649 C   0  0  0  0  0  0  0  0  0  0  0  0
   44.6733    9.6932   11.6334 N   0  0  0  0  0  0  0  0  0  0  0  0
   44.0394    8.5131   11.6762 N   0  0  0  0  0  0  0  0  0  0  0  0
   44.7870    7.4901   12.1837 C   0  0  0  0  0  0  0  0  0  0  0  0
   46.0199    8.0576   12.4971 C   0  0  0  0  0  0  0  0  0  0  0  0
   47.0148    7.2005   13.0121 C   0  0  0  0  0  0  0  0  0  0  0  0
   46.7449    5.8366   13.2329 C   0  0  0  0  0  0  0  0  0  0  0  0
   45.4801    5.3251   12.9252 C   0  0  0  0  0  0  0  0  0  0  0  0
   44.4810    6.1396   12.3826 C   0  0  0  0  0  0  0  0  0  0  0  0
   47.8141    4.9495   13.8252 C   0  0  0  0  0  0  0  0  0  0  0  0
   47.7553    4.8518   15.3323 C   0  0  0  0  0  0  0  0  0  0  0  0
   48.2019    5.9111   16.1377 C   0  0  0  0  0  0  0  0  0  0  0  0
   48.1409    5.8072   17.5258 C   0  0  0  0  0  0  0  0  0  0  0  0
   47.6437    4.6673   18.1411 C   0  0  0  0  0  0  0  0  0  0  0  0
   47.1962    3.6230   17.3440 C   0  0  0  0  0  0  0  0  0  0  0  0
   47.2434    3.7039   15.9536 C   0  0  0  0  0  0  0  0  0  0  0  0
   46.7150    2.5160   17.9230 F   0  0  0  0  0  0  0  0  0  0  0  0
   48.5833    6.8217   18.2797 F   0  0  0  0  0  0  0  0  0  0  0  0
   52.9746   19.0323   12.8027 C   0  0  0  0  0  0  0  0  0  0  0  0
   49.4344   14.2054   10.4758 H   0  0  0  0  0  0  0  0  0  0  0  0
   49.9547   14.3802   14.7252 H   0  0  0  0  0  0  0  0  0  0  0  0
   48.3888   12.0121   10.6806 H   0  0  0  0  0  0  0  0  0  0  0  0
   50.5660   16.4581   10.4988 H   0  0  0  0  0  0  0  0  0  0  0  0
   51.6728   15.1210   10.8640 H   0  0  0  0  0  0  0  0  0  0  0  0
   53.0355   16.5184   12.3182 H   0  0  0  0  0  0  0  0  0  0  0  0
   52.9209   17.2244   10.7053 H   0  0  0  0  0  0  0  0  0  0  0  0
   50.8252   18.7483   13.9924 H   0  0  0  0  0  0  0  0  0  0  0  0
   49.8395   18.4072   12.5864 H   0  0  0  0  0  0  0  0  0  0  0  0
   51.3666   16.3247   14.2403 H   0  0  0  0  0  0  0  0  0  0  0  0
   49.6141   16.6243   14.2108 H   0  0  0  0  0  0  0  0  0  0  0  0
   48.8096   10.9571   15.1585 H   0  0  0  0  0  0  0  0  0  0  0  0
   49.6570   13.4426   16.5721 H   0  0  0  0  0  0  0  0  0  0  0  0
   48.2782   12.4293   18.0610 H   0  0  0  0  0  0  0  0  0  0  0  0
   48.5215   10.7985   17.4776 H   0  0  0  0  0  0  0  0  0  0  0  0
   49.6177   11.5854   19.7711 H   0  0  0  0  0  0  0  0  0  0  0  0
   50.5029   10.4830   18.7135 H   0  0  0  0  0  0  0  0  0  0  0  0
   52.7082   11.5270   17.7210 H   0  0  0  0  0  0  0  0  0  0  0  0
   52.4394   13.2247   17.3332 H   0  0  0  0  0  0  0  0  0  0  0  0
   51.1253   10.7806   16.1840 H   0  0  0  0  0  0  0  0  0  0  0  0
   51.5998   12.2610   15.3849 H   0  0  0  0  0  0  0  0  0  0  0  0
   46.2876   11.3666   11.9338 H   0  0  0  0  0  0  0  0  0  0  0  0
   43.0840    8.4710   11.3400 H   0  0  0  0  0  0  0  0  0  0  0  0
   48.0000    7.5862   13.2468 H   0  0  0  0  0  0  0  0  0  0  0  0
   45.2603    4.2746   13.1054 H   0  0  0  0  0  0  0  0  0  0  0  0
   43.5086    5.7305   12.1290 H   0  0  0  0  0  0  0  0  0  0  0  0
   47.7432    3.9489   13.3777 H   0  0  0  0  0  0  0  0  0  0  0  0
   48.8082    5.3101   13.5297 H   0  0  0  0  0  0  0  0  0  0  0  0
   48.6002    6.8217   15.6952 H   0  0  0  0  0  0  0  0  0  0  0  0
   47.6043    4.5934   19.2220 H   0  0  0  0  0  0  0  0  0  0  0  0
   46.8819    2.8653   15.3671 H   0  0  0  0  0  0  0  0  0  0  0  0
   53.7906   19.1856   12.0872 H   0  0  0  0  0  0  0  0  0  0  0  0
   53.3750   18.5147   13.6815 H   0  0  0  0  0  0  0  0  0  0  0  0
   52.6373   20.0294   13.1064 H   0  0  0  0  0  0  0  0  0  0  0  0
  1  2  2  0
  1  6  1  0
  2  3  1  0
  3  4  2  0
  4  5  1  0
  5  6  2  0
  2  7  1  0
  7  8  1  0
 12  7  1  0
  8  9  1  0
  9 10  1  0
 10 11  1  0
 11 12  1  0
  4 13  1  0
 13 14  1  0
 14 15  1  0
 19 14  1  0
 15 16  1  0
 16 17  1  0
 17 18  1  0
 18 19  1  0
  5 20  1  0
 20 21  1  0
 20 22  2  0
 21 23  1  0
 23 24  2  0
 23 27  1  0
 24 25  1  0
 25 26  1  0
 31 26  2  0
 26 27  1  0
 27 28  2  0
 28 29  1  0
 29 30  2  0
 30 31  1  0
 29 32  1  0
 32 33  1  0
 33 34  2  0
 33 38  1  0
 34 35  1  0
 35 36  2  0
 36 37  1  0
 37 38  2  0
 37 39  1  0
 35 40  1  0
 10 41  1  0
  1 42  1  0
  3 43  1  0
  6 44  1  0
  8 45  1  0
  8 46  1  0
  9 47  1  0
  9 48  1  0
 11 49  1  0
 11 50  1  0
 12 51  1  0
 12 52  1  0
 13 53  1  0
 14 54  1  0
 15 55  1  0
 15 56  1  0
 16 57  1  0
 16 58  1  0
 18 59  1  0
 18 60  1  0
 19 61  1  0
 19 62  1  0
 21 63  1  0
 25 64  1  0
 28 65  1  0
 30 66  1  0
 31 67  1  0
 32 68  1  0
 32 69  1  0
 34 70  1  0
 36 71  1  0
 38 72  1  0
 41 73  1  0
 41 74  1  0
 41 75  1  0
M  END
> <Uni-Dock RESULT> 
ENERGY=   -4.479  LOWER_BOUND=    3.030  UPPER_BOUND=    4.420
INTER + INTRA:          -4.479
INTER:                  -4.479
INTRA:                   0.000
UNBOUND:                 0.000

$$$$

     RDKit          3D

 75 80  0  0  0  0  0  0  0  0999 V2000
   49.7436    6.9526   17.0629 C   0  0  0  0  0  0  0  0  0  0  0  0
   51.1054    6.8623   16.7446 C   0  0  0  0  0  0  0  0  0  0  0  0
   51.4905    7.2980   15.4605 C   0  0  0  0  0  0  0  0  0  0  0  0
   50.5955    7.8637   14.5329 C   0  0  0  0  0  0  0  0  0  0  0  0
   49.2315    7.8810   14.8894 C   0  0  0  0  0  0  0  0  0  0  0  0
   48.8096    7.4436   16.1495 C   0  0  0  0  0  0  0  0  0  0  0  0
   52.0209    6.3512   17.6545 N   0  0  0  0  0  0  0  0  0  0  0  0
   51.8272    6.5653   19.0991 C   0  0  0  0  0  0  0  0  0  0  0  0
   53.1778    6.6560   19.8404 C   0  0  0  0  0  0  0  0  0  0  0  0
   54.0264    5.4582   19.6798 N   0  0  0  0  0  0  0  0  0  0  0  0
   53.9529    4.9215   18.3015 C   0  0  0  0  0  0  0  0  0  0  0  0
   53.3499    5.8729   17.2389 C   0  0  0  0  0  0  0  0  0  0  0  0
   50.9974    8.2702   13.2468 N   0  0  0  0  0  0  0  0  0  0  0  0
   52.3844    8.6526   12.9530 C   0  0  0  0  0  0  0  0  0  0  0  0
   52.5483    8.7876   11.4302 C   0  0  0  0  0  0  0  0  0  0  0  0
   53.6536    9.7711   11.0614 C   0  0  0  0  0  0  0  0  0  0  0  0
   54.6581    9.7812   12.0695 O   0  0  0  0  0  0  0  0  0  0  0  0
   54.1924   10.3507   13.2972 C   0  0  0  0  0  0  0  0  0  0  0  0
   52.7503    9.9716   13.6278 C   0  0  0  0  0  0  0  0  0  0  0  0
   48.2130    8.4139   13.9437 C   0  0  0  0  0  0  0  0  0  0  0  0
   47.1311    7.5907   13.7670 N   0  0  0  0  0  0  0  0  0  0  0  0
   48.4454    9.4811   13.3883 O   0  0  0  0  0  0  0  0  0  0  0  0
   46.0287    7.7886   12.9692 C   0  0  0  0  0  0  0  0  0  0  0  0
   45.2128    6.7367   12.8349 N   0  0  0  0  0  0  0  0  0  0  0  0
   44.2607    7.1645   11.9942 N   0  0  0  0  0  0  0  0  0  0  0  0
   44.4013    8.4630   11.5978 C   0  0  0  0  0  0  0  0  0  0  0  0
   45.5485    8.9207   12.2418 C   0  0  0  0  0  0  0  0  0  0  0  0
   45.9120   10.2681   12.0369 C   0  0  0  0  0  0  0  0  0  0  0  0
   45.1585   11.0938   11.1811 C   0  0  0  0  0  0  0  0  0  0  0  0
   44.0301   10.5744   10.5385 C   0  0  0  0  0  0  0  0  0  0  0  0
   43.6227    9.2524   10.7447 C   0  0  0  0  0  0  0  0  0  0  0  0
   45.5936   12.5208   10.9455 C   0  0  0  0  0  0  0  0  0  0  0  0
   46.4993   12.6891    9.7473 C   0  0  0  0  0  0  0  0  0  0  0  0
   47.8462   12.2984    9.8059 C   0  0  0  0  0  0  0  0  0  0  0  0
   48.6692   12.4589    8.6930 C   0  0  0  0  0  0  0  0  0  0  0  0
   48.1849   13.0031    7.5121 C   0  0  0  0  0  0  0  0  0  0  0  0
   46.8514   13.3829    7.4529 C   0  0  0  0  0  0  0  0  0  0  0  0
   46.0070   13.2295    8.5509 C   0  0  0  0  0  0  0  0  0  0  0  0
   46.3698   13.9108    6.3208 F   0  0  0  0  0  0  0  0  0  0  0  0
   49.9552   12.0932    8.7699 F   0  0  0  0  0  0  0  0  0  0  0  0
   55.4012    5.7282   20.0927 C   0  0  0  0  0  0  0  0  0  0  0  0
   49.3837    6.6040   18.0266 H   0  0  0  0  0  0  0  0  0  0  0  0
   52.5364    7.2197   15.1911 H   0  0  0  0  0  0  0  0  0  0  0  0
   47.7637    7.5011   16.4403 H   0  0  0  0  0  0  0  0  0  0  0  0
   51.2301    5.7433   19.5117 H   0  0  0  0  0  0  0  0  0  0  0  0
   51.2837    7.5017   19.2850 H   0  0  0  0  0  0  0  0  0  0  0  0
   53.7096    7.5496   19.4773 H   0  0  0  0  0  0  0  0  0  0  0  0
   52.9864    6.8121   20.9076 H   0  0  0  0  0  0  0  0  0  0  0  0
   54.9357    4.5769   17.9541 H   0  0  0  0  0  0  0  0  0  0  0  0
   53.3223    4.0239   18.3492 H   0  0  0  0  0  0  0  0  0  0  0  0
   54.0190    6.7273   17.0803 H   0  0  0  0  0  0  0  0  0  0  0  0
   53.2794    5.3121   16.2982 H   0  0  0  0  0  0  0  0  0  0  0  0
   50.3292    8.9621   12.8870 H   0  0  0  0  0  0  0  0  0  0  0  0
   53.0753    7.8654   13.2750 H   0  0  0  0  0  0  0  0  0  0  0  0
   52.7891    7.7961   11.0260 H   0  0  0  0  0  0  0  0  0  0  0  0
   51.6182    9.0921   10.9357 H   0  0  0  0  0  0  0  0  0  0  0  0
   54.1195    9.4781   10.1138 H   0  0  0  0  0  0  0  0  0  0  0  0
   53.2572   10.7852   10.9294 H   0  0  0  0  0  0  0  0  0  0  0  0
   54.3051   11.4411   13.2553 H   0  0  0  0  0  0  0  0  0  0  0  0
   54.8625    9.9906   14.0859 H   0  0  0  0  0  0  0  0  0  0  0  0
   52.0769   10.7630   13.2705 H   0  0  0  0  0  0  0  0  0  0  0  0
   52.6192    9.9395   14.7138 H   0  0  0  0  0  0  0  0  0  0  0  0
   47.1623    6.6508   14.1343 H   0  0  0  0  0  0  0  0  0  0  0  0
   43.5325    6.5128   11.7247 H   0  0  0  0  0  0  0  0  0  0  0  0
   46.7805   10.6816   12.5360 H   0  0  0  0  0  0  0  0  0  0  0  0
   43.4504   11.2032    9.8655 H   0  0  0  0  0  0  0  0  0  0  0  0
   42.7351    8.8630   10.2571 H   0  0  0  0  0  0  0  0  0  0  0  0
   44.7048   13.1577   10.8410 H   0  0  0  0  0  0  0  0  0  0  0  0
   46.1043   12.9102   11.8361 H   0  0  0  0  0  0  0  0  0  0  0  0
   48.2659   11.8690   10.7131 H   0  0  0  0  0  0  0  0  0  0  0  0
   48.8337   13.1284    6.6527 H   0  0  0  0  0  0  0  0  0  0  0  0
   44.9703   13.5380    8.4621 H   0  0  0  0  0  0  0  0  0  0  0  0
   55.4301    6.1082   21.1204 H   0  0  0  0  0  0  0  0  0  0  0  0
   55.8922    6.4570   19.4383 H   0  0  0  0  0  0  0  0  0  0  0  0
   55.9868    4.8024   20.0881 H   0  0  0  0  0  0  0  0  0  0  0  0
  1  2  2  0
  1  6  1  0
  2  3  1  0
  3  4  2  0
  4  5  1  0
  5  6  2  0
  2  7  1  0
  7  8  1  0
 12  7  1  0
  8  9  1  0
  9 10  1  0
 10 11  1  0
 11 12  1  0
  4 13  1  0
 13 14  1  0
 14 15  1  0
 19 14  1  0
 15 16  1  0
 16 17  1  0
 17 18  1  0
 18 19  1  0
  5 20  1  0
 20 21  1  0
 20 22  2  0
 21 23  1  0
 23 24  2  0
 23 27  1  0
 24 25  1  0
 25 26  1  0
 31 26  2  0
 26 27  1  0
 27 28  2  0
 28 29  1  0
 29 30  2  0
 30 31  1  0
 29 32  1  0
 32 33  1  0
 33 34  2  0
 33 38  1  0
 34 35  1  0
 35 36  2  0
 36 37  1  0
 37 38  2  0
 37 39  1  0
 35 40  1  0
 10 41  1  0
  1 42  1  0
  3 43  1  0
  6 44  1  0
  8 45  1  0
  8 46  1  0
  9 47  1  0
  9 48  1  0
 11 49  1  0
 11 50  1  0
 12 51  1  0
 12 52  1  0
 13 53  1  0
 14 54  1  0
 15 55  1  0
 15 56  1  0
 16 57  1  0
 16 58  1  0
 18 59  1  0
 18 60  1  0
 19 61  1  0
 19 62  1  0
 21 63  1  0
 25 64  1  0
 28 65  1  0
 30 66  1  0
 31 67  1  0
 32 68  1  0
 32 69  1  0
 34 70  1  0
 36 71  1  0
 38 72  1  0
 41 73  1  0
 41 74  1  0
 41 75  1  0
M  END
> <Uni-Dock RESULT> 
ENERGY=   -4.394  LOWER_BOUND=    5.363  UPPER_BOUND=   10.105
INTER + INTRA:          -4.394
INTER:                  -4.394
INTRA:                   0.000
UNBOUND:                 0.000

$$$$

     RDKit          3D

 75 80  0  0  0  0  0  0  0  0999 V2000
   54.9016    8.6165   21.6369 C   0  0  0  0  0  0  0  0  0  0  0  0
   55.0651    9.8493   20.9908 C   0  0  0  0  0  0  0  0  0  0  0  0
   54.4768    9.9847   19.7169 C   0  0  0  0  0  0  0  0  0  0  0  0
   53.6991    8.9798   19.1113 C   0  0  0  0  0  0  0  0  0  0  0  0
   53.6130    7.7445   19.7855 C   0  0  0  0  0  0  0  0  0  0  0  0
   54.1961    7.5679   21.0449 C   0  0  0  0  0  0  0  0  0  0  0  0
   55.7882   10.8768   21.5813 N   0  0  0  0  0  0  0  0  0  0  0  0
   55.7784   11.0426   23.0450 C   0  0  0  0  0  0  0  0  0  0  0  0
   55.9228   12.5265   23.4440 C   0  0  0  0  0  0  0  0  0  0  0  0
   57.1541   13.1627   22.9341 N   0  0  0  0  0  0  0  0  0  0  0  0
   57.4675   12.7139   21.5581 C   0  0  0  0  0  0  0  0  0  0  0  0
   56.3159   12.0081   20.8006 C   0  0  0  0  0  0  0  0  0  0  0  0
   53.1407    9.1274   17.8279 N   0  0  0  0  0  0  0  0  0  0  0  0
   52.8448   10.4482   17.2586 C   0  0  0  0  0  0  0  0  0  0  0  0
   52.4965   10.2788   15.7706 C   0  0  0  0  0  0  0  0  0  0  0  0
   51.5722   11.3845   15.2727 C   0  0  0  0  0  0  0  0  0  0  0  0
   51.8051   12.5844   16.0018 O   0  0  0  0  0  0  0  0  0  0  0  0
   51.3882   12.4822   17.3671 C   0  0  0  0  0  0  0  0  0  0  0  0
   51.6814   11.1168   17.9855 C   0  0  0  0  0  0  0  0  0  0  0  0
   52.8537    6.6121   19.1882 C   0  0  0  0  0  0  0  0  0  0  0  0
   53.5400    5.4253   19.1757 N   0  0  0  0  0  0  0  0  0  0  0  0
   51.7402    6.8425   18.7318 O   0  0  0  0  0  0  0  0  0  0  0  0
   53.1252    4.2041   18.6987 C   0  0  0  0  0  0  0  0  0  0  0  0
   54.0669    3.2558   18.6341 N   0  0  0  0  0  0  0  0  0  0  0  0
   53.4329    2.1983   18.1086 N   0  0  0  0  0  0  0  0  0  0  0  0
   52.1075    2.4045   17.8564 C   0  0  0  0  0  0  0  0  0  0  0  0
   51.8576    3.7150   18.2569 C   0  0  0  0  0  0  0  0  0  0  0  0
   50.5330    4.1858   18.1414 C   0  0  0  0  0  0  0  0  0  0  0  0
   49.5229    3.3659   17.6035 C   0  0  0  0  0  0  0  0  0  0  0  0
   49.8355    2.0663   17.1920 C   0  0  0  0  0  0  0  0  0  0  0  0
   51.1313    1.5564   17.3226 C   0  0  0  0  0  0  0  0  0  0  0  0
   48.1218    3.9088   17.4511 C   0  0  0  0  0  0  0  0  0  0  0  0
   47.8566    4.5337   16.1007 C   0  0  0  0  0  0  0  0  0  0  0  0
   48.3713    5.8003   15.7831 C   0  0  0  0  0  0  0  0  0  0  0  0
   48.1194    6.3637   14.5338 C   0  0  0  0  0  0  0  0  0  0  0  0
   47.3615    5.6957   13.5827 C   0  0  0  0  0  0  0  0  0  0  0  0
   46.8585    4.4405   13.8952 C   0  0  0  0  0  0  0  0  0  0  0  0
   47.0994    3.8540   15.1362 C   0  0  0  0  0  0  0  0  0  0  0  0
   46.1243    3.7841   12.9883 F   0  0  0  0  0  0  0  0  0  0  0  0
   48.6068    7.5786   14.2516 F   0  0  0  0  0  0  0  0  0  0  0  0
   57.0746   14.6178   23.0338 C   0  0  0  0  0  0  0  0  0  0  0  0
   55.3580    8.4438   22.6072 H   0  0  0  0  0  0  0  0  0  0  0  0
   54.6074   10.9247   19.1955 H   0  0  0  0  0  0  0  0  0  0  0  0
   54.0892    6.6301   21.5843 H   0  0  0  0  0  0  0  0  0  0  0  0
   56.5962   10.4577   23.4828 H   0  0  0  0  0  0  0  0  0  0  0  0
   54.8357   10.6749   23.4727 H   0  0  0  0  0  0  0  0  0  0  0  0
   55.0361   13.0684   23.0785 H   0  0  0  0  0  0  0  0  0  0  0  0
   55.9132   12.6021   24.5367 H   0  0  0  0  0  0  0  0  0  0  0  0
   57.8428   13.5425   20.9434 H   0  0  0  0  0  0  0  0  0  0  0  0
   58.3015   12.0048   21.6433 H   0  0  0  0  0  0  0  0  0  0  0  0
   55.5112   12.7240   20.5940 H   0  0  0  0  0  0  0  0  0  0  0  0
   56.7195   11.6581   19.8419 H   0  0  0  0  0  0  0  0  0  0  0  0
   52.3451    8.4855   17.7298 H   0  0  0  0  0  0  0  0  0  0  0  0
   53.7306   11.0916   17.3028 H   0  0  0  0  0  0  0  0  0  0  0  0
   53.4332   10.2980   15.1990 H   0  0  0  0  0  0  0  0  0  0  0  0
   52.0382    9.3057   15.5574 H   0  0  0  0  0  0  0  0  0  0  0  0
   51.7594   11.5844   14.2116 H   0  0  0  0  0  0  0  0  0  0  0  0
   50.5183   11.0966   15.3688 H   0  0  0  0  0  0  0  0  0  0  0  0
   50.3185   12.7160   17.4366 H   0  0  0  0  0  0  0  0  0  0  0  0
   51.9222   13.2637   17.9191 H   0  0  0  0  0  0  0  0  0  0  0  0
   50.7876   10.4828   17.9035 H   0  0  0  0  0  0  0  0  0  0  0  0
   51.8653   11.2318   19.0580 H   0  0  0  0  0  0  0  0  0  0  0  0
   54.5235    5.4229   19.4035 H   0  0  0  0  0  0  0  0  0  0  0  0
   53.9681    1.3535   17.9431 H   0  0  0  0  0  0  0  0  0  0  0  0
   50.2796    5.1888   18.4642 H   0  0  0  0  0  0  0  0  0  0  0  0
   49.0625    1.4314   16.7633 H   0  0  0  0  0  0  0  0  0  0  0  0
   51.3610    0.5406   17.0185 H   0  0  0  0  0  0  0  0  0  0  0  0
   47.3990    3.1048   17.6450 H   0  0  0  0  0  0  0  0  0  0  0  0
   47.9191    4.6517   18.2338 H   0  0  0  0  0  0  0  0  0  0  0  0
   48.9690    6.3581   16.5009 H   0  0  0  0  0  0  0  0  0  0  0  0
   47.1667    6.1437   12.6149 H   0  0  0  0  0  0  0  0  0  0  0  0
   46.6889    2.8702   15.3395 H   0  0  0  0  0  0  0  0  0  0  0  0
   56.8584   14.9248   24.0635 H   0  0  0  0  0  0  0  0  0  0  0  0
   56.3024   15.0339   22.3772 H   0  0  0  0  0  0  0  0  0  0  0  0
   58.0380   15.0686   22.7717 H   0  0  0  0  0  0  0  0  0  0  0  0
  1  2  2  0
  1  6  1  0
  2  3  1  0
  3  4  2  0
  4  5  1  0
  5  6  2  0
  2  7  1  0
  7  8  1  0
 12  7  1  0
  8  9  1  0
  9 10  1  0
 10 11  1  0
 11 12  1  0
  4 13  1  0
 13 14  1  0
 14 15  1  0
 19 14  1  0
 15 16  1  0
 16 17  1  0
 17 18  1  0
 18 19  1  0
  5 20  1  0
 20 21  1  0
 20 22  2  0
 21 23  1  0
 23 24  2  0
 23 27  1  0
 24 25  1  0
 25 26  1  0
 31 26  2  0
 26 27  1  0
 27 28  2  0
 28 29  1  0
 29 30  2  0
 30 31  1  0
 29 32  1  0
 32 33  1  0
 33 34  2  0
 33 38  1  0
 34 35  1  0
 35 36  2  0
 36 37  1  0
 37 38  2  0
 37 39  1  0
 35 40  1  0
 10 41  1  0
  1 42  1  0
  3 43  1  0
  6 44  1  0
  8 45  1  0
  8 46  1  0
  9 47  1  0
  9 48  1  0
 11 49  1  0
 11 50  1  0
 12 51  1  0
 12 52  1  0
 13 53  1  0
 14 54  1  0
 15 55  1  0
 15 56  1  0
 16 57  1  0
 16 58  1  0
 18 59  1  0
 18 60  1  0
 19 61  1  0
 19 62  1  0
 21 63  1  0
 25 64  1  0
 28 65  1  0
 30 66  1  0
 31 67  1  0
 32 68  1  0
 32 69  1  0
 34 70  1  0
 36 71  1  0
 38 72  1  0
 41 73  1  0
 41 74  1  0
 41 75  1  0
M  END
> <Uni-Dock RESULT> 
ENERGY=   -4.356  LOWER_BOUND=    5.529  UPPER_BOUND=    7.853
INTER + INTRA:          -4.356
INTER:                  -4.356
INTRA:                   0.000
UNBOUND:                 0.000

$$$$

     RDKit          3D

 75 80  0  0  0  0  0  0  0  0999 V2000
   48.7375   13.5836   13.1247 C   0  0  0  0  0  0  0  0  0  0  0  0
   48.5734   12.6227   12.1179 C   0  0  0  0  0  0  0  0  0  0  0  0
   48.6012   11.2707   12.5160 C   0  0  0  0  0  0  0  0  0  0  0  0
   48.7210   10.8596   13.8570 C   0  0  0  0  0  0  0  0  0  0  0  0
   48.9343   11.8687   14.8184 C   0  0  0  0  0  0  0  0  0  0  0  0
   48.9276   13.2206   14.4588 C   0  0  0  0  0  0  0  0  0  0  0  0
   48.4073   12.9968   10.7914 N   0  0  0  0  0  0  0  0  0  0  0  0
   47.6945   14.2419   10.4571 C   0  0  0  0  0  0  0  0  0  0  0  0
   46.9509   14.1201    9.1102 C   0  0  0  0  0  0  0  0  0  0  0  0
   47.8324   13.7946    7.9710 N   0  0  0  0  0  0  0  0  0  0  0  0
   48.8737   12.8134    8.3533 C   0  0  0  0  0  0  0  0  0  0  0  0
   48.6305   12.0554    9.6815 C   0  0  0  0  0  0  0  0  0  0  0  0
   48.7707    9.5034   14.2297 N   0  0  0  0  0  0  0  0  0  0  0  0
   48.1762    8.4489   13.3984 C   0  0  0  0  0  0  0  0  0  0  0  0
   48.6230    7.0811   13.9402 C   0  0  0  0  0  0  0  0  0  0  0  0
   47.6092    5.9860   13.6273 C   0  0  0  0  0  0  0  0  0  0  0  0
   46.9235    6.2834   12.4161 O   0  0  0  0  0  0  0  0  0  0  0  0
   46.0605    7.4181   12.5429 C   0  0  0  0  0  0  0  0  0  0  0  0
   46.6524    8.5312   13.4051 C   0  0  0  0  0  0  0  0  0  0  0  0
   49.1237   11.5148   16.2518 C   0  0  0  0  0  0  0  0  0  0  0  0
   50.2092   12.1149   16.8358 N   0  0  0  0  0  0  0  0  0  0  0  0
   48.3489   10.7088   16.7532 O   0  0  0  0  0  0  0  0  0  0  0  0
   50.6553   11.9980   18.1313 C   0  0  0  0  0  0  0  0  0  0  0  0
   51.8516   12.5411   18.3846 N   0  0  0  0  0  0  0  0  0  0  0  0
   52.0727   12.2609   19.6765 N   0  0  0  0  0  0  0  0  0  0  0  0
   51.0569   11.5850   20.2881 C   0  0  0  0  0  0  0  0  0  0  0  0
   50.0864   11.4126   19.3039 C   0  0  0  0  0  0  0  0  0  0  0  0
   48.8904   10.7663   19.6802 C   0  0  0  0  0  0  0  0  0  0  0  0
   48.7154   10.2845   20.9913 C   0  0  0  0  0  0  0  0  0  0  0  0
   49.7342   10.4613   21.9330 C   0  0  0  0  0  0  0  0  0  0  0  0
   50.9194   11.1264   21.6027 C   0  0  0  0  0  0  0  0  0  0  0  0
   47.4426    9.5583   21.3570 C   0  0  0  0  0  0  0  0  0  0  0  0
   47.5285    8.0592   21.1851 C   0  0  0  0  0  0  0  0  0  0  0  0
   47.4803    7.4799   19.9075 C   0  0  0  0  0  0  0  0  0  0  0  0
   47.5614    6.0963   19.7643 C   0  0  0  0  0  0  0  0  0  0  0  0
   47.6896    5.2647   20.8676 C   0  0  0  0  0  0  0  0  0  0  0  0
   47.7438    5.8388   22.1300 C   0  0  0  0  0  0  0  0  0  0  0  0
   47.6683    7.2200   22.2995 C   0  0  0  0  0  0  0  0  0  0  0  0
   47.8660    5.0495   23.2044 F   0  0  0  0  0  0  0  0  0  0  0  0
   47.5008    5.5588   18.5392 F   0  0  0  0  0  0  0  0  0  0  0  0
   47.0568   13.3518    6.8152 C   0  0  0  0  0  0  0  0  0  0  0  0
   48.7548   14.6402   12.8735 H   0  0  0  0  0  0  0  0  0  0  0  0
   48.4930   10.5141   11.7490 H   0  0  0  0  0  0  0  0  0  0  0  0
   49.0454   13.9993   15.2082 H   0  0  0  0  0  0  0  0  0  0  0  0
   48.4112   15.0708   10.4135 H   0  0  0  0  0  0  0  0  0  0  0  0
   46.9485   14.4828   11.2267 H   0  0  0  0  0  0  0  0  0  0  0  0
   46.1695   13.3512    9.2175 H   0  0  0  0  0  0  0  0  0  0  0  0
   46.4392   15.0659    8.9012 H   0  0  0  0  0  0  0  0  0  0  0  0
   49.0469   12.0825    7.5527 H   0  0  0  0  0  0  0  0  0  0  0  0
   49.8117   13.3758    8.4512 H   0  0  0  0  0  0  0  0  0  0  0  0
   47.7642   11.3907    9.5787 H   0  0  0  0  0  0  0  0  0  0  0  0
   49.5170   11.4377    9.8742 H   0  0  0  0  0  0  0  0  0  0  0  0
   48.4911    9.4130   15.2137 H   0  0  0  0  0  0  0  0  0  0  0  0
   48.5482    8.5165   12.3700 H   0  0  0  0  0  0  0  0  0  0  0  0
   49.5869    6.8320   13.4783 H   0  0  0  0  0  0  0  0  0  0  0  0
   48.8075    7.1003   15.0209 H   0  0  0  0  0  0  0  0  0  0  0  0
   48.1181    5.0229   13.5074 H   0  0  0  0  0  0  0  0  0  0  0  0
   46.8825    5.8712   14.4406 H   0  0  0  0  0  0  0  0  0  0  0  0
   45.0924    7.0927   12.9433 H   0  0  0  0  0  0  0  0  0  0  0  0
   45.8777    7.7898   11.5284 H   0  0  0  0  0  0  0  0  0  0  0  0
   46.2860    8.4243   14.4356 H   0  0  0  0  0  0  0  0  0  0  0  0
   46.2815    9.5004   13.0581 H   0  0  0  0  0  0  0  0  0  0  0  0
   50.8761   12.6000   16.2535 H   0  0  0  0  0  0  0  0  0  0  0  0
   52.9490   12.5617   20.0879 H   0  0  0  0  0  0  0  0  0  0  0  0
   48.0925   10.6311   18.9595 H   0  0  0  0  0  0  0  0  0  0  0  0
   49.6111   10.0800   22.9448 H   0  0  0  0  0  0  0  0  0  0  0  0
   51.6968   11.2761   22.3445 H   0  0  0  0  0  0  0  0  0  0  0  0
   47.1690    9.8060   22.3915 H   0  0  0  0  0  0  0  0  0  0  0  0
   46.6064    9.9389   20.7556 H   0  0  0  0  0  0  0  0  0  0  0  0
   47.3788    8.0960   19.0166 H   0  0  0  0  0  0  0  0  0  0  0  0
   47.7474    4.1889   20.7470 H   0  0  0  0  0  0  0  0  0  0  0  0
   47.7161    7.6282   23.3039 H   0  0  0  0  0  0  0  0  0  0  0  0
   46.3051   14.1014    6.5423 H   0  0  0  0  0  0  0  0  0  0  0  0
   46.5473   12.3998    7.0014 H   0  0  0  0  0  0  0  0  0  0  0  0
   47.7095   13.2356    5.9431 H   0  0  0  0  0  0  0  0  0  0  0  0
  1  2  2  0
  1  6  1  0
  2  3  1  0
  3  4  2  0
  4  5  1  0
  5  6  2  0
  2  7  1  0
  7  8  1  0
 12  7  1  0
  8  9  1  0
  9 10  1  0
 10 11  1  0
 11 12  1  0
  4 13  1  0
 13 14  1  0
 14 15  1  0
 19 14  1  0
 15 16  1  0
 16 17  1  0
 17 18  1  0
 18 19  1  0
  5 20  1  0
 20 21  1  0
 20 22  2  0
 21 23  1  0
 23 24  2  0
 23 27  1  0
 24 25  1  0
 25 26  1  0
 31 26  2  0
 26 27  1  0
 27 28  2  0
 28 29  1  0
 29 30  2  0
 30 31  1  0
 29 32  1  0
 32 33  1  0
 33 34  2  0
 33 38  1  0
 34 35  1  0
 35 36  2  0
 36 37  1  0
 37 38  2  0
 37 39  1  0
 35 40  1  0
 10 41  1  0
  1 42  1  0
  3 43  1  0
  6 44  1  0
  8 45  1  0
  8 46  1  0
  9 47  1  0
  9 48  1  0
 11 49  1  0
 11 50  1  0
 12 51  1  0
 12 52  1  0
 13 53  1  0
 14 54  1  0
 15 55  1  0
 15 56  1  0
 16 57  1  0
 16 58  1  0
 18 59  1  0
 18 60  1  0
 19 61  1  0
 19 62  1  0
 21 63  1  0
 25 64  1  0
 28 65  1  0
 30 66  1  0
 31 67  1  0
 32 68  1  0
 32 69  1  0
 34 70  1  0
 36 71  1  0
 38 72  1  0
 41 73  1  0
 41 74  1  0
 41 75  1  0
M  END
> <Uni-Dock RESULT> 
ENERGY=   -4.227  LOWER_BOUND=    2.880  UPPER_BOUND=    5.717
INTER + INTRA:          -4.227
INTER:                  -4.227
INTRA:                   0.000
UNBOUND:                 0.000

$$$$
