
     RDKit          3D

 75 80  0  0  0  0  0  0  0  0999 V2000
   45.2371    9.3156   12.3942 C   0  0  0  0  0  0  0  0  0  0  0  0
   45.2791   10.5892   11.8146 C   0  0  0  0  0  0  0  0  0  0  0  0
   46.4782   11.3085   11.9098 C   0  0  0  0  0  0  0  0  0  0  0  0
   47.6167   10.7978   12.5673 C   0  0  0  0  0  0  0  0  0  0  0  0
   47.5452    9.4986   13.1092 C   0  0  0  0  0  0  0  0  0  0  0  0
   46.3521    8.7723   13.0367 C   0  0  0  0  0  0  0  0  0  0  0  0
   44.1416   11.0685   11.1503 N   0  0  0  0  0  0  0  0  0  0  0  0
   43.9215   10.3831    9.8506 C   0  0  0  0  0  0  0  0  0  0  0  0
   42.9383   11.1715    8.9537 C   0  0  0  0  0  0  0  0  0  0  0  0
   43.3260   12.5714    8.6637 N   0  0  0  0  0  0  0  0  0  0  0  0
   44.1673   13.1342    9.7455 C   0  0  0  0  0  0  0  0  0  0  0  0
   43.8748   12.5237   11.1327 C   0  0  0  0  0  0  0  0  0  0  0  0
   48.7618   11.6309   12.6610 N   0  0  0  0  0  0  0  0  0  0  0  0
   49.1465   12.0049   14.0414 C   0  0  0  0  0  0  0  0  0  0  0  0
   48.2044   13.0715   14.6088 C   0  0  0  0  0  0  0  0  0  0  0  0
   48.7176   13.5388   15.9620 C   0  0  0  0  0  0  0  0  0  0  0  0
   50.0475   14.0414   15.8458 O   0  0  0  0  0  0  0  0  0  0  0  0
   50.9673   13.0403   15.4058 C   0  0  0  0  0  0  0  0  0  0  0  0
   50.5804   12.5388   14.0221 C   0  0  0  0  0  0  0  0  0  0  0  0
   48.7131    8.8139   13.7305 C   0  0  0  0  0  0  0  0  0  0  0  0
   49.8848    8.9817   13.0408 N   0  0  0  0  0  0  0  0  0  0  0  0
   48.5317    8.1845   14.7654 O   0  0  0  0  0  0  0  0  0  0  0  0
   51.1584    8.5820   13.3683 C   0  0  0  0  0  0  0  0  0  0  0  0
   52.1094    8.9152   12.4854 N   0  0  0  0  0  0  0  0  0  0  0  0
   53.2374    8.4296   13.0147 N   0  0  0  0  0  0  0  0  0  0  0  0
   53.0771    7.8308   14.2296 C   0  0  0  0  0  0  0  0  0  0  0  0
   51.7103    7.8973   14.4963 C   0  0  0  0  0  0  0  0  0  0  0  0
   51.2611    7.3399   15.7112 C   0  0  0  0  0  0  0  0  0  0  0  0
   52.1731    6.7502   16.6102 C   0  0  0  0  0  0  0  0  0  0  0  0
   53.5332    6.7102   16.2865 C   0  0  0  0  0  0  0  0  0  0  0  0
   54.0111    7.2466   15.0899 C   0  0  0  0  0  0  0  0  0  0  0  0
   51.6731    6.1409   17.9003 C   0  0  0  0  0  0  0  0  0  0  0  0
   51.3857    4.6631   17.7831 C   0  0  0  0  0  0  0  0  0  0  0  0
   50.1260    4.2100   17.3668 C   0  0  0  0  0  0  0  0  0  0  0  0
   49.8868    2.8439   17.2288 C   0  0  0  0  0  0  0  0  0  0  0  0
   50.8772    1.9088   17.4943 C   0  0  0  0  0  0  0  0  0  0  0  0
   52.1226    2.3571   17.9050 C   0  0  0  0  0  0  0  0  0  0  0  0
   52.3855    3.7167   18.0532 C   0  0  0  0  0  0  0  0  0  0  0  0
   53.0932    1.4702   18.1616 F   0  0  0  0  0  0  0  0  0  0  0  0
   48.6781    2.4216   16.8326 F   0  0  0  0  0  0  0  0  0  0  0  0
   44.0041   12.6953    7.3744 C   0  0  0  0  0  0  0  0  0  0  0  0
   44.3179    8.7348   12.3530 H   0  0  0  0  0  0  0  0  0  0  0  0
   46.5414   12.2934   11.4590 H   0  0  0  0  0  0  0  0  0  0  0  0
   46.2865    7.7766   13.4695 H   0  0  0  0  0  0  0  0  0  0  0  0
   44.8714   10.2677    9.3119 H   0  0  0  0  0  0  0  0  0  0  0  0
   43.5108    9.3820   10.0283 H   0  0  0  0  0  0  0  0  0  0  0  0
   41.9677   11.2092    9.4669 H   0  0  0  0  0  0  0  0  0  0  0  0
   42.7594   10.6135    8.0259 H   0  0  0  0  0  0  0  0  0  0  0  0
   45.2305   12.9782    9.5241 H   0  0  0  0  0  0  0  0  0  0  0  0
   44.0024   14.2160    9.7867 H   0  0  0  0  0  0  0  0  0  0  0  0
   44.4337   13.0575   11.9119 H   0  0  0  0  0  0  0  0  0  0  0  0
   42.8149   12.6730   11.3773 H   0  0  0  0  0  0  0  0  0  0  0  0
   48.6291   12.4811   12.1084 H   0  0  0  0  0  0  0  0  0  0  0  0
   49.1237   11.1372   14.7082 H   0  0  0  0  0  0  0  0  0  0  0  0
   47.1870   12.6803   14.7145 H   0  0  0  0  0  0  0  0  0  0  0  0
   48.1569   13.9249   13.9220 H   0  0  0  0  0  0  0  0  0  0  0  0
   48.6921   12.7306   16.7010 H   0  0  0  0  0  0  0  0  0  0  0  0
   48.0866   14.3482   16.3423 H   0  0  0  0  0  0  0  0  0  0  0  0
   51.9611   13.4950   15.3677 H   0  0  0  0  0  0  0  0  0  0  0  0
   50.9983   12.2246   16.1369 H   0  0  0  0  0  0  0  0  0  0  0  0
   51.2813   11.7601   13.6946 H   0  0  0  0  0  0  0  0  0  0  0  0
   50.6511   13.3658   13.3033 H   0  0  0  0  0  0  0  0  0  0  0  0
   49.8690    9.5687   12.2129 H   0  0  0  0  0  0  0  0  0  0  0  0
   54.0986    8.5480   12.4956 H   0  0  0  0  0  0  0  0  0  0  0  0
   50.2081    7.3615   15.9687 H   0  0  0  0  0  0  0  0  0  0  0  0
   54.2422    6.2517   16.9725 H   0  0  0  0  0  0  0  0  0  0  0  0
   55.0681    7.2120   14.8477 H   0  0  0  0  0  0  0  0  0  0  0  0
   52.4072    6.3176   18.6978 H   0  0  0  0  0  0  0  0  0  0  0  0
   50.7699    6.6676   18.2351 H   0  0  0  0  0  0  0  0  0  0  0  0
   49.3265    4.9104   17.1354 H   0  0  0  0  0  0  0  0  0  0  0  0
   50.6820    0.8496   17.3791 H   0  0  0  0  0  0  0  0  0  0  0  0
   53.3746    4.0248   18.3722 H   0  0  0  0  0  0  0  0  0  0  0  0
   44.2317   13.7481    7.1666 H   0  0  0  0  0  0  0  0  0  0  0  0
   43.3591   12.3458    6.5594 H   0  0  0  0  0  0  0  0  0  0  0  0
   44.9406   12.1242    7.3415 H   0  0  0  0  0  0  0  0  0  0  0  0
  1  2  2  0
  1  6  1  0
  2  3  1  0
  3  4  2  0
  4  5  1  0
  5  6  2  0
  2  7  1  0
  7  8  1  0
 12  7  1  0
  8  9  1  0
  9 10  1  0
 10 11  1  0
 11 12  1  0
  4 13  1  0
 13 14  1  0
 14 15  1  0
 19 14  1  0
 15 16  1  0
 16 17  1  0
 17 18  1  0
 18 19  1  0
  5 20  1  0
 20 21  1  0
 20 22  2  0
 21 23  1  0
 23 24  2  0
 23 27  1  0
 24 25  1  0
 25 26  1  0
 31 26  2  0
 26 27  1  0
 27 28  2  0
 28 29  1  0
 29 30  2  0
 30 31  1  0
 29 32  1  0
 32 33  1  0
 33 34  2  0
 33 38  1  0
 34 35  1  0
 35 36  2  0
 36 37  1  0
 37 38  2  0
 37 39  1  0
 35 40  1  0
 10 41  1  0
  1 42  1  0
  3 43  1  0
  6 44  1  0
  8 45  1  0
  8 46  1  0
  9 47  1  0
  9 48  1  0
 11 49  1  0
 11 50  1  0
 12 51  1  0
 12 52  1  0
 13 53  1  0
 14 54  1  0
 15 55  1  0
 15 56  1  0
 16 57  1  0
 16 58  1  0
 18 59  1  0
 18 60  1  0
 19 61  1  0
 19 62  1  0
 21 63  1  0
 25 64  1  0
 28 65  1  0
 30 66  1  0
 31 67  1  0
 32 68  1  0
 32 69  1  0
 34 70  1  0
 36 71  1  0
 38 72  1  0
 41 73  1  0
 41 74  1  0
 41 75  1  0
M  END
> <Uni-Dock RESULT> 
ENERGY=   -5.380  LOWER_BOUND=    0.000  UPPER_BOUND=    0.000
INTER + INTRA:          -5.380
INTER:                  -5.380
INTRA:                   0.000
UNBOUND:                 0.000

$$$$

     RDKit          3D

 75 80  0  0  0  0  0  0  0  0999 V2000
   45.2372    9.3148   12.3929 C   0  0  0  0  0  0  0  0  0  0  0  0
   45.2793   10.5887   11.8137 C   0  0  0  0  0  0  0  0  0  0  0  0
   46.4783   11.3081   11.9096 C   0  0  0  0  0  0  0  0  0  0  0  0
   47.6165   10.7973   12.5675 C   0  0  0  0  0  0  0  0  0  0  0  0
   47.5450    9.4979   13.1089 C   0  0  0  0  0  0  0  0  0  0  0  0
   46.3520    8.7715   13.0357 C   0  0  0  0  0  0  0  0  0  0  0  0
   44.1421   11.0680   11.1491 N   0  0  0  0  0  0  0  0  0  0  0  0
   43.9226   10.3830    9.8490 C   0  0  0  0  0  0  0  0  0  0  0  0
   42.9397   11.1716    8.9519 C   0  0  0  0  0  0  0  0  0  0  0  0
   43.3274   12.5716    8.6626 N   0  0  0  0  0  0  0  0  0  0  0  0
   44.1681   13.1341    9.7450 C   0  0  0  0  0  0  0  0  0  0  0  0
   43.8750   12.5232   11.1319 C   0  0  0  0  0  0  0  0  0  0  0  0
   48.7615   11.6306   12.6620 N   0  0  0  0  0  0  0  0  0  0  0  0
   49.1455   12.0041   14.0427 C   0  0  0  0  0  0  0  0  0  0  0  0
   48.2030   13.0704   14.6101 C   0  0  0  0  0  0  0  0  0  0  0  0
   48.7155   13.5373   15.9637 C   0  0  0  0  0  0  0  0  0  0  0  0
   50.0454   14.0402   15.8482 O   0  0  0  0  0  0  0  0  0  0  0  0
   50.9655   13.0394   15.4083 C   0  0  0  0  0  0  0  0  0  0  0  0
   50.5793   12.5382   14.0243 C   0  0  0  0  0  0  0  0  0  0  0  0
   48.7126    8.8132   13.7306 C   0  0  0  0  0  0  0  0  0  0  0  0
   49.8847    8.9814   13.0415 N   0  0  0  0  0  0  0  0  0  0  0  0
   48.5309    8.1834   14.7652 O   0  0  0  0  0  0  0  0  0  0  0  0
   51.1582    8.5817   13.3694 C   0  0  0  0  0  0  0  0  0  0  0  0
   52.1095    8.9153   12.4871 N   0  0  0  0  0  0  0  0  0  0  0  0
   53.2374    8.4297   13.0167 N   0  0  0  0  0  0  0  0  0  0  0  0
   53.0766    7.8305   14.2313 C   0  0  0  0  0  0  0  0  0  0  0  0
   51.7097    7.8967   14.4974 C   0  0  0  0  0  0  0  0  0  0  0  0
   51.2600    7.3389   15.7119 C   0  0  0  0  0  0  0  0  0  0  0  0
   52.1717    6.7490   16.6111 C   0  0  0  0  0  0  0  0  0  0  0  0
   53.5319    6.7093   16.2880 C   0  0  0  0  0  0  0  0  0  0  0  0
   54.0103    7.2462   15.0919 C   0  0  0  0  0  0  0  0  0  0  0  0
   51.6712    6.1392   17.9008 C   0  0  0  0  0  0  0  0  0  0  0  0
   51.3840    4.6613   17.7830 C   0  0  0  0  0  0  0  0  0  0  0  0
   50.1246    4.2082   17.3660 C   0  0  0  0  0  0  0  0  0  0  0  0
   49.8856    2.8421   17.2274 C   0  0  0  0  0  0  0  0  0  0  0  0
   50.8760    1.9071   17.4930 C   0  0  0  0  0  0  0  0  0  0  0  0
   52.1212    2.3554   17.9044 C   0  0  0  0  0  0  0  0  0  0  0  0
   52.3838    3.7151   18.0532 C   0  0  0  0  0  0  0  0  0  0  0  0
   53.0918    1.4686   18.1611 F   0  0  0  0  0  0  0  0  0  0  0  0
   48.6772    2.4198   16.8305 F   0  0  0  0  0  0  0  0  0  0  0  0
   44.0060   12.6960    7.3736 C   0  0  0  0  0  0  0  0  0  0  0  0
   44.3181    8.7339   12.3510 H   0  0  0  0  0  0  0  0  0  0  0  0
   46.5416   12.2931   11.4593 H   0  0  0  0  0  0  0  0  0  0  0  0
   46.2863    7.7756   13.4681 H   0  0  0  0  0  0  0  0  0  0  0  0
   44.8728   10.2679    9.3107 H   0  0  0  0  0  0  0  0  0  0  0  0
   43.5119    9.3818   10.0262 H   0  0  0  0  0  0  0  0  0  0  0  0
   41.9688   11.2089    9.4647 H   0  0  0  0  0  0  0  0  0  0  0  0
   42.7613   10.6138    8.0239 H   0  0  0  0  0  0  0  0  0  0  0  0
   45.2314   12.9784    9.5240 H   0  0  0  0  0  0  0  0  0  0  0  0
   44.0030   14.2160    9.7865 H   0  0  0  0  0  0  0  0  0  0  0  0
   44.4335   13.0568   11.9115 H   0  0  0  0  0  0  0  0  0  0  0  0
   42.8150   12.6722   11.3759 H   0  0  0  0  0  0  0  0  0  0  0  0
   48.6289   12.4809   12.1096 H   0  0  0  0  0  0  0  0  0  0  0  0
   49.1226   11.1362   14.7093 H   0  0  0  0  0  0  0  0  0  0  0  0
   47.1856   12.6790   14.7152 H   0  0  0  0  0  0  0  0  0  0  0  0
   48.1556   13.9241   13.9236 H   0  0  0  0  0  0  0  0  0  0  0  0
   48.6898   12.7289   16.7024 H   0  0  0  0  0  0  0  0  0  0  0  0
   48.0843   14.3465   16.3440 H   0  0  0  0  0  0  0  0  0  0  0  0
   51.9593   13.4942   15.3708 H   0  0  0  0  0  0  0  0  0  0  0  0
   50.9963   12.2234   16.1391 H   0  0  0  0  0  0  0  0  0  0  0  0
   51.2805   11.7597   13.6968 H   0  0  0  0  0  0  0  0  0  0  0  0
   50.6502   13.3655   13.3058 H   0  0  0  0  0  0  0  0  0  0  0  0
   49.8691    9.5687   12.2137 H   0  0  0  0  0  0  0  0  0  0  0  0
   54.0988    8.5485   12.4980 H   0  0  0  0  0  0  0  0  0  0  0  0
   50.2069    7.3602   15.9689 H   0  0  0  0  0  0  0  0  0  0  0  0
   54.2406    6.2506   16.9742 H   0  0  0  0  0  0  0  0  0  0  0  0
   55.0674    7.2117   14.8502 H   0  0  0  0  0  0  0  0  0  0  0  0
   52.4049    6.3157   18.6987 H   0  0  0  0  0  0  0  0  0  0  0  0
   50.7678    6.6656   18.2354 H   0  0  0  0  0  0  0  0  0  0  0  0
   49.3250    4.9086   17.1344 H   0  0  0  0  0  0  0  0  0  0  0  0
   50.6810    0.8479   17.3774 H   0  0  0  0  0  0  0  0  0  0  0  0
   53.3728    4.0231   18.3728 H   0  0  0  0  0  0  0  0  0  0  0  0
   44.2336   13.7489    7.1663 H   0  0  0  0  0  0  0  0  0  0  0  0
   43.3615   12.3468    6.5583 H   0  0  0  0  0  0  0  0  0  0  0  0
   44.9426   12.1251    7.3409 H   0  0  0  0  0  0  0  0  0  0  0  0
  1  2  2  0
  1  6  1  0
  2  3  1  0
  3  4  2  0
  4  5  1  0
  5  6  2  0
  2  7  1  0
  7  8  1  0
 12  7  1  0
  8  9  1  0
  9 10  1  0
 10 11  1  0
 11 12  1  0
  4 13  1  0
 13 14  1  0
 14 15  1  0
 19 14  1  0
 15 16  1  0
 16 17  1  0
 17 18  1  0
 18 19  1  0
  5 20  1  0
 20 21  1  0
 20 22  2  0
 21 23  1  0
 23 24  2  0
 23 27  1  0
 24 25  1  0
 25 26  1  0
 31 26  2  0
 26 27  1  0
 27 28  2  0
 28 29  1  0
 29 30  2  0
 30 31  1  0
 29 32  1  0
 32 33  1  0
 33 34  2  0
 33 38  1  0
 34 35  1  0
 35 36  2  0
 36 37  1  0
 37 38  2  0
 37 39  1  0
 35 40  1  0
 10 41  1  0
  1 42  1  0
  3 43  1  0
  6 44  1  0
  8 45  1  0
  8 46  1  0
  9 47  1  0
  9 48  1  0
 11 49  1  0
 11 50  1  0
 12 51  1  0
 12 52  1  0
 13 53  1  0
 14 54  1  0
 15 55  1  0
 15 56  1  0
 16 57  1  0
 16 58  1  0
 18 59  1  0
 18 60  1  0
 19 61  1  0
 19 62  1  0
 21 63  1  0
 25 64  1  0
 28 65  1  0
 30 66  1  0
 31 67  1  0
 32 68  1  0
 32 69  1  0
 34 70  1  0
 36 71  1  0
 38 72  1  0
 41 73  1  0
 41 74  1  0
 41 75  1  0
M  END
> <Uni-Dock RESULT> 
ENERGY=   -5.378  LOWER_BOUND=    0.002  UPPER_BOUND=    0.002
INTER + INTRA:          -5.378
INTER:                  -5.378
INTRA:                   0.000
UNBOUND:                 0.000

$$$$

     RDKit          3D

 75 80  0  0  0  0  0  0  0  0999 V2000
   45.2331    9.3102   12.3877 C   0  0  0  0  0  0  0  0  0  0  0  0
   45.2756   10.5853   11.8113 C   0  0  0  0  0  0  0  0  0  0  0  0
   46.4740   11.3053   11.9115 C   0  0  0  0  0  0  0  0  0  0  0  0
   47.6111   10.7938   12.5708 C   0  0  0  0  0  0  0  0  0  0  0  0
   47.5392    9.4933   13.1093 C   0  0  0  0  0  0  0  0  0  0  0  0
   46.3468    8.7662   13.0318 C   0  0  0  0  0  0  0  0  0  0  0  0
   44.1396   11.0653   11.1452 N   0  0  0  0  0  0  0  0  0  0  0  0
   43.9235   10.3830    9.8432 C   0  0  0  0  0  0  0  0  0  0  0  0
   42.9421   11.1729    8.9455 C   0  0  0  0  0  0  0  0  0  0  0  0
   43.3295   12.5738    8.6601 N   0  0  0  0  0  0  0  0  0  0  0  0
   44.1675   13.1345    9.7456 C   0  0  0  0  0  0  0  0  0  0  0  0
   43.8717   12.5204   11.1305 C   0  0  0  0  0  0  0  0  0  0  0  0
   48.7553   11.6277   12.6696 N   0  0  0  0  0  0  0  0  0  0  0  0
   49.1360   11.9985   14.0520 C   0  0  0  0  0  0  0  0  0  0  0  0
   48.1915   13.0630   14.6196 C   0  0  0  0  0  0  0  0  0  0  0  0
   48.7007   13.5272   15.9753 C   0  0  0  0  0  0  0  0  0  0  0  0
   50.0305   14.0312   15.8639 O   0  0  0  0  0  0  0  0  0  0  0  0
   50.9523   13.0320   15.4239 C   0  0  0  0  0  0  0  0  0  0  0  0
   50.5695   12.5335   14.0379 C   0  0  0  0  0  0  0  0  0  0  0  0
   48.7059    8.8079   13.7320 C   0  0  0  0  0  0  0  0  0  0  0  0
   49.8793    8.9783   13.0459 N   0  0  0  0  0  0  0  0  0  0  0  0
   48.5222    8.1759   14.7649 O   0  0  0  0  0  0  0  0  0  0  0  0
   51.1524    8.5788   13.3758 C   0  0  0  0  0  0  0  0  0  0  0  0
   52.1055    8.9150   12.4964 N   0  0  0  0  0  0  0  0  0  0  0  0
   53.2325    8.4289   13.0275 N   0  0  0  0  0  0  0  0  0  0  0  0
   53.0694    7.8270   14.2404 C   0  0  0  0  0  0  0  0  0  0  0  0
   51.7018    7.8917   14.5036 C   0  0  0  0  0  0  0  0  0  0  0  0
   51.2497    7.3310   15.7159 C   0  0  0  0  0  0  0  0  0  0  0  0
   52.1598    6.7398   16.6159 C   0  0  0  0  0  0  0  0  0  0  0  0
   53.5208    6.7017   16.2957 C   0  0  0  0  0  0  0  0  0  0  0  0
   54.0015    7.2414   15.1018 C   0  0  0  0  0  0  0  0  0  0  0  0
   51.6568    6.1269   17.9032 C   0  0  0  0  0  0  0  0  0  0  0  0
   51.3709    4.6491   17.7815 C   0  0  0  0  0  0  0  0  0  0  0  0
   50.1127    4.1961   17.3607 C   0  0  0  0  0  0  0  0  0  0  0  0
   49.8749    2.8301   17.2186 C   0  0  0  0  0  0  0  0  0  0  0  0
   50.8653    1.8952   17.4844 C   0  0  0  0  0  0  0  0  0  0  0  0
   52.1093    2.3434   17.8996 C   0  0  0  0  0  0  0  0  0  0  0  0
   52.3707    3.7029   18.0519 C   0  0  0  0  0  0  0  0  0  0  0  0
   53.0799    1.4566   18.1566 F   0  0  0  0  0  0  0  0  0  0  0  0
   48.6677    2.4079   16.8181 F   0  0  0  0  0  0  0  0  0  0  0  0
   44.0110   12.7014    7.3729 C   0  0  0  0  0  0  0  0  0  0  0  0
   44.3145    8.7288   12.3425 H   0  0  0  0  0  0  0  0  0  0  0  0
   46.5376   12.2914   11.4634 H   0  0  0  0  0  0  0  0  0  0  0  0
   46.2808    7.7694   13.4619 H   0  0  0  0  0  0  0  0  0  0  0  0
   44.8750   10.2697    9.3067 H   0  0  0  0  0  0  0  0  0  0  0  0
   43.5131    9.3812   10.0173 H   0  0  0  0  0  0  0  0  0  0  0  0
   41.9701   11.2085    9.4562 H   0  0  0  0  0  0  0  0  0  0  0  0
   42.7662   10.6170    8.0160 H   0  0  0  0  0  0  0  0  0  0  0  0
   45.2314   12.9799    9.5267 H   0  0  0  0  0  0  0  0  0  0  0  0
   44.0016   14.2162    9.7890 H   0  0  0  0  0  0  0  0  0  0  0  0
   44.4281   13.0527   11.9125 H   0  0  0  0  0  0  0  0  0  0  0  0
   42.8110   12.6682   11.3725 H   0  0  0  0  0  0  0  0  0  0  0  0
   48.6234   12.4791   12.1188 H   0  0  0  0  0  0  0  0  0  0  0  0
   49.1121   11.1291   14.7166 H   0  0  0  0  0  0  0  0  0  0  0  0
   47.1741   12.6707   14.7216 H   0  0  0  0  0  0  0  0  0  0  0  0
   48.1452   13.9180   13.9348 H   0  0  0  0  0  0  0  0  0  0  0  0
   48.6739   12.7172   16.7122 H   0  0  0  0  0  0  0  0  0  0  0  0
   48.0681   14.3352   16.3559 H   0  0  0  0  0  0  0  0  0  0  0  0
   51.9458   13.4875   15.3896 H   0  0  0  0  0  0  0  0  0  0  0  0
   50.9820   12.2144   16.1530 H   0  0  0  0  0  0  0  0  0  0  0  0
   51.2719   11.7562   13.7104 H   0  0  0  0  0  0  0  0  0  0  0  0
   50.6415   13.3624   13.3214 H   0  0  0  0  0  0  0  0  0  0  0  0
   49.8653    9.5674   12.2194 H   0  0  0  0  0  0  0  0  0  0  0  0
   54.0949    8.5493   12.5110 H   0  0  0  0  0  0  0  0  0  0  0  0
   50.1960    7.3511   15.9706 H   0  0  0  0  0  0  0  0  0  0  0  0
   54.2283    6.2420   16.9825 H   0  0  0  0  0  0  0  0  0  0  0  0
   55.0592    7.2082   14.8624 H   0  0  0  0  0  0  0  0  0  0  0  0
   52.3886    6.3021   18.7031 H   0  0  0  0  0  0  0  0  0  0  0  0
   50.7523    6.6520   18.2368 H   0  0  0  0  0  0  0  0  0  0  0  0
   49.3132    4.8964   17.1289 H   0  0  0  0  0  0  0  0  0  0  0  0
   50.6712    0.8361   17.3662 H   0  0  0  0  0  0  0  0  0  0  0  0
   53.3587    4.0109   18.3744 H   0  0  0  0  0  0  0  0  0  0  0  0
   44.2383   13.7549    7.1684 H   0  0  0  0  0  0  0  0  0  0  0  0
   43.3685   12.3535    6.5554 H   0  0  0  0  0  0  0  0  0  0  0  0
   44.9480   12.1312    7.3411 H   0  0  0  0  0  0  0  0  0  0  0  0
  1  2  2  0
  1  6  1  0
  2  3  1  0
  3  4  2  0
  4  5  1  0
  5  6  2  0
  2  7  1  0
  7  8  1  0
 12  7  1  0
  8  9  1  0
  9 10  1  0
 10 11  1  0
 11 12  1  0
  4 13  1  0
 13 14  1  0
 14 15  1  0
 19 14  1  0
 15 16  1  0
 16 17  1  0
 17 18  1  0
 18 19  1  0
  5 20  1  0
 20 21  1  0
 20 22  2  0
 21 23  1  0
 23 24  2  0
 23 27  1  0
 24 25  1  0
 25 26  1  0
 31 26  2  0
 26 27  1  0
 27 28  2  0
 28 29  1  0
 29 30  2  0
 30 31  1  0
 29 32  1  0
 32 33  1  0
 33 34  2  0
 33 38  1  0
 34 35  1  0
 35 36  2  0
 36 37  1  0
 37 38  2  0
 37 39  1  0
 35 40  1  0
 10 41  1  0
  1 42  1  0
  3 43  1  0
  6 44  1  0
  8 45  1  0
  8 46  1  0
  9 47  1  0
  9 48  1  0
 11 49  1  0
 11 50  1  0
 12 51  1  0
 12 52  1  0
 13 53  1  0
 14 54  1  0
 15 55  1  0
 15 56  1  0
 16 57  1  0
 16 58  1  0
 18 59  1  0
 18 60  1  0
 19 61  1  0
 19 62  1  0
 21 63  1  0
 25 64  1  0
 28 65  1  0
 30 66  1  0
 31 67  1  0
 32 68  1  0
 32 69  1  0
 34 70  1  0
 36 71  1  0
 38 72  1  0
 41 73  1  0
 41 74  1  0
 41 75  1  0
M  END
> <Uni-Dock RESULT> 
ENERGY=   -5.378  LOWER_BOUND=    0.015  UPPER_BOUND=    0.015
INTER + INTRA:          -5.378
INTER:                  -5.378
INTRA:                   0.000
UNBOUND:                 0.000

$$$$

     RDKit          3D

 75 80  0  0  0  0  0  0  0  0999 V2000
   45.6629    8.0359   13.0163 C   0  0  0  0  0  0  0  0  0  0  0  0
   44.6869    7.2736   12.3634 C   0  0  0  0  0  0  0  0  0  0  0  0
   43.9350    7.9003   11.3602 C   0  0  0  0  0  0  0  0  0  0  0  0
   44.1256    9.2518   11.0045 C   0  0  0  0  0  0  0  0  0  0  0  0
   45.1403    9.9762   11.6620 C   0  0  0  0  0  0  0  0  0  0  0  0
   45.8902    9.3714   12.6760 C   0  0  0  0  0  0  0  0  0  0  0  0
   44.5281    5.9276   12.7207 N   0  0  0  0  0  0  0  0  0  0  0  0
   45.6477    5.0822   12.2314 C   0  0  0  0  0  0  0  0  0  0  0  0
   45.2796    3.5801   12.2640 C   0  0  0  0  0  0  0  0  0  0  0  0
   44.0669    3.2066   11.4999 N   0  0  0  0  0  0  0  0  0  0  0  0
   43.1159    4.3388   11.4081 C   0  0  0  0  0  0  0  0  0  0  0  0
   43.1909    5.3039   12.6105 C   0  0  0  0  0  0  0  0  0  0  0  0
   43.2704    9.8081   10.0178 N   0  0  0  0  0  0  0  0  0  0  0  0
   42.4048   10.9103   10.4963 C   0  0  0  0  0  0  0  0  0  0  0  0
   41.2433   10.3756   11.3403 C   0  0  0  0  0  0  0  0  0  0  0  0
   40.2956   11.5140   11.6849 C   0  0  0  0  0  0  0  0  0  0  0  0
   39.8170   12.1427   10.4973 O   0  0  0  0  0  0  0  0  0  0  0  0
   40.8720   12.7324    9.7349 C   0  0  0  0  0  0  0  0  0  0  0  0
   41.8577   11.6649    9.2827 C   0  0  0  0  0  0  0  0  0  0  0  0
   45.5047   11.3738   11.2979 C   0  0  0  0  0  0  0  0  0  0  0  0
   45.5527   11.5997    9.9475 N   0  0  0  0  0  0  0  0  0  0  0  0
   45.7211   12.1700   12.2030 O   0  0  0  0  0  0  0  0  0  0  0  0
   45.7546   12.7744    9.2630 C   0  0  0  0  0  0  0  0  0  0  0  0
   45.7278   12.6723    7.9275 N   0  0  0  0  0  0  0  0  0  0  0  0
   45.9421   13.9197    7.4957 N   0  0  0  0  0  0  0  0  0  0  0  0
   46.0637   14.8463    8.4890 C   0  0  0  0  0  0  0  0  0  0  0  0
   45.9593   14.1275    9.6790 C   0  0  0  0  0  0  0  0  0  0  0  0
   46.0539   14.8544   10.8836 C   0  0  0  0  0  0  0  0  0  0  0  0
   46.2392   16.2519   10.8651 C   0  0  0  0  0  0  0  0  0  0  0  0
   46.3398   16.9186    9.6397 C   0  0  0  0  0  0  0  0  0  0  0  0
   46.2569   16.2293    8.4289 C   0  0  0  0  0  0  0  0  0  0  0  0
   46.3567   17.0143   12.1654 C   0  0  0  0  0  0  0  0  0  0  0  0
   47.7861   17.1915   12.6190 C   0  0  0  0  0  0  0  0  0  0  0  0
   48.4095   16.2208   13.4155 C   0  0  0  0  0  0  0  0  0  0  0  0
   49.7406   16.3809   13.7964 C   0  0  0  0  0  0  0  0  0  0  0  0
   50.4746   17.4901   13.4005 C   0  0  0  0  0  0  0  0  0  0  0  0
   49.8582   18.4491   12.6124 C   0  0  0  0  0  0  0  0  0  0  0  0
   48.5285   18.3134   12.2211 C   0  0  0  0  0  0  0  0  0  0  0  0
   50.5515   19.5247   12.2161 F   0  0  0  0  0  0  0  0  0  0  0  0
   50.3260   15.4480   14.5600 F   0  0  0  0  0  0  0  0  0  0  0  0
   44.3936    2.7064   10.1655 C   0  0  0  0  0  0  0  0  0  0  0  0
   46.2551    7.5866   13.8109 H   0  0  0  0  0  0  0  0  0  0  0  0
   43.1800    7.3291   10.8303 H   0  0  0  0  0  0  0  0  0  0  0  0
   46.6619    9.9318   13.1989 H   0  0  0  0  0  0  0  0  0  0  0  0
   45.9131    5.3554   11.2014 H   0  0  0  0  0  0  0  0  0  0  0  0
   46.5309    5.2421   12.8610 H   0  0  0  0  0  0  0  0  0  0  0  0
   45.0965    3.2991   13.3101 H   0  0  0  0  0  0  0  0  0  0  0  0
   46.1436    2.9834   11.9456 H   0  0  0  0  0  0  0  0  0  0  0  0
   43.2991    4.9197   10.4956 H   0  0  0  0  0  0  0  0  0  0  0  0
   42.1007    3.9348   11.3341 H   0  0  0  0  0  0  0  0  0  0  0  0
   42.3883    6.0502   12.5535 H   0  0  0  0  0  0  0  0  0  0  0  0
   43.0054    4.7434   13.5361 H   0  0  0  0  0  0  0  0  0  0  0  0
   42.6856    9.0792    9.6024 H   0  0  0  0  0  0  0  0  0  0  0  0
   42.9705   11.6237   11.1039 H   0  0  0  0  0  0  0  0  0  0  0  0
   41.6096    9.9084   12.2606 H   0  0  0  0  0  0  0  0  0  0  0  0
   40.7010    9.6071   10.7769 H   0  0  0  0  0  0  0  0  0  0  0  0
   40.7798   12.2581   12.3266 H   0  0  0  0  0  0  0  0  0  0  0  0
   39.4292   11.1274   12.2306 H   0  0  0  0  0  0  0  0  0  0  0  0
   40.4230   13.2126    8.8610 H   0  0  0  0  0  0  0  0  0  0  0  0
   41.3638   13.5099   10.3304 H   0  0  0  0  0  0  0  0  0  0  0  0
   42.6735   12.1245    8.7099 H   0  0  0  0  0  0  0  0  0  0  0  0
   41.3468   10.9585    8.6151 H   0  0  0  0  0  0  0  0  0  0  0  0
   45.3083   10.8333    9.3285 H   0  0  0  0  0  0  0  0  0  0  0  0
   45.9864   14.0787    6.4967 H   0  0  0  0  0  0  0  0  0  0  0  0
   45.9822   14.3459   11.8385 H   0  0  0  0  0  0  0  0  0  0  0  0
   46.4886   17.9960    9.6174 H   0  0  0  0  0  0  0  0  0  0  0  0
   46.3351   16.7551    7.4831 H   0  0  0  0  0  0  0  0  0  0  0  0
   45.8728   17.9946   12.0606 H   0  0  0  0  0  0  0  0  0  0  0  0
   45.7808   16.5047   12.9489 H   0  0  0  0  0  0  0  0  0  0  0  0
   47.8739   15.3298   13.7359 H   0  0  0  0  0  0  0  0  0  0  0  0
   51.5100   17.6022   13.6983 H   0  0  0  0  0  0  0  0  0  0  0  0
   48.0863   19.0845   11.6008 H   0  0  0  0  0  0  0  0  0  0  0  0
   43.4804    2.3912    9.6458 H   0  0  0  0  0  0  0  0  0  0  0  0
   45.0411    1.8237   10.2276 H   0  0  0  0  0  0  0  0  0  0  0  0
   44.8996    3.4622    9.5515 H   0  0  0  0  0  0  0  0  0  0  0  0
  1  2  2  0
  1  6  1  0
  2  3  1  0
  3  4  2  0
  4  5  1  0
  5  6  2  0
  2  7  1  0
  7  8  1  0
 12  7  1  0
  8  9  1  0
  9 10  1  0
 10 11  1  0
 11 12  1  0
  4 13  1  0
 13 14  1  0
 14 15  1  0
 19 14  1  0
 15 16  1  0
 16 17  1  0
 17 18  1  0
 18 19  1  0
  5 20  1  0
 20 21  1  0
 20 22  2  0
 21 23  1  0
 23 24  2  0
 23 27  1  0
 24 25  1  0
 25 26  1  0
 31 26  2  0
 26 27  1  0
 27 28  2  0
 28 29  1  0
 29 30  2  0
 30 31  1  0
 29 32  1  0
 32 33  1  0
 33 34  2  0
 33 38  1  0
 34 35  1  0
 35 36  2  0
 36 37  1  0
 37 38  2  0
 37 39  1  0
 35 40  1  0
 10 41  1  0
  1 42  1  0
  3 43  1  0
  6 44  1  0
  8 45  1  0
  8 46  1  0
  9 47  1  0
  9 48  1  0
 11 49  1  0
 11 50  1  0
 12 51  1  0
 12 52  1  0
 13 53  1  0
 14 54  1  0
 15 55  1  0
 15 56  1  0
 16 57  1  0
 16 58  1  0
 18 59  1  0
 18 60  1  0
 19 61  1  0
 19 62  1  0
 21 63  1  0
 25 64  1  0
 28 65  1  0
 30 66  1  0
 31 67  1  0
 32 68  1  0
 32 69  1  0
 34 70  1  0
 36 71  1  0
 38 72  1  0
 41 73  1  0
 41 74  1  0
 41 75  1  0
M  END
> <Uni-Dock RESULT> 
ENERGY=   -4.836  LOWER_BOUND=    6.214  UPPER_BOUND=   10.452
INTER + INTRA:          -4.836
INTER:                  -4.836
INTRA:                   0.000
UNBOUND:                 0.000

$$$$

     RDKit          3D

 75 80  0  0  0  0  0  0  0  0999 V2000
   53.9775    7.9882   13.8288 C   0  0  0  0  0  0  0  0  0  0  0  0
   54.0705    7.3095   15.0497 C   0  0  0  0  0  0  0  0  0  0  0  0
   52.8948    7.1471   15.7953 C   0  0  0  0  0  0  0  0  0  0  0  0
   51.6489    7.6461   15.3616 C   0  0  0  0  0  0  0  0  0  0  0  0
   51.5904    8.2946   14.1116 C   0  0  0  0  0  0  0  0  0  0  0  0
   52.7562    8.4788   13.3610 C   0  0  0  0  0  0  0  0  0  0  0  0
   55.3155    6.8063   15.4514 N   0  0  0  0  0  0  0  0  0  0  0  0
   55.7236    5.6200   14.6554 C   0  0  0  0  0  0  0  0  0  0  0  0
   56.8642    4.8378   15.3483 C   0  0  0  0  0  0  0  0  0  0  0  0
   56.5727    4.3766   16.7254 N   0  0  0  0  0  0  0  0  0  0  0  0
   55.5839    5.2557   17.3918 C   0  0  0  0  0  0  0  0  0  0  0  0
   55.6267    6.7166   16.8951 C   0  0  0  0  0  0  0  0  0  0  0  0
   50.5303    7.4820   16.2196 N   0  0  0  0  0  0  0  0  0  0  0  0
   49.9371    8.7454   16.7150 C   0  0  0  0  0  0  0  0  0  0  0  0
   50.8065    9.3736   17.8089 C   0  0  0  0  0  0  0  0  0  0  0  0
   50.0939   10.5814   18.3972 C   0  0  0  0  0  0  0  0  0  0  0  0
   48.8171   10.2070   18.9115 O   0  0  0  0  0  0  0  0  0  0  0  0
   47.9509    9.7024   17.8932 C   0  0  0  0  0  0  0  0  0  0  0  0
   48.5429    8.4465   17.2703 C   0  0  0  0  0  0  0  0  0  0  0  0
   50.3160    8.7670   13.5021 C   0  0  0  0  0  0  0  0  0  0  0  0
   49.2785    7.8818   13.6317 N   0  0  0  0  0  0  0  0  0  0  0  0
   50.3063    9.8647   12.9589 O   0  0  0  0  0  0  0  0  0  0  0  0
   47.9567    8.0251   13.2833 C   0  0  0  0  0  0  0  0  0  0  0  0
   47.1736    6.9733   13.5576 N   0  0  0  0  0  0  0  0  0  0  0  0
   45.9597    7.3459   13.1380 N   0  0  0  0  0  0  0  0  0  0  0  0
   45.9006    8.6145   12.6408 C   0  0  0  0  0  0  0  0  0  0  0  0
   47.2069    9.0974   12.7056 C   0  0  0  0  0  0  0  0  0  0  0  0
   47.4341   10.4106   12.2446 C   0  0  0  0  0  0  0  0  0  0  0  0
   46.3695   11.1906   11.7486 C   0  0  0  0  0  0  0  0  0  0  0  0
   45.0801   10.6507   11.7054 C   0  0  0  0  0  0  0  0  0  0  0  0
   44.8210    9.3525   12.1475 C   0  0  0  0  0  0  0  0  0  0  0  0
   46.6329   12.5903   11.2414 C   0  0  0  0  0  0  0  0  0  0  0  0
   46.8895   12.6409    9.7541 C   0  0  0  0  0  0  0  0  0  0  0  0
   48.1855   12.4764    9.2457 C   0  0  0  0  0  0  0  0  0  0  0  0
   48.4015   12.4897    7.8688 C   0  0  0  0  0  0  0  0  0  0  0  0
   47.3525   12.6617    6.9769 C   0  0  0  0  0  0  0  0  0  0  0  0
   46.0712   12.8235    7.4798 C   0  0  0  0  0  0  0  0  0  0  0  0
   45.8301   12.8169    8.8514 C   0  0  0  0  0  0  0  0  0  0  0  0
   45.0446   12.9862    6.6347 F   0  0  0  0  0  0  0  0  0  0  0  0
   49.6449   12.3339    7.3937 F   0  0  0  0  0  0  0  0  0  0  0  0
   56.1186    2.9871   16.7522 C   0  0  0  0  0  0  0  0  0  0  0  0
   54.8726    8.1462   13.2306 H   0  0  0  0  0  0  0  0  0  0  0  0
   52.9367    6.6147   16.7397 H   0  0  0  0  0  0  0  0  0  0  0  0
   52.7192    8.9948   12.4043 H   0  0  0  0  0  0  0  0  0  0  0  0
   54.8713    4.9426   14.5118 H   0  0  0  0  0  0  0  0  0  0  0  0
   56.0685    5.9427   13.6658 H   0  0  0  0  0  0  0  0  0  0  0  0
   57.7386    5.4998   15.4120 H   0  0  0  0  0  0  0  0  0  0  0  0
   57.1748    4.0002   14.7112 H   0  0  0  0  0  0  0  0  0  0  0  0
   54.5668    4.8748   17.2363 H   0  0  0  0  0  0  0  0  0  0  0  0
   55.7734    5.2369   18.4702 H   0  0  0  0  0  0  0  0  0  0  0  0
   54.9649    7.3474   17.5023 H   0  0  0  0  0  0  0  0  0  0  0  0
   56.6365    7.1203   17.0459 H   0  0  0  0  0  0  0  0  0  0  0  0
   50.7779    6.8927   17.0179 H   0  0  0  0  0  0  0  0  0  0  0  0
   49.8236    9.4741   15.9062 H   0  0  0  0  0  0  0  0  0  0  0  0
   51.7803    9.6771   17.4102 H   0  0  0  0  0  0  0  0  0  0  0  0
   50.9921    8.6380   18.6006 H   0  0  0  0  0  0  0  0  0  0  0  0
   49.9731   11.3768   17.6538 H   0  0  0  0  0  0  0  0  0  0  0  0
   50.6791   10.9948   19.2246 H   0  0  0  0  0  0  0  0  0  0  0  0
   46.9913    9.4643   18.3603 H   0  0  0  0  0  0  0  0  0  0  0  0
   47.7755   10.4813   17.1425 H   0  0  0  0  0  0  0  0  0  0  0  0
   47.8810    8.0710   16.4792 H   0  0  0  0  0  0  0  0  0  0  0  0
   48.6163    7.6620   18.0351 H   0  0  0  0  0  0  0  0  0  0  0  0
   49.4477    7.0236   14.1467 H   0  0  0  0  0  0  0  0  0  0  0  0
   45.1990    6.6837   13.2274 H   0  0  0  0  0  0  0  0  0  0  0  0
   48.4310   10.8361   12.2693 H   0  0  0  0  0  0  0  0  0  0  0  0
   44.2546   11.2445   11.3186 H   0  0  0  0  0  0  0  0  0  0  0  0
   43.8172    8.9424   12.1111 H   0  0  0  0  0  0  0  0  0  0  0  0
   45.7842   13.2387   11.4973 H   0  0  0  0  0  0  0  0  0  0  0  0
   47.4851   13.0266   11.7785 H   0  0  0  0  0  0  0  0  0  0  0  0
   49.0336   12.3250    9.9101 H   0  0  0  0  0  0  0  0  0  0  0  0
   47.5309   12.6656    5.9085 H   0  0  0  0  0  0  0  0  0  0  0  0
   44.8122   12.9422    9.2025 H   0  0  0  0  0  0  0  0  0  0  0  0
   55.9608    2.6609   17.7877 H   0  0  0  0  0  0  0  0  0  0  0  0
   56.8769    2.3207   16.3243 H   0  0  0  0  0  0  0  0  0  0  0  0
   55.1827    2.8456   16.1969 H   0  0  0  0  0  0  0  0  0  0  0  0
  1  2  2  0
  1  6  1  0
  2  3  1  0
  3  4  2  0
  4  5  1  0
  5  6  2  0
  2  7  1  0
  7  8  1  0
 12  7  1  0
  8  9  1  0
  9 10  1  0
 10 11  1  0
 11 12  1  0
  4 13  1  0
 13 14  1  0
 14 15  1  0
 19 14  1  0
 15 16  1  0
 16 17  1  0
 17 18  1  0
 18 19  1  0
  5 20  1  0
 20 21  1  0
 20 22  2  0
 21 23  1  0
 23 24  2  0
 23 27  1  0
 24 25  1  0
 25 26  1  0
 31 26  2  0
 26 27  1  0
 27 28  2  0
 28 29  1  0
 29 30  2  0
 30 31  1  0
 29 32  1  0
 32 33  1  0
 33 34  2  0
 33 38  1  0
 34 35  1  0
 35 36  2  0
 36 37  1  0
 37 38  2  0
 37 39  1  0
 35 40  1  0
 10 41  1  0
  1 42  1  0
  3 43  1  0
  6 44  1  0
  8 45  1  0
  8 46  1  0
  9 47  1  0
  9 48  1  0
 11 49  1  0
 11 50  1  0
 12 51  1  0
 12 52  1  0
 13 53  1  0
 14 54  1  0
 15 55  1  0
 15 56  1  0
 16 57  1  0
 16 58  1  0
 18 59  1  0
 18 60  1  0
 19 61  1  0
 19 62  1  0
 21 63  1  0
 25 64  1  0
 28 65  1  0
 30 66  1  0
 31 67  1  0
 32 68  1  0
 32 69  1  0
 34 70  1  0
 36 71  1  0
 38 72  1  0
 41 73  1  0
 41 74  1  0
 41 75  1  0
M  END
> <Uni-Dock RESULT> 
ENERGY=   -4.831  LOWER_BOUND=    4.465  UPPER_BOUND=   10.536
INTER + INTRA:          -4.831
INTER:                  -4.831
INTRA:                   0.000
UNBOUND:                 0.000

$$$$

     RDKit          3D

 75 80  0  0  0  0  0  0  0  0999 V2000
   53.8840    8.0072   13.8211 C   0  0  0  0  0  0  0  0  0  0  0  0
   53.9770    7.3310   15.0434 C   0  0  0  0  0  0  0  0  0  0  0  0
   52.8012    7.1694   15.7890 C   0  0  0  0  0  0  0  0  0  0  0  0
   51.5551    7.6666   15.3539 C   0  0  0  0  0  0  0  0  0  0  0  0
   51.4966    8.3124   14.1025 C   0  0  0  0  0  0  0  0  0  0  0  0
   52.6625    8.4960   13.3519 C   0  0  0  0  0  0  0  0  0  0  0  0
   55.2222    6.8295   15.4466 N   0  0  0  0  0  0  0  0  0  0  0  0
   55.6315    5.6419   14.6532 C   0  0  0  0  0  0  0  0  0  0  0  0
   56.7723    4.8619   15.3481 C   0  0  0  0  0  0  0  0  0  0  0  0
   56.4807    4.4033   16.7260 N   0  0  0  0  0  0  0  0  0  0  0  0
   55.4910    5.2832   17.3903 C   0  0  0  0  0  0  0  0  0  0  0  0
   55.5330    6.7430   16.8906 C   0  0  0  0  0  0  0  0  0  0  0  0
   50.4363    7.5035   16.2118 N   0  0  0  0  0  0  0  0  0  0  0  0
   49.8421    8.7675   16.7044 C   0  0  0  0  0  0  0  0  0  0  0  0
   50.7107    9.3985   17.7974 C   0  0  0  0  0  0  0  0  0  0  0  0
   49.9971   10.6071   18.3829 C   0  0  0  0  0  0  0  0  0  0  0  0
   48.7204   10.2328   18.8975 O   0  0  0  0  0  0  0  0  0  0  0  0
   47.8548    9.7256   17.8800 C   0  0  0  0  0  0  0  0  0  0  0  0
   48.4479    8.4688   17.2599 C   0  0  0  0  0  0  0  0  0  0  0  0
   50.2221    8.7827   13.4916 C   0  0  0  0  0  0  0  0  0  0  0  0
   49.1851    7.8971   13.6227 N   0  0  0  0  0  0  0  0  0  0  0  0
   50.2117    9.8793   12.9462 O   0  0  0  0  0  0  0  0  0  0  0  0
   47.8633    8.0387   13.2735 C   0  0  0  0  0  0  0  0  0  0  0  0
   47.0809    6.9870   13.5498 N   0  0  0  0  0  0  0  0  0  0  0  0
   45.8669    7.3578   13.1290 N   0  0  0  0  0  0  0  0  0  0  0  0
   45.8071    8.6254   12.6292 C   0  0  0  0  0  0  0  0  0  0  0  0
   47.1130    9.1094   12.6934 C   0  0  0  0  0  0  0  0  0  0  0  0
   47.3394   10.4217   12.2298 C   0  0  0  0  0  0  0  0  0  0  0  0
   46.2745   11.2000   11.7319 C   0  0  0  0  0  0  0  0  0  0  0  0
   44.9854   10.6591   11.6893 C   0  0  0  0  0  0  0  0  0  0  0  0
   44.7271    9.3616   12.1340 C   0  0  0  0  0  0  0  0  0  0  0  0
   46.5370   12.5988   11.2218 C   0  0  0  0  0  0  0  0  0  0  0  0
   46.7941   12.6466    9.7345 C   0  0  0  0  0  0  0  0  0  0  0  0
   48.0904   12.4819    9.2268 C   0  0  0  0  0  0  0  0  0  0  0  0
   48.3068   12.4925    7.8501 C   0  0  0  0  0  0  0  0  0  0  0  0
   47.2580   12.6619    6.9574 C   0  0  0  0  0  0  0  0  0  0  0  0
   45.9764   12.8239    7.4596 C   0  0  0  0  0  0  0  0  0  0  0  0
   45.7348   12.8199    8.8312 C   0  0  0  0  0  0  0  0  0  0  0  0
   44.9500   12.9841    6.6138 F   0  0  0  0  0  0  0  0  0  0  0  0
   49.5505   12.3366    7.3757 F   0  0  0  0  0  0  0  0  0  0  0  0
   56.0276    3.0136   16.7556 C   0  0  0  0  0  0  0  0  0  0  0  0
   54.7791    8.1645   13.2229 H   0  0  0  0  0  0  0  0  0  0  0  0
   52.8432    6.6390   16.7345 H   0  0  0  0  0  0  0  0  0  0  0  0
   52.6255    9.0099   12.3941 H   0  0  0  0  0  0  0  0  0  0  0  0
   54.7797    4.9636   14.5107 H   0  0  0  0  0  0  0  0  0  0  0  0
   55.9764    5.9628   13.6631 H   0  0  0  0  0  0  0  0  0  0  0  0
   57.6462    5.5247   15.4107 H   0  0  0  0  0  0  0  0  0  0  0  0
   57.0837    4.0232   14.7128 H   0  0  0  0  0  0  0  0  0  0  0  0
   54.4743    4.9012   17.2353 H   0  0  0  0  0  0  0  0  0  0  0  0
   55.6802    5.2667   18.4688 H   0  0  0  0  0  0  0  0  0  0  0  0
   54.8706    7.3746   17.4962 H   0  0  0  0  0  0  0  0  0  0  0  0
   56.5425    7.1477   17.0409 H   0  0  0  0  0  0  0  0  0  0  0  0
   50.6841    6.9160   17.0114 H   0  0  0  0  0  0  0  0  0  0  0  0
   49.7283    9.4945   15.8941 H   0  0  0  0  0  0  0  0  0  0  0  0
   51.6844    9.7019   17.3984 H   0  0  0  0  0  0  0  0  0  0  0  0
   50.8965    8.6647   18.5906 H   0  0  0  0  0  0  0  0  0  0  0  0
   49.8760   11.4008   17.6378 H   0  0  0  0  0  0  0  0  0  0  0  0
   50.5817   11.0225   19.2097 H   0  0  0  0  0  0  0  0  0  0  0  0
   46.8952    9.4877   18.3473 H   0  0  0  0  0  0  0  0  0  0  0  0
   47.6791   10.5028   17.1276 H   0  0  0  0  0  0  0  0  0  0  0  0
   47.7866    8.0912   16.4693 H   0  0  0  0  0  0  0  0  0  0  0  0
   48.5216    7.6859   18.0263 H   0  0  0  0  0  0  0  0  0  0  0  0
   49.3547    7.0400   14.1395 H   0  0  0  0  0  0  0  0  0  0  0  0
   45.1066    6.6953   13.2195 H   0  0  0  0  0  0  0  0  0  0  0  0
   48.3360   10.8480   12.2540 H   0  0  0  0  0  0  0  0  0  0  0  0
   44.1597   11.2515   11.3010 H   0  0  0  0  0  0  0  0  0  0  0  0
   43.7236    8.9508   12.0981 H   0  0  0  0  0  0  0  0  0  0  0  0
   45.6878   13.2471   11.4761 H   0  0  0  0  0  0  0  0  0  0  0  0
   47.3888   13.0368   11.7583 H   0  0  0  0  0  0  0  0  0  0  0  0
   48.9383   12.3325    9.8918 H   0  0  0  0  0  0  0  0  0  0  0  0
   47.4367   12.6638    5.8891 H   0  0  0  0  0  0  0  0  0  0  0  0
   44.7167   12.9452    9.1816 H   0  0  0  0  0  0  0  0  0  0  0  0
   55.8697    2.6895   17.7916 H   0  0  0  0  0  0  0  0  0  0  0  0
   56.7864    2.3468   16.3293 H   0  0  0  0  0  0  0  0  0  0  0  0
   55.0920    2.8703   16.2002 H   0  0  0  0  0  0  0  0  0  0  0  0
  1  2  2  0
  1  6  1  0
  2  3  1  0
  3  4  2  0
  4  5  1  0
  5  6  2  0
  2  7  1  0
  7  8  1  0
 12  7  1  0
  8  9  1  0
  9 10  1  0
 10 11  1  0
 11 12  1  0
  4 13  1  0
 13 14  1  0
 14 15  1  0
 19 14  1  0
 15 16  1  0
 16 17  1  0
 17 18  1  0
 18 19  1  0
  5 20  1  0
 20 21  1  0
 20 22  2  0
 21 23  1  0
 23 24  2  0
 23 27  1  0
 24 25  1  0
 25 26  1  0
 31 26  2  0
 26 27  1  0
 27 28  2  0
 28 29  1  0
 29 30  2  0
 30 31  1  0
 29 32  1  0
 32 33  1  0
 33 34  2  0
 33 38  1  0
 34 35  1  0
 35 36  2  0
 36 37  1  0
 37 38  2  0
 37 39  1  0
 35 40  1  0
 10 41  1  0
  1 42  1  0
  3 43  1  0
  6 44  1  0
  8 45  1  0
  8 46  1  0
  9 47  1  0
  9 48  1  0
 11 49  1  0
 11 50  1  0
 12 51  1  0
 12 52  1  0
 13 53  1  0
 14 54  1  0
 15 55  1  0
 15 56  1  0
 16 57  1  0
 16 58  1  0
 18 59  1  0
 18 60  1  0
 19 61  1  0
 19 62  1  0
 21 63  1  0
 25 64  1  0
 28 65  1  0
 30 66  1  0
 31 67  1  0
 32 68  1  0
 32 69  1  0
 34 70  1  0
 36 71  1  0
 38 72  1  0
 41 73  1  0
 41 74  1  0
 41 75  1  0
M  END
> <Uni-Dock RESULT> 
ENERGY=   -4.807  LOWER_BOUND=    4.453  UPPER_BOUND=   10.529
INTER + INTRA:          -4.807
INTER:                  -4.807
INTRA:                   0.000
UNBOUND:                 0.000

$$$$

     RDKit          3D

 75 80  0  0  0  0  0  0  0  0999 V2000
   51.6303    7.4844   10.8876 C   0  0  0  0  0  0  0  0  0  0  0  0
   52.3466    7.7937    9.7251 C   0  0  0  0  0  0  0  0  0  0  0  0
   52.7169    9.1306    9.5251 C   0  0  0  0  0  0  0  0  0  0  0  0
   52.3868   10.1521   10.4399 C   0  0  0  0  0  0  0  0  0  0  0  0
   51.6938    9.7952   11.6142 C   0  0  0  0  0  0  0  0  0  0  0  0
   51.3031    8.4685   11.8232 C   0  0  0  0  0  0  0  0  0  0  0  0
   52.6795    6.7593    8.8397 N   0  0  0  0  0  0  0  0  0  0  0  0
   53.7523    5.8840    9.3787 C   0  0  0  0  0  0  0  0  0  0  0  0
   54.3904    5.0193    8.2661 C   0  0  0  0  0  0  0  0  0  0  0  0
   54.9562    5.7718    7.1226 N   0  0  0  0  0  0  0  0  0  0  0  0
   54.2662    7.0693    6.9351 C   0  0  0  0  0  0  0  0  0  0  0  0
   52.7925    7.0541    7.3942 C   0  0  0  0  0  0  0  0  0  0  0  0
   52.7558   11.4832   10.1140 N   0  0  0  0  0  0  0  0  0  0  0  0
   51.6195   12.4143    9.9263 C   0  0  0  0  0  0  0  0  0  0  0  0
   50.9239   12.1752    8.5823 C   0  0  0  0  0  0  0  0  0  0  0  0
   49.8646   13.2430    8.3581 C   0  0  0  0  0  0  0  0  0  0  0  0
   50.4480   14.5438    8.4070 O   0  0  0  0  0  0  0  0  0  0  0  0
   51.0246   14.8301    9.6827 C   0  0  0  0  0  0  0  0  0  0  0  0
   52.1475   13.8492    9.9872 C   0  0  0  0  0  0  0  0  0  0  0  0
   51.3855   10.7665   12.7006 C   0  0  0  0  0  0  0  0  0  0  0  0
   52.4194   11.6162   12.9937 N   0  0  0  0  0  0  0  0  0  0  0  0
   50.2762   10.7235   13.2178 O   0  0  0  0  0  0  0  0  0  0  0  0
   52.4560   12.6858   13.8562 C   0  0  0  0  0  0  0  0  0  0  0  0
   53.6240   13.3398   13.9102 N   0  0  0  0  0  0  0  0  0  0  0  0
   53.4146   14.3187   14.7970 N   0  0  0  0  0  0  0  0  0  0  0  0
   52.1459   14.3652   15.2953 C   0  0  0  0  0  0  0  0  0  0  0  0
   51.4792   13.2907   14.7080 C   0  0  0  0  0  0  0  0  0  0  0  0
   50.1260   13.1013   15.0566 C   0  0  0  0  0  0  0  0  0  0  0  0
   49.4884   13.9776   15.9584 C   0  0  0  0  0  0  0  0  0  0  0  0
   50.2100   15.0369   16.5182 C   0  0  0  0  0  0  0  0  0  0  0  0
   51.5522   15.2497   16.2002 C   0  0  0  0  0  0  0  0  0  0  0  0
   48.0422   13.7502   16.3357 C   0  0  0  0  0  0  0  0  0  0  0  0
   47.8818   12.9206   17.5873 C   0  0  0  0  0  0  0  0  0  0  0  0
   47.8282   11.5215   17.5163 C   0  0  0  0  0  0  0  0  0  0  0  0
   47.7161   10.7678   18.6833 C   0  0  0  0  0  0  0  0  0  0  0  0
   47.6576   11.3747   19.9299 C   0  0  0  0  0  0  0  0  0  0  0  0
   47.7113   12.7578   19.9997 C   0  0  0  0  0  0  0  0  0  0  0  0
   47.8203   13.5331   18.8479 C   0  0  0  0  0  0  0  0  0  0  0  0
   47.6609   13.3622   21.1942 F   0  0  0  0  0  0  0  0  0  0  0  0
   47.6633    9.4310   18.6037 F   0  0  0  0  0  0  0  0  0  0  0  0
   56.3971    5.9766    7.2618 C   0  0  0  0  0  0  0  0  0  0  0  0
   51.3130    6.4594   11.0682 H   0  0  0  0  0  0  0  0  0  0  0  0
   53.2826    9.3957    8.6381 H   0  0  0  0  0  0  0  0  0  0  0  0
   50.7523    8.1914   12.7192 H   0  0  0  0  0  0  0  0  0  0  0  0
   54.5403    6.4877    9.8483 H   0  0  0  0  0  0  0  0  0  0  0  0
   53.3344    5.2201   10.1447 H   0  0  0  0  0  0  0  0  0  0  0  0
   53.6105    4.3607    7.8600 H   0  0  0  0  0  0  0  0  0  0  0  0
   55.1410    4.3505    8.7059 H   0  0  0  0  0  0  0  0  0  0  0  0
   54.7850    7.8623    7.4880 H   0  0  0  0  0  0  0  0  0  0  0  0
   54.3094    7.3356    5.8737 H   0  0  0  0  0  0  0  0  0  0  0  0
   52.2967    7.9947    7.1225 H   0  0  0  0  0  0  0  0  0  0  0  0
   52.2520    6.2692    6.8490 H   0  0  0  0  0  0  0  0  0  0  0  0
   53.3403   11.4948    9.2749 H   0  0  0  0  0  0  0  0  0  0  0  0
   50.8769   12.2993   10.7222 H   0  0  0  0  0  0  0  0  0  0  0  0
   50.4609   11.1831    8.5512 H   0  0  0  0  0  0  0  0  0  0  0  0
   51.6617   12.2172    7.7724 H   0  0  0  0  0  0  0  0  0  0  0  0
   49.0605   13.1715    9.0985 H   0  0  0  0  0  0  0  0  0  0  0  0
   49.4102   13.1177    7.3703 H   0  0  0  0  0  0  0  0  0  0  0  0
   51.4243   15.8473    9.6467 H   0  0  0  0  0  0  0  0  0  0  0  0
   50.2445   14.8022   10.4518 H   0  0  0  0  0  0  0  0  0  0  0  0
   52.5776   14.0642   10.9740 H   0  0  0  0  0  0  0  0  0  0  0  0
   52.9489   13.9737    9.2470 H   0  0  0  0  0  0  0  0  0  0  0  0
   53.2674   11.5413   12.4408 H   0  0  0  0  0  0  0  0  0  0  0  0
   54.1854   14.9373   15.0168 H   0  0  0  0  0  0  0  0  0  0  0  0
   49.5597   12.2801   14.6319 H   0  0  0  0  0  0  0  0  0  0  0  0
   49.7264   15.7138   17.2192 H   0  0  0  0  0  0  0  0  0  0  0  0
   52.1037   16.0748   16.6386 H   0  0  0  0  0  0  0  0  0  0  0  0
   47.5394   14.7185   16.4612 H   0  0  0  0  0  0  0  0  0  0  0  0
   47.5116   13.2697   15.5034 H   0  0  0  0  0  0  0  0  0  0  0  0
   47.8849   11.0059   16.5601 H   0  0  0  0  0  0  0  0  0  0  0  0
   47.5753   10.7791   20.8308 H   0  0  0  0  0  0  0  0  0  0  0  0
   47.8639   14.6116   18.9476 H   0  0  0  0  0  0  0  0  0  0  0  0
   56.7931    6.4904    6.3771 H   0  0  0  0  0  0  0  0  0  0  0  0
   56.9227    5.0168    7.3299 H   0  0  0  0  0  0  0  0  0  0  0  0
   56.6480    6.5705    8.1498 H   0  0  0  0  0  0  0  0  0  0  0  0
  1  2  2  0
  1  6  1  0
  2  3  1  0
  3  4  2  0
  4  5  1  0
  5  6  2  0
  2  7  1  0
  7  8  1  0
 12  7  1  0
  8  9  1  0
  9 10  1  0
 10 11  1  0
 11 12  1  0
  4 13  1  0
 13 14  1  0
 14 15  1  0
 19 14  1  0
 15 16  1  0
 16 17  1  0
 17 18  1  0
 18 19  1  0
  5 20  1  0
 20 21  1  0
 20 22  2  0
 21 23  1  0
 23 24  2  0
 23 27  1  0
 24 25  1  0
 25 26  1  0
 31 26  2  0
 26 27  1  0
 27 28  2  0
 28 29  1  0
 29 30  2  0
 30 31  1  0
 29 32  1  0
 32 33  1  0
 33 34  2  0
 33 38  1  0
 34 35  1  0
 35 36  2  0
 36 37  1  0
 37 38  2  0
 37 39  1  0
 35 40  1  0
 10 41  1  0
  1 42  1  0
  3 43  1  0
  6 44  1  0
  8 45  1  0
  8 46  1  0
  9 47  1  0
  9 48  1  0
 11 49  1  0
 11 50  1  0
 12 51  1  0
 12 52  1  0
 13 53  1  0
 14 54  1  0
 15 55  1  0
 15 56  1  0
 16 57  1  0
 16 58  1  0
 18 59  1  0
 18 60  1  0
 19 61  1  0
 19 62  1  0
 21 63  1  0
 25 64  1  0
 28 65  1  0
 30 66  1  0
 31 67  1  0
 32 68  1  0
 32 69  1  0
 34 70  1  0
 36 71  1  0
 38 72  1  0
 41 73  1  0
 41 74  1  0
 41 75  1  0
M  END
> <Uni-Dock RESULT> 
ENERGY=   -4.406  LOWER_BOUND=    5.631  UPPER_BOUND=    8.321
INTER + INTRA:          -4.406
INTER:                  -4.406
INTRA:                   0.000
UNBOUND:                 0.000

$$$$

     RDKit          3D

 75 80  0  0  0  0  0  0  0  0999 V2000
   50.5573   10.5198   12.0181 C   0  0  0  0  0  0  0  0  0  0  0  0
   50.5152   11.5957   11.1233 C   0  0  0  0  0  0  0  0  0  0  0  0
   49.9679   12.8021   11.5812 C   0  0  0  0  0  0  0  0  0  0  0  0
   49.4614   12.9551   12.8886 C   0  0  0  0  0  0  0  0  0  0  0  0
   49.5520   11.8588   13.7698 C   0  0  0  0  0  0  0  0  0  0  0  0
   50.0813   10.6428   13.3256 C   0  0  0  0  0  0  0  0  0  0  0  0
   51.0412   11.4259    9.8352 N   0  0  0  0  0  0  0  0  0  0  0  0
   52.5258   11.3678    9.8395 C   0  0  0  0  0  0  0  0  0  0  0  0
   53.1056   11.5905    8.4228 C   0  0  0  0  0  0  0  0  0  0  0  0
   52.7071   12.8566    7.7652 N   0  0  0  0  0  0  0  0  0  0  0  0
   51.3927   13.3306    8.2573 C   0  0  0  0  0  0  0  0  0  0  0  0
   50.4574   12.1891    8.7101 C   0  0  0  0  0  0  0  0  0  0  0  0
   48.8727   14.1996   13.2337 N   0  0  0  0  0  0  0  0  0  0  0  0
   47.4310   14.1335   13.5660 C   0  0  0  0  0  0  0  0  0  0  0  0
   46.5787   13.9704   12.3034 C   0  0  0  0  0  0  0  0  0  0  0  0
   45.1047   14.0591   12.6669 C   0  0  0  0  0  0  0  0  0  0  0  0
   44.8238   15.2978   13.3163 O   0  0  0  0  0  0  0  0  0  0  0  0
   45.5367   15.4369   14.5469 C   0  0  0  0  0  0  0  0  0  0  0  0
   47.0371   15.4211   14.2931 C   0  0  0  0  0  0  0  0  0  0  0  0
   49.1498   11.9345   15.2020 C   0  0  0  0  0  0  0  0  0  0  0  0
   49.5457   13.0867   15.8284 N   0  0  0  0  0  0  0  0  0  0  0  0
   48.5231   10.9957   15.6776 O   0  0  0  0  0  0  0  0  0  0  0  0
   49.2684   13.5324   17.0987 C   0  0  0  0  0  0  0  0  0  0  0  0
   49.7923   14.7239   17.4160 N   0  0  0  0  0  0  0  0  0  0  0  0
   49.3906   14.9380   18.6735 N   0  0  0  0  0  0  0  0  0  0  0  0
   48.5875   13.9600   19.1822 C   0  0  0  0  0  0  0  0  0  0  0  0
   48.4913   13.0006   18.1753 C   0  0  0  0  0  0  0  0  0  0  0  0
   47.7062   11.8600   18.4422 C   0  0  0  0  0  0  0  0  0  0  0  0
   47.0471   11.7170   19.6803 C   0  0  0  0  0  0  0  0  0  0  0  0
   47.1834   12.7120   20.6537 C   0  0  0  0  0  0  0  0  0  0  0  0
   47.9576   13.8505   20.4252 C   0  0  0  0  0  0  0  0  0  0  0  0
   46.2238   10.4797   19.9577 C   0  0  0  0  0  0  0  0  0  0  0  0
   47.0068    9.3937   20.6562 C   0  0  0  0  0  0  0  0  0  0  0  0
   47.7323    8.4475   19.9188 C   0  0  0  0  0  0  0  0  0  0  0  0
   48.4792    7.4729   20.5781 C   0  0  0  0  0  0  0  0  0  0  0  0
   48.5254    7.4159   21.9639 C   0  0  0  0  0  0  0  0  0  0  0  0
   47.8088    8.3519   22.6926 C   0  0  0  0  0  0  0  0  0  0  0  0
   47.0526    9.3337   22.0571 C   0  0  0  0  0  0  0  0  0  0  0  0
   47.8444    8.3162   24.0313 F   0  0  0  0  0  0  0  0  0  0  0  0
   49.1670    6.5718   19.8633 F   0  0  0  0  0  0  0  0  0  0  0  0
   53.7185   13.8996    7.9285 C   0  0  0  0  0  0  0  0  0  0  0  0
   50.9613    9.5636   11.6923 H   0  0  0  0  0  0  0  0  0  0  0  0
   49.9337   13.6552   10.9117 H   0  0  0  0  0  0  0  0  0  0  0  0
   50.1365    9.7885   13.9964 H   0  0  0  0  0  0  0  0  0  0  0  0
   52.9379   12.1329   10.5108 H   0  0  0  0  0  0  0  0  0  0  0  0
   52.8539   10.3871   10.2041 H   0  0  0  0  0  0  0  0  0  0  0  0
   52.7527   10.7725    7.7801 H   0  0  0  0  0  0  0  0  0  0  0  0
   54.1980   11.4908    8.4533 H   0  0  0  0  0  0  0  0  0  0  0  0
   51.5252   14.0159    9.1038 H   0  0  0  0  0  0  0  0  0  0  0  0
   50.9061   13.8980    7.4570 H   0  0  0  0  0  0  0  0  0  0  0  0
   49.4606   12.5819    8.9480 H   0  0  0  0  0  0  0  0  0  0  0  0
   50.3068   11.4924    7.8751 H   0  0  0  0  0  0  0  0  0  0  0  0
   49.0124   14.8794   12.4826 H   0  0  0  0  0  0  0  0  0  0  0  0
   47.2164   13.2947   14.2356 H   0  0  0  0  0  0  0  0  0  0  0  0
   46.7816   13.0117   11.8143 H   0  0  0  0  0  0  0  0  0  0  0  0
   46.8261   14.7622   11.5864 H   0  0  0  0  0  0  0  0  0  0  0  0
   44.8002   13.2275   13.3115 H   0  0  0  0  0  0  0  0  0  0  0  0
   44.4923   14.0106   11.7611 H   0  0  0  0  0  0  0  0  0  0  0  0
   45.2489   16.3934   14.9920 H   0  0  0  0  0  0  0  0  0  0  0  0
   45.2355   14.6406   15.2368 H   0  0  0  0  0  0  0  0  0  0  0  0
   47.5803   15.5138   15.2424 H   0  0  0  0  0  0  0  0  0  0  0  0
   47.3097   16.2863   13.6744 H   0  0  0  0  0  0  0  0  0  0  0  0
   50.0308   13.7858   15.2750 H   0  0  0  0  0  0  0  0  0  0  0  0
   49.6945   15.7867   19.1344 H   0  0  0  0  0  0  0  0  0  0  0  0
   47.5987   11.0809   17.6959 H   0  0  0  0  0  0  0  0  0  0  0  0
   46.6825   12.6059   21.6136 H   0  0  0  0  0  0  0  0  0  0  0  0
   48.0568   14.6177   21.1859 H   0  0  0  0  0  0  0  0  0  0  0  0
   45.3441   10.7513   20.5564 H   0  0  0  0  0  0  0  0  0  0  0  0
   45.8090   10.0905   19.0188 H   0  0  0  0  0  0  0  0  0  0  0  0
   47.7339    8.4656   18.8310 H   0  0  0  0  0  0  0  0  0  0  0  0
   49.1130    6.6571   22.4661 H   0  0  0  0  0  0  0  0  0  0  0  0
   46.5107   10.0492   22.6648 H   0  0  0  0  0  0  0  0  0  0  0  0
   53.4176   14.8058    7.3883 H   0  0  0  0  0  0  0  0  0  0  0  0
   54.6778   13.5829    7.5022 H   0  0  0  0  0  0  0  0  0  0  0  0
   53.8793   14.1605    8.9822 H   0  0  0  0  0  0  0  0  0  0  0  0
  1  2  2  0
  1  6  1  0
  2  3  1  0
  3  4  2  0
  4  5  1  0
  5  6  2  0
  2  7  1  0
  7  8  1  0
 12  7  1  0
  8  9  1  0
  9 10  1  0
 10 11  1  0
 11 12  1  0
  4 13  1  0
 13 14  1  0
 14 15  1  0
 19 14  1  0
 15 16  1  0
 16 17  1  0
 17 18  1  0
 18 19  1  0
  5 20  1  0
 20 21  1  0
 20 22  2  0
 21 23  1  0
 23 24  2  0
 23 27  1  0
 24 25  1  0
 25 26  1  0
 31 26  2  0
 26 27  1  0
 27 28  2  0
 28 29  1  0
 29 30  2  0
 30 31  1  0
 29 32  1  0
 32 33  1  0
 33 34  2  0
 33 38  1  0
 34 35  1  0
 35 36  2  0
 36 37  1  0
 37 38  2  0
 37 39  1  0
 35 40  1  0
 10 41  1  0
  1 42  1  0
  3 43  1  0
  6 44  1  0
  8 45  1  0
  8 46  1  0
  9 47  1  0
  9 48  1  0
 11 49  1  0
 11 50  1  0
 12 51  1  0
 12 52  1  0
 13 53  1  0
 14 54  1  0
 15 55  1  0
 15 56  1  0
 16 57  1  0
 16 58  1  0
 18 59  1  0
 18 60  1  0
 19 61  1  0
 19 62  1  0
 21 63  1  0
 25 64  1  0
 28 65  1  0
 30 66  1  0
 31 67  1  0
 32 68  1  0
 32 69  1  0
 34 70  1  0
 36 71  1  0
 38 72  1  0
 41 73  1  0
 41 74  1  0
 41 75  1  0
M  END
> <Uni-Dock RESULT> 
ENERGY=   -4.249  LOWER_BOUND=    4.607  UPPER_BOUND=    6.906
INTER + INTRA:          -4.249
INTER:                  -4.249
INTRA:                   0.000
UNBOUND:                 0.000

$$$$

     RDKit          3D

 75 80  0  0  0  0  0  0  0  0999 V2000
   53.6865    7.9800   13.7724 C   0  0  0  0  0  0  0  0  0  0  0  0
   53.3934    7.9335   12.4042 C   0  0  0  0  0  0  0  0  0  0  0  0
   52.1879    8.5067   11.9769 C   0  0  0  0  0  0  0  0  0  0  0  0
   51.2778    9.1087   12.8705 C   0  0  0  0  0  0  0  0  0  0  0  0
   51.6242    9.1650   14.2356 C   0  0  0  0  0  0  0  0  0  0  0  0
   52.8160    8.5849   14.6821 C   0  0  0  0  0  0  0  0  0  0  0  0
   54.3213    7.3469   11.5328 N   0  0  0  0  0  0  0  0  0  0  0  0
   55.5245    8.1972   11.3403 C   0  0  0  0  0  0  0  0  0  0  0  0
   56.3350    7.7591   10.0977 C   0  0  0  0  0  0  0  0  0  0  0  0
   55.5838    7.7473    8.8211 N   0  0  0  0  0  0  0  0  0  0  0  0
   54.1375    7.5200    9.0473 C   0  0  0  0  0  0  0  0  0  0  0  0
   53.8367    6.6777   10.3054 C   0  0  0  0  0  0  0  0  0  0  0  0
   50.0570    9.6056   12.3441 N   0  0  0  0  0  0  0  0  0  0  0  0
   48.8409    8.9302   12.8525 C   0  0  0  0  0  0  0  0  0  0  0  0
   48.6666    7.5489   12.2132 C   0  0  0  0  0  0  0  0  0  0  0  0
   47.3350    6.9520   12.6413 C   0  0  0  0  0  0  0  0  0  0  0  0
   46.2605    7.8196   12.2840 O   0  0  0  0  0  0  0  0  0  0  0  0
   46.3475    9.0863   12.9396 C   0  0  0  0  0  0  0  0  0  0  0  0
   47.6263    9.8046   12.5338 C   0  0  0  0  0  0  0  0  0  0  0  0
   50.7953    9.8682   15.2541 C   0  0  0  0  0  0  0  0  0  0  0  0
   50.3083   11.0774   14.8330 N   0  0  0  0  0  0  0  0  0  0  0  0
   50.6267    9.3246   16.3386 O   0  0  0  0  0  0  0  0  0  0  0  0
   49.4409   11.9388   15.4613 C   0  0  0  0  0  0  0  0  0  0  0  0
   49.1367   13.0486   14.7753 N   0  0  0  0  0  0  0  0  0  0  0  0
   48.2945   13.7117   15.5749 N   0  0  0  0  0  0  0  0  0  0  0  0
   47.9956   13.0651   16.7379 C   0  0  0  0  0  0  0  0  0  0  0  0
   48.7456   11.8902   16.7102 C   0  0  0  0  0  0  0  0  0  0  0  0
   48.6244   11.0200   17.8131 C   0  0  0  0  0  0  0  0  0  0  0  0
   47.7688   11.3388   18.8875 C   0  0  0  0  0  0  0  0  0  0  0  0
   47.0433   12.5342   18.8606 C   0  0  0  0  0  0  0  0  0  0  0  0
   47.1443   13.4212   17.7878 C   0  0  0  0  0  0  0  0  0  0  0  0
   47.6638   10.4038   20.0709 C   0  0  0  0  0  0  0  0  0  0  0  0
   48.6129   10.7592   21.1904 C   0  0  0  0  0  0  0  0  0  0  0  0
   49.9174   10.2461   21.2125 C   0  0  0  0  0  0  0  0  0  0  0  0
   50.7934   10.6116   22.2329 C   0  0  0  0  0  0  0  0  0  0  0  0
   50.4030   11.4835   23.2395 C   0  0  0  0  0  0  0  0  0  0  0  0
   49.1136   11.9912   23.2169 C   0  0  0  0  0  0  0  0  0  0  0  0
   48.2187   11.6388   22.2097 C   0  0  0  0  0  0  0  0  0  0  0  0
   48.7193   12.8379   24.1772 F   0  0  0  0  0  0  0  0  0  0  0  0
   52.0375   10.1133   22.2457 F   0  0  0  0  0  0  0  0  0  0  0  0
   55.7926    8.9732    8.0523 C   0  0  0  0  0  0  0  0  0  0  0  0
   54.6063    7.5314   14.1420 H   0  0  0  0  0  0  0  0  0  0  0  0
   51.9417    8.4946   10.9203 H   0  0  0  0  0  0  0  0  0  0  0  0
   53.0790    8.6097   15.7371 H   0  0  0  0  0  0  0  0  0  0  0  0
   55.2350    9.2492   11.2165 H   0  0  0  0  0  0  0  0  0  0  0  0
   56.1693    8.1265   12.2243 H   0  0  0  0  0  0  0  0  0  0  0  0
   56.6891    6.7333   10.2689 H   0  0  0  0  0  0  0  0  0  0  0  0
   57.2405    8.3732   10.0148 H   0  0  0  0  0  0  0  0  0  0  0  0
   53.6104    8.4770    9.1465 H   0  0  0  0  0  0  0  0  0  0  0  0
   53.7237    7.0141    8.1685 H   0  0  0  0  0  0  0  0  0  0  0  0
   52.7673    6.4368   10.3587 H   0  0  0  0  0  0  0  0  0  0  0  0
   54.3516    5.7113   10.2251 H   0  0  0  0  0  0  0  0  0  0  0  0
   50.0646    9.5573   11.3226 H   0  0  0  0  0  0  0  0  0  0  0  0
   48.8829    8.8027   13.9388 H   0  0  0  0  0  0  0  0  0  0  0  0
   49.4823    6.8773   12.5015 H   0  0  0  0  0  0  0  0  0  0  0  0
   48.6904    7.6421   11.1209 H   0  0  0  0  0  0  0  0  0  0  0  0
   47.3104    6.7593   13.7193 H   0  0  0  0  0  0  0  0  0  0  0  0
   47.1739    5.9950   12.1353 H   0  0  0  0  0  0  0  0  0  0  0  0
   45.4803    9.6789   12.6354 H   0  0  0  0  0  0  0  0  0  0  0  0
   46.2924    8.9418   14.0245 H   0  0  0  0  0  0  0  0  0  0  0  0
   47.6955   10.7704   13.0508 H   0  0  0  0  0  0  0  0  0  0  0  0
   47.5999   10.0117   11.4559 H   0  0  0  0  0  0  0  0  0  0  0  0
   50.5141   11.3675   13.8822 H   0  0  0  0  0  0  0  0  0  0  0  0
   47.9458   14.6095   15.2624 H   0  0  0  0  0  0  0  0  0  0  0  0
   49.1866   10.0935   17.8455 H   0  0  0  0  0  0  0  0  0  0  0  0
   46.3855   12.7898   19.6886 H   0  0  0  0  0  0  0  0  0  0  0  0
   46.5768   14.3458   17.7752 H   0  0  0  0  0  0  0  0  0  0  0  0
   46.6307   10.3984   20.4433 H   0  0  0  0  0  0  0  0  0  0  0  0
   47.8455    9.3709   19.7463 H   0  0  0  0  0  0  0  0  0  0  0  0
   50.2676    9.5707   20.4348 H   0  0  0  0  0  0  0  0  0  0  0  0
   51.0935   11.7647   24.0253 H   0  0  0  0  0  0  0  0  0  0  0  0
   47.2210   12.0623   22.2270 H   0  0  0  0  0  0  0  0  0  0  0  0
   55.2655    8.9117    7.0922 H   0  0  0  0  0  0  0  0  0  0  0  0
   56.8552    9.1115    7.8198 H   0  0  0  0  0  0  0  0  0  0  0  0
   55.4383    9.8637    8.5869 H   0  0  0  0  0  0  0  0  0  0  0  0
  1  2  2  0
  1  6  1  0
  2  3  1  0
  3  4  2  0
  4  5  1  0
  5  6  2  0
  2  7  1  0
  7  8  1  0
 12  7  1  0
  8  9  1  0
  9 10  1  0
 10 11  1  0
 11 12  1  0
  4 13  1  0
 13 14  1  0
 14 15  1  0
 19 14  1  0
 15 16  1  0
 16 17  1  0
 17 18  1  0
 18 19  1  0
  5 20  1  0
 20 21  1  0
 20 22  2  0
 21 23  1  0
 23 24  2  0
 23 27  1  0
 24 25  1  0
 25 26  1  0
 31 26  2  0
 26 27  1  0
 27 28  2  0
 28 29  1  0
 29 30  2  0
 30 31  1  0
 29 32  1  0
 32 33  1  0
 33 34  2  0
 33 38  1  0
 34 35  1  0
 35 36  2  0
 36 37  1  0
 37 38  2  0
 37 39  1  0
 35 40  1  0
 10 41  1  0
  1 42  1  0
  3 43  1  0
  6 44  1  0
  8 45  1  0
  8 46  1  0
  9 47  1  0
  9 48  1  0
 11 49  1  0
 11 50  1  0
 12 51  1  0
 12 52  1  0
 13 53  1  0
 14 54  1  0
 15 55  1  0
 15 56  1  0
 16 57  1  0
 16 58  1  0
 18 59  1  0
 18 60  1  0
 19 61  1  0
 19 62  1  0
 21 63  1  0
 25 64  1  0
 28 65  1  0
 30 66  1  0
 31 67  1  0
 32 68  1  0
 32 69  1  0
 34 70  1  0
 36 71  1  0
 38 72  1  0
 41 73  1  0
 41 74  1  0
 41 75  1  0
M  END
> <Uni-Dock RESULT> 
ENERGY=   -4.148  LOWER_BOUND=    4.496  UPPER_BOUND=    8.389
INTER + INTRA:          -4.148
INTER:                  -4.148
INTRA:                   0.000
UNBOUND:                 0.000

$$$$
