
     RDKit          3D

 75 80  0  0  0  0  0  0  0  0999 V2000
   42.5390   14.4959   11.5654 C   0  0  0  0  0  0  0  0  0  0  0  0
   42.5263   15.1782   10.3391 C   0  0  0  0  0  0  0  0  0  0  0  0
   42.5412   14.3765    9.1790 C   0  0  0  0  0  0  0  0  0  0  0  0
   42.5264   12.9703    9.2101 C   0  0  0  0  0  0  0  0  0  0  0  0
   42.5470   12.3383   10.4601 C   0  0  0  0  0  0  0  0  0  0  0  0
   42.5435   13.0972   11.6344 C   0  0  0  0  0  0  0  0  0  0  0  0
   42.5582   16.5698   10.2381 N   0  0  0  0  0  0  0  0  0  0  0  0
   41.6487   17.2064    9.2507 C   0  0  0  0  0  0  0  0  0  0  0  0
   40.2852   17.5448    9.9023 C   0  0  0  0  0  0  0  0  0  0  0  0
   40.4272   18.4153   11.0931 N   0  0  0  0  0  0  0  0  0  0  0  0
   41.3509   17.7833   12.0623 C   0  0  0  0  0  0  0  0  0  0  0  0
   42.7207   17.4279   11.4320 C   0  0  0  0  0  0  0  0  0  0  0  0
   42.5613   12.2815    7.9698 N   0  0  0  0  0  0  0  0  0  0  0  0
   43.8723   11.6833    7.6089 C   0  0  0  0  0  0  0  0  0  0  0  0
   45.0150   12.7098    7.6038 C   0  0  0  0  0  0  0  0  0  0  0  0
   46.1293   12.2359    6.6857 C   0  0  0  0  0  0  0  0  0  0  0  0
   45.7145   12.1257    5.3244 O   0  0  0  0  0  0  0  0  0  0  0  0
   44.3205   11.8697    5.1380 C   0  0  0  0  0  0  0  0  0  0  0  0
   43.7356   10.9974    6.2394 C   0  0  0  0  0  0  0  0  0  0  0  0
   42.6029   10.8595   10.5558 C   0  0  0  0  0  0  0  0  0  0  0  0
   43.6925   10.4161   11.2749 N   0  0  0  0  0  0  0  0  0  0  0  0
   41.7592   10.2083    9.9536 O   0  0  0  0  0  0  0  0  0  0  0  0
   44.0597    9.0959   11.4433 C   0  0  0  0  0  0  0  0  0  0  0  0
   43.3449    8.0414   11.0508 N   0  0  0  0  0  0  0  0  0  0  0  0
   44.0836    6.9824   11.4076 N   0  0  0  0  0  0  0  0  0  0  0  0
   45.2645    7.3022   12.0212 C   0  0  0  0  0  0  0  0  0  0  0  0
   45.2828    8.6906   12.0604 C   0  0  0  0  0  0  0  0  0  0  0  0
   46.3991    9.3403   12.6277 C   0  0  0  0  0  0  0  0  0  0  0  0
   47.4626    8.5739   13.1422 C   0  0  0  0  0  0  0  0  0  0  0  0
   47.3970    7.1737   13.0845 C   0  0  0  0  0  0  0  0  0  0  0  0
   46.2980    6.5089   12.5257 C   0  0  0  0  0  0  0  0  0  0  0  0
   48.6809    9.2579   13.7221 C   0  0  0  0  0  0  0  0  0  0  0  0
   49.8395    9.3385   12.7551 C   0  0  0  0  0  0  0  0  0  0  0  0
   49.8670   10.3136   11.7464 C   0  0  0  0  0  0  0  0  0  0  0  0
   50.9321   10.3636   10.8475 C   0  0  0  0  0  0  0  0  0  0  0  0
   51.9815    9.4595   10.9273 C   0  0  0  0  0  0  0  0  0  0  0  0
   51.9536    8.4939   11.9230 C   0  0  0  0  0  0  0  0  0  0  0  0
   50.8990    8.4227   12.8317 C   0  0  0  0  0  0  0  0  0  0  0  0
   52.9563    7.6110   12.0134 F   0  0  0  0  0  0  0  0  0  0  0  0
   50.9388   11.3002    9.8900 F   0  0  0  0  0  0  0  0  0  0  0  0
   39.1245   18.6682   11.7036 C   0  0  0  0  0  0  0  0  0  0  0  0
   42.5307   15.0351   12.5075 H   0  0  0  0  0  0  0  0  0  0  0  0
   42.5920   14.8435    8.1980 H   0  0  0  0  0  0  0  0  0  0  0  0
   42.5270   12.6120   12.6073 H   0  0  0  0  0  0  0  0  0  0  0  0
   42.1195   18.1337    8.8996 H   0  0  0  0  0  0  0  0  0  0  0  0
   41.4805   16.6031    8.3539 H   0  0  0  0  0  0  0  0  0  0  0  0
   39.6669   18.0544    9.1532 H   0  0  0  0  0  0  0  0  0  0  0  0
   39.7752   16.6101   10.1733 H   0  0  0  0  0  0  0  0  0  0  0  0
   40.8961   16.8761   12.4811 H   0  0  0  0  0  0  0  0  0  0  0  0
   41.5288   18.4745   12.8949 H   0  0  0  0  0  0  0  0  0  0  0  0
   43.3961   16.9843   12.1727 H   0  0  0  0  0  0  0  0  0  0  0  0
   43.2111   18.3588   11.1145 H   0  0  0  0  0  0  0  0  0  0  0  0
   41.9109   11.4879    8.0887 H   0  0  0  0  0  0  0  0  0  0  0  0
   44.1117   10.8942    8.3342 H   0  0  0  0  0  0  0  0  0  0  0  0
   44.6622   13.6902    7.2573 H   0  0  0  0  0  0  0  0  0  0  0  0
   45.4012   12.8425    8.6221 H   0  0  0  0  0  0  0  0  0  0  0  0
   46.5026   11.2563    7.0071 H   0  0  0  0  0  0  0  0  0  0  0  0
   46.9788   12.9281    6.7183 H   0  0  0  0  0  0  0  0  0  0  0  0
   43.7960   12.8302    5.0720 H   0  0  0  0  0  0  0  0  0  0  0  0
   44.2065   11.3760    4.1681 H   0  0  0  0  0  0  0  0  0  0  0  0
   44.2975   10.0546    6.2683 H   0  0  0  0  0  0  0  0  0  0  0  0
   42.6938   10.7447    6.0119 H   0  0  0  0  0  0  0  0  0  0  0  0
   44.3508   11.0969   11.6212 H   0  0  0  0  0  0  0  0  0  0  0  0
   43.7237    6.0585   11.1974 H   0  0  0  0  0  0  0  0  0  0  0  0
   46.4405   10.4244   12.6592 H   0  0  0  0  0  0  0  0  0  0  0  0
   48.2211    6.5768   13.4756 H   0  0  0  0  0  0  0  0  0  0  0  0
   46.2633    5.4252   12.4801 H   0  0  0  0  0  0  0  0  0  0  0  0
   48.9884    8.7335   14.6362 H   0  0  0  0  0  0  0  0  0  0  0  0
   48.4220   10.2712   14.0571 H   0  0  0  0  0  0  0  0  0  0  0  0
   49.0627   11.0369   11.6438 H   0  0  0  0  0  0  0  0  0  0  0  0
   52.8056    9.5049   10.2256 H   0  0  0  0  0  0  0  0  0  0  0  0
   50.9162    7.6454   13.5909 H   0  0  0  0  0  0  0  0  0  0  0  0
   39.2276   19.3410   12.5605 H   0  0  0  0  0  0  0  0  0  0  0  0
   38.4583   19.1665   10.9919 H   0  0  0  0  0  0  0  0  0  0  0  0
   38.6400   17.7479   12.0475 H   0  0  0  0  0  0  0  0  0  0  0  0
  1  2  2  0
  1  6  1  0
  2  3  1  0
  3  4  2  0
  4  5  1  0
  5  6  2  0
  2  7  1  0
  7  8  1  0
 12  7  1  0
  8  9  1  0
  9 10  1  0
 10 11  1  0
 11 12  1  0
  4 13  1  0
 13 14  1  0
 14 15  1  0
 19 14  1  0
 15 16  1  0
 16 17  1  0
 17 18  1  0
 18 19  1  0
  5 20  1  0
 20 21  1  0
 20 22  2  0
 21 23  1  0
 23 24  2  0
 23 27  1  0
 24 25  1  0
 25 26  1  0
 31 26  2  0
 26 27  1  0
 27 28  2  0
 28 29  1  0
 29 30  2  0
 30 31  1  0
 29 32  1  0
 32 33  1  0
 33 34  2  0
 33 38  1  0
 34 35  1  0
 35 36  2  0
 36 37  1  0
 37 38  2  0
 37 39  1  0
 35 40  1  0
 10 41  1  0
  1 42  1  0
  3 43  1  0
  6 44  1  0
  8 45  1  0
  8 46  1  0
  9 47  1  0
  9 48  1  0
 11 49  1  0
 11 50  1  0
 12 51  1  0
 12 52  1  0
 13 53  1  0
 14 54  1  0
 15 55  1  0
 15 56  1  0
 16 57  1  0
 16 58  1  0
 18 59  1  0
 18 60  1  0
 19 61  1  0
 19 62  1  0
 21 63  1  0
 25 64  1  0
 28 65  1  0
 30 66  1  0
 31 67  1  0
 32 68  1  0
 32 69  1  0
 34 70  1  0
 36 71  1  0
 38 72  1  0
 41 73  1  0
 41 74  1  0
 41 75  1  0
M  END
> <Uni-Dock RESULT> 
ENERGY=   -4.784  LOWER_BOUND=    0.000  UPPER_BOUND=    0.000
INTER + INTRA:          -4.784
INTER:                  -4.784
INTRA:                   0.000
UNBOUND:                 0.000

$$$$

     RDKit          3D

 75 80  0  0  0  0  0  0  0  0999 V2000
   46.2060    9.6546   12.1082 C   0  0  0  0  0  0  0  0  0  0  0  0
   46.2012   11.0465   11.9294 C   0  0  0  0  0  0  0  0  0  0  0  0
   47.3886   11.7240   12.2755 C   0  0  0  0  0  0  0  0  0  0  0  0
   48.5461   11.0707   12.7358 C   0  0  0  0  0  0  0  0  0  0  0  0
   48.4958    9.6808   12.9037 C   0  0  0  0  0  0  0  0  0  0  0  0
   47.3338    8.9730   12.5822 C   0  0  0  0  0  0  0  0  0  0  0  0
   45.0820   11.7575   11.4937 N   0  0  0  0  0  0  0  0  0  0  0  0
   45.2973   12.8177   10.4753 C   0  0  0  0  0  0  0  0  0  0  0  0
   45.1625   12.2379    9.0457 C   0  0  0  0  0  0  0  0  0  0  0  0
   43.8532   11.5809    8.8222 N   0  0  0  0  0  0  0  0  0  0  0  0
   43.6377   10.5405    9.8534 C   0  0  0  0  0  0  0  0  0  0  0  0
   43.7749   11.0946   11.2935 C   0  0  0  0  0  0  0  0  0  0  0  0
   49.6698   11.8718   13.0665 N   0  0  0  0  0  0  0  0  0  0  0  0
   49.9052   12.0719   14.5196 C   0  0  0  0  0  0  0  0  0  0  0  0
   48.6853   12.6582   15.2460 C   0  0  0  0  0  0  0  0  0  0  0  0
   49.1345   13.3873   16.5014 C   0  0  0  0  0  0  0  0  0  0  0  0
   49.9789   14.5033   16.2201 O   0  0  0  0  0  0  0  0  0  0  0  0
   50.7279   14.4015   15.0068 C   0  0  0  0  0  0  0  0  0  0  0  0
   51.1408   12.9704   14.6949 C   0  0  0  0  0  0  0  0  0  0  0  0
   49.6613    8.9456   13.4517 C   0  0  0  0  0  0  0  0  0  0  0  0
   49.3492    8.2296   14.5880 N   0  0  0  0  0  0  0  0  0  0  0  0
   50.7487    9.0989   12.9110 O   0  0  0  0  0  0  0  0  0  0  0  0
   50.2491    7.5344   15.3709 C   0  0  0  0  0  0  0  0  0  0  0  0
   51.5341    7.3365   15.0768 N   0  0  0  0  0  0  0  0  0  0  0  0
   52.0112    6.6308   16.1106 N   0  0  0  0  0  0  0  0  0  0  0  0
   51.0842    6.3574   17.0797 C   0  0  0  0  0  0  0  0  0  0  0  0
   49.9085    6.9407   16.6249 C   0  0  0  0  0  0  0  0  0  0  0  0
   48.7498    6.8478   17.4242 C   0  0  0  0  0  0  0  0  0  0  0  0
   48.8072    6.1676   18.6559 C   0  0  0  0  0  0  0  0  0  0  0  0
   50.0165    5.5903   19.0712 C   0  0  0  0  0  0  0  0  0  0  0  0
   51.1782    5.6707   18.2929 C   0  0  0  0  0  0  0  0  0  0  0  0
   47.5812    6.0899   19.5388 C   0  0  0  0  0  0  0  0  0  0  0  0
   47.5781    7.1136   20.6505 C   0  0  0  0  0  0  0  0  0  0  0  0
   47.2184    8.4464   20.3991 C   0  0  0  0  0  0  0  0  0  0  0  0
   47.2401    9.3856   21.4299 C   0  0  0  0  0  0  0  0  0  0  0  0
   47.6137    9.0292   22.7177 C   0  0  0  0  0  0  0  0  0  0  0  0
   47.9716    7.7122   22.9662 C   0  0  0  0  0  0  0  0  0  0  0  0
   47.9597    6.7560   21.9520 C   0  0  0  0  0  0  0  0  0  0  0  0
   48.3381    7.3506   24.2024 F   0  0  0  0  0  0  0  0  0  0  0  0
   46.8958   10.6535   21.1692 F   0  0  0  0  0  0  0  0  0  0  0  0
   43.7882   11.0064    7.4808 C   0  0  0  0  0  0  0  0  0  0  0  0
   45.3332    9.0552   11.8686 H   0  0  0  0  0  0  0  0  0  0  0  0
   47.4305   12.8093   12.2163 H   0  0  0  0  0  0  0  0  0  0  0  0
   47.2996    7.8906   12.6801 H   0  0  0  0  0  0  0  0  0  0  0  0
   44.5348   13.5935   10.6222 H   0  0  0  0  0  0  0  0  0  0  0  0
   46.2598   13.3289   10.5683 H   0  0  0  0  0  0  0  0  0  0  0  0
   45.2804   13.0620    8.3315 H   0  0  0  0  0  0  0  0  0  0  0  0
   45.9802   11.5258    8.8687 H   0  0  0  0  0  0  0  0  0  0  0  0
   44.3476    9.7153    9.7112 H   0  0  0  0  0  0  0  0  0  0  0  0
   42.6282   10.1265    9.7430 H   0  0  0  0  0  0  0  0  0  0  0  0
   43.5875   10.3136   12.0395 H   0  0  0  0  0  0  0  0  0  0  0  0
   42.9877   11.8442   11.4558 H   0  0  0  0  0  0  0  0  0  0  0  0
   50.4851   11.3420   12.7179 H   0  0  0  0  0  0  0  0  0  0  0  0
   50.1527   11.1032   14.9737 H   0  0  0  0  0  0  0  0  0  0  0  0
   48.1436   13.3625   14.6009 H   0  0  0  0  0  0  0  0  0  0  0  0
   47.9873   11.8542   15.5108 H   0  0  0  0  0  0  0  0  0  0  0  0
   49.6802   12.7080   17.1668 H   0  0  0  0  0  0  0  0  0  0  0  0
   48.2699   13.7593   17.0635 H   0  0  0  0  0  0  0  0  0  0  0  0
   50.1309   14.8286   14.1923 H   0  0  0  0  0  0  0  0  0  0  0  0
   51.6151   15.0323   15.1175 H   0  0  0  0  0  0  0  0  0  0  0  0
   51.7278   12.5882   15.5404 H   0  0  0  0  0  0  0  0  0  0  0  0
   51.7916   12.9454   13.8136 H   0  0  0  0  0  0  0  0  0  0  0  0
   48.4136    8.2964   14.9579 H   0  0  0  0  0  0  0  0  0  0  0  0
   52.9901    6.3679   16.0961 H   0  0  0  0  0  0  0  0  0  0  0  0
   47.8225    7.3056   17.0945 H   0  0  0  0  0  0  0  0  0  0  0  0
   50.0669    5.0685   20.0271 H   0  0  0  0  0  0  0  0  0  0  0  0
   52.1094    5.2265   18.6294 H   0  0  0  0  0  0  0  0  0  0  0  0
   47.5013    5.0783   19.9573 H   0  0  0  0  0  0  0  0  0  0  0  0
   46.6721    6.2132   18.9350 H   0  0  0  0  0  0  0  0  0  0  0  0
   46.9256    8.7699   19.4040 H   0  0  0  0  0  0  0  0  0  0  0  0
   47.6277    9.7644   23.5132 H   0  0  0  0  0  0  0  0  0  0  0  0
   48.2541    5.7378   22.1915 H   0  0  0  0  0  0  0  0  0  0  0  0
   42.8072   10.5544    7.3051 H   0  0  0  0  0  0  0  0  0  0  0  0
   43.9141   11.7870    6.7235 H   0  0  0  0  0  0  0  0  0  0  0  0
   44.5526   10.2387    7.3190 H   0  0  0  0  0  0  0  0  0  0  0  0
  1  2  2  0
  1  6  1  0
  2  3  1  0
  3  4  2  0
  4  5  1  0
  5  6  2  0
  2  7  1  0
  7  8  1  0
 12  7  1  0
  8  9  1  0
  9 10  1  0
 10 11  1  0
 11 12  1  0
  4 13  1  0
 13 14  1  0
 14 15  1  0
 19 14  1  0
 15 16  1  0
 16 17  1  0
 17 18  1  0
 18 19  1  0
  5 20  1  0
 20 21  1  0
 20 22  2  0
 21 23  1  0
 23 24  2  0
 23 27  1  0
 24 25  1  0
 25 26  1  0
 31 26  2  0
 26 27  1  0
 27 28  2  0
 28 29  1  0
 29 30  2  0
 30 31  1  0
 29 32  1  0
 32 33  1  0
 33 34  2  0
 33 38  1  0
 34 35  1  0
 35 36  2  0
 36 37  1  0
 37 38  2  0
 37 39  1  0
 35 40  1  0
 10 41  1  0
  1 42  1  0
  3 43  1  0
  6 44  1  0
  8 45  1  0
  8 46  1  0
  9 47  1  0
  9 48  1  0
 11 49  1  0
 11 50  1  0
 12 51  1  0
 12 52  1  0
 13 53  1  0
 14 54  1  0
 15 55  1  0
 15 56  1  0
 16 57  1  0
 16 58  1  0
 18 59  1  0
 18 60  1  0
 19 61  1  0
 19 62  1  0
 21 63  1  0
 25 64  1  0
 28 65  1  0
 30 66  1  0
 31 67  1  0
 32 68  1  0
 32 69  1  0
 34 70  1  0
 36 71  1  0
 38 72  1  0
 41 73  1  0
 41 74  1  0
 41 75  1  0
M  END
> <Uni-Dock RESULT> 
ENERGY=   -4.639  LOWER_BOUND=    6.073  UPPER_BOUND=    8.743
INTER + INTRA:          -4.639
INTER:                  -4.639
INTRA:                   0.000
UNBOUND:                 0.000

$$$$

     RDKit          3D

 75 80  0  0  0  0  0  0  0  0999 V2000
   52.4278    8.4911   14.5939 C   0  0  0  0  0  0  0  0  0  0  0  0
   52.7246    8.6011   15.9611 C   0  0  0  0  0  0  0  0  0  0  0  0
   51.6868    8.2628   16.8539 C   0  0  0  0  0  0  0  0  0  0  0  0
   50.4274    7.7966   16.4355 C   0  0  0  0  0  0  0  0  0  0  0  0
   50.1797    7.7122   15.0592 C   0  0  0  0  0  0  0  0  0  0  0  0
   51.1787    8.0487   14.1408 C   0  0  0  0  0  0  0  0  0  0  0  0
   53.9466    9.0731   16.4426 N   0  0  0  0  0  0  0  0  0  0  0  0
   54.5639    8.3420   17.5791 C   0  0  0  0  0  0  0  0  0  0  0  0
   55.4967    7.2181   17.0641 C   0  0  0  0  0  0  0  0  0  0  0  0
   56.5527    7.7292   16.1588 N   0  0  0  0  0  0  0  0  0  0  0  0
   55.9300    8.4738   15.0408 C   0  0  0  0  0  0  0  0  0  0  0  0
   54.9854    9.5997   15.5305 C   0  0  0  0  0  0  0  0  0  0  0  0
   49.4639    7.5071   17.4364 N   0  0  0  0  0  0  0  0  0  0  0  0
   48.3904    8.5208   17.6007 C   0  0  0  0  0  0  0  0  0  0  0  0
   48.9376    9.9297   17.8748 C   0  0  0  0  0  0  0  0  0  0  0  0
   47.8946   10.7533   18.6116 C   0  0  0  0  0  0  0  0  0  0  0  0
   47.5723   10.2172   19.8946 O   0  0  0  0  0  0  0  0  0  0  0  0
   47.7554    8.8051   20.0209 C   0  0  0  0  0  0  0  0  0  0  0  0
   47.4525    8.0601   18.7289 C   0  0  0  0  0  0  0  0  0  0  0  0
   48.8482    7.2945   14.5576 C   0  0  0  0  0  0  0  0  0  0  0  0
   48.2747    8.2364   13.7300 N   0  0  0  0  0  0  0  0  0  0  0  0
   48.3802    6.2401   14.9671 O   0  0  0  0  0  0  0  0  0  0  0  0
   47.0023    8.1693   13.1983 C   0  0  0  0  0  0  0  0  0  0  0  0
   46.1819    7.1228   13.2931 N   0  0  0  0  0  0  0  0  0  0  0  0
   45.0721    7.5056   12.6479 N   0  0  0  0  0  0  0  0  0  0  0  0
   45.1310    8.7717   12.1315 C   0  0  0  0  0  0  0  0  0  0  0  0
   46.3918    9.2410   12.4775 C   0  0  0  0  0  0  0  0  0  0  0  0
   46.7584   10.5492   12.0976 C   0  0  0  0  0  0  0  0  0  0  0  0
   45.8470   11.3455   11.3776 C   0  0  0  0  0  0  0  0  0  0  0  0
   44.5864   10.8263   11.0467 C   0  0  0  0  0  0  0  0  0  0  0  0
   44.2026    9.5303   11.4139 C   0  0  0  0  0  0  0  0  0  0  0  0
   46.2140   12.7620   10.9937 C   0  0  0  0  0  0  0  0  0  0  0  0
   45.6451   13.8027   11.9303 C   0  0  0  0  0  0  0  0  0  0  0  0
   46.2512   14.0628   13.1689 C   0  0  0  0  0  0  0  0  0  0  0  0
   45.7037   15.0110   14.0328 C   0  0  0  0  0  0  0  0  0  0  0  0
   44.5573   15.7146   13.6925 C   0  0  0  0  0  0  0  0  0  0  0  0
   43.9566   15.4561   12.4691 C   0  0  0  0  0  0  0  0  0  0  0  0
   44.4839   14.5118   11.5898 C   0  0  0  0  0  0  0  0  0  0  0  0
   42.8476   16.1233   12.1252 F   0  0  0  0  0  0  0  0  0  0  0  0
   46.2955   15.2431   15.2117 F   0  0  0  0  0  0  0  0  0  0  0  0
   57.3770    6.6318   15.6588 C   0  0  0  0  0  0  0  0  0  0  0  0
   53.1681    8.7334   13.8378 H   0  0  0  0  0  0  0  0  0  0  0  0
   51.8326    8.3827   17.9251 H   0  0  0  0  0  0  0  0  0  0  0  0
   51.0029    7.9545   13.0719 H   0  0  0  0  0  0  0  0  0  0  0  0
   55.1534    9.0575   18.1669 H   0  0  0  0  0  0  0  0  0  0  0  0
   53.8364    7.9162   18.2762 H   0  0  0  0  0  0  0  0  0  0  0  0
   55.9653    6.7398   17.9329 H   0  0  0  0  0  0  0  0  0  0  0  0
   54.8924    6.4569   16.5518 H   0  0  0  0  0  0  0  0  0  0  0  0
   55.3714    7.7853   14.3934 H   0  0  0  0  0  0  0  0  0  0  0  0
   56.7169    8.9318   14.4295 H   0  0  0  0  0  0  0  0  0  0  0  0
   54.5553   10.1526   14.6874 H   0  0  0  0  0  0  0  0  0  0  0  0
   55.5805   10.3376   16.0867 H   0  0  0  0  0  0  0  0  0  0  0  0
   48.9937    6.6469   17.1110 H   0  0  0  0  0  0  0  0  0  0  0  0
   47.7888    8.5497   16.6826 H   0  0  0  0  0  0  0  0  0  0  0  0
   49.8505    9.8862   18.4834 H   0  0  0  0  0  0  0  0  0  0  0  0
   49.1989   10.4187   16.9281 H   0  0  0  0  0  0  0  0  0  0  0  0
   46.9690   10.8144   18.0271 H   0  0  0  0  0  0  0  0  0  0  0  0
   48.2469   11.7807   18.7607 H   0  0  0  0  0  0  0  0  0  0  0  0
   48.7817    8.6157   20.3567 H   0  0  0  0  0  0  0  0  0  0  0  0
   47.0896    8.4600   20.8178 H   0  0  0  0  0  0  0  0  0  0  0  0
   46.4198    8.2874   18.4331 H   0  0  0  0  0  0  0  0  0  0  0  0
   47.5103    6.9779   18.8910 H   0  0  0  0  0  0  0  0  0  0  0  0
   48.7633    9.1050   13.5769 H   0  0  0  0  0  0  0  0  0  0  0  0
   44.3001    6.8506   12.5990 H   0  0  0  0  0  0  0  0  0  0  0  0
   47.7341   10.9413   12.3666 H   0  0  0  0  0  0  0  0  0  0  0  0
   43.8755   11.4418   10.4952 H   0  0  0  0  0  0  0  0  0  0  0  0
   43.2214    9.1435   11.1585 H   0  0  0  0  0  0  0  0  0  0  0  0
   45.8793   12.9558    9.9665 H   0  0  0  0  0  0  0  0  0  0  0  0
   47.3061   12.8724   10.9554 H   0  0  0  0  0  0  0  0  0  0  0  0
   47.1464   13.5301   13.4779 H   0  0  0  0  0  0  0  0  0  0  0  0
   44.1382   16.4498   14.3687 H   0  0  0  0  0  0  0  0  0  0  0  0
   43.9759   14.3377   10.6451 H   0  0  0  0  0  0  0  0  0  0  0  0
   58.1785    7.0154   15.0202 H   0  0  0  0  0  0  0  0  0  0  0  0
   57.8611    6.1076   16.4892 H   0  0  0  0  0  0  0  0  0  0  0  0
   56.7965    5.9050   15.0802 H   0  0  0  0  0  0  0  0  0  0  0  0
  1  2  2  0
  1  6  1  0
  2  3  1  0
  3  4  2  0
  4  5  1  0
  5  6  2  0
  2  7  1  0
  7  8  1  0
 12  7  1  0
  8  9  1  0
  9 10  1  0
 10 11  1  0
 11 12  1  0
  4 13  1  0
 13 14  1  0
 14 15  1  0
 19 14  1  0
 15 16  1  0
 16 17  1  0
 17 18  1  0
 18 19  1  0
  5 20  1  0
 20 21  1  0
 20 22  2  0
 21 23  1  0
 23 24  2  0
 23 27  1  0
 24 25  1  0
 25 26  1  0
 31 26  2  0
 26 27  1  0
 27 28  2  0
 28 29  1  0
 29 30  2  0
 30 31  1  0
 29 32  1  0
 32 33  1  0
 33 34  2  0
 33 38  1  0
 34 35  1  0
 35 36  2  0
 36 37  1  0
 37 38  2  0
 37 39  1  0
 35 40  1  0
 10 41  1  0
  1 42  1  0
  3 43  1  0
  6 44  1  0
  8 45  1  0
  8 46  1  0
  9 47  1  0
  9 48  1  0
 11 49  1  0
 11 50  1  0
 12 51  1  0
 12 52  1  0
 13 53  1  0
 14 54  1  0
 15 55  1  0
 15 56  1  0
 16 57  1  0
 16 58  1  0
 18 59  1  0
 18 60  1  0
 19 61  1  0
 19 62  1  0
 21 63  1  0
 25 64  1  0
 28 65  1  0
 30 66  1  0
 31 67  1  0
 32 68  1  0
 32 69  1  0
 34 70  1  0
 36 71  1  0
 38 72  1  0
 41 73  1  0
 41 74  1  0
 41 75  1  0
M  END
> <Uni-Dock RESULT> 
ENERGY=   -4.612  LOWER_BOUND=    5.477  UPPER_BOUND=   11.450
INTER + INTRA:          -4.612
INTER:                  -4.612
INTRA:                   0.000
UNBOUND:                 0.000

$$$$

     RDKit          3D

 75 80  0  0  0  0  0  0  0  0999 V2000
   45.9082   10.7684   11.6302 C   0  0  0  0  0  0  0  0  0  0  0  0
   46.5797   11.7334   10.8637 C   0  0  0  0  0  0  0  0  0  0  0  0
   47.9881   11.7166   10.9343 C   0  0  0  0  0  0  0  0  0  0  0  0
   48.7140   10.7744   11.6851 C   0  0  0  0  0  0  0  0  0  0  0  0
   47.9954    9.8370   12.4384 C   0  0  0  0  0  0  0  0  0  0  0  0
   46.5977    9.8269   12.4043 C   0  0  0  0  0  0  0  0  0  0  0  0
   45.9203   12.7068   10.1117 N   0  0  0  0  0  0  0  0  0  0  0  0
   46.4334   12.9808    8.7445 C   0  0  0  0  0  0  0  0  0  0  0  0
   45.7308   12.0731    7.7049 C   0  0  0  0  0  0  0  0  0  0  0  0
   44.2564   12.2195    7.7301 N   0  0  0  0  0  0  0  0  0  0  0  0
   43.7559   11.9652    9.1002 C   0  0  0  0  0  0  0  0  0  0  0  0
   44.4495   12.8565   10.1605 C   0  0  0  0  0  0  0  0  0  0  0  0
   50.1293   10.8783   11.6852 N   0  0  0  0  0  0  0  0  0  0  0  0
   50.7263   11.4584   12.9156 C   0  0  0  0  0  0  0  0  0  0  0  0
   50.1577   12.8436   13.2583 C   0  0  0  0  0  0  0  0  0  0  0  0
   51.1631   13.6219   14.0905 C   0  0  0  0  0  0  0  0  0  0  0  0
   52.3809   13.8762   13.3907 O   0  0  0  0  0  0  0  0  0  0  0  0
   52.7046   12.9207   12.3778 C   0  0  0  0  0  0  0  0  0  0  0  0
   52.2529   11.5130   12.7387 C   0  0  0  0  0  0  0  0  0  0  0  0
   48.7040    8.8636   13.3040 C   0  0  0  0  0  0  0  0  0  0  0  0
   48.3106    8.9433   14.6231 N   0  0  0  0  0  0  0  0  0  0  0  0
   49.5787    8.1709   12.8005 O   0  0  0  0  0  0  0  0  0  0  0  0
   48.8664    8.2362   15.6705 C   0  0  0  0  0  0  0  0  0  0  0  0
   49.7769    7.2700   15.5506 N   0  0  0  0  0  0  0  0  0  0  0  0
   50.0260    6.8842   16.8090 N   0  0  0  0  0  0  0  0  0  0  0  0
   49.3117    7.5652   17.7572 C   0  0  0  0  0  0  0  0  0  0  0  0
   48.5358    8.4677   17.0410 C   0  0  0  0  0  0  0  0  0  0  0  0
   47.6857    9.3441   17.7475 C   0  0  0  0  0  0  0  0  0  0  0  0
   47.6383    9.2843   19.1536 C   0  0  0  0  0  0  0  0  0  0  0  0
   48.4371    8.3525   19.8333 C   0  0  0  0  0  0  0  0  0  0  0  0
   49.2878    7.4732   19.1512 C   0  0  0  0  0  0  0  0  0  0  0  0
   46.7569   10.2413   19.9256 C   0  0  0  0  0  0  0  0  0  0  0  0
   47.5063   11.4307   20.4800 C   0  0  0  0  0  0  0  0  0  0  0  0
   47.8365   12.5189   19.6577 C   0  0  0  0  0  0  0  0  0  0  0  0
   48.5468   13.6009   20.1772 C   0  0  0  0  0  0  0  0  0  0  0  0
   48.9405   13.6289   21.5073 C   0  0  0  0  0  0  0  0  0  0  0  0
   48.6162   12.5524   22.3199 C   0  0  0  0  0  0  0  0  0  0  0  0
   47.9089   11.4587   21.8232 C   0  0  0  0  0  0  0  0  0  0  0  0
   48.9907   12.5605   23.6056 F   0  0  0  0  0  0  0  0  0  0  0  0
   48.8547   14.6288   19.3756 F   0  0  0  0  0  0  0  0  0  0  0  0
   43.6329   11.3114    6.7708 C   0  0  0  0  0  0  0  0  0  0  0  0
   44.8242   10.7113   11.6357 H   0  0  0  0  0  0  0  0  0  0  0  0
   48.5661   12.4749   10.4109 H   0  0  0  0  0  0  0  0  0  0  0  0
   46.0355    9.0814   12.9615 H   0  0  0  0  0  0  0  0  0  0  0  0
   46.2243   14.0313    8.5045 H   0  0  0  0  0  0  0  0  0  0  0  0
   47.5170   12.8666    8.6496 H   0  0  0  0  0  0  0  0  0  0  0  0
   46.1042   12.3432    6.7096 H   0  0  0  0  0  0  0  0  0  0  0  0
   46.0123   11.0279    7.8928 H   0  0  0  0  0  0  0  0  0  0  0  0
   43.8968   10.9088    9.3636 H   0  0  0  0  0  0  0  0  0  0  0  0
   42.6792   12.1704    9.1351 H   0  0  0  0  0  0  0  0  0  0  0  0
   44.0466   12.6688   11.1626 H   0  0  0  0  0  0  0  0  0  0  0  0
   44.2096   13.9071    9.9446 H   0  0  0  0  0  0  0  0  0  0  0  0
   50.4669    9.9032   11.6392 H   0  0  0  0  0  0  0  0  0  0  0  0
   50.5304   10.7800   13.7566 H   0  0  0  0  0  0  0  0  0  0  0  0
   49.9337   13.4139   12.3471 H   0  0  0  0  0  0  0  0  0  0  0  0
   49.2183   12.7336   13.8144 H   0  0  0  0  0  0  0  0  0  0  0  0
   51.4074   13.0757   15.0093 H   0  0  0  0  0  0  0  0  0  0  0  0
   50.7475   14.5896   14.3949 H   0  0  0  0  0  0  0  0  0  0  0  0
   52.2579   13.2505   11.4325 H   0  0  0  0  0  0  0  0  0  0  0  0
   53.7904   12.9433   12.2434 H   0  0  0  0  0  0  0  0  0  0  0  0
   52.7206   11.2338   13.6920 H   0  0  0  0  0  0  0  0  0  0  0  0
   52.6022   10.7966   11.9866 H   0  0  0  0  0  0  0  0  0  0  0  0
   47.6401    9.6498   14.8842 H   0  0  0  0  0  0  0  0  0  0  0  0
   50.7052    6.1460   16.9548 H   0  0  0  0  0  0  0  0  0  0  0  0
   47.0785   10.0655   17.2097 H   0  0  0  0  0  0  0  0  0  0  0  0
   48.4084    8.3073   20.9221 H   0  0  0  0  0  0  0  0  0  0  0  0
   49.9064    6.7625   19.6894 H   0  0  0  0  0  0  0  0  0  0  0  0
   46.2586    9.6972   20.7383 H   0  0  0  0  0  0  0  0  0  0  0  0
   45.9376   10.5989   19.2876 H   0  0  0  0  0  0  0  0  0  0  0  0
   47.5535   12.5351   18.6088 H   0  0  0  0  0  0  0  0  0  0  0  0
   49.4916   14.4731   21.9036 H   0  0  0  0  0  0  0  0  0  0  0  0
   47.6827   10.6350   22.4949 H   0  0  0  0  0  0  0  0  0  0  0  0
   42.5471   11.4476    6.7648 H   0  0  0  0  0  0  0  0  0  0  0  0
   43.9818   11.5282    5.7559 H   0  0  0  0  0  0  0  0  0  0  0  0
   43.8446   10.2601    6.9940 H   0  0  0  0  0  0  0  0  0  0  0  0
  1  2  2  0
  1  6  1  0
  2  3  1  0
  3  4  2  0
  4  5  1  0
  5  6  2  0
  2  7  1  0
  7  8  1  0
 12  7  1  0
  8  9  1  0
  9 10  1  0
 10 11  1  0
 11 12  1  0
  4 13  1  0
 13 14  1  0
 14 15  1  0
 19 14  1  0
 15 16  1  0
 16 17  1  0
 17 18  1  0
 18 19  1  0
  5 20  1  0
 20 21  1  0
 20 22  2  0
 21 23  1  0
 23 24  2  0
 23 27  1  0
 24 25  1  0
 25 26  1  0
 31 26  2  0
 26 27  1  0
 27 28  2  0
 28 29  1  0
 29 30  2  0
 30 31  1  0
 29 32  1  0
 32 33  1  0
 33 34  2  0
 33 38  1  0
 34 35  1  0
 35 36  2  0
 36 37  1  0
 37 38  2  0
 37 39  1  0
 35 40  1  0
 10 41  1  0
  1 42  1  0
  3 43  1  0
  6 44  1  0
  8 45  1  0
  8 46  1  0
  9 47  1  0
  9 48  1  0
 11 49  1  0
 11 50  1  0
 12 51  1  0
 12 52  1  0
 13 53  1  0
 14 54  1  0
 15 55  1  0
 15 56  1  0
 16 57  1  0
 16 58  1  0
 18 59  1  0
 18 60  1  0
 19 61  1  0
 19 62  1  0
 21 63  1  0
 25 64  1  0
 28 65  1  0
 30 66  1  0
 31 67  1  0
 32 68  1  0
 32 69  1  0
 34 70  1  0
 36 71  1  0
 38 72  1  0
 41 73  1  0
 41 74  1  0
 41 75  1  0
M  END
> <Uni-Dock RESULT> 
ENERGY=   -4.519  LOWER_BOUND=    5.726  UPPER_BOUND=    8.170
INTER + INTRA:          -4.519
INTER:                  -4.519
INTRA:                   0.000
UNBOUND:                 0.000

$$$$

     RDKit          3D

 75 80  0  0  0  0  0  0  0  0999 V2000
   52.3437    8.5662   13.0890 C   0  0  0  0  0  0  0  0  0  0  0  0
   52.8587    8.5019   14.3928 C   0  0  0  0  0  0  0  0  0  0  0  0
   51.9701    8.0565   15.3932 C   0  0  0  0  0  0  0  0  0  0  0  0
   50.6494    7.6503   15.1300 C   0  0  0  0  0  0  0  0  0  0  0  0
   50.1821    7.7411   13.8124 C   0  0  0  0  0  0  0  0  0  0  0  0
   51.0283    8.1880   12.7931 C   0  0  0  0  0  0  0  0  0  0  0  0
   54.1528    8.9059   14.7246 N   0  0  0  0  0  0  0  0  0  0  0  0
   54.9275    8.0355   15.6463 C   0  0  0  0  0  0  0  0  0  0  0  0
   55.7391    6.9830   14.8514 C   0  0  0  0  0  0  0  0  0  0  0  0
   56.6476    7.6014   13.8573 N   0  0  0  0  0  0  0  0  0  0  0  0
   55.8709    8.4829   12.9562 C   0  0  0  0  0  0  0  0  0  0  0  0
   55.0436    9.5406   13.7287 C   0  0  0  0  0  0  0  0  0  0  0  0
   49.8527    7.2395   16.2301 N   0  0  0  0  0  0  0  0  0  0  0  0
   48.8433    8.2273   16.6910 C   0  0  0  0  0  0  0  0  0  0  0  0
   49.4600    9.5888   17.0454 C   0  0  0  0  0  0  0  0  0  0  0  0
   48.5681   10.3157   18.0380 C   0  0  0  0  0  0  0  0  0  0  0  0
   48.4437    9.6228   19.2797 O   0  0  0  0  0  0  0  0  0  0  0  0
   48.6118    8.2055   19.1984 C   0  0  0  0  0  0  0  0  0  0  0  0
   48.0882    7.6305   17.8903 C   0  0  0  0  0  0  0  0  0  0  0  0
   48.7780    7.3937   13.4856 C   0  0  0  0  0  0  0  0  0  0  0  0
   48.1010    8.4341   12.8853 N   0  0  0  0  0  0  0  0  0  0  0  0
   48.3575    6.2973   13.8314 O   0  0  0  0  0  0  0  0  0  0  0  0
   46.7586    8.4382   12.5629 C   0  0  0  0  0  0  0  0  0  0  0  0
   45.9400    7.3904   12.6588 N   0  0  0  0  0  0  0  0  0  0  0  0
   44.7502    7.8547   12.2548 N   0  0  0  0  0  0  0  0  0  0  0  0
   44.7548    9.1757   11.8968 C   0  0  0  0  0  0  0  0  0  0  0  0
   46.0653    9.5940   12.0893 C   0  0  0  0  0  0  0  0  0  0  0  0
   46.3964   10.9387   11.8203 C   0  0  0  0  0  0  0  0  0  0  0  0
   45.4000   11.8220   11.3621 C   0  0  0  0  0  0  0  0  0  0  0  0
   44.0909   11.3523   11.1783 C   0  0  0  0  0  0  0  0  0  0  0  0
   43.7411   10.0213   11.4391 C   0  0  0  0  0  0  0  0  0  0  0  0
   45.7333   13.2747   11.1027 C   0  0  0  0  0  0  0  0  0  0  0  0
   45.3465   14.1903   12.2409 C   0  0  0  0  0  0  0  0  0  0  0  0
   46.1494   14.2904   13.3874 C   0  0  0  0  0  0  0  0  0  0  0  0
   45.7699   15.1234   14.4396 C   0  0  0  0  0  0  0  0  0  0  0  0
   44.6004   15.8675   14.3798 C   0  0  0  0  0  0  0  0  0  0  0  0
   43.8052   15.7672   13.2475 C   0  0  0  0  0  0  0  0  0  0  0  0
   44.1624   14.9399   12.1840 C   0  0  0  0  0  0  0  0  0  0  0  0
   42.6711   16.4756   13.1735 F   0  0  0  0  0  0  0  0  0  0  0  0
   46.5485   15.2032   15.5265 F   0  0  0  0  0  0  0  0  0  0  0  0
   57.3552    6.5736   13.0980 C   0  0  0  0  0  0  0  0  0  0  0  0
   52.9585    8.8999   12.2588 H   0  0  0  0  0  0  0  0  0  0  0  0
   52.2888    8.0398   16.4331 H   0  0  0  0  0  0  0  0  0  0  0  0
   50.6809    8.2300   11.7636 H   0  0  0  0  0  0  0  0  0  0  0  0
   55.6200    8.6694   16.2149 H   0  0  0  0  0  0  0  0  0  0  0  0
   54.3116    7.5271   16.3938 H   0  0  0  0  0  0  0  0  0  0  0  0
   56.3299    6.3975   15.5664 H   0  0  0  0  0  0  0  0  0  0  0  0
   55.0429    6.2943   14.3534 H   0  0  0  0  0  0  0  0  0  0  0  0
   55.1998    7.8832   12.3276 H   0  0  0  0  0  0  0  0  0  0  0  0
   56.5599    9.0122   12.2871 H   0  0  0  0  0  0  0  0  0  0  0  0
   54.4966   10.1967   13.0417 H   0  0  0  0  0  0  0  0  0  0  0  0
   55.7372   10.2007   14.2682 H   0  0  0  0  0  0  0  0  0  0  0  0
   49.3165    6.4285   15.8811 H   0  0  0  0  0  0  0  0  0  0  0  0
   48.1029    8.3736   15.8933 H   0  0  0  0  0  0  0  0  0  0  0  0
   50.4575    9.4662   17.4877 H   0  0  0  0  0  0  0  0  0  0  0  0
   49.5771   10.1926   16.1369 H   0  0  0  0  0  0  0  0  0  0  0  0
   47.5623   10.4526   17.6236 H   0  0  0  0  0  0  0  0  0  0  0  0
   48.9635   11.3150   18.2544 H   0  0  0  0  0  0  0  0  0  0  0  0
   49.6741    7.9724   19.3371 H   0  0  0  0  0  0  0  0  0  0  0  0
   48.0748    7.7644   20.0437 H   0  0  0  0  0  0  0  0  0  0  0  0
   47.0270    7.8961   17.7964 H   0  0  0  0  0  0  0  0  0  0  0  0
   48.1462    6.5362   17.9053 H   0  0  0  0  0  0  0  0  0  0  0  0
   48.5788    9.3137   12.7640 H   0  0  0  0  0  0  0  0  0  0  0  0
   43.9654    7.2132   12.2508 H   0  0  0  0  0  0  0  0  0  0  0  0
   47.4114   11.2910   11.9741 H   0  0  0  0  0  0  0  0  0  0  0  0
   43.3151   12.0344   10.8301 H   0  0  0  0  0  0  0  0  0  0  0  0
   42.7229    9.6726   11.3003 H   0  0  0  0  0  0  0  0  0  0  0  0
   45.2426   13.5975   10.1754 H   0  0  0  0  0  0  0  0  0  0  0  0
   46.8073   13.3860   10.9017 H   0  0  0  0  0  0  0  0  0  0  0  0
   47.0700   13.7204   13.4786 H   0  0  0  0  0  0  0  0  0  0  0  0
   44.3124   16.5127   15.2010 H   0  0  0  0  0  0  0  0  0  0  0  0
   43.5054   14.8879   11.3200 H   0  0  0  0  0  0  0  0  0  0  0  0
   58.0525    7.0325   12.3903 H   0  0  0  0  0  0  0  0  0  0  0  0
   57.9541    5.9474   13.7672 H   0  0  0  0  0  0  0  0  0  0  0  0
   56.6727    5.9273   12.5354 H   0  0  0  0  0  0  0  0  0  0  0  0
  1  2  2  0
  1  6  1  0
  2  3  1  0
  3  4  2  0
  4  5  1  0
  5  6  2  0
  2  7  1  0
  7  8  1  0
 12  7  1  0
  8  9  1  0
  9 10  1  0
 10 11  1  0
 11 12  1  0
  4 13  1  0
 13 14  1  0
 14 15  1  0
 19 14  1  0
 15 16  1  0
 16 17  1  0
 17 18  1  0
 18 19  1  0
  5 20  1  0
 20 21  1  0
 20 22  2  0
 21 23  1  0
 23 24  2  0
 23 27  1  0
 24 25  1  0
 25 26  1  0
 31 26  2  0
 26 27  1  0
 27 28  2  0
 28 29  1  0
 29 30  2  0
 30 31  1  0
 29 32  1  0
 32 33  1  0
 33 34  2  0
 33 38  1  0
 34 35  1  0
 35 36  2  0
 36 37  1  0
 37 38  2  0
 37 39  1  0
 35 40  1  0
 10 41  1  0
  1 42  1  0
  3 43  1  0
  6 44  1  0
  8 45  1  0
  8 46  1  0
  9 47  1  0
  9 48  1  0
 11 49  1  0
 11 50  1  0
 12 51  1  0
 12 52  1  0
 13 53  1  0
 14 54  1  0
 15 55  1  0
 15 56  1  0
 16 57  1  0
 16 58  1  0
 18 59  1  0
 18 60  1  0
 19 61  1  0
 19 62  1  0
 21 63  1  0
 25 64  1  0
 28 65  1  0
 30 66  1  0
 31 67  1  0
 32 68  1  0
 32 69  1  0
 34 70  1  0
 36 71  1  0
 38 72  1  0
 41 73  1  0
 41 74  1  0
 41 75  1  0
M  END
> <Uni-Dock RESULT> 
ENERGY=   -4.406  LOWER_BOUND=    5.107  UPPER_BOUND=   11.246
INTER + INTRA:          -4.406
INTER:                  -4.406
INTRA:                   0.000
UNBOUND:                 0.000

$$$$

     RDKit          3D

 75 80  0  0  0  0  0  0  0  0999 V2000
   48.8250   12.7682   16.0520 C   0  0  0  0  0  0  0  0  0  0  0  0
   48.3142   11.6958   16.7992 C   0  0  0  0  0  0  0  0  0  0  0  0
   48.6100   10.4035   16.3183 C   0  0  0  0  0  0  0  0  0  0  0  0
   49.4045   10.1637   15.1826 C   0  0  0  0  0  0  0  0  0  0  0  0
   49.8838   11.2693   14.4681 C   0  0  0  0  0  0  0  0  0  0  0  0
   49.6039   12.5673   14.9057 C   0  0  0  0  0  0  0  0  0  0  0  0
   47.5055   11.8643   17.9242 N   0  0  0  0  0  0  0  0  0  0  0  0
   47.7873   11.0082   19.1054 C   0  0  0  0  0  0  0  0  0  0  0  0
   48.8003   11.6986   20.0516 C   0  0  0  0  0  0  0  0  0  0  0  0
   48.3406   13.0358   20.4948 N   0  0  0  0  0  0  0  0  0  0  0  0
   48.0424   13.8751   19.3121 C   0  0  0  0  0  0  0  0  0  0  0  0
   47.0361   13.2024   18.3453 C   0  0  0  0  0  0  0  0  0  0  0  0
   49.6120    8.8147   14.7941 N   0  0  0  0  0  0  0  0  0  0  0  0
   48.8202    8.3592   13.6226 C   0  0  0  0  0  0  0  0  0  0  0  0
   47.3091    8.5630   13.8085 C   0  0  0  0  0  0  0  0  0  0  0  0
   46.5454    7.5826   12.9341 C   0  0  0  0  0  0  0  0  0  0  0  0
   46.7890    6.2212   13.2874 O   0  0  0  0  0  0  0  0  0  0  0  0
   48.0582    5.9748   13.8972 C   0  0  0  0  0  0  0  0  0  0  0  0
   49.1523    6.8820   13.3533 C   0  0  0  0  0  0  0  0  0  0  0  0
   50.6677   11.0797   13.2237 C   0  0  0  0  0  0  0  0  0  0  0  0
   50.0990   11.7114   12.1380 N   0  0  0  0  0  0  0  0  0  0  0  0
   51.6534   10.3550   13.2653 O   0  0  0  0  0  0  0  0  0  0  0  0
   50.5471   11.6269   10.8349 C   0  0  0  0  0  0  0  0  0  0  0  0
   51.6744   11.0318   10.4448 N   0  0  0  0  0  0  0  0  0  0  0  0
   51.6935   11.1861    9.1143 N   0  0  0  0  0  0  0  0  0  0  0  0
   50.6146   11.8619    8.6116 C   0  0  0  0  0  0  0  0  0  0  0  0
   49.8354   12.1673    9.7202 C   0  0  0  0  0  0  0  0  0  0  0  0
   48.6217   12.8603    9.5283 C   0  0  0  0  0  0  0  0  0  0  0  0
   48.2295   13.2289    8.2270 C   0  0  0  0  0  0  0  0  0  0  0  0
   49.0521   12.9026    7.1384 C   0  0  0  0  0  0  0  0  0  0  0  0
   50.2609   12.2153    7.3069 C   0  0  0  0  0  0  0  0  0  0  0  0
   46.9142   13.9419    8.0032 C   0  0  0  0  0  0  0  0  0  0  0  0
   45.8013   13.0204    7.5606 C   0  0  0  0  0  0  0  0  0  0  0  0
   45.1205   12.2181    8.4891 C   0  0  0  0  0  0  0  0  0  0  0  0
   44.1095   11.3565    8.0641 C   0  0  0  0  0  0  0  0  0  0  0  0
   43.7543   11.2720    6.7256 C   0  0  0  0  0  0  0  0  0  0  0  0
   44.4285   12.0633    5.8071 C   0  0  0  0  0  0  0  0  0  0  0  0
   45.4438   12.9305    6.2073 C   0  0  0  0  0  0  0  0  0  0  0  0
   44.1013   11.9927    4.5104 F   0  0  0  0  0  0  0  0  0  0  0  0
   43.4734   10.5969    8.9654 F   0  0  0  0  0  0  0  0  0  0  0  0
   49.3460   13.6701   21.3437 C   0  0  0  0  0  0  0  0  0  0  0  0
   48.6436   13.7963   16.3499 H   0  0  0  0  0  0  0  0  0  0  0  0
   48.1948    9.5310   16.8177 H   0  0  0  0  0  0  0  0  0  0  0  0
   50.0000   13.4287   14.3734 H   0  0  0  0  0  0  0  0  0  0  0  0
   46.8446   10.8466   19.6438 H   0  0  0  0  0  0  0  0  0  0  0  0
   48.1551   10.0106   18.8486 H   0  0  0  0  0  0  0  0  0  0  0  0
   48.9402   11.0550   20.9288 H   0  0  0  0  0  0  0  0  0  0  0  0
   49.7700   11.7798   19.5415 H   0  0  0  0  0  0  0  0  0  0  0  0
   48.9687   14.1071   18.7705 H   0  0  0  0  0  0  0  0  0  0  0  0
   47.6105   14.8267   19.6444 H   0  0  0  0  0  0  0  0  0  0  0  0
   46.8116   13.8510   17.4906 H   0  0  0  0  0  0  0  0  0  0  0  0
   46.0791   13.0747   18.8705 H   0  0  0  0  0  0  0  0  0  0  0  0
   50.6015    8.7722   14.5009 H   0  0  0  0  0  0  0  0  0  0  0  0
   49.1446    8.9218   12.7371 H   0  0  0  0  0  0  0  0  0  0  0  0
   47.0165    8.4077   14.8554 H   0  0  0  0  0  0  0  0  0  0  0  0
   47.0363    9.5918   13.5421 H   0  0  0  0  0  0  0  0  0  0  0  0
   46.8176    7.7137   11.8802 H   0  0  0  0  0  0  0  0  0  0  0  0
   45.4656    7.7563   13.0094 H   0  0  0  0  0  0  0  0  0  0  0  0
   47.9511    6.0891   14.9824 H   0  0  0  0  0  0  0  0  0  0  0  0
   48.3121    4.9270   13.7098 H   0  0  0  0  0  0  0  0  0  0  0  0
   49.2145    6.7352   12.2670 H   0  0  0  0  0  0  0  0  0  0  0  0
   50.1245    6.5996   13.7727 H   0  0  0  0  0  0  0  0  0  0  0  0
   49.2199   12.1888   12.2642 H   0  0  0  0  0  0  0  0  0  0  0  0
   52.4772   10.7987    8.6014 H   0  0  0  0  0  0  0  0  0  0  0  0
   47.9910   13.0998   10.3785 H   0  0  0  0  0  0  0  0  0  0  0  0
   48.7490   13.1802    6.1288 H   0  0  0  0  0  0  0  0  0  0  0  0
   50.8842   11.9620    6.4555 H   0  0  0  0  0  0  0  0  0  0  0  0
   47.0580   14.7413    7.2649 H   0  0  0  0  0  0  0  0  0  0  0  0
   46.6058   14.4626    8.9197 H   0  0  0  0  0  0  0  0  0  0  0  0
   45.3711   12.2480    9.5459 H   0  0  0  0  0  0  0  0  0  0  0  0
   42.9676   10.6006    6.4032 H   0  0  0  0  0  0  0  0  0  0  0  0
   45.9488   13.5264    5.4519 H   0  0  0  0  0  0  0  0  0  0  0  0
   48.9888   14.6413   21.6997 H   0  0  0  0  0  0  0  0  0  0  0  0
   49.5360   13.0605   22.2330 H   0  0  0  0  0  0  0  0  0  0  0  0
   50.2953   13.8258   20.8197 H   0  0  0  0  0  0  0  0  0  0  0  0
  1  2  2  0
  1  6  1  0
  2  3  1  0
  3  4  2  0
  4  5  1  0
  5  6  2  0
  2  7  1  0
  7  8  1  0
 12  7  1  0
  8  9  1  0
  9 10  1  0
 10 11  1  0
 11 12  1  0
  4 13  1  0
 13 14  1  0
 14 15  1  0
 19 14  1  0
 15 16  1  0
 16 17  1  0
 17 18  1  0
 18 19  1  0
  5 20  1  0
 20 21  1  0
 20 22  2  0
 21 23  1  0
 23 24  2  0
 23 27  1  0
 24 25  1  0
 25 26  1  0
 31 26  2  0
 26 27  1  0
 27 28  2  0
 28 29  1  0
 29 30  2  0
 30 31  1  0
 29 32  1  0
 32 33  1  0
 33 34  2  0
 33 38  1  0
 34 35  1  0
 35 36  2  0
 36 37  1  0
 37 38  2  0
 37 39  1  0
 35 40  1  0
 10 41  1  0
  1 42  1  0
  3 43  1  0
  6 44  1  0
  8 45  1  0
  8 46  1  0
  9 47  1  0
  9 48  1  0
 11 49  1  0
 11 50  1  0
 12 51  1  0
 12 52  1  0
 13 53  1  0
 14 54  1  0
 15 55  1  0
 15 56  1  0
 16 57  1  0
 16 58  1  0
 18 59  1  0
 18 60  1  0
 19 61  1  0
 19 62  1  0
 21 63  1  0
 25 64  1  0
 28 65  1  0
 30 66  1  0
 31 67  1  0
 32 68  1  0
 32 69  1  0
 34 70  1  0
 36 71  1  0
 38 72  1  0
 41 73  1  0
 41 74  1  0
 41 75  1  0
M  END
> <Uni-Dock RESULT> 
ENERGY=   -4.357  LOWER_BOUND=    5.378  UPPER_BOUND=    9.431
INTER + INTRA:          -4.357
INTER:                  -4.357
INTRA:                   0.000
UNBOUND:                 0.000

$$$$

     RDKit          3D

 75 80  0  0  0  0  0  0  0  0999 V2000
   49.5333   11.2828   16.6911 C   0  0  0  0  0  0  0  0  0  0  0  0
   48.4019   10.5889   17.1469 C   0  0  0  0  0  0  0  0  0  0  0  0
   48.1734    9.3218   16.5717 C   0  0  0  0  0  0  0  0  0  0  0  0
   49.0323    8.7360   15.6243 C   0  0  0  0  0  0  0  0  0  0  0  0
   50.1439    9.4738   15.1972 C   0  0  0  0  0  0  0  0  0  0  0  0
   50.4000   10.7386   15.7351 C   0  0  0  0  0  0  0  0  0  0  0  0
   47.5005   11.1196   18.0709 N   0  0  0  0  0  0  0  0  0  0  0  0
   47.0229   10.2230   19.1552 C   0  0  0  0  0  0  0  0  0  0  0  0
   47.9484   10.3210   20.3930 C   0  0  0  0  0  0  0  0  0  0  0  0
   48.0699   11.7078   20.9008 N   0  0  0  0  0  0  0  0  0  0  0  0
   48.5262   12.5978   19.8090 C   0  0  0  0  0  0  0  0  0  0  0  0
   47.6201   12.5121   18.5554 C   0  0  0  0  0  0  0  0  0  0  0  0
   48.6782    7.4615   15.1102 N   0  0  0  0  0  0  0  0  0  0  0  0
   48.1090    7.4627   13.7380 C   0  0  0  0  0  0  0  0  0  0  0  0
   46.8820    8.3768   13.6022 C   0  0  0  0  0  0  0  0  0  0  0  0
   46.0116    7.9032   12.4502 C   0  0  0  0  0  0  0  0  0  0  0  0
   45.4851    6.5928   12.6577 O   0  0  0  0  0  0  0  0  0  0  0  0
   46.2768    5.7516   13.4998 C   0  0  0  0  0  0  0  0  0  0  0  0
   47.7683    6.0143   13.3495 C   0  0  0  0  0  0  0  0  0  0  0  0
   51.0463    8.9380   14.1495 C   0  0  0  0  0  0  0  0  0  0  0  0
   51.1517    9.7780   13.0612 N   0  0  0  0  0  0  0  0  0  0  0  0
   51.5261    7.8238   14.3132 O   0  0  0  0  0  0  0  0  0  0  0  0
   51.8359    9.4986   11.8950 C   0  0  0  0  0  0  0  0  0  0  0  0
   52.6105    8.4327   11.6927 N   0  0  0  0  0  0  0  0  0  0  0  0
   53.0525    8.5715   10.4358 N   0  0  0  0  0  0  0  0  0  0  0  0
   52.5938    9.6932    9.7996 C   0  0  0  0  0  0  0  0  0  0  0  0
   51.7858   10.3290   10.7336 C   0  0  0  0  0  0  0  0  0  0  0  0
   51.1390   11.5285   10.3688 C   0  0  0  0  0  0  0  0  0  0  0  0
   51.3270   12.0549    9.0763 C   0  0  0  0  0  0  0  0  0  0  0  0
   52.1565   11.3794    8.1686 C   0  0  0  0  0  0  0  0  0  0  0  0
   52.8081   10.1875    8.5105 C   0  0  0  0  0  0  0  0  0  0  0  0
   50.6124   13.3217    8.6605 C   0  0  0  0  0  0  0  0  0  0  0  0
   49.3606   13.0658    7.8535 C   0  0  0  0  0  0  0  0  0  0  0  0
   48.1644   12.6888    8.4829 C   0  0  0  0  0  0  0  0  0  0  0  0
   47.0219   12.4352    7.7244 C   0  0  0  0  0  0  0  0  0  0  0  0
   47.0388   12.5486    6.3417 C   0  0  0  0  0  0  0  0  0  0  0  0
   48.2217   12.9190    5.7189 C   0  0  0  0  0  0  0  0  0  0  0  0
   49.3770   13.1757    6.4553 C   0  0  0  0  0  0  0  0  0  0  0  0
   48.2575   13.0304    4.3849 F   0  0  0  0  0  0  0  0  0  0  0  0
   45.8905   12.0740    8.3436 F   0  0  0  0  0  0  0  0  0  0  0  0
   48.9885   11.7616   22.0352 C   0  0  0  0  0  0  0  0  0  0  0  0
   49.7830   12.2654   17.0792 H   0  0  0  0  0  0  0  0  0  0  0  0
   47.2820    8.7582   16.8381 H   0  0  0  0  0  0  0  0  0  0  0  0
   51.2789   11.3022   15.4311 H   0  0  0  0  0  0  0  0  0  0  0  0
   46.0098   10.5371   19.4378 H   0  0  0  0  0  0  0  0  0  0  0  0
   46.9335    9.1755   18.8532 H   0  0  0  0  0  0  0  0  0  0  0  0
   47.5315    9.6823   21.1812 H   0  0  0  0  0  0  0  0  0  0  0  0
   48.9389    9.9234   20.1327 H   0  0  0  0  0  0  0  0  0  0  0  0
   49.5593   12.3532   19.5295 H   0  0  0  0  0  0  0  0  0  0  0  0
   48.5199   13.6357   20.1630 H   0  0  0  0  0  0  0  0  0  0  0  0
   47.9620   13.1964   17.7703 H   0  0  0  0  0  0  0  0  0  0  0  0
   46.6144   12.8628   18.8267 H   0  0  0  0  0  0  0  0  0  0  0  0
   49.5699    6.9441   15.0465 H   0  0  0  0  0  0  0  0  0  0  0  0
   48.8812    7.8041   13.0360 H   0  0  0  0  0  0  0  0  0  0  0  0
   46.2845    8.3736   14.5235 H   0  0  0  0  0  0  0  0  0  0  0  0
   47.2051    9.4103   13.4257 H   0  0  0  0  0  0  0  0  0  0  0  0
   46.5824    7.8953   11.5142 H   0  0  0  0  0  0  0  0  0  0  0  0
   45.1632    8.5814   12.3015 H   0  0  0  0  0  0  0  0  0  0  0  0
   45.9518    5.8927   14.5373 H   0  0  0  0  0  0  0  0  0  0  0  0
   46.0496    4.7153   13.2318 H   0  0  0  0  0  0  0  0  0  0  0  0
   48.0406    5.8668   12.2961 H   0  0  0  0  0  0  0  0  0  0  0  0
   48.3436    5.2887   13.9356 H   0  0  0  0  0  0  0  0  0  0  0  0
   50.6012   10.6227   13.0492 H   0  0  0  0  0  0  0  0  0  0  0  0
   53.6676    7.8558   10.0659 H   0  0  0  0  0  0  0  0  0  0  0  0
   50.4938   12.0370   11.0783 H   0  0  0  0  0  0  0  0  0  0  0  0
   52.2996   11.7799    7.1649 H   0  0  0  0  0  0  0  0  0  0  0  0
   53.4409    9.6707    7.7963 H   0  0  0  0  0  0  0  0  0  0  0  0
   51.3044   13.9565    8.0920 H   0  0  0  0  0  0  0  0  0  0  0  0
   50.3530   13.9174    9.5459 H   0  0  0  0  0  0  0  0  0  0  0  0
   48.1087   12.5819    9.5628 H   0  0  0  0  0  0  0  0  0  0  0  0
   46.1471   12.3503    5.7594 H   0  0  0  0  0  0  0  0  0  0  0  0
   50.2825   13.4566    5.9243 H   0  0  0  0  0  0  0  0  0  0  0  0
   49.0480   12.7799   22.4316 H   0  0  0  0  0  0  0  0  0  0  0  0
   48.6266   11.1278   22.8513 H   0  0  0  0  0  0  0  0  0  0  0  0
   50.0005   11.4390   21.7673 H   0  0  0  0  0  0  0  0  0  0  0  0
  1  2  2  0
  1  6  1  0
  2  3  1  0
  3  4  2  0
  4  5  1  0
  5  6  2  0
  2  7  1  0
  7  8  1  0
 12  7  1  0
  8  9  1  0
  9 10  1  0
 10 11  1  0
 11 12  1  0
  4 13  1  0
 13 14  1  0
 14 15  1  0
 19 14  1  0
 15 16  1  0
 16 17  1  0
 17 18  1  0
 18 19  1  0
  5 20  1  0
 20 21  1  0
 20 22  2  0
 21 23  1  0
 23 24  2  0
 23 27  1  0
 24 25  1  0
 25 26  1  0
 31 26  2  0
 26 27  1  0
 27 28  2  0
 28 29  1  0
 29 30  2  0
 30 31  1  0
 29 32  1  0
 32 33  1  0
 33 34  2  0
 33 38  1  0
 34 35  1  0
 35 36  2  0
 36 37  1  0
 37 38  2  0
 37 39  1  0
 35 40  1  0
 10 41  1  0
  1 42  1  0
  3 43  1  0
  6 44  1  0
  8 45  1  0
  8 46  1  0
  9 47  1  0
  9 48  1  0
 11 49  1  0
 11 50  1  0
 12 51  1  0
 12 52  1  0
 13 53  1  0
 14 54  1  0
 15 55  1  0
 15 56  1  0
 16 57  1  0
 16 58  1  0
 18 59  1  0
 18 60  1  0
 19 61  1  0
 19 62  1  0
 21 63  1  0
 25 64  1  0
 28 65  1  0
 30 66  1  0
 31 67  1  0
 32 68  1  0
 32 69  1  0
 34 70  1  0
 36 71  1  0
 38 72  1  0
 41 73  1  0
 41 74  1  0
 41 75  1  0
M  END
> <Uni-Dock RESULT> 
ENERGY=   -4.335  LOWER_BOUND=    5.832  UPPER_BOUND=    9.425
INTER + INTRA:          -4.335
INTER:                  -4.335
INTRA:                   0.000
UNBOUND:                 0.000

$$$$

     RDKit          3D

 75 80  0  0  0  0  0  0  0  0999 V2000
   45.7414   12.1512    9.5741 C   0  0  0  0  0  0  0  0  0  0  0  0
   45.1001   11.2287   10.4149 C   0  0  0  0  0  0  0  0  0  0  0  0
   45.8016   10.8533   11.5792 C   0  0  0  0  0  0  0  0  0  0  0  0
   47.0551   11.3847   11.9324 C   0  0  0  0  0  0  0  0  0  0  0  0
   47.6554   12.2967   11.0547 C   0  0  0  0  0  0  0  0  0  0  0  0
   46.9976   12.6868    9.8842 C   0  0  0  0  0  0  0  0  0  0  0  0
   43.8657   10.6504   10.1150 N   0  0  0  0  0  0  0  0  0  0  0  0
   42.8718   10.5477   11.2145 C   0  0  0  0  0  0  0  0  0  0  0  0
   41.9761   11.8101   11.2614 C   0  0  0  0  0  0  0  0  0  0  0  0
   41.2832   12.0610    9.9758 N   0  0  0  0  0  0  0  0  0  0  0  0
   42.2790   12.1413    8.8830 C   0  0  0  0  0  0  0  0  0  0  0  0
   43.1931   10.8922    8.8199 C   0  0  0  0  0  0  0  0  0  0  0  0
   47.6627   10.9090   13.1234 N   0  0  0  0  0  0  0  0  0  0  0  0
   48.7737    9.9418   12.9305 C   0  0  0  0  0  0  0  0  0  0  0  0
   48.3617    8.7188   12.0974 C   0  0  0  0  0  0  0  0  0  0  0  0
   49.2628    7.5413   12.4302 C   0  0  0  0  0  0  0  0  0  0  0  0
   49.1500    7.1265   13.7913 O   0  0  0  0  0  0  0  0  0  0  0  0
   48.7563    8.1540   14.7038 C   0  0  0  0  0  0  0  0  0  0  0  0
   49.2999    9.5206   14.3127 C   0  0  0  0  0  0  0  0  0  0  0  0
   49.0067   12.8376   11.3385 C   0  0  0  0  0  0  0  0  0  0  0  0
   49.9023   12.5862   10.3207 N   0  0  0  0  0  0  0  0  0  0  0  0
   49.2032   13.3623   12.4268 O   0  0  0  0  0  0  0  0  0  0  0  0
   51.2512   12.8787   10.3482 C   0  0  0  0  0  0  0  0  0  0  0  0
   51.8705   13.5692   11.3057 N   0  0  0  0  0  0  0  0  0  0  0  0
   53.1543   13.5967   10.9243 N   0  0  0  0  0  0  0  0  0  0  0  0
   53.4046   12.9452    9.7470 C   0  0  0  0  0  0  0  0  0  0  0  0
   52.1699   12.4570    9.3386 C   0  0  0  0  0  0  0  0  0  0  0  0
   52.0952   11.7097    8.1445 C   0  0  0  0  0  0  0  0  0  0  0  0
   53.2643   11.4785    7.3943 C   0  0  0  0  0  0  0  0  0  0  0  0
   54.4882   11.9958    7.8445 C   0  0  0  0  0  0  0  0  0  0  0  0
   54.5844   12.7405    9.0270 C   0  0  0  0  0  0  0  0  0  0  0  0
   53.2044   10.6499    6.1301 C   0  0  0  0  0  0  0  0  0  0  0  0
   53.6275    9.2136    6.3351 C   0  0  0  0  0  0  0  0  0  0  0  0
   52.7461    8.2783    6.8985 C   0  0  0  0  0  0  0  0  0  0  0  0
   53.1564    6.9609    7.1015 C   0  0  0  0  0  0  0  0  0  0  0  0
   54.4340    6.5457    6.7543 C   0  0  0  0  0  0  0  0  0  0  0  0
   55.3063    7.4705    6.1993 C   0  0  0  0  0  0  0  0  0  0  0  0
   54.9199    8.7932    5.9887 C   0  0  0  0  0  0  0  0  0  0  0  0
   56.5444    7.0885    5.8610 F   0  0  0  0  0  0  0  0  0  0  0  0
   52.3013    6.0837    7.6430 F   0  0  0  0  0  0  0  0  0  0  0  0
   40.4903   13.2856   10.0491 C   0  0  0  0  0  0  0  0  0  0  0  0
   45.2735   12.4933    8.6561 H   0  0  0  0  0  0  0  0  0  0  0  0
   45.3862   10.0979   12.2425 H   0  0  0  0  0  0  0  0  0  0  0  0
   47.4443   13.4186    9.2155 H   0  0  0  0  0  0  0  0  0  0  0  0
   42.2433    9.6675   11.0268 H   0  0  0  0  0  0  0  0  0  0  0  0
   43.3194   10.3858   12.1993 H   0  0  0  0  0  0  0  0  0  0  0  0
   41.2299   11.6690   12.0530 H   0  0  0  0  0  0  0  0  0  0  0  0
   42.5922   12.6771   11.5367 H   0  0  0  0  0  0  0  0  0  0  0  0
   42.8980   13.0402    9.0015 H   0  0  0  0  0  0  0  0  0  0  0  0
   41.7556   12.2285    7.9233 H   0  0  0  0  0  0  0  0  0  0  0  0
   43.9053   10.9623    7.9895 H   0  0  0  0  0  0  0  0  0  0  0  0
   42.5708   10.0150    8.5936 H   0  0  0  0  0  0  0  0  0  0  0  0
   48.0871   11.7450   13.5568 H   0  0  0  0  0  0  0  0  0  0  0  0
   49.6013   10.4522   12.4201 H   0  0  0  0  0  0  0  0  0  0  0  0
   47.3199    8.4371   12.2999 H   0  0  0  0  0  0  0  0  0  0  0  0
   48.4347    8.9544   11.0284 H   0  0  0  0  0  0  0  0  0  0  0  0
   50.3124    7.7933   12.2381 H   0  0  0  0  0  0  0  0  0  0  0  0
   49.0207    6.6779   11.7995 H   0  0  0  0  0  0  0  0  0  0  0  0
   47.6617    8.1651   14.7646 H   0  0  0  0  0  0  0  0  0  0  0  0
   49.1285    7.8715   15.6933 H   0  0  0  0  0  0  0  0  0  0  0  0
   50.3946    9.4546   14.2594 H   0  0  0  0  0  0  0  0  0  0  0  0
   49.0590   10.2611   15.0838 H   0  0  0  0  0  0  0  0  0  0  0  0
   49.5918   12.0457    9.5281 H   0  0  0  0  0  0  0  0  0  0  0  0
   53.8178   14.0779   11.5206 H   0  0  0  0  0  0  0  0  0  0  0  0
   51.1431   11.3087    7.8115 H   0  0  0  0  0  0  0  0  0  0  0  0
   55.3967   11.8136    7.2703 H   0  0  0  0  0  0  0  0  0  0  0  0
   55.5387   13.1284    9.3682 H   0  0  0  0  0  0  0  0  0  0  0  0
   53.8289   11.1208    5.3600 H   0  0  0  0  0  0  0  0  0  0  0  0
   52.1884   10.6687    5.7135 H   0  0  0  0  0  0  0  0  0  0  0  0
   51.7389    8.5624    7.1908 H   0  0  0  0  0  0  0  0  0  0  0  0
   54.7452    5.5205    6.9147 H   0  0  0  0  0  0  0  0  0  0  0  0
   55.6390    9.4843    5.5573 H   0  0  0  0  0  0  0  0  0  0  0  0
   39.9506   13.4488    9.1112 H   0  0  0  0  0  0  0  0  0  0  0  0
   39.7339   13.2052   10.8365 H   0  0  0  0  0  0  0  0  0  0  0  0
   41.1063   14.1693   10.2478 H   0  0  0  0  0  0  0  0  0  0  0  0
  1  2  2  0
  1  6  1  0
  2  3  1  0
  3  4  2  0
  4  5  1  0
  5  6  2  0
  2  7  1  0
  7  8  1  0
 12  7  1  0
  8  9  1  0
  9 10  1  0
 10 11  1  0
 11 12  1  0
  4 13  1  0
 13 14  1  0
 14 15  1  0
 19 14  1  0
 15 16  1  0
 16 17  1  0
 17 18  1  0
 18 19  1  0
  5 20  1  0
 20 21  1  0
 20 22  2  0
 21 23  1  0
 23 24  2  0
 23 27  1  0
 24 25  1  0
 25 26  1  0
 31 26  2  0
 26 27  1  0
 27 28  2  0
 28 29  1  0
 29 30  2  0
 30 31  1  0
 29 32  1  0
 32 33  1  0
 33 34  2  0
 33 38  1  0
 34 35  1  0
 35 36  2  0
 36 37  1  0
 37 38  2  0
 37 39  1  0
 35 40  1  0
 10 41  1  0
  1 42  1  0
  3 43  1  0
  6 44  1  0
  8 45  1  0
  8 46  1  0
  9 47  1  0
  9 48  1  0
 11 49  1  0
 11 50  1  0
 12 51  1  0
 12 52  1  0
 13 53  1  0
 14 54  1  0
 15 55  1  0
 15 56  1  0
 16 57  1  0
 16 58  1  0
 18 59  1  0
 18 60  1  0
 19 61  1  0
 19 62  1  0
 21 63  1  0
 25 64  1  0
 28 65  1  0
 30 66  1  0
 31 67  1  0
 32 68  1  0
 32 69  1  0
 34 70  1  0
 36 71  1  0
 38 72  1  0
 41 73  1  0
 41 74  1  0
 41 75  1  0
M  END
> <Uni-Dock RESULT> 
ENERGY=   -4.224  LOWER_BOUND=    4.479  UPPER_BOUND=    7.665
INTER + INTRA:          -4.224
INTER:                  -4.224
INTRA:                   0.000
UNBOUND:                 0.000

$$$$
