
     RDKit          3D

 75 80  0  0  0  0  0  0  0  0999 V2000
   45.5346   12.2068    9.8649 C   0  0  0  0  0  0  0  0  0  0  0  0
   44.3839   13.0003    9.9413 C   0  0  0  0  0  0  0  0  0  0  0  0
   43.2136   12.3913   10.4502 C   0  0  0  0  0  0  0  0  0  0  0  0
   43.1404   11.0375   10.8269 C   0  0  0  0  0  0  0  0  0  0  0  0
   44.3357   10.2976   10.7465 C   0  0  0  0  0  0  0  0  0  0  0  0
   45.5179   10.8683   10.2601 C   0  0  0  0  0  0  0  0  0  0  0  0
   44.3590   14.3577    9.5757 N   0  0  0  0  0  0  0  0  0  0  0  0
   43.3425   14.6989    8.5475 C   0  0  0  0  0  0  0  0  0  0  0  0
   43.2093   16.2353    8.3902 C   0  0  0  0  0  0  0  0  0  0  0  0
   44.4716   16.9705    8.1596 N   0  0  0  0  0  0  0  0  0  0  0  0
   45.4452   16.5725    9.1994 C   0  0  0  0  0  0  0  0  0  0  0  0
   45.6496   15.0476    9.3644 C   0  0  0  0  0  0  0  0  0  0  0  0
   41.9969   10.4618   11.4038 N   0  0  0  0  0  0  0  0  0  0  0  0
   40.6742   11.0869   11.3350 C   0  0  0  0  0  0  0  0  0  0  0  0
   40.4775   12.0436   12.5106 C   0  0  0  0  0  0  0  0  0  0  0  0
   39.0958   12.6927   12.4432 C   0  0  0  0  0  0  0  0  0  0  0  0
   38.1578   11.9271   11.6817 O   0  0  0  0  0  0  0  0  0  0  0  0
   38.2698   10.5317   11.9415 C   0  0  0  0  0  0  0  0  0  0  0  0
   39.5920    9.9948   11.4024 C   0  0  0  0  0  0  0  0  0  0  0  0
   44.3714    8.8702   11.1554 C   0  0  0  0  0  0  0  0  0  0  0  0
   45.2992    8.6056   12.1298 N   0  0  0  0  0  0  0  0  0  0  0  0
   43.5732    8.0975   10.6413 O   0  0  0  0  0  0  0  0  0  0  0  0
   45.6212    7.3857   12.6768 C   0  0  0  0  0  0  0  0  0  0  0  0
   46.3278    7.4172   13.8147 N   0  0  0  0  0  0  0  0  0  0  0  0
   46.4844    6.1274   14.1364 N   0  0  0  0  0  0  0  0  0  0  0  0
   45.9619    5.2506   13.2278 C   0  0  0  0  0  0  0  0  0  0  0  0
   45.3845    6.0458   12.2414 C   0  0  0  0  0  0  0  0  0  0  0  0
   44.7961    5.3925   11.1371 C   0  0  0  0  0  0  0  0  0  0  0  0
   44.7711    3.9848   11.0718 C   0  0  0  0  0  0  0  0  0  0  0  0
   45.3537    3.2352   12.0991 C   0  0  0  0  0  0  0  0  0  0  0  0
   45.9616    3.8532   13.1968 C   0  0  0  0  0  0  0  0  0  0  0  0
   44.1389    3.2957    9.8844 C   0  0  0  0  0  0  0  0  0  0  0  0
   45.1245    2.9427    8.7960 C   0  0  0  0  0  0  0  0  0  0  0  0
   45.6947    1.6622    8.7318 C   0  0  0  0  0  0  0  0  0  0  0  0
   46.6038    1.3528    7.7226 C   0  0  0  0  0  0  0  0  0  0  0  0
   46.9689    2.2934    6.7703 C   0  0  0  0  0  0  0  0  0  0  0  0
   46.4140    3.5632    6.8404 C   0  0  0  0  0  0  0  0  0  0  0  0
   45.5030    3.8970    7.8396 C   0  0  0  0  0  0  0  0  0  0  0  0
   46.7595    4.4826    5.9295 F   0  0  0  0  0  0  0  0  0  0  0  0
   47.1329    0.1228    7.6727 F   0  0  0  0  0  0  0  0  0  0  0  0
   44.9891   16.7413    6.8129 C   0  0  0  0  0  0  0  0  0  0  0  0
   46.4677   12.6036    9.4775 H   0  0  0  0  0  0  0  0  0  0  0  0
   42.3372   13.0220   10.5688 H   0  0  0  0  0  0  0  0  0  0  0  0
   46.4218   10.2720   10.1684 H   0  0  0  0  0  0  0  0  0  0  0  0
   42.3506   14.3140    8.8116 H   0  0  0  0  0  0  0  0  0  0  0  0
   43.6250   14.2446    7.5878 H   0  0  0  0  0  0  0  0  0  0  0  0
   42.4957   16.4586    7.5880 H   0  0  0  0  0  0  0  0  0  0  0  0
   42.7574   16.6356    9.3078 H   0  0  0  0  0  0  0  0  0  0  0  0
   46.4133   17.0537    9.0107 H   0  0  0  0  0  0  0  0  0  0  0  0
   45.0938   16.9797   10.1580 H   0  0  0  0  0  0  0  0  0  0  0  0
   46.3049   14.8923   10.2304 H   0  0  0  0  0  0  0  0  0  0  0  0
   46.1564   14.6502    8.4767 H   0  0  0  0  0  0  0  0  0  0  0  0
   41.9807    9.4542   11.2017 H   0  0  0  0  0  0  0  0  0  0  0  0
   40.5493   11.6169   10.3821 H   0  0  0  0  0  0  0  0  0  0  0  0
   41.2493   12.8181   12.5692 H   0  0  0  0  0  0  0  0  0  0  0  0
   40.5622   11.4829   13.4530 H   0  0  0  0  0  0  0  0  0  0  0  0
   38.6981   12.8508   13.4550 H   0  0  0  0  0  0  0  0  0  0  0  0
   39.1662   13.6768   11.9645 H   0  0  0  0  0  0  0  0  0  0  0  0
   37.4317   10.0198   11.4586 H   0  0  0  0  0  0  0  0  0  0  0  0
   38.1805   10.3567   13.0205 H   0  0  0  0  0  0  0  0  0  0  0  0
   39.4486    9.5866   10.3956 H   0  0  0  0  0  0  0  0  0  0  0  0
   39.9044    9.1466   12.0227 H   0  0  0  0  0  0  0  0  0  0  0  0
   45.6974    9.3767   12.6490 H   0  0  0  0  0  0  0  0  0  0  0  0
   46.9729    5.9024   14.9950 H   0  0  0  0  0  0  0  0  0  0  0  0
   44.3634    5.9725   10.3278 H   0  0  0  0  0  0  0  0  0  0  0  0
   45.3429    2.1480   12.0532 H   0  0  0  0  0  0  0  0  0  0  0  0
   46.4207    3.2639   13.9834 H   0  0  0  0  0  0  0  0  0  0  0  0
   43.3432    3.9262    9.4659 H   0  0  0  0  0  0  0  0  0  0  0  0
   43.6210    2.3898   10.2264 H   0  0  0  0  0  0  0  0  0  0  0  0
   45.4376    0.8947    9.4581 H   0  0  0  0  0  0  0  0  0  0  0  0
   47.6747    2.0421    5.9882 H   0  0  0  0  0  0  0  0  0  0  0  0
   45.0926    4.9042    7.8629 H   0  0  0  0  0  0  0  0  0  0  0  0
   45.2123   15.6903    6.6034 H   0  0  0  0  0  0  0  0  0  0  0  0
   44.2685   17.0889    6.0647 H   0  0  0  0  0  0  0  0  0  0  0  0
   45.9016   17.3253    6.6510 H   0  0  0  0  0  0  0  0  0  0  0  0
  1  2  2  0
  1  6  1  0
  2  3  1  0
  3  4  2  0
  4  5  1  0
  5  6  2  0
  2  7  1  0
  7  8  1  0
 12  7  1  0
  8  9  1  0
  9 10  1  0
 10 11  1  0
 11 12  1  0
  4 13  1  0
 13 14  1  0
 14 15  1  0
 19 14  1  0
 15 16  1  0
 16 17  1  0
 17 18  1  0
 18 19  1  0
  5 20  1  0
 20 21  1  0
 20 22  2  0
 21 23  1  0
 23 24  2  0
 23 27  1  0
 24 25  1  0
 25 26  1  0
 31 26  2  0
 26 27  1  0
 27 28  2  0
 28 29  1  0
 29 30  2  0
 30 31  1  0
 29 32  1  0
 32 33  1  0
 33 34  2  0
 33 38  1  0
 34 35  1  0
 35 36  2  0
 36 37  1  0
 37 38  2  0
 37 39  1  0
 35 40  1  0
 10 41  1  0
  1 42  1  0
  3 43  1  0
  6 44  1  0
  8 45  1  0
  8 46  1  0
  9 47  1  0
  9 48  1  0
 11 49  1  0
 11 50  1  0
 12 51  1  0
 12 52  1  0
 13 53  1  0
 14 54  1  0
 15 55  1  0
 15 56  1  0
 16 57  1  0
 16 58  1  0
 18 59  1  0
 18 60  1  0
 19 61  1  0
 19 62  1  0
 21 63  1  0
 25 64  1  0
 28 65  1  0
 30 66  1  0
 31 67  1  0
 32 68  1  0
 32 69  1  0
 34 70  1  0
 36 71  1  0
 38 72  1  0
 41 73  1  0
 41 74  1  0
 41 75  1  0
M  END
> <Uni-Dock RESULT> 
ENERGY=   -7.494  LOWER_BOUND=    0.000  UPPER_BOUND=    0.000
INTER + INTRA:          -7.494
INTER:                  -7.494
INTRA:                   0.000
UNBOUND:                 0.000

$$$$

     RDKit          3D

 75 80  0  0  0  0  0  0  0  0999 V2000
   51.5383   11.0753   10.4144 C   0  0  0  0  0  0  0  0  0  0  0  0
   51.2343   12.4386   10.5061 C   0  0  0  0  0  0  0  0  0  0  0  0
   50.0107   12.7860   11.1239 C   0  0  0  0  0  0  0  0  0  0  0  0
   49.0796   11.8417   11.5943 C   0  0  0  0  0  0  0  0  0  0  0  0
   49.4521   10.4876   11.4922 C   0  0  0  0  0  0  0  0  0  0  0  0
   50.6606   10.1041   10.8987 C   0  0  0  0  0  0  0  0  0  0  0  0
   52.0968   13.4521   10.0525 N   0  0  0  0  0  0  0  0  0  0  0  0
   51.4881   14.3817    9.0664 C   0  0  0  0  0  0  0  0  0  0  0  0
   52.4102   15.6020    8.8147 C   0  0  0  0  0  0  0  0  0  0  0  0
   53.8112   15.2879    8.4601 N   0  0  0  0  0  0  0  0  0  0  0  0
   54.3512   14.3456    9.4641 C   0  0  0  0  0  0  0  0  0  0  0  0
   53.4898   13.0856    9.7184 C   0  0  0  0  0  0  0  0  0  0  0  0
   47.9042   12.1960   12.2760 N   0  0  0  0  0  0  0  0  0  0  0  0
   47.3476   13.5504   12.2448 C   0  0  0  0  0  0  0  0  0  0  0  0
   47.9522   14.3987   13.3632 C   0  0  0  0  0  0  0  0  0  0  0  0
   47.3686   15.8106   13.3353 C   0  0  0  0  0  0  0  0  0  0  0  0
   46.0965   15.8742   12.6844 O   0  0  0  0  0  0  0  0  0  0  0  0
   45.2628   14.7729   13.0301 C   0  0  0  0  0  0  0  0  0  0  0  0
   45.8241   13.4784   12.4500 C   0  0  0  0  0  0  0  0  0  0  0  0
   48.5543    9.4157   11.9931 C   0  0  0  0  0  0  0  0  0  0  0  0
   49.1446    8.6020   12.9257 N   0  0  0  0  0  0  0  0  0  0  0  0
   47.4022    9.3817   11.5807 O   0  0  0  0  0  0  0  0  0  0  0  0
   48.6089    7.4906   13.5330 C   0  0  0  0  0  0  0  0  0  0  0  0
   49.2508    7.0461   14.6219 N   0  0  0  0  0  0  0  0  0  0  0  0
   48.5265    5.9931   15.0194 N   0  0  0  0  0  0  0  0  0  0  0  0
   47.4715    5.6924   14.2046 C   0  0  0  0  0  0  0  0  0  0  0  0
   47.4945    6.6598   13.2034 C   0  0  0  0  0  0  0  0  0  0  0  0
   46.5240    6.5666   12.1826 C   0  0  0  0  0  0  0  0  0  0  0  0
   45.5524    5.5460   12.2135 C   0  0  0  0  0  0  0  0  0  0  0  0
   45.5676    4.6091   13.2521 C   0  0  0  0  0  0  0  0  0  0  0  0
   46.5281    4.6630   14.2675 C   0  0  0  0  0  0  0  0  0  0  0  0
   44.5182    5.4554   11.1150 C   0  0  0  0  0  0  0  0  0  0  0  0
   44.9069    4.5191    9.9957 C   0  0  0  0  0  0  0  0  0  0  0  0
   44.4580    3.1897    9.9835 C   0  0  0  0  0  0  0  0  0  0  0  0
   44.8271    2.3380    8.9447 C   0  0  0  0  0  0  0  0  0  0  0  0
   45.6429    2.7754    7.9113 C   0  0  0  0  0  0  0  0  0  0  0  0
   46.0963    4.0866    7.9291 C   0  0  0  0  0  0  0  0  0  0  0  0
   45.7415    4.9575    8.9565 C   0  0  0  0  0  0  0  0  0  0  0  0
   46.8872    4.5221    6.9396 F   0  0  0  0  0  0  0  0  0  0  0  0
   44.3833    1.0737    8.9457 F   0  0  0  0  0  0  0  0  0  0  0  0
   53.9164   14.7571    7.1032 C   0  0  0  0  0  0  0  0  0  0  0  0
   52.4558   10.7330    9.9460 H   0  0  0  0  0  0  0  0  0  0  0  0
   49.8024   13.8444   11.2523 H   0  0  0  0  0  0  0  0  0  0  0  0
   50.9148    9.0529   10.7933 H   0  0  0  0  0  0  0  0  0  0  0  0
   50.5244   14.7713    9.4147 H   0  0  0  0  0  0  0  0  0  0  0  0
   51.3039   13.8474    8.1242 H   0  0  0  0  0  0  0  0  0  0  0  0
   51.9648   16.2420    8.0435 H   0  0  0  0  0  0  0  0  0  0  0  0
   52.4300   16.2107    9.7288 H   0  0  0  0  0  0  0  0  0  0  0  0
   55.3690   14.0437    9.1858 H   0  0  0  0  0  0  0  0  0  0  0  0
   54.4530   14.8918   10.4125 H   0  0  0  0  0  0  0  0  0  0  0  0
   53.9439   12.5358   10.5521 H   0  0  0  0  0  0  0  0  0  0  0  0
   53.5150   12.4422    8.8306 H   0  0  0  0  0  0  0  0  0  0  0  0
   47.1962   11.4630   12.1433 H   0  0  0  0  0  0  0  0  0  0  0  0
   47.5273   14.0168   11.2676 H   0  0  0  0  0  0  0  0  0  0  0  0
   49.0453   14.4477   13.3234 H   0  0  0  0  0  0  0  0  0  0  0  0
   47.7214   13.9367   14.3343 H   0  0  0  0  0  0  0  0  0  0  0  0
   47.2735   16.2050   14.3562 H   0  0  0  0  0  0  0  0  0  0  0  0
   48.0397   16.4836   12.7883 H   0  0  0  0  0  0  0  0  0  0  0  0
   44.2598   14.9583   12.6336 H   0  0  0  0  0  0  0  0  0  0  0  0
   45.1761   14.7140   14.1218 H   0  0  0  0  0  0  0  0  0  0  0  0
   45.3540   13.2658   11.4832 H   0  0  0  0  0  0  0  0  0  0  0  0
   45.5381   12.6479   13.1059 H   0  0  0  0  0  0  0  0  0  0  0  0
   50.0024    8.9054   13.3673 H   0  0  0  0  0  0  0  0  0  0  0  0
   48.8106    5.5046   15.8603 H   0  0  0  0  0  0  0  0  0  0  0  0
   46.5242    7.2793   11.3637 H   0  0  0  0  0  0  0  0  0  0  0  0
   44.8239    3.8151   13.2799 H   0  0  0  0  0  0  0  0  0  0  0  0
   46.5390    3.9254   15.0629 H   0  0  0  0  0  0  0  0  0  0  0  0
   44.3209    6.4542   10.7036 H   0  0  0  0  0  0  0  0  0  0  0  0
   43.5589    5.1414   11.5474 H   0  0  0  0  0  0  0  0  0  0  0  0
   43.8178    2.8047   10.7737 H   0  0  0  0  0  0  0  0  0  0  0  0
   45.9220    2.1060    7.1069 H   0  0  0  0  0  0  0  0  0  0  0  0
   46.1201    5.9772    8.9367 H   0  0  0  0  0  0  0  0  0  0  0  0
   53.3542   13.8301    6.9517 H   0  0  0  0  0  0  0  0  0  0  0  0
   53.5543   15.4938    6.3779 H   0  0  0  0  0  0  0  0  0  0  0  0
   54.9649   14.5687    6.8482 H   0  0  0  0  0  0  0  0  0  0  0  0
  1  2  2  0
  1  6  1  0
  2  3  1  0
  3  4  2  0
  4  5  1  0
  5  6  2  0
  2  7  1  0
  7  8  1  0
 12  7  1  0
  8  9  1  0
  9 10  1  0
 10 11  1  0
 11 12  1  0
  4 13  1  0
 13 14  1  0
 14 15  1  0
 19 14  1  0
 15 16  1  0
 16 17  1  0
 17 18  1  0
 18 19  1  0
  5 20  1  0
 20 21  1  0
 20 22  2  0
 21 23  1  0
 23 24  2  0
 23 27  1  0
 24 25  1  0
 25 26  1  0
 31 26  2  0
 26 27  1  0
 27 28  2  0
 28 29  1  0
 29 30  2  0
 30 31  1  0
 29 32  1  0
 32 33  1  0
 33 34  2  0
 33 38  1  0
 34 35  1  0
 35 36  2  0
 36 37  1  0
 37 38  2  0
 37 39  1  0
 35 40  1  0
 10 41  1  0
  1 42  1  0
  3 43  1  0
  6 44  1  0
  8 45  1  0
  8 46  1  0
  9 47  1  0
  9 48  1  0
 11 49  1  0
 11 50  1  0
 12 51  1  0
 12 52  1  0
 13 53  1  0
 14 54  1  0
 15 55  1  0
 15 56  1  0
 16 57  1  0
 16 58  1  0
 18 59  1  0
 18 60  1  0
 19 61  1  0
 19 62  1  0
 21 63  1  0
 25 64  1  0
 28 65  1  0
 30 66  1  0
 31 67  1  0
 32 68  1  0
 32 69  1  0
 34 70  1  0
 36 71  1  0
 38 72  1  0
 41 73  1  0
 41 74  1  0
 41 75  1  0
M  END
> <Uni-Dock RESULT> 
ENERGY=   -6.678  LOWER_BOUND=    4.565  UPPER_BOUND=    5.694
INTER + INTRA:          -6.678
INTER:                  -6.678
INTRA:                   0.000
UNBOUND:                 0.000

$$$$

     RDKit          3D

 75 80  0  0  0  0  0  0  0  0999 V2000
   47.4867   10.4638   12.3098 C   0  0  0  0  0  0  0  0  0  0  0  0
   48.5432   10.8597   11.4811 C   0  0  0  0  0  0  0  0  0  0  0  0
   49.7291   10.0918   11.5374 C   0  0  0  0  0  0  0  0  0  0  0  0
   49.9108    9.0015   12.4082 C   0  0  0  0  0  0  0  0  0  0  0  0
   48.8050    8.6399   13.2013 C   0  0  0  0  0  0  0  0  0  0  0  0
   47.6095    9.3674   13.1647 C   0  0  0  0  0  0  0  0  0  0  0  0
   48.4576   11.9430   10.5888 N   0  0  0  0  0  0  0  0  0  0  0  0
   49.5060   12.9786   10.7768 C   0  0  0  0  0  0  0  0  0  0  0  0
   49.4948   13.9952    9.6066 C   0  0  0  0  0  0  0  0  0  0  0  0
   48.1848   14.6093    9.2999 N   0  0  0  0  0  0  0  0  0  0  0  0
   47.1840   13.5312    9.1460 C   0  0  0  0  0  0  0  0  0  0  0  0
   47.1226   12.5150   10.3112 C   0  0  0  0  0  0  0  0  0  0  0  0
   51.0620    8.1973   12.4018 N   0  0  0  0  0  0  0  0  0  0  0  0
   52.3166    8.6142   11.7715 C   0  0  0  0  0  0  0  0  0  0  0  0
   52.3309    8.2082   10.2981 C   0  0  0  0  0  0  0  0  0  0  0  0
   53.6414    8.6378    9.6402 C   0  0  0  0  0  0  0  0  0  0  0  0
   54.7041    8.8159   10.5810 O   0  0  0  0  0  0  0  0  0  0  0  0
   54.7147    7.7970   11.5755 C   0  0  0  0  0  0  0  0  0  0  0  0
   53.4955    7.9271   12.4831 C   0  0  0  0  0  0  0  0  0  0  0  0
   48.8838    7.4809   14.1267 C   0  0  0  0  0  0  0  0  0  0  0  0
   47.9196    6.5335   13.8967 N   0  0  0  0  0  0  0  0  0  0  0  0
   49.7906    7.4530   14.9485 O   0  0  0  0  0  0  0  0  0  0  0  0
   47.6835    5.3819   14.6103 C   0  0  0  0  0  0  0  0  0  0  0  0
   46.8972    4.4722   14.0193 N   0  0  0  0  0  0  0  0  0  0  0  0
   46.8485    3.4639   14.8983 N   0  0  0  0  0  0  0  0  0  0  0  0
   47.5206    3.6979   16.0649 C   0  0  0  0  0  0  0  0  0  0  0  0
   48.0846    4.9622   15.9156 C   0  0  0  0  0  0  0  0  0  0  0  0
   48.8136    5.4851   17.0054 C   0  0  0  0  0  0  0  0  0  0  0  0
   48.9849    4.7243   18.1795 C   0  0  0  0  0  0  0  0  0  0  0  0
   48.4083    3.4529   18.2690 C   0  0  0  0  0  0  0  0  0  0  0  0
   47.6637    2.9151   17.2140 C   0  0  0  0  0  0  0  0  0  0  0  0
   49.7671    5.2942   19.3404 C   0  0  0  0  0  0  0  0  0  0  0  0
   48.9029    5.9785   20.3727 C   0  0  0  0  0  0  0  0  0  0  0  0
   48.4706    5.2907   21.5168 C   0  0  0  0  0  0  0  0  0  0  0  0
   47.6722    5.9357   22.4588 C   0  0  0  0  0  0  0  0  0  0  0  0
   47.2838    7.2567   22.2888 C   0  0  0  0  0  0  0  0  0  0  0  0
   47.7016    7.9335   21.1519 C   0  0  0  0  0  0  0  0  0  0  0  0
   48.5001    7.3108   20.1956 C   0  0  0  0  0  0  0  0  0  0  0  0
   47.3319    9.2085   20.9729 F   0  0  0  0  0  0  0  0  0  0  0  0
   47.2746    5.2654   23.5488 F   0  0  0  0  0  0  0  0  0  0  0  0
   47.7913   15.5757   10.3222 C   0  0  0  0  0  0  0  0  0  0  0  0
   46.5487   11.0098   12.3262 H   0  0  0  0  0  0  0  0  0  0  0  0
   50.5267   10.3592   10.8502 H   0  0  0  0  0  0  0  0  0  0  0  0
   46.7792    9.0979   13.8118 H   0  0  0  0  0  0  0  0  0  0  0  0
   50.5100   12.5399   10.8141 H   0  0  0  0  0  0  0  0  0  0  0  0
   49.3404   13.4990   11.7301 H   0  0  0  0  0  0  0  0  0  0  0  0
   50.2382   14.7785    9.7978 H   0  0  0  0  0  0  0  0  0  0  0  0
   49.8369   13.4779    8.7002 H   0  0  0  0  0  0  0  0  0  0  0  0
   46.1884   13.9641    8.9845 H   0  0  0  0  0  0  0  0  0  0  0  0
   47.4226   12.9845    8.2228 H   0  0  0  0  0  0  0  0  0  0  0  0
   46.4257   11.7190   10.0211 H   0  0  0  0  0  0  0  0  0  0  0  0
   46.7237   13.0097   11.2050 H   0  0  0  0  0  0  0  0  0  0  0  0
   51.1940    7.7795   13.3315 H   0  0  0  0  0  0  0  0  0  0  0  0
   52.4557    9.6981   11.8737 H   0  0  0  0  0  0  0  0  0  0  0  0
   51.4828    8.6087    9.7330 H   0  0  0  0  0  0  0  0  0  0  0  0
   52.2353    7.1152   10.2218 H   0  0  0  0  0  0  0  0  0  0  0  0
   53.9474    7.9036    8.8825 H   0  0  0  0  0  0  0  0  0  0  0  0
   53.5070    9.5975    9.1269 H   0  0  0  0  0  0  0  0  0  0  0  0
   55.6327    7.8946   12.1633 H   0  0  0  0  0  0  0  0  0  0  0  0
   54.7432    6.8155   11.0871 H   0  0  0  0  0  0  0  0  0  0  0  0
   53.7514    8.5124   13.3735 H   0  0  0  0  0  0  0  0  0  0  0  0
   53.2262    6.9307   12.8526 H   0  0  0  0  0  0  0  0  0  0  0  0
   47.4095    6.5559   13.0237 H   0  0  0  0  0  0  0  0  0  0  0  0
   46.3245    2.6336   14.6484 H   0  0  0  0  0  0  0  0  0  0  0  0
   49.2429    6.4804   16.9466 H   0  0  0  0  0  0  0  0  0  0  0  0
   48.5317    2.8617   19.1742 H   0  0  0  0  0  0  0  0  0  0  0  0
   47.2108    1.9328   17.2966 H   0  0  0  0  0  0  0  0  0  0  0  0
   50.5233    5.9998   18.9716 H   0  0  0  0  0  0  0  0  0  0  0  0
   50.3476    4.4910   19.8136 H   0  0  0  0  0  0  0  0  0  0  0  0
   48.7506    4.2542   21.6896 H   0  0  0  0  0  0  0  0  0  0  0  0
   46.6651    7.7498   23.0284 H   0  0  0  0  0  0  0  0  0  0  0  0
   48.8043    7.8740   19.3160 H   0  0  0  0  0  0  0  0  0  0  0  0
   47.6907   15.1389   11.3209 H   0  0  0  0  0  0  0  0  0  0  0  0
   48.5253   16.3867   10.3809 H   0  0  0  0  0  0  0  0  0  0  0  0
   46.8387   16.0459   10.0552 H   0  0  0  0  0  0  0  0  0  0  0  0
  1  2  2  0
  1  6  1  0
  2  3  1  0
  3  4  2  0
  4  5  1  0
  5  6  2  0
  2  7  1  0
  7  8  1  0
 12  7  1  0
  8  9  1  0
  9 10  1  0
 10 11  1  0
 11 12  1  0
  4 13  1  0
 13 14  1  0
 14 15  1  0
 19 14  1  0
 15 16  1  0
 16 17  1  0
 17 18  1  0
 18 19  1  0
  5 20  1  0
 20 21  1  0
 20 22  2  0
 21 23  1  0
 23 24  2  0
 23 27  1  0
 24 25  1  0
 25 26  1  0
 31 26  2  0
 26 27  1  0
 27 28  2  0
 28 29  1  0
 29 30  2  0
 30 31  1  0
 29 32  1  0
 32 33  1  0
 33 34  2  0
 33 38  1  0
 34 35  1  0
 35 36  2  0
 36 37  1  0
 37 38  2  0
 37 39  1  0
 35 40  1  0
 10 41  1  0
  1 42  1  0
  3 43  1  0
  6 44  1  0
  8 45  1  0
  8 46  1  0
  9 47  1  0
  9 48  1  0
 11 49  1  0
 11 50  1  0
 12 51  1  0
 12 52  1  0
 13 53  1  0
 14 54  1  0
 15 55  1  0
 15 56  1  0
 16 57  1  0
 16 58  1  0
 18 59  1  0
 18 60  1  0
 19 61  1  0
 19 62  1  0
 21 63  1  0
 25 64  1  0
 28 65  1  0
 30 66  1  0
 31 67  1  0
 32 68  1  0
 32 69  1  0
 34 70  1  0
 36 71  1  0
 38 72  1  0
 41 73  1  0
 41 74  1  0
 41 75  1  0
M  END
> <Uni-Dock RESULT> 
ENERGY=   -5.315  LOWER_BOUND=    6.758  UPPER_BOUND=    9.879
INTER + INTRA:          -5.315
INTER:                  -5.315
INTRA:                   0.000
UNBOUND:                 0.000

$$$$

     RDKit          3D

 75 80  0  0  0  0  0  0  0  0999 V2000
   47.1799   10.2822   12.4472 C   0  0  0  0  0  0  0  0  0  0  0  0
   48.2030   10.7298   11.6032 C   0  0  0  0  0  0  0  0  0  0  0  0
   49.4353   10.0388   11.6617 C   0  0  0  0  0  0  0  0  0  0  0  0
   49.6918    8.9768   12.5485 C   0  0  0  0  0  0  0  0  0  0  0  0
   48.6170    8.5598   13.3569 C   0  0  0  0  0  0  0  0  0  0  0  0
   47.3778    9.2102   13.3187 C   0  0  0  0  0  0  0  0  0  0  0  0
   48.0428   11.7904   10.6941 N   0  0  0  0  0  0  0  0  0  0  0  0
   49.0254   12.8927   10.8562 C   0  0  0  0  0  0  0  0  0  0  0  0
   48.9415   13.8869    9.6698 C   0  0  0  0  0  0  0  0  0  0  0  0
   47.5932   14.4123    9.3645 N   0  0  0  0  0  0  0  0  0  0  0  0
   46.6609   13.2712    9.2367 C   0  0  0  0  0  0  0  0  0  0  0  0
   46.6725   12.2728   10.4188 C   0  0  0  0  0  0  0  0  0  0  0  0
   50.8912    8.2464   12.5453 N   0  0  0  0  0  0  0  0  0  0  0  0
   52.1123    8.7305   11.8975 C   0  0  0  0  0  0  0  0  0  0  0  0
   52.1409    8.3016   10.4308 C   0  0  0  0  0  0  0  0  0  0  0  0
   53.4168    8.8015    9.7548 C   0  0  0  0  0  0  0  0  0  0  0  0
   54.4733    9.0616   10.6833 O   0  0  0  0  0  0  0  0  0  0  0  0
   54.5555    8.0623   11.6941 C   0  0  0  0  0  0  0  0  0  0  0  0
   53.3374    8.1308   12.6099 C   0  0  0  0  0  0  0  0  0  0  0  0
   48.7755    7.4238   14.3003 C   0  0  0  0  0  0  0  0  0  0  0  0
   47.8711    6.4140   14.0940 N   0  0  0  0  0  0  0  0  0  0  0  0
   49.6885    7.4666   15.1146 O   0  0  0  0  0  0  0  0  0  0  0  0
   47.7133    5.2620   14.8283 C   0  0  0  0  0  0  0  0  0  0  0  0
   46.9812    4.2949   14.2589 N   0  0  0  0  0  0  0  0  0  0  0  0
   47.0027    3.3005   15.1546 N   0  0  0  0  0  0  0  0  0  0  0  0
   47.6676    3.5957   16.3114 C   0  0  0  0  0  0  0  0  0  0  0  0
   48.1498    4.8902   16.1367 C   0  0  0  0  0  0  0  0  0  0  0  0
   48.8527    5.4760   17.2115 C   0  0  0  0  0  0  0  0  0  0  0  0
   49.0803    4.7472   18.3963 C   0  0  0  0  0  0  0  0  0  0  0  0
   48.5855    3.4439   18.5114 C   0  0  0  0  0  0  0  0  0  0  0  0
   47.8683    2.8428   17.4718 C   0  0  0  0  0  0  0  0  0  0  0  0
   49.8340    5.3844   19.5411 C   0  0  0  0  0  0  0  0  0  0  0  0
   48.9363    6.0304   20.5694 C   0  0  0  0  0  0  0  0  0  0  0  0
   48.5568    5.3361   21.7283 C   0  0  0  0  0  0  0  0  0  0  0  0
   47.7266    5.9454   22.6665 C   0  0  0  0  0  0  0  0  0  0  0  0
   47.2546    7.2365   22.4784 C   0  0  0  0  0  0  0  0  0  0  0  0
   47.6204    7.9190   21.3271 C   0  0  0  0  0  0  0  0  0  0  0  0
   48.4492    7.3317   20.3742 C   0  0  0  0  0  0  0  0  0  0  0  0
   47.1699    9.1651   21.1306 F   0  0  0  0  0  0  0  0  0  0  0  0
   47.3801    5.2699   23.7706 F   0  0  0  0  0  0  0  0  0  0  0  0
   47.1474   15.3692   10.3742 C   0  0  0  0  0  0  0  0  0  0  0  0
   46.2095   10.7685   12.4629 H   0  0  0  0  0  0  0  0  0  0  0  0
   50.2094   10.3442   10.9634 H   0  0  0  0  0  0  0  0  0  0  0  0
   46.5710    8.9000   13.9773 H   0  0  0  0  0  0  0  0  0  0  0  0
   50.0552   12.5186   10.8920 H   0  0  0  0  0  0  0  0  0  0  0  0
   48.8347   13.4176   11.8024 H   0  0  0  0  0  0  0  0  0  0  0  0
   49.6356   14.7184    9.8419 H   0  0  0  0  0  0  0  0  0  0  0  0
   49.3085   13.3769    8.7690 H   0  0  0  0  0  0  0  0  0  0  0  0
   45.6389   13.6379    9.0768 H   0  0  0  0  0  0  0  0  0  0  0  0
   46.9265   12.7251    8.3205 H   0  0  0  0  0  0  0  0  0  0  0  0
   46.0248   11.4299   10.1477 H   0  0  0  0  0  0  0  0  0  0  0  0
   46.2500   12.7564   11.3078 H   0  0  0  0  0  0  0  0  0  0  0  0
   51.0562    7.8534   13.4804 H   0  0  0  0  0  0  0  0  0  0  0  0
   52.1838    9.8226   11.9809 H   0  0  0  0  0  0  0  0  0  0  0  0
   51.2651    8.6386    9.8666 H   0  0  0  0  0  0  0  0  0  0  0  0
   52.1137    7.2036   10.3731 H   0  0  0  0  0  0  0  0  0  0  0  0
   53.7626    8.0753    9.0065 H   0  0  0  0  0  0  0  0  0  0  0  0
   53.2184    9.7421    9.2271 H   0  0  0  0  0  0  0  0  0  0  0  0
   55.4699    8.2271   12.2723 H   0  0  0  0  0  0  0  0  0  0  0  0
   54.6420    7.0764   11.2215 H   0  0  0  0  0  0  0  0  0  0  0  0
   53.5628    8.7458   13.4885 H   0  0  0  0  0  0  0  0  0  0  0  0
   53.1341    7.1258   12.9979 H   0  0  0  0  0  0  0  0  0  0  0  0
   47.3539    6.3898   13.2252 H   0  0  0  0  0  0  0  0  0  0  0  0
   46.5300    2.4349   14.9227 H   0  0  0  0  0  0  0  0  0  0  0  0
   49.2182    6.4952   17.1328 H   0  0  0  0  0  0  0  0  0  0  0  0
   48.7527    2.8769   19.4250 H   0  0  0  0  0  0  0  0  0  0  0  0
   47.4787    1.8356   17.5742 H   0  0  0  0  0  0  0  0  0  0  0  0
   50.5415    6.1298   19.1543 H   0  0  0  0  0  0  0  0  0  0  0  0
   50.4673    4.6273   20.0222 H   0  0  0  0  0  0  0  0  0  0  0  0
   48.9027    4.3223   21.9154 H   0  0  0  0  0  0  0  0  0  0  0  0
   46.6117    7.7021   23.2152 H   0  0  0  0  0  0  0  0  0  0  0  0
   48.7107    7.8981   19.4830 H   0  0  0  0  0  0  0  0  0  0  0  0
   47.0821   14.9438   11.3808 H   0  0  0  0  0  0  0  0  0  0  0  0
   47.8294   16.2255   10.4134 H   0  0  0  0  0  0  0  0  0  0  0  0
   46.1652   15.7742   10.1079 H   0  0  0  0  0  0  0  0  0  0  0  0
  1  2  2  0
  1  6  1  0
  2  3  1  0
  3  4  2  0
  4  5  1  0
  5  6  2  0
  2  7  1  0
  7  8  1  0
 12  7  1  0
  8  9  1  0
  9 10  1  0
 10 11  1  0
 11 12  1  0
  4 13  1  0
 13 14  1  0
 14 15  1  0
 19 14  1  0
 15 16  1  0
 16 17  1  0
 17 18  1  0
 18 19  1  0
  5 20  1  0
 20 21  1  0
 20 22  2  0
 21 23  1  0
 23 24  2  0
 23 27  1  0
 24 25  1  0
 25 26  1  0
 31 26  2  0
 26 27  1  0
 27 28  2  0
 28 29  1  0
 29 30  2  0
 30 31  1  0
 29 32  1  0
 32 33  1  0
 33 34  2  0
 33 38  1  0
 34 35  1  0
 35 36  2  0
 36 37  1  0
 37 38  2  0
 37 39  1  0
 35 40  1  0
 10 41  1  0
  1 42  1  0
  3 43  1  0
  6 44  1  0
  8 45  1  0
  8 46  1  0
  9 47  1  0
  9 48  1  0
 11 49  1  0
 11 50  1  0
 12 51  1  0
 12 52  1  0
 13 53  1  0
 14 54  1  0
 15 55  1  0
 15 56  1  0
 16 57  1  0
 16 58  1  0
 18 59  1  0
 18 60  1  0
 19 61  1  0
 19 62  1  0
 21 63  1  0
 25 64  1  0
 28 65  1  0
 30 66  1  0
 31 67  1  0
 32 68  1  0
 32 69  1  0
 34 70  1  0
 36 71  1  0
 38 72  1  0
 41 73  1  0
 41 74  1  0
 41 75  1  0
M  END
> <Uni-Dock RESULT> 
ENERGY=   -5.213  LOWER_BOUND=    6.759  UPPER_BOUND=    9.884
INTER + INTRA:          -5.213
INTER:                  -5.213
INTRA:                   0.000
UNBOUND:                 0.000

$$$$

     RDKit          3D

 75 80  0  0  0  0  0  0  0  0999 V2000
   50.5215    6.8685   15.7317 C   0  0  0  0  0  0  0  0  0  0  0  0
   50.6312    7.2020   17.0868 C   0  0  0  0  0  0  0  0  0  0  0  0
   49.7344    8.1747   17.5858 C   0  0  0  0  0  0  0  0  0  0  0  0
   48.7907    8.8470   16.7874 C   0  0  0  0  0  0  0  0  0  0  0  0
   48.7151    8.4528   15.4377 C   0  0  0  0  0  0  0  0  0  0  0  0
   49.5769    7.4843   14.9092 C   0  0  0  0  0  0  0  0  0  0  0  0
   51.5518    6.5928   17.9577 N   0  0  0  0  0  0  0  0  0  0  0  0
   52.4574    7.5409   18.6561 C   0  0  0  0  0  0  0  0  0  0  0  0
   53.2568    6.8213   19.7724 C   0  0  0  0  0  0  0  0  0  0  0  0
   53.9776    5.5972   19.3609 N   0  0  0  0  0  0  0  0  0  0  0  0
   53.0299    4.7074   18.6554 C   0  0  0  0  0  0  0  0  0  0  0  0
   52.2397    5.3666   17.4999 C   0  0  0  0  0  0  0  0  0  0  0  0
   47.8526    9.7538   17.3065 N   0  0  0  0  0  0  0  0  0  0  0  0
   47.9898   10.3653   18.6303 C   0  0  0  0  0  0  0  0  0  0  0  0
   47.3450    9.4777   19.6944 C   0  0  0  0  0  0  0  0  0  0  0  0
   47.4828   10.1168   21.0755 C   0  0  0  0  0  0  0  0  0  0  0  0
   47.6744   11.5331   21.0168 O   0  0  0  0  0  0  0  0  0  0  0  0
   46.8437   12.1452   20.0358 C   0  0  0  0  0  0  0  0  0  0  0  0
   47.2825   11.7320   18.6344 C   0  0  0  0  0  0  0  0  0  0  0  0
   47.7269    9.0766   14.5211 C   0  0  0  0  0  0  0  0  0  0  0  0
   46.8893    8.1698   13.9242 N   0  0  0  0  0  0  0  0  0  0  0  0
   47.7179   10.2963   14.4180 O   0  0  0  0  0  0  0  0  0  0  0  0
   45.9143    8.4148   12.9858 C   0  0  0  0  0  0  0  0  0  0  0  0
   45.0299    7.4291   12.7825 N   0  0  0  0  0  0  0  0  0  0  0  0
   44.1980    7.9238   11.8580 N   0  0  0  0  0  0  0  0  0  0  0  0
   44.5333    9.1683   11.4037 C   0  0  0  0  0  0  0  0  0  0  0  0
   45.6697    9.5273   12.1237 C   0  0  0  0  0  0  0  0  0  0  0  0
   46.2670   10.7707   11.8242 C   0  0  0  0  0  0  0  0  0  0  0  0
   45.6973   11.6203   10.8545 C   0  0  0  0  0  0  0  0  0  0  0  0
   44.5457   11.2147   10.1717 C   0  0  0  0  0  0  0  0  0  0  0  0
   43.9416    9.9802   10.4319 C   0  0  0  0  0  0  0  0  0  0  0  0
   46.3454   12.9493   10.5414 C   0  0  0  0  0  0  0  0  0  0  0  0
   47.3001   12.8949    9.3726 C   0  0  0  0  0  0  0  0  0  0  0  0
   46.8760   13.2479    8.0824 C   0  0  0  0  0  0  0  0  0  0  0  0
   47.7686   13.1905    7.0143 C   0  0  0  0  0  0  0  0  0  0  0  0
   49.0820   12.7821    7.1956 C   0  0  0  0  0  0  0  0  0  0  0  0
   49.4985   12.4220    8.4692 C   0  0  0  0  0  0  0  0  0  0  0  0
   48.6254   12.4707    9.5532 C   0  0  0  0  0  0  0  0  0  0  0  0
   50.7630   12.0228    8.6589 F   0  0  0  0  0  0  0  0  0  0  0  0
   47.3480   13.5380    5.7904 F   0  0  0  0  0  0  0  0  0  0  0  0
   55.1445    5.9106   18.5399 C   0  0  0  0  0  0  0  0  0  0  0  0
   51.1810    6.1361   15.2767 H   0  0  0  0  0  0  0  0  0  0  0  0
   49.7761    8.3889   18.6500 H   0  0  0  0  0  0  0  0  0  0  0  0
   49.5307    7.2198   13.8563 H   0  0  0  0  0  0  0  0  0  0  0  0
   51.9032    8.3587   19.1314 H   0  0  0  0  0  0  0  0  0  0  0  0
   53.1470    7.9920   17.9293 H   0  0  0  0  0  0  0  0  0  0  0  0
   53.9565    7.5290   20.2331 H   0  0  0  0  0  0  0  0  0  0  0  0
   52.5549    6.5388   20.5685 H   0  0  0  0  0  0  0  0  0  0  0  0
   53.5566    3.8207   18.2801 H   0  0  0  0  0  0  0  0  0  0  0  0
   52.3101    4.3327   19.3967 H   0  0  0  0  0  0  0  0  0  0  0  0
   51.5049    4.6354   17.1408 H   0  0  0  0  0  0  0  0  0  0  0  0
   52.9248    5.5962   16.6749 H   0  0  0  0  0  0  0  0  0  0  0  0
   47.5824   10.4241   16.5758 H   0  0  0  0  0  0  0  0  0  0  0  0
   49.0478   10.5405   18.8643 H   0  0  0  0  0  0  0  0  0  0  0  0
   47.7533    8.4619   19.7128 H   0  0  0  0  0  0  0  0  0  0  0  0
   46.2768    9.3529   19.4643 H   0  0  0  0  0  0  0  0  0  0  0  0
   46.5985    9.8958   21.6888 H   0  0  0  0  0  0  0  0  0  0  0  0
   48.3524    9.6996   21.5973 H   0  0  0  0  0  0  0  0  0  0  0  0
   46.9166   13.2314   20.1473 H   0  0  0  0  0  0  0  0  0  0  0  0
   45.7992   11.8678   20.2226 H   0  0  0  0  0  0  0  0  0  0  0  0
   47.9697   12.4790   18.2210 H   0  0  0  0  0  0  0  0  0  0  0  0
   46.4060   11.7414   17.9760 H   0  0  0  0  0  0  0  0  0  0  0  0
   46.8324    7.2333   14.3019 H   0  0  0  0  0  0  0  0  0  0  0  0
   43.4137    7.3542   11.5634 H   0  0  0  0  0  0  0  0  0  0  0  0
   47.1734   11.0776   12.3368 H   0  0  0  0  0  0  0  0  0  0  0  0
   44.1031   11.8629    9.4180 H   0  0  0  0  0  0  0  0  0  0  0  0
   43.0551    9.6692    9.8896 H   0  0  0  0  0  0  0  0  0  0  0  0
   46.8740   13.3257   11.4273 H   0  0  0  0  0  0  0  0  0  0  0  0
   45.5634   13.6960   10.3495 H   0  0  0  0  0  0  0  0  0  0  0  0
   45.8553   13.5727    7.8949 H   0  0  0  0  0  0  0  0  0  0  0  0
   49.7687   12.7434    6.3590 H   0  0  0  0  0  0  0  0  0  0  0  0
   48.9887   12.1771   10.5357 H   0  0  0  0  0  0  0  0  0  0  0  0
   54.8978    6.4385   17.6132 H   0  0  0  0  0  0  0  0  0  0  0  0
   55.8503    6.5302   19.1036 H   0  0  0  0  0  0  0  0  0  0  0  0
   55.6844    4.9937   18.2798 H   0  0  0  0  0  0  0  0  0  0  0  0
  1  2  2  0
  1  6  1  0
  2  3  1  0
  3  4  2  0
  4  5  1  0
  5  6  2  0
  2  7  1  0
  7  8  1  0
 12  7  1  0
  8  9  1  0
  9 10  1  0
 10 11  1  0
 11 12  1  0
  4 13  1  0
 13 14  1  0
 14 15  1  0
 19 14  1  0
 15 16  1  0
 16 17  1  0
 17 18  1  0
 18 19  1  0
  5 20  1  0
 20 21  1  0
 20 22  2  0
 21 23  1  0
 23 24  2  0
 23 27  1  0
 24 25  1  0
 25 26  1  0
 31 26  2  0
 26 27  1  0
 27 28  2  0
 28 29  1  0
 29 30  2  0
 30 31  1  0
 29 32  1  0
 32 33  1  0
 33 34  2  0
 33 38  1  0
 34 35  1  0
 35 36  2  0
 36 37  1  0
 37 38  2  0
 37 39  1  0
 35 40  1  0
 10 41  1  0
  1 42  1  0
  3 43  1  0
  6 44  1  0
  8 45  1  0
  8 46  1  0
  9 47  1  0
  9 48  1  0
 11 49  1  0
 11 50  1  0
 12 51  1  0
 12 52  1  0
 13 53  1  0
 14 54  1  0
 15 55  1  0
 15 56  1  0
 16 57  1  0
 16 58  1  0
 18 59  1  0
 18 60  1  0
 19 61  1  0
 19 62  1  0
 21 63  1  0
 25 64  1  0
 28 65  1  0
 30 66  1  0
 31 67  1  0
 32 68  1  0
 32 69  1  0
 34 70  1  0
 36 71  1  0
 38 72  1  0
 41 73  1  0
 41 74  1  0
 41 75  1  0
M  END
> <Uni-Dock RESULT> 
ENERGY=   -4.977  LOWER_BOUND=    6.061  UPPER_BOUND=   10.648
INTER + INTRA:          -4.977
INTER:                  -4.977
INTRA:                   0.000
UNBOUND:                 0.000

$$$$

     RDKit          3D

 75 80  0  0  0  0  0  0  0  0999 V2000
   51.9402    7.2938   15.8008 C   0  0  0  0  0  0  0  0  0  0  0  0
   52.0303    7.5107   17.1808 C   0  0  0  0  0  0  0  0  0  0  0  0
   50.8563    7.9356   17.8445 C   0  0  0  0  0  0  0  0  0  0  0  0
   49.6399    8.1953   17.1865 C   0  0  0  0  0  0  0  0  0  0  0  0
   49.6071    7.9388   15.8024 C   0  0  0  0  0  0  0  0  0  0  0  0
   50.7450    7.5050   15.1117 C   0  0  0  0  0  0  0  0  0  0  0  0
   53.2060    7.2903   17.9198 N   0  0  0  0  0  0  0  0  0  0  0  0
   53.6778    8.4693   18.6905 C   0  0  0  0  0  0  0  0  0  0  0  0
   54.8173    8.0734   19.6641 C   0  0  0  0  0  0  0  0  0  0  0  0
   55.9511    7.3383   19.0631 N   0  0  0  0  0  0  0  0  0  0  0  0
   55.4157    6.1934   18.2949 C   0  0  0  0  0  0  0  0  0  0  0  0
   54.3066    6.5431   17.2741 C   0  0  0  0  0  0  0  0  0  0  0  0
   48.4593    8.5413   17.8636 N   0  0  0  0  0  0  0  0  0  0  0  0
   48.4508    9.0214   19.2472 C   0  0  0  0  0  0  0  0  0  0  0  0
   48.3634    7.8435   20.2173 C   0  0  0  0  0  0  0  0  0  0  0  0
   48.3492    8.3430   21.6613 C   0  0  0  0  0  0  0  0  0  0  0  0
   47.9028    9.6970   21.7774 O   0  0  0  0  0  0  0  0  0  0  0  0
   46.7953    9.9703   20.9254 C   0  0  0  0  0  0  0  0  0  0  0  0
   47.2266    9.9286   19.4627 C   0  0  0  0  0  0  0  0  0  0  0  0
   48.3599    8.1468   15.0233 C   0  0  0  0  0  0  0  0  0  0  0  0
   47.9414    7.0250   14.3550 N   0  0  0  0  0  0  0  0  0  0  0  0
   47.8142    9.2411   15.0797 O   0  0  0  0  0  0  0  0  0  0  0  0
   46.8675    6.9030   13.5047 C   0  0  0  0  0  0  0  0  0  0  0  0
   46.4807    5.6526   13.2183 N   0  0  0  0  0  0  0  0  0  0  0  0
   45.4285    5.8151   12.4071 N   0  0  0  0  0  0  0  0  0  0  0  0
   45.1455    7.1168   12.1022 C   0  0  0  0  0  0  0  0  0  0  0  0
   46.0809    7.8699   12.8069 C   0  0  0  0  0  0  0  0  0  0  0  0
   46.0486    9.2715   12.6426 C   0  0  0  0  0  0  0  0  0  0  0  0
   45.0735    9.8707   11.8198 C   0  0  0  0  0  0  0  0  0  0  0  0
   44.1483    9.0659   11.1468 C   0  0  0  0  0  0  0  0  0  0  0  0
   44.1667    7.6730   11.2737 C   0  0  0  0  0  0  0  0  0  0  0  0
   45.0484   11.3725   11.6507 C   0  0  0  0  0  0  0  0  0  0  0  0
   45.8102   11.8564   10.4399 C   0  0  0  0  0  0  0  0  0  0  0  0
   45.1481   12.1072    9.2284 C   0  0  0  0  0  0  0  0  0  0  0  0
   45.8655   12.5515    8.1200 C   0  0  0  0  0  0  0  0  0  0  0  0
   47.2373   12.7491    8.1831 C   0  0  0  0  0  0  0  0  0  0  0  0
   47.8940   12.4902    9.3776 C   0  0  0  0  0  0  0  0  0  0  0  0
   47.1992   12.0452   10.4997 C   0  0  0  0  0  0  0  0  0  0  0  0
   49.2188   12.6736    9.4525 F   0  0  0  0  0  0  0  0  0  0  0  0
   45.2155   12.7926    6.9732 F   0  0  0  0  0  0  0  0  0  0  0  0
   56.7789    8.2108   18.2341 C   0  0  0  0  0  0  0  0  0  0  0  0
   52.8021    6.9746   15.2233 H   0  0  0  0  0  0  0  0  0  0  0  0
   50.9079    8.0438   18.9241 H   0  0  0  0  0  0  0  0  0  0  0  0
   50.7123    7.3489   14.0369 H   0  0  0  0  0  0  0  0  0  0  0  0
   52.8754    8.9093   19.2941 H   0  0  0  0  0  0  0  0  0  0  0  0
   54.0279    9.2453   17.9958 H   0  0  0  0  0  0  0  0  0  0  0  0
   55.1846    8.9698   20.1783 H   0  0  0  0  0  0  0  0  0  0  0  0
   54.3903    7.4359   20.4500 H   0  0  0  0  0  0  0  0  0  0  0  0
   56.2333    5.6702   17.7827 H   0  0  0  0  0  0  0  0  0  0  0  0
   55.0070    5.4709   19.0153 H   0  0  0  0  0  0  0  0  0  0  0  0
   53.9282    5.6007   16.8592 H   0  0  0  0  0  0  0  0  0  0  0  0
   54.7386    7.1288   16.4537 H   0  0  0  0  0  0  0  0  0  0  0  0
   47.8541    9.0899   17.2399 H   0  0  0  0  0  0  0  0  0  0  0  0
   49.3466    9.6221   19.4505 H   0  0  0  0  0  0  0  0  0  0  0  0
   49.1703    7.1154   20.0840 H   0  0  0  0  0  0  0  0  0  0  0  0
   47.4370    7.2829   20.0249 H   0  0  0  0  0  0  0  0  0  0  0  0
   47.7139    7.6974   22.2828 H   0  0  0  0  0  0  0  0  0  0  0  0
   49.3612    8.3046   22.0819 H   0  0  0  0  0  0  0  0  0  0  0  0
   46.4023   10.9612   21.1731 H   0  0  0  0  0  0  0  0  0  0  0  0
   45.9979    9.2442   21.1251 H   0  0  0  0  0  0  0  0  0  0  0  0
   47.4780   10.9377   19.1169 H   0  0  0  0  0  0  0  0  0  0  0  0
   46.3709    9.6131   18.8543 H   0  0  0  0  0  0  0  0  0  0  0  0
   48.3331    6.1282   14.6105 H   0  0  0  0  0  0  0  0  0  0  0  0
   44.9424    4.9889   12.0794 H   0  0  0  0  0  0  0  0  0  0  0  0
   46.7797    9.8963   13.1462 H   0  0  0  0  0  0  0  0  0  0  0  0
   43.3958    9.5208   10.5058 H   0  0  0  0  0  0  0  0  0  0  0  0
   43.4523    7.0560   10.7391 H   0  0  0  0  0  0  0  0  0  0  0  0
   45.4483   11.8571   12.5513 H   0  0  0  0  0  0  0  0  0  0  0  0
   44.0056   11.7121   11.5953 H   0  0  0  0  0  0  0  0  0  0  0  0
   44.0741   11.9647    9.1342 H   0  0  0  0  0  0  0  0  0  0  0  0
   47.7854   13.0972    7.3162 H   0  0  0  0  0  0  0  0  0  0  0  0
   47.7504   11.8500   11.4171 H   0  0  0  0  0  0  0  0  0  0  0  0
   56.2367    8.6614   17.3967 H   0  0  0  0  0  0  0  0  0  0  0  0
   57.2002    9.0214   18.8386 H   0  0  0  0  0  0  0  0  0  0  0  0
   57.6331    7.6556   17.8315 H   0  0  0  0  0  0  0  0  0  0  0  0
  1  2  2  0
  1  6  1  0
  2  3  1  0
  3  4  2  0
  4  5  1  0
  5  6  2  0
  2  7  1  0
  7  8  1  0
 12  7  1  0
  8  9  1  0
  9 10  1  0
 10 11  1  0
 11 12  1  0
  4 13  1  0
 13 14  1  0
 14 15  1  0
 19 14  1  0
 15 16  1  0
 16 17  1  0
 17 18  1  0
 18 19  1  0
  5 20  1  0
 20 21  1  0
 20 22  2  0
 21 23  1  0
 23 24  2  0
 23 27  1  0
 24 25  1  0
 25 26  1  0
 31 26  2  0
 26 27  1  0
 27 28  2  0
 28 29  1  0
 29 30  2  0
 30 31  1  0
 29 32  1  0
 32 33  1  0
 33 34  2  0
 33 38  1  0
 34 35  1  0
 35 36  2  0
 36 37  1  0
 37 38  2  0
 37 39  1  0
 35 40  1  0
 10 41  1  0
  1 42  1  0
  3 43  1  0
  6 44  1  0
  8 45  1  0
  8 46  1  0
  9 47  1  0
  9 48  1  0
 11 49  1  0
 11 50  1  0
 12 51  1  0
 12 52  1  0
 13 53  1  0
 14 54  1  0
 15 55  1  0
 15 56  1  0
 16 57  1  0
 16 58  1  0
 18 59  1  0
 18 60  1  0
 19 61  1  0
 19 62  1  0
 21 63  1  0
 25 64  1  0
 28 65  1  0
 30 66  1  0
 31 67  1  0
 32 68  1  0
 32 69  1  0
 34 70  1  0
 36 71  1  0
 38 72  1  0
 41 73  1  0
 41 74  1  0
 41 75  1  0
M  END
> <Uni-Dock RESULT> 
ENERGY=   -4.848  LOWER_BOUND=    6.554  UPPER_BOUND=   10.705
INTER + INTRA:          -4.848
INTER:                  -4.848
INTRA:                   0.000
UNBOUND:                 0.000

$$$$

     RDKit          3D

 75 80  0  0  0  0  0  0  0  0999 V2000
   41.1577   12.4248   11.4753 C   0  0  0  0  0  0  0  0  0  0  0  0
   41.2134   13.1911   10.3052 C   0  0  0  0  0  0  0  0  0  0  0  0
   42.1624   12.8090    9.3291 C   0  0  0  0  0  0  0  0  0  0  0  0
   43.0703   11.7473    9.4985 C   0  0  0  0  0  0  0  0  0  0  0  0
   42.9506   11.0022   10.6873 C   0  0  0  0  0  0  0  0  0  0  0  0
   42.0151   11.3412   11.6720 C   0  0  0  0  0  0  0  0  0  0  0  0
   40.3558   14.2767   10.0541 N   0  0  0  0  0  0  0  0  0  0  0  0
   41.0526   15.5556    9.7610 C   0  0  0  0  0  0  0  0  0  0  0  0
   40.0532   16.6254    9.2515 C   0  0  0  0  0  0  0  0  0  0  0  0
   38.8608   16.8472   10.0977 N   0  0  0  0  0  0  0  0  0  0  0  0
   38.2268   15.5391   10.3702 C   0  0  0  0  0  0  0  0  0  0  0  0
   39.1736   14.4485   10.9255 C   0  0  0  0  0  0  0  0  0  0  0  0
   43.9555   11.3261    8.4931 N   0  0  0  0  0  0  0  0  0  0  0  0
   44.2856   12.1532    7.3303 C   0  0  0  0  0  0  0  0  0  0  0  0
   43.2847   11.9064    6.2020 C   0  0  0  0  0  0  0  0  0  0  0  0
   43.6308   12.7647    4.9861 C   0  0  0  0  0  0  0  0  0  0  0  0
   45.0040   13.1640    4.9596 O   0  0  0  0  0  0  0  0  0  0  0  0
   45.8760   12.1081    5.3490 C   0  0  0  0  0  0  0  0  0  0  0  0
   45.6934   11.7859    6.8289 C   0  0  0  0  0  0  0  0  0  0  0  0
   43.8383    9.8396   10.9445 C   0  0  0  0  0  0  0  0  0  0  0  0
   43.1554    8.6734   11.1764 N   0  0  0  0  0  0  0  0  0  0  0  0
   45.0493   10.0078   10.8850 O   0  0  0  0  0  0  0  0  0  0  0  0
   43.6763    7.4435   11.5040 C   0  0  0  0  0  0  0  0  0  0  0  0
   42.8463    6.3991   11.3796 N   0  0  0  0  0  0  0  0  0  0  0  0
   43.5931    5.3461   11.7332 N   0  0  0  0  0  0  0  0  0  0  0  0
   44.8588    5.6617   12.1403 C   0  0  0  0  0  0  0  0  0  0  0  0
   44.9521    7.0446   12.0078 C   0  0  0  0  0  0  0  0  0  0  0  0
   46.1597    7.6588   12.4041 C   0  0  0  0  0  0  0  0  0  0  0  0
   47.2337    6.8794   12.8792 C   0  0  0  0  0  0  0  0  0  0  0  0
   47.0895    5.4915   12.9775 C   0  0  0  0  0  0  0  0  0  0  0  0
   45.8988    4.8553   12.6112 C   0  0  0  0  0  0  0  0  0  0  0  0
   48.5221    7.5475   13.3012 C   0  0  0  0  0  0  0  0  0  0  0  0
   48.5908    7.8464   14.7799 C   0  0  0  0  0  0  0  0  0  0  0  0
   49.2258    6.9595   15.6627 C   0  0  0  0  0  0  0  0  0  0  0  0
   49.2791    7.2488   17.0243 C   0  0  0  0  0  0  0  0  0  0  0  0
   48.7073    8.4042   17.5371 C   0  0  0  0  0  0  0  0  0  0  0  0
   48.0693    9.2757   16.6661 C   0  0  0  0  0  0  0  0  0  0  0  0
   48.0025    9.0089   15.3007 C   0  0  0  0  0  0  0  0  0  0  0  0
   47.5100   10.3937   17.1474 F   0  0  0  0  0  0  0  0  0  0  0  0
   49.8958    6.3939   17.8515 F   0  0  0  0  0  0  0  0  0  0  0  0
   39.1998   17.5551   11.3297 C   0  0  0  0  0  0  0  0  0  0  0  0
   40.4599   12.6631   12.2720 H   0  0  0  0  0  0  0  0  0  0  0  0
   42.1643   13.3633    8.3949 H   0  0  0  0  0  0  0  0  0  0  0  0
   41.9624   10.7789   12.6004 H   0  0  0  0  0  0  0  0  0  0  0  0
   41.8186   15.4340    8.9863 H   0  0  0  0  0  0  0  0  0  0  0  0
   41.5584   15.9137   10.6682 H   0  0  0  0  0  0  0  0  0  0  0  0
   40.5823   17.5735    9.0968 H   0  0  0  0  0  0  0  0  0  0  0  0
   39.6999   16.3184    8.2578 H   0  0  0  0  0  0  0  0  0  0  0  0
   37.3772   15.6690   11.0528 H   0  0  0  0  0  0  0  0  0  0  0  0
   37.7958   15.1749    9.4269 H   0  0  0  0  0  0  0  0  0  0  0  0
   38.6060   13.5112   10.9777 H   0  0  0  0  0  0  0  0  0  0  0  0
   39.4826   14.7182   11.9426 H   0  0  0  0  0  0  0  0  0  0  0  0
   44.7774   10.8834    8.9228 H   0  0  0  0  0  0  0  0  0  0  0  0
   44.3003   13.2153    7.6066 H   0  0  0  0  0  0  0  0  0  0  0  0
   42.2466   12.0863    6.5004 H   0  0  0  0  0  0  0  0  0  0  0  0
   43.3195   10.8462    5.9114 H   0  0  0  0  0  0  0  0  0  0  0  0
   43.3917   12.2273    4.0584 H   0  0  0  0  0  0  0  0  0  0  0  0
   43.0324   13.6836    4.9926 H   0  0  0  0  0  0  0  0  0  0  0  0
   46.9073   12.4201    5.1569 H   0  0  0  0  0  0  0  0  0  0  0  0
   45.6800   11.2284    4.7240 H   0  0  0  0  0  0  0  0  0  0  0  0
   46.4287   12.3369    7.4262 H   0  0  0  0  0  0  0  0  0  0  0  0
   45.9205   10.7251    6.9869 H   0  0  0  0  0  0  0  0  0  0  0  0
   42.1755    8.6228   10.9314 H   0  0  0  0  0  0  0  0  0  0  0  0
   43.1760    4.4239   11.6864 H   0  0  0  0  0  0  0  0  0  0  0  0
   46.2658    8.7378   12.3498 H   0  0  0  0  0  0  0  0  0  0  0  0
   47.9124    4.8836   13.3482 H   0  0  0  0  0  0  0  0  0  0  0  0
   45.7922    3.7795   12.7013 H   0  0  0  0  0  0  0  0  0  0  0  0
   48.6649    8.4768   12.7339 H   0  0  0  0  0  0  0  0  0  0  0  0
   49.3699    6.9137   13.0092 H   0  0  0  0  0  0  0  0  0  0  0  0
   49.6864    6.0421   15.3039 H   0  0  0  0  0  0  0  0  0  0  0  0
   48.7565    8.6211   18.5971 H   0  0  0  0  0  0  0  0  0  0  0  0
   47.4905    9.7151   14.6507 H   0  0  0  0  0  0  0  0  0  0  0  0
   39.9176   17.0188   11.9586 H   0  0  0  0  0  0  0  0  0  0  0  0
   39.6226   18.5389   11.0986 H   0  0  0  0  0  0  0  0  0  0  0  0
   38.2975   17.7430   11.9217 H   0  0  0  0  0  0  0  0  0  0  0  0
  1  2  2  0
  1  6  1  0
  2  3  1  0
  3  4  2  0
  4  5  1  0
  5  6  2  0
  2  7  1  0
  7  8  1  0
 12  7  1  0
  8  9  1  0
  9 10  1  0
 10 11  1  0
 11 12  1  0
  4 13  1  0
 13 14  1  0
 14 15  1  0
 19 14  1  0
 15 16  1  0
 16 17  1  0
 17 18  1  0
 18 19  1  0
  5 20  1  0
 20 21  1  0
 20 22  2  0
 21 23  1  0
 23 24  2  0
 23 27  1  0
 24 25  1  0
 25 26  1  0
 31 26  2  0
 26 27  1  0
 27 28  2  0
 28 29  1  0
 29 30  2  0
 30 31  1  0
 29 32  1  0
 32 33  1  0
 33 34  2  0
 33 38  1  0
 34 35  1  0
 35 36  2  0
 36 37  1  0
 37 38  2  0
 37 39  1  0
 35 40  1  0
 10 41  1  0
  1 42  1  0
  3 43  1  0
  6 44  1  0
  8 45  1  0
  8 46  1  0
  9 47  1  0
  9 48  1  0
 11 49  1  0
 11 50  1  0
 12 51  1  0
 12 52  1  0
 13 53  1  0
 14 54  1  0
 15 55  1  0
 15 56  1  0
 16 57  1  0
 16 58  1  0
 18 59  1  0
 18 60  1  0
 19 61  1  0
 19 62  1  0
 21 63  1  0
 25 64  1  0
 28 65  1  0
 30 66  1  0
 31 67  1  0
 32 68  1  0
 32 69  1  0
 34 70  1  0
 36 71  1  0
 38 72  1  0
 41 73  1  0
 41 74  1  0
 41 75  1  0
M  END
> <Uni-Dock RESULT> 
ENERGY=   -4.822  LOWER_BOUND=    4.323  UPPER_BOUND=    6.665
INTER + INTRA:          -4.822
INTER:                  -4.822
INTRA:                   0.000
UNBOUND:                 0.000

$$$$

     RDKit          3D

 75 80  0  0  0  0  0  0  0  0999 V2000
   48.9207   14.0822   12.3564 C   0  0  0  0  0  0  0  0  0  0  0  0
   47.9517   14.7814   11.6271 C   0  0  0  0  0  0  0  0  0  0  0  0
   46.8759   15.3401   12.3550 C   0  0  0  0  0  0  0  0  0  0  0  0
   46.7104   15.1843   13.7437 C   0  0  0  0  0  0  0  0  0  0  0  0
   47.7285   14.4887   14.4235 C   0  0  0  0  0  0  0  0  0  0  0  0
   48.8161   13.9319   13.7400 C   0  0  0  0  0  0  0  0  0  0  0  0
   48.0268   14.9769   10.2368 N   0  0  0  0  0  0  0  0  0  0  0  0
   46.8406   14.4951    9.4833 C   0  0  0  0  0  0  0  0  0  0  0  0
   46.8905   14.9726    8.0094 C   0  0  0  0  0  0  0  0  0  0  0  0
   48.1431   14.6795    7.2799 N   0  0  0  0  0  0  0  0  0  0  0  0
   49.2832   15.1627    8.0889 C   0  0  0  0  0  0  0  0  0  0  0  0
   49.3051   14.6756    9.5574 C   0  0  0  0  0  0  0  0  0  0  0  0
   45.6822   15.8076   14.4691 N   0  0  0  0  0  0  0  0  0  0  0  0
   44.4879   16.3657   13.8311 C   0  0  0  0  0  0  0  0  0  0  0  0
   44.7348   17.8169   13.4199 C   0  0  0  0  0  0  0  0  0  0  0  0
   43.4878   18.4024   12.7587 C   0  0  0  0  0  0  0  0  0  0  0  0
   42.2881   17.7167   13.1280 O   0  0  0  0  0  0  0  0  0  0  0  0
   42.2640   17.3886   14.5133 C   0  0  0  0  0  0  0  0  0  0  0  0
   43.3154   16.3287   14.8271 C   0  0  0  0  0  0  0  0  0  0  0  0
   47.6649   14.3020   15.8955 C   0  0  0  0  0  0  0  0  0  0  0  0
   48.7634   14.7908   16.5548 N   0  0  0  0  0  0  0  0  0  0  0  0
   46.6611   13.7908   16.3744 O   0  0  0  0  0  0  0  0  0  0  0  0
   49.0383   14.7206   17.9004 C   0  0  0  0  0  0  0  0  0  0  0  0
   50.0088   15.5289   18.3474 N   0  0  0  0  0  0  0  0  0  0  0  0
   50.0581   15.2820   19.6620 N   0  0  0  0  0  0  0  0  0  0  0  0
   49.2026   14.3045   20.0862 C   0  0  0  0  0  0  0  0  0  0  0  0
   48.5113   13.9026   18.9463 C   0  0  0  0  0  0  0  0  0  0  0  0
   47.5745   12.8559   19.0855 C   0  0  0  0  0  0  0  0  0  0  0  0
   47.3347   12.2768   20.3480 C   0  0  0  0  0  0  0  0  0  0  0  0
   48.0478   12.7304   21.4627 C   0  0  0  0  0  0  0  0  0  0  0  0
   48.9967   13.7523   21.3537 C   0  0  0  0  0  0  0  0  0  0  0  0
   46.3297   11.1563   20.4854 C   0  0  0  0  0  0  0  0  0  0  0  0
   46.9451    9.7798   20.4012 C   0  0  0  0  0  0  0  0  0  0  0  0
   47.2929    9.0767   21.5647 C   0  0  0  0  0  0  0  0  0  0  0  0
   47.8615    7.8084   21.4700 C   0  0  0  0  0  0  0  0  0  0  0  0
   48.1010    7.2178   20.2377 C   0  0  0  0  0  0  0  0  0  0  0  0
   47.7678    7.9175   19.0869 C   0  0  0  0  0  0  0  0  0  0  0  0
   47.1984    9.1867   19.1551 C   0  0  0  0  0  0  0  0  0  0  0  0
   47.9960    7.3610   17.8900 F   0  0  0  0  0  0  0  0  0  0  0  0
   48.1808    7.1488   22.5918 F   0  0  0  0  0  0  0  0  0  0  0  0
   48.2624   13.2580    6.9654 C   0  0  0  0  0  0  0  0  0  0  0  0
   49.7706   13.6196   11.8646 H   0  0  0  0  0  0  0  0  0  0  0  0
   46.1571   15.9358   11.7997 H   0  0  0  0  0  0  0  0  0  0  0  0
   49.5729   13.3650   14.2754 H   0  0  0  0  0  0  0  0  0  0  0  0
   45.9046   14.8707    9.9132 H   0  0  0  0  0  0  0  0  0  0  0  0
   46.8018   13.3978    9.5232 H   0  0  0  0  0  0  0  0  0  0  0  0
   46.0349   14.5574    7.4631 H   0  0  0  0  0  0  0  0  0  0  0  0
   46.7488   16.0616    7.9972 H   0  0  0  0  0  0  0  0  0  0  0  0
   50.2292   14.8964    7.6003 H   0  0  0  0  0  0  0  0  0  0  0  0
   49.2491   16.2613    8.0896 H   0  0  0  0  0  0  0  0  0  0  0  0
   50.1306   15.1894   10.0653 H   0  0  0  0  0  0  0  0  0  0  0  0
   49.5072   13.5980    9.5805 H   0  0  0  0  0  0  0  0  0  0  0  0
   45.4726   15.2558   15.3105 H   0  0  0  0  0  0  0  0  0  0  0  0
   44.2005   15.7623   12.9604 H   0  0  0  0  0  0  0  0  0  0  0  0
   45.5976   17.9355   12.7563 H   0  0  0  0  0  0  0  0  0  0  0  0
   44.9768   18.4111   14.3133 H   0  0  0  0  0  0  0  0  0  0  0  0
   43.3877   19.4677   13.0076 H   0  0  0  0  0  0  0  0  0  0  0  0
   43.5724   18.3304   11.6677 H   0  0  0  0  0  0  0  0  0  0  0  0
   41.2668   17.0144   14.7646 H   0  0  0  0  0  0  0  0  0  0  0  0
   42.4290   18.2984   15.1031 H   0  0  0  0  0  0  0  0  0  0  0  0
   42.8637   15.3308   14.7937 H   0  0  0  0  0  0  0  0  0  0  0  0
   43.6523   16.4653   15.8614 H   0  0  0  0  0  0  0  0  0  0  0  0
   49.3858   15.4221   16.0679 H   0  0  0  0  0  0  0  0  0  0  0  0
   50.7125   15.8114   20.2260 H   0  0  0  0  0  0  0  0  0  0  0  0
   47.0363   12.4872   18.2178 H   0  0  0  0  0  0  0  0  0  0  0  0
   47.8720   12.2846   22.4396 H   0  0  0  0  0  0  0  0  0  0  0  0
   49.5530   14.0899   22.2216 H   0  0  0  0  0  0  0  0  0  0  0  0
   45.5512   11.2558   19.7175 H   0  0  0  0  0  0  0  0  0  0  0  0
   45.7934   11.2672   21.4372 H   0  0  0  0  0  0  0  0  0  0  0  0
   47.1237    9.5022   22.5510 H   0  0  0  0  0  0  0  0  0  0  0  0
   48.5412    6.2302   20.1750 H   0  0  0  0  0  0  0  0  0  0  0  0
   46.9542    9.7048   18.2302 H   0  0  0  0  0  0  0  0  0  0  0  0
   48.2737   12.6140    7.8506 H   0  0  0  0  0  0  0  0  0  0  0  0
   47.4314   12.9392    6.3268 H   0  0  0  0  0  0  0  0  0  0  0  0
   49.1765   13.0701    6.3920 H   0  0  0  0  0  0  0  0  0  0  0  0
  1  2  2  0
  1  6  1  0
  2  3  1  0
  3  4  2  0
  4  5  1  0
  5  6  2  0
  2  7  1  0
  7  8  1  0
 12  7  1  0
  8  9  1  0
  9 10  1  0
 10 11  1  0
 11 12  1  0
  4 13  1  0
 13 14  1  0
 14 15  1  0
 19 14  1  0
 15 16  1  0
 16 17  1  0
 17 18  1  0
 18 19  1  0
  5 20  1  0
 20 21  1  0
 20 22  2  0
 21 23  1  0
 23 24  2  0
 23 27  1  0
 24 25  1  0
 25 26  1  0
 31 26  2  0
 26 27  1  0
 27 28  2  0
 28 29  1  0
 29 30  2  0
 30 31  1  0
 29 32  1  0
 32 33  1  0
 33 34  2  0
 33 38  1  0
 34 35  1  0
 35 36  2  0
 36 37  1  0
 37 38  2  0
 37 39  1  0
 35 40  1  0
 10 41  1  0
  1 42  1  0
  3 43  1  0
  6 44  1  0
  8 45  1  0
  8 46  1  0
  9 47  1  0
  9 48  1  0
 11 49  1  0
 11 50  1  0
 12 51  1  0
 12 52  1  0
 13 53  1  0
 14 54  1  0
 15 55  1  0
 15 56  1  0
 16 57  1  0
 16 58  1  0
 18 59  1  0
 18 60  1  0
 19 61  1  0
 19 62  1  0
 21 63  1  0
 25 64  1  0
 28 65  1  0
 30 66  1  0
 31 67  1  0
 32 68  1  0
 32 69  1  0
 34 70  1  0
 36 71  1  0
 38 72  1  0
 41 73  1  0
 41 74  1  0
 41 75  1  0
M  END
> <Uni-Dock RESULT> 
ENERGY=   -4.747  LOWER_BOUND=    7.734  UPPER_BOUND=    9.752
INTER + INTRA:          -4.747
INTER:                  -4.747
INTRA:                   0.000
UNBOUND:                 0.000

$$$$

     RDKit          3D

 75 80  0  0  0  0  0  0  0  0999 V2000
   46.9107   13.0438   11.5742 C   0  0  0  0  0  0  0  0  0  0  0  0
   45.8769   13.7766   10.9796 C   0  0  0  0  0  0  0  0  0  0  0  0
   45.2505   14.7666   11.7714 C   0  0  0  0  0  0  0  0  0  0  0  0
   45.5768   15.0084   13.1187 C   0  0  0  0  0  0  0  0  0  0  0  0
   46.6383   14.2533   13.6532 C   0  0  0  0  0  0  0  0  0  0  0  0
   47.2919   13.2730   12.8972 C   0  0  0  0  0  0  0  0  0  0  0  0
   45.4739   13.5958    9.6447 N   0  0  0  0  0  0  0  0  0  0  0  0
   44.0318   13.2822    9.4751 C   0  0  0  0  0  0  0  0  0  0  0  0
   43.6233   13.3500    7.9813 C   0  0  0  0  0  0  0  0  0  0  0  0
   44.4562   12.5592    7.0496 N   0  0  0  0  0  0  0  0  0  0  0  0
   45.8764   12.9002    7.2824 C   0  0  0  0  0  0  0  0  0  0  0  0
   46.3471   12.8027    8.7532 C   0  0  0  0  0  0  0  0  0  0  0  0
   45.0041   16.0449   13.8733 N   0  0  0  0  0  0  0  0  0  0  0  0
   43.7729   16.7299   13.4730 C   0  0  0  0  0  0  0  0  0  0  0  0
   44.0962   17.9127   12.5606 C   0  0  0  0  0  0  0  0  0  0  0  0
   42.8131   18.6316   12.1462 C   0  0  0  0  0  0  0  0  0  0  0  0
   41.7317   18.4084   13.0555 O   0  0  0  0  0  0  0  0  0  0  0  0
   42.1570   18.4508   14.4136 C   0  0  0  0  0  0  0  0  0  0  0  0
   43.0543   17.2576   14.7273 C   0  0  0  0  0  0  0  0  0  0  0  0
   47.0830   14.4594   15.0552 C   0  0  0  0  0  0  0  0  0  0  0  0
   48.4117   14.7801   15.1639 N   0  0  0  0  0  0  0  0  0  0  0  0
   46.2505   14.3727   15.9484 O   0  0  0  0  0  0  0  0  0  0  0  0
   49.1403   14.9719   16.3143 C   0  0  0  0  0  0  0  0  0  0  0  0
   50.3290   15.5722   16.1668 N   0  0  0  0  0  0  0  0  0  0  0  0
   50.8097   15.6530   17.4134 N   0  0  0  0  0  0  0  0  0  0  0  0
   50.0140   15.0787   18.3645 C   0  0  0  0  0  0  0  0  0  0  0  0
   48.8985   14.6106   17.6751 C   0  0  0  0  0  0  0  0  0  0  0  0
   47.9132   13.9237   18.4166 C   0  0  0  0  0  0  0  0  0  0  0  0
   48.0537   13.7605   19.8095 C   0  0  0  0  0  0  0  0  0  0  0  0
   49.1888   14.2646   20.4531 C   0  0  0  0  0  0  0  0  0  0  0  0
   50.1920   14.9326   19.7432 C   0  0  0  0  0  0  0  0  0  0  0  0
   46.9927   13.0229   20.5936 C   0  0  0  0  0  0  0  0  0  0  0  0
   47.2922   11.5547   20.7813 C   0  0  0  0  0  0  0  0  0  0  0  0
   47.9140   11.0929   21.9514 C   0  0  0  0  0  0  0  0  0  0  0  0
   48.1852    9.7355   22.1086 C   0  0  0  0  0  0  0  0  0  0  0  0
   47.8568    8.8175   21.1215 C   0  0  0  0  0  0  0  0  0  0  0  0
   47.2523    9.2752   19.9596 C   0  0  0  0  0  0  0  0  0  0  0  0
   46.9710   10.6273   19.7786 C   0  0  0  0  0  0  0  0  0  0  0  0
   46.9323    8.4008   18.9967 F   0  0  0  0  0  0  0  0  0  0  0  0
   48.7732    9.3116   23.2355 F   0  0  0  0  0  0  0  0  0  0  0  0
   44.2099   11.1264    7.1920 C   0  0  0  0  0  0  0  0  0  0  0  0
   47.4323   12.2624   11.0304 H   0  0  0  0  0  0  0  0  0  0  0  0
   44.4914   15.3785   11.2924 H   0  0  0  0  0  0  0  0  0  0  0  0
   48.0835   12.6727   13.3376 H   0  0  0  0  0  0  0  0  0  0  0  0
   43.3942   13.9905   10.0169 H   0  0  0  0  0  0  0  0  0  0  0  0
   43.8245   12.2811    9.8777 H   0  0  0  0  0  0  0  0  0  0  0  0
   42.5706   13.0602    7.8782 H   0  0  0  0  0  0  0  0  0  0  0  0
   43.6739   14.3990    7.6596 H   0  0  0  0  0  0  0  0  0  0  0  0
   46.5205   12.2765    6.6494 H   0  0  0  0  0  0  0  0  0  0  0  0
   46.0320   13.9322    6.9374 H   0  0  0  0  0  0  0  0  0  0  0  0
   47.3751   13.1830    8.7986 H   0  0  0  0  0  0  0  0  0  0  0  0
   46.3577   11.7507    9.0629 H   0  0  0  0  0  0  0  0  0  0  0  0
   45.0240   15.7953   14.8701 H   0  0  0  0  0  0  0  0  0  0  0  0
   43.0910   16.0315   12.9712 H   0  0  0  0  0  0  0  0  0  0  0  0
   44.6657   17.6264   11.6702 H   0  0  0  0  0  0  0  0  0  0  0  0
   44.7432   18.6204   13.0992 H   0  0  0  0  0  0  0  0  0  0  0  0
   42.9926   19.7115   12.0546 H   0  0  0  0  0  0  0  0  0  0  0  0
   42.4821   18.2729   11.1642 H   0  0  0  0  0  0  0  0  0  0  0  0
   41.2712   18.4338   15.0559 H   0  0  0  0  0  0  0  0  0  0  0  0
   42.6768   19.3983   14.6001 H   0  0  0  0  0  0  0  0  0  0  0  0
   42.4589   16.4425   15.1542 H   0  0  0  0  0  0  0  0  0  0  0  0
   43.7618   17.5485   15.5126 H   0  0  0  0  0  0  0  0  0  0  0  0
   48.9123   15.0795   14.3376 H   0  0  0  0  0  0  0  0  0  0  0  0
   51.7038   16.1078   17.5549 H   0  0  0  0  0  0  0  0  0  0  0  0
   47.0424   13.5121   17.9157 H   0  0  0  0  0  0  0  0  0  0  0  0
   49.3069   14.1378   21.5274 H   0  0  0  0  0  0  0  0  0  0  0  0
   51.0742   15.3104   20.2489 H   0  0  0  0  0  0  0  0  0  0  0  0
   46.0174   13.1366   20.1019 H   0  0  0  0  0  0  0  0  0  0  0  0
   46.8658   13.5055   21.5718 H   0  0  0  0  0  0  0  0  0  0  0  0
   48.1894   11.7777   22.7500 H   0  0  0  0  0  0  0  0  0  0  0  0
   48.0696    7.7639   21.2546 H   0  0  0  0  0  0  0  0  0  0  0  0
   46.4993   10.9475   18.8521 H   0  0  0  0  0  0  0  0  0  0  0  0
   44.4324   10.7419    8.1925 H   0  0  0  0  0  0  0  0  0  0  0  0
   43.1626   10.8968    6.9675 H   0  0  0  0  0  0  0  0  0  0  0  0
   44.8072   10.5633    6.4668 H   0  0  0  0  0  0  0  0  0  0  0  0
  1  2  2  0
  1  6  1  0
  2  3  1  0
  3  4  2  0
  4  5  1  0
  5  6  2  0
  2  7  1  0
  7  8  1  0
 12  7  1  0
  8  9  1  0
  9 10  1  0
 10 11  1  0
 11 12  1  0
  4 13  1  0
 13 14  1  0
 14 15  1  0
 19 14  1  0
 15 16  1  0
 16 17  1  0
 17 18  1  0
 18 19  1  0
  5 20  1  0
 20 21  1  0
 20 22  2  0
 21 23  1  0
 23 24  2  0
 23 27  1  0
 24 25  1  0
 25 26  1  0
 31 26  2  0
 26 27  1  0
 27 28  2  0
 28 29  1  0
 29 30  2  0
 30 31  1  0
 29 32  1  0
 32 33  1  0
 33 34  2  0
 33 38  1  0
 34 35  1  0
 35 36  2  0
 36 37  1  0
 37 38  2  0
 37 39  1  0
 35 40  1  0
 10 41  1  0
  1 42  1  0
  3 43  1  0
  6 44  1  0
  8 45  1  0
  8 46  1  0
  9 47  1  0
  9 48  1  0
 11 49  1  0
 11 50  1  0
 12 51  1  0
 12 52  1  0
 13 53  1  0
 14 54  1  0
 15 55  1  0
 15 56  1  0
 16 57  1  0
 16 58  1  0
 18 59  1  0
 18 60  1  0
 19 61  1  0
 19 62  1  0
 21 63  1  0
 25 64  1  0
 28 65  1  0
 30 66  1  0
 31 67  1  0
 32 68  1  0
 32 69  1  0
 34 70  1  0
 36 71  1  0
 38 72  1  0
 41 73  1  0
 41 74  1  0
 41 75  1  0
M  END
> <Uni-Dock RESULT> 
ENERGY=   -4.737  LOWER_BOUND=    7.672  UPPER_BOUND=   10.093
INTER + INTRA:          -4.737
INTER:                  -4.737
INTRA:                   0.000
UNBOUND:                 0.000

$$$$
