
     RDKit          3D

102105  0  0  0  0  0  0  0  0999 V2000
   49.4206   10.7833   19.9034 N   0  0  0  0  0  0  0  0  0  0  0  0
   47.8280   13.2797   20.9541 S   0  0  0  0  0  0  0  0  0  0  0  0
   48.9815   11.7166   18.9259 C   0  0  0  0  0  0  0  0  0  0  0  0
   49.5172   11.0582   21.2933 C   0  0  0  0  0  0  0  0  0  0  0  0
   48.2633   12.8771   19.2727 C   0  0  0  0  0  0  0  0  0  0  0  0
   48.8447   12.1483   21.8820 C   0  0  0  0  0  0  0  0  0  0  0  0
   49.3053    9.3459   19.5339 C   0  0  0  0  0  0  0  0  0  0  0  0
   47.8888    8.7231   19.6266 C   0  0  1  0  0  0  0  0  0  0  0  0
   47.9646    7.3359   20.3138 C   0  0  0  0  0  0  0  0  0  0  0  0
   48.8553    6.3722   19.6404 N   0  0  0  0  0  0  0  0  0  0  0  0
   50.3158   10.2605   22.1443 C   0  0  0  0  0  0  0  0  0  0  0  0
   49.2902   11.5403   17.5641 C   0  0  0  0  0  0  0  0  0  0  0  0
   48.9191   12.3676   23.2689 C   0  0  0  0  0  0  0  0  0  0  0  0
   47.8068   13.7619   18.2840 C   0  0  0  0  0  0  0  0  0  0  0  0
   46.8104    9.5456   20.3434 C   0  0  0  0  0  0  0  0  0  0  0  0
   48.2386    5.8371   18.4203 C   0  0  0  0  0  0  0  0  0  0  0  0
   49.1820    5.2709   20.5465 C   0  0  0  0  0  0  0  0  0  0  0  0
   48.8422   12.4259   16.5808 C   0  0  0  0  0  0  0  0  0  0  0  0
   50.3993   10.4969   23.5199 C   0  0  0  0  0  0  0  0  0  0  0  0
   49.6808   11.5348   24.0896 C   0  0  0  0  0  0  0  0  0  0  0  0
   48.0781   13.5212   16.9394 C   0  0  0  0  0  0  0  0  0  0  0  0
   47.9315    8.5118   19.5671 N   0  0  0  0  0  0  0  0  0  0  0  0
   51.0163    8.0027   19.4891 S   0  0  0  0  0  0  0  0  0  0  0  0
   48.4714    7.7640   20.6456 C   0  0  0  0  0  0  0  0  0  0  0  0
   48.5558    8.6249   18.2943 C   0  0  0  0  0  0  0  0  0  0  0  0
   49.8435    7.4439   20.7093 C   0  0  0  0  0  0  0  0  0  0  0  0
   49.9288    8.3775   18.1179 C   0  0  0  0  0  0  0  0  0  0  0  0
   46.9432    9.5650   19.9061 C   0  0  0  0  0  0  0  0  0  0  0  0
   47.5680   10.9817   19.9635 C   0  0  2  0  0  0  0  0  0  0  0  0
   48.4373   11.1704   21.2249 C   0  0  0  0  0  0  0  0  0  0  0  0
   49.0761   12.4995   21.2662 N   0  0  0  0  0  0  0  0  0  0  0  0
   47.8060    8.9404   17.1418 C   0  0  0  0  0  0  0  0  0  0  0  0
   47.6358    7.2532   21.6598 C   0  0  0  0  0  0  0  0  0  0  0  0
   50.5218    8.4855   16.8464 C   0  0  0  0  0  0  0  0  0  0  0  0
   50.3497    6.7012   21.7874 C   0  0  0  0  0  0  0  0  0  0  0  0
   46.4380   12.0212   19.9230 C   0  0  0  0  0  0  0  0  0  0  0  0
   50.3040   12.5140   20.4674 C   0  0  0  0  0  0  0  0  0  0  0  0
   49.3805   12.8888   22.6468 C   0  0  0  0  0  0  0  0  0  0  0  0
   48.1429    6.5009   22.7207 C   0  0  0  0  0  0  0  0  0  0  0  0
   48.3985    9.0395   15.8784 C   0  0  0  0  0  0  0  0  0  0  0  0
   49.7604    8.8180   15.7331 C   0  0  0  0  0  0  0  0  0  0  0  0
   49.5035    6.2311   22.7905 C   0  0  0  0  0  0  0  0  0  0  0  0
   50.2498   12.0666   20.3679 O   0  0  0  0  0  0  0  0  0  0  0  0
   48.9235   11.4215   22.0546 O   0  0  0  0  0  0  0  0  0  0  0  0
   48.3076    7.2015   20.5567 O   0  0  0  0  0  0  0  0  0  0  0  0
   47.0449    7.6131   18.7629 O   0  0  0  0  0  0  0  0  0  0  0  0
   49.9756    9.9314   18.9104 O   0  0  0  0  0  0  0  0  0  0  0  0
   47.2121   10.3475   19.0652 O   0  0  0  0  0  0  0  0  0  0  0  0
   49.4412   11.1664   20.9784 C   0  0  0  0  0  0  0  0  0  0  0  0
   49.3337    9.8680   20.1901 C   0  0  1  0  0  0  0  0  0  0  0  0
   47.8526    9.5137   20.0493 C   0  0  2  0  0  0  0  0  0  0  0  0
   47.7078    8.0432   19.6971 C   0  0  0  0  0  0  0  0  0  0  0  0
   50.0124    8.7499   20.1153 H   0  0  0  0  0  0  0  0  0  0  0  0
   49.6591    9.1656   18.5154 H   0  0  0  0  0  0  0  0  0  0  0  0
   47.5196    8.5814   18.6054 H   0  0  0  0  0  0  0  0  0  0  0  0
   48.3337    7.5102   21.3332 H   0  0  0  0  0  0  0  0  0  0  0  0
   46.9603    6.9054   20.4171 H   0  0  0  0  0  0  0  0  0  0  0  0
   50.9233    9.4531   21.7494 H   0  0  0  0  0  0  0  0  0  0  0  0
   49.9225   10.7236   17.2380 H   0  0  0  0  0  0  0  0  0  0  0  0
   48.3876   13.1933   23.7274 H   0  0  0  0  0  0  0  0  0  0  0  0
   47.2263   14.6361   18.5559 H   0  0  0  0  0  0  0  0  0  0  0  0
   45.8532    9.0092   20.3338 H   0  0  0  0  0  0  0  0  0  0  0  0
   47.0661    9.7241   21.3918 H   0  0  0  0  0  0  0  0  0  0  0  0
   46.6271   10.5046   19.8511 H   0  0  0  0  0  0  0  0  0  0  0  0
   48.0493    6.6320   17.6883 H   0  0  0  0  0  0  0  0  0  0  0  0
   48.9049    5.1180   17.9317 H   0  0  0  0  0  0  0  0  0  0  0  0
   47.2969    5.3260   18.6401 H   0  0  0  0  0  0  0  0  0  0  0  0
   49.8440    4.5456   20.0583 H   0  0  0  0  0  0  0  0  0  0  0  0
   49.7281    5.6521   21.4235 H   0  0  0  0  0  0  0  0  0  0  0  0
   48.2882    4.7446   20.9023 H   0  0  0  0  0  0  0  0  0  0  0  0
   49.1048   12.2476   15.5411 H   0  0  0  0  0  0  0  0  0  0  0  0
   51.0143    9.8517   24.1477 H   0  0  0  0  0  0  0  0  0  0  0  0
   49.7328   11.7183   25.1596 H   0  0  0  0  0  0  0  0  0  0  0  0
   47.7145   14.2092   16.1878 H   0  0  0  0  0  0  0  0  0  0  0  0
   46.1136    9.5396   19.1891 H   0  0  0  0  0  0  0  0  0  0  0  0
   46.4455    9.3872   20.8644 H   0  0  0  0  0  0  0  0  0  0  0  0
   48.1882   11.1436   19.0760 H   0  0  0  0  0  0  0  0  0  0  0  0
   49.1967   10.3858   21.3108 H   0  0  0  0  0  0  0  0  0  0  0  0
   47.7780   11.0585   22.0939 H   0  0  0  0  0  0  0  0  0  0  0  0
   46.7271    9.0767   17.1979 H   0  0  0  0  0  0  0  0  0  0  0  0
   46.5605    7.4048   21.6077 H   0  0  0  0  0  0  0  0  0  0  0  0
   51.5842    8.3006   16.7253 H   0  0  0  0  0  0  0  0  0  0  0  0
   51.4154    6.4818   21.8533 H   0  0  0  0  0  0  0  0  0  0  0  0
   46.8387   13.0397   19.8425 H   0  0  0  0  0  0  0  0  0  0  0  0
   45.7692   11.8646   19.0661 H   0  0  0  0  0  0  0  0  0  0  0  0
   45.8394   11.9811   20.8386 H   0  0  0  0  0  0  0  0  0  0  0  0
   51.0770   11.8628   20.9048 H   0  0  0  0  0  0  0  0  0  0  0  0
   50.1349   12.1822   19.4369 H   0  0  0  0  0  0  0  0  0  0  0  0
   50.7093   13.5349   20.4040 H   0  0  0  0  0  0  0  0  0  0  0  0
   50.0289   12.1678   23.1603 H   0  0  0  0  0  0  0  0  0  0  0  0
   49.8576   13.8758   22.6708 H   0  0  0  0  0  0  0  0  0  0  0  0
   48.4542   12.9844   23.2153 H   0  0  0  0  0  0  0  0  0  0  0  0
   47.4734    6.1160   23.4872 H   0  0  0  0  0  0  0  0  0  0  0  0
   47.7885    9.2698   15.0080 H   0  0  0  0  0  0  0  0  0  0  0  0
   50.2185    8.8867   14.7482 H   0  0  0  0  0  0  0  0  0  0  0  0
   49.9009    5.6495   23.6181 H   0  0  0  0  0  0  0  0  0  0  0  0
   50.1838   12.8580   20.9490 H   0  0  0  0  0  0  0  0  0  0  0  0
   48.1029    6.3119   20.2038 H   0  0  0  0  0  0  0  0  0  0  0  0
   50.4375   10.7955   18.8979 H   0  0  0  0  0  0  0  0  0  0  0  0
   46.6750    9.7519   18.5088 H   0  0  0  0  0  0  0  0  0  0  0  0
   49.8882    9.1243   20.7728 H   0  0  0  0  0  0  0  0  0  0  0  0
   47.3063    9.6707   20.9882 H   0  0  0  0  0  0  0  0  0  0  0  0
 10  9  1  0
 11  4  2  0
 12  3  2  0
 13  6  2  0
 14  5  2  0
 15  8  1  0
 16 10  1  0
 17 10  1  0
 18 12  1  0
 19 11  1  0
 20 19  2  0
 21 18  2  0
  5  2  1  0
 13 20  1  0
 14 21  1  0
  2  6  1  0
  3  1  1  0
  4  1  1  0
  5  3  1  0
  6  4  1  0
  7  1  1  0
  8  7  1  0
  9  8  1  0
 31 30  1  0
 32 25  2  0
 33 24  2  0
 34 27  2  0
 35 26  2  0
 36 29  1  0
 37 31  1  0
 38 31  1  0
 39 33  1  0
 40 32  1  0
 41 40  2  0
 42 39  2  0
 26 23  1  0
 34 41  1  0
 35 42  1  0
 23 27  1  0
 24 22  1  0
 25 22  1  0
 26 24  1  0
 27 25  1  0
 28 22  1  0
 29 28  1  0
 30 29  1  0
 49 44  2  0
 50 47  1  0
 51 48  1  0
 49 43  1  0
 51 52  1  0
 50 51  1  0
 52 45  1  0
 49 50  1  0
 52 46  2  0
  7 53  1  0
  7 54  1  0
  8 55  1  6
  9 56  1  0
  9 57  1  0
 11 58  1  0
 12 59  1  0
 13 60  1  0
 14 61  1  0
 15 62  1  0
 15 63  1  0
 15 64  1  0
 16 65  1  0
 16 66  1  0
 16 67  1  0
 17 68  1  0
 17 69  1  0
 17 70  1  0
 18 71  1  0
 19 72  1  0
 20 73  1  0
 21 74  1  0
 28 75  1  0
 28 76  1  0
 29 77  1  1
 30 78  1  0
 30 79  1  0
 32 80  1  0
 33 81  1  0
 34 82  1  0
 35 83  1  0
 36 84  1  0
 36 85  1  0
 36 86  1  0
 37 87  1  0
 37 88  1  0
 37 89  1  0
 38 90  1  0
 38 91  1  0
 38 92  1  0
 39 93  1  0
 40 94  1  0
 41 95  1  0
 42 96  1  0
 43 97  1  0
 45 98  1  0
 47 99  1  0
 48100  1  0
 50101  1  1
 51102  1  1
M  END
> <Uni-Dock RESULT> 
ENERGY=   -5.217  LOWER_BOUND=    0.000  UPPER_BOUND=    0.000
INTER + INTRA:          -5.217
INTER:                  -5.217
INTRA:                   0.000
UNBOUND:                 0.000

$$$$

     RDKit          3D

102105  0  0  0  0  0  0  0  0999 V2000
   49.4205   10.7833   19.9035 N   0  0  0  0  0  0  0  0  0  0  0  0
   47.8280   13.2796   20.9544 S   0  0  0  0  0  0  0  0  0  0  0  0
   48.9814   11.7166   18.9261 C   0  0  0  0  0  0  0  0  0  0  0  0
   49.5172   11.0581   21.2935 C   0  0  0  0  0  0  0  0  0  0  0  0
   48.2632   12.8771   19.2730 C   0  0  0  0  0  0  0  0  0  0  0  0
   48.8447   12.1482   21.8822 C   0  0  0  0  0  0  0  0  0  0  0  0
   49.3053    9.3459   19.5340 C   0  0  0  0  0  0  0  0  0  0  0  0
   47.8888    8.7230   19.6268 C   0  0  1  0  0  0  0  0  0  0  0  0
   47.9646    7.3358   20.3138 C   0  0  0  0  0  0  0  0  0  0  0  0
   48.8554    6.3721   19.6404 N   0  0  0  0  0  0  0  0  0  0  0  0
   50.3159   10.2605   22.1444 C   0  0  0  0  0  0  0  0  0  0  0  0
   49.2901   11.5404   17.5643 C   0  0  0  0  0  0  0  0  0  0  0  0
   48.9192   12.3674   23.2691 C   0  0  0  0  0  0  0  0  0  0  0  0
   47.8066   13.7619   18.2843 C   0  0  0  0  0  0  0  0  0  0  0  0
   46.8104    9.5455   20.3436 C   0  0  0  0  0  0  0  0  0  0  0  0
   48.2386    5.8371   18.4203 C   0  0  0  0  0  0  0  0  0  0  0  0
   49.1822    5.2709   20.5464 C   0  0  0  0  0  0  0  0  0  0  0  0
   48.8419   12.4260   16.5811 C   0  0  0  0  0  0  0  0  0  0  0  0
   50.3994   10.4967   23.5200 C   0  0  0  0  0  0  0  0  0  0  0  0
   49.6809   11.5346   24.0897 C   0  0  0  0  0  0  0  0  0  0  0  0
   48.0779   13.5213   16.9397 C   0  0  0  0  0  0  0  0  0  0  0  0
   47.9316    8.5117   19.5672 N   0  0  0  0  0  0  0  0  0  0  0  0
   51.0163    8.0028   19.4891 S   0  0  0  0  0  0  0  0  0  0  0  0
   48.4715    7.7639   20.6457 C   0  0  0  0  0  0  0  0  0  0  0  0
   48.5558    8.6249   18.2944 C   0  0  0  0  0  0  0  0  0  0  0  0
   49.8436    7.4439   20.7093 C   0  0  0  0  0  0  0  0  0  0  0  0
   49.9288    8.3776   18.1179 C   0  0  0  0  0  0  0  0  0  0  0  0
   46.9432    9.5649   19.9063 C   0  0  0  0  0  0  0  0  0  0  0  0
   47.5680   10.9816   19.9637 C   0  0  2  0  0  0  0  0  0  0  0  0
   48.4373   11.1703   21.2251 C   0  0  0  0  0  0  0  0  0  0  0  0
   49.0760   12.4994   21.2664 N   0  0  0  0  0  0  0  0  0  0  0  0
   47.8059    8.9404   17.1419 C   0  0  0  0  0  0  0  0  0  0  0  0
   47.6359    7.2531   21.6599 C   0  0  0  0  0  0  0  0  0  0  0  0
   50.5217    8.4856   16.8464 C   0  0  0  0  0  0  0  0  0  0  0  0
   50.3499    6.7012   21.7873 C   0  0  0  0  0  0  0  0  0  0  0  0
   46.4380   12.0211   19.9233 C   0  0  0  0  0  0  0  0  0  0  0  0
   50.3040   12.5140   20.4676 C   0  0  0  0  0  0  0  0  0  0  0  0
   49.3805   12.8886   22.6470 C   0  0  0  0  0  0  0  0  0  0  0  0
   48.1431    6.5007   22.7207 C   0  0  0  0  0  0  0  0  0  0  0  0
   48.3983    9.0396   15.8785 C   0  0  0  0  0  0  0  0  0  0  0  0
   49.7603    8.8181   15.7332 C   0  0  0  0  0  0  0  0  0  0  0  0
   49.5038    6.2310   22.7905 C   0  0  0  0  0  0  0  0  0  0  0  0
   50.2497   12.0666   20.3681 O   0  0  0  0  0  0  0  0  0  0  0  0
   48.9236   11.4214   22.0547 O   0  0  0  0  0  0  0  0  0  0  0  0
   48.3077    7.2015   20.5567 O   0  0  0  0  0  0  0  0  0  0  0  0
   47.0449    7.6130   18.7630 O   0  0  0  0  0  0  0  0  0  0  0  0
   49.9755    9.9315   18.9105 O   0  0  0  0  0  0  0  0  0  0  0  0
   47.2121   10.3475   19.0654 O   0  0  0  0  0  0  0  0  0  0  0  0
   49.4412   11.1664   20.9785 C   0  0  0  0  0  0  0  0  0  0  0  0
   49.3337    9.8680   20.1902 C   0  0  1  0  0  0  0  0  0  0  0  0
   47.8526    9.5137   20.0495 C   0  0  2  0  0  0  0  0  0  0  0  0
   47.7078    8.0431   19.6973 C   0  0  0  0  0  0  0  0  0  0  0  0
   50.0125    8.7499   20.1154 H   0  0  0  0  0  0  0  0  0  0  0  0
   49.6591    9.1656   18.5155 H   0  0  0  0  0  0  0  0  0  0  0  0
   47.5196    8.5813   18.6055 H   0  0  0  0  0  0  0  0  0  0  0  0
   48.3339    7.5101   21.3332 H   0  0  0  0  0  0  0  0  0  0  0  0
   46.9604    6.9053   20.4172 H   0  0  0  0  0  0  0  0  0  0  0  0
   50.9233    9.4531   21.7495 H   0  0  0  0  0  0  0  0  0  0  0  0
   49.9223   10.7237   17.2381 H   0  0  0  0  0  0  0  0  0  0  0  0
   48.3877   13.1931   23.7276 H   0  0  0  0  0  0  0  0  0  0  0  0
   47.2261   14.6360   18.5563 H   0  0  0  0  0  0  0  0  0  0  0  0
   45.8532    9.0090   20.3340 H   0  0  0  0  0  0  0  0  0  0  0  0
   47.0662    9.7239   21.3920 H   0  0  0  0  0  0  0  0  0  0  0  0
   46.6271   10.5045   19.8513 H   0  0  0  0  0  0  0  0  0  0  0  0
   48.0493    6.6320   17.6884 H   0  0  0  0  0  0  0  0  0  0  0  0
   48.9050    5.1180   17.9316 H   0  0  0  0  0  0  0  0  0  0  0  0
   47.2970    5.3260   18.6401 H   0  0  0  0  0  0  0  0  0  0  0  0
   49.8442    4.5456   20.0582 H   0  0  0  0  0  0  0  0  0  0  0  0
   49.7283    5.6520   21.4234 H   0  0  0  0  0  0  0  0  0  0  0  0
   48.2884    4.7445   20.9023 H   0  0  0  0  0  0  0  0  0  0  0  0
   49.1045   12.2478   15.5413 H   0  0  0  0  0  0  0  0  0  0  0  0
   51.0145    9.8516   24.1477 H   0  0  0  0  0  0  0  0  0  0  0  0
   49.7329   11.7181   25.1598 H   0  0  0  0  0  0  0  0  0  0  0  0
   47.7142   14.2093   16.1881 H   0  0  0  0  0  0  0  0  0  0  0  0
   46.1136    9.5395   19.1894 H   0  0  0  0  0  0  0  0  0  0  0  0
   46.4455    9.3870   20.8646 H   0  0  0  0  0  0  0  0  0  0  0  0
   48.1881   11.1436   19.0762 H   0  0  0  0  0  0  0  0  0  0  0  0
   49.1967   10.3857   21.3110 H   0  0  0  0  0  0  0  0  0  0  0  0
   47.7780   11.0584   22.0941 H   0  0  0  0  0  0  0  0  0  0  0  0
   46.7270    9.0767   17.1980 H   0  0  0  0  0  0  0  0  0  0  0  0
   46.5607    7.4047   21.6079 H   0  0  0  0  0  0  0  0  0  0  0  0
   51.5841    8.3008   16.7253 H   0  0  0  0  0  0  0  0  0  0  0  0
   51.4156    6.4818   21.8532 H   0  0  0  0  0  0  0  0  0  0  0  0
   46.8386   13.0396   19.8428 H   0  0  0  0  0  0  0  0  0  0  0  0
   45.7691   11.8645   19.0664 H   0  0  0  0  0  0  0  0  0  0  0  0
   45.8394   11.9810   20.8390 H   0  0  0  0  0  0  0  0  0  0  0  0
   51.0770   11.8628   20.9049 H   0  0  0  0  0  0  0  0  0  0  0  0
   50.1348   12.1822   19.4371 H   0  0  0  0  0  0  0  0  0  0  0  0
   50.7092   13.5349   20.4042 H   0  0  0  0  0  0  0  0  0  0  0  0
   50.0289   12.1677   23.1604 H   0  0  0  0  0  0  0  0  0  0  0  0
   49.8576   13.8757   22.6710 H   0  0  0  0  0  0  0  0  0  0  0  0
   48.4542   12.9842   23.2155 H   0  0  0  0  0  0  0  0  0  0  0  0
   47.4736    6.1158   23.4873 H   0  0  0  0  0  0  0  0  0  0  0  0
   47.7883    9.2699   15.0082 H   0  0  0  0  0  0  0  0  0  0  0  0
   50.2183    8.8869   14.7482 H   0  0  0  0  0  0  0  0  0  0  0  0
   49.9012    5.6493   23.6181 H   0  0  0  0  0  0  0  0  0  0  0  0
   50.1837   12.8579   20.9492 H   0  0  0  0  0  0  0  0  0  0  0  0
   48.1030    6.3118   20.2038 H   0  0  0  0  0  0  0  0  0  0  0  0
   50.4375   10.7955   18.8980 H   0  0  0  0  0  0  0  0  0  0  0  0
   46.6749    9.7518   18.5090 H   0  0  0  0  0  0  0  0  0  0  0  0
   49.8883    9.1243   20.7728 H   0  0  0  0  0  0  0  0  0  0  0  0
   47.3064    9.6706   20.9884 H   0  0  0  0  0  0  0  0  0  0  0  0
 10  9  1  0
 11  4  2  0
 12  3  2  0
 13  6  2  0
 14  5  2  0
 15  8  1  0
 16 10  1  0
 17 10  1  0
 18 12  1  0
 19 11  1  0
 20 19  2  0
 21 18  2  0
  5  2  1  0
 13 20  1  0
 14 21  1  0
  2  6  1  0
  3  1  1  0
  4  1  1  0
  5  3  1  0
  6  4  1  0
  7  1  1  0
  8  7  1  0
  9  8  1  0
 31 30  1  0
 32 25  2  0
 33 24  2  0
 34 27  2  0
 35 26  2  0
 36 29  1  0
 37 31  1  0
 38 31  1  0
 39 33  1  0
 40 32  1  0
 41 40  2  0
 42 39  2  0
 26 23  1  0
 34 41  1  0
 35 42  1  0
 23 27  1  0
 24 22  1  0
 25 22  1  0
 26 24  1  0
 27 25  1  0
 28 22  1  0
 29 28  1  0
 30 29  1  0
 49 44  2  0
 50 47  1  0
 51 48  1  0
 49 43  1  0
 51 52  1  0
 50 51  1  0
 52 45  1  0
 49 50  1  0
 52 46  2  0
  7 53  1  0
  7 54  1  0
  8 55  1  6
  9 56  1  0
  9 57  1  0
 11 58  1  0
 12 59  1  0
 13 60  1  0
 14 61  1  0
 15 62  1  0
 15 63  1  0
 15 64  1  0
 16 65  1  0
 16 66  1  0
 16 67  1  0
 17 68  1  0
 17 69  1  0
 17 70  1  0
 18 71  1  0
 19 72  1  0
 20 73  1  0
 21 74  1  0
 28 75  1  0
 28 76  1  0
 29 77  1  1
 30 78  1  0
 30 79  1  0
 32 80  1  0
 33 81  1  0
 34 82  1  0
 35 83  1  0
 36 84  1  0
 36 85  1  0
 36 86  1  0
 37 87  1  0
 37 88  1  0
 37 89  1  0
 38 90  1  0
 38 91  1  0
 38 92  1  0
 39 93  1  0
 40 94  1  0
 41 95  1  0
 42 96  1  0
 43 97  1  0
 45 98  1  0
 47 99  1  0
 48100  1  0
 50101  1  1
 51102  1  1
M  END
> <Uni-Dock RESULT> 
ENERGY=   -5.216  LOWER_BOUND=    0.000  UPPER_BOUND=    0.000
INTER + INTRA:          -5.216
INTER:                  -5.216
INTRA:                   0.000
UNBOUND:                 0.000

$$$$

     RDKit          3D

102105  0  0  0  0  0  0  0  0999 V2000
   49.4157    9.4615   13.7994 N   0  0  0  0  0  0  0  0  0  0  0  0
   47.5148    6.9662   13.9798 S   0  0  0  0  0  0  0  0  0  0  0  0
   48.1239    9.6016   13.2242 C   0  0  0  0  0  0  0  0  0  0  0  0
   49.7756    8.4564   14.7360 C   0  0  0  0  0  0  0  0  0  0  0  0
   47.1805    8.5564   13.2461 C   0  0  0  0  0  0  0  0  0  0  0  0
   49.0031    7.2893   14.9044 C   0  0  0  0  0  0  0  0  0  0  0  0
   50.5408   10.0694   13.0374 C   0  0  0  0  0  0  0  0  0  0  0  0
   51.0431    9.2774   11.8031 C   0  0  1  0  0  0  0  0  0  0  0  0
   52.5926    9.2430   11.7913 C   0  0  0  0  0  0  0  0  0  0  0  0
   53.2298   10.5732   11.7837 N   0  0  0  0  0  0  0  0  0  0  0  0
   50.9155    8.5968   15.5599 C   0  0  0  0  0  0  0  0  0  0  0  0
   47.7156   10.8177   12.6453 C   0  0  0  0  0  0  0  0  0  0  0  0
   49.4102    6.2883   15.8042 C   0  0  0  0  0  0  0  0  0  0  0  0
   45.9264    8.7075   12.6355 C   0  0  0  0  0  0  0  0  0  0  0  0
   50.5387    7.8373   11.6454 C   0  0  0  0  0  0  0  0  0  0  0  0
   53.1414   11.2003   10.4592 C   0  0  0  0  0  0  0  0  0  0  0  0
   54.6340   10.4607   12.1786 C   0  0  0  0  0  0  0  0  0  0  0  0
   46.4635   10.9702   12.0444 C   0  0  0  0  0  0  0  0  0  0  0  0
   51.3030    7.6047   16.4659 C   0  0  0  0  0  0  0  0  0  0  0  0
   50.5661    6.4369   16.5717 C   0  0  0  0  0  0  0  0  0  0  0  0
   45.5807    9.9063   12.0166 C   0  0  0  0  0  0  0  0  0  0  0  0
   51.2104    9.4088   11.7339 N   0  0  0  0  0  0  0  0  0  0  0  0
   51.8473   11.5898   13.8829 S   0  0  0  0  0  0  0  0  0  0  0  0
   52.3859    9.2073   12.5028 C   0  0  0  0  0  0  0  0  0  0  0  0
   50.6020   10.6794   11.5400 C   0  0  0  0  0  0  0  0  0  0  0  0
   52.7959   10.1349   13.4829 C   0  0  0  0  0  0  0  0  0  0  0  0
   50.8430   11.7570   12.4109 C   0  0  0  0  0  0  0  0  0  0  0  0
   50.3415    8.2273   11.5100 C   0  0  0  0  0  0  0  0  0  0  0  0
   49.1355    8.1735   12.4812 C   0  0  2  0  0  0  0  0  0  0  0  0
   49.5706    7.7801   13.9089 C   0  0  0  0  0  0  0  0  0  0  0  0
   48.4373    7.7722   14.8533 N   0  0  0  0  0  0  0  0  0  0  0  0
   49.7687   10.9250   10.4285 C   0  0  0  0  0  0  0  0  0  0  0  0
   53.2257    8.1008   12.2617 C   0  0  0  0  0  0  0  0  0  0  0  0
   50.2376   13.0082   12.1921 C   0  0  0  0  0  0  0  0  0  0  0  0
   53.9644    9.9107   14.2276 C   0  0  0  0  0  0  0  0  0  0  0  0
   48.1052    7.1747   11.9335 C   0  0  0  0  0  0  0  0  0  0  0  0
   48.1639    9.1221   15.3525 C   0  0  0  0  0  0  0  0  0  0  0  0
   48.7046    6.8736   15.9808 C   0  0  0  0  0  0  0  0  0  0  0  0
   54.3954    7.8922   12.9943 C   0  0  0  0  0  0  0  0  0  0  0  0
   49.1747   12.1728   10.2110 C   0  0  0  0  0  0  0  0  0  0  0  0
   49.4052   13.2135   11.0992 C   0  0  0  0  0  0  0  0  0  0  0  0
   54.7621    8.7934   13.9855 C   0  0  0  0  0  0  0  0  0  0  0  0
   48.5195    9.2886   15.1098 O   0  0  0  0  0  0  0  0  0  0  0  0
   49.7367    7.4294   14.8239 O   0  0  0  0  0  0  0  0  0  0  0  0
   52.8420    9.3296   12.1449 O   0  0  0  0  0  0  0  0  0  0  0  0
   51.6100    9.6737   10.3158 O   0  0  0  0  0  0  0  0  0  0  0  0
   49.7911   10.7707   13.3938 O   0  0  0  0  0  0  0  0  0  0  0  0
   49.2932    8.7682   11.5028 O   0  0  0  0  0  0  0  0  0  0  0  0
   49.5369    8.5997   14.5380 C   0  0  0  0  0  0  0  0  0  0  0  0
   50.3566    9.4693   13.5942 C   0  0  1  0  0  0  0  0  0  0  0  0
   50.5122    8.7234   12.2682 C   0  0  2  0  0  0  0  0  0  0  0  0
   51.6725    9.3098   11.4824 C   0  0  0  0  0  0  0  0  0  0  0  0
   51.3766   10.2837   13.7072 H   0  0  0  0  0  0  0  0  0  0  0  0
   50.2874   11.0719   12.6826 H   0  0  0  0  0  0  0  0  0  0  0  0
   50.7040    9.8072   10.9067 H   0  0  0  0  0  0  0  0  0  0  0  0
   52.9016    8.7050   12.6973 H   0  0  0  0  0  0  0  0  0  0  0  0
   52.9551    8.6516   10.9408 H   0  0  0  0  0  0  0  0  0  0  0  0
   51.5129    9.5021   15.5416 H   0  0  0  0  0  0  0  0  0  0  0  0
   48.3527   11.6929   12.6811 H   0  0  0  0  0  0  0  0  0  0  0  0
   48.8290    5.3812   15.9220 H   0  0  0  0  0  0  0  0  0  0  0  0
   45.2177    7.8874   12.6278 H   0  0  0  0  0  0  0  0  0  0  0  0
   50.9509    7.3872   10.7335 H   0  0  0  0  0  0  0  0  0  0  0  0
   50.8487    7.2048   12.4822 H   0  0  0  0  0  0  0  0  0  0  0  0
   49.4510    7.7895   11.5439 H   0  0  0  0  0  0  0  0  0  0  0  0
   52.0974   11.3666   10.1663 H   0  0  0  0  0  0  0  0  0  0  0  0
   53.6230   12.1841   10.4625 H   0  0  0  0  0  0  0  0  0  0  0  0
   53.6310   10.5899    9.6950 H   0  0  0  0  0  0  0  0  0  0  0  0
   55.1211   11.4433   12.1768 H   0  0  0  0  0  0  0  0  0  0  0  0
   54.7078   10.0768   13.2081 H   0  0  0  0  0  0  0  0  0  0  0  0
   55.1994    9.7888   11.5218 H   0  0  0  0  0  0  0  0  0  0  0  0
   46.1928   11.9287   11.6087 H   0  0  0  0  0  0  0  0  0  0  0  0
   52.1968    7.7415   17.0750 H   0  0  0  0  0  0  0  0  0  0  0  0
   50.8668    5.6570   17.2664 H   0  0  0  0  0  0  0  0  0  0  0  0
   44.6123   10.0060   11.5447 H   0  0  0  0  0  0  0  0  0  0  0  0
   49.9974    8.2120   10.4687 H   0  0  0  0  0  0  0  0  0  0  0  0
   50.8810    7.2798   11.6046 H   0  0  0  0  0  0  0  0  0  0  0  0
   48.6493    9.1538   12.5145 H   0  0  0  0  0  0  0  0  0  0  0  0
   50.3657    8.4347   14.2816 H   0  0  0  0  0  0  0  0  0  0  0  0
   50.0010    6.7732   13.8517 H   0  0  0  0  0  0  0  0  0  0  0  0
   49.5959   10.1540    9.6793 H   0  0  0  0  0  0  0  0  0  0  0  0
   52.9927    7.4043   11.4601 H   0  0  0  0  0  0  0  0  0  0  0  0
   50.4248   13.8290   12.8768 H   0  0  0  0  0  0  0  0  0  0  0  0
   54.2637   10.6110   15.0075 H   0  0  0  0  0  0  0  0  0  0  0  0
   47.1822    7.1913   12.5269 H   0  0  0  0  0  0  0  0  0  0  0  0
   47.8298    7.4000   10.8946 H   0  0  0  0  0  0  0  0  0  0  0  0
   48.4954    6.1526   11.9722 H   0  0  0  0  0  0  0  0  0  0  0  0
   48.9918    9.4971   15.9745 H   0  0  0  0  0  0  0  0  0  0  0  0
   48.0055    9.8422   14.5418 H   0  0  0  0  0  0  0  0  0  0  0  0
   47.2465    9.1290   15.9596 H   0  0  0  0  0  0  0  0  0  0  0  0
   49.6195    7.1351   16.5271 H   0  0  0  0  0  0  0  0  0  0  0  0
   47.8602    6.8743   16.6805 H   0  0  0  0  0  0  0  0  0  0  0  0
   48.8002    5.8484   15.6200 H   0  0  0  0  0  0  0  0  0  0  0  0
   55.0265    7.0311   12.7835 H   0  0  0  0  0  0  0  0  0  0  0  0
   48.5495   12.3326    9.3356 H   0  0  0  0  0  0  0  0  0  0  0  0
   48.9495   14.1863   10.9240 H   0  0  0  0  0  0  0  0  0  0  0  0
   55.6700    8.6302   14.5601 H   0  0  0  0  0  0  0  0  0  0  0  0
   48.0544    8.6028   15.6405 H   0  0  0  0  0  0  0  0  0  0  0  0
   53.4755    9.7085   11.5022 H   0  0  0  0  0  0  0  0  0  0  0  0
   49.0406   10.8236   14.0215 H   0  0  0  0  0  0  0  0  0  0  0  0
   49.5514    8.9928   10.5887 H   0  0  0  0  0  0  0  0  0  0  0  0
   51.3154    9.6281   14.0999 H   0  0  0  0  0  0  0  0  0  0  0  0
   50.7389    7.6609   12.4240 H   0  0  0  0  0  0  0  0  0  0  0  0
 10  9  1  0
 11  4  2  0
 12  3  2  0
 13  6  2  0
 14  5  2  0
 15  8  1  0
 16 10  1  0
 17 10  1  0
 18 12  1  0
 19 11  1  0
 20 19  2  0
 21 18  2  0
  5  2  1  0
 13 20  1  0
 14 21  1  0
  2  6  1  0
  3  1  1  0
  4  1  1  0
  5  3  1  0
  6  4  1  0
  7  1  1  0
  8  7  1  0
  9  8  1  0
 31 30  1  0
 32 25  2  0
 33 24  2  0
 34 27  2  0
 35 26  2  0
 36 29  1  0
 37 31  1  0
 38 31  1  0
 39 33  1  0
 40 32  1  0
 41 40  2  0
 42 39  2  0
 26 23  1  0
 34 41  1  0
 35 42  1  0
 23 27  1  0
 24 22  1  0
 25 22  1  0
 26 24  1  0
 27 25  1  0
 28 22  1  0
 29 28  1  0
 30 29  1  0
 49 44  2  0
 50 47  1  0
 51 48  1  0
 49 43  1  0
 51 52  1  0
 50 51  1  0
 52 45  1  0
 49 50  1  0
 52 46  2  0
  7 53  1  0
  7 54  1  0
  8 55  1  6
  9 56  1  0
  9 57  1  0
 11 58  1  0
 12 59  1  0
 13 60  1  0
 14 61  1  0
 15 62  1  0
 15 63  1  0
 15 64  1  0
 16 65  1  0
 16 66  1  0
 16 67  1  0
 17 68  1  0
 17 69  1  0
 17 70  1  0
 18 71  1  0
 19 72  1  0
 20 73  1  0
 21 74  1  0
 28 75  1  0
 28 76  1  0
 29 77  1  1
 30 78  1  0
 30 79  1  0
 32 80  1  0
 33 81  1  0
 34 82  1  0
 35 83  1  0
 36 84  1  0
 36 85  1  0
 36 86  1  0
 37 87  1  0
 37 88  1  0
 37 89  1  0
 38 90  1  0
 38 91  1  0
 38 92  1  0
 39 93  1  0
 40 94  1  0
 41 95  1  0
 42 96  1  0
 43 97  1  0
 45 98  1  0
 47 99  1  0
 48100  1  0
 50101  1  1
 51102  1  1
M  END
> <Uni-Dock RESULT> 
ENERGY=   -4.796  LOWER_BOUND=    5.448  UPPER_BOUND=    8.277
INTER + INTRA:          -4.796
INTER:                  -4.796
INTRA:                   0.000
UNBOUND:                 0.000

$$$$

     RDKit          3D

102105  0  0  0  0  0  0  0  0999 V2000
   48.1780    6.8305   18.5978 N   0  0  0  0  0  0  0  0  0  0  0  0
   48.5524    4.1132   20.1303 S   0  0  0  0  0  0  0  0  0  0  0  0
   48.0772    5.6432   17.8237 C   0  0  0  0  0  0  0  0  0  0  0  0
   48.0715    6.8806   20.0131 C   0  0  0  0  0  0  0  0  0  0  0  0
   48.2211    4.3650   18.3967 C   0  0  0  0  0  0  0  0  0  0  0  0
   48.2243    5.7275   20.8094 C   0  0  0  0  0  0  0  0  0  0  0  0
   48.8989    7.9671   17.9619 C   0  0  0  0  0  0  0  0  0  0  0  0
   50.4468    7.8825   17.9547 C   0  0  1  0  0  0  0  0  0  0  0  0
   51.0534    9.2492   18.3625 C   0  0  0  0  0  0  0  0  0  0  0  0
   50.6433   10.3763   17.5040 N   0  0  0  0  0  0  0  0  0  0  0  0
   47.7819    8.0908   20.6838 C   0  0  0  0  0  0  0  0  0  0  0  0
   47.7806    5.6965   16.4489 C   0  0  0  0  0  0  0  0  0  0  0  0
   48.1623    5.8155   22.2114 C   0  0  0  0  0  0  0  0  0  0  0  0
   48.1568    3.2101   17.6024 C   0  0  0  0  0  0  0  0  0  0  0  0
   51.0906    6.8008   18.8316 C   0  0  0  0  0  0  0  0  0  0  0  0
   51.3423   10.3467   16.2134 C   0  0  0  0  0  0  0  0  0  0  0  0
   50.9142   11.6464   18.1777 C   0  0  0  0  0  0  0  0  0  0  0  0
   47.7088    4.5456   15.6599 C   0  0  0  0  0  0  0  0  0  0  0  0
   47.7034    8.1660   22.0778 C   0  0  0  0  0  0  0  0  0  0  0  0
   47.9191    7.0341   22.8462 C   0  0  0  0  0  0  0  0  0  0  0  0
   47.9236    3.3056   16.2327 C   0  0  0  0  0  0  0  0  0  0  0  0
   50.4992    8.0758   17.8552 N   0  0  0  0  0  0  0  0  0  0  0  0
   47.9756    9.9099   17.6356 S   0  0  0  0  0  0  0  0  0  0  0  0
   50.4344    9.1649   18.7626 C   0  0  0  0  0  0  0  0  0  0  0  0
   49.7983    8.0358   16.6185 C   0  0  0  0  0  0  0  0  0  0  0  0
   49.3613   10.0799   18.7435 C   0  0  0  0  0  0  0  0  0  0  0  0
   48.6738    8.8453   16.3776 C   0  0  0  0  0  0  0  0  0  0  0  0
   50.9312    6.7669   18.4041 C   0  0  0  0  0  0  0  0  0  0  0  0
   49.7428    5.8251   18.7223 C   0  0  2  0  0  0  0  0  0  0  0  0
   48.9775    6.2792   19.9834 C   0  0  0  0  0  0  0  0  0  0  0  0
   47.8149    5.4173   20.2688 N   0  0  0  0  0  0  0  0  0  0  0  0
   50.2387    7.2153   15.5589 C   0  0  0  0  0  0  0  0  0  0  0  0
   51.4830    9.4100   19.6726 C   0  0  0  0  0  0  0  0  0  0  0  0
   48.0031    8.7958   15.1416 C   0  0  0  0  0  0  0  0  0  0  0  0
   49.3241   11.1492   19.6520 C   0  0  0  0  0  0  0  0  0  0  0  0
   50.2789    4.3965   18.8981 C   0  0  0  0  0  0  0  0  0  0  0  0
   46.6558    5.8220   19.4695 C   0  0  0  0  0  0  0  0  0  0  0  0
   47.4713    5.4605   21.6937 C   0  0  0  0  0  0  0  0  0  0  0  0
   51.4481   10.4851   20.5623 C   0  0  0  0  0  0  0  0  0  0  0  0
   49.5729    7.1747   14.3292 C   0  0  0  0  0  0  0  0  0  0  0  0
   48.4491    7.9621   14.1240 C   0  0  0  0  0  0  0  0  0  0  0  0
   50.3630   11.3521   20.5591 C   0  0  0  0  0  0  0  0  0  0  0  0
   46.8977    6.1701   19.2870 O   0  0  0  0  0  0  0  0  0  0  0  0
   48.4933    6.4282   20.8385 O   0  0  0  0  0  0  0  0  0  0  0  0
   50.8263    9.5655   18.5701 O   0  0  0  0  0  0  0  0  0  0  0  0
   51.6327    8.3142   16.9071 O   0  0  0  0  0  0  0  0  0  0  0  0
   47.9929    7.6507   17.4521 O   0  0  0  0  0  0  0  0  0  0  0  0
   50.2779    6.0575   17.7246 O   0  0  0  0  0  0  0  0  0  0  0  0
   48.0672    6.6958   19.7258 C   0  0  0  0  0  0  0  0  0  0  0  0
   48.6878    7.6405   18.7054 C   0  0  1  0  0  0  0  0  0  0  0  0
   50.1551    7.2508   18.5214 C   0  0  2  0  0  0  0  0  0  0  0  0
   50.9186    8.4059   17.8965 C   0  0  0  0  0  0  0  0  0  0  0  0
   48.5801    8.9119   18.4080 H   0  0  0  0  0  0  0  0  0  0  0  0
   48.5894    8.1052   16.9226 H   0  0  0  0  0  0  0  0  0  0  0  0
   50.7634    7.6574   16.9308 H   0  0  0  0  0  0  0  0  0  0  0  0
   50.7219    9.4455   19.3909 H   0  0  0  0  0  0  0  0  0  0  0  0
   52.1485    9.1862   18.3965 H   0  0  0  0  0  0  0  0  0  0  0  0
   47.5744    9.0019   20.1328 H   0  0  0  0  0  0  0  0  0  0  0  0
   47.5604    6.6392   15.9631 H   0  0  0  0  0  0  0  0  0  0  0  0
   48.2986    4.9342   22.8272 H   0  0  0  0  0  0  0  0  0  0  0  0
   48.3011    2.2312   18.0451 H   0  0  0  0  0  0  0  0  0  0  0  0
   52.1831    6.8317   18.7337 H   0  0  0  0  0  0  0  0  0  0  0  0
   50.8605    6.9470   19.8908 H   0  0  0  0  0  0  0  0  0  0  0  0
   50.7864    5.7934   18.5346 H   0  0  0  0  0  0  0  0  0  0  0  0
   51.0995    9.4372   15.6500 H   0  0  0  0  0  0  0  0  0  0  0  0
   51.0358   11.1909   15.5864 H   0  0  0  0  0  0  0  0  0  0  0  0
   52.4265   10.4031   16.3453 H   0  0  0  0  0  0  0  0  0  0  0  0
   50.6144   12.4942   17.5500 H   0  0  0  0  0  0  0  0  0  0  0  0
   50.3219   11.7175   19.1033 H   0  0  0  0  0  0  0  0  0  0  0  0
   51.9728   11.7621   18.4395 H   0  0  0  0  0  0  0  0  0  0  0  0
   47.4780    4.6367   14.6015 H   0  0  0  0  0  0  0  0  0  0  0  0
   47.4922    9.1201   22.5614 H   0  0  0  0  0  0  0  0  0  0  0  0
   47.8697    7.0871   23.9306 H   0  0  0  0  0  0  0  0  0  0  0  0
   47.8826    2.4067   15.6322 H   0  0  0  0  0  0  0  0  0  0  0  0
   51.6281    6.2847   17.7079 H   0  0  0  0  0  0  0  0  0  0  0  0
   51.5253    6.8653   19.3179 H   0  0  0  0  0  0  0  0  0  0  0  0
   49.0521    5.8088   17.8731 H   0  0  0  0  0  0  0  0  0  0  0  0
   48.6602    7.3247   19.9064 H   0  0  0  0  0  0  0  0  0  0  0  0
   49.6792    6.2307   20.8246 H   0  0  0  0  0  0  0  0  0  0  0  0
   51.1422    6.6153   15.6560 H   0  0  0  0  0  0  0  0  0  0  0  0
   52.3684    8.7792   19.6665 H   0  0  0  0  0  0  0  0  0  0  0  0
   47.1313    9.4191   14.9717 H   0  0  0  0  0  0  0  0  0  0  0  0
   48.4787   11.8373   19.6589 H   0  0  0  0  0  0  0  0  0  0  0  0
   49.4587    3.6757   19.0081 H   0  0  0  0  0  0  0  0  0  0  0  0
   50.8812    4.0772   18.0371 H   0  0  0  0  0  0  0  0  0  0  0  0
   50.8978    4.3212   19.7980 H   0  0  0  0  0  0  0  0  0  0  0  0
   46.2925    6.8194   19.7627 H   0  0  0  0  0  0  0  0  0  0  0  0
   46.8791    5.8522   18.3971 H   0  0  0  0  0  0  0  0  0  0  0  0
   45.8317    5.1042   19.5965 H   0  0  0  0  0  0  0  0  0  0  0  0
   47.2559    6.4756   22.0501 H   0  0  0  0  0  0  0  0  0  0  0  0
   46.6049    4.8204   21.8991 H   0  0  0  0  0  0  0  0  0  0  0  0
   48.2952    5.0562   22.2836 H   0  0  0  0  0  0  0  0  0  0  0  0
   52.2739   10.6520   21.2509 H   0  0  0  0  0  0  0  0  0  0  0  0
   49.9481    6.5421   13.5281 H   0  0  0  0  0  0  0  0  0  0  0  0
   47.9373    7.9362   13.1637 H   0  0  0  0  0  0  0  0  0  0  0  0
   50.3319   12.1870   21.2541 H   0  0  0  0  0  0  0  0  0  0  0  0
   46.6441    5.5524   20.0097 H   0  0  0  0  0  0  0  0  0  0  0  0
   51.3820   10.1863   18.0566 H   0  0  0  0  0  0  0  0  0  0  0  0
   47.1925    7.1047   17.5983 H   0  0  0  0  0  0  0  0  0  0  0  0
   50.9825    6.2344   17.0725 H   0  0  0  0  0  0  0  0  0  0  0  0
   48.5713    8.6450   19.1267 H   0  0  0  0  0  0  0  0  0  0  0  0
   50.6406    7.0315   19.4810 H   0  0  0  0  0  0  0  0  0  0  0  0
 10  9  1  0
 11  4  2  0
 12  3  2  0
 13  6  2  0
 14  5  2  0
 15  8  1  0
 16 10  1  0
 17 10  1  0
 18 12  1  0
 19 11  1  0
 20 19  2  0
 21 18  2  0
  5  2  1  0
 13 20  1  0
 14 21  1  0
  2  6  1  0
  3  1  1  0
  4  1  1  0
  5  3  1  0
  6  4  1  0
  7  1  1  0
  8  7  1  0
  9  8  1  0
 31 30  1  0
 32 25  2  0
 33 24  2  0
 34 27  2  0
 35 26  2  0
 36 29  1  0
 37 31  1  0
 38 31  1  0
 39 33  1  0
 40 32  1  0
 41 40  2  0
 42 39  2  0
 26 23  1  0
 34 41  1  0
 35 42  1  0
 23 27  1  0
 24 22  1  0
 25 22  1  0
 26 24  1  0
 27 25  1  0
 28 22  1  0
 29 28  1  0
 30 29  1  0
 49 44  2  0
 50 47  1  0
 51 48  1  0
 49 43  1  0
 51 52  1  0
 50 51  1  0
 52 45  1  0
 49 50  1  0
 52 46  2  0
  7 53  1  0
  7 54  1  0
  8 55  1  6
  9 56  1  0
  9 57  1  0
 11 58  1  0
 12 59  1  0
 13 60  1  0
 14 61  1  0
 15 62  1  0
 15 63  1  0
 15 64  1  0
 16 65  1  0
 16 66  1  0
 16 67  1  0
 17 68  1  0
 17 69  1  0
 17 70  1  0
 18 71  1  0
 19 72  1  0
 20 73  1  0
 21 74  1  0
 28 75  1  0
 28 76  1  0
 29 77  1  1
 30 78  1  0
 30 79  1  0
 32 80  1  0
 33 81  1  0
 34 82  1  0
 35 83  1  0
 36 84  1  0
 36 85  1  0
 36 86  1  0
 37 87  1  0
 37 88  1  0
 37 89  1  0
 38 90  1  0
 38 91  1  0
 38 92  1  0
 39 93  1  0
 40 94  1  0
 41 95  1  0
 42 96  1  0
 43 97  1  0
 45 98  1  0
 47 99  1  0
 48100  1  0
 50101  1  1
 51102  1  1
M  END
> <Uni-Dock RESULT> 
ENERGY=   -4.786  LOWER_BOUND=    2.230  UPPER_BOUND=    5.561
INTER + INTRA:          -4.786
INTER:                  -4.786
INTRA:                   0.000
UNBOUND:                 0.000

$$$$

     RDKit          3D

102105  0  0  0  0  0  0  0  0999 V2000
   49.9627    8.0980   19.6876 N   0  0  0  0  0  0  0  0  0  0  0  0
   49.5518    5.4797   18.0002 S   0  0  0  0  0  0  0  0  0  0  0  0
   49.4762    6.9600   20.3856 C   0  0  0  0  0  0  0  0  0  0  0  0
   50.6029    8.0530   18.4207 C   0  0  0  0  0  0  0  0  0  0  0  0
   49.2560    5.7277   19.7408 C   0  0  0  0  0  0  0  0  0  0  0  0
   50.4889    6.9333   17.5719 C   0  0  0  0  0  0  0  0  0  0  0  0
   49.3514    9.4038   20.0583 C   0  0  0  0  0  0  0  0  0  0  0  0
   47.9435    9.6937   19.4781 C   0  0  1  0  0  0  0  0  0  0  0  0
   47.8827   11.1448   18.9370 C   0  0  0  0  0  0  0  0  0  0  0  0
   48.1972   12.1805   19.9391 N   0  0  0  0  0  0  0  0  0  0  0  0
   51.4053    9.1244   17.9665 C   0  0  0  0  0  0  0  0  0  0  0  0
   49.2368    7.0066   21.7718 C   0  0  0  0  0  0  0  0  0  0  0  0
   51.0933    6.9363   16.3023 C   0  0  0  0  0  0  0  0  0  0  0  0
   48.7370    4.6308   20.4452 C   0  0  0  0  0  0  0  0  0  0  0  0
   47.4376    8.7574   18.3732 C   0  0  0  0  0  0  0  0  0  0  0  0
   47.0788   12.3817   20.8685 C   0  0  0  0  0  0  0  0  0  0  0  0
   48.5136   13.4446   19.2739 C   0  0  0  0  0  0  0  0  0  0  0  0
   48.7275    5.9115   22.4743 C   0  0  0  0  0  0  0  0  0  0  0  0
   52.0184    9.1114   16.7100 C   0  0  0  0  0  0  0  0  0  0  0  0
   51.8427    8.0288   15.8643 C   0  0  0  0  0  0  0  0  0  0  0  0
   48.4529    4.7332   21.8047 C   0  0  0  0  0  0  0  0  0  0  0  0
   47.9056    9.8986   19.5595 N   0  0  0  0  0  0  0  0  0  0  0  0
   50.5215   11.0814   20.7999 S   0  0  0  0  0  0  0  0  0  0  0  0
   48.5669   10.8953   18.7960 C   0  0  0  0  0  0  0  0  0  0  0  0
   48.0575    9.7510   20.9658 C   0  0  0  0  0  0  0  0  0  0  0  0
   49.7397   11.5256   19.2611 C   0  0  0  0  0  0  0  0  0  0  0  0
   49.1674   10.2774   21.6504 C   0  0  0  0  0  0  0  0  0  0  0  0
   47.4112    8.7069   18.8271 C   0  0  0  0  0  0  0  0  0  0  0  0
   48.3680    7.4930   18.9357 C   0  0  2  0  0  0  0  0  0  0  0  0
   49.6366    7.6888   18.0786 C   0  0  0  0  0  0  0  0  0  0  0  0
   50.5772    6.5602   18.2115 N   0  0  0  0  0  0  0  0  0  0  0  0
   47.0674    9.1122   21.7414 C   0  0  0  0  0  0  0  0  0  0  0  0
   48.0301   11.3409   17.5708 C   0  0  0  0  0  0  0  0  0  0  0  0
   49.2903   10.1278   23.0441 C   0  0  0  0  0  0  0  0  0  0  0  0
   50.3719   12.5097   18.4852 C   0  0  0  0  0  0  0  0  0  0  0  0
   47.6112    6.2282   18.5035 C   0  0  0  0  0  0  0  0  0  0  0  0
   51.4105    6.7127   19.4067 C   0  0  0  0  0  0  0  0  0  0  0  0
   51.4314    6.4511   17.0247 C   0  0  0  0  0  0  0  0  0  0  0  0
   48.6546   12.3320   16.8117 C   0  0  0  0  0  0  0  0  0  0  0  0
   47.1903    8.9722   23.1279 C   0  0  0  0  0  0  0  0  0  0  0  0
   48.3078    9.4756   23.7782 C   0  0  0  0  0  0  0  0  0  0  0  0
   49.8326   12.9122   17.2644 C   0  0  0  0  0  0  0  0  0  0  0  0
   51.2090    7.1172   19.5009 O   0  0  0  0  0  0  0  0  0  0  0  0
   50.4275    7.6759   17.4768 O   0  0  0  0  0  0  0  0  0  0  0  0
   48.2400   11.3870   18.8455 O   0  0  0  0  0  0  0  0  0  0  0  0
   46.5917   10.4476   20.0211 O   0  0  0  0  0  0  0  0  0  0  0  0
   49.8941    8.9040   20.8562 O   0  0  0  0  0  0  0  0  0  0  0  0
   47.5694    7.8949   19.6682 O   0  0  0  0  0  0  0  0  0  0  0  0
   50.4542    7.8866   18.6794 C   0  0  0  0  0  0  0  0  0  0  0  0
   49.7418    9.0006   19.4345 C   0  0  1  0  0  0  0  0  0  0  0  0
   48.2660    8.9840   19.0337 C   0  0  2  0  0  0  0  0  0  0  0  0
   47.6252   10.3173   19.3790 C   0  0  0  0  0  0  0  0  0  0  0  0
   50.0316   10.2217   19.8103 H   0  0  0  0  0  0  0  0  0  0  0  0
   49.2702    9.5133   21.1430 H   0  0  0  0  0  0  0  0  0  0  0  0
   47.2206    9.6008   20.2955 H   0  0  0  0  0  0  0  0  0  0  0  0
   48.6135   11.2061   18.1198 H   0  0  0  0  0  0  0  0  0  0  0  0
   46.9005   11.3451   18.4902 H   0  0  0  0  0  0  0  0  0  0  0  0
   51.6024    9.9845   18.5976 H   0  0  0  0  0  0  0  0  0  0  0  0
   49.4775    7.8911   22.3487 H   0  0  0  0  0  0  0  0  0  0  0  0
   50.9914    6.0849   15.6396 H   0  0  0  0  0  0  0  0  0  0  0  0
   48.5394    3.6950   19.9349 H   0  0  0  0  0  0  0  0  0  0  0  0
   46.4308    9.0544   18.0538 H   0  0  0  0  0  0  0  0  0  0  0  0
   48.0775    8.7929   17.4868 H   0  0  0  0  0  0  0  0  0  0  0  0
   47.3559    7.7219   18.7148 H   0  0  0  0  0  0  0  0  0  0  0  0
   46.8654   11.4688   21.4382 H   0  0  0  0  0  0  0  0  0  0  0  0
   47.3198   13.1569   21.6040 H   0  0  0  0  0  0  0  0  0  0  0  0
   46.1719   12.6905   20.3409 H   0  0  0  0  0  0  0  0  0  0  0  0
   48.7493   14.2248   20.0076 H   0  0  0  0  0  0  0  0  0  0  0  0
   49.4091   13.3267   18.6440 H   0  0  0  0  0  0  0  0  0  0  0  0
   47.6928   13.7983   18.6385 H   0  0  0  0  0  0  0  0  0  0  0  0
   48.5574    5.9953   23.5447 H   0  0  0  0  0  0  0  0  0  0  0  0
   52.6187    9.9624   16.3873 H   0  0  0  0  0  0  0  0  0  0  0  0
   52.3079    8.0161   14.8821 H   0  0  0  0  0  0  0  0  0  0  0  0
   48.0475    3.8808   22.3332 H   0  0  0  0  0  0  0  0  0  0  0  0
   46.4097    8.4402   19.1859 H   0  0  0  0  0  0  0  0  0  0  0  0
   47.2473    8.9009   17.7626 H   0  0  0  0  0  0  0  0  0  0  0  0
   48.6624    7.3523   19.9806 H   0  0  0  0  0  0  0  0  0  0  0  0
   50.1426    8.6300   18.3188 H   0  0  0  0  0  0  0  0  0  0  0  0
   49.3137    7.7698   17.0338 H   0  0  0  0  0  0  0  0  0  0  0  0
   46.1514    8.7428   21.2830 H   0  0  0  0  0  0  0  0  0  0  0  0
   47.0841   10.9422   17.2132 H   0  0  0  0  0  0  0  0  0  0  0  0
   50.1561   10.5310   23.5591 H   0  0  0  0  0  0  0  0  0  0  0  0
   51.2963   12.9735   18.8297 H   0  0  0  0  0  0  0  0  0  0  0  0
   48.2133    5.3271   18.6764 H   0  0  0  0  0  0  0  0  0  0  0  0
   46.6714    6.1047   19.0581 H   0  0  0  0  0  0  0  0  0  0  0  0
   47.3782    6.2605   17.4343 H   0  0  0  0  0  0  0  0  0  0  0  0
   52.0856    7.5785   19.3194 H   0  0  0  0  0  0  0  0  0  0  0  0
   50.8143    6.8473   20.3162 H   0  0  0  0  0  0  0  0  0  0  0  0
   52.0232    5.8129   19.5655 H   0  0  0  0  0  0  0  0  0  0  0  0
   52.0022    7.3664   16.8242 H   0  0  0  0  0  0  0  0  0  0  0  0
   52.1301    5.6125   17.1307 H   0  0  0  0  0  0  0  0  0  0  0  0
   50.8192    6.2285   16.1495 H   0  0  0  0  0  0  0  0  0  0  0  0
   48.2151   12.6590   15.8716 H   0  0  0  0  0  0  0  0  0  0  0  0
   46.4011    8.4875   23.6979 H   0  0  0  0  0  0  0  0  0  0  0  0
   48.3980    9.3738   24.8581 H   0  0  0  0  0  0  0  0  0  0  0  0
   50.3227   13.6807   16.6726 H   0  0  0  0  0  0  0  0  0  0  0  0
   51.5596    6.4225   18.8986 H   0  0  0  0  0  0  0  0  0  0  0  0
   47.6986   12.1471   19.1406 H   0  0  0  0  0  0  0  0  0  0  0  0
   50.5340    8.1753   20.9965 H   0  0  0  0  0  0  0  0  0  0  0  0
   46.7361    8.2670   20.0145 H   0  0  0  0  0  0  0  0  0  0  0  0
   50.2459    9.9263   19.1362 H   0  0  0  0  0  0  0  0  0  0  0  0
   48.1401    8.8417   17.9527 H   0  0  0  0  0  0  0  0  0  0  0  0
 10  9  1  0
 11  4  2  0
 12  3  2  0
 13  6  2  0
 14  5  2  0
 15  8  1  0
 16 10  1  0
 17 10  1  0
 18 12  1  0
 19 11  1  0
 20 19  2  0
 21 18  2  0
  5  2  1  0
 13 20  1  0
 14 21  1  0
  2  6  1  0
  3  1  1  0
  4  1  1  0
  5  3  1  0
  6  4  1  0
  7  1  1  0
  8  7  1  0
  9  8  1  0
 31 30  1  0
 32 25  2  0
 33 24  2  0
 34 27  2  0
 35 26  2  0
 36 29  1  0
 37 31  1  0
 38 31  1  0
 39 33  1  0
 40 32  1  0
 41 40  2  0
 42 39  2  0
 26 23  1  0
 34 41  1  0
 35 42  1  0
 23 27  1  0
 24 22  1  0
 25 22  1  0
 26 24  1  0
 27 25  1  0
 28 22  1  0
 29 28  1  0
 30 29  1  0
 49 44  2  0
 50 47  1  0
 51 48  1  0
 49 43  1  0
 51 52  1  0
 50 51  1  0
 52 45  1  0
 49 50  1  0
 52 46  2  0
  7 53  1  0
  7 54  1  0
  8 55  1  6
  9 56  1  0
  9 57  1  0
 11 58  1  0
 12 59  1  0
 13 60  1  0
 14 61  1  0
 15 62  1  0
 15 63  1  0
 15 64  1  0
 16 65  1  0
 16 66  1  0
 16 67  1  0
 17 68  1  0
 17 69  1  0
 17 70  1  0
 18 71  1  0
 19 72  1  0
 20 73  1  0
 21 74  1  0
 28 75  1  0
 28 76  1  0
 29 77  1  1
 30 78  1  0
 30 79  1  0
 32 80  1  0
 33 81  1  0
 34 82  1  0
 35 83  1  0
 36 84  1  0
 36 85  1  0
 36 86  1  0
 37 87  1  0
 37 88  1  0
 37 89  1  0
 38 90  1  0
 38 91  1  0
 38 92  1  0
 39 93  1  0
 40 94  1  0
 41 95  1  0
 42 96  1  0
 43 97  1  0
 45 98  1  0
 47 99  1  0
 48100  1  0
 50101  1  1
 51102  1  1
M  END
> <Uni-Dock RESULT> 
ENERGY=   -4.750  LOWER_BOUND=    1.592  UPPER_BOUND=    5.867
INTER + INTRA:          -4.750
INTER:                  -4.750
INTRA:                   0.000
UNBOUND:                 0.000

$$$$

     RDKit          3D

102105  0  0  0  0  0  0  0  0999 V2000
   49.9845    7.7644   20.2707 N   0  0  0  0  0  0  0  0  0  0  0  0
   49.1087    4.7875   20.7633 S   0  0  0  0  0  0  0  0  0  0  0  0
   49.4946    7.4506   21.5671 C   0  0  0  0  0  0  0  0  0  0  0  0
   50.4397    6.8051   19.3276 C   0  0  0  0  0  0  0  0  0  0  0  0
   49.0764    6.1509   21.9116 C   0  0  0  0  0  0  0  0  0  0  0  0
   50.1087    5.4395   19.4407 C   0  0  0  0  0  0  0  0  0  0  0  0
   49.5521    9.0725   19.7067 C   0  0  0  0  0  0  0  0  0  0  0  0
   48.1112    9.1342   19.1386 C   0  0  1  0  0  0  0  0  0  0  0  0
   48.1113    9.8696   17.7743 C   0  0  0  0  0  0  0  0  0  0  0  0
   48.6531   11.2407   17.8232 N   0  0  0  0  0  0  0  0  0  0  0  0
   51.2682    7.1779   18.2446 C   0  0  0  0  0  0  0  0  0  0  0  0
   49.4512    8.4249   22.5818 C   0  0  0  0  0  0  0  0  0  0  0  0
   50.5327    4.5198   18.4652 C   0  0  0  0  0  0  0  0  0  0  0  0
   48.5591    5.8769   23.1868 C   0  0  0  0  0  0  0  0  0  0  0  0
   47.3758    7.8005   18.9547 C   0  0  0  0  0  0  0  0  0  0  0  0
   47.6947   12.1724   18.4302 C   0  0  0  0  0  0  0  0  0  0  0  0
   48.9912   11.6964   16.4747 C   0  0  0  0  0  0  0  0  0  0  0  0
   48.9434    8.1495   23.8539 C   0  0  0  0  0  0  0  0  0  0  0  0
   51.7010    6.2534   17.2891 C   0  0  0  0  0  0  0  0  0  0  0  0
   51.3130    4.9272   17.3825 C   0  0  0  0  0  0  0  0  0  0  0  0
   48.4731    6.8825   24.1464 C   0  0  0  0  0  0  0  0  0  0  0  0
   48.1037    9.3453   19.0651 N   0  0  0  0  0  0  0  0  0  0  0  0
   50.9616   10.6148   19.1001 S   0  0  0  0  0  0  0  0  0  0  0  0
   48.7440    9.4838   17.8064 C   0  0  0  0  0  0  0  0  0  0  0  0
   48.4311   10.1263   20.2076 C   0  0  0  0  0  0  0  0  0  0  0  0
   50.0222   10.0680   17.6877 C   0  0  0  0  0  0  0  0  0  0  0  0
   49.6674   10.7862   20.3245 C   0  0  0  0  0  0  0  0  0  0  0  0
   47.4067    8.0624   19.3285 C   0  0  0  0  0  0  0  0  0  0  0  0
   48.2535    7.0794   20.1755 C   0  0  2  0  0  0  0  0  0  0  0  0
   49.4064    6.4657   19.3531 C   0  0  0  0  0  0  0  0  0  0  0  0
   50.2484    5.5645   20.1624 N   0  0  0  0  0  0  0  0  0  0  0  0
   47.5010   10.3139   21.2515 C   0  0  0  0  0  0  0  0  0  0  0  0
   48.0891    9.1031   16.6173 C   0  0  0  0  0  0  0  0  0  0  0  0
   49.9643   11.5622   21.4601 C   0  0  0  0  0  0  0  0  0  0  0  0
   50.6310   10.1938   16.4292 C   0  0  0  0  0  0  0  0  0  0  0  0
   47.3318    5.9792   20.7225 C   0  0  0  0  0  0  0  0  0  0  0  0
   51.2469    6.3227   20.9202 C   0  0  0  0  0  0  0  0  0  0  0  0
   50.9197    4.5755   19.3129 C   0  0  0  0  0  0  0  0  0  0  0  0
   48.6932    9.2462   15.3670 C   0  0  0  0  0  0  0  0  0  0  0  0
   47.7978   11.0922   22.3754 C   0  0  0  0  0  0  0  0  0  0  0  0
   49.0348   11.7115   22.4816 C   0  0  0  0  0  0  0  0  0  0  0  0
   49.9701    9.7842   15.2722 C   0  0  0  0  0  0  0  0  0  0  0  0
   51.0982    6.7164   20.7306 O   0  0  0  0  0  0  0  0  0  0  0  0
   50.1037    5.9389   18.8796 O   0  0  0  0  0  0  0  0  0  0  0  0
   48.4736    9.9332   17.5306 O   0  0  0  0  0  0  0  0  0  0  0  0
   46.9210   10.2622   19.0998 O   0  0  0  0  0  0  0  0  0  0  0  0
   50.1498    9.1340   20.6122 O   0  0  0  0  0  0  0  0  0  0  0  0
   47.6023    7.9814   20.4891 O   0  0  0  0  0  0  0  0  0  0  0  0
   50.3128    6.8734   19.6374 C   0  0  0  0  0  0  0  0  0  0  0  0
   49.8153    8.3052   19.4919 C   0  0  1  0  0  0  0  0  0  0  0  0
   48.3035    8.2668   19.2640 C   0  0  2  0  0  0  0  0  0  0  0  0
   47.8412    9.5835   18.6640 C   0  0  0  0  0  0  0  0  0  0  0  0
   50.2647    9.4106   18.9510 H   0  0  0  0  0  0  0  0  0  0  0  0
   49.6296    9.8723   20.4479 H   0  0  0  0  0  0  0  0  0  0  0  0
   47.5006    9.7118   19.8407 H   0  0  0  0  0  0  0  0  0  0  0  0
   48.7268    9.2673   17.0930 H   0  0  0  0  0  0  0  0  0  0  0  0
   47.1001    9.8839   17.3479 H   0  0  0  0  0  0  0  0  0  0  0  0
   51.6275    8.1958   18.1376 H   0  0  0  0  0  0  0  0  0  0  0  0
   49.8484    9.4189   22.4164 H   0  0  0  0  0  0  0  0  0  0  0  0
   50.2637    3.4725   18.5388 H   0  0  0  0  0  0  0  0  0  0  0  0
   48.2086    4.8814   23.4343 H   0  0  0  0  0  0  0  0  0  0  0  0
   46.3665    7.9734   18.5604 H   0  0  0  0  0  0  0  0  0  0  0  0
   47.8897    7.1486   18.2425 H   0  0  0  0  0  0  0  0  0  0  0  0
   47.2462    7.2666   19.9002 H   0  0  0  0  0  0  0  0  0  0  0  0
   47.4775   11.8989   19.4701 H   0  0  0  0  0  0  0  0  0  0  0  0
   48.1038   13.1883   18.4557 H   0  0  0  0  0  0  0  0  0  0  0  0
   46.7568   12.2027   17.8683 H   0  0  0  0  0  0  0  0  0  0  0  0
   49.3952   12.7158   16.4959 H   0  0  0  0  0  0  0  0  0  0  0  0
   49.7781   11.0569   16.0455 H   0  0  0  0  0  0  0  0  0  0  0  0
   48.1278   11.6763   15.7990 H   0  0  0  0  0  0  0  0  0  0  0  0
   48.9288    8.9351   24.6052 H   0  0  0  0  0  0  0  0  0  0  0  0
   52.3276    6.5801   16.4589 H   0  0  0  0  0  0  0  0  0  0  0  0
   51.6373    4.2048   16.6379 H   0  0  0  0  0  0  0  0  0  0  0  0
   48.0665    6.6577   25.1234 H   0  0  0  0  0  0  0  0  0  0  0  0
   46.4430    8.2570   19.8146 H   0  0  0  0  0  0  0  0  0  0  0  0
   47.1183    7.5401   18.4111 H   0  0  0  0  0  0  0  0  0  0  0  0
   48.6729    7.6079   21.0376 H   0  0  0  0  0  0  0  0  0  0  0  0
   50.0250    7.2405   18.8876 H   0  0  0  0  0  0  0  0  0  0  0  0
   48.9534    5.8975   18.5319 H   0  0  0  0  0  0  0  0  0  0  0  0
   46.5011    9.8869   21.1915 H   0  0  0  0  0  0  0  0  0  0  0  0
   47.0705    8.7247   16.6533 H   0  0  0  0  0  0  0  0  0  0  0  0
   50.9255   12.0590   21.5420 H   0  0  0  0  0  0  0  0  0  0  0  0
   51.6324   10.6154   16.3411 H   0  0  0  0  0  0  0  0  0  0  0  0
   47.8662    5.3268   21.4247 H   0  0  0  0  0  0  0  0  0  0  0  0
   46.4688    6.3976   21.2574 H   0  0  0  0  0  0  0  0  0  0  0  0
   46.9596    5.3447   19.9117 H   0  0  0  0  0  0  0  0  0  0  0  0
   51.9807    6.8016   20.2531 H   0  0  0  0  0  0  0  0  0  0  0  0
   50.7948    7.1090   21.5350 H   0  0  0  0  0  0  0  0  0  0  0  0
   51.7900    5.6603   21.6106 H   0  0  0  0  0  0  0  0  0  0  0  0
   51.5398    5.0342   18.5325 H   0  0  0  0  0  0  0  0  0  0  0  0
   51.5461    3.9107   19.9196 H   0  0  0  0  0  0  0  0  0  0  0  0
   50.1763    3.9382   18.8317 H   0  0  0  0  0  0  0  0  0  0  0  0
   48.1620    8.9473   14.4657 H   0  0  0  0  0  0  0  0  0  0  0  0
   47.0521   11.2284   23.1552 H   0  0  0  0  0  0  0  0  0  0  0  0
   49.2612   12.3240   23.3524 H   0  0  0  0  0  0  0  0  0  0  0  0
   50.4440    9.8922   14.3001 H   0  0  0  0  0  0  0  0  0  0  0  0
   51.2982    5.7529   20.7269 H   0  0  0  0  0  0  0  0  0  0  0  0
   48.0497   10.7757   17.2692 H   0  0  0  0  0  0  0  0  0  0  0  0
   50.7331    8.5824   21.1740 H   0  0  0  0  0  0  0  0  0  0  0  0
   46.8616    8.6154   20.5353 H   0  0  0  0  0  0  0  0  0  0  0  0
   50.3573    8.7185   18.6343 H   0  0  0  0  0  0  0  0  0  0  0  0
   48.0194    7.4779   18.5558 H   0  0  0  0  0  0  0  0  0  0  0  0
 10  9  1  0
 11  4  2  0
 12  3  2  0
 13  6  2  0
 14  5  2  0
 15  8  1  0
 16 10  1  0
 17 10  1  0
 18 12  1  0
 19 11  1  0
 20 19  2  0
 21 18  2  0
  5  2  1  0
 13 20  1  0
 14 21  1  0
  2  6  1  0
  3  1  1  0
  4  1  1  0
  5  3  1  0
  6  4  1  0
  7  1  1  0
  8  7  1  0
  9  8  1  0
 31 30  1  0
 32 25  2  0
 33 24  2  0
 34 27  2  0
 35 26  2  0
 36 29  1  0
 37 31  1  0
 38 31  1  0
 39 33  1  0
 40 32  1  0
 41 40  2  0
 42 39  2  0
 26 23  1  0
 34 41  1  0
 35 42  1  0
 23 27  1  0
 24 22  1  0
 25 22  1  0
 26 24  1  0
 27 25  1  0
 28 22  1  0
 29 28  1  0
 30 29  1  0
 49 44  2  0
 50 47  1  0
 51 48  1  0
 49 43  1  0
 51 52  1  0
 50 51  1  0
 52 45  1  0
 49 50  1  0
 52 46  2  0
  7 53  1  0
  7 54  1  0
  8 55  1  6
  9 56  1  0
  9 57  1  0
 11 58  1  0
 12 59  1  0
 13 60  1  0
 14 61  1  0
 15 62  1  0
 15 63  1  0
 15 64  1  0
 16 65  1  0
 16 66  1  0
 16 67  1  0
 17 68  1  0
 17 69  1  0
 17 70  1  0
 18 71  1  0
 19 72  1  0
 20 73  1  0
 21 74  1  0
 28 75  1  0
 28 76  1  0
 29 77  1  1
 30 78  1  0
 30 79  1  0
 32 80  1  0
 33 81  1  0
 34 82  1  0
 35 83  1  0
 36 84  1  0
 36 85  1  0
 36 86  1  0
 37 87  1  0
 37 88  1  0
 37 89  1  0
 38 90  1  0
 38 91  1  0
 38 92  1  0
 39 93  1  0
 40 94  1  0
 41 95  1  0
 42 96  1  0
 43 97  1  0
 45 98  1  0
 47 99  1  0
 48100  1  0
 50101  1  1
 51102  1  1
M  END
> <Uni-Dock RESULT> 
ENERGY=   -4.691  LOWER_BOUND=    1.658  UPPER_BOUND=    5.767
INTER + INTRA:          -4.691
INTER:                  -4.691
INTRA:                   0.000
UNBOUND:                 0.000

$$$$

     RDKit          3D

102105  0  0  0  0  0  0  0  0999 V2000
   49.4924   10.7559   20.0096 N   0  0  0  0  0  0  0  0  0  0  0  0
   47.0044    8.9616   19.3297 S   0  0  0  0  0  0  0  0  0  0  0  0
   48.8752   10.0834   21.0986 C   0  0  0  0  0  0  0  0  0  0  0  0
   49.3145   10.4095   18.6439 C   0  0  0  0  0  0  0  0  0  0  0  0
   47.7565    9.2469   20.9208 C   0  0  0  0  0  0  0  0  0  0  0  0
   48.2334    9.6126   18.2160 C   0  0  0  0  0  0  0  0  0  0  0  0
   49.9389   12.1518   20.2709 C   0  0  0  0  0  0  0  0  0  0  0  0
   48.8340   13.2391   20.2703 C   0  0  1  0  0  0  0  0  0  0  0  0
   49.3103   14.4771   19.4687 C   0  0  0  0  0  0  0  0  0  0  0  0
   50.5595   15.0811   19.9691 N   0  0  0  0  0  0  0  0  0  0  0  0
   50.2327   10.8311   17.6553 C   0  0  0  0  0  0  0  0  0  0  0  0
   49.3907   10.1907   22.4038 C   0  0  0  0  0  0  0  0  0  0  0  0
   48.0549    9.3261   16.8509 C   0  0  0  0  0  0  0  0  0  0  0  0
   47.1416    8.6263   22.0188 C   0  0  0  0  0  0  0  0  0  0  0  0
   47.4553   12.8327   19.7342 C   0  0  0  0  0  0  0  0  0  0  0  0
   50.3262   15.8506   21.1973 C   0  0  0  0  0  0  0  0  0  0  0  0
   51.1406   15.9534   18.9485 C   0  0  0  0  0  0  0  0  0  0  0  0
   48.7827    9.5660   23.4957 C   0  0  0  0  0  0  0  0  0  0  0  0
   50.0580   10.5260   16.3020 C   0  0  0  0  0  0  0  0  0  0  0  0
   48.9550    9.7949   15.8933 C   0  0  0  0  0  0  0  0  0  0  0  0
   47.6430    8.8064   23.3055 C   0  0  0  0  0  0  0  0  0  0  0  0
   48.9556   13.4230   20.3079 N   0  0  0  0  0  0  0  0  0  0  0  0
   52.0058   12.7886   20.0350 S   0  0  0  0  0  0  0  0  0  0  0  0
   49.5883   13.8822   19.1237 C   0  0  0  0  0  0  0  0  0  0  0  0
   49.6505   13.1433   21.5167 C   0  0  0  0  0  0  0  0  0  0  0  0
   50.9661   13.6834   18.8971 C   0  0  0  0  0  0  0  0  0  0  0  0
   51.0329   12.8860   21.5341 C   0  0  0  0  0  0  0  0  0  0  0  0
   47.6252   12.7841   20.1562 C   0  0  0  0  0  0  0  0  0  0  0  0
   47.6969   11.2364   20.1516 C   0  0  2  0  0  0  0  0  0  0  0  0
   48.2818   10.6969   18.8290 C   0  0  0  0  0  0  0  0  0  0  0  0
   48.3993    9.2264   18.8319 N   0  0  0  0  0  0  0  0  0  0  0  0
   48.9849   13.1654   22.7603 C   0  0  0  0  0  0  0  0  0  0  0  0
   48.8696   14.6190   18.1602 C   0  0  0  0  0  0  0  0  0  0  0  0
   51.7005   12.6223   22.7444 C   0  0  0  0  0  0  0  0  0  0  0  0
   51.5660   14.1501   17.7170 C   0  0  0  0  0  0  0  0  0  0  0  0
   46.2865   10.6765   20.3893 C   0  0  0  0  0  0  0  0  0  0  0  0
   49.6309    8.8021   19.5022 C   0  0  0  0  0  0  0  0  0  0  0  0
   48.3749    8.6989   17.4639 C   0  0  0  0  0  0  0  0  0  0  0  0
   49.4758   15.0951   16.9963 C   0  0  0  0  0  0  0  0  0  0  0  0
   49.6542   12.9098   23.9619 C   0  0  0  0  0  0  0  0  0  0  0  0
   51.0134   12.6312   23.9516 C   0  0  0  0  0  0  0  0  0  0  0  0
   50.8244   14.8533   16.7689 C   0  0  0  0  0  0  0  0  0  0  0  0
   49.7509    9.2426   19.5700 O   0  0  0  0  0  0  0  0  0  0  0  0
   48.5423   10.2546   17.9780 O   0  0  0  0  0  0  0  0  0  0  0  0
   49.6461   14.4690   19.1826 O   0  0  0  0  0  0  0  0  0  0  0  0
   48.5495   14.6121   21.1213 O   0  0  0  0  0  0  0  0  0  0  0  0
   50.4299   11.3894   20.8696 O   0  0  0  0  0  0  0  0  0  0  0  0
   47.7011   11.9915   21.0266 O   0  0  0  0  0  0  0  0  0  0  0  0
   49.2444   10.3486   18.9726 C   0  0  0  0  0  0  0  0  0  0  0  0
   49.7002   11.6288   19.6597 C   0  0  1  0  0  0  0  0  0  0  0  0
   48.4691   12.4984   19.9189 C   0  0  2  0  0  0  0  0  0  0  0  0
   48.8977   13.9351   20.1633 C   0  0  0  0  0  0  0  0  0  0  0  0
   50.7340   12.4291   19.5752 H   0  0  0  0  0  0  0  0  0  0  0  0
   50.4556   12.2329   21.2309 H   0  0  0  0  0  0  0  0  0  0  0  0
   48.6668   13.5449   21.3085 H   0  0  0  0  0  0  0  0  0  0  0  0
   49.4661   14.1410   18.4350 H   0  0  0  0  0  0  0  0  0  0  0  0
   48.5184   15.2362   19.4319 H   0  0  0  0  0  0  0  0  0  0  0  0
   51.1299   11.3803   17.9205 H   0  0  0  0  0  0  0  0  0  0  0  0
   50.3057   10.7369   22.5977 H   0  0  0  0  0  0  0  0  0  0  0  0
   47.2140    8.7299   16.5165 H   0  0  0  0  0  0  0  0  0  0  0  0
   46.2610    8.0100   21.8782 H   0  0  0  0  0  0  0  0  0  0  0  0
   46.7584   13.6779   19.7961 H   0  0  0  0  0  0  0  0  0  0  0  0
   47.5009   12.5324   18.6834 H   0  0  0  0  0  0  0  0  0  0  0  0
   47.0067   12.0246   20.3186 H   0  0  0  0  0  0  0  0  0  0  0  0
   49.9594   15.2072   22.0067 H   0  0  0  0  0  0  0  0  0  0  0  0
   51.2582   16.3001   21.5568 H   0  0  0  0  0  0  0  0  0  0  0  0
   49.6067   16.6576   21.0322 H   0  0  0  0  0  0  0  0  0  0  0  0
   52.0708   16.4102   19.3075 H   0  0  0  0  0  0  0  0  0  0  0  0
   51.4048   15.3665   18.0551 H   0  0  0  0  0  0  0  0  0  0  0  0
   50.4542   16.7519   18.6424 H   0  0  0  0  0  0  0  0  0  0  0  0
   49.2167    9.6790   24.4860 H   0  0  0  0  0  0  0  0  0  0  0  0
   50.7795   10.8806   15.5655 H   0  0  0  0  0  0  0  0  0  0  0  0
   48.8072    9.5625   14.8419 H   0  0  0  0  0  0  0  0  0  0  0  0
   47.1548    8.3263   24.1430 H   0  0  0  0  0  0  0  0  0  0  0  0
   46.9527   13.1354   20.9482 H   0  0  0  0  0  0  0  0  0  0  0  0
   47.1090   13.0911   19.2413 H   0  0  0  0  0  0  0  0  0  0  0  0
   48.3236   10.8973   20.9827 H   0  0  0  0  0  0  0  0  0  0  0  0
   49.2528   11.1510   18.6041 H   0  0  0  0  0  0  0  0  0  0  0  0
   47.6033   11.0042   18.0242 H   0  0  0  0  0  0  0  0  0  0  0  0
   47.9293   13.4250   22.8238 H   0  0  0  0  0  0  0  0  0  0  0  0
   47.8252   14.8674   18.3317 H   0  0  0  0  0  0  0  0  0  0  0  0
   52.7659   12.4165   22.7431 H   0  0  0  0  0  0  0  0  0  0  0  0
   52.6238   13.9679   17.5271 H   0  0  0  0  0  0  0  0  0  0  0  0
   46.3080    9.5862   20.5116 H   0  0  0  0  0  0  0  0  0  0  0  0
   45.8266   11.0977   21.2933 H   0  0  0  0  0  0  0  0  0  0  0  0
   45.6333   10.8931   19.5380 H   0  0  0  0  0  0  0  0  0  0  0  0
   50.5243    9.1130   18.9383 H   0  0  0  0  0  0  0  0  0  0  0  0
   49.7176    9.2134   20.5142 H   0  0  0  0  0  0  0  0  0  0  0  0
   49.6537    7.7072   19.6074 H   0  0  0  0  0  0  0  0  0  0  0  0
   49.1681    9.1166   16.8313 H   0  0  0  0  0  0  0  0  0  0  0  0
   48.4655    7.6061   17.4725 H   0  0  0  0  0  0  0  0  0  0  0  0
   47.4123    8.9210   17.0007 H   0  0  0  0  0  0  0  0  0  0  0  0
   48.8969   15.6645   16.2719 H   0  0  0  0  0  0  0  0  0  0  0  0
   49.1138   12.9498   24.9048 H   0  0  0  0  0  0  0  0  0  0  0  0
   51.5346   12.4413   24.8880 H   0  0  0  0  0  0  0  0  0  0  0  0
   51.2970   15.2191   15.8612 H   0  0  0  0  0  0  0  0  0  0  0  0
   49.3388    8.5057   19.0646 H   0  0  0  0  0  0  0  0  0  0  0  0
   49.8139   15.3860   19.4808 H   0  0  0  0  0  0  0  0  0  0  0  0
   50.5545   10.4181   20.9059 H   0  0  0  0  0  0  0  0  0  0  0  0
   47.4817   12.7624   21.5838 H   0  0  0  0  0  0  0  0  0  0  0  0
   50.4059   12.0988   18.9661 H   0  0  0  0  0  0  0  0  0  0  0  0
   47.7920   12.5116   19.0552 H   0  0  0  0  0  0  0  0  0  0  0  0
 10  9  1  0
 11  4  2  0
 12  3  2  0
 13  6  2  0
 14  5  2  0
 15  8  1  0
 16 10  1  0
 17 10  1  0
 18 12  1  0
 19 11  1  0
 20 19  2  0
 21 18  2  0
  5  2  1  0
 13 20  1  0
 14 21  1  0
  2  6  1  0
  3  1  1  0
  4  1  1  0
  5  3  1  0
  6  4  1  0
  7  1  1  0
  8  7  1  0
  9  8  1  0
 31 30  1  0
 32 25  2  0
 33 24  2  0
 34 27  2  0
 35 26  2  0
 36 29  1  0
 37 31  1  0
 38 31  1  0
 39 33  1  0
 40 32  1  0
 41 40  2  0
 42 39  2  0
 26 23  1  0
 34 41  1  0
 35 42  1  0
 23 27  1  0
 24 22  1  0
 25 22  1  0
 26 24  1  0
 27 25  1  0
 28 22  1  0
 29 28  1  0
 30 29  1  0
 49 44  2  0
 50 47  1  0
 51 48  1  0
 49 43  1  0
 51 52  1  0
 50 51  1  0
 52 45  1  0
 49 50  1  0
 52 46  2  0
  7 53  1  0
  7 54  1  0
  8 55  1  6
  9 56  1  0
  9 57  1  0
 11 58  1  0
 12 59  1  0
 13 60  1  0
 14 61  1  0
 15 62  1  0
 15 63  1  0
 15 64  1  0
 16 65  1  0
 16 66  1  0
 16 67  1  0
 17 68  1  0
 17 69  1  0
 17 70  1  0
 18 71  1  0
 19 72  1  0
 20 73  1  0
 21 74  1  0
 28 75  1  0
 28 76  1  0
 29 77  1  1
 30 78  1  0
 30 79  1  0
 32 80  1  0
 33 81  1  0
 34 82  1  0
 35 83  1  0
 36 84  1  0
 36 85  1  0
 36 86  1  0
 37 87  1  0
 37 88  1  0
 37 89  1  0
 38 90  1  0
 38 91  1  0
 38 92  1  0
 39 93  1  0
 40 94  1  0
 41 95  1  0
 42 96  1  0
 43 97  1  0
 45 98  1  0
 47 99  1  0
 48100  1  0
 50101  1  1
 51102  1  1
M  END
> <Uni-Dock RESULT> 
ENERGY=   -4.628  LOWER_BOUND=    1.900  UPPER_BOUND=    6.195
INTER + INTRA:          -4.628
INTER:                  -4.628
INTRA:                   0.000
UNBOUND:                 0.000

$$$$

     RDKit          3D

102105  0  0  0  0  0  0  0  0999 V2000
   49.7441    8.1434   16.4934 N   0  0  0  0  0  0  0  0  0  0  0  0
   51.4768    8.7008   13.9323 S   0  0  0  0  0  0  0  0  0  0  0  0
   50.6876    9.2023   16.5805 C   0  0  0  0  0  0  0  0  0  0  0  0
   49.2780    7.5780   15.2769 C   0  0  0  0  0  0  0  0  0  0  0  0
   51.5182    9.5518   15.4985 C   0  0  0  0  0  0  0  0  0  0  0  0
   49.9721    7.7556   14.0629 C   0  0  0  0  0  0  0  0  0  0  0  0
   49.6156    7.2807   17.6998 C   0  0  0  0  0  0  0  0  0  0  0  0
   50.7295    6.2236   17.9115 C   0  0  1  0  0  0  0  0  0  0  0  0
   50.1002    4.8636   18.3070 C   0  0  0  0  0  0  0  0  0  0  0  0
   49.2645    4.9112   19.5216 N   0  0  0  0  0  0  0  0  0  0  0  0
   48.0792    6.8305   15.2281 C   0  0  0  0  0  0  0  0  0  0  0  0
   50.7980    9.9816   17.7473 C   0  0  0  0  0  0  0  0  0  0  0  0
   49.5136    7.1434   12.8830 C   0  0  0  0  0  0  0  0  0  0  0  0
   52.4694   10.5755   15.6241 C   0  0  0  0  0  0  0  0  0  0  0  0
   51.6884    5.9760   16.7400 C   0  0  0  0  0  0  0  0  0  0  0  0
   50.0884    4.9877   20.7342 C   0  0  0  0  0  0  0  0  0  0  0  0
   48.4055    3.7287   19.5879 C   0  0  0  0  0  0  0  0  0  0  0  0
   51.7399   11.0063   17.8691 C   0  0  0  0  0  0  0  0  0  0  0  0
   47.6203    6.2405   14.0464 C   0  0  0  0  0  0  0  0  0  0  0  0
   48.3497    6.3737   12.8767 C   0  0  0  0  0  0  0  0  0  0  0  0
   52.5927   11.2841   16.8167 C   0  0  0  0  0  0  0  0  0  0  0  0
   50.6577    6.1233   18.0980 N   0  0  0  0  0  0  0  0  0  0  0  0
   47.7350    7.0170   18.7616 S   0  0  0  0  0  0  0  0  0  0  0  0
   49.6350    5.1787   17.8227 C   0  0  0  0  0  0  0  0  0  0  0  0
   50.5217    7.1828   19.0367 C   0  0  0  0  0  0  0  0  0  0  0  0
   48.2806    5.4525   18.1050 C   0  0  0  0  0  0  0  0  0  0  0  0
   49.2611    7.6474   19.4523 C   0  0  0  0  0  0  0  0  0  0  0  0
   51.7117    6.2940   17.0680 C   0  0  0  0  0  0  0  0  0  0  0  0
   51.4687    7.5220   16.1550 C   0  0  2  0  0  0  0  0  0  0  0  0
   50.3156    7.2729   15.1597 C   0  0  0  0  0  0  0  0  0  0  0  0
   50.0436    8.4529   14.3172 N   0  0  0  0  0  0  0  0  0  0  0  0
   51.6542    7.7777   19.6315 C   0  0  0  0  0  0  0  0  0  0  0  0
   49.9497    3.8999   17.3195 C   0  0  0  0  0  0  0  0  0  0  0  0
   49.1521    8.6903   20.3906 C   0  0  0  0  0  0  0  0  0  0  0  0
   47.2901    4.4986   17.8237 C   0  0  0  0  0  0  0  0  0  0  0  0
   52.7705    7.8457   15.4069 C   0  0  0  0  0  0  0  0  0  0  0  0
   49.1792    9.4065   15.0171 C   0  0  0  0  0  0  0  0  0  0  0  0
   49.4183    8.0567   13.0514 C   0  0  0  0  0  0  0  0  0  0  0  0
   48.9616    2.9493   17.0575 C   0  0  0  0  0  0  0  0  0  0  0  0
   51.5409    8.8094   20.5694 C   0  0  0  0  0  0  0  0  0  0  0  0
   50.2868    9.2701   20.9437 C   0  0  0  0  0  0  0  0  0  0  0  0
   47.6280    3.2511   17.3013 C   0  0  0  0  0  0  0  0  0  0  0  0
   49.1511    9.1218   15.3793 O   0  0  0  0  0  0  0  0  0  0  0  0
   49.6665    7.1664   14.4146 O   0  0  0  0  0  0  0  0  0  0  0  0
   49.6755    4.7624   18.2424 O   0  0  0  0  0  0  0  0  0  0  0  0
   51.5063    5.5935   19.2115 O   0  0  0  0  0  0  0  0  0  0  0  0
   49.3454    8.3230   17.8456 O   0  0  0  0  0  0  0  0  0  0  0  0
   51.9266    7.4448   17.2134 O   0  0  0  0  0  0  0  0  0  0  0  0
   49.4749    7.8070   15.4364 C   0  0  0  0  0  0  0  0  0  0  0  0
   49.5075    7.2881   16.8677 C   0  0  1  0  0  0  0  0  0  0  0  0
   50.8210    6.5326   17.0741 C   0  0  2  0  0  0  0  0  0  0  0  0
   50.7059    5.6245   18.2864 C   0  0  0  0  0  0  0  0  0  0  0  0
   48.6363    6.7970   17.7139 H   0  0  0  0  0  0  0  0  0  0  0  0
   49.5738    7.8771   18.6149 H   0  0  0  0  0  0  0  0  0  0  0  0
   51.3596    6.5649   18.7396 H   0  0  0  0  0  0  0  0  0  0  0  0
   49.4786    4.5467   17.4590 H   0  0  0  0  0  0  0  0  0  0  0  0
   50.8805    4.1004   18.4217 H   0  0  0  0  0  0  0  0  0  0  0  0
   47.4519    6.7183   16.1060 H   0  0  0  0  0  0  0  0  0  0  0  0
   50.1237    9.8329   18.5817 H   0  0  0  0  0  0  0  0  0  0  0  0
   50.0556    7.2620   11.9520 H   0  0  0  0  0  0  0  0  0  0  0  0
   53.1278   10.8171   14.7975 H   0  0  0  0  0  0  0  0  0  0  0  0
   52.4359    5.2205   17.0129 H   0  0  0  0  0  0  0  0  0  0  0  0
   51.1624    5.6008   15.8574 H   0  0  0  0  0  0  0  0  0  0  0  0
   52.2488    6.8747   16.4680 H   0  0  0  0  0  0  0  0  0  0  0  0
   50.6908    5.9043   20.7491 H   0  0  0  0  0  0  0  0  0  0  0  0
   49.4588    5.0159   21.6302 H   0  0  0  0  0  0  0  0  0  0  0  0
   50.7544    4.1243   20.8194 H   0  0  0  0  0  0  0  0  0  0  0  0
   47.7782    3.7505   20.4872 H   0  0  0  0  0  0  0  0  0  0  0  0
   47.7184    3.7117   18.7275 H   0  0  0  0  0  0  0  0  0  0  0  0
   48.9804    2.7950   19.5849 H   0  0  0  0  0  0  0  0  0  0  0  0
   51.7888   11.5806   18.7908 H   0  0  0  0  0  0  0  0  0  0  0  0
   46.6983    5.6586   14.0498 H   0  0  0  0  0  0  0  0  0  0  0  0
   48.0045    5.9095   11.9566 H   0  0  0  0  0  0  0  0  0  0  0  0
   53.3348   12.0669   16.9007 H   0  0  0  0  0  0  0  0  0  0  0  0
   52.6942    6.3622   17.5507 H   0  0  0  0  0  0  0  0  0  0  0  0
   51.8167    5.4189   16.4193 H   0  0  0  0  0  0  0  0  0  0  0  0
   51.2251    8.3931   16.7716 H   0  0  0  0  0  0  0  0  0  0  0  0
   49.4009    6.9599   15.6745 H   0  0  0  0  0  0  0  0  0  0  0  0
   50.6133    6.4329   14.5208 H   0  0  0  0  0  0  0  0  0  0  0  0
   52.6569    7.4186   19.4050 H   0  0  0  0  0  0  0  0  0  0  0  0
   50.9875    3.6154   17.1646 H   0  0  0  0  0  0  0  0  0  0  0  0
   48.1734    9.0455   20.6963 H   0  0  0  0  0  0  0  0  0  0  0  0
   46.2400    4.7227   18.0115 H   0  0  0  0  0  0  0  0  0  0  0  0
   52.6793    8.7796   14.8378 H   0  0  0  0  0  0  0  0  0  0  0  0
   53.6186    7.9638   16.0947 H   0  0  0  0  0  0  0  0  0  0  0  0
   53.0153    7.0542   14.6914 H   0  0  0  0  0  0  0  0  0  0  0  0
   48.1722    8.9920   15.1816 H   0  0  0  0  0  0  0  0  0  0  0  0
   49.5827    9.6955   15.9940 H   0  0  0  0  0  0  0  0  0  0  0  0
   49.0789   10.3341   14.4340 H   0  0  0  0  0  0  0  0  0  0  0  0
   48.4839    7.4994   13.1932 H   0  0  0  0  0  0  0  0  0  0  0  0
   49.2160    8.9380   12.4310 H   0  0  0  0  0  0  0  0  0  0  0  0
   50.1074    7.4334   12.4795 H   0  0  0  0  0  0  0  0  0  0  0  0
   49.2345    1.9687   16.6730 H   0  0  0  0  0  0  0  0  0  0  0  0
   52.4342    9.2356   21.0199 H   0  0  0  0  0  0  0  0  0  0  0  0
   50.1998   10.0668   21.6802 H   0  0  0  0  0  0  0  0  0  0  0  0
   46.8568    2.5140   17.0936 H   0  0  0  0  0  0  0  0  0  0  0  0
   49.2194    9.3283   14.4196 H   0  0  0  0  0  0  0  0  0  0  0  0
   49.7578    4.2475   19.0706 H   0  0  0  0  0  0  0  0  0  0  0  0
   49.1385    9.1312   17.3317 H   0  0  0  0  0  0  0  0  0  0  0  0
   52.4503    7.1270   17.9734 H   0  0  0  0  0  0  0  0  0  0  0  0
   48.6312    6.6378   16.9640 H   0  0  0  0  0  0  0  0  0  0  0  0
   51.0588    5.8894   16.2170 H   0  0  0  0  0  0  0  0  0  0  0  0
 10  9  1  0
 11  4  2  0
 12  3  2  0
 13  6  2  0
 14  5  2  0
 15  8  1  0
 16 10  1  0
 17 10  1  0
 18 12  1  0
 19 11  1  0
 20 19  2  0
 21 18  2  0
  5  2  1  0
 13 20  1  0
 14 21  1  0
  2  6  1  0
  3  1  1  0
  4  1  1  0
  5  3  1  0
  6  4  1  0
  7  1  1  0
  8  7  1  0
  9  8  1  0
 31 30  1  0
 32 25  2  0
 33 24  2  0
 34 27  2  0
 35 26  2  0
 36 29  1  0
 37 31  1  0
 38 31  1  0
 39 33  1  0
 40 32  1  0
 41 40  2  0
 42 39  2  0
 26 23  1  0
 34 41  1  0
 35 42  1  0
 23 27  1  0
 24 22  1  0
 25 22  1  0
 26 24  1  0
 27 25  1  0
 28 22  1  0
 29 28  1  0
 30 29  1  0
 49 44  2  0
 50 47  1  0
 51 48  1  0
 49 43  1  0
 51 52  1  0
 50 51  1  0
 52 45  1  0
 49 50  1  0
 52 46  2  0
  7 53  1  0
  7 54  1  0
  8 55  1  6
  9 56  1  0
  9 57  1  0
 11 58  1  0
 12 59  1  0
 13 60  1  0
 14 61  1  0
 15 62  1  0
 15 63  1  0
 15 64  1  0
 16 65  1  0
 16 66  1  0
 16 67  1  0
 17 68  1  0
 17 69  1  0
 17 70  1  0
 18 71  1  0
 19 72  1  0
 20 73  1  0
 21 74  1  0
 28 75  1  0
 28 76  1  0
 29 77  1  1
 30 78  1  0
 30 79  1  0
 32 80  1  0
 33 81  1  0
 34 82  1  0
 35 83  1  0
 36 84  1  0
 36 85  1  0
 36 86  1  0
 37 87  1  0
 37 88  1  0
 37 89  1  0
 38 90  1  0
 38 91  1  0
 38 92  1  0
 39 93  1  0
 40 94  1  0
 41 95  1  0
 42 96  1  0
 43 97  1  0
 45 98  1  0
 47 99  1  0
 48100  1  0
 50101  1  1
 51102  1  1
M  END
> <Uni-Dock RESULT> 
ENERGY=   -4.591  LOWER_BOUND=    3.065  UPPER_BOUND=    6.176
INTER + INTRA:          -4.591
INTER:                  -4.591
INTRA:                   0.000
UNBOUND:                 0.000

$$$$

     RDKit          3D

102105  0  0  0  0  0  0  0  0999 V2000
   48.0818    9.1866   20.2495 N   0  0  0  0  0  0  0  0  0  0  0  0
   48.0857   11.3797   22.4994 S   0  0  0  0  0  0  0  0  0  0  0  0
   47.8811    8.7336   21.5812 C   0  0  0  0  0  0  0  0  0  0  0  0
   47.9229   10.5322   19.8239 C   0  0  0  0  0  0  0  0  0  0  0  0
   47.8570    9.6203   22.6748 C   0  0  0  0  0  0  0  0  0  0  0  0
   47.9124   11.6032   20.7403 C   0  0  0  0  0  0  0  0  0  0  0  0
   48.9513    8.3347   19.3925 C   0  0  0  0  0  0  0  0  0  0  0  0
   50.4788    8.4560   19.6266 C   0  0  1  0  0  0  0  0  0  0  0  0
   51.2171    8.5449   18.2667 C   0  0  0  0  0  0  0  0  0  0  0  0
   50.9718    7.4026   17.3663 N   0  0  0  0  0  0  0  0  0  0  0  0
   47.7429   10.8527   18.4589 C   0  0  0  0  0  0  0  0  0  0  0  0
   47.6497    7.3731   21.8577 C   0  0  0  0  0  0  0  0  0  0  0  0
   47.8025   12.9294   20.2861 C   0  0  0  0  0  0  0  0  0  0  0  0
   47.6969    9.1422   23.9842 C   0  0  0  0  0  0  0  0  0  0  0  0
   50.9605    9.6205   20.5013 C   0  0  0  0  0  0  0  0  0  0  0  0
   51.7161    6.2131   17.7977 C   0  0  0  0  0  0  0  0  0  0  0  0
   51.3550    7.7495   15.9977 C   0  0  0  0  0  0  0  0  0  0  0  0
   47.4824    6.8985   23.1611 C   0  0  0  0  0  0  0  0  0  0  0  0
   47.6155   12.1733   18.0175 C   0  0  0  0  0  0  0  0  0  0  0  0
   47.6710   13.2163   18.9268 C   0  0  0  0  0  0  0  0  0  0  0  0
   47.5331    7.7803   24.2250 C   0  0  0  0  0  0  0  0  0  0  0  0
   50.5567    8.3146   19.4717 N   0  0  0  0  0  0  0  0  0  0  0  0
   48.2655    7.4638   17.5204 S   0  0  0  0  0  0  0  0  0  0  0  0
   50.5765    8.9096   18.1836 C   0  0  0  0  0  0  0  0  0  0  0  0
   49.9077    7.0831   19.7625 C   0  0  0  0  0  0  0  0  0  0  0  0
   49.6143    8.5853   17.2048 C   0  0  0  0  0  0  0  0  0  0  0  0
   48.8919    6.5680   18.9376 C   0  0  0  0  0  0  0  0  0  0  0  0
   50.8163    9.2056   20.6291 C   0  0  0  0  0  0  0  0  0  0  0  0
   49.5177    9.6694   21.3358 C   0  0  2  0  0  0  0  0  0  0  0  0
   48.7563   10.7184   20.4978 C   0  0  0  0  0  0  0  0  0  0  0  0
   47.4937   11.1320   21.1386 N   0  0  0  0  0  0  0  0  0  0  0  0
   50.2971    6.2989   20.8687 C   0  0  0  0  0  0  0  0  0  0  0  0
   51.6072    9.7978   17.8143 C   0  0  0  0  0  0  0  0  0  0  0  0
   48.2718    5.3417   19.2404 C   0  0  0  0  0  0  0  0  0  0  0  0
   49.6593    9.1883   15.9381 C   0  0  0  0  0  0  0  0  0  0  0  0
   49.8828   10.2381   22.7151 C   0  0  0  0  0  0  0  0  0  0  0  0
   46.4214   10.1783   20.8441 C   0  0  0  0  0  0  0  0  0  0  0  0
   47.0981   12.4723   20.6941 C   0  0  0  0  0  0  0  0  0  0  0  0
   51.6560   10.3815   16.5472 C   0  0  0  0  0  0  0  0  0  0  0  0
   49.6828    5.0768   21.1617 C   0  0  0  0  0  0  0  0  0  0  0  0
   48.6636    4.6018   20.3488 C   0  0  0  0  0  0  0  0  0  0  0  0
   50.6758   10.0838   15.6093 C   0  0  0  0  0  0  0  0  0  0  0  0
   46.7081    9.9307   20.5805 O   0  0  0  0  0  0  0  0  0  0  0  0
   48.2567   11.4723   20.0857 O   0  0  0  0  0  0  0  0  0  0  0  0
   51.0185    8.6494   17.8868 O   0  0  0  0  0  0  0  0  0  0  0  0
   51.7482    7.4175   19.5990 O   0  0  0  0  0  0  0  0  0  0  0  0
   48.0375    7.8605   19.7405 O   0  0  0  0  0  0  0  0  0  0  0  0
   50.1165    8.6847   21.4233 O   0  0  0  0  0  0  0  0  0  0  0  0
   47.9099   10.3015   20.0755 C   0  0  0  0  0  0  0  0  0  0  0  0
   48.6742    9.1203   19.4930 C   0  0  1  0  0  0  0  0  0  0  0  0
   50.0950    9.1427   20.0581 C   0  0  2  0  0  0  0  0  0  0  0  0
   51.0083    8.2997   19.1847 C   0  0  0  0  0  0  0  0  0  0  0  0
   48.7220    8.5037   18.3380 H   0  0  0  0  0  0  0  0  0  0  0  0
   48.7026    7.2755   19.4992 H   0  0  0  0  0  0  0  0  0  0  0  0
   50.8106    7.5469   20.1393 H   0  0  0  0  0  0  0  0  0  0  0  0
   50.8673    9.4645   17.7791 H   0  0  0  0  0  0  0  0  0  0  0  0
   52.2960    8.6692   18.4252 H   0  0  0  0  0  0  0  0  0  0  0  0
   47.6618   10.0758   17.7062 H   0  0  0  0  0  0  0  0  0  0  0  0
   47.5567    6.6503   21.0564 H   0  0  0  0  0  0  0  0  0  0  0  0
   47.8135   13.7564   20.9865 H   0  0  0  0  0  0  0  0  0  0  0  0
   47.7122    9.8274   24.8240 H   0  0  0  0  0  0  0  0  0  0  0  0
   52.0527    9.5936   20.6034 H   0  0  0  0  0  0  0  0  0  0  0  0
   50.7044   10.5897   20.0636 H   0  0  0  0  0  0  0  0  0  0  0  0
   50.5582    9.5683   21.5166 H   0  0  0  0  0  0  0  0  0  0  0  0
   51.3967    5.8831   18.7940 H   0  0  0  0  0  0  0  0  0  0  0  0
   51.5324    5.3730   17.1192 H   0  0  0  0  0  0  0  0  0  0  0  0
   52.7935    6.4007   17.8149 H   0  0  0  0  0  0  0  0  0  0  0  0
   51.1783    6.9083   15.3166 H   0  0  0  0  0  0  0  0  0  0  0  0
   50.7364    8.5837   15.6316 H   0  0  0  0  0  0  0  0  0  0  0  0
   52.4081    8.0458   15.9218 H   0  0  0  0  0  0  0  0  0  0  0  0
   47.3074    5.8383   23.3256 H   0  0  0  0  0  0  0  0  0  0  0  0
   47.4924   12.3835   16.9548 H   0  0  0  0  0  0  0  0  0  0  0  0
   47.5828   14.2459   18.5899 H   0  0  0  0  0  0  0  0  0  0  0  0
   47.4167    7.4258   25.2404 H   0  0  0  0  0  0  0  0  0  0  0  0
   51.4832    8.7042   21.3409 H   0  0  0  0  0  0  0  0  0  0  0  0
   51.3791   10.1035   20.3556 H   0  0  0  0  0  0  0  0  0  0  0  0
   48.8654    8.8065   21.5043 H   0  0  0  0  0  0  0  0  0  0  0  0
   48.5616   10.3573   19.4823 H   0  0  0  0  0  0  0  0  0  0  0  0
   49.4126   11.5908   20.3947 H   0  0  0  0  0  0  0  0  0  0  0  0
   51.1230    6.6070   21.5080 H   0  0  0  0  0  0  0  0  0  0  0  0
   52.4160   10.0129   18.5083 H   0  0  0  0  0  0  0  0  0  0  0  0
   47.4831    4.9596   18.6005 H   0  0  0  0  0  0  0  0  0  0  0  0
   48.8966    8.9623   15.1927 H   0  0  0  0  0  0  0  0  0  0  0  0
   48.9832   10.4703   23.2992 H   0  0  0  0  0  0  0  0  0  0  0  0
   50.4808    9.5298   23.3039 H   0  0  0  0  0  0  0  0  0  0  0  0
   50.4514   11.1681   22.6144 H   0  0  0  0  0  0  0  0  0  0  0  0
   46.1602   10.1833   19.7743 H   0  0  0  0  0  0  0  0  0  0  0  0
   46.6910    9.1513   21.1150 H   0  0  0  0  0  0  0  0  0  0  0  0
   45.5176   10.4259   21.4205 H   0  0  0  0  0  0  0  0  0  0  0  0
   46.9831   12.5440   19.6053 H   0  0  0  0  0  0  0  0  0  0  0  0
   46.1578   12.7729   21.1714 H   0  0  0  0  0  0  0  0  0  0  0  0
   47.8464   13.2008   21.0099 H   0  0  0  0  0  0  0  0  0  0  0  0
   52.4659   11.0605   16.2887 H   0  0  0  0  0  0  0  0  0  0  0  0
   50.0177    4.4900   22.0139 H   0  0  0  0  0  0  0  0  0  0  0  0
   48.1925    3.6465   20.5728 H   0  0  0  0  0  0  0  0  0  0  0  0
   50.7094   10.5407   14.6238 H   0  0  0  0  0  0  0  0  0  0  0  0
   46.3571   10.7670   20.9619 H   0  0  0  0  0  0  0  0  0  0  0  0
   51.6611    8.0349   17.4777 H   0  0  0  0  0  0  0  0  0  0  0  0
   47.1757    8.0847   20.1492 H   0  0  0  0  0  0  0  0  0  0  0  0
   50.8629    8.0593   21.4911 H   0  0  0  0  0  0  0  0  0  0  0  0
   48.6534    9.2642   18.4071 H   0  0  0  0  0  0  0  0  0  0  0  0
   50.5126   10.1577   20.0673 H   0  0  0  0  0  0  0  0  0  0  0  0
 10  9  1  0
 11  4  2  0
 12  3  2  0
 13  6  2  0
 14  5  2  0
 15  8  1  0
 16 10  1  0
 17 10  1  0
 18 12  1  0
 19 11  1  0
 20 19  2  0
 21 18  2  0
  5  2  1  0
 13 20  1  0
 14 21  1  0
  2  6  1  0
  3  1  1  0
  4  1  1  0
  5  3  1  0
  6  4  1  0
  7  1  1  0
  8  7  1  0
  9  8  1  0
 31 30  1  0
 32 25  2  0
 33 24  2  0
 34 27  2  0
 35 26  2  0
 36 29  1  0
 37 31  1  0
 38 31  1  0
 39 33  1  0
 40 32  1  0
 41 40  2  0
 42 39  2  0
 26 23  1  0
 34 41  1  0
 35 42  1  0
 23 27  1  0
 24 22  1  0
 25 22  1  0
 26 24  1  0
 27 25  1  0
 28 22  1  0
 29 28  1  0
 30 29  1  0
 49 44  2  0
 50 47  1  0
 51 48  1  0
 49 43  1  0
 51 52  1  0
 50 51  1  0
 52 45  1  0
 49 50  1  0
 52 46  2  0
  7 53  1  0
  7 54  1  0
  8 55  1  6
  9 56  1  0
  9 57  1  0
 11 58  1  0
 12 59  1  0
 13 60  1  0
 14 61  1  0
 15 62  1  0
 15 63  1  0
 15 64  1  0
 16 65  1  0
 16 66  1  0
 16 67  1  0
 17 68  1  0
 17 69  1  0
 17 70  1  0
 18 71  1  0
 19 72  1  0
 20 73  1  0
 21 74  1  0
 28 75  1  0
 28 76  1  0
 29 77  1  1
 30 78  1  0
 30 79  1  0
 32 80  1  0
 33 81  1  0
 34 82  1  0
 35 83  1  0
 36 84  1  0
 36 85  1  0
 36 86  1  0
 37 87  1  0
 37 88  1  0
 37 89  1  0
 38 90  1  0
 38 91  1  0
 38 92  1  0
 39 93  1  0
 40 94  1  0
 41 95  1  0
 42 96  1  0
 43 97  1  0
 45 98  1  0
 47 99  1  0
 48100  1  0
 50101  1  1
 51102  1  1
M  END
> <Uni-Dock RESULT> 
ENERGY=   -4.588  LOWER_BOUND=    1.666  UPPER_BOUND=    4.605
INTER + INTRA:          -4.588
INTER:                  -4.588
INTRA:                   0.000
UNBOUND:                 0.000

$$$$
