
     RDKit          3D

102105  0  0  0  0  0  0  0  0999 V2000
   50.1937    5.2954   19.7649 N   0  0  0  0  0  0  0  0  0  0  0  0
   47.5306    6.9064   19.1574 S   0  0  0  0  0  0  0  0  0  0  0  0
   49.2153    4.6562   18.9425 C   0  0  0  0  0  0  0  0  0  0  0  0
   50.0677    6.6028   20.3386 C   0  0  0  0  0  0  0  0  0  0  0  0
   47.9927    5.2814   18.6181 C   0  0  0  0  0  0  0  0  0  0  0  0
   48.9285    7.4044   20.1255 C   0  0  0  0  0  0  0  0  0  0  0  0
   51.3905    4.5100   20.1637 C   0  0  0  0  0  0  0  0  0  0  0  0
   52.6641    4.8821   19.3592 C   0  0  1  0  0  0  0  0  0  0  0  0
   53.8900    4.2755   20.0859 C   0  0  0  0  0  0  0  0  0  0  0  0
   55.1936    4.5461   19.4554 N   0  0  0  0  0  0  0  0  0  0  0  0
   51.0748    7.1792   21.1518 C   0  0  0  0  0  0  0  0  0  0  0  0
   49.4014    3.3678   18.3875 C   0  0  0  0  0  0  0  0  0  0  0  0
   48.8212    8.6916   20.6946 C   0  0  0  0  0  0  0  0  0  0  0  0
   47.0269    4.6374   17.8141 C   0  0  0  0  0  0  0  0  0  0  0  0
   52.5988    4.4148   17.9021 C   0  0  0  0  0  0  0  0  0  0  0  0
   55.5441    5.9679   19.4897 C   0  0  0  0  0  0  0  0  0  0  0  0
   56.2427    3.7613   20.1115 C   0  0  0  0  0  0  0  0  0  0  0  0
   48.4418    2.7322   17.5864 C   0  0  0  0  0  0  0  0  0  0  0  0
   50.9647    8.4574   21.7151 C   0  0  0  0  0  0  0  0  0  0  0  0
   49.8336    9.2178   21.4857 C   0  0  0  0  0  0  0  0  0  0  0  0
   47.2480    3.3667   17.3008 C   0  0  0  0  0  0  0  0  0  0  0  0
   52.5224    5.9319   19.2756 N   0  0  0  0  0  0  0  0  0  0  0  0
   54.1543    3.3346   19.8614 S   0  0  0  0  0  0  0  0  0  0  0  0
   52.5410    5.4974   20.6268 C   0  0  0  0  0  0  0  0  0  0  0  0
   53.5311    5.6000   18.3305 C   0  0  0  0  0  0  0  0  0  0  0  0
   53.2708    4.3579   21.0242 C   0  0  0  0  0  0  0  0  0  0  0  0
   54.3493    4.4635   18.4957 C   0  0  0  0  0  0  0  0  0  0  0  0
   51.2468    6.4905   18.7516 C   0  0  0  0  0  0  0  0  0  0  0  0
   50.1775    5.4474   18.3371 C   0  0  2  0  0  0  0  0  0  0  0  0
   49.4171    4.8055   19.5169 C   0  0  0  0  0  0  0  0  0  0  0  0
   48.7179    5.7661   20.3948 N   0  0  0  0  0  0  0  0  0  0  0  0
   53.7981    6.4230   17.2175 C   0  0  0  0  0  0  0  0  0  0  0  0
   51.8876    6.2216   21.6432 C   0  0  0  0  0  0  0  0  0  0  0  0
   55.3420    4.1474   17.5519 C   0  0  0  0  0  0  0  0  0  0  0  0
   53.3004    3.9530   22.3702 C   0  0  0  0  0  0  0  0  0  0  0  0
   50.7128    4.3518   17.4106 C   0  0  0  0  0  0  0  0  0  0  0  0
   48.2517    5.0747   21.6019 C   0  0  0  0  0  0  0  0  0  0  0  0
   47.5784    6.3994   19.7265 C   0  0  0  0  0  0  0  0  0  0  0  0
   51.9250    5.8189   22.9832 C   0  0  0  0  0  0  0  0  0  0  0  0
   54.7918    6.1080   16.2837 C   0  0  0  0  0  0  0  0  0  0  0  0
   55.5598    4.9644   16.4467 C   0  0  0  0  0  0  0  0  0  0  0  0
   52.6279    4.6805   23.3473 C   0  0  0  0  0  0  0  0  0  0  0  0
   50.0719    6.8083   21.1531 O   0  0  0  0  0  0  0  0  0  0  0  0
   49.1857    4.8981   20.4175 O   0  0  0  0  0  0  0  0  0  0  0  0
   52.9145    5.1309   21.0738 O   0  0  0  0  0  0  0  0  0  0  0  0
   54.2036    4.5278   19.3528 O   0  0  0  0  0  0  0  0  0  0  0  0
   50.2616    6.2018   17.8868 O   0  0  0  0  0  0  0  0  0  0  0  0
   52.0734    4.4028   17.6073 O   0  0  0  0  0  0  0  0  0  0  0  0
   49.9927    5.8017   20.2567 C   0  0  0  0  0  0  0  0  0  0  0  0
   50.9772    5.9509   19.1069 C   0  0  1  0  0  0  0  0  0  0  0  0
   51.7934    4.6552   19.0008 C   0  0  2  0  0  0  0  0  0  0  0  0
   53.0896    4.7790   19.7884 C   0  0  0  0  0  0  0  0  0  0  0  0
   51.5672    4.6480   21.2389 H   0  0  0  0  0  0  0  0  0  0  0  0
   51.2287    3.4281   20.1259 H   0  0  0  0  0  0  0  0  0  0  0  0
   52.7677    5.9718   19.3402 H   0  0  0  0  0  0  0  0  0  0  0  0
   53.7415    3.1876   20.1223 H   0  0  0  0  0  0  0  0  0  0  0  0
   53.9049    4.6206   21.1279 H   0  0  0  0  0  0  0  0  0  0  0  0
   51.9983    6.6582   21.3780 H   0  0  0  0  0  0  0  0  0  0  0  0
   50.3126    2.8013   18.5362 H   0  0  0  0  0  0  0  0  0  0  0  0
   47.9324    9.2952   20.5200 H   0  0  0  0  0  0  0  0  0  0  0  0
   46.0883    5.1363   17.5791 H   0  0  0  0  0  0  0  0  0  0  0  0
   53.4936    4.7184   17.3489 H   0  0  0  0  0  0  0  0  0  0  0  0
   51.7440    4.8581   17.3829 H   0  0  0  0  0  0  0  0  0  0  0  0
   52.5218    3.3245   17.8360 H   0  0  0  0  0  0  0  0  0  0  0  0
   54.8516    6.5629   18.8858 H   0  0  0  0  0  0  0  0  0  0  0  0
   55.5512    6.3675   20.5106 H   0  0  0  0  0  0  0  0  0  0  0  0
   56.5365    6.1296   19.0523 H   0  0  0  0  0  0  0  0  0  0  0  0
   56.0235    2.6899   20.0431 H   0  0  0  0  0  0  0  0  0  0  0  0
   56.3533    4.0243   21.1698 H   0  0  0  0  0  0  0  0  0  0  0  0
   57.2074    3.9133   19.6145 H   0  0  0  0  0  0  0  0  0  0  0  0
   48.6425    1.7420   17.1843 H   0  0  0  0  0  0  0  0  0  0  0  0
   51.7716    8.8508   22.3279 H   0  0  0  0  0  0  0  0  0  0  0  0
   49.7361   10.2102   21.9153 H   0  0  0  0  0  0  0  0  0  0  0  0
   46.4974    2.8848   16.6809 H   0  0  0  0  0  0  0  0  0  0  0  0
   51.4308    7.1085   17.8671 H   0  0  0  0  0  0  0  0  0  0  0  0
   50.8106    7.2140   19.4477 H   0  0  0  0  0  0  0  0  0  0  0  0
   49.4421    5.9972   17.7349 H   0  0  0  0  0  0  0  0  0  0  0  0
   50.1330    4.2216   20.1084 H   0  0  0  0  0  0  0  0  0  0  0  0
   48.6934    4.0760   19.1262 H   0  0  0  0  0  0  0  0  0  0  0  0
   53.2633    7.3559   17.0718 H   0  0  0  0  0  0  0  0  0  0  0  0
   51.3470    7.1353   21.4180 H   0  0  0  0  0  0  0  0  0  0  0  0
   55.9557    3.2581   17.6792 H   0  0  0  0  0  0  0  0  0  0  0  0
   53.8543    3.0642   22.6638 H   0  0  0  0  0  0  0  0  0  0  0  0
   51.3812    3.6646   17.9361 H   0  0  0  0  0  0  0  0  0  0  0  0
   49.8857    3.7555   17.0089 H   0  0  0  0  0  0  0  0  0  0  0  0
   51.2448    4.7822   16.5569 H   0  0  0  0  0  0  0  0  0  0  0  0
   47.7837    5.7830   22.2944 H   0  0  0  0  0  0  0  0  0  0  0  0
   49.0915    4.6236   22.1415 H   0  0  0  0  0  0  0  0  0  0  0  0
   47.5271    4.2848   21.3721 H   0  0  0  0  0  0  0  0  0  0  0  0
   47.9048    7.0240   18.8897 H   0  0  0  0  0  0  0  0  0  0  0  0
   46.8545    5.6656   19.3532 H   0  0  0  0  0  0  0  0  0  0  0  0
   47.0561    7.0738   20.4156 H   0  0  0  0  0  0  0  0  0  0  0  0
   51.4069    6.4067   23.7367 H   0  0  0  0  0  0  0  0  0  0  0  0
   54.9701    6.7673   15.4384 H   0  0  0  0  0  0  0  0  0  0  0  0
   56.3344    4.7143   15.7273 H   0  0  0  0  0  0  0  0  0  0  0  0
   52.6619    4.3640   24.3860 H   0  0  0  0  0  0  0  0  0  0  0  0
   49.3598    6.6074   21.7959 H   0  0  0  0  0  0  0  0  0  0  0  0
   53.8175    5.1432   21.4595 H   0  0  0  0  0  0  0  0  0  0  0  0
   50.5525    5.4998   17.2658 H   0  0  0  0  0  0  0  0  0  0  0  0
   52.9142    3.9026   17.5803 H   0  0  0  0  0  0  0  0  0  0  0  0
   51.6225    6.8191   19.2808 H   0  0  0  0  0  0  0  0  0  0  0  0
   51.2580    3.7750   19.3719 H   0  0  0  0  0  0  0  0  0  0  0  0
 10  9  1  0
 11  4  2  0
 12  3  2  0
 13  6  2  0
 14  5  2  0
 15  8  1  0
 16 10  1  0
 17 10  1  0
 18 12  1  0
 19 11  1  0
 20 19  2  0
 21 18  2  0
  5  2  1  0
 13 20  1  0
 14 21  1  0
  2  6  1  0
  3  1  1  0
  4  1  1  0
  5  3  1  0
  6  4  1  0
  7  1  1  0
  8  7  1  0
  9  8  1  0
 31 30  1  0
 32 25  2  0
 33 24  2  0
 34 27  2  0
 35 26  2  0
 36 29  1  0
 37 31  1  0
 38 31  1  0
 39 33  1  0
 40 32  1  0
 41 40  2  0
 42 39  2  0
 26 23  1  0
 34 41  1  0
 35 42  1  0
 23 27  1  0
 24 22  1  0
 25 22  1  0
 26 24  1  0
 27 25  1  0
 28 22  1  0
 29 28  1  0
 30 29  1  0
 49 44  2  0
 50 47  1  0
 51 48  1  0
 49 43  1  0
 51 52  1  0
 50 51  1  0
 52 45  1  0
 49 50  1  0
 52 46  2  0
  7 53  1  0
  7 54  1  0
  8 55  1  1
  9 56  1  0
  9 57  1  0
 11 58  1  0
 12 59  1  0
 13 60  1  0
 14 61  1  0
 15 62  1  0
 15 63  1  0
 15 64  1  0
 16 65  1  0
 16 66  1  0
 16 67  1  0
 17 68  1  0
 17 69  1  0
 17 70  1  0
 18 71  1  0
 19 72  1  0
 20 73  1  0
 21 74  1  0
 28 75  1  0
 28 76  1  0
 29 77  1  1
 30 78  1  0
 30 79  1  0
 32 80  1  0
 33 81  1  0
 34 82  1  0
 35 83  1  0
 36 84  1  0
 36 85  1  0
 36 86  1  0
 37 87  1  0
 37 88  1  0
 37 89  1  0
 38 90  1  0
 38 91  1  0
 38 92  1  0
 39 93  1  0
 40 94  1  0
 41 95  1  0
 42 96  1  0
 43 97  1  0
 45 98  1  0
 47 99  1  0
 48100  1  0
 50101  1  1
 51102  1  6
M  END
> <Uni-Dock RESULT> 
ENERGY=   -5.045  LOWER_BOUND=    0.000  UPPER_BOUND=    0.000
INTER + INTRA:          -5.045
INTER:                  -5.045
INTRA:                   0.000
UNBOUND:                 0.000

$$$$

     RDKit          3D

102105  0  0  0  0  0  0  0  0999 V2000
   49.1386    9.3458   18.4719 N   0  0  0  0  0  0  0  0  0  0  0  0
   46.9856    9.8412   20.7471 S   0  0  0  0  0  0  0  0  0  0  0  0
   48.8236    8.2442   19.3261 C   0  0  0  0  0  0  0  0  0  0  0  0
   48.5627   10.6552   18.5619 C   0  0  0  0  0  0  0  0  0  0  0  0
   47.8863    8.3597   20.3743 C   0  0  0  0  0  0  0  0  0  0  0  0
   47.5930   10.9787   19.5319 C   0  0  0  0  0  0  0  0  0  0  0  0
   50.2334    9.1706   17.4826 C   0  0  0  0  0  0  0  0  0  0  0  0
   49.7217    8.9417   16.0357 C   0  0  1  0  0  0  0  0  0  0  0  0
   50.9145    9.1275   15.0654 C   0  0  0  0  0  0  0  0  0  0  0  0
   50.5975    8.9550   13.6372 N   0  0  0  0  0  0  0  0  0  0  0  0
   48.9226   11.7086   17.6853 C   0  0  0  0  0  0  0  0  0  0  0  0
   49.4120    6.9655   19.1793 C   0  0  0  0  0  0  0  0  0  0  0  0
   47.0327   12.2721   19.6051 C   0  0  0  0  0  0  0  0  0  0  0  0
   47.5899    7.2688   21.2206 C   0  0  0  0  0  0  0  0  0  0  0  0
   49.0688    7.5684   15.8516 C   0  0  0  0  0  0  0  0  0  0  0  0
   49.6891    9.9907   13.1394 C   0  0  0  0  0  0  0  0  0  0  0  0
   51.8299    8.9543   12.8446 C   0  0  0  0  0  0  0  0  0  0  0  0
   49.1129    5.8830   20.0191 C   0  0  0  0  0  0  0  0  0  0  0  0
   48.3643   12.9915   17.7612 C   0  0  0  0  0  0  0  0  0  0  0  0
   47.4149   13.2753   18.7246 C   0  0  0  0  0  0  0  0  0  0  0  0
   48.2013    6.0348   21.0465 C   0  0  0  0  0  0  0  0  0  0  0  0
   48.8877    9.6001   16.0347 N   0  0  0  0  0  0  0  0  0  0  0  0
   51.4937    8.3324   14.8710 S   0  0  0  0  0  0  0  0  0  0  0  0
   50.1006   10.2684   16.3466 C   0  0  0  0  0  0  0  0  0  0  0  0
   48.7228    8.7632   14.8975 C   0  0  0  0  0  0  0  0  0  0  0  0
   51.3405    9.8138   15.8517 C   0  0  0  0  0  0  0  0  0  0  0  0
   49.8260    8.1505   14.2682 C   0  0  0  0  0  0  0  0  0  0  0  0
   47.8529    9.5226   17.1009 C   0  0  0  0  0  0  0  0  0  0  0  0
   48.0760    8.4267   18.1745 C   0  0  2  0  0  0  0  0  0  0  0  0
   49.1457    8.7736   19.2316 C   0  0  0  0  0  0  0  0  0  0  0  0
   48.8891   10.0202   19.9817 N   0  0  0  0  0  0  0  0  0  0  0  0
   47.4570    8.5553   14.3126 C   0  0  0  0  0  0  0  0  0  0  0  0
   50.1147   11.4535   17.1082 C   0  0  0  0  0  0  0  0  0  0  0  0
   49.6469    7.3245   13.1450 C   0  0  0  0  0  0  0  0  0  0  0  0
   52.5313   10.4997   16.1484 C   0  0  0  0  0  0  0  0  0  0  0  0
   48.3591    7.0401   17.5893 C   0  0  0  0  0  0  0  0  0  0  0  0
   50.0788   10.3729   20.7644 C   0  0  0  0  0  0  0  0  0  0  0  0
   47.7358    9.9007   20.8771 C   0  0  0  0  0  0  0  0  0  0  0  0
   51.3017   12.1371   17.3957 C   0  0  0  0  0  0  0  0  0  0  0  0
   47.2842    7.7373   13.1903 C   0  0  0  0  0  0  0  0  0  0  0  0
   48.3796    7.1145   12.6102 C   0  0  0  0  0  0  0  0  0  0  0  0
   52.5126   11.6575   16.9199 C   0  0  0  0  0  0  0  0  0  0  0  0
   48.9600   11.3818   18.7028 O   0  0  0  0  0  0  0  0  0  0  0  0
   49.6272    9.4671   19.6322 O   0  0  0  0  0  0  0  0  0  0  0  0
   50.7434   10.3606   16.1188 O   0  0  0  0  0  0  0  0  0  0  0  0
   50.3180    8.7992   14.5798 O   0  0  0  0  0  0  0  0  0  0  0  0
   47.2590    8.6334   17.9123 O   0  0  0  0  0  0  0  0  0  0  0  0
   48.7620    7.3120   16.3023 O   0  0  0  0  0  0  0  0  0  0  0  0
   49.0606   10.0354   18.7105 C   0  0  0  0  0  0  0  0  0  0  0  0
   48.4119    9.3840   17.4988 C   0  0  1  0  0  0  0  0  0  0  0  0
   49.4471    8.4662   16.8337 C   0  0  2  0  0  0  0  0  0  0  0  0
   50.1772    9.2075   15.7232 C   0  0  0  0  0  0  0  0  0  0  0  0
   50.8914   10.0494   17.5176 H   0  0  0  0  0  0  0  0  0  0  0  0
   50.9406    8.3816   17.7571 H   0  0  0  0  0  0  0  0  0  0  0  0
   48.9580    9.6913   15.8052 H   0  0  0  0  0  0  0  0  0  0  0  0
   51.6784    8.3884   15.3429 H   0  0  0  0  0  0  0  0  0  0  0  0
   51.3665   10.1149   15.2268 H   0  0  0  0  0  0  0  0  0  0  0  0
   49.6528   11.5741   16.8953 H   0  0  0  0  0  0  0  0  0  0  0  0
   50.1200    6.7430   18.3904 H   0  0  0  0  0  0  0  0  0  0  0  0
   46.2861   12.5034   20.3627 H   0  0  0  0  0  0  0  0  0  0  0  0
   46.8661    7.3807   22.0260 H   0  0  0  0  0  0  0  0  0  0  0  0
   48.6872    7.4454   14.8326 H   0  0  0  0  0  0  0  0  0  0  0  0
   48.2143    7.4439   16.5232 H   0  0  0  0  0  0  0  0  0  0  0  0
   49.7822    6.7592   16.0387 H   0  0  0  0  0  0  0  0  0  0  0  0
   48.7072    9.9220   13.6183 H   0  0  0  0  0  0  0  0  0  0  0  0
   50.0866   11.0000   13.2977 H   0  0  0  0  0  0  0  0  0  0  0  0
   49.5077    9.8589   12.0660 H   0  0  0  0  0  0  0  0  0  0  0  0
   52.4962    8.1465   13.1672 H   0  0  0  0  0  0  0  0  0  0  0  0
   52.3728    9.9030   12.9258 H   0  0  0  0  0  0  0  0  0  0  0  0
   51.6094    8.7712   11.7869 H   0  0  0  0  0  0  0  0  0  0  0  0
   49.5944    4.9219   19.8554 H   0  0  0  0  0  0  0  0  0  0  0  0
   48.6755   13.7603   17.0587 H   0  0  0  0  0  0  0  0  0  0  0  0
   46.9734   14.2649   18.7935 H   0  0  0  0  0  0  0  0  0  0  0  0
   47.9611    5.2035   21.7030 H   0  0  0  0  0  0  0  0  0  0  0  0
   46.8662    9.3304   16.6676 H   0  0  0  0  0  0  0  0  0  0  0  0
   47.7033   10.4930   17.5851 H   0  0  0  0  0  0  0  0  0  0  0  0
   47.1176    8.3250   18.7007 H   0  0  0  0  0  0  0  0  0  0  0  0
   50.1168    8.8427   18.7261 H   0  0  0  0  0  0  0  0  0  0  0  0
   49.2401    7.9367   19.9381 H   0  0  0  0  0  0  0  0  0  0  0  0
   46.5758    9.0606   14.6941 H   0  0  0  0  0  0  0  0  0  0  0  0
   49.1928   11.8880   17.4811 H   0  0  0  0  0  0  0  0  0  0  0  0
   50.5028    6.8418   12.6779 H   0  0  0  0  0  0  0  0  0  0  0  0
   53.4841   10.1322   15.7739 H   0  0  0  0  0  0  0  0  0  0  0  0
   49.3488    6.9868   17.1281 H   0  0  0  0  0  0  0  0  0  0  0  0
   48.3280    6.2805   18.3785 H   0  0  0  0  0  0  0  0  0  0  0  0
   47.6051    6.7642   16.8460 H   0  0  0  0  0  0  0  0  0  0  0  0
   49.9305   11.3278   21.2805 H   0  0  0  0  0  0  0  0  0  0  0  0
   50.9490   10.5056   20.1124 H   0  0  0  0  0  0  0  0  0  0  0  0
   50.3232    9.6093   21.5120 H   0  0  0  0  0  0  0  0  0  0  0  0
   46.8086    9.7572   20.3145 H   0  0  0  0  0  0  0  0  0  0  0  0
   47.8449    9.0732   21.5878 H   0  0  0  0  0  0  0  0  0  0  0  0
   47.5971   10.8258   21.4492 H   0  0  0  0  0  0  0  0  0  0  0  0
   51.2683   13.0486   17.9871 H   0  0  0  0  0  0  0  0  0  0  0  0
   46.2930    7.6013   12.7658 H   0  0  0  0  0  0  0  0  0  0  0  0
   48.2537    6.4797   11.7376 H   0  0  0  0  0  0  0  0  0  0  0  0
   53.4369   12.1847   17.1386 H   0  0  0  0  0  0  0  0  0  0  0  0
   49.3696   11.6532   19.5508 H   0  0  0  0  0  0  0  0  0  0  0  0
   51.1960   10.7091   15.3199 H   0  0  0  0  0  0  0  0  0  0  0  0
   47.4103    7.7216   17.5823 H   0  0  0  0  0  0  0  0  0  0  0  0
   49.2899    7.0046   15.5378 H   0  0  0  0  0  0  0  0  0  0  0  0
   48.0567   10.1563   16.8075 H   0  0  0  0  0  0  0  0  0  0  0  0
   50.1986    8.0838   17.5324 H   0  0  0  0  0  0  0  0  0  0  0  0
 10  9  1  0
 11  4  2  0
 12  3  2  0
 13  6  2  0
 14  5  2  0
 15  8  1  0
 16 10  1  0
 17 10  1  0
 18 12  1  0
 19 11  1  0
 20 19  2  0
 21 18  2  0
  5  2  1  0
 13 20  1  0
 14 21  1  0
  2  6  1  0
  3  1  1  0
  4  1  1  0
  5  3  1  0
  6  4  1  0
  7  1  1  0
  8  7  1  0
  9  8  1  0
 31 30  1  0
 32 25  2  0
 33 24  2  0
 34 27  2  0
 35 26  2  0
 36 29  1  0
 37 31  1  0
 38 31  1  0
 39 33  1  0
 40 32  1  0
 41 40  2  0
 42 39  2  0
 26 23  1  0
 34 41  1  0
 35 42  1  0
 23 27  1  0
 24 22  1  0
 25 22  1  0
 26 24  1  0
 27 25  1  0
 28 22  1  0
 29 28  1  0
 30 29  1  0
 49 44  2  0
 50 47  1  0
 51 48  1  0
 49 43  1  0
 51 52  1  0
 50 51  1  0
 52 45  1  0
 49 50  1  0
 52 46  2  0
  7 53  1  0
  7 54  1  0
  8 55  1  1
  9 56  1  0
  9 57  1  0
 11 58  1  0
 12 59  1  0
 13 60  1  0
 14 61  1  0
 15 62  1  0
 15 63  1  0
 15 64  1  0
 16 65  1  0
 16 66  1  0
 16 67  1  0
 17 68  1  0
 17 69  1  0
 17 70  1  0
 18 71  1  0
 19 72  1  0
 20 73  1  0
 21 74  1  0
 28 75  1  0
 28 76  1  0
 29 77  1  1
 30 78  1  0
 30 79  1  0
 32 80  1  0
 33 81  1  0
 34 82  1  0
 35 83  1  0
 36 84  1  0
 36 85  1  0
 36 86  1  0
 37 87  1  0
 37 88  1  0
 37 89  1  0
 38 90  1  0
 38 91  1  0
 38 92  1  0
 39 93  1  0
 40 94  1  0
 41 95  1  0
 42 96  1  0
 43 97  1  0
 45 98  1  0
 47 99  1  0
 48100  1  0
 50101  1  1
 51102  1  6
M  END
> <Uni-Dock RESULT> 
ENERGY=   -4.485  LOWER_BOUND=    4.165  UPPER_BOUND=    6.192
INTER + INTRA:          -4.485
INTER:                  -4.485
INTRA:                   0.000
UNBOUND:                 0.000

$$$$

     RDKit          3D

102105  0  0  0  0  0  0  0  0999 V2000
   49.3740    9.0941   16.0508 N   0  0  0  0  0  0  0  0  0  0  0  0
   51.1661   10.4129   13.7911 S   0  0  0  0  0  0  0  0  0  0  0  0
   48.8899    9.0251   14.7080 C   0  0  0  0  0  0  0  0  0  0  0  0
   50.6011    9.7126   16.4585 C   0  0  0  0  0  0  0  0  0  0  0  0
   49.6051    9.5870   13.6293 C   0  0  0  0  0  0  0  0  0  0  0  0
   51.4730   10.3211   15.5337 C   0  0  0  0  0  0  0  0  0  0  0  0
   48.4916    8.5945   17.1370 C   0  0  0  0  0  0  0  0  0  0  0  0
   48.9074    7.1983   17.6713 C   0  0  1  0  0  0  0  0  0  0  0  0
   48.1586    6.9473   19.0037 C   0  0  0  0  0  0  0  0  0  0  0  0
   48.4502    5.6598   19.6573 N   0  0  0  0  0  0  0  0  0  0  0  0
   51.0229    9.7519   17.8106 C   0  0  0  0  0  0  0  0  0  0  0  0
   47.6766    8.3848   14.3607 C   0  0  0  0  0  0  0  0  0  0  0  0
   52.6798   10.9228   15.9509 C   0  0  0  0  0  0  0  0  0  0  0  0
   49.1133    9.5239   12.3071 C   0  0  0  0  0  0  0  0  0  0  0  0
   48.6347    6.0765   16.6648 C   0  0  0  0  0  0  0  0  0  0  0  0
   49.8388    5.5694   20.1145 C   0  0  0  0  0  0  0  0  0  0  0  0
   47.5417    5.4522   20.7882 C   0  0  0  0  0  0  0  0  0  0  0  0
   47.1925    8.3206   13.0461 C   0  0  0  0  0  0  0  0  0  0  0  0
   52.2216   10.3503   18.2209 C   0  0  0  0  0  0  0  0  0  0  0  0
   53.0545   10.9381   17.2877 C   0  0  0  0  0  0  0  0  0  0  0  0
   47.9107    8.8952   12.0149 C   0  0  0  0  0  0  0  0  0  0  0  0
   49.9644    7.2986   17.6303 N   0  0  0  0  0  0  0  0  0  0  0  0
   47.2437    6.5392   18.9618 S   0  0  0  0  0  0  0  0  0  0  0  0
   49.3593    8.3023   18.4312 C   0  0  0  0  0  0  0  0  0  0  0  0
   49.7125    5.9088   17.7907 C   0  0  0  0  0  0  0  0  0  0  0  0
   48.1470    8.0692   19.1129 C   0  0  0  0  0  0  0  0  0  0  0  0
   48.5291    5.4405   18.3979 C   0  0  0  0  0  0  0  0  0  0  0  0
   50.6417    7.7344   16.3792 C   0  0  0  0  0  0  0  0  0  0  0  0
   49.7090    8.0091   15.1718 C   0  0  2  0  0  0  0  0  0  0  0  0
   48.9550    9.3542   15.2375 C   0  0  0  0  0  0  0  0  0  0  0  0
   49.8247   10.5432   15.3482 N   0  0  0  0  0  0  0  0  0  0  0  0
   50.6593    4.9385   17.4039 C   0  0  0  0  0  0  0  0  0  0  0  0
   49.9750    9.5528   18.6360 C   0  0  0  0  0  0  0  0  0  0  0  0
   48.2935    4.0628   18.5484 C   0  0  0  0  0  0  0  0  0  0  0  0
   47.5714    9.0641   19.9225 C   0  0  0  0  0  0  0  0  0  0  0  0
   48.7191    6.8757   14.8881 C   0  0  0  0  0  0  0  0  0  0  0  0
   49.0050   11.7211   15.6537 C   0  0  0  0  0  0  0  0  0  0  0  0
   50.5885   10.7871   14.1222 C   0  0  0  0  0  0  0  0  0  0  0  0
   49.4020   10.5381   19.4482 C   0  0  0  0  0  0  0  0  0  0  0  0
   50.4234    3.5681   17.5616 C   0  0  0  0  0  0  0  0  0  0  0  0
   49.2354    3.1290   18.1276 C   0  0  0  0  0  0  0  0  0  0  0  0
   48.1961   10.2962   20.0887 C   0  0  0  0  0  0  0  0  0  0  0  0
   50.6997   10.3559   16.9895 O   0  0  0  0  0  0  0  0  0  0  0  0
   48.9411   10.2040   15.6259 O   0  0  0  0  0  0  0  0  0  0  0  0
   48.9221    8.3875   18.9558 O   0  0  0  0  0  0  0  0  0  0  0  0
   48.4890    6.2007   18.8226 O   0  0  0  0  0  0  0  0  0  0  0  0
   50.5106    7.6622   15.0453 O   0  0  0  0  0  0  0  0  0  0  0  0
   48.6841    6.1772   16.0728 O   0  0  0  0  0  0  0  0  0  0  0  0
   49.8212    9.6381   16.2573 C   0  0  0  0  0  0  0  0  0  0  0  0
   50.0734    8.1399   16.3276 C   0  0  1  0  0  0  0  0  0  0  0  0
   48.7672    7.4510   16.7469 C   0  0  2  0  0  0  0  0  0  0  0  0
   48.7311    7.2561   18.2557 C   0  0  0  0  0  0  0  0  0  0  0  0
   48.4822    9.3266   17.9557 H   0  0  0  0  0  0  0  0  0  0  0  0
   47.4319    8.5883   16.8633 H   0  0  0  0  0  0  0  0  0  0  0  0
   49.9848    7.1975   17.8655 H   0  0  0  0  0  0  0  0  0  0  0  0
   47.0827    6.9899   18.7857 H   0  0  0  0  0  0  0  0  0  0  0  0
   48.3658    7.7704   19.7000 H   0  0  0  0  0  0  0  0  0  0  0  0
   50.4367    9.3094   18.6081 H   0  0  0  0  0  0  0  0  0  0  0  0
   47.0559    7.8866   15.0954 H   0  0  0  0  0  0  0  0  0  0  0  0
   53.3396   11.3896   15.2217 H   0  0  0  0  0  0  0  0  0  0  0  0
   49.6794    9.9675   11.4899 H   0  0  0  0  0  0  0  0  0  0  0  0
   48.9672    5.1079   17.0525 H   0  0  0  0  0  0  0  0  0  0  0  0
   49.1786    6.2432   15.7304 H   0  0  0  0  0  0  0  0  0  0  0  0
   47.5665    5.9945   16.4385 H   0  0  0  0  0  0  0  0  0  0  0  0
   50.5366    5.5795   19.2712 H   0  0  0  0  0  0  0  0  0  0  0  0
   50.1030    6.3848   20.7980 H   0  0  0  0  0  0  0  0  0  0  0  0
   50.0113    4.6188   20.6334 H   0  0  0  0  0  0  0  0  0  0  0  0
   46.4988    5.4591   20.4522 H   0  0  0  0  0  0  0  0  0  0  0  0
   47.6612    6.2218   21.5595 H   0  0  0  0  0  0  0  0  0  0  0  0
   47.7136    4.4723   21.2474 H   0  0  0  0  0  0  0  0  0  0  0  0
   46.2544    7.8112   12.8392 H   0  0  0  0  0  0  0  0  0  0  0  0
   52.4968   10.3468   19.2724 H   0  0  0  0  0  0  0  0  0  0  0  0
   53.9867   11.4041   17.5921 H   0  0  0  0  0  0  0  0  0  0  0  0
   47.5462    8.8514   10.9926 H   0  0  0  0  0  0  0  0  0  0  0  0
   51.3596    6.9783   16.0458 H   0  0  0  0  0  0  0  0  0  0  0  0
   51.2883    8.6001   16.5545 H   0  0  0  0  0  0  0  0  0  0  0  0
   50.3637    8.0443   14.2910 H   0  0  0  0  0  0  0  0  0  0  0  0
   48.2687    9.3205   16.0926 H   0  0  0  0  0  0  0  0  0  0  0  0
   48.3146    9.4531   14.3494 H   0  0  0  0  0  0  0  0  0  0  0  0
   51.6259    5.2292   17.0057 H   0  0  0  0  0  0  0  0  0  0  0  0
   50.9330    9.7841   18.1818 H   0  0  0  0  0  0  0  0  0  0  0  0
   47.3689    3.7115   19.0017 H   0  0  0  0  0  0  0  0  0  0  0  0
   46.6285    8.8791   20.4322 H   0  0  0  0  0  0  0  0  0  0  0  0
   47.9411    6.8130   15.6535 H   0  0  0  0  0  0  0  0  0  0  0  0
   48.2167    7.0406   13.9282 H   0  0  0  0  0  0  0  0  0  0  0  0
   49.2318    5.9113   14.8225 H   0  0  0  0  0  0  0  0  0  0  0  0
   49.6384   12.6029   15.8003 H   0  0  0  0  0  0  0  0  0  0  0  0
   48.4515   11.5789   16.5882 H   0  0  0  0  0  0  0  0  0  0  0  0
   48.2841   11.9408   14.8576 H   0  0  0  0  0  0  0  0  0  0  0  0
   51.3004    9.9790   13.9297 H   0  0  0  0  0  0  0  0  0  0  0  0
   49.9416   10.8992   13.2443 H   0  0  0  0  0  0  0  0  0  0  0  0
   51.1911   11.6979   14.2206 H   0  0  0  0  0  0  0  0  0  0  0  0
   49.9103   11.4900   19.5798 H   0  0  0  0  0  0  0  0  0  0  0  0
   51.1774    2.8489   17.2528 H   0  0  0  0  0  0  0  0  0  0  0  0
   49.0459    2.0670   18.2553 H   0  0  0  0  0  0  0  0  0  0  0  0
   47.7475   11.0567   20.7215 H   0  0  0  0  0  0  0  0  0  0  0  0
   50.4495   11.2866   16.8111 H   0  0  0  0  0  0  0  0  0  0  0  0
   48.8448    8.1201   19.8976 H   0  0  0  0  0  0  0  0  0  0  0  0
   49.8822    6.9474   14.8061 H   0  0  0  0  0  0  0  0  0  0  0  0
   48.1548    5.5919   16.6517 H   0  0  0  0  0  0  0  0  0  0  0  0
   50.8826    7.9322   17.0365 H   0  0  0  0  0  0  0  0  0  0  0  0
   47.8712    8.0109   16.4593 H   0  0  0  0  0  0  0  0  0  0  0  0
 10  9  1  0
 11  4  2  0
 12  3  2  0
 13  6  2  0
 14  5  2  0
 15  8  1  0
 16 10  1  0
 17 10  1  0
 18 12  1  0
 19 11  1  0
 20 19  2  0
 21 18  2  0
  5  2  1  0
 13 20  1  0
 14 21  1  0
  2  6  1  0
  3  1  1  0
  4  1  1  0
  5  3  1  0
  6  4  1  0
  7  1  1  0
  8  7  1  0
  9  8  1  0
 31 30  1  0
 32 25  2  0
 33 24  2  0
 34 27  2  0
 35 26  2  0
 36 29  1  0
 37 31  1  0
 38 31  1  0
 39 33  1  0
 40 32  1  0
 41 40  2  0
 42 39  2  0
 26 23  1  0
 34 41  1  0
 35 42  1  0
 23 27  1  0
 24 22  1  0
 25 22  1  0
 26 24  1  0
 27 25  1  0
 28 22  1  0
 29 28  1  0
 30 29  1  0
 49 44  2  0
 50 47  1  0
 51 48  1  0
 49 43  1  0
 51 52  1  0
 50 51  1  0
 52 45  1  0
 49 50  1  0
 52 46  2  0
  7 53  1  0
  7 54  1  0
  8 55  1  1
  9 56  1  0
  9 57  1  0
 11 58  1  0
 12 59  1  0
 13 60  1  0
 14 61  1  0
 15 62  1  0
 15 63  1  0
 15 64  1  0
 16 65  1  0
 16 66  1  0
 16 67  1  0
 17 68  1  0
 17 69  1  0
 17 70  1  0
 18 71  1  0
 19 72  1  0
 20 73  1  0
 21 74  1  0
 28 75  1  0
 28 76  1  0
 29 77  1  1
 30 78  1  0
 30 79  1  0
 32 80  1  0
 33 81  1  0
 34 82  1  0
 35 83  1  0
 36 84  1  0
 36 85  1  0
 36 86  1  0
 37 87  1  0
 37 88  1  0
 37 89  1  0
 38 90  1  0
 38 91  1  0
 38 92  1  0
 39 93  1  0
 40 94  1  0
 41 95  1  0
 42 96  1  0
 43 97  1  0
 45 98  1  0
 47 99  1  0
 48100  1  0
 50101  1  1
 51102  1  6
M  END
> <Uni-Dock RESULT> 
ENERGY=   -4.333  LOWER_BOUND=    3.879  UPPER_BOUND=    6.014
INTER + INTRA:          -4.333
INTER:                  -4.333
INTRA:                   0.000
UNBOUND:                 0.000

$$$$

     RDKit          3D

102105  0  0  0  0  0  0  0  0999 V2000
   50.7270    6.4860   17.1999 N   0  0  0  0  0  0  0  0  0  0  0  0
   48.7786    8.9816   17.0208 S   0  0  0  0  0  0  0  0  0  0  0  0
   51.0685    7.5177   16.2719 C   0  0  0  0  0  0  0  0  0  0  0  0
   49.5754    6.4868   18.0531 C   0  0  0  0  0  0  0  0  0  0  0  0
   50.2659    8.6664   16.1077 C   0  0  0  0  0  0  0  0  0  0  0  0
   48.6503    7.5499   18.0566 C   0  0  0  0  0  0  0  0  0  0  0  0
   51.5567    5.2533   17.2088 C   0  0  0  0  0  0  0  0  0  0  0  0
   52.5540    5.1940   18.3962 C   0  0  1  0  0  0  0  0  0  0  0  0
   53.0932    3.7460   18.5035 C   0  0  0  0  0  0  0  0  0  0  0  0
   54.0522    3.5104   19.5966 N   0  0  0  0  0  0  0  0  0  0  0  0
   49.2898    5.4277   18.9500 C   0  0  0  0  0  0  0  0  0  0  0  0
   52.2306    7.4719   15.4655 C   0  0  0  0  0  0  0  0  0  0  0  0
   47.5229    7.5374   18.9057 C   0  0  0  0  0  0  0  0  0  0  0  0
   50.6053    9.6755   15.1800 C   0  0  0  0  0  0  0  0  0  0  0  0
   53.6994    6.2009   18.2551 C   0  0  0  0  0  0  0  0  0  0  0  0
   53.4385    3.6614   20.9179 C   0  0  0  0  0  0  0  0  0  0  0  0
   54.6383    2.1731   19.4724 C   0  0  0  0  0  0  0  0  0  0  0  0
   52.5669    8.4773   14.5475 C   0  0  0  0  0  0  0  0  0  0  0  0
   48.1694    5.4189   19.7913 C   0  0  0  0  0  0  0  0  0  0  0  0
   47.2818    6.4780   19.7701 C   0  0  0  0  0  0  0  0  0  0  0  0
   51.7500    9.5821   14.4004 C   0  0  0  0  0  0  0  0  0  0  0  0
   51.9522    5.6280   19.1569 N   0  0  0  0  0  0  0  0  0  0  0  0
   53.8969    3.4995   17.9569 S   0  0  0  0  0  0  0  0  0  0  0  0
   51.3448    4.4830   18.5782 C   0  0  0  0  0  0  0  0  0  0  0  0
   53.2822    5.6417   19.6590 C   0  0  0  0  0  0  0  0  0  0  0  0
   52.1166    3.4354   18.0342 C   0  0  0  0  0  0  0  0  0  0  0  0
   54.2474    4.7163   19.2116 C   0  0  0  0  0  0  0  0  0  0  0  0
   51.2839    6.9404   18.9455 C   0  0  0  0  0  0  0  0  0  0  0  0
   51.5398    7.6102   17.5710 C   0  0  2  0  0  0  0  0  0  0  0  0
   50.7319    7.0054   16.4032 C   0  0  0  0  0  0  0  0  0  0  0  0
   49.2668    7.0277   16.5910 N   0  0  0  0  0  0  0  0  0  0  0  0
   53.6799    6.5421   20.6682 C   0  0  0  0  0  0  0  0  0  0  0  0
   49.9469    4.3091   18.5810 C   0  0  0  0  0  0  0  0  0  0  0  0
   55.5591    4.7430   19.7165 C   0  0  0  0  0  0  0  0  0  0  0  0
   51.5021    2.2958   17.4862 C   0  0  0  0  0  0  0  0  0  0  0  0
   53.0209    7.6862   17.1893 C   0  0  0  0  0  0  0  0  0  0  0  0
   48.6287    6.2122   15.5516 C   0  0  0  0  0  0  0  0  0  0  0  0
   48.7228    8.3871   16.5447 C   0  0  0  0  0  0  0  0  0  0  0  0
   49.3394    3.1699   18.0405 C   0  0  0  0  0  0  0  0  0  0  0  0
   54.9851    6.5609   21.1728 C   0  0  0  0  0  0  0  0  0  0  0  0
   55.9285    5.6653   20.6908 C   0  0  0  0  0  0  0  0  0  0  0  0
   50.1170    2.1637   17.4876 C   0  0  0  0  0  0  0  0  0  0  0  0
   48.9482    5.9282   18.0690 O   0  0  0  0  0  0  0  0  0  0  0  0
   49.9843    6.4929   16.1761 O   0  0  0  0  0  0  0  0  0  0  0  0
   51.4661    3.8228   18.4262 O   0  0  0  0  0  0  0  0  0  0  0  0
   53.5895    4.1773   19.0204 O   0  0  0  0  0  0  0  0  0  0  0  0
   51.4557    8.1036   18.2979 O   0  0  0  0  0  0  0  0  0  0  0  0
   53.6074    6.7348   17.9915 O   0  0  0  0  0  0  0  0  0  0  0  0
   50.0274    6.3752   17.3918 C   0  0  0  0  0  0  0  0  0  0  0  0
   51.2091    6.6884   18.2967 C   0  0  1  0  0  0  0  0  0  0  0  0
   52.4329    5.9246   17.7720 C   0  0  2  0  0  0  0  0  0  0  0  0
   52.5698    4.5877   18.4859 C   0  0  0  0  0  0  0  0  0  0  0  0
   50.8952    4.3767   17.2250 H   0  0  0  0  0  0  0  0  0  0  0  0
   52.0882    5.0841   16.2671 H   0  0  0  0  0  0  0  0  0  0  0  0
   52.0226    5.4429   19.3204 H   0  0  0  0  0  0  0  0  0  0  0  0
   53.5882    3.5114   17.5512 H   0  0  0  0  0  0  0  0  0  0  0  0
   52.2508    3.0480   18.5943 H   0  0  0  0  0  0  0  0  0  0  0  0
   49.9349    4.5609   19.0389 H   0  0  0  0  0  0  0  0  0  0  0  0
   52.9431    6.6583   15.5255 H   0  0  0  0  0  0  0  0  0  0  0  0
   46.8184    8.3671   18.8928 H   0  0  0  0  0  0  0  0  0  0  0  0
   49.9697   10.5519   15.0664 H   0  0  0  0  0  0  0  0  0  0  0  0
   54.3692    6.1618   19.1205 H   0  0  0  0  0  0  0  0  0  0  0  0
   53.3202    7.2255   18.1987 H   0  0  0  0  0  0  0  0  0  0  0  0
   54.2995    5.9998   17.3616 H   0  0  0  0  0  0  0  0  0  0  0  0
   53.1177    4.6934   21.0918 H   0  0  0  0  0  0  0  0  0  0  0  0
   52.5753    2.9988   21.0510 H   0  0  0  0  0  0  0  0  0  0  0  0
   54.1661    3.4379   21.7073 H   0  0  0  0  0  0  0  0  0  0  0  0
   55.1522    2.0643   18.5109 H   0  0  0  0  0  0  0  0  0  0  0  0
   53.8828    1.3830   19.5516 H   0  0  0  0  0  0  0  0  0  0  0  0
   55.3939    2.0084   20.2488 H   0  0  0  0  0  0  0  0  0  0  0  0
   53.4757    8.3891   13.9571 H   0  0  0  0  0  0  0  0  0  0  0  0
   48.0029    4.5807   20.4630 H   0  0  0  0  0  0  0  0  0  0  0  0
   46.4103    6.4842   20.4178 H   0  0  0  0  0  0  0  0  0  0  0  0
   52.0004   10.3676   13.6932 H   0  0  0  0  0  0  0  0  0  0  0  0
   51.6046    7.6630   19.7027 H   0  0  0  0  0  0  0  0  0  0  0  0
   50.2074    6.8765   19.1337 H   0  0  0  0  0  0  0  0  0  0  0  0
   51.2194    8.6544   17.6837 H   0  0  0  0  0  0  0  0  0  0  0  0
   51.0672    5.9718   16.2541 H   0  0  0  0  0  0  0  0  0  0  0  0
   50.9878    7.5352   15.4745 H   0  0  0  0  0  0  0  0  0  0  0  0
   52.9683    7.2270   21.1176 H   0  0  0  0  0  0  0  0  0  0  0  0
   49.2931    5.0522   19.0263 H   0  0  0  0  0  0  0  0  0  0  0  0
   56.3013    4.0363   19.3512 H   0  0  0  0  0  0  0  0  0  0  0  0
   52.1062    1.5002   17.0558 H   0  0  0  0  0  0  0  0  0  0  0  0
   53.4292    6.7025   16.9430 H   0  0  0  0  0  0  0  0  0  0  0  0
   53.1543    8.3226   16.3072 H   0  0  0  0  0  0  0  0  0  0  0  0
   53.6143    8.1255   17.9969 H   0  0  0  0  0  0  0  0  0  0  0  0
   47.5456    6.1660   15.7097 H   0  0  0  0  0  0  0  0  0  0  0  0
   48.9912    5.1792   15.5895 H   0  0  0  0  0  0  0  0  0  0  0  0
   48.8155    6.6050   14.5453 H   0  0  0  0  0  0  0  0  0  0  0  0
   49.0869    8.9900   17.3818 H   0  0  0  0  0  0  0  0  0  0  0  0
   48.9700    8.9026   15.6094 H   0  0  0  0  0  0  0  0  0  0  0  0
   47.6310    8.3668   16.6449 H   0  0  0  0  0  0  0  0  0  0  0  0
   48.2567    3.0751   18.0630 H   0  0  0  0  0  0  0  0  0  0  0  0
   55.2551    7.2687   21.9521 H   0  0  0  0  0  0  0  0  0  0  0  0
   56.9431    5.6724   21.0789 H   0  0  0  0  0  0  0  0  0  0  0  0
   49.6511    1.2765   17.0681 H   0  0  0  0  0  0  0  0  0  0  0  0
   48.2643    5.8182   17.3755 H   0  0  0  0  0  0  0  0  0  0  0  0
   51.7054    2.9937   18.8950 H   0  0  0  0  0  0  0  0  0  0  0  0
   52.3938    8.2042   18.0279 H   0  0  0  0  0  0  0  0  0  0  0  0
   54.3566    6.1137   18.0946 H   0  0  0  0  0  0  0  0  0  0  0  0
   50.9717    6.4066   19.3286 H   0  0  0  0  0  0  0  0  0  0  0  0
   52.3912    5.7276   16.6957 H   0  0  0  0  0  0  0  0  0  0  0  0
 10  9  1  0
 11  4  2  0
 12  3  2  0
 13  6  2  0
 14  5  2  0
 15  8  1  0
 16 10  1  0
 17 10  1  0
 18 12  1  0
 19 11  1  0
 20 19  2  0
 21 18  2  0
  5  2  1  0
 13 20  1  0
 14 21  1  0
  2  6  1  0
  3  1  1  0
  4  1  1  0
  5  3  1  0
  6  4  1  0
  7  1  1  0
  8  7  1  0
  9  8  1  0
 31 30  1  0
 32 25  2  0
 33 24  2  0
 34 27  2  0
 35 26  2  0
 36 29  1  0
 37 31  1  0
 38 31  1  0
 39 33  1  0
 40 32  1  0
 41 40  2  0
 42 39  2  0
 26 23  1  0
 34 41  1  0
 35 42  1  0
 23 27  1  0
 24 22  1  0
 25 22  1  0
 26 24  1  0
 27 25  1  0
 28 22  1  0
 29 28  1  0
 30 29  1  0
 49 44  2  0
 50 47  1  0
 51 48  1  0
 49 43  1  0
 51 52  1  0
 50 51  1  0
 52 45  1  0
 49 50  1  0
 52 46  2  0
  7 53  1  0
  7 54  1  0
  8 55  1  1
  9 56  1  0
  9 57  1  0
 11 58  1  0
 12 59  1  0
 13 60  1  0
 14 61  1  0
 15 62  1  0
 15 63  1  0
 15 64  1  0
 16 65  1  0
 16 66  1  0
 16 67  1  0
 17 68  1  0
 17 69  1  0
 17 70  1  0
 18 71  1  0
 19 72  1  0
 20 73  1  0
 21 74  1  0
 28 75  1  0
 28 76  1  0
 29 77  1  1
 30 78  1  0
 30 79  1  0
 32 80  1  0
 33 81  1  0
 34 82  1  0
 35 83  1  0
 36 84  1  0
 36 85  1  0
 36 86  1  0
 37 87  1  0
 37 88  1  0
 37 89  1  0
 38 90  1  0
 38 91  1  0
 38 92  1  0
 39 93  1  0
 40 94  1  0
 41 95  1  0
 42 96  1  0
 43 97  1  0
 45 98  1  0
 47 99  1  0
 48100  1  0
 50101  1  1
 51102  1  6
M  END
> <Uni-Dock RESULT> 
ENERGY=   -4.329  LOWER_BOUND=    2.068  UPPER_BOUND=    3.840
INTER + INTRA:          -4.329
INTER:                  -4.329
INTRA:                   0.000
UNBOUND:                 0.000

$$$$

     RDKit          3D

102105  0  0  0  0  0  0  0  0999 V2000
   50.4996    5.9480   18.4354 N   0  0  0  0  0  0  0  0  0  0  0  0
   49.0147    6.9493   15.8182 S   0  0  0  0  0  0  0  0  0  0  0  0
   49.4476    5.1265   17.9248 C   0  0  0  0  0  0  0  0  0  0  0  0
   50.9355    7.1874   17.8624 C   0  0  0  0  0  0  0  0  0  0  0  0
   48.7176    5.4837   16.7714 C   0  0  0  0  0  0  0  0  0  0  0  0
   50.3475    7.7181   16.6968 C   0  0  0  0  0  0  0  0  0  0  0  0
   51.1219    5.5612   19.7281 C   0  0  0  0  0  0  0  0  0  0  0  0
   52.5100    4.8874   19.5630 C   0  0  1  0  0  0  0  0  0  0  0  0
   53.2009    4.8568   20.9488 C   0  0  0  0  0  0  0  0  0  0  0  0
   54.5452    4.2547   20.9693 N   0  0  0  0  0  0  0  0  0  0  0  0
   51.9840    7.9592   18.4215 C   0  0  0  0  0  0  0  0  0  0  0  0
   49.0707    3.9008   18.5234 C   0  0  0  0  0  0  0  0  0  0  0  0
   50.7908    8.9382   16.1427 C   0  0  0  0  0  0  0  0  0  0  0  0
   47.6720    4.6712   16.2808 C   0  0  0  0  0  0  0  0  0  0  0  0
   52.4154    3.4818   18.9618 C   0  0  0  0  0  0  0  0  0  0  0  0
   55.5187    5.0399   20.2069 C   0  0  0  0  0  0  0  0  0  0  0  0
   55.0067    4.1004   22.3514 C   0  0  0  0  0  0  0  0  0  0  0  0
   48.0342    3.0942   18.0317 C   0  0  0  0  0  0  0  0  0  0  0  0
   52.4212    9.1702   17.8686 C   0  0  0  0  0  0  0  0  0  0  0  0
   51.8230    9.6624   16.7241 C   0  0  0  0  0  0  0  0  0  0  0  0
   47.3287    3.4816   16.9084 C   0  0  0  0  0  0  0  0  0  0  0  0
   52.8931    5.4626   18.7559 N   0  0  0  0  0  0  0  0  0  0  0  0
   53.0150    4.0779   21.5523 S   0  0  0  0  0  0  0  0  0  0  0  0
   52.5339    6.2683   19.8680 C   0  0  0  0  0  0  0  0  0  0  0  0
   53.7350    4.3212   18.8530 C   0  0  0  0  0  0  0  0  0  0  0  0
   52.5817    5.7684   21.1858 C   0  0  0  0  0  0  0  0  0  0  0  0
   53.8906    3.6226   20.0679 C   0  0  0  0  0  0  0  0  0  0  0  0
   52.1105    5.6347   17.5023 C   0  0  0  0  0  0  0  0  0  0  0  0
   50.7370    4.9168   17.4646 C   0  0  2  0  0  0  0  0  0  0  0  0
   49.6219    5.6245   18.2633 C   0  0  0  0  0  0  0  0  0  0  0  0
   49.3556    7.0170   17.8480 N   0  0  0  0  0  0  0  0  0  0  0  0
   54.4969    3.8716   17.7554 C   0  0  0  0  0  0  0  0  0  0  0  0
   52.1784    7.6226   19.7130 C   0  0  0  0  0  0  0  0  0  0  0  0
   54.7258    2.4947   20.1481 C   0  0  0  0  0  0  0  0  0  0  0  0
   52.2468    6.5851   22.2801 C   0  0  0  0  0  0  0  0  0  0  0  0
   50.8025    3.4406   17.8667 C   0  0  0  0  0  0  0  0  0  0  0  0
   48.4702    7.6577   18.8269 C   0  0  0  0  0  0  0  0  0  0  0  0
   48.7452    7.0916   16.5184 C   0  0  0  0  0  0  0  0  0  0  0  0
   51.8520    8.4342   20.8057 C   0  0  0  0  0  0  0  0  0  0  0  0
   55.3323    2.7521   17.8414 C   0  0  0  0  0  0  0  0  0  0  0  0
   55.4410    2.0577   19.0374 C   0  0  0  0  0  0  0  0  0  0  0  0
   51.8812    7.9142   22.0908 C   0  0  0  0  0  0  0  0  0  0  0  0
   50.9337    7.9471   18.2208 O   0  0  0  0  0  0  0  0  0  0  0  0
   49.3505    6.4339   18.6435 O   0  0  0  0  0  0  0  0  0  0  0  0
   52.6301    6.3305   20.5466 O   0  0  0  0  0  0  0  0  0  0  0  0
   53.6860    4.3638   20.4786 O   0  0  0  0  0  0  0  0  0  0  0  0
   51.2236    4.9856   16.7316 O   0  0  0  0  0  0  0  0  0  0  0  0
   51.9887    3.3494   18.5577 O   0  0  0  0  0  0  0  0  0  0  0  0
   50.5017    6.6709   18.3087 C   0  0  0  0  0  0  0  0  0  0  0  0
   51.5755    5.6541   17.9534 C   0  0  1  0  0  0  0  0  0  0  0  0
   51.6884    4.6495   19.1086 C   0  0  2  0  0  0  0  0  0  0  0  0
   52.7783    5.0786   20.0800 C   0  0  0  0  0  0  0  0  0  0  0  0
   51.2060    6.4516   20.3655 H   0  0  0  0  0  0  0  0  0  0  0  0
   50.4742    4.9332   20.3478 H   0  0  0  0  0  0  0  0  0  0  0  0
   53.1178    5.4870   18.8778 H   0  0  0  0  0  0  0  0  0  0  0  0
   52.5527    4.2810   21.6234 H   0  0  0  0  0  0  0  0  0  0  0  0
   53.2459    5.8748   21.3573 H   0  0  0  0  0  0  0  0  0  0  0  0
   52.5146    7.6462   19.3136 H   0  0  0  0  0  0  0  0  0  0  0  0
   49.5789    3.5028   19.3931 H   0  0  0  0  0  0  0  0  0  0  0  0
   50.3228    9.3330   15.2428 H   0  0  0  0  0  0  0  0  0  0  0  0
   47.1188    4.9675   15.3913 H   0  0  0  0  0  0  0  0  0  0  0  0
   53.4091    3.0425   18.8252 H   0  0  0  0  0  0  0  0  0  0  0  0
   51.9449    3.5051   17.9746 H   0  0  0  0  0  0  0  0  0  0  0  0
   51.8413    2.8095   19.6078 H   0  0  0  0  0  0  0  0  0  0  0  0
   55.2719    5.0522   19.1405 H   0  0  0  0  0  0  0  0  0  0  0  0
   55.5852    6.0746   20.5632 H   0  0  0  0  0  0  0  0  0  0  0  0
   56.5157    4.5890   20.2775 H   0  0  0  0  0  0  0  0  0  0  0  0
   54.3177    3.4661   22.9202 H   0  0  0  0  0  0  0  0  0  0  0  0
   55.0943    5.0639   22.8667 H   0  0  0  0  0  0  0  0  0  0  0  0
   55.9825    3.6027   22.3801 H   0  0  0  0  0  0  0  0  0  0  0  0
   47.7917    2.1598   18.5321 H   0  0  0  0  0  0  0  0  0  0  0  0
   53.2338    9.7182   18.3385 H   0  0  0  0  0  0  0  0  0  0  0  0
   52.1530   10.5989   16.2848 H   0  0  0  0  0  0  0  0  0  0  0  0
   46.5243    2.8649   16.5179 H   0  0  0  0  0  0  0  0  0  0  0  0
   52.6744    5.2620   16.6412 H   0  0  0  0  0  0  0  0  0  0  0  0
   51.9845    6.6926   17.2509 H   0  0  0  0  0  0  0  0  0  0  0  0
   50.4312    4.9127   16.4100 H   0  0  0  0  0  0  0  0  0  0  0  0
   49.8959    5.6042   19.3253 H   0  0  0  0  0  0  0  0  0  0  0  0
   48.6950    5.0383   18.1868 H   0  0  0  0  0  0  0  0  0  0  0  0
   54.4898    4.4095   16.8130 H   0  0  0  0  0  0  0  0  0  0  0  0
   52.1671    8.0879   18.7326 H   0  0  0  0  0  0  0  0  0  0  0  0
   54.8247    1.9518   21.0858 H   0  0  0  0  0  0  0  0  0  0  0  0
   52.2728    6.1853   23.2913 H   0  0  0  0  0  0  0  0  0  0  0  0
   50.9946    3.3177   18.9358 H   0  0  0  0  0  0  0  0  0  0  0  0
   49.8499    2.9443   17.6495 H   0  0  0  0  0  0  0  0  0  0  0  0
   51.5775    2.9123   17.3031 H   0  0  0  0  0  0  0  0  0  0  0  0
   48.3097    8.7104   18.5692 H   0  0  0  0  0  0  0  0  0  0  0  0
   48.9216    7.6489   19.8249 H   0  0  0  0  0  0  0  0  0  0  0  0
   47.4938    7.1630   18.8872 H   0  0  0  0  0  0  0  0  0  0  0  0
   49.4304    6.7315   15.7453 H   0  0  0  0  0  0  0  0  0  0  0  0
   47.8140    6.5166   16.4552 H   0  0  0  0  0  0  0  0  0  0  0  0
   48.5217    8.1328   16.2569 H   0  0  0  0  0  0  0  0  0  0  0  0
   51.5832    9.4747   20.6422 H   0  0  0  0  0  0  0  0  0  0  0  0
   55.9058    2.4356   16.9743 H   0  0  0  0  0  0  0  0  0  0  0  0
   56.0890    1.1890   19.1126 H   0  0  0  0  0  0  0  0  0  0  0  0
   51.6304    8.5397   22.9428 H   0  0  0  0  0  0  0  0  0  0  0  0
   50.1368    8.4798   18.4251 H   0  0  0  0  0  0  0  0  0  0  0  0
   53.3750    6.4582   21.1737 H   0  0  0  0  0  0  0  0  0  0  0  0
   51.2237    4.0287   16.9494 H   0  0  0  0  0  0  0  0  0  0  0  0
   52.4889    2.8661   19.2461 H   0  0  0  0  0  0  0  0  0  0  0  0
   52.5270    6.1665   17.7723 H   0  0  0  0  0  0  0  0  0  0  0  0
   50.7586    4.5364   19.6760 H   0  0  0  0  0  0  0  0  0  0  0  0
 10  9  1  0
 11  4  2  0
 12  3  2  0
 13  6  2  0
 14  5  2  0
 15  8  1  0
 16 10  1  0
 17 10  1  0
 18 12  1  0
 19 11  1  0
 20 19  2  0
 21 18  2  0
  5  2  1  0
 13 20  1  0
 14 21  1  0
  2  6  1  0
  3  1  1  0
  4  1  1  0
  5  3  1  0
  6  4  1  0
  7  1  1  0
  8  7  1  0
  9  8  1  0
 31 30  1  0
 32 25  2  0
 33 24  2  0
 34 27  2  0
 35 26  2  0
 36 29  1  0
 37 31  1  0
 38 31  1  0
 39 33  1  0
 40 32  1  0
 41 40  2  0
 42 39  2  0
 26 23  1  0
 34 41  1  0
 35 42  1  0
 23 27  1  0
 24 22  1  0
 25 22  1  0
 26 24  1  0
 27 25  1  0
 28 22  1  0
 29 28  1  0
 30 29  1  0
 49 44  2  0
 50 47  1  0
 51 48  1  0
 49 43  1  0
 51 52  1  0
 50 51  1  0
 52 45  1  0
 49 50  1  0
 52 46  2  0
  7 53  1  0
  7 54  1  0
  8 55  1  1
  9 56  1  0
  9 57  1  0
 11 58  1  0
 12 59  1  0
 13 60  1  0
 14 61  1  0
 15 62  1  0
 15 63  1  0
 15 64  1  0
 16 65  1  0
 16 66  1  0
 16 67  1  0
 17 68  1  0
 17 69  1  0
 17 70  1  0
 18 71  1  0
 19 72  1  0
 20 73  1  0
 21 74  1  0
 28 75  1  0
 28 76  1  0
 29 77  1  1
 30 78  1  0
 30 79  1  0
 32 80  1  0
 33 81  1  0
 34 82  1  0
 35 83  1  0
 36 84  1  0
 36 85  1  0
 36 86  1  0
 37 87  1  0
 37 88  1  0
 37 89  1  0
 38 90  1  0
 38 91  1  0
 38 92  1  0
 39 93  1  0
 40 94  1  0
 41 95  1  0
 42 96  1  0
 43 97  1  0
 45 98  1  0
 47 99  1  0
 48100  1  0
 50101  1  1
 51102  1  6
M  END
> <Uni-Dock RESULT> 
ENERGY=   -4.235  LOWER_BOUND=    1.660  UPPER_BOUND=    2.454
INTER + INTRA:          -4.235
INTER:                  -4.235
INTRA:                   0.000
UNBOUND:                 0.000

$$$$

     RDKit          3D

102105  0  0  0  0  0  0  0  0999 V2000
   49.5630    7.6655   18.0371 N   0  0  0  0  0  0  0  0  0  0  0  0
   48.2021    5.0678   16.8300 S   0  0  0  0  0  0  0  0  0  0  0  0
   49.2868    7.6626   16.6349 C   0  0  0  0  0  0  0  0  0  0  0  0
   49.2774    6.5897   18.9401 C   0  0  0  0  0  0  0  0  0  0  0  0
   48.6912    6.5545   15.9961 C   0  0  0  0  0  0  0  0  0  0  0  0
   48.6683    5.3947   18.5079 C   0  0  0  0  0  0  0  0  0  0  0  0
   50.3127    8.8193   18.5980 C   0  0  0  0  0  0  0  0  0  0  0  0
   49.4098    9.8249   19.3605 C   0  0  1  0  0  0  0  0  0  0  0  0
   50.3226   10.7671   20.1838 C   0  0  0  0  0  0  0  0  0  0  0  0
   49.6194   11.7850   20.9836 N   0  0  0  0  0  0  0  0  0  0  0  0
   49.5816    6.6531   20.3225 C   0  0  0  0  0  0  0  0  0  0  0  0
   49.5753    8.7629   15.7929 C   0  0  0  0  0  0  0  0  0  0  0  0
   48.3901    4.3458   19.4105 C   0  0  0  0  0  0  0  0  0  0  0  0
   48.4324    6.5564   14.6079 C   0  0  0  0  0  0  0  0  0  0  0  0
   48.4939   10.6211   18.4259 C   0  0  0  0  0  0  0  0  0  0  0  0
   48.8160   11.1933   22.0559 C   0  0  0  0  0  0  0  0  0  0  0  0
   50.5822   12.7326   21.5511 C   0  0  0  0  0  0  0  0  0  0  0  0
   49.3139    8.7630   14.4151 C   0  0  0  0  0  0  0  0  0  0  0  0
   49.3040    5.6097   21.2155 C   0  0  0  0  0  0  0  0  0  0  0  0
   48.7054    4.4509   20.7586 C   0  0  0  0  0  0  0  0  0  0  0  0
   48.7437    7.6548   13.8183 C   0  0  0  0  0  0  0  0  0  0  0  0
   48.7377    9.1454   19.8248 N   0  0  0  0  0  0  0  0  0  0  0  0
   50.6774   11.5912   19.7362 S   0  0  0  0  0  0  0  0  0  0  0  0
   50.0902    8.8826   20.1664 C   0  0  0  0  0  0  0  0  0  0  0  0
   48.1341   10.4273   19.9394 C   0  0  0  0  0  0  0  0  0  0  0  0
   51.0552    9.9106   20.1971 C   0  0  0  0  0  0  0  0  0  0  0  0
   48.9060   11.6074   19.9347 C   0  0  0  0  0  0  0  0  0  0  0  0
   48.0192    8.1164   19.0256 C   0  0  0  0  0  0  0  0  0  0  0  0
   48.3115    8.1244   17.5031 C   0  0  2  0  0  0  0  0  0  0  0  0
   49.6637    7.4946   17.1069 C   0  0  0  0  0  0  0  0  0  0  0  0
   49.8410    6.0933   17.5396 N   0  0  0  0  0  0  0  0  0  0  0  0
   46.7439   10.5740   20.1215 C   0  0  0  0  0  0  0  0  0  0  0  0
   50.5161    7.5974   20.5554 C   0  0  0  0  0  0  0  0  0  0  0  0
   48.2946   12.8682   20.0476 C   0  0  0  0  0  0  0  0  0  0  0  0
   52.3861    9.6404   20.5611 C   0  0  0  0  0  0  0  0  0  0  0  0
   48.1768    9.5065   16.8575 C   0  0  0  0  0  0  0  0  0  0  0  0
   51.2367    5.6912   17.3330 C   0  0  0  0  0  0  0  0  0  0  0  0
   48.9582    5.1743   16.8169 C   0  0  0  0  0  0  0  0  0  0  0  0
   51.8405    7.3340   20.9236 C   0  0  0  0  0  0  0  0  0  0  0  0
   46.1401   11.8310   20.2401 C   0  0  0  0  0  0  0  0  0  0  0  0
   46.9156   12.9803   20.1952 C   0  0  0  0  0  0  0  0  0  0  0  0
   52.7785    8.3552   20.9218 C   0  0  0  0  0  0  0  0  0  0  0  0
   49.8223    6.1541   19.4079 O   0  0  0  0  0  0  0  0  0  0  0  0
   50.3501    6.9232   17.3818 O   0  0  0  0  0  0  0  0  0  0  0  0
   50.6574    9.1871   20.4097 O   0  0  0  0  0  0  0  0  0  0  0  0
   49.5711   11.1306   20.2350 O   0  0  0  0  0  0  0  0  0  0  0  0
   47.5058    7.9213   17.8007 O   0  0  0  0  0  0  0  0  0  0  0  0
   48.2737   10.3692   17.9248 O   0  0  0  0  0  0  0  0  0  0  0  0
   49.6760    7.0349   18.3950 C   0  0  0  0  0  0  0  0  0  0  0  0
   48.6278    8.0995   18.6800 C   0  0  1  0  0  0  0  0  0  0  0  0
   49.2706    9.4771   18.4673 C   0  0  2  0  0  0  0  0  0  0  0  0
   49.8087   10.0201   19.7831 C   0  0  0  0  0  0  0  0  0  0  0  0
   51.1050    8.4439   19.2596 H   0  0  0  0  0  0  0  0  0  0  0  0
   50.9119    9.3489   17.8507 H   0  0  0  0  0  0  0  0  0  0  0  0
   48.7612    9.2716   20.0472 H   0  0  0  0  0  0  0  0  0  0  0  0
   50.9854   11.2806   19.4741 H   0  0  0  0  0  0  0  0  0  0  0  0
   50.9720   10.1687   20.8360 H   0  0  0  0  0  0  0  0  0  0  0  0
   50.0445    7.5258   20.7691 H   0  0  0  0  0  0  0  0  0  0  0  0
   50.0015    9.6837   16.1719 H   0  0  0  0  0  0  0  0  0  0  0  0
   47.9207    3.4294   19.0573 H   0  0  0  0  0  0  0  0  0  0  0  0
   47.9756    5.6891   14.1343 H   0  0  0  0  0  0  0  0  0  0  0  0
   47.8449   11.2983   18.9908 H   0  0  0  0  0  0  0  0  0  0  0  0
   47.8354    9.9573   17.8580 H   0  0  0  0  0  0  0  0  0  0  0  0
   49.0728   11.2270   17.7211 H   0  0  0  0  0  0  0  0  0  0  0  0
   47.9967   10.5899   21.6523 H   0  0  0  0  0  0  0  0  0  0  0  0
   49.4169   10.5659   22.7247 H   0  0  0  0  0  0  0  0  0  0  0  0
   48.3411   11.9774   22.6575 H   0  0  0  0  0  0  0  0  0  0  0  0
   51.1518   13.2272   20.7564 H   0  0  0  0  0  0  0  0  0  0  0  0
   51.2901   12.2439   22.2305 H   0  0  0  0  0  0  0  0  0  0  0  0
   50.0650   13.5259   22.1024 H   0  0  0  0  0  0  0  0  0  0  0  0
   49.5540    9.6401   13.8188 H   0  0  0  0  0  0  0  0  0  0  0  0
   49.5559    5.7155   22.2676 H   0  0  0  0  0  0  0  0  0  0  0  0
   48.4837    3.6352   21.4402 H   0  0  0  0  0  0  0  0  0  0  0  0
   48.5360    7.6434   12.7522 H   0  0  0  0  0  0  0  0  0  0  0  0
   46.9359    8.2339   19.1300 H   0  0  0  0  0  0  0  0  0  0  0  0
   48.1789    7.1118   19.4299 H   0  0  0  0  0  0  0  0  0  0  0  0
   47.5208    7.5161   17.0443 H   0  0  0  0  0  0  0  0  0  0  0  0
   50.4658    8.1131   17.5279 H   0  0  0  0  0  0  0  0  0  0  0  0
   49.7853    7.5568   16.0160 H   0  0  0  0  0  0  0  0  0  0  0  0
   46.0987    9.7068   20.2170 H   0  0  0  0  0  0  0  0  0  0  0  0
   49.8173    6.7683   20.6019 H   0  0  0  0  0  0  0  0  0  0  0  0
   48.8977   13.7735   20.0246 H   0  0  0  0  0  0  0  0  0  0  0  0
   53.1259   10.4378   20.5672 H   0  0  0  0  0  0  0  0  0  0  0  0
   48.9861   10.1772   17.1582 H   0  0  0  0  0  0  0  0  0  0  0  0
   48.2149    9.4219   15.7656 H   0  0  0  0  0  0  0  0  0  0  0  0
   47.2185    9.9692   17.1121 H   0  0  0  0  0  0  0  0  0  0  0  0
   51.4031    4.6741   17.7048 H   0  0  0  0  0  0  0  0  0  0  0  0
   51.9166    6.3409   17.8947 H   0  0  0  0  0  0  0  0  0  0  0  0
   51.5245    5.7250   16.2758 H   0  0  0  0  0  0  0  0  0  0  0  0
   47.9065    5.3708   17.0454 H   0  0  0  0  0  0  0  0  0  0  0  0
   49.0965    5.2321   15.7310 H   0  0  0  0  0  0  0  0  0  0  0  0
   49.1428    4.1397   17.1298 H   0  0  0  0  0  0  0  0  0  0  0  0
   52.1276    6.3275   21.2174 H   0  0  0  0  0  0  0  0  0  0  0  0
   45.0650   11.9050   20.3809 H   0  0  0  0  0  0  0  0  0  0  0  0
   46.4544   13.9595   20.2887 H   0  0  0  0  0  0  0  0  0  0  0  0
   53.8075    8.1570   21.2082 H   0  0  0  0  0  0  0  0  0  0  0  0
   50.4804    5.5121   19.0682 H   0  0  0  0  0  0  0  0  0  0  0  0
   50.9421    9.6722   21.2147 H   0  0  0  0  0  0  0  0  0  0  0  0
   47.3985    8.7805   17.3389 H   0  0  0  0  0  0  0  0  0  0  0  0
   48.5200   11.2700   18.2173 H   0  0  0  0  0  0  0  0  0  0  0  0
   48.2510    7.9855   19.7025 H   0  0  0  0  0  0  0  0  0  0  0  0
   50.0958    9.4630   17.7475 H   0  0  0  0  0  0  0  0  0  0  0  0
 10  9  1  0
 11  4  2  0
 12  3  2  0
 13  6  2  0
 14  5  2  0
 15  8  1  0
 16 10  1  0
 17 10  1  0
 18 12  1  0
 19 11  1  0
 20 19  2  0
 21 18  2  0
  5  2  1  0
 13 20  1  0
 14 21  1  0
  2  6  1  0
  3  1  1  0
  4  1  1  0
  5  3  1  0
  6  4  1  0
  7  1  1  0
  8  7  1  0
  9  8  1  0
 31 30  1  0
 32 25  2  0
 33 24  2  0
 34 27  2  0
 35 26  2  0
 36 29  1  0
 37 31  1  0
 38 31  1  0
 39 33  1  0
 40 32  1  0
 41 40  2  0
 42 39  2  0
 26 23  1  0
 34 41  1  0
 35 42  1  0
 23 27  1  0
 24 22  1  0
 25 22  1  0
 26 24  1  0
 27 25  1  0
 28 22  1  0
 29 28  1  0
 30 29  1  0
 49 44  2  0
 50 47  1  0
 51 48  1  0
 49 43  1  0
 51 52  1  0
 50 51  1  0
 52 45  1  0
 49 50  1  0
 52 46  2  0
  7 53  1  0
  7 54  1  0
  8 55  1  1
  9 56  1  0
  9 57  1  0
 11 58  1  0
 12 59  1  0
 13 60  1  0
 14 61  1  0
 15 62  1  0
 15 63  1  0
 15 64  1  0
 16 65  1  0
 16 66  1  0
 16 67  1  0
 17 68  1  0
 17 69  1  0
 17 70  1  0
 18 71  1  0
 19 72  1  0
 20 73  1  0
 21 74  1  0
 28 75  1  0
 28 76  1  0
 29 77  1  1
 30 78  1  0
 30 79  1  0
 32 80  1  0
 33 81  1  0
 34 82  1  0
 35 83  1  0
 36 84  1  0
 36 85  1  0
 36 86  1  0
 37 87  1  0
 37 88  1  0
 37 89  1  0
 38 90  1  0
 38 91  1  0
 38 92  1  0
 39 93  1  0
 40 94  1  0
 41 95  1  0
 42 96  1  0
 43 97  1  0
 45 98  1  0
 47 99  1  0
 48100  1  0
 50101  1  1
 51102  1  6
M  END
> <Uni-Dock RESULT> 
ENERGY=   -4.216  LOWER_BOUND=    2.994  UPPER_BOUND=    6.057
INTER + INTRA:          -4.216
INTER:                  -4.216
INTRA:                   0.000
UNBOUND:                 0.000

$$$$

     RDKit          3D

102105  0  0  0  0  0  0  0  0999 V2000
   49.8554   10.3884   15.7009 N   0  0  0  0  0  0  0  0  0  0  0  0
   51.8985    8.6322   14.0281 S   0  0  0  0  0  0  0  0  0  0  0  0
   49.3057    9.4136   14.8120 C   0  0  0  0  0  0  0  0  0  0  0  0
   51.2533   10.6378   15.8952 C   0  0  0  0  0  0  0  0  0  0  0  0
   50.1257    8.5862   14.0160 C   0  0  0  0  0  0  0  0  0  0  0  0
   52.2438    9.9093   15.2067 C   0  0  0  0  0  0  0  0  0  0  0  0
   48.9162   11.3048   16.3982 C   0  0  0  0  0  0  0  0  0  0  0  0
   48.6803   10.9264   17.8844 C   0  0  1  0  0  0  0  0  0  0  0  0
   47.9898   12.1228   18.5848 C   0  0  0  0  0  0  0  0  0  0  0  0
   47.7014   11.9336   20.0169 N   0  0  0  0  0  0  0  0  0  0  0  0
   51.7348   11.6251   16.7902 C   0  0  0  0  0  0  0  0  0  0  0  0
   47.9138    9.1985   14.6736 C   0  0  0  0  0  0  0  0  0  0  0  0
   53.6168   10.1644   15.4120 C   0  0  0  0  0  0  0  0  0  0  0  0
   49.5733    7.6336   13.1320 C   0  0  0  0  0  0  0  0  0  0  0  0
   47.8578    9.6440   18.0430 C   0  0  0  0  0  0  0  0  0  0  0  0
   48.9211   11.8259   20.8209 C   0  0  0  0  0  0  0  0  0  0  0  0
   46.8760   13.0374   20.5144 C   0  0  0  0  0  0  0  0  0  0  0  0
   47.3683    8.2490   13.7974 C   0  0  0  0  0  0  0  0  0  0  0  0
   53.0987   11.8756   16.9913 C   0  0  0  0  0  0  0  0  0  0  0  0
   54.0444   11.1424   16.3000 C   0  0  0  0  0  0  0  0  0  0  0  0
   48.1999    7.4655   13.0202 C   0  0  0  0  0  0  0  0  0  0  0  0
   49.6604   10.6105   18.1463 N   0  0  0  0  0  0  0  0  0  0  0  0
   46.9890   12.1762   18.5518 S   0  0  0  0  0  0  0  0  0  0  0  0
   49.6371   11.9430   17.6576 C   0  0  0  0  0  0  0  0  0  0  0  0
   48.8108   10.1403   19.1845 C   0  0  0  0  0  0  0  0  0  0  0  0
   48.5008   12.7641   17.8113 C   0  0  0  0  0  0  0  0  0  0  0  0
   47.5875   10.7766   19.4795 C   0  0  0  0  0  0  0  0  0  0  0  0
   50.3775    9.5929   17.3314 C   0  0  0  0  0  0  0  0  0  0  0  0
   49.5968    9.0372   16.1128 C   0  0  2  0  0  0  0  0  0  0  0  0
   49.5493    9.9852   14.8957 C   0  0  0  0  0  0  0  0  0  0  0  0
   50.8724   10.3840   14.3734 N   0  0  0  0  0  0  0  0  0  0  0  0
   49.1797    9.0538   20.0037 C   0  0  0  0  0  0  0  0  0  0  0  0
   50.7694   12.5282   17.0576 C   0  0  0  0  0  0  0  0  0  0  0  0
   46.7573   10.2992   20.5085 C   0  0  0  0  0  0  0  0  0  0  0  0
   48.5002   14.0902   17.3443 C   0  0  0  0  0  0  0  0  0  0  0  0
   48.1812    8.5625   16.4530 C   0  0  0  0  0  0  0  0  0  0  0  0
   50.7059   11.4658   13.3965 C   0  0  0  0  0  0  0  0  0  0  0  0
   51.5799    9.2658   13.7448 C   0  0  0  0  0  0  0  0  0  0  0  0
   50.7669   13.8509   16.6000 C   0  0  0  0  0  0  0  0  0  0  0  0
   48.3530    8.5859   21.0315 C   0  0  0  0  0  0  0  0  0  0  0  0
   47.1363    9.2045   21.2794 C   0  0  0  0  0  0  0  0  0  0  0  0
   49.6297   14.6321   16.7386 C   0  0  0  0  0  0  0  0  0  0  0  0
   51.6707   11.3537   15.7579 O   0  0  0  0  0  0  0  0  0  0  0  0
   49.9521   10.7212   14.4845 O   0  0  0  0  0  0  0  0  0  0  0  0
   49.3234   12.5488   17.7484 O   0  0  0  0  0  0  0  0  0  0  0  0
   47.9285   11.5066   19.1469 O   0  0  0  0  0  0  0  0  0  0  0  0
   50.1399    8.5131   16.5702 O   0  0  0  0  0  0  0  0  0  0  0  0
   47.9085    9.1960   17.6433 O   0  0  0  0  0  0  0  0  0  0  0  0
   50.5147   10.6822   15.5687 C   0  0  0  0  0  0  0  0  0  0  0  0
   50.0562    9.9275   16.8070 C   0  0  1  0  0  0  0  0  0  0  0  0
   48.6106   10.3416   17.1155 C   0  0  2  0  0  0  0  0  0  0  0  0
   48.5892   11.4855   18.1188 C   0  0  0  0  0  0  0  0  0  0  0  0
   49.2975   12.3321   16.3243 H   0  0  0  0  0  0  0  0  0  0  0  0
   47.9560   11.4116   15.8838 H   0  0  0  0  0  0  0  0  0  0  0  0
   49.6477   10.7460   18.3640 H   0  0  0  0  0  0  0  0  0  0  0  0
   47.0413   12.3037   18.0609 H   0  0  0  0  0  0  0  0  0  0  0  0
   48.5967   13.0271   18.4465 H   0  0  0  0  0  0  0  0  0  0  0  0
   51.0653   12.2416   17.3793 H   0  0  0  0  0  0  0  0  0  0  0  0
   47.1841    9.7474   15.2560 H   0  0  0  0  0  0  0  0  0  0  0  0
   54.3672    9.5924   14.8694 H   0  0  0  0  0  0  0  0  0  0  0  0
   50.2242    7.0079   12.5238 H   0  0  0  0  0  0  0  0  0  0  0  0
   47.7342    9.3815   19.0989 H   0  0  0  0  0  0  0  0  0  0  0  0
   48.3544    8.7945   17.5651 H   0  0  0  0  0  0  0  0  0  0  0  0
   46.8585    9.7549   17.6094 H   0  0  0  0  0  0  0  0  0  0  0  0
   49.4883   10.9256   20.5642 H   0  0  0  0  0  0  0  0  0  0  0  0
   49.5742   12.6981   20.7002 H   0  0  0  0  0  0  0  0  0  0  0  0
   48.6727   11.7291   21.8846 H   0  0  0  0  0  0  0  0  0  0  0  0
   45.9326   13.0945   19.9601 H   0  0  0  0  0  0  0  0  0  0  0  0
   47.3857   14.0041   20.4292 H   0  0  0  0  0  0  0  0  0  0  0  0
   46.6097   12.8780   21.5653 H   0  0  0  0  0  0  0  0  0  0  0  0
   46.2897    8.1257   13.7364 H   0  0  0  0  0  0  0  0  0  0  0  0
   53.4106   12.6434   17.6946 H   0  0  0  0  0  0  0  0  0  0  0  0
   55.1045   11.3256   16.4473 H   0  0  0  0  0  0  0  0  0  0  0  0
   47.7891    6.7264   12.3385 H   0  0  0  0  0  0  0  0  0  0  0  0
   50.6453    8.7265   17.9445 H   0  0  0  0  0  0  0  0  0  0  0  0
   51.3590    9.9562   17.0103 H   0  0  0  0  0  0  0  0  0  0  0  0
   50.1349    8.1322   15.8012 H   0  0  0  0  0  0  0  0  0  0  0  0
   48.9822   10.8799   15.1806 H   0  0  0  0  0  0  0  0  0  0  0  0
   48.9682    9.5116   14.0915 H   0  0  0  0  0  0  0  0  0  0  0  0
   50.1432    8.5687   19.8873 H   0  0  0  0  0  0  0  0  0  0  0  0
   51.6945   11.9711   16.9500 H   0  0  0  0  0  0  0  0  0  0  0  0
   45.8068   10.7863   20.7161 H   0  0  0  0  0  0  0  0  0  0  0  0
   47.6135   14.7104   17.4547 H   0  0  0  0  0  0  0  0  0  0  0  0
   47.5136    9.3989   16.6764 H   0  0  0  0  0  0  0  0  0  0  0  0
   47.7479    8.0196   15.6054 H   0  0  0  0  0  0  0  0  0  0  0  0
   48.1893    7.8765   17.3054 H   0  0  0  0  0  0  0  0  0  0  0  0
   51.6811   11.8178   13.0423 H   0  0  0  0  0  0  0  0  0  0  0  0
   50.2121   12.3305   13.8529 H   0  0  0  0  0  0  0  0  0  0  0  0
   50.1149   11.1516   12.5283 H   0  0  0  0  0  0  0  0  0  0  0  0
   51.8279    8.4906   14.4758 H   0  0  0  0  0  0  0  0  0  0  0  0
   50.9998    8.8091   12.9344 H   0  0  0  0  0  0  0  0  0  0  0  0
   52.5379    9.6024   13.3309 H   0  0  0  0  0  0  0  0  0  0  0  0
   51.6624   14.2641   16.1427 H   0  0  0  0  0  0  0  0  0  0  0  0
   48.6713    7.7463   21.6437 H   0  0  0  0  0  0  0  0  0  0  0  0
   46.4901    8.8484   22.0767 H   0  0  0  0  0  0  0  0  0  0  0  0
   49.6224   15.6598   16.3868 H   0  0  0  0  0  0  0  0  0  0  0  0
   51.8637   11.7422   14.8790 H   0  0  0  0  0  0  0  0  0  0  0  0
   49.1946   13.2087   18.4642 H   0  0  0  0  0  0  0  0  0  0  0  0
   49.2395    8.1660   16.7485 H   0  0  0  0  0  0  0  0  0  0  0  0
   47.2095    9.5469   18.2316 H   0  0  0  0  0  0  0  0  0  0  0  0
   50.7253   10.1490   17.6460 H   0  0  0  0  0  0  0  0  0  0  0  0
   48.0540   10.6624   16.2287 H   0  0  0  0  0  0  0  0  0  0  0  0
 10  9  1  0
 11  4  2  0
 12  3  2  0
 13  6  2  0
 14  5  2  0
 15  8  1  0
 16 10  1  0
 17 10  1  0
 18 12  1  0
 19 11  1  0
 20 19  2  0
 21 18  2  0
  5  2  1  0
 13 20  1  0
 14 21  1  0
  2  6  1  0
  3  1  1  0
  4  1  1  0
  5  3  1  0
  6  4  1  0
  7  1  1  0
  8  7  1  0
  9  8  1  0
 31 30  1  0
 32 25  2  0
 33 24  2  0
 34 27  2  0
 35 26  2  0
 36 29  1  0
 37 31  1  0
 38 31  1  0
 39 33  1  0
 40 32  1  0
 41 40  2  0
 42 39  2  0
 26 23  1  0
 34 41  1  0
 35 42  1  0
 23 27  1  0
 24 22  1  0
 25 22  1  0
 26 24  1  0
 27 25  1  0
 28 22  1  0
 29 28  1  0
 30 29  1  0
 49 44  2  0
 50 47  1  0
 51 48  1  0
 49 43  1  0
 51 52  1  0
 50 51  1  0
 52 45  1  0
 49 50  1  0
 52 46  2  0
  7 53  1  0
  7 54  1  0
  8 55  1  1
  9 56  1  0
  9 57  1  0
 11 58  1  0
 12 59  1  0
 13 60  1  0
 14 61  1  0
 15 62  1  0
 15 63  1  0
 15 64  1  0
 16 65  1  0
 16 66  1  0
 16 67  1  0
 17 68  1  0
 17 69  1  0
 17 70  1  0
 18 71  1  0
 19 72  1  0
 20 73  1  0
 21 74  1  0
 28 75  1  0
 28 76  1  0
 29 77  1  1
 30 78  1  0
 30 79  1  0
 32 80  1  0
 33 81  1  0
 34 82  1  0
 35 83  1  0
 36 84  1  0
 36 85  1  0
 36 86  1  0
 37 87  1  0
 37 88  1  0
 37 89  1  0
 38 90  1  0
 38 91  1  0
 38 92  1  0
 39 93  1  0
 40 94  1  0
 41 95  1  0
 42 96  1  0
 43 97  1  0
 45 98  1  0
 47 99  1  0
 48100  1  0
 50101  1  1
 51102  1  6
M  END
> <Uni-Dock RESULT> 
ENERGY=   -4.173  LOWER_BOUND=    5.161  UPPER_BOUND=    8.031
INTER + INTRA:          -4.173
INTER:                  -4.173
INTRA:                   0.000
UNBOUND:                 0.000

$$$$

     RDKit          3D

102105  0  0  0  0  0  0  0  0999 V2000
   49.2450    9.0829   15.2186 N   0  0  0  0  0  0  0  0  0  0  0  0
   50.9380    9.2324   12.5411 S   0  0  0  0  0  0  0  0  0  0  0  0
   48.7196    8.4086   14.0734 C   0  0  0  0  0  0  0  0  0  0  0  0
   50.4724    9.8223   15.2540 C   0  0  0  0  0  0  0  0  0  0  0  0
   49.3888    8.4194   12.8313 C   0  0  0  0  0  0  0  0  0  0  0  0
   51.3023    9.9452   14.1218 C   0  0  0  0  0  0  0  0  0  0  0  0
   48.4077    9.1305   16.4452 C   0  0  0  0  0  0  0  0  0  0  0  0
   48.8673    8.1320   17.5405 C   0  0  1  0  0  0  0  0  0  0  0  0
   48.1666    8.5135   18.8680 C   0  0  0  0  0  0  0  0  0  0  0  0
   48.5038    7.6658   20.0245 N   0  0  0  0  0  0  0  0  0  0  0  0
   50.9365   10.4743   16.4233 C   0  0  0  0  0  0  0  0  0  0  0  0
   47.5083    7.6773   14.1012 C   0  0  0  0  0  0  0  0  0  0  0  0
   52.5100   10.6738   14.1740 C   0  0  0  0  0  0  0  0  0  0  0  0
   48.8561    7.7597   11.7021 C   0  0  0  0  0  0  0  0  0  0  0  0
   48.5842    6.6742   17.1656 C   0  0  0  0  0  0  0  0  0  0  0  0
   49.9079    7.7971   20.4206 C   0  0  0  0  0  0  0  0  0  0  0  0
   47.6363    7.9937   21.1590 C   0  0  0  0  0  0  0  0  0  0  0  0
   46.9836    7.0202   12.9789 C   0  0  0  0  0  0  0  0  0  0  0  0
   52.1360   11.1969   16.4713 C   0  0  0  0  0  0  0  0  0  0  0  0
   52.9270   11.2973   15.3424 C   0  0  0  0  0  0  0  0  0  0  0  0
   47.6571    7.0639   11.7731 C   0  0  0  0  0  0  0  0  0  0  0  0
   49.9204    8.2054   17.4188 N   0  0  0  0  0  0  0  0  0  0  0  0
   47.2589    8.1287   19.0506 S   0  0  0  0  0  0  0  0  0  0  0  0
   49.3220    9.4622   17.6972 C   0  0  0  0  0  0  0  0  0  0  0  0
   49.7006    7.0405   18.2034 C   0  0  0  0  0  0  0  0  0  0  0  0
   48.1369    9.5620   18.4551 C   0  0  0  0  0  0  0  0  0  0  0  0
   48.5465    6.8971   19.0009 C   0  0  0  0  0  0  0  0  0  0  0  0
   50.5486    8.0252   16.0822 C   0  0  0  0  0  0  0  0  0  0  0  0
   49.5726    7.7175   14.9178 C   0  0  2  0  0  0  0  0  0  0  0  0
   48.7952    8.9430   14.3923 C   0  0  0  0  0  0  0  0  0  0  0  0
   49.6449   10.0541   13.9173 N   0  0  0  0  0  0  0  0  0  0  0  0
   50.6530    6.0029   18.2655 C   0  0  0  0  0  0  0  0  0  0  0  0
   49.9197   10.6702   17.2874 C   0  0  0  0  0  0  0  0  0  0  0  0
   48.3425    5.7386   19.7706 C   0  0  0  0  0  0  0  0  0  0  0  0
   47.5684   10.8150   18.7441 C   0  0  0  0  0  0  0  0  0  0  0  0
   48.5961    6.5767   15.2181 C   0  0  0  0  0  0  0  0  0  0  0  0
   48.8129   11.2397   13.6836 C   0  0  0  0  0  0  0  0  0  0  0  0
   50.3642    9.7147   12.6870 C   0  0  0  0  0  0  0  0  0  0  0  0
   49.3541   11.9159   17.5830 C   0  0  0  0  0  0  0  0  0  0  0  0
   50.4488    4.8542   19.0383 C   0  0  0  0  0  0  0  0  0  0  0  0
   49.2882    4.7180   19.7859 C   0  0  0  0  0  0  0  0  0  0  0  0
   48.1743   11.9891   18.3079 C   0  0  0  0  0  0  0  0  0  0  0  0
   50.5755   10.6372   15.4300 O   0  0  0  0  0  0  0  0  0  0  0  0
   48.7774    9.8763   14.3516 O   0  0  0  0  0  0  0  0  0  0  0  0
   48.9003    9.7758   18.1415 O   0  0  0  0  0  0  0  0  0  0  0  0
   48.5054    7.7672   19.0343 O   0  0  0  0  0  0  0  0  0  0  0  0
   50.3762    7.3530   14.9332 O   0  0  0  0  0  0  0  0  0  0  0  0
   48.6126    6.4943   16.5913 O   0  0  0  0  0  0  0  0  0  0  0  0
   49.6881    9.6624   15.1380 C   0  0  0  0  0  0  0  0  0  0  0  0
   49.9712    8.3612   15.8729 C   0  0  1  0  0  0  0  0  0  0  0  0
   48.6927    7.9356   16.6083 C   0  0  2  0  0  0  0  0  0  0  0  0
   48.7088    8.4492   18.0406 C   0  0  0  0  0  0  0  0  0  0  0  0
   48.4104   10.1551   16.8408 H   0  0  0  0  0  0  0  0  0  0  0  0
   47.3401    8.9977   16.2442 H   0  0  0  0  0  0  0  0  0  0  0  0
   49.9502    8.2225   17.6733 H   0  0  0  0  0  0  0  0  0  0  0  0
   47.0837    8.4493   18.6949 H   0  0  0  0  0  0  0  0  0  0  0  0
   48.3801    9.5639   19.1052 H   0  0  0  0  0  0  0  0  0  0  0  0
   50.3849   10.4421   17.3561 H   0  0  0  0  0  0  0  0  0  0  0  0
   46.9212    7.5668   15.0047 H   0  0  0  0  0  0  0  0  0  0  0  0
   53.1369   10.7590   13.2883 H   0  0  0  0  0  0  0  0  0  0  0  0
   49.3871    7.7839   10.7520 H   0  0  0  0  0  0  0  0  0  0  0  0
   48.9475    5.9893   17.9389 H   0  0  0  0  0  0  0  0  0  0  0  0
   49.0945    6.3984   16.2382 H   0  0  0  0  0  0  0  0  0  0  0  0
   47.5111    6.4954   17.0416 H   0  0  0  0  0  0  0  0  0  0  0  0
   50.5779    7.4238   19.6397 H   0  0  0  0  0  0  0  0  0  0  0  0
   50.1781    8.8350   20.6477 H   0  0  0  0  0  0  0  0  0  0  0  0
   50.1152    7.1876   21.3083 H   0  0  0  0  0  0  0  0  0  0  0  0
   46.5832    7.8442   20.8959 H   0  0  0  0  0  0  0  0  0  0  0  0
   47.7656    9.0304   21.4906 H   0  0  0  0  0  0  0  0  0  0  0  0
   47.8417    7.3309   22.0072 H   0  0  0  0  0  0  0  0  0  0  0  0
   46.0493    6.4700   13.0616 H   0  0  0  0  0  0  0  0  0  0  0  0
   52.4448   11.6735   17.3981 H   0  0  0  0  0  0  0  0  0  0  0  0
   53.8594   11.8533   15.3663 H   0  0  0  0  0  0  0  0  0  0  0  0
   47.2610    6.5583   10.8971 H   0  0  0  0  0  0  0  0  0  0  0  0
   51.2699    7.2021   16.1028 H   0  0  0  0  0  0  0  0  0  0  0  0
   51.1837    8.8775   15.8200 H   0  0  0  0  0  0  0  0  0  0  0  0
   50.1979    7.3493   14.0937 H   0  0  0  0  0  0  0  0  0  0  0  0
   48.1375    9.3006   15.1941 H   0  0  0  0  0  0  0  0  0  0  0  0
   48.1249    8.6249   13.5811 H   0  0  0  0  0  0  0  0  0  0  0  0
   51.6005    6.0828   17.7428 H   0  0  0  0  0  0  0  0  0  0  0  0
   50.8580   10.6717   16.7423 H   0  0  0  0  0  0  0  0  0  0  0  0
   47.4399    5.6299   20.3682 H   0  0  0  0  0  0  0  0  0  0  0  0
   46.6461   10.8801   19.3170 H   0  0  0  0  0  0  0  0  0  0  0  0
   47.8444    6.8676   15.9567 H   0  0  0  0  0  0  0  0  0  0  0  0
   48.0601    6.2850   14.3079 H   0  0  0  0  0  0  0  0  0  0  0  0
   49.1249    5.6895   15.5795 H   0  0  0  0  0  0  0  0  0  0  0  0
   49.4335   12.0932   13.3891 H   0  0  0  0  0  0  0  0  0  0  0  0
   48.2925   11.5374   14.6004 H   0  0  0  0  0  0  0  0  0  0  0  0
   48.0627   11.0709   12.9023 H   0  0  0  0  0  0  0  0  0  0  0  0
   51.0850    8.9096   12.8569 H   0  0  0  0  0  0  0  0  0  0  0  0
   49.6874    9.4131   11.8790 H   0  0  0  0  0  0  0  0  0  0  0  0
   50.9519   10.5720   12.3376 H   0  0  0  0  0  0  0  0  0  0  0  0
   49.8479   12.8245   17.2479 H   0  0  0  0  0  0  0  0  0  0  0  0
   51.2062    4.0752   19.0625 H   0  0  0  0  0  0  0  0  0  0  0  0
   49.1234    3.8302   20.3899 H   0  0  0  0  0  0  0  0  0  0  0  0
   47.7316   12.9532   18.5417 H   0  0  0  0  0  0  0  0  0  0  0  0
   50.3018   11.3839   14.8571 H   0  0  0  0  0  0  0  0  0  0  0  0
   48.8584    9.9665   19.1040 H   0  0  0  0  0  0  0  0  0  0  0  0
   49.7543    6.6062   15.0691 H   0  0  0  0  0  0  0  0  0  0  0  0
   48.1135    6.2356   17.3924 H   0  0  0  0  0  0  0  0  0  0  0  0
   50.8066    8.5013   16.5679 H   0  0  0  0  0  0  0  0  0  0  0  0
   47.7773    8.3007   16.1310 H   0  0  0  0  0  0  0  0  0  0  0  0
 10  9  1  0
 11  4  2  0
 12  3  2  0
 13  6  2  0
 14  5  2  0
 15  8  1  0
 16 10  1  0
 17 10  1  0
 18 12  1  0
 19 11  1  0
 20 19  2  0
 21 18  2  0
  5  2  1  0
 13 20  1  0
 14 21  1  0
  2  6  1  0
  3  1  1  0
  4  1  1  0
  5  3  1  0
  6  4  1  0
  7  1  1  0
  8  7  1  0
  9  8  1  0
 31 30  1  0
 32 25  2  0
 33 24  2  0
 34 27  2  0
 35 26  2  0
 36 29  1  0
 37 31  1  0
 38 31  1  0
 39 33  1  0
 40 32  1  0
 41 40  2  0
 42 39  2  0
 26 23  1  0
 34 41  1  0
 35 42  1  0
 23 27  1  0
 24 22  1  0
 25 22  1  0
 26 24  1  0
 27 25  1  0
 28 22  1  0
 29 28  1  0
 30 29  1  0
 49 44  2  0
 50 47  1  0
 51 48  1  0
 49 43  1  0
 51 52  1  0
 50 51  1  0
 52 45  1  0
 49 50  1  0
 52 46  2  0
  7 53  1  0
  7 54  1  0
  8 55  1  1
  9 56  1  0
  9 57  1  0
 11 58  1  0
 12 59  1  0
 13 60  1  0
 14 61  1  0
 15 62  1  0
 15 63  1  0
 15 64  1  0
 16 65  1  0
 16 66  1  0
 16 67  1  0
 17 68  1  0
 17 69  1  0
 17 70  1  0
 18 71  1  0
 19 72  1  0
 20 73  1  0
 21 74  1  0
 28 75  1  0
 28 76  1  0
 29 77  1  1
 30 78  1  0
 30 79  1  0
 32 80  1  0
 33 81  1  0
 34 82  1  0
 35 83  1  0
 36 84  1  0
 36 85  1  0
 36 86  1  0
 37 87  1  0
 37 88  1  0
 37 89  1  0
 38 90  1  0
 38 91  1  0
 38 92  1  0
 39 93  1  0
 40 94  1  0
 41 95  1  0
 42 96  1  0
 43 97  1  0
 45 98  1  0
 47 99  1  0
 48100  1  0
 50101  1  1
 51102  1  6
M  END
> <Uni-Dock RESULT> 
ENERGY=   -4.100  LOWER_BOUND=    4.326  UPPER_BOUND=    6.660
INTER + INTRA:          -4.100
INTER:                  -4.100
INTRA:                   0.000
UNBOUND:                 0.000

$$$$

     RDKit          3D

102105  0  0  0  0  0  0  0  0999 V2000
   49.6778   10.1622   11.8665 N   0  0  0  0  0  0  0  0  0  0  0  0
   51.1334    8.6268   14.2289 S   0  0  0  0  0  0  0  0  0  0  0  0
   49.0788    8.9487   12.3256 C   0  0  0  0  0  0  0  0  0  0  0  0
   50.8830   10.7393   12.3851 C   0  0  0  0  0  0  0  0  0  0  0  0
   49.6492    8.1841   13.3652 C   0  0  0  0  0  0  0  0  0  0  0  0
   51.6033   10.1412   13.4383 C   0  0  0  0  0  0  0  0  0  0  0  0
   49.0819   10.8290   10.6798 C   0  0  0  0  0  0  0  0  0  0  0  0
   48.2207   12.0684   11.0408 C   0  0  1  0  0  0  0  0  0  0  0  0
   47.9561   12.8689    9.7416 C   0  0  0  0  0  0  0  0  0  0  0  0
   47.1550   14.0938    9.9085 N   0  0  0  0  0  0  0  0  0  0  0  0
   51.4292   11.9458   11.8814 C   0  0  0  0  0  0  0  0  0  0  0  0
   47.8755    8.4342   11.7868 C   0  0  0  0  0  0  0  0  0  0  0  0
   52.7867   10.7241   13.9404 C   0  0  0  0  0  0  0  0  0  0  0  0
   49.0561    6.9801   13.8044 C   0  0  0  0  0  0  0  0  0  0  0  0
   46.9082   11.6925   11.7350 C   0  0  0  0  0  0  0  0  0  0  0  0
   47.8483   15.1080   10.7062 C   0  0  0  0  0  0  0  0  0  0  0  0
   46.8044   14.6484    8.5983 C   0  0  0  0  0  0  0  0  0  0  0  0
   47.2871    7.2400   12.2276 C   0  0  0  0  0  0  0  0  0  0  0  0
   52.6044   12.5213   12.3823 C   0  0  0  0  0  0  0  0  0  0  0  0
   53.2865   11.9088   13.4165 C   0  0  0  0  0  0  0  0  0  0  0  0
   47.8806    6.5072   13.2376 C   0  0  0  0  0  0  0  0  0  0  0  0
   48.8023   12.4644   11.8370 N   0  0  0  0  0  0  0  0  0  0  0  0
   47.1627   12.6149    9.1835 S   0  0  0  0  0  0  0  0  0  0  0  0
   49.5473   12.3438   10.6348 C   0  0  0  0  0  0  0  0  0  0  0  0
   47.5410   13.1152   11.9168 C   0  0  0  0  0  0  0  0  0  0  0  0
   48.9262   12.4301    9.3716 C   0  0  0  0  0  0  0  0  0  0  0  0
   46.7173   13.2657   10.7822 C   0  0  0  0  0  0  0  0  0  0  0  0
   49.2080   11.6089   12.9847 C   0  0  0  0  0  0  0  0  0  0  0  0
   48.7166   10.1395   12.9332 C   0  0  2  0  0  0  0  0  0  0  0  0
   49.5105    9.2317   11.9699 C   0  0  0  0  0  0  0  0  0  0  0  0
   50.9598    9.1580   12.2467 N   0  0  0  0  0  0  0  0  0  0  0  0
   47.0831   13.6906   13.1195 C   0  0  0  0  0  0  0  0  0  0  0  0
   50.9487   12.2001   10.6470 C   0  0  0  0  0  0  0  0  0  0  0  0
   45.4718   13.9106   10.8769 C   0  0  0  0  0  0  0  0  0  0  0  0
   49.6799   12.3334    8.1887 C   0  0  0  0  0  0  0  0  0  0  0  0
   47.2171   10.0011   12.6549 C   0  0  0  0  0  0  0  0  0  0  0  0
   51.6357    8.4815   11.1341 C   0  0  0  0  0  0  0  0  0  0  0  0
   51.2501    8.4489   13.4954 C   0  0  0  0  0  0  0  0  0  0  0  0
   51.6961   12.1110    9.4671 C   0  0  0  0  0  0  0  0  0  0  0  0
   45.8452   14.3376   13.2079 C   0  0  0  0  0  0  0  0  0  0  0  0
   45.0347   14.4410   12.0868 C   0  0  0  0  0  0  0  0  0  0  0  0
   51.0612   12.1726    8.2359 C   0  0  0  0  0  0  0  0  0  0  0  0
   51.5974   10.8936   11.9712 O   0  0  0  0  0  0  0  0  0  0  0  0
   50.3133    9.1311   11.5023 O   0  0  0  0  0  0  0  0  0  0  0  0
   49.5309   12.5104    9.9673 O   0  0  0  0  0  0  0  0  0  0  0  0
   47.4400   13.2225   10.2965 O   0  0  0  0  0  0  0  0  0  0  0  0
   48.7773   10.5618   13.7058 O   0  0  0  0  0  0  0  0  0  0  0  0
   46.8810   11.2148   12.1011 O   0  0  0  0  0  0  0  0  0  0  0  0
   50.4003   10.2700   11.9368 C   0  0  0  0  0  0  0  0  0  0  0  0
   49.2677   11.1277   12.4798 C   0  0  1  0  0  0  0  0  0  0  0  0
   48.1552   11.1810   11.4235 C   0  0  2  0  0  0  0  0  0  0  0  0
   48.3197   12.4102   10.5416 C   0  0  0  0  0  0  0  0  0  0  0  0
   49.8860   11.1143    9.9881 H   0  0  0  0  0  0  0  0  0  0  0  0
   48.5064   10.1473   10.0456 H   0  0  0  0  0  0  0  0  0  0  0  0
   48.7805   12.7003   11.7378 H   0  0  0  0  0  0  0  0  0  0  0  0
   47.4270   12.2001    9.0490 H   0  0  0  0  0  0  0  0  0  0  0  0
   48.9128   13.1155    9.2630 H   0  0  0  0  0  0  0  0  0  0  0  0
   50.9571   12.4978   11.0766 H   0  0  0  0  0  0  0  0  0  0  0  0
   47.3253    8.9484   11.0083 H   0  0  0  0  0  0  0  0  0  0  0  0
   53.3304   10.2462   14.7534 H   0  0  0  0  0  0  0  0  0  0  0  0
   49.5151    6.4034   14.6056 H   0  0  0  0  0  0  0  0  0  0  0  0
   46.3358   12.5850   12.0084 H   0  0  0  0  0  0  0  0  0  0  0  0
   47.0949   11.1438   12.6627 H   0  0  0  0  0  0  0  0  0  0  0  0
   46.2754   11.0783   11.0860 H   0  0  0  0  0  0  0  0  0  0  0  0
   47.9970   14.7702   11.7367 H   0  0  0  0  0  0  0  0  0  0  0  0
   48.8229   15.3738   10.2804 H   0  0  0  0  0  0  0  0  0  0  0  0
   47.2448   16.0209   10.7754 H   0  0  0  0  0  0  0  0  0  0  0  0
   46.2338   13.9205    8.0109 H   0  0  0  0  0  0  0  0  0  0  0  0
   47.6910   14.9379    8.0226 H   0  0  0  0  0  0  0  0  0  0  0  0
   46.1619   15.5290    8.7106 H   0  0  0  0  0  0  0  0  0  0  0  0
   46.3588    6.8959   11.7778 H   0  0  0  0  0  0  0  0  0  0  0  0
   52.9750   13.4515   11.9596 H   0  0  0  0  0  0  0  0  0  0  0  0
   54.1977   12.3449   13.8148 H   0  0  0  0  0  0  0  0  0  0  0  0
   47.4339    5.5811   13.5878 H   0  0  0  0  0  0  0  0  0  0  0  0
   48.8344   12.0239   13.9262 H   0  0  0  0  0  0  0  0  0  0  0  0
   50.2914   11.6338   13.1395 H   0  0  0  0  0  0  0  0  0  0  0  0
   48.8573    9.7421   13.9471 H   0  0  0  0  0  0  0  0  0  0  0  0
   49.3501    9.5946   10.9473 H   0  0  0  0  0  0  0  0  0  0  0  0
   49.0835    8.2189   11.9937 H   0  0  0  0  0  0  0  0  0  0  0  0
   47.7005   13.6848   14.0118 H   0  0  0  0  0  0  0  0  0  0  0  0
   51.4988   12.1749   11.5822 H   0  0  0  0  0  0  0  0  0  0  0  0
   44.8358   14.0054    9.9993 H   0  0  0  0  0  0  0  0  0  0  0  0
   49.1891   12.3865    7.2195 H   0  0  0  0  0  0  0  0  0  0  0  0
   46.9677   10.2675   11.6244 H   0  0  0  0  0  0  0  0  0  0  0  0
   46.8956    8.9648   12.8085 H   0  0  0  0  0  0  0  0  0  0  0  0
   46.6303   10.6253   13.3355 H   0  0  0  0  0  0  0  0  0  0  0  0
   52.7198    8.4711   11.2919 H   0  0  0  0  0  0  0  0  0  0  0  0
   51.4653    9.0147   10.1926 H   0  0  0  0  0  0  0  0  0  0  0  0
   51.2937    7.4474   11.0099 H   0  0  0  0  0  0  0  0  0  0  0  0
   50.8619    8.9932   14.3614 H   0  0  0  0  0  0  0  0  0  0  0  0
   50.8336    7.4349   13.5046 H   0  0  0  0  0  0  0  0  0  0  0  0
   52.3329    8.3744   13.6511 H   0  0  0  0  0  0  0  0  0  0  0  0
   52.7762   12.0007    9.5210 H   0  0  0  0  0  0  0  0  0  0  0  0
   45.5258   14.7705   14.1521 H   0  0  0  0  0  0  0  0  0  0  0  0
   44.0734   14.9435   12.1470 H   0  0  0  0  0  0  0  0  0  0  0  0
   51.6363   12.1055    7.3167 H   0  0  0  0  0  0  0  0  0  0  0  0
   52.2253   10.2157   11.6441 H   0  0  0  0  0  0  0  0  0  0  0  0
   49.4839   13.3203    9.4138 H   0  0  0  0  0  0  0  0  0  0  0  0
   47.8158   10.4265   13.5633 H   0  0  0  0  0  0  0  0  0  0  0  0
   46.2649   11.6908   11.5082 H   0  0  0  0  0  0  0  0  0  0  0  0
   49.6421   12.1290   12.7198 H   0  0  0  0  0  0  0  0  0  0  0  0
   48.1345   10.3010   10.7721 H   0  0  0  0  0  0  0  0  0  0  0  0
 10  9  1  0
 11  4  2  0
 12  3  2  0
 13  6  2  0
 14  5  2  0
 15  8  1  0
 16 10  1  0
 17 10  1  0
 18 12  1  0
 19 11  1  0
 20 19  2  0
 21 18  2  0
  5  2  1  0
 13 20  1  0
 14 21  1  0
  2  6  1  0
  3  1  1  0
  4  1  1  0
  5  3  1  0
  6  4  1  0
  7  1  1  0
  8  7  1  0
  9  8  1  0
 31 30  1  0
 32 25  2  0
 33 24  2  0
 34 27  2  0
 35 26  2  0
 36 29  1  0
 37 31  1  0
 38 31  1  0
 39 33  1  0
 40 32  1  0
 41 40  2  0
 42 39  2  0
 26 23  1  0
 34 41  1  0
 35 42  1  0
 23 27  1  0
 24 22  1  0
 25 22  1  0
 26 24  1  0
 27 25  1  0
 28 22  1  0
 29 28  1  0
 30 29  1  0
 49 44  2  0
 50 47  1  0
 51 48  1  0
 49 43  1  0
 51 52  1  0
 50 51  1  0
 52 45  1  0
 49 50  1  0
 52 46  2  0
  7 53  1  0
  7 54  1  0
  8 55  1  1
  9 56  1  0
  9 57  1  0
 11 58  1  0
 12 59  1  0
 13 60  1  0
 14 61  1  0
 15 62  1  0
 15 63  1  0
 15 64  1  0
 16 65  1  0
 16 66  1  0
 16 67  1  0
 17 68  1  0
 17 69  1  0
 17 70  1  0
 18 71  1  0
 19 72  1  0
 20 73  1  0
 21 74  1  0
 28 75  1  0
 28 76  1  0
 29 77  1  1
 30 78  1  0
 30 79  1  0
 32 80  1  0
 33 81  1  0
 34 82  1  0
 35 83  1  0
 36 84  1  0
 36 85  1  0
 36 86  1  0
 37 87  1  0
 37 88  1  0
 37 89  1  0
 38 90  1  0
 38 91  1  0
 38 92  1  0
 39 93  1  0
 40 94  1  0
 41 95  1  0
 42 96  1  0
 43 97  1  0
 45 98  1  0
 47 99  1  0
 48100  1  0
 50101  1  1
 51102  1  6
M  END
> <Uni-Dock RESULT> 
ENERGY=   -3.900  LOWER_BOUND=    8.969  UPPER_BOUND=   11.424
INTER + INTRA:          -3.900
INTER:                  -3.900
INTRA:                   0.000
UNBOUND:                 0.000

$$$$
