
     RDKit          3D

102105  0  0  0  0  0  0  0  0999 V2000
   48.0913    8.1749   18.7693 N   0  0  0  0  0  0  0  0  0  0  0  0
   48.8696    5.4513   17.3456 S   0  0  0  0  0  0  0  0  0  0  0  0
   48.2068    7.0148   19.5955 C   0  0  0  0  0  0  0  0  0  0  0  0
   48.3121    8.2105   17.3537 C   0  0  0  0  0  0  0  0  0  0  0  0
   48.5486    5.7536   19.0635 C   0  0  0  0  0  0  0  0  0  0  0  0
   48.6714    7.0588   16.6263 C   0  0  0  0  0  0  0  0  0  0  0  0
   47.6189    9.4362   19.3953 C   0  0  0  0  0  0  0  0  0  0  0  0
   48.7639   10.4426   19.6837 C   0  0  1  0  0  0  0  0  0  0  0  0
   48.1335   11.8270   19.9789 C   0  0  0  0  0  0  0  0  0  0  0  0
   49.0963   12.9009   20.2812 N   0  0  0  0  0  0  0  0  0  0  0  0
   48.1876    9.3973   16.5896 C   0  0  0  0  0  0  0  0  0  0  0  0
   48.0040    7.0463   20.9959 C   0  0  0  0  0  0  0  0  0  0  0  0
   48.8941    7.1105   15.2329 C   0  0  0  0  0  0  0  0  0  0  0  0
   48.6590    4.6128   19.8878 C   0  0  0  0  0  0  0  0  0  0  0  0
   49.6694    9.9902   20.8317 C   0  0  0  0  0  0  0  0  0  0  0  0
   48.3916   14.0925   20.7634 C   0  0  0  0  0  0  0  0  0  0  0  0
   49.9157   13.2514   19.1191 C   0  0  0  0  0  0  0  0  0  0  0  0
   48.1217    5.9122   21.8120 C   0  0  0  0  0  0  0  0  0  0  0  0
   48.4047    9.4441   15.2058 C   0  0  0  0  0  0  0  0  0  0  0  0
   48.7598    8.2960   14.5237 C   0  0  0  0  0  0  0  0  0  0  0  0
   48.4458    4.6893   21.2565 C   0  0  0  0  0  0  0  0  0  0  0  0
   49.2578   10.3969   19.0383 N   0  0  0  0  0  0  0  0  0  0  0  0
   46.8984   12.1632   20.0832 S   0  0  0  0  0  0  0  0  0  0  0  0
   49.0458   10.3938   20.4406 C   0  0  0  0  0  0  0  0  0  0  0  0
   48.8094   11.4279   18.1680 C   0  0  0  0  0  0  0  0  0  0  0  0
   48.0311   11.1690   21.0365 C   0  0  0  0  0  0  0  0  0  0  0  0
   47.7750   12.3096   18.5379 C   0  0  0  0  0  0  0  0  0  0  0  0
   49.5805    9.0887   18.4055 C   0  0  0  0  0  0  0  0  0  0  0  0
   48.3595    8.4315   17.7138 C   0  0  2  0  0  0  0  0  0  0  0  0
   47.3832    7.7682   18.7156 C   0  0  0  0  0  0  0  0  0  0  0  0
   47.9612    6.6573   19.5007 N   0  0  0  0  0  0  0  0  0  0  0  0
   49.4134   11.6317   16.9105 C   0  0  0  0  0  0  0  0  0  0  0  0
   49.8938    9.6696   21.3031 C   0  0  0  0  0  0  0  0  0  0  0  0
   47.3512   13.3231   17.6604 C   0  0  0  0  0  0  0  0  0  0  0  0
   47.8485   11.1610   22.4304 C   0  0  0  0  0  0  0  0  0  0  0  0
   48.8430    7.4697   16.6252 C   0  0  0  0  0  0  0  0  0  0  0  0
   47.6379    5.3506   18.9144 C   0  0  0  0  0  0  0  0  0  0  0  0
   47.4467    6.6867   20.8762 C   0  0  0  0  0  0  0  0  0  0  0  0
   49.7149    9.6740   22.6904 C   0  0  0  0  0  0  0  0  0  0  0  0
   48.9896   12.6433   16.0424 C   0  0  0  0  0  0  0  0  0  0  0  0
   47.9548   13.4870   16.4168 C   0  0  0  0  0  0  0  0  0  0  0  0
   48.6854   10.4135   23.2556 C   0  0  0  0  0  0  0  0  0  0  0  0
   49.9881    8.5721   17.9093 O   0  0  0  0  0  0  0  0  0  0  0  0
   48.6173    6.8368   18.2049 O   0  0  0  0  0  0  0  0  0  0  0  0
   49.0420   11.6652   18.5311 O   0  0  0  0  0  0  0  0  0  0  0  0
   47.7676   10.3880   17.2057 O   0  0  0  0  0  0  0  0  0  0  0  0
   47.7371    7.7502   20.6334 O   0  0  0  0  0  0  0  0  0  0  0  0
   47.9899   10.8296   20.7496 O   0  0  0  0  0  0  0  0  0  0  0  0
   49.0110    7.9314   18.5793 C   0  0  0  0  0  0  0  0  0  0  0  0
   48.5669    8.6377   19.8562 C   0  0  1  0  0  0  0  0  0  0  0  0
   47.7985    9.9445   19.6269 C   0  0  2  0  0  0  0  0  0  0  0  0
   48.1616   10.6561   18.3285 C   0  0  0  0  0  0  0  0  0  0  0  0
   46.8614    9.8953   18.7462 H   0  0  0  0  0  0  0  0  0  0  0  0
   47.0283    9.2732   20.3015 H   0  0  0  0  0  0  0  0  0  0  0  0
   49.3962   10.5268   18.7949 H   0  0  0  0  0  0  0  0  0  0  0  0
   47.4988   12.1261   19.1334 H   0  0  0  0  0  0  0  0  0  0  0  0
   47.4653   11.7030   20.8422 H   0  0  0  0  0  0  0  0  0  0  0  0
   47.9187   10.3452   17.0415 H   0  0  0  0  0  0  0  0  0  0  0  0
   47.7648    7.9608   21.5249 H   0  0  0  0  0  0  0  0  0  0  0  0
   49.1716    6.2094   14.6885 H   0  0  0  0  0  0  0  0  0  0  0  0
   48.9177    3.6476   19.4565 H   0  0  0  0  0  0  0  0  0  0  0  0
   49.1142    9.9092   21.7711 H   0  0  0  0  0  0  0  0  0  0  0  0
   50.4891   10.6979   20.9909 H   0  0  0  0  0  0  0  0  0  0  0  0
   50.1310    9.0234   20.6136 H   0  0  0  0  0  0  0  0  0  0  0  0
   47.8156   13.8596   21.6660 H   0  0  0  0  0  0  0  0  0  0  0  0
   47.7068   14.5003   20.0101 H   0  0  0  0  0  0  0  0  0  0  0  0
   49.1060   14.8757   21.0439 H   0  0  0  0  0  0  0  0  0  0  0  0
   50.6068   14.0658   19.3671 H   0  0  0  0  0  0  0  0  0  0  0  0
   50.5420   12.4119   18.8041 H   0  0  0  0  0  0  0  0  0  0  0  0
   49.3055   13.5692   18.2662 H   0  0  0  0  0  0  0  0  0  0  0  0
   47.9604    5.9967   22.8838 H   0  0  0  0  0  0  0  0  0  0  0  0
   48.2990   10.3857   14.6724 H   0  0  0  0  0  0  0  0  0  0  0  0
   48.9310    8.3191   13.4517 H   0  0  0  0  0  0  0  0  0  0  0  0
   48.5402    3.8041   21.8785 H   0  0  0  0  0  0  0  0  0  0  0  0
   50.3880    9.2382   17.6787 H   0  0  0  0  0  0  0  0  0  0  0  0
   50.0118    8.3711   19.1094 H   0  0  0  0  0  0  0  0  0  0  0  0
   47.7780    9.2011   17.1916 H   0  0  0  0  0  0  0  0  0  0  0  0
   47.0311    8.5639   19.3850 H   0  0  0  0  0  0  0  0  0  0  0  0
   46.4833    7.4351   18.1797 H   0  0  0  0  0  0  0  0  0  0  0  0
   50.2555   11.0236   16.5925 H   0  0  0  0  0  0  0  0  0  0  0  0
   50.7370    9.1088   20.9081 H   0  0  0  0  0  0  0  0  0  0  0  0
   46.5405   13.9896   17.9461 H   0  0  0  0  0  0  0  0  0  0  0  0
   47.0534   11.7470   22.8837 H   0  0  0  0  0  0  0  0  0  0  0  0
   49.5388    6.7252   17.0235 H   0  0  0  0  0  0  0  0  0  0  0  0
   49.3702    8.0191   15.8362 H   0  0  0  0  0  0  0  0  0  0  0  0
   47.9998    6.9521   16.1570 H   0  0  0  0  0  0  0  0  0  0  0  0
   46.5581    5.1641   18.8863 H   0  0  0  0  0  0  0  0  0  0  0  0
   48.0246    5.2537   17.8973 H   0  0  0  0  0  0  0  0  0  0  0  0
   48.1053    4.5496   19.4975 H   0  0  0  0  0  0  0  0  0  0  0  0
   46.3579    6.5692   20.9115 H   0  0  0  0  0  0  0  0  0  0  0  0
   47.9022    5.8902   21.4740 H   0  0  0  0  0  0  0  0  0  0  0  0
   47.7079    7.6270   21.3708 H   0  0  0  0  0  0  0  0  0  0  0  0
   50.3857    9.0999   23.3243 H   0  0  0  0  0  0  0  0  0  0  0  0
   49.4794   12.7733   15.0802 H   0  0  0  0  0  0  0  0  0  0  0  0
   47.6180   14.2739   15.7474 H   0  0  0  0  0  0  0  0  0  0  0  0
   48.5407   10.4204   24.3323 H   0  0  0  0  0  0  0  0  0  0  0  0
   50.1568    8.0015   17.1264 H   0  0  0  0  0  0  0  0  0  0  0  0
   49.1891   12.0365   17.6346 H   0  0  0  0  0  0  0  0  0  0  0  0
   48.0038    6.8367   20.4152 H   0  0  0  0  0  0  0  0  0  0  0  0
   48.7611   11.3885   20.5243 H   0  0  0  0  0  0  0  0  0  0  0  0
   49.4635    8.8129   20.4617 H   0  0  0  0  0  0  0  0  0  0  0  0
   46.7194    9.7550   19.5916 H   0  0  0  0  0  0  0  0  0  0  0  0
 10  9  1  0
 11  4  2  0
 12  3  2  0
 13  6  2  0
 14  5  2  0
 15  8  1  0
 16 10  1  0
 17 10  1  0
 18 12  1  0
 19 11  1  0
 20 19  2  0
 21 18  2  0
  5  2  1  0
 13 20  1  0
 14 21  1  0
  2  6  1  0
  3  1  1  0
  4  1  1  0
  5  3  1  0
  6  4  1  0
  7  1  1  0
  8  7  1  0
  9  8  1  0
 31 30  1  0
 32 25  2  0
 33 24  2  0
 34 27  2  0
 35 26  2  0
 36 29  1  0
 37 31  1  0
 38 31  1  0
 39 33  1  0
 40 32  1  0
 41 40  2  0
 42 39  2  0
 26 23  1  0
 34 41  1  0
 35 42  1  0
 23 27  1  0
 24 22  1  0
 25 22  1  0
 26 24  1  0
 27 25  1  0
 28 22  1  0
 29 28  1  0
 30 29  1  0
 49 44  2  0
 50 47  1  0
 51 48  1  0
 49 43  1  0
 51 52  1  0
 50 51  1  0
 52 45  1  0
 49 50  1  0
 52 46  2  0
  7 53  1  0
  7 54  1  0
  8 55  1  6
  9 56  1  0
  9 57  1  0
 11 58  1  0
 12 59  1  0
 13 60  1  0
 14 61  1  0
 15 62  1  0
 15 63  1  0
 15 64  1  0
 16 65  1  0
 16 66  1  0
 16 67  1  0
 17 68  1  0
 17 69  1  0
 17 70  1  0
 18 71  1  0
 19 72  1  0
 20 73  1  0
 21 74  1  0
 28 75  1  0
 28 76  1  0
 29 77  1  1
 30 78  1  0
 30 79  1  0
 32 80  1  0
 33 81  1  0
 34 82  1  0
 35 83  1  0
 36 84  1  0
 36 85  1  0
 36 86  1  0
 37 87  1  0
 37 88  1  0
 37 89  1  0
 38 90  1  0
 38 91  1  0
 38 92  1  0
 39 93  1  0
 40 94  1  0
 41 95  1  0
 42 96  1  0
 43 97  1  0
 45 98  1  0
 47 99  1  0
 48100  1  0
 50101  1  6
 51102  1  1
M  END
> <Uni-Dock RESULT> 
ENERGY=   -6.235  LOWER_BOUND=    0.000  UPPER_BOUND=    0.000
INTER + INTRA:          -6.235
INTER:                  -6.235
INTRA:                   0.000
UNBOUND:                 0.000

$$$$

     RDKit          3D

102105  0  0  0  0  0  0  0  0999 V2000
   47.8420    9.9173   18.8750 N   0  0  0  0  0  0  0  0  0  0  0  0
   47.5824   10.4588   21.9878 S   0  0  0  0  0  0  0  0  0  0  0  0
   47.8412   11.2803   19.3038 C   0  0  0  0  0  0  0  0  0  0  0  0
   47.7494    8.7763   19.7372 C   0  0  0  0  0  0  0  0  0  0  0  0
   47.7313   11.6317   20.6658 C   0  0  0  0  0  0  0  0  0  0  0  0
   47.6406    8.9060   21.1358 C   0  0  0  0  0  0  0  0  0  0  0  0
   47.8492    9.6424   17.4154 C   0  0  0  0  0  0  0  0  0  0  0  0
   49.2442    9.2277   16.8777 C   0  0  1  0  0  0  0  0  0  0  0  0
   49.0610    8.6196   15.4643 C   0  0  0  0  0  0  0  0  0  0  0  0
   50.3041    8.1777   14.8077 N   0  0  0  0  0  0  0  0  0  0  0  0
   47.7620    7.4459   19.2496 C   0  0  0  0  0  0  0  0  0  0  0  0
   47.9642   12.3676   18.4062 C   0  0  0  0  0  0  0  0  0  0  0  0
   47.5587    7.7725   21.9738 C   0  0  0  0  0  0  0  0  0  0  0  0
   47.7300   12.9814   21.0796 C   0  0  0  0  0  0  0  0  0  0  0  0
   50.2361   10.3931   16.8548 C   0  0  0  0  0  0  0  0  0  0  0  0
   50.0434    7.8369   13.4059 C   0  0  0  0  0  0  0  0  0  0  0  0
   50.9103    7.0309   15.4874 C   0  0  0  0  0  0  0  0  0  0  0  0
   47.9697   13.7067   18.8221 C   0  0  0  0  0  0  0  0  0  0  0  0
   47.6756    6.3231   20.0840 C   0  0  0  0  0  0  0  0  0  0  0  0
   47.5738    6.4863   21.4523 C   0  0  0  0  0  0  0  0  0  0  0  0
   47.8475   14.0163   20.1632 C   0  0  0  0  0  0  0  0  0  0  0  0
   49.5574    8.7381   17.4476 N   0  0  0  0  0  0  0  0  0  0  0  0
   48.0032    8.5182   14.7431 S   0  0  0  0  0  0  0  0  0  0  0  0
   49.6635    9.8485   16.5717 C   0  0  0  0  0  0  0  0  0  0  0  0
   49.2023    7.4262   17.0301 C   0  0  0  0  0  0  0  0  0  0  0  0
   49.0310    9.8597   15.3125 C   0  0  0  0  0  0  0  0  0  0  0  0
   48.5285    7.1943   15.8150 C   0  0  0  0  0  0  0  0  0  0  0  0
   49.3957    9.0394   18.8964 C   0  0  0  0  0  0  0  0  0  0  0  0
   47.9282    8.9228   19.3804 C   0  0  2  0  0  0  0  0  0  0  0  0
   47.0606   10.1390   18.9746 C   0  0  0  0  0  0  0  0  0  0  0  0
   47.4993   11.4305   19.5440 N   0  0  0  0  0  0  0  0  0  0  0  0
   49.5478    6.2988   17.8028 C   0  0  0  0  0  0  0  0  0  0  0  0
   50.4706   10.9576   16.8972 C   0  0  0  0  0  0  0  0  0  0  0  0
   48.1905    5.8871   15.4228 C   0  0  0  0  0  0  0  0  0  0  0  0
   49.1618   10.9659   14.4548 C   0  0  0  0  0  0  0  0  0  0  0  0
   47.9052    8.6487   20.8865 C   0  0  0  0  0  0  0  0  0  0  0  0
   46.7388   11.7799   20.7503 C   0  0  0  0  0  0  0  0  0  0  0  0
   47.3223   12.5055   18.5587 C   0  0  0  0  0  0  0  0  0  0  0  0
   50.6064   12.0508   16.0353 C   0  0  0  0  0  0  0  0  0  0  0  0
   49.2115    5.0002   17.4067 C   0  0  0  0  0  0  0  0  0  0  0  0
   48.5288    4.7952   16.2172 C   0  0  0  0  0  0  0  0  0  0  0  0
   49.9444   12.0601   14.8156 C   0  0  0  0  0  0  0  0  0  0  0  0
   49.5421    8.9590   19.7035 O   0  0  0  0  0  0  0  0  0  0  0  0
   47.8795   10.2869   20.3742 O   0  0  0  0  0  0  0  0  0  0  0  0
   49.5604    7.5615   16.7208 O   0  0  0  0  0  0  0  0  0  0  0  0
   47.7488    7.3289   18.0152 O   0  0  0  0  0  0  0  0  0  0  0  0
   47.8094   11.6537   18.0006 O   0  0  0  0  0  0  0  0  0  0  0  0
   48.8444    9.8435   15.7176 O   0  0  0  0  0  0  0  0  0  0  0  0
   48.6068    9.9000   19.4717 C   0  0  0  0  0  0  0  0  0  0  0  0
   48.6442   10.4791   18.0610 C   0  0  1  0  0  0  0  0  0  0  0  0
   48.1966    9.5082   16.9619 C   0  0  2  0  0  0  0  0  0  0  0  0
   48.4331    8.0404   17.2990 C   0  0  0  0  0  0  0  0  0  0  0  0
   47.1078    8.8629   17.1949 H   0  0  0  0  0  0  0  0  0  0  0  0
   47.4498   10.4677   16.8190 H   0  0  0  0  0  0  0  0  0  0  0  0
   49.6672    8.4637   17.5368 H   0  0  0  0  0  0  0  0  0  0  0  0
   48.3523    7.7816   15.5173 H   0  0  0  0  0  0  0  0  0  0  0  0
   48.5887    9.3886   14.8377 H   0  0  0  0  0  0  0  0  0  0  0  0
   47.8446    7.2231   18.1920 H   0  0  0  0  0  0  0  0  0  0  0  0
   48.0834   12.2256   17.3390 H   0  0  0  0  0  0  0  0  0  0  0  0
   47.4757    7.8935   23.0526 H   0  0  0  0  0  0  0  0  0  0  0  0
   47.6380   13.2313   22.1349 H   0  0  0  0  0  0  0  0  0  0  0  0
   49.8978   11.1934   16.1898 H   0  0  0  0  0  0  0  0  0  0  0  0
   51.2212   10.0669   16.5066 H   0  0  0  0  0  0  0  0  0  0  0  0
   50.3816   10.8080   17.8558 H   0  0  0  0  0  0  0  0  0  0  0  0
   49.6394    8.7022   12.8686 H   0  0  0  0  0  0  0  0  0  0  0  0
   49.3348    7.0056   13.3079 H   0  0  0  0  0  0  0  0  0  0  0  0
   50.9746    7.5617   12.8965 H   0  0  0  0  0  0  0  0  0  0  0  0
   51.8203    6.7114   14.9657 H   0  0  0  0  0  0  0  0  0  0  0  0
   51.2219    7.2879   16.5038 H   0  0  0  0  0  0  0  0  0  0  0  0
   50.2278    6.1751   15.5389 H   0  0  0  0  0  0  0  0  0  0  0  0
   48.0733   14.5018   18.0880 H   0  0  0  0  0  0  0  0  0  0  0  0
   47.6951    5.3251   19.6529 H   0  0  0  0  0  0  0  0  0  0  0  0
   47.5065    5.6245   22.1096 H   0  0  0  0  0  0  0  0  0  0  0  0
   47.8511   15.0495   20.4973 H   0  0  0  0  0  0  0  0  0  0  0  0
   50.0356    8.3595   19.4715 H   0  0  0  0  0  0  0  0  0  0  0  0
   49.7767   10.0274   19.1701 H   0  0  0  0  0  0  0  0  0  0  0  0
   47.4583    8.0487   18.9134 H   0  0  0  0  0  0  0  0  0  0  0  0
   47.0742   10.1828   17.8777 H   0  0  0  0  0  0  0  0  0  0  0  0
   46.0112    9.9394   19.2334 H   0  0  0  0  0  0  0  0  0  0  0  0
   50.1201    6.4069   18.7198 H   0  0  0  0  0  0  0  0  0  0  0  0
   51.0390   10.9758   17.8235 H   0  0  0  0  0  0  0  0  0  0  0  0
   47.6554    5.7170   14.4912 H   0  0  0  0  0  0  0  0  0  0  0  0
   48.6579   10.9771   13.4920 H   0  0  0  0  0  0  0  0  0  0  0  0
   48.4621    9.4076   21.4441 H   0  0  0  0  0  0  0  0  0  0  0  0
   48.3673    7.6788   21.1057 H   0  0  0  0  0  0  0  0  0  0  0  0
   46.8779    8.6149   21.2628 H   0  0  0  0  0  0  0  0  0  0  0  0
   45.6676   11.8933   20.5473 H   0  0  0  0  0  0  0  0  0  0  0  0
   46.8567   11.0312   21.5371 H   0  0  0  0  0  0  0  0  0  0  0  0
   47.1066   12.7236   21.1678 H   0  0  0  0  0  0  0  0  0  0  0  0
   46.2738   12.6267   18.2646 H   0  0  0  0  0  0  0  0  0  0  0  0
   47.6832   13.4583   18.9604 H   0  0  0  0  0  0  0  0  0  0  0  0
   47.9124   12.3109   17.6582 H   0  0  0  0  0  0  0  0  0  0  0  0
   51.2341   12.8908   16.3216 H   0  0  0  0  0  0  0  0  0  0  0  0
   49.4954    4.1529   18.0265 H   0  0  0  0  0  0  0  0  0  0  0  0
   48.2617    3.7897   15.9033 H   0  0  0  0  0  0  0  0  0  0  0  0
   50.0453   12.9066   14.1421 H   0  0  0  0  0  0  0  0  0  0  0  0
   49.3870    8.6907   20.6367 H   0  0  0  0  0  0  0  0  0  0  0  0
   49.5960    6.6240   17.0088 H   0  0  0  0  0  0  0  0  0  0  0  0
   47.7844   12.0394   18.8972 H   0  0  0  0  0  0  0  0  0  0  0  0
   49.6624    9.3071   15.6859 H   0  0  0  0  0  0  0  0  0  0  0  0
   49.6662   10.8308   17.8790 H   0  0  0  0  0  0  0  0  0  0  0  0
   47.1238    9.6178   16.7656 H   0  0  0  0  0  0  0  0  0  0  0  0
 10  9  1  0
 11  4  2  0
 12  3  2  0
 13  6  2  0
 14  5  2  0
 15  8  1  0
 16 10  1  0
 17 10  1  0
 18 12  1  0
 19 11  1  0
 20 19  2  0
 21 18  2  0
  5  2  1  0
 13 20  1  0
 14 21  1  0
  2  6  1  0
  3  1  1  0
  4  1  1  0
  5  3  1  0
  6  4  1  0
  7  1  1  0
  8  7  1  0
  9  8  1  0
 31 30  1  0
 32 25  2  0
 33 24  2  0
 34 27  2  0
 35 26  2  0
 36 29  1  0
 37 31  1  0
 38 31  1  0
 39 33  1  0
 40 32  1  0
 41 40  2  0
 42 39  2  0
 26 23  1  0
 34 41  1  0
 35 42  1  0
 23 27  1  0
 24 22  1  0
 25 22  1  0
 26 24  1  0
 27 25  1  0
 28 22  1  0
 29 28  1  0
 30 29  1  0
 49 44  2  0
 50 47  1  0
 51 48  1  0
 49 43  1  0
 51 52  1  0
 50 51  1  0
 52 45  1  0
 49 50  1  0
 52 46  2  0
  7 53  1  0
  7 54  1  0
  8 55  1  6
  9 56  1  0
  9 57  1  0
 11 58  1  0
 12 59  1  0
 13 60  1  0
 14 61  1  0
 15 62  1  0
 15 63  1  0
 15 64  1  0
 16 65  1  0
 16 66  1  0
 16 67  1  0
 17 68  1  0
 17 69  1  0
 17 70  1  0
 18 71  1  0
 19 72  1  0
 20 73  1  0
 21 74  1  0
 28 75  1  0
 28 76  1  0
 29 77  1  1
 30 78  1  0
 30 79  1  0
 32 80  1  0
 33 81  1  0
 34 82  1  0
 35 83  1  0
 36 84  1  0
 36 85  1  0
 36 86  1  0
 37 87  1  0
 37 88  1  0
 37 89  1  0
 38 90  1  0
 38 91  1  0
 38 92  1  0
 39 93  1  0
 40 94  1  0
 41 95  1  0
 42 96  1  0
 43 97  1  0
 45 98  1  0
 47 99  1  0
 48100  1  0
 50101  1  6
 51102  1  1
M  END
> <Uni-Dock RESULT> 
ENERGY=   -5.560  LOWER_BOUND=    1.570  UPPER_BOUND=    5.666
INTER + INTRA:          -5.560
INTER:                  -5.560
INTRA:                   0.000
UNBOUND:                 0.000

$$$$

     RDKit          3D

102105  0  0  0  0  0  0  0  0999 V2000
   48.8956    7.4887   18.2298 N   0  0  0  0  0  0  0  0  0  0  0  0
   48.1979    5.7515   15.6712 S   0  0  0  0  0  0  0  0  0  0  0  0
   48.7733    8.1785   16.9844 C   0  0  0  0  0  0  0  0  0  0  0  0
   48.7149    6.0796   18.4187 C   0  0  0  0  0  0  0  0  0  0  0  0
   48.4651    7.5011   15.7857 C   0  0  0  0  0  0  0  0  0  0  0  0
   48.3933    5.2196   17.3503 C   0  0  0  0  0  0  0  0  0  0  0  0
   49.3316    8.2634   19.4195 C   0  0  0  0  0  0  0  0  0  0  0  0
   48.1644    8.6261   20.3751 C   0  0  1  0  0  0  0  0  0  0  0  0
   48.7659    9.0905   21.7254 C   0  0  0  0  0  0  0  0  0  0  0  0
   47.7795    9.4800   22.7486 N   0  0  0  0  0  0  0  0  0  0  0  0
   48.8441    5.4547   19.6840 C   0  0  0  0  0  0  0  0  0  0  0  0
   48.9354    9.5793   16.8635 C   0  0  0  0  0  0  0  0  0  0  0  0
   48.2099    3.8342   17.5529 C   0  0  0  0  0  0  0  0  0  0  0  0
   48.3478    8.1913   14.5598 C   0  0  0  0  0  0  0  0  0  0  0  0
   47.2330    9.6897   19.7887 C   0  0  0  0  0  0  0  0  0  0  0  0
   48.4528   10.1111   23.8876 C   0  0  0  0  0  0  0  0  0  0  0  0
   46.9887    8.3393   23.2159 C   0  0  0  0  0  0  0  0  0  0  0  0
   48.8109   10.2620   15.6450 C   0  0  0  0  0  0  0  0  0  0  0  0
   48.6661    4.0785   19.8806 C   0  0  0  0  0  0  0  0  0  0  0  0
   48.3473    3.2640   18.8108 C   0  0  0  0  0  0  0  0  0  0  0  0
   48.5206    9.5659   14.4873 C   0  0  0  0  0  0  0  0  0  0  0  0
   47.6899    7.9650   20.3953 N   0  0  0  0  0  0  0  0  0  0  0  0
   49.9926    9.2682   22.0620 S   0  0  0  0  0  0  0  0  0  0  0  0
   47.8617    9.3643   20.2399 C   0  0  0  0  0  0  0  0  0  0  0  0
   48.1480    7.2272   21.5209 C   0  0  0  0  0  0  0  0  0  0  0  0
   48.8476   10.0720   20.9560 C   0  0  0  0  0  0  0  0  0  0  0  0
   49.1585    7.7227   22.3680 C   0  0  0  0  0  0  0  0  0  0  0  0
   47.4043    7.1829   19.1613 C   0  0  0  0  0  0  0  0  0  0  0  0
   48.6540    6.4602   18.5982 C   0  0  2  0  0  0  0  0  0  0  0  0
   49.6108    7.4119   17.8394 C   0  0  0  0  0  0  0  0  0  0  0  0
   49.0266    8.0524   16.6423 N   0  0  0  0  0  0  0  0  0  0  0  0
   47.5774    5.9822   21.8554 C   0  0  0  0  0  0  0  0  0  0  0  0
   46.9998   10.1161   19.4155 C   0  0  0  0  0  0  0  0  0  0  0  0
   49.5926    6.9751   23.4768 C   0  0  0  0  0  0  0  0  0  0  0  0
   48.9902   11.4615   20.7964 C   0  0  0  0  0  0  0  0  0  0  0  0
   48.2159    5.2585   17.7569 C   0  0  0  0  0  0  0  0  0  0  0  0
   49.3855    7.3360   15.4119 C   0  0  0  0  0  0  0  0  0  0  0  0
   49.5011    9.4376   16.5256 C   0  0  0  0  0  0  0  0  0  0  0  0
   47.1390   11.5002   19.2689 C   0  0  0  0  0  0  0  0  0  0  0  0
   48.0112    5.2437   22.9612 C   0  0  0  0  0  0  0  0  0  0  0  0
   49.0225    5.7395   23.7701 C   0  0  0  0  0  0  0  0  0  0  0  0
   48.1410   12.1739   19.9531 C   0  0  0  0  0  0  0  0  0  0  0  0
   47.0187    6.6209   18.6980 O   0  0  0  0  0  0  0  0  0  0  0  0
   48.4054    6.7650   16.9563 O   0  0  0  0  0  0  0  0  0  0  0  0
   47.9018    7.6070   21.7142 O   0  0  0  0  0  0  0  0  0  0  0  0
   49.2319    6.1883   20.6053 O   0  0  0  0  0  0  0  0  0  0  0  0
   49.2024    9.3046   17.6061 O   0  0  0  0  0  0  0  0  0  0  0  0
   48.9019    9.7509   20.6509 O   0  0  0  0  0  0  0  0  0  0  0  0
   47.9853    7.2455   17.9983 C   0  0  0  0  0  0  0  0  0  0  0  0
   48.3824    8.6051   18.5645 C   0  0  1  0  0  0  0  0  0  0  0  0
   49.1381    8.5439   19.8972 C   0  0  2  0  0  0  0  0  0  0  0  0
   48.8021    7.3213   20.7435 C   0  0  0  0  0  0  0  0  0  0  0  0
   50.1007    7.6918   19.9559 H   0  0  0  0  0  0  0  0  0  0  0  0
   49.8983    9.1635   19.1643 H   0  0  0  0  0  0  0  0  0  0  0  0
   47.5566    7.7334   20.5497 H   0  0  0  0  0  0  0  0  0  0  0  0
   49.4203    8.3025   22.1231 H   0  0  0  0  0  0  0  0  0  0  0  0
   49.4109    9.9547   21.5146 H   0  0  0  0  0  0  0  0  0  0  0  0
   49.0862    6.0159   20.5791 H   0  0  0  0  0  0  0  0  0  0  0  0
   49.1461   10.2126   17.7167 H   0  0  0  0  0  0  0  0  0  0  0  0
   47.9611    3.1860   16.7143 H   0  0  0  0  0  0  0  0  0  0  0  0
   48.1154    7.6490   13.6453 H   0  0  0  0  0  0  0  0  0  0  0  0
   47.7622   10.6308   19.6108 H   0  0  0  0  0  0  0  0  0  0  0  0
   46.3990    9.9011   20.4653 H   0  0  0  0  0  0  0  0  0  0  0  0
   46.7918    9.3529   18.8467 H   0  0  0  0  0  0  0  0  0  0  0  0
   49.0060   10.9996   23.5631 H   0  0  0  0  0  0  0  0  0  0  0  0
   49.1529    9.4282   24.3836 H   0  0  0  0  0  0  0  0  0  0  0  0
   47.7194   10.4544   24.6270 H   0  0  0  0  0  0  0  0  0  0  0  0
   46.2791    8.6545   23.9901 H   0  0  0  0  0  0  0  0  0  0  0  0
   46.3838    7.9153   22.4093 H   0  0  0  0  0  0  0  0  0  0  0  0
   47.6184    7.5452   23.6326 H   0  0  0  0  0  0  0  0  0  0  0  0
   48.9402   11.3409   15.6126 H   0  0  0  0  0  0  0  0  0  0  0  0
   48.7733    3.6552   20.8764 H   0  0  0  0  0  0  0  0  0  0  0  0
   48.2065    2.1963   18.9501 H   0  0  0  0  0  0  0  0  0  0  0  0
   48.4211   10.0837   13.5380 H   0  0  0  0  0  0  0  0  0  0  0  0
   46.6159    6.4531   19.3810 H   0  0  0  0  0  0  0  0  0  0  0  0
   46.9635    7.7904   18.3657 H   0  0  0  0  0  0  0  0  0  0  0  0
   49.2390    6.0435   19.4271 H   0  0  0  0  0  0  0  0  0  0  0  0
   49.9321    8.1750   18.5604 H   0  0  0  0  0  0  0  0  0  0  0  0
   50.5304    6.8699   17.5776 H   0  0  0  0  0  0  0  0  0  0  0  0
   46.7537    5.5741   21.2766 H   0  0  0  0  0  0  0  0  0  0  0  0
   46.1765    9.6367   18.8923 H   0  0  0  0  0  0  0  0  0  0  0  0
   50.3851    7.3565   24.1168 H   0  0  0  0  0  0  0  0  0  0  0  0
   49.7635   12.0001   21.3377 H   0  0  0  0  0  0  0  0  0  0  0  0
   47.5198    5.5514   16.9653 H   0  0  0  0  0  0  0  0  0  0  0  0
   47.7036    4.5191   18.3840 H   0  0  0  0  0  0  0  0  0  0  0  0
   49.0795    4.7618   17.3037 H   0  0  0  0  0  0  0  0  0  0  0  0
   50.4682    7.3200   15.2418 H   0  0  0  0  0  0  0  0  0  0  0  0
   49.0295    6.3033   15.4234 H   0  0  0  0  0  0  0  0  0  0  0  0
   48.9132    7.8133   14.5463 H   0  0  0  0  0  0  0  0  0  0  0  0
   50.5900    9.4926   16.4171 H   0  0  0  0  0  0  0  0  0  0  0  0
   49.0403    9.9304   15.6630 H   0  0  0  0  0  0  0  0  0  0  0  0
   49.2122   10.0245   17.4026 H   0  0  0  0  0  0  0  0  0  0  0  0
   46.4586   12.0467   18.6209 H   0  0  0  0  0  0  0  0  0  0  0  0
   47.5473    4.2873   23.1911 H   0  0  0  0  0  0  0  0  0  0  0  0
   49.3670    5.1711   24.6297 H   0  0  0  0  0  0  0  0  0  0  0  0
   48.2547   13.2487   19.8428 H   0  0  0  0  0  0  0  0  0  0  0  0
   46.8807    5.7753   18.2154 H   0  0  0  0  0  0  0  0  0  0  0  0
   47.7750    6.7528   22.1804 H   0  0  0  0  0  0  0  0  0  0  0  0
   48.9553    8.9794   16.7193 H   0  0  0  0  0  0  0  0  0  0  0  0
   48.1294    9.5654   21.2225 H   0  0  0  0  0  0  0  0  0  0  0  0
   47.4664    9.1989   18.6618 H   0  0  0  0  0  0  0  0  0  0  0  0
   50.2204    8.5205   19.7248 H   0  0  0  0  0  0  0  0  0  0  0  0
 10  9  1  0
 11  4  2  0
 12  3  2  0
 13  6  2  0
 14  5  2  0
 15  8  1  0
 16 10  1  0
 17 10  1  0
 18 12  1  0
 19 11  1  0
 20 19  2  0
 21 18  2  0
  5  2  1  0
 13 20  1  0
 14 21  1  0
  2  6  1  0
  3  1  1  0
  4  1  1  0
  5  3  1  0
  6  4  1  0
  7  1  1  0
  8  7  1  0
  9  8  1  0
 31 30  1  0
 32 25  2  0
 33 24  2  0
 34 27  2  0
 35 26  2  0
 36 29  1  0
 37 31  1  0
 38 31  1  0
 39 33  1  0
 40 32  1  0
 41 40  2  0
 42 39  2  0
 26 23  1  0
 34 41  1  0
 35 42  1  0
 23 27  1  0
 24 22  1  0
 25 22  1  0
 26 24  1  0
 27 25  1  0
 28 22  1  0
 29 28  1  0
 30 29  1  0
 49 44  2  0
 50 47  1  0
 51 48  1  0
 49 43  1  0
 51 52  1  0
 50 51  1  0
 52 45  1  0
 49 50  1  0
 52 46  2  0
  7 53  1  0
  7 54  1  0
  8 55  1  6
  9 56  1  0
  9 57  1  0
 11 58  1  0
 12 59  1  0
 13 60  1  0
 14 61  1  0
 15 62  1  0
 15 63  1  0
 15 64  1  0
 16 65  1  0
 16 66  1  0
 16 67  1  0
 17 68  1  0
 17 69  1  0
 17 70  1  0
 18 71  1  0
 19 72  1  0
 20 73  1  0
 21 74  1  0
 28 75  1  0
 28 76  1  0
 29 77  1  1
 30 78  1  0
 30 79  1  0
 32 80  1  0
 33 81  1  0
 34 82  1  0
 35 83  1  0
 36 84  1  0
 36 85  1  0
 36 86  1  0
 37 87  1  0
 37 88  1  0
 37 89  1  0
 38 90  1  0
 38 91  1  0
 38 92  1  0
 39 93  1  0
 40 94  1  0
 41 95  1  0
 42 96  1  0
 43 97  1  0
 45 98  1  0
 47 99  1  0
 48100  1  0
 50101  1  6
 51102  1  1
M  END
> <Uni-Dock RESULT> 
ENERGY=   -5.496  LOWER_BOUND=    1.680  UPPER_BOUND=    4.809
INTER + INTRA:          -5.496
INTER:                  -5.496
INTRA:                   0.000
UNBOUND:                 0.000

$$$$

     RDKit          3D

102105  0  0  0  0  0  0  0  0999 V2000
   49.0404    8.1182   19.4067 N   0  0  0  0  0  0  0  0  0  0  0  0
   47.9790    5.5870   20.9933 S   0  0  0  0  0  0  0  0  0  0  0  0
   49.1894    6.8432   18.7790 C   0  0  0  0  0  0  0  0  0  0  0  0
   48.4383    8.3473   20.6869 C   0  0  0  0  0  0  0  0  0  0  0  0
   48.7507    5.6536   19.3978 C   0  0  0  0  0  0  0  0  0  0  0  0
   47.9261    7.2934   21.4689 C   0  0  0  0  0  0  0  0  0  0  0  0
   49.6304    9.3034   18.7335 C   0  0  0  0  0  0  0  0  0  0  0  0
   48.5805   10.1713   17.9910 C   0  0  1  0  0  0  0  0  0  0  0  0
   49.2279   11.5382   17.6542 C   0  0  0  0  0  0  0  0  0  0  0  0
   48.3550   12.4837   16.9361 N   0  0  0  0  0  0  0  0  0  0  0  0
   48.3143    9.6402   21.2536 C   0  0  0  0  0  0  0  0  0  0  0  0
   49.7680    6.6813   17.4976 C   0  0  0  0  0  0  0  0  0  0  0  0
   47.3279    7.5350   22.7249 C   0  0  0  0  0  0  0  0  0  0  0  0
   48.9036    4.3983   18.7702 C   0  0  0  0  0  0  0  0  0  0  0  0
   48.0384    9.4901   16.7322 C   0  0  0  0  0  0  0  0  0  0  0  0
   49.1308   13.6381   16.4728 C   0  0  0  0  0  0  0  0  0  0  0  0
   47.2383   12.9430   17.7648 C   0  0  0  0  0  0  0  0  0  0  0  0
   49.9115    5.4332   16.8747 C   0  0  0  0  0  0  0  0  0  0  0  0
   47.7243    9.8759   22.5029 C   0  0  0  0  0  0  0  0  0  0  0  0
   47.2284    8.8191   23.2423 C   0  0  0  0  0  0  0  0  0  0  0  0
   49.4823    4.2861   17.5143 C   0  0  0  0  0  0  0  0  0  0  0  0
   47.9298   10.1865   18.4799 N   0  0  0  0  0  0  0  0  0  0  0  0
   50.4341   11.9429   17.8300 S   0  0  0  0  0  0  0  0  0  0  0  0
   48.5188    9.9908   17.2046 C   0  0  0  0  0  0  0  0  0  0  0  0
   48.0923   11.3646   19.2591 C   0  0  0  0  0  0  0  0  0  0  0  0
   49.6356   10.7398   16.7834 C   0  0  0  0  0  0  0  0  0  0  0  0
   49.1629   12.2535   19.0406 C   0  0  0  0  0  0  0  0  0  0  0  0
   47.4831    8.9668   19.2070 C   0  0  0  0  0  0  0  0  0  0  0  0
   48.4854    8.5086   20.2963 C   0  0  2  0  0  0  0  0  0  0  0  0
   49.7178    7.7757   19.7125 C   0  0  0  0  0  0  0  0  0  0  0  0
   49.4096    6.5222   18.9926 N   0  0  0  0  0  0  0  0  0  0  0  0
   47.1606   11.7087   20.2596 C   0  0  0  0  0  0  0  0  0  0  0  0
   47.9613    9.0879   16.2764 C   0  0  0  0  0  0  0  0  0  0  0  0
   49.3004   13.4136   19.8230 C   0  0  0  0  0  0  0  0  0  0  0  0
   50.1942   10.5384   15.5091 C   0  0  0  0  0  0  0  0  0  0  0  0
   47.7491    7.6866   21.3575 C   0  0  0  0  0  0  0  0  0  0  0  0
   49.5965    5.3434   19.8477 C   0  0  0  0  0  0  0  0  0  0  0  0
   50.2811    6.3843   17.8183 C   0  0  0  0  0  0  0  0  0  0  0  0
   48.5142    8.8994   15.0055 C   0  0  0  0  0  0  0  0  0  0  0  0
   47.3007   12.8655   21.0334 C   0  0  0  0  0  0  0  0  0  0  0  0
   48.3740   13.7163   20.8169 C   0  0  0  0  0  0  0  0  0  0  0  0
   49.6378    9.6189   14.6232 C   0  0  0  0  0  0  0  0  0  0  0  0
   46.9698    8.5016   19.6535 O   0  0  0  0  0  0  0  0  0  0  0  0
   48.4180    6.8444   20.0196 O   0  0  0  0  0  0  0  0  0  0  0  0
   47.9618   11.5282   18.8137 O   0  0  0  0  0  0  0  0  0  0  0  0
   48.8590   10.5561   20.6197 O   0  0  0  0  0  0  0  0  0  0  0  0
   49.9050    7.4484   17.7990 O   0  0  0  0  0  0  0  0  0  0  0  0
   49.6061   10.4505   17.1220 O   0  0  0  0  0  0  0  0  0  0  0  0
   48.1112    7.8403   19.3815 C   0  0  0  0  0  0  0  0  0  0  0  0
   48.8686    8.3796   18.1722 C   0  0  1  0  0  0  0  0  0  0  0  0
   49.5070    9.7576   18.3832 C   0  0  2  0  0  0  0  0  0  0  0  0
   48.7811   10.6259   19.4045 C   0  0  0  0  0  0  0  0  0  0  0  0
   50.1671    9.9067   19.4777 H   0  0  0  0  0  0  0  0  0  0  0  0
   50.4516    9.0506   18.0565 H   0  0  0  0  0  0  0  0  0  0  0  0
   47.7262   10.3408   18.6531 H   0  0  0  0  0  0  0  0  0  0  0  0
   49.5973   12.0040   18.5783 H   0  0  0  0  0  0  0  0  0  0  0  0
   50.1108   11.3359   17.0323 H   0  0  0  0  0  0  0  0  0  0  0  0
   48.6699   10.5274   20.7424 H   0  0  0  0  0  0  0  0  0  0  0  0
   50.1172    7.5220   16.9105 H   0  0  0  0  0  0  0  0  0  0  0  0
   46.9373    6.7070   23.3142 H   0  0  0  0  0  0  0  0  0  0  0  0
   48.5639    3.4917   19.2674 H   0  0  0  0  0  0  0  0  0  0  0  0
   48.8323    9.3108   16.0009 H   0  0  0  0  0  0  0  0  0  0  0  0
   47.2742   10.1059   16.2476 H   0  0  0  0  0  0  0  0  0  0  0  0
   47.5624    8.5357   16.9730 H   0  0  0  0  0  0  0  0  0  0  0  0
   49.9389   13.3159   15.8067 H   0  0  0  0  0  0  0  0  0  0  0  0
   49.5705   14.2010   17.3050 H   0  0  0  0  0  0  0  0  0  0  0  0
   48.4989   14.3179   15.8888 H   0  0  0  0  0  0  0  0  0  0  0  0
   46.6190   13.6600   17.2129 H   0  0  0  0  0  0  0  0  0  0  0  0
   46.5737   12.1168   18.0332 H   0  0  0  0  0  0  0  0  0  0  0  0
   47.5814   13.4265   18.6864 H   0  0  0  0  0  0  0  0  0  0  0  0
   50.3585    5.3693   15.8858 H   0  0  0  0  0  0  0  0  0  0  0  0
   47.6525   10.8912   22.8852 H   0  0  0  0  0  0  0  0  0  0  0  0
   46.7687    8.9884   24.2114 H   0  0  0  0  0  0  0  0  0  0  0  0
   49.5875    3.3141   17.0417 H   0  0  0  0  0  0  0  0  0  0  0  0
   46.5032    9.1642   19.6579 H   0  0  0  0  0  0  0  0  0  0  0  0
   47.2824    8.1238   18.5397 H   0  0  0  0  0  0  0  0  0  0  0  0
   48.8789    9.3867   20.8228 H   0  0  0  0  0  0  0  0  0  0  0  0
   50.2175    8.4866   19.0415 H   0  0  0  0  0  0  0  0  0  0  0  0
   50.4450    7.5911   20.5157 H   0  0  0  0  0  0  0  0  0  0  0  0
   46.2813   11.0957   20.4358 H   0  0  0  0  0  0  0  0  0  0  0  0
   47.0584    8.5330   16.5177 H   0  0  0  0  0  0  0  0  0  0  0  0
   50.1391   14.0867   19.6597 H   0  0  0  0  0  0  0  0  0  0  0  0
   51.0662   11.1062   15.1955 H   0  0  0  0  0  0  0  0  0  0  0  0
   47.2110    6.8434   20.9142 H   0  0  0  0  0  0  0  0  0  0  0  0
   47.0100    8.3077   21.8775 H   0  0  0  0  0  0  0  0  0  0  0  0
   48.4457    7.3059   22.1111 H   0  0  0  0  0  0  0  0  0  0  0  0
   50.6320    5.2409   20.1926 H   0  0  0  0  0  0  0  0  0  0  0  0
   48.9483    5.3709   20.7266 H   0  0  0  0  0  0  0  0  0  0  0  0
   49.3303    4.4334   19.2989 H   0  0  0  0  0  0  0  0  0  0  0  0
   51.3406    6.3410   18.0941 H   0  0  0  0  0  0  0  0  0  0  0  0
   50.0302    5.4774   17.2579 H   0  0  0  0  0  0  0  0  0  0  0  0
   50.1390    7.2197   17.1262 H   0  0  0  0  0  0  0  0  0  0  0  0
   48.0599    8.1912   14.3174 H   0  0  0  0  0  0  0  0  0  0  0  0
   46.5619   13.1013   21.7959 H   0  0  0  0  0  0  0  0  0  0  0  0
   48.4914   14.6158   21.4151 H   0  0  0  0  0  0  0  0  0  0  0  0
   50.0724    9.4764   13.6377 H   0  0  0  0  0  0  0  0  0  0  0  0
   46.6089    8.0427   20.4448 H   0  0  0  0  0  0  0  0  0  0  0  0
   47.5636   12.0167   19.5659 H   0  0  0  0  0  0  0  0  0  0  0  0
   49.6147    6.5606   18.0834 H   0  0  0  0  0  0  0  0  0  0  0  0
   48.7871   10.9800   17.0397 H   0  0  0  0  0  0  0  0  0  0  0  0
   48.1682    8.3984   17.3295 H   0  0  0  0  0  0  0  0  0  0  0  0
   50.5397    9.6532   18.7352 H   0  0  0  0  0  0  0  0  0  0  0  0
 10  9  1  0
 11  4  2  0
 12  3  2  0
 13  6  2  0
 14  5  2  0
 15  8  1  0
 16 10  1  0
 17 10  1  0
 18 12  1  0
 19 11  1  0
 20 19  2  0
 21 18  2  0
  5  2  1  0
 13 20  1  0
 14 21  1  0
  2  6  1  0
  3  1  1  0
  4  1  1  0
  5  3  1  0
  6  4  1  0
  7  1  1  0
  8  7  1  0
  9  8  1  0
 31 30  1  0
 32 25  2  0
 33 24  2  0
 34 27  2  0
 35 26  2  0
 36 29  1  0
 37 31  1  0
 38 31  1  0
 39 33  1  0
 40 32  1  0
 41 40  2  0
 42 39  2  0
 26 23  1  0
 34 41  1  0
 35 42  1  0
 23 27  1  0
 24 22  1  0
 25 22  1  0
 26 24  1  0
 27 25  1  0
 28 22  1  0
 29 28  1  0
 30 29  1  0
 49 44  2  0
 50 47  1  0
 51 48  1  0
 49 43  1  0
 51 52  1  0
 50 51  1  0
 52 45  1  0
 49 50  1  0
 52 46  2  0
  7 53  1  0
  7 54  1  0
  8 55  1  6
  9 56  1  0
  9 57  1  0
 11 58  1  0
 12 59  1  0
 13 60  1  0
 14 61  1  0
 15 62  1  0
 15 63  1  0
 15 64  1  0
 16 65  1  0
 16 66  1  0
 16 67  1  0
 17 68  1  0
 17 69  1  0
 17 70  1  0
 18 71  1  0
 19 72  1  0
 20 73  1  0
 21 74  1  0
 28 75  1  0
 28 76  1  0
 29 77  1  1
 30 78  1  0
 30 79  1  0
 32 80  1  0
 33 81  1  0
 34 82  1  0
 35 83  1  0
 36 84  1  0
 36 85  1  0
 36 86  1  0
 37 87  1  0
 37 88  1  0
 37 89  1  0
 38 90  1  0
 38 91  1  0
 38 92  1  0
 39 93  1  0
 40 94  1  0
 41 95  1  0
 42 96  1  0
 43 97  1  0
 45 98  1  0
 47 99  1  0
 48100  1  0
 50101  1  6
 51102  1  1
M  END
> <Uni-Dock RESULT> 
ENERGY=   -5.385  LOWER_BOUND=    1.476  UPPER_BOUND=    4.120
INTER + INTRA:          -5.385
INTER:                  -5.385
INTRA:                   0.000
UNBOUND:                 0.000

$$$$

     RDKit          3D

102105  0  0  0  0  0  0  0  0999 V2000
   48.6823    8.3681   20.8693 N   0  0  0  0  0  0  0  0  0  0  0  0
   47.4270    9.4626   23.5668 S   0  0  0  0  0  0  0  0  0  0  0  0
   48.2823    7.4024   21.8435 C   0  0  0  0  0  0  0  0  0  0  0  0
   48.5495    9.7885   21.0060 C   0  0  0  0  0  0  0  0  0  0  0  0
   47.7124    7.7821   23.0771 C   0  0  0  0  0  0  0  0  0  0  0  0
   47.9959   10.3775   22.1598 C   0  0  0  0  0  0  0  0  0  0  0  0
   49.3748    7.8848   19.6475 C   0  0  0  0  0  0  0  0  0  0  0  0
   48.4527    7.8344   18.4008 C   0  0  1  0  0  0  0  0  0  0  0  0
   49.3427    7.6813   17.1417 C   0  0  0  0  0  0  0  0  0  0  0  0
   48.6120    7.6112   15.8639 N   0  0  0  0  0  0  0  0  0  0  0  0
   48.9607   10.6958   19.9982 C   0  0  0  0  0  0  0  0  0  0  0  0
   48.4124    6.0077   21.6405 C   0  0  0  0  0  0  0  0  0  0  0  0
   47.8635   11.7785   22.2771 C   0  0  0  0  0  0  0  0  0  0  0  0
   47.3215    6.8205   24.0339 C   0  0  0  0  0  0  0  0  0  0  0  0
   47.4127    6.7145   18.4833 C   0  0  0  0  0  0  0  0  0  0  0  0
   49.5243    7.2409   14.7778 C   0  0  0  0  0  0  0  0  0  0  0  0
   47.9473    8.8748   15.5378 C   0  0  0  0  0  0  0  0  0  0  0  0
   48.0163    5.0557   22.5908 C   0  0  0  0  0  0  0  0  0  0  0  0
   48.8322   12.0861   20.1201 C   0  0  0  0  0  0  0  0  0  0  0  0
   48.2809   12.6306   21.2642 C   0  0  0  0  0  0  0  0  0  0  0  0
   47.4729    5.4624   23.7943 C   0  0  0  0  0  0  0  0  0  0  0  0
   47.9952    8.5062   18.4446 N   0  0  0  0  0  0  0  0  0  0  0  0
   50.6136    7.5217   17.0469 S   0  0  0  0  0  0  0  0  0  0  0  0
   48.1270    7.1041   18.2767 C   0  0  0  0  0  0  0  0  0  0  0  0
   48.6955    9.4699   17.6685 C   0  0  0  0  0  0  0  0  0  0  0  0
   49.2485    6.5382   17.6382 C   0  0  0  0  0  0  0  0  0  0  0  0
   49.8706    9.1401   16.9653 C   0  0  0  0  0  0  0  0  0  0  0  0
   47.4394    8.9773   19.7427 C   0  0  0  0  0  0  0  0  0  0  0  0
   48.5305    9.4675   20.7278 C   0  0  2  0  0  0  0  0  0  0  0  0
   49.2912    8.3060   21.4125 C   0  0  0  0  0  0  0  0  0  0  0  0
   48.4521    7.4262   22.2531 N   0  0  0  0  0  0  0  0  0  0  0  0
   48.2154   10.7894   17.5418 C   0  0  0  0  0  0  0  0  0  0  0  0
   47.1012    6.2237   18.6772 C   0  0  0  0  0  0  0  0  0  0  0  0
   50.5437   10.1105   16.2023 C   0  0  0  0  0  0  0  0  0  0  0  0
   49.3510    5.1462   17.4704 C   0  0  0  0  0  0  0  0  0  0  0  0
   47.9146   10.4496   21.7279 C   0  0  0  0  0  0  0  0  0  0  0  0
   48.5249    7.7977   23.6716 C   0  0  0  0  0  0  0  0  0  0  0  0
   48.8875    6.0298   22.1181 C   0  0  0  0  0  0  0  0  0  0  0  0
   47.2031    4.8403   18.4977 C   0  0  0  0  0  0  0  0  0  0  0  0
   48.8876   11.7502   16.7793 C   0  0  0  0  0  0  0  0  0  0  0  0
   50.0549   11.4107   16.1122 C   0  0  0  0  0  0  0  0  0  0  0  0
   48.3332    4.2986   17.9014 C   0  0  0  0  0  0  0  0  0  0  0  0
   46.9595    9.4298   20.2369 O   0  0  0  0  0  0  0  0  0  0  0  0
   47.9182    8.7845   22.1453 O   0  0  0  0  0  0  0  0  0  0  0  0
   48.4990    9.1637   17.3371 O   0  0  0  0  0  0  0  0  0  0  0  0
   49.5457   10.1893   19.0294 O   0  0  0  0  0  0  0  0  0  0  0  0
   48.8399    6.4402   21.0676 O   0  0  0  0  0  0  0  0  0  0  0  0
   49.2329    6.7712   18.0186 O   0  0  0  0  0  0  0  0  0  0  0  0
   47.7434    8.5988   20.9503 C   0  0  0  0  0  0  0  0  0  0  0  0
   48.2573    7.3988   20.1610 C   0  0  1  0  0  0  0  0  0  0  0  0
   49.2938    7.7413   19.0843 C   0  0  2  0  0  0  0  0  0  0  0  0
   49.1576    9.1511   18.5205 C   0  0  0  0  0  0  0  0  0  0  0  0
   50.2452    8.5255   19.4530 H   0  0  0  0  0  0  0  0  0  0  0  0
   49.8690    6.9187   19.7853 H   0  0  0  0  0  0  0  0  0  0  0  0
   47.9003    8.7759   18.3282 H   0  0  0  0  0  0  0  0  0  0  0  0
   50.0702    8.5040   17.1075 H   0  0  0  0  0  0  0  0  0  0  0  0
   49.9232    6.7564   17.2638 H   0  0  0  0  0  0  0  0  0  0  0  0
   49.3979   10.3581   19.0657 H   0  0  0  0  0  0  0  0  0  0  0  0
   48.8096    5.5917   20.7226 H   0  0  0  0  0  0  0  0  0  0  0  0
   47.4325   12.2147   23.1767 H   0  0  0  0  0  0  0  0  0  0  0  0
   46.8894    7.1346   24.9821 H   0  0  0  0  0  0  0  0  0  0  0  0
   47.8877    5.7299   18.5297 H   0  0  0  0  0  0  0  0  0  0  0  0
   46.7524    6.7232   17.6104 H   0  0  0  0  0  0  0  0  0  0  0  0
   46.7708    6.8349   19.3602 H   0  0  0  0  0  0  0  0  0  0  0  0
   49.9897    6.2699   14.9810 H   0  0  0  0  0  0  0  0  0  0  0  0
   50.3185    7.9834   14.6344 H   0  0  0  0  0  0  0  0  0  0  0  0
   48.9761    7.1316   13.8344 H   0  0  0  0  0  0  0  0  0  0  0  0
   47.4302    8.7999   14.5738 H   0  0  0  0  0  0  0  0  0  0  0  0
   47.1765    9.1222   16.2732 H   0  0  0  0  0  0  0  0  0  0  0  0
   48.6551    9.7095   15.4818 H   0  0  0  0  0  0  0  0  0  0  0  0
   48.1345    3.9961   22.3782 H   0  0  0  0  0  0  0  0  0  0  0  0
   49.1612   12.7335   19.3108 H   0  0  0  0  0  0  0  0  0  0  0  0
   48.1756   13.7061   21.3708 H   0  0  0  0  0  0  0  0  0  0  0  0
   47.1620    4.7344   24.5377 H   0  0  0  0  0  0  0  0  0  0  0  0
   46.7211    9.7825   19.5473 H   0  0  0  0  0  0  0  0  0  0  0  0
   46.8304    8.2197   20.2442 H   0  0  0  0  0  0  0  0  0  0  0  0
   49.2873   10.0405   20.1784 H   0  0  0  0  0  0  0  0  0  0  0  0
   49.7663    7.7256   20.6107 H   0  0  0  0  0  0  0  0  0  0  0  0
   50.1285    8.7139   21.9961 H   0  0  0  0  0  0  0  0  0  0  0  0
   47.2827   11.0896   18.0107 H   0  0  0  0  0  0  0  0  0  0  0  0
   46.1814    6.6065   19.1117 H   0  0  0  0  0  0  0  0  0  0  0  0
   51.4598    9.8528   15.6755 H   0  0  0  0  0  0  0  0  0  0  0  0
   50.2260    4.7133   16.9930 H   0  0  0  0  0  0  0  0  0  0  0  0
   47.0579   10.0119   22.2490 H   0  0  0  0  0  0  0  0  0  0  0  0
   47.5571   11.3480   21.2109 H   0  0  0  0  0  0  0  0  0  0  0  0
   48.6542   10.7700   22.4684 H   0  0  0  0  0  0  0  0  0  0  0  0
   49.5415    7.7097   24.0721 H   0  0  0  0  0  0  0  0  0  0  0  0
   48.1812    8.8204   23.8429 H   0  0  0  0  0  0  0  0  0  0  0  0
   47.8696    7.1508   24.2650 H   0  0  0  0  0  0  0  0  0  0  0  0
   49.9240    5.8879   22.4439 H   0  0  0  0  0  0  0  0  0  0  0  0
   48.2440    5.3679   22.7073 H   0  0  0  0  0  0  0  0  0  0  0  0
   48.8034    5.6930   21.0806 H   0  0  0  0  0  0  0  0  0  0  0  0
   46.3940    4.1914   18.8231 H   0  0  0  0  0  0  0  0  0  0  0  0
   48.4878   12.7586   16.7019 H   0  0  0  0  0  0  0  0  0  0  0  0
   50.5844   12.1518   15.5196 H   0  0  0  0  0  0  0  0  0  0  0  0
   48.4187    3.2248   17.7599 H   0  0  0  0  0  0  0  0  0  0  0  0
   46.7168   10.1378   20.8746 H   0  0  0  0  0  0  0  0  0  0  0  0
   48.4809   10.1118   17.0846 H   0  0  0  0  0  0  0  0  0  0  0  0
   48.3996    6.5519   21.9318 H   0  0  0  0  0  0  0  0  0  0  0  0
   48.6091    7.1348   17.3578 H   0  0  0  0  0  0  0  0  0  0  0  0
   47.3864    6.9002   19.7203 H   0  0  0  0  0  0  0  0  0  0  0  0
   50.3094    7.6600   19.4886 H   0  0  0  0  0  0  0  0  0  0  0  0
 10  9  1  0
 11  4  2  0
 12  3  2  0
 13  6  2  0
 14  5  2  0
 15  8  1  0
 16 10  1  0
 17 10  1  0
 18 12  1  0
 19 11  1  0
 20 19  2  0
 21 18  2  0
  5  2  1  0
 13 20  1  0
 14 21  1  0
  2  6  1  0
  3  1  1  0
  4  1  1  0
  5  3  1  0
  6  4  1  0
  7  1  1  0
  8  7  1  0
  9  8  1  0
 31 30  1  0
 32 25  2  0
 33 24  2  0
 34 27  2  0
 35 26  2  0
 36 29  1  0
 37 31  1  0
 38 31  1  0
 39 33  1  0
 40 32  1  0
 41 40  2  0
 42 39  2  0
 26 23  1  0
 34 41  1  0
 35 42  1  0
 23 27  1  0
 24 22  1  0
 25 22  1  0
 26 24  1  0
 27 25  1  0
 28 22  1  0
 29 28  1  0
 30 29  1  0
 49 44  2  0
 50 47  1  0
 51 48  1  0
 49 43  1  0
 51 52  1  0
 50 51  1  0
 52 45  1  0
 49 50  1  0
 52 46  2  0
  7 53  1  0
  7 54  1  0
  8 55  1  6
  9 56  1  0
  9 57  1  0
 11 58  1  0
 12 59  1  0
 13 60  1  0
 14 61  1  0
 15 62  1  0
 15 63  1  0
 15 64  1  0
 16 65  1  0
 16 66  1  0
 16 67  1  0
 17 68  1  0
 17 69  1  0
 17 70  1  0
 18 71  1  0
 19 72  1  0
 20 73  1  0
 21 74  1  0
 28 75  1  0
 28 76  1  0
 29 77  1  1
 30 78  1  0
 30 79  1  0
 32 80  1  0
 33 81  1  0
 34 82  1  0
 35 83  1  0
 36 84  1  0
 36 85  1  0
 36 86  1  0
 37 87  1  0
 37 88  1  0
 37 89  1  0
 38 90  1  0
 38 91  1  0
 38 92  1  0
 39 93  1  0
 40 94  1  0
 41 95  1  0
 42 96  1  0
 43 97  1  0
 45 98  1  0
 47 99  1  0
 48100  1  0
 50101  1  6
 51102  1  1
M  END
> <Uni-Dock RESULT> 
ENERGY=   -5.188  LOWER_BOUND=    1.589  UPPER_BOUND=    4.716
INTER + INTRA:          -5.188
INTER:                  -5.188
INTRA:                   0.000
UNBOUND:                 0.000

$$$$

     RDKit          3D

102105  0  0  0  0  0  0  0  0999 V2000
   48.5467    9.1503   16.8748 N   0  0  0  0  0  0  0  0  0  0  0  0
   49.0073   11.6432   14.9710 S   0  0  0  0  0  0  0  0  0  0  0  0
   48.9833    8.8826   15.5408 C   0  0  0  0  0  0  0  0  0  0  0  0
   48.3140   10.4526   17.4258 C   0  0  0  0  0  0  0  0  0  0  0  0
   49.2185    9.9190   14.6128 C   0  0  0  0  0  0  0  0  0  0  0  0
   48.4984   11.6261   16.6685 C   0  0  0  0  0  0  0  0  0  0  0  0
   48.2169    7.9956   17.7486 C   0  0  0  0  0  0  0  0  0  0  0  0
   49.3316    7.6679   18.7767 C   0  0  1  0  0  0  0  0  0  0  0  0
   48.7417    6.7184   19.8498 C   0  0  0  0  0  0  0  0  0  0  0  0
   49.6839    6.3045   20.9046 N   0  0  0  0  0  0  0  0  0  0  0  0
   47.8865   10.6527   18.7619 C   0  0  0  0  0  0  0  0  0  0  0  0
   49.2243    7.5734   15.0600 C   0  0  0  0  0  0  0  0  0  0  0  0
   48.2733   12.9032   17.2273 C   0  0  0  0  0  0  0  0  0  0  0  0
   49.6484    9.6444   13.2965 C   0  0  0  0  0  0  0  0  0  0  0  0
   50.5748    7.0601   18.1227 C   0  0  0  0  0  0  0  0  0  0  0  0
   49.0932    5.2415   21.7233 C   0  0  0  0  0  0  0  0  0  0  0  0
   50.0787    7.4235   21.7628 C   0  0  0  0  0  0  0  0  0  0  0  0
   49.6582    7.3055   13.7538 C   0  0  0  0  0  0  0  0  0  0  0  0
   47.6595   11.9217   19.3120 C   0  0  0  0  0  0  0  0  0  0  0  0
   47.8538   13.0525   18.5419 C   0  0  0  0  0  0  0  0  0  0  0  0
   49.8670    8.3437   12.8663 C   0  0  0  0  0  0  0  0  0  0  0  0
   49.6023    8.3899   19.0376 N   0  0  0  0  0  0  0  0  0  0  0  0
   47.5822    6.1700   19.9152 S   0  0  0  0  0  0  0  0  0  0  0  0
   49.8373    7.0894   18.5226 C   0  0  0  0  0  0  0  0  0  0  0  0
   48.8441    8.6562   20.2105 C   0  0  0  0  0  0  0  0  0  0  0  0
   49.0131    5.9989   18.8647 C   0  0  0  0  0  0  0  0  0  0  0  0
   47.9245    7.7211   20.7244 C   0  0  0  0  0  0  0  0  0  0  0  0
   49.7909    9.5283   18.0972 C   0  0  0  0  0  0  0  0  0  0  0  0
   48.4575   10.0627   17.5162 C   0  0  2  0  0  0  0  0  0  0  0  0
   47.8830    9.1614   16.3962 C   0  0  0  0  0  0  0  0  0  0  0  0
   48.7425    9.0353   15.2004 N   0  0  0  0  0  0  0  0  0  0  0  0
   49.0138    9.8574   20.9287 C   0  0  0  0  0  0  0  0  0  0  0  0
   50.9536    6.8217   17.7042 C   0  0  0  0  0  0  0  0  0  0  0  0
   47.1884    8.0069   21.8876 C   0  0  0  0  0  0  0  0  0  0  0  0
   49.2737    4.7156   18.3530 C   0  0  0  0  0  0  0  0  0  0  0  0
   48.6360   11.5189   17.0782 C   0  0  0  0  0  0  0  0  0  0  0  0
   48.3327    9.9593   14.1356 C   0  0  0  0  0  0  0  0  0  0  0  0
   48.6802    7.6657   14.6731 C   0  0  0  0  0  0  0  0  0  0  0  0
   51.2148    5.5407   17.2069 C   0  0  0  0  0  0  0  0  0  0  0  0
   48.2807   10.1357   22.0870 C   0  0  0  0  0  0  0  0  0  0  0  0
   47.3645    9.2107   22.5642 C   0  0  0  0  0  0  0  0  0  0  0  0
   50.3692    4.4868   17.5239 C   0  0  0  0  0  0  0  0  0  0  0  0
   50.0546   10.2713   17.8571 O   0  0  0  0  0  0  0  0  0  0  0  0
   48.9512   10.2935   15.9181 O   0  0  0  0  0  0  0  0  0  0  0  0
   49.1631    8.3070   20.3464 O   0  0  0  0  0  0  0  0  0  0  0  0
   47.6197    9.6222   19.3977 O   0  0  0  0  0  0  0  0  0  0  0  0
   48.8159    7.5600   15.7888 O   0  0  0  0  0  0  0  0  0  0  0  0
   48.9053    6.3698   18.6411 O   0  0  0  0  0  0  0  0  0  0  0  0
   49.3748    9.6559   16.8706 C   0  0  0  0  0  0  0  0  0  0  0  0
   49.3077    8.1388   17.0149 C   0  0  1  0  0  0  0  0  0  0  0  0
   48.4284    7.6473   18.1709 C   0  0  2  0  0  0  0  0  0  0  0  0
   48.3262    8.6301   19.3317 C   0  0  0  0  0  0  0  0  0  0  0  0
   47.2688    8.1973   18.2647 H   0  0  0  0  0  0  0  0  0  0  0  0
   47.9482    7.0944   17.1897 H   0  0  0  0  0  0  0  0  0  0  0  0
   49.6500    8.5942   19.2640 H   0  0  0  0  0  0  0  0  0  0  0  0
   47.8587    7.1874   20.3054 H   0  0  0  0  0  0  0  0  0  0  0  0
   48.3837    5.8201   19.3283 H   0  0  0  0  0  0  0  0  0  0  0  0
   47.7146    9.8244   19.4396 H   0  0  0  0  0  0  0  0  0  0  0  0
   49.1065    6.6970   15.6857 H   0  0  0  0  0  0  0  0  0  0  0  0
   48.4220   13.7984   16.6258 H   0  0  0  0  0  0  0  0  0  0  0  0
   49.8183   10.4582   12.5941 H   0  0  0  0  0  0  0  0  0  0  0  0
   50.3451    6.1082   17.6343 H   0  0  0  0  0  0  0  0  0  0  0  0
   51.3589    6.8722   18.8629 H   0  0  0  0  0  0  0  0  0  0  0  0
   51.0034    7.7394   17.3809 H   0  0  0  0  0  0  0  0  0  0  0  0
   48.8415    4.3737   21.1033 H   0  0  0  0  0  0  0  0  0  0  0  0
   48.1848    5.5745   22.2396 H   0  0  0  0  0  0  0  0  0  0  0  0
   49.8106    4.8896   22.4742 H   0  0  0  0  0  0  0  0  0  0  0  0
   50.7620    7.0825   22.5497 H   0  0  0  0  0  0  0  0  0  0  0  0
   50.6257    8.1851   21.1999 H   0  0  0  0  0  0  0  0  0  0  0  0
   49.2155    7.8987   22.2424 H   0  0  0  0  0  0  0  0  0  0  0  0
   49.8333    6.2792   13.4407 H   0  0  0  0  0  0  0  0  0  0  0  0
   47.3365   12.0140   20.3461 H   0  0  0  0  0  0  0  0  0  0  0  0
   47.6816   14.0413   18.9563 H   0  0  0  0  0  0  0  0  0  0  0  0
   50.2035    8.1486   11.8524 H   0  0  0  0  0  0  0  0  0  0  0  0
   50.3219   10.3330   18.6197 H   0  0  0  0  0  0  0  0  0  0  0  0
   50.4622    9.2876   17.2678 H   0  0  0  0  0  0  0  0  0  0  0  0
   47.6971   10.0825   18.3063 H   0  0  0  0  0  0  0  0  0  0  0  0
   47.7089    8.1747   16.8451 H   0  0  0  0  0  0  0  0  0  0  0  0
   46.8830    9.5218   16.1167 H   0  0  0  0  0  0  0  0  0  0  0  0
   49.7505   10.5926   20.6175 H   0  0  0  0  0  0  0  0  0  0  0  0
   51.6646    7.6077   17.4632 H   0  0  0  0  0  0  0  0  0  0  0  0
   46.4679    7.2869   22.2692 H   0  0  0  0  0  0  0  0  0  0  0  0
   48.6249    3.8812   18.6058 H   0  0  0  0  0  0  0  0  0  0  0  0
   49.4649   11.6301   16.3728 H   0  0  0  0  0  0  0  0  0  0  0  0
   48.8575   12.1541   17.9441 H   0  0  0  0  0  0  0  0  0  0  0  0
   47.7220   11.9034   16.6148 H   0  0  0  0  0  0  0  0  0  0  0  0
   47.3110    9.7659   13.7887 H   0  0  0  0  0  0  0  0  0  0  0  0
   48.3892   11.0019   14.4571 H   0  0  0  0  0  0  0  0  0  0  0  0
   49.0058    9.8667   13.2763 H   0  0  0  0  0  0  0  0  0  0  0  0
   47.6656    7.3876   14.3670 H   0  0  0  0  0  0  0  0  0  0  0  0
   49.3463    7.5551   13.8109 H   0  0  0  0  0  0  0  0  0  0  0  0
   49.0249    6.9438   15.4195 H   0  0  0  0  0  0  0  0  0  0  0  0
   52.0829    5.3723   16.5749 H   0  0  0  0  0  0  0  0  0  0  0  0
   48.4383   11.0719   22.6174 H   0  0  0  0  0  0  0  0  0  0  0  0
   46.7893    9.4200   23.4620 H   0  0  0  0  0  0  0  0  0  0  0  0
   50.5662    3.4897   17.1401 H   0  0  0  0  0  0  0  0  0  0  0  0
   50.0057   11.2253   17.6237 H   0  0  0  0  0  0  0  0  0  0  0  0
   49.0016    9.0029   21.0192 H   0  0  0  0  0  0  0  0  0  0  0  0
   49.0563    8.1675   15.0632 H   0  0  0  0  0  0  0  0  0  0  0  0
   49.5331    6.5662   19.3659 H   0  0  0  0  0  0  0  0  0  0  0  0
   50.3358    7.7750   17.1241 H   0  0  0  0  0  0  0  0  0  0  0  0
   47.4054    7.4616   17.8238 H   0  0  0  0  0  0  0  0  0  0  0  0
 10  9  1  0
 11  4  2  0
 12  3  2  0
 13  6  2  0
 14  5  2  0
 15  8  1  0
 16 10  1  0
 17 10  1  0
 18 12  1  0
 19 11  1  0
 20 19  2  0
 21 18  2  0
  5  2  1  0
 13 20  1  0
 14 21  1  0
  2  6  1  0
  3  1  1  0
  4  1  1  0
  5  3  1  0
  6  4  1  0
  7  1  1  0
  8  7  1  0
  9  8  1  0
 31 30  1  0
 32 25  2  0
 33 24  2  0
 34 27  2  0
 35 26  2  0
 36 29  1  0
 37 31  1  0
 38 31  1  0
 39 33  1  0
 40 32  1  0
 41 40  2  0
 42 39  2  0
 26 23  1  0
 34 41  1  0
 35 42  1  0
 23 27  1  0
 24 22  1  0
 25 22  1  0
 26 24  1  0
 27 25  1  0
 28 22  1  0
 29 28  1  0
 30 29  1  0
 49 44  2  0
 50 47  1  0
 51 48  1  0
 49 43  1  0
 51 52  1  0
 50 51  1  0
 52 45  1  0
 49 50  1  0
 52 46  2  0
  7 53  1  0
  7 54  1  0
  8 55  1  6
  9 56  1  0
  9 57  1  0
 11 58  1  0
 12 59  1  0
 13 60  1  0
 14 61  1  0
 15 62  1  0
 15 63  1  0
 15 64  1  0
 16 65  1  0
 16 66  1  0
 16 67  1  0
 17 68  1  0
 17 69  1  0
 17 70  1  0
 18 71  1  0
 19 72  1  0
 20 73  1  0
 21 74  1  0
 28 75  1  0
 28 76  1  0
 29 77  1  1
 30 78  1  0
 30 79  1  0
 32 80  1  0
 33 81  1  0
 34 82  1  0
 35 83  1  0
 36 84  1  0
 36 85  1  0
 36 86  1  0
 37 87  1  0
 37 88  1  0
 37 89  1  0
 38 90  1  0
 38 91  1  0
 38 92  1  0
 39 93  1  0
 40 94  1  0
 41 95  1  0
 42 96  1  0
 43 97  1  0
 45 98  1  0
 47 99  1  0
 48100  1  0
 50101  1  6
 51102  1  1
M  END
> <Uni-Dock RESULT> 
ENERGY=   -5.046  LOWER_BOUND=    1.720  UPPER_BOUND=    5.323
INTER + INTRA:          -5.046
INTER:                  -5.046
INTRA:                   0.000
UNBOUND:                 0.000

$$$$

     RDKit          3D

102105  0  0  0  0  0  0  0  0999 V2000
   49.0585    8.2753   17.3252 N   0  0  0  0  0  0  0  0  0  0  0  0
   47.6080    7.4308   20.0148 S   0  0  0  0  0  0  0  0  0  0  0  0
   48.5044    6.9595   17.3841 C   0  0  0  0  0  0  0  0  0  0  0  0
   48.9998    9.2479   18.3761 C   0  0  0  0  0  0  0  0  0  0  0  0
   47.8378    6.4837   18.5330 C   0  0  0  0  0  0  0  0  0  0  0  0
   48.3702    8.9779   19.6071 C   0  0  0  0  0  0  0  0  0  0  0  0
   49.8393    8.6529   16.1196 C   0  0  0  0  0  0  0  0  0  0  0  0
   49.0457    9.5487   15.1323 C   0  0  1  0  0  0  0  0  0  0  0  0
   50.0465   10.1727   14.1274 C   0  0  0  0  0  0  0  0  0  0  0  0
   49.4448   11.0532   13.1103 N   0  0  0  0  0  0  0  0  0  0  0  0
   49.5648   10.5416   18.2535 C   0  0  0  0  0  0  0  0  0  0  0  0
   48.5687    6.0502   16.3014 C   0  0  0  0  0  0  0  0  0  0  0  0
   48.3127    9.9490   20.6306 C   0  0  0  0  0  0  0  0  0  0  0  0
   47.2948    5.1814   18.5821 C   0  0  0  0  0  0  0  0  0  0  0  0
   47.9360    8.7843   14.4063 C   0  0  0  0  0  0  0  0  0  0  0  0
   50.4372   11.3993   12.0883 C   0  0  0  0  0  0  0  0  0  0  0  0
   48.8948   12.2778   13.6956 C   0  0  0  0  0  0  0  0  0  0  0  0
   48.0217    4.7601   16.3518 C   0  0  0  0  0  0  0  0  0  0  0  0
   49.5100   11.5015   19.2733 C   0  0  0  0  0  0  0  0  0  0  0  0
   48.8810   11.2047   20.4674 C   0  0  0  0  0  0  0  0  0  0  0  0
   47.3861    4.3212   17.4975 C   0  0  0  0  0  0  0  0  0  0  0  0
   48.6280   10.0672   15.6007 N   0  0  0  0  0  0  0  0  0  0  0  0
   51.3083    9.9748   13.9926 S   0  0  0  0  0  0  0  0  0  0  0  0
   48.6899    9.1288   14.5389 C   0  0  0  0  0  0  0  0  0  0  0  0
   49.4603   11.2158   15.6971 C   0  0  0  0  0  0  0  0  0  0  0  0
   49.8332    9.0093   13.7239 C   0  0  0  0  0  0  0  0  0  0  0  0
   50.6777   11.3076   14.9944 C   0  0  0  0  0  0  0  0  0  0  0  0
   47.9746    9.6143   16.8592 C   0  0  0  0  0  0  0  0  0  0  0  0
   48.9892    9.1981   17.9540 C   0  0  2  0  0  0  0  0  0  0  0  0
   49.6049    7.7995   17.7059 C   0  0  0  0  0  0  0  0  0  0  0  0
   48.6334    6.6856   17.7089 N   0  0  0  0  0  0  0  0  0  0  0  0
   49.0770   12.3283   16.4737 C   0  0  0  0  0  0  0  0  0  0  0  0
   47.5773    8.3282   14.2097 C   0  0  0  0  0  0  0  0  0  0  0  0
   51.4821   12.4555   15.1042 C   0  0  0  0  0  0  0  0  0  0  0  0
   49.8666    8.0817   12.6680 C   0  0  0  0  0  0  0  0  0  0  0  0
   48.3372    9.3274   19.3332 C   0  0  0  0  0  0  0  0  0  0  0  0
   48.5860    6.0082   19.0107 C   0  0  0  0  0  0  0  0  0  0  0  0
   48.9939    5.6953   16.6855 C   0  0  0  0  0  0  0  0  0  0  0  0
   47.6118    7.4147   13.1509 C   0  0  0  0  0  0  0  0  0  0  0  0
   49.8798   13.4690   16.5773 C   0  0  0  0  0  0  0  0  0  0  0  0
   51.0853   13.5304   15.8946 C   0  0  0  0  0  0  0  0  0  0  0  0
   48.7608    7.2840   12.3836 C   0  0  0  0  0  0  0  0  0  0  0  0
   47.4761    9.6738   17.5128 O   0  0  0  0  0  0  0  0  0  0  0  0
   48.1971    7.8202   18.5237 O   0  0  0  0  0  0  0  0  0  0  0  0
   49.2797   11.2323   15.2396 O   0  0  0  0  0  0  0  0  0  0  0  0
   50.2121   10.7461   17.2159 O   0  0  0  0  0  0  0  0  0  0  0  0
   49.0772    6.7023   16.1822 O   0  0  0  0  0  0  0  0  0  0  0  0
   49.7937    8.9301   14.1613 O   0  0  0  0  0  0  0  0  0  0  0  0
   48.1321    8.4975   17.5087 C   0  0  0  0  0  0  0  0  0  0  0  0
   48.6482    8.0786   16.1358 C   0  0  1  0  0  0  0  0  0  0  0  0
   49.8066    8.9306   15.6037 C   0  0  2  0  0  0  0  0  0  0  0  0
   49.8142   10.3617   16.1289 C   0  0  0  0  0  0  0  0  0  0  0  0
   50.7624    9.1572   16.4351 H   0  0  0  0  0  0  0  0  0  0  0  0
   50.2571    7.7924   15.5891 H   0  0  0  0  0  0  0  0  0  0  0  0
   48.5620   10.3543   15.6925 H   0  0  0  0  0  0  0  0  0  0  0  0
   50.8227   10.7209   14.6791 H   0  0  0  0  0  0  0  0  0  0  0  0
   50.5542    9.3434   13.6159 H   0  0  0  0  0  0  0  0  0  0  0  0
   50.0720   10.8632   17.3512 H   0  0  0  0  0  0  0  0  0  0  0  0
   49.0298    6.3088   15.3560 H   0  0  0  0  0  0  0  0  0  0  0  0
   47.8210    9.7213   21.5749 H   0  0  0  0  0  0  0  0  0  0  0  0
   46.7897    4.8315   19.4803 H   0  0  0  0  0  0  0  0  0  0  0  0
   48.3429    7.9730   13.7951 H   0  0  0  0  0  0  0  0  0  0  0  0
   47.3685    9.4457   13.7441 H   0  0  0  0  0  0  0  0  0  0  0  0
   47.2180    8.3624   15.1146 H   0  0  0  0  0  0  0  0  0  0  0  0
   50.8196   10.4949   11.6020 H   0  0  0  0  0  0  0  0  0  0  0  0
   51.2857   11.9533   12.5075 H   0  0  0  0  0  0  0  0  0  0  0  0
   49.9809   12.0077   11.2984 H   0  0  0  0  0  0  0  0  0  0  0  0
   48.4735   12.9219   12.9146 H   0  0  0  0  0  0  0  0  0  0  0  0
   48.0706   12.0582   14.3802 H   0  0  0  0  0  0  0  0  0  0  0  0
   49.6543   12.8516   14.2385 H   0  0  0  0  0  0  0  0  0  0  0  0
   48.0955    4.1059   15.4867 H   0  0  0  0  0  0  0  0  0  0  0  0
   49.9575   12.4805   19.1204 H   0  0  0  0  0  0  0  0  0  0  0  0
   48.8316   11.9397   21.2652 H   0  0  0  0  0  0  0  0  0  0  0  0
   46.9582    3.3244   17.5482 H   0  0  0  0  0  0  0  0  0  0  0  0
   47.3301   10.4197   17.2315 H   0  0  0  0  0  0  0  0  0  0  0  0
   47.2731    8.7901   16.7010 H   0  0  0  0  0  0  0  0  0  0  0  0
   49.8310    9.9012   17.9576 H   0  0  0  0  0  0  0  0  0  0  0  0
   50.1217    7.8507   16.7386 H   0  0  0  0  0  0  0  0  0  0  0  0
   50.4027    7.6182   18.4398 H   0  0  0  0  0  0  0  0  0  0  0  0
   48.1220   12.3432   16.9911 H   0  0  0  0  0  0  0  0  0  0  0  0
   46.6436    8.4255   14.7576 H   0  0  0  0  0  0  0  0  0  0  0  0
   52.4290   12.5124   14.5719 H   0  0  0  0  0  0  0  0  0  0  0  0
   50.7571    7.9810   12.0532 H   0  0  0  0  0  0  0  0  0  0  0  0
   47.4074    8.7543   19.3962 H   0  0  0  0  0  0  0  0  0  0  0  0
   48.0891   10.3749   19.5421 H   0  0  0  0  0  0  0  0  0  0  0  0
   49.0169    8.9882   20.1212 H   0  0  0  0  0  0  0  0  0  0  0  0
   49.5500    5.5624   19.2818 H   0  0  0  0  0  0  0  0  0  0  0  0
   48.2900    6.6881   19.8129 H   0  0  0  0  0  0  0  0  0  0  0  0
   47.8361    5.2099   18.9933 H   0  0  0  0  0  0  0  0  0  0  0  0
   49.9818    5.2571   16.8660 H   0  0  0  0  0  0  0  0  0  0  0  0
   48.2552    4.8874   16.6554 H   0  0  0  0  0  0  0  0  0  0  0  0
   48.9939    6.1462   15.6887 H   0  0  0  0  0  0  0  0  0  0  0  0
   46.7360    6.8105   12.9288 H   0  0  0  0  0  0  0  0  0  0  0  0
   49.5523   14.3100   17.1841 H   0  0  0  0  0  0  0  0  0  0  0  0
   51.7159   14.4120   15.9715 H   0  0  0  0  0  0  0  0  0  0  0  0
   48.7942    6.5757   11.5604 H   0  0  0  0  0  0  0  0  0  0  0  0
   47.2144    9.7998   18.4523 H   0  0  0  0  0  0  0  0  0  0  0  0
   49.3451   12.1022   15.6891 H   0  0  0  0  0  0  0  0  0  0  0  0
   48.5600    6.2597   16.8821 H   0  0  0  0  0  0  0  0  0  0  0  0
   49.2629    9.7083   13.8958 H   0  0  0  0  0  0  0  0  0  0  0  0
   47.7971    8.1017   15.4456 H   0  0  0  0  0  0  0  0  0  0  0  0
   50.7696    8.4873   15.8822 H   0  0  0  0  0  0  0  0  0  0  0  0
 10  9  1  0
 11  4  2  0
 12  3  2  0
 13  6  2  0
 14  5  2  0
 15  8  1  0
 16 10  1  0
 17 10  1  0
 18 12  1  0
 19 11  1  0
 20 19  2  0
 21 18  2  0
  5  2  1  0
 13 20  1  0
 14 21  1  0
  2  6  1  0
  3  1  1  0
  4  1  1  0
  5  3  1  0
  6  4  1  0
  7  1  1  0
  8  7  1  0
  9  8  1  0
 31 30  1  0
 32 25  2  0
 33 24  2  0
 34 27  2  0
 35 26  2  0
 36 29  1  0
 37 31  1  0
 38 31  1  0
 39 33  1  0
 40 32  1  0
 41 40  2  0
 42 39  2  0
 26 23  1  0
 34 41  1  0
 35 42  1  0
 23 27  1  0
 24 22  1  0
 25 22  1  0
 26 24  1  0
 27 25  1  0
 28 22  1  0
 29 28  1  0
 30 29  1  0
 49 44  2  0
 50 47  1  0
 51 48  1  0
 49 43  1  0
 51 52  1  0
 50 51  1  0
 52 45  1  0
 49 50  1  0
 52 46  2  0
  7 53  1  0
  7 54  1  0
  8 55  1  6
  9 56  1  0
  9 57  1  0
 11 58  1  0
 12 59  1  0
 13 60  1  0
 14 61  1  0
 15 62  1  0
 15 63  1  0
 15 64  1  0
 16 65  1  0
 16 66  1  0
 16 67  1  0
 17 68  1  0
 17 69  1  0
 17 70  1  0
 18 71  1  0
 19 72  1  0
 20 73  1  0
 21 74  1  0
 28 75  1  0
 28 76  1  0
 29 77  1  1
 30 78  1  0
 30 79  1  0
 32 80  1  0
 33 81  1  0
 34 82  1  0
 35 83  1  0
 36 84  1  0
 36 85  1  0
 36 86  1  0
 37 87  1  0
 37 88  1  0
 37 89  1  0
 38 90  1  0
 38 91  1  0
 38 92  1  0
 39 93  1  0
 40 94  1  0
 41 95  1  0
 42 96  1  0
 43 97  1  0
 45 98  1  0
 47 99  1  0
 48100  1  0
 50101  1  6
 51102  1  1
M  END
> <Uni-Dock RESULT> 
ENERGY=   -4.876  LOWER_BOUND=    2.127  UPPER_BOUND=    5.082
INTER + INTRA:          -4.876
INTER:                  -4.876
INTRA:                   0.000
UNBOUND:                 0.000

$$$$

     RDKit          3D

102105  0  0  0  0  0  0  0  0999 V2000
   49.3258   10.1113   17.0611 N   0  0  0  0  0  0  0  0  0  0  0  0
   49.0135   11.7427   14.3608 S   0  0  0  0  0  0  0  0  0  0  0  0
   49.0685   11.5126   17.1697 C   0  0  0  0  0  0  0  0  0  0  0  0
   49.4399    9.3816   15.8329 C   0  0  0  0  0  0  0  0  0  0  0  0
   48.9123   12.3308   16.0310 C   0  0  0  0  0  0  0  0  0  0  0  0
   49.3078   10.0088   14.5784 C   0  0  0  0  0  0  0  0  0  0  0  0
   49.5871    9.3485   18.3084 C   0  0  0  0  0  0  0  0  0  0  0  0
   48.3661    8.5186   18.7854 C   0  0  1  0  0  0  0  0  0  0  0  0
   48.8528    7.5017   19.8484 C   0  0  0  0  0  0  0  0  0  0  0  0
   47.8028    6.6339   20.4106 N   0  0  0  0  0  0  0  0  0  0  0  0
   49.6904    7.9875   15.7918 C   0  0  0  0  0  0  0  0  0  0  0  0
   48.9377   12.1750   18.4136 C   0  0  0  0  0  0  0  0  0  0  0  0
   49.4143    9.2754   13.3764 C   0  0  0  0  0  0  0  0  0  0  0  0
   48.6597   13.7148   16.1485 C   0  0  0  0  0  0  0  0  0  0  0  0
   47.2371    9.3949   19.3334 C   0  0  0  0  0  0  0  0  0  0  0  0
   48.3262    5.8810   21.5545 C   0  0  0  0  0  0  0  0  0  0  0  0
   47.2634    5.7042   19.4160 C   0  0  0  0  0  0  0  0  0  0  0  0
   48.6796   13.5487   18.5259 C   0  0  0  0  0  0  0  0  0  0  0  0
   49.8003    7.2636   14.5967 C   0  0  0  0  0  0  0  0  0  0  0  0
   49.6615    7.9097   13.3832 C   0  0  0  0  0  0  0  0  0  0  0  0
   48.5445   14.3235   17.3898 C   0  0  0  0  0  0  0  0  0  0  0  0
   48.0386    8.2091   18.1075 N   0  0  0  0  0  0  0  0  0  0  0  0
   50.0147    7.3554   20.3757 S   0  0  0  0  0  0  0  0  0  0  0  0
   47.9177    8.9034   19.3383 C   0  0  0  0  0  0  0  0  0  0  0  0
   48.6348    6.9254   17.9733 C   0  0  0  0  0  0  0  0  0  0  0  0
   48.7327    8.5932   20.4452 C   0  0  0  0  0  0  0  0  0  0  0  0
   49.5174    6.4150   18.9453 C   0  0  0  0  0  0  0  0  0  0  0  0
   47.9263    9.0213   16.8651 C   0  0  0  0  0  0  0  0  0  0  0  0
   49.3008    9.3582   16.2340 C   0  0  2  0  0  0  0  0  0  0  0  0
   50.0430   10.4962   16.9762 C   0  0  0  0  0  0  0  0  0  0  0  0
   49.3439   11.7984   16.9707 N   0  0  0  0  0  0  0  0  0  0  0  0
   48.3329    6.0948   16.8749 C   0  0  0  0  0  0  0  0  0  0  0  0
   46.9223    9.8841   19.5258 C   0  0  0  0  0  0  0  0  0  0  0  0
   50.0922    5.1412   18.7910 C   0  0  0  0  0  0  0  0  0  0  0  0
   48.5854    9.2853   21.6599 C   0  0  0  0  0  0  0  0  0  0  0  0
   49.1244    9.6360   14.7388 C   0  0  0  0  0  0  0  0  0  0  0  0
   49.8484   12.6825   15.9126 C   0  0  0  0  0  0  0  0  0  0  0  0
   49.5219   12.4752   18.2622 C   0  0  0  0  0  0  0  0  0  0  0  0
   46.7725   10.5620   20.7401 C   0  0  0  0  0  0  0  0  0  0  0  0
   48.9056    4.8272   16.7275 C   0  0  0  0  0  0  0  0  0  0  0  0
   49.7890    4.3522   17.6850 C   0  0  0  0  0  0  0  0  0  0  0  0
   47.6105   10.2692   21.8070 C   0  0  0  0  0  0  0  0  0  0  0  0
   47.6672    9.2015   16.1038 O   0  0  0  0  0  0  0  0  0  0  0  0
   49.0013   10.9665   15.8165 O   0  0  0  0  0  0  0  0  0  0  0  0
   48.3145    6.8747   18.3435 O   0  0  0  0  0  0  0  0  0  0  0  0
   49.9141    7.4521   16.8876 O   0  0  0  0  0  0  0  0  0  0  0  0
   49.2527   11.4070   18.5090 O   0  0  0  0  0  0  0  0  0  0  0  0
   48.8536    8.7546   20.0470 O   0  0  0  0  0  0  0  0  0  0  0  0
   48.4866   10.1601   16.5767 C   0  0  0  0  0  0  0  0  0  0  0  0
   48.5913   10.1929   18.0982 C   0  0  1  0  0  0  0  0  0  0  0  0
   49.3377    9.0020   18.7110 C   0  0  2  0  0  0  0  0  0  0  0  0
   49.2585    7.7274   17.8786 C   0  0  0  0  0  0  0  0  0  0  0  0
   50.4555    8.6949   18.1523 H   0  0  0  0  0  0  0  0  0  0  0  0
   49.9562    9.9733   19.1269 H   0  0  0  0  0  0  0  0  0  0  0  0
   47.9555    7.9677   17.9341 H   0  0  0  0  0  0  0  0  0  0  0  0
   49.6544    6.8836   19.4211 H   0  0  0  0  0  0  0  0  0  0  0  0
   49.3058    8.0779   20.6669 H   0  0  0  0  0  0  0  0  0  0  0  0
   49.8074    7.3986   16.6943 H   0  0  0  0  0  0  0  0  0  0  0  0
   49.0092   11.6501   19.3584 H   0  0  0  0  0  0  0  0  0  0  0  0
   49.3086    9.7783   12.4166 H   0  0  0  0  0  0  0  0  0  0  0  0
   48.5485   14.3295   15.2573 H   0  0  0  0  0  0  0  0  0  0  0  0
   47.5608    9.9614   20.2118 H   0  0  0  0  0  0  0  0  0  0  0  0
   46.3746    8.7892   19.6288 H   0  0  0  0  0  0  0  0  0  0  0  0
   46.8792   10.0977   18.5762 H   0  0  0  0  0  0  0  0  0  0  0  0
   48.6848    6.5640   22.3326 H   0  0  0  0  0  0  0  0  0  0  0  0
   49.1505    5.2163   21.2691 H   0  0  0  0  0  0  0  0  0  0  0  0
   47.5345    5.2761   22.0125 H   0  0  0  0  0  0  0  0  0  0  0  0
   46.5007    5.0582   19.8669 H   0  0  0  0  0  0  0  0  0  0  0  0
   46.7628    6.2362   18.6020 H   0  0  0  0  0  0  0  0  0  0  0  0
   48.0421    5.0643   18.9859 H   0  0  0  0  0  0  0  0  0  0  0  0
   48.5829   14.0034   19.5086 H   0  0  0  0  0  0  0  0  0  0  0  0
   49.9887    6.1931   14.6272 H   0  0  0  0  0  0  0  0  0  0  0  0
   49.7442    7.3602   12.4503 H   0  0  0  0  0  0  0  0  0  0  0  0
   48.3440   15.3882   17.4642 H   0  0  0  0  0  0  0  0  0  0  0  0
   47.3051    8.4775   16.1433 H   0  0  0  0  0  0  0  0  0  0  0  0
   47.3726    9.9526   17.0148 H   0  0  0  0  0  0  0  0  0  0  0  0
   49.9560    8.4807   16.2966 H   0  0  0  0  0  0  0  0  0  0  0  0
   50.1964   10.1513   18.0072 H   0  0  0  0  0  0  0  0  0  0  0  0
   51.0560   10.5999   16.5625 H   0  0  0  0  0  0  0  0  0  0  0  0
   47.6139    6.4065   16.1226 H   0  0  0  0  0  0  0  0  0  0  0  0
   46.2182   10.1172   18.7313 H   0  0  0  0  0  0  0  0  0  0  0  0
   50.7859    4.7606   19.5374 H   0  0  0  0  0  0  0  0  0  0  0  0
   49.2281    9.0544   22.5052 H   0  0  0  0  0  0  0  0  0  0  0  0
   48.3861   10.4229   14.5582 H   0  0  0  0  0  0  0  0  0  0  0  0
   48.7737    8.7351   14.2213 H   0  0  0  0  0  0  0  0  0  0  0  0
   50.0741    9.9288   14.2800 H   0  0  0  0  0  0  0  0  0  0  0  0
   50.9117   12.9167   16.0394 H   0  0  0  0  0  0  0  0  0  0  0  0
   49.7139   12.2472   14.9197 H   0  0  0  0  0  0  0  0  0  0  0  0
   49.2912   13.6257   15.9117 H   0  0  0  0  0  0  0  0  0  0  0  0
   50.5763   12.6805   18.4781 H   0  0  0  0  0  0  0  0  0  0  0  0
   48.9726   13.4225   18.2786 H   0  0  0  0  0  0  0  0  0  0  0  0
   49.1141   11.8718   19.0787 H   0  0  0  0  0  0  0  0  0  0  0  0
   45.9965   11.3155   20.8470 H   0  0  0  0  0  0  0  0  0  0  0  0
   48.6488    4.2121   15.8683 H   0  0  0  0  0  0  0  0  0  0  0  0
   50.2400    3.3695   17.5770 H   0  0  0  0  0  0  0  0  0  0  0  0
   47.4998   10.7928   22.7525 H   0  0  0  0  0  0  0  0  0  0  0  0
   47.7093    9.3096   15.1273 H   0  0  0  0  0  0  0  0  0  0  0  0
   48.3654    6.1075   17.7335 H   0  0  0  0  0  0  0  0  0  0  0  0
   49.0820   12.0785   17.8211 H   0  0  0  0  0  0  0  0  0  0  0  0
   48.1339    8.0976   19.9560 H   0  0  0  0  0  0  0  0  0  0  0  0
   47.5718   10.2609   18.4947 H   0  0  0  0  0  0  0  0  0  0  0  0
   50.4021    9.2354   18.8301 H   0  0  0  0  0  0  0  0  0  0  0  0
 10  9  1  0
 11  4  2  0
 12  3  2  0
 13  6  2  0
 14  5  2  0
 15  8  1  0
 16 10  1  0
 17 10  1  0
 18 12  1  0
 19 11  1  0
 20 19  2  0
 21 18  2  0
  5  2  1  0
 13 20  1  0
 14 21  1  0
  2  6  1  0
  3  1  1  0
  4  1  1  0
  5  3  1  0
  6  4  1  0
  7  1  1  0
  8  7  1  0
  9  8  1  0
 31 30  1  0
 32 25  2  0
 33 24  2  0
 34 27  2  0
 35 26  2  0
 36 29  1  0
 37 31  1  0
 38 31  1  0
 39 33  1  0
 40 32  1  0
 41 40  2  0
 42 39  2  0
 26 23  1  0
 34 41  1  0
 35 42  1  0
 23 27  1  0
 24 22  1  0
 25 22  1  0
 26 24  1  0
 27 25  1  0
 28 22  1  0
 29 28  1  0
 30 29  1  0
 49 44  2  0
 50 47  1  0
 51 48  1  0
 49 43  1  0
 51 52  1  0
 50 51  1  0
 52 45  1  0
 49 50  1  0
 52 46  2  0
  7 53  1  0
  7 54  1  0
  8 55  1  6
  9 56  1  0
  9 57  1  0
 11 58  1  0
 12 59  1  0
 13 60  1  0
 14 61  1  0
 15 62  1  0
 15 63  1  0
 15 64  1  0
 16 65  1  0
 16 66  1  0
 16 67  1  0
 17 68  1  0
 17 69  1  0
 17 70  1  0
 18 71  1  0
 19 72  1  0
 20 73  1  0
 21 74  1  0
 28 75  1  0
 28 76  1  0
 29 77  1  1
 30 78  1  0
 30 79  1  0
 32 80  1  0
 33 81  1  0
 34 82  1  0
 35 83  1  0
 36 84  1  0
 36 85  1  0
 36 86  1  0
 37 87  1  0
 37 88  1  0
 37 89  1  0
 38 90  1  0
 38 91  1  0
 38 92  1  0
 39 93  1  0
 40 94  1  0
 41 95  1  0
 42 96  1  0
 43 97  1  0
 45 98  1  0
 47 99  1  0
 48100  1  0
 50101  1  6
 51102  1  1
M  END
> <Uni-Dock RESULT> 
ENERGY=   -4.770  LOWER_BOUND=    1.619  UPPER_BOUND=    5.193
INTER + INTRA:          -4.770
INTER:                  -4.770
INTRA:                   0.000
UNBOUND:                 0.000

$$$$

     RDKit          3D

102105  0  0  0  0  0  0  0  0999 V2000
   49.0809    8.5470   19.7295 N   0  0  0  0  0  0  0  0  0  0  0  0
   46.6759    8.9582   21.7537 S   0  0  0  0  0  0  0  0  0  0  0  0
   48.8393    7.5061   20.6781 C   0  0  0  0  0  0  0  0  0  0  0  0
   48.3169    9.7536   19.6093 C   0  0  0  0  0  0  0  0  0  0  0  0
   47.7947    7.5883   21.6229 C   0  0  0  0  0  0  0  0  0  0  0  0
   47.2225   10.0297   20.4523 C   0  0  0  0  0  0  0  0  0  0  0  0
   50.2694    8.4280   18.8467 C   0  0  0  0  0  0  0  0  0  0  0  0
   49.9193    7.9639   17.4083 C   0  0  1  0  0  0  0  0  0  0  0  0
   51.1453    8.2287   16.4985 C   0  0  0  0  0  0  0  0  0  0  0  0
   50.9751    7.8337   15.0890 N   0  0  0  0  0  0  0  0  0  0  0  0
   48.6038   10.7474   18.6408 C   0  0  0  0  0  0  0  0  0  0  0  0
   49.6116    6.3212   20.7310 C   0  0  0  0  0  0  0  0  0  0  0  0
   46.4735   11.2191   20.3168 C   0  0  0  0  0  0  0  0  0  0  0  0
   47.5648    6.5552   22.5572 C   0  0  0  0  0  0  0  0  0  0  0  0
   49.4943    6.4947   17.3512 C   0  0  0  0  0  0  0  0  0  0  0  0
   52.2564    7.9151   14.3814 C   0  0  0  0  0  0  0  0  0  0  0  0
   49.9804    8.6591   14.4003 C   0  0  0  0  0  0  0  0  0  0  0  0
   49.3753    5.2942   21.6561 C   0  0  0  0  0  0  0  0  0  0  0  0
   47.8612   11.9291   18.5123 C   0  0  0  0  0  0  0  0  0  0  0  0
   46.7909   12.1665   19.3535 C   0  0  0  0  0  0  0  0  0  0  0  0
   48.3512    5.4125   22.5762 C   0  0  0  0  0  0  0  0  0  0  0  0
   49.2319    8.3559   17.2173 N   0  0  0  0  0  0  0  0  0  0  0  0
   52.3160    8.6616   16.8008 S   0  0  0  0  0  0  0  0  0  0  0  0
   49.9974    7.1651   17.3050 C   0  0  0  0  0  0  0  0  0  0  0  0
   49.6631    9.5312   16.5433 C   0  0  0  0  0  0  0  0  0  0  0  0
   51.3930    7.1675   17.1104 C   0  0  0  0  0  0  0  0  0  0  0  0
   51.0240    9.7682   16.2679 C   0  0  0  0  0  0  0  0  0  0  0  0
   48.1391    8.5260   18.2137 C   0  0  0  0  0  0  0  0  0  0  0  0
   48.5287    9.4584   19.3884 C   0  0  2  0  0  0  0  0  0  0  0  0
   49.4440    8.7680   20.4288 C   0  0  0  0  0  0  0  0  0  0  0  0
   48.8390    7.6048   21.1110 N   0  0  0  0  0  0  0  0  0  0  0  0
   48.7352   10.4902   16.0885 C   0  0  0  0  0  0  0  0  0  0  0  0
   49.3785    5.9163   17.5172 C   0  0  0  0  0  0  0  0  0  0  0  0
   51.4251   10.9372   15.5975 C   0  0  0  0  0  0  0  0  0  0  0  0
   52.1293    5.9724   17.1881 C   0  0  0  0  0  0  0  0  0  0  0  0
   47.2637   10.0566   20.0097 C   0  0  0  0  0  0  0  0  0  0  0  0
   48.2796    7.9709   22.4182 C   0  0  0  0  0  0  0  0  0  0  0  0
   49.8473    6.5566   21.3170 C   0  0  0  0  0  0  0  0  0  0  0  0
   50.1145    4.7286   17.5825 C   0  0  0  0  0  0  0  0  0  0  0  0
   49.1394   11.6503   15.4196 C   0  0  0  0  0  0  0  0  0  0  0  0
   50.4861   11.8752   15.1775 C   0  0  0  0  0  0  0  0  0  0  0  0
   51.4933    4.7565   17.4266 C   0  0  0  0  0  0  0  0  0  0  0  0
   47.3800    8.7129   18.4746 O   0  0  0  0  0  0  0  0  0  0  0  0
   47.8429    8.5741   20.6527 O   0  0  0  0  0  0  0  0  0  0  0  0
   49.7362    9.1687   16.2185 O   0  0  0  0  0  0  0  0  0  0  0  0
   49.6292   10.5594   17.9696 O   0  0  0  0  0  0  0  0  0  0  0  0
   49.9737    6.8996   20.2490 O   0  0  0  0  0  0  0  0  0  0  0  0
   51.1563    7.3686   17.4309 O   0  0  0  0  0  0  0  0  0  0  0  0
   48.1642    8.3278   19.4997 C   0  0  0  0  0  0  0  0  0  0  0  0
   49.3676    7.4894   19.0806 C   0  0  1  0  0  0  0  0  0  0  0  0
   50.4458    8.2626   18.3121 C   0  0  2  0  0  0  0  0  0  0  0  0
   49.9117    9.4572   17.5301 C   0  0  0  0  0  0  0  0  0  0  0  0
   50.7927    9.3930   18.8199 H   0  0  0  0  0  0  0  0  0  0  0  0
   51.0544    7.7905   19.2637 H   0  0  0  0  0  0  0  0  0  0  0  0
   49.0745    8.5533   17.0397 H   0  0  0  0  0  0  0  0  0  0  0  0
   51.4180    9.2916   16.5547 H   0  0  0  0  0  0  0  0  0  0  0  0
   51.9906    7.6670   16.9195 H   0  0  0  0  0  0  0  0  0  0  0  0
   49.4206   10.6430   17.9360 H   0  0  0  0  0  0  0  0  0  0  0  0
   50.4233    6.1289   20.0401 H   0  0  0  0  0  0  0  0  0  0  0  0
   45.6306   11.4140   20.9777 H   0  0  0  0  0  0  0  0  0  0  0  0
   46.7573    6.6409   23.2818 H   0  0  0  0  0  0  0  0  0  0  0  0
   50.3009    5.8319   17.6790 H   0  0  0  0  0  0  0  0  0  0  0  0
   49.2181    6.2024   16.3332 H   0  0  0  0  0  0  0  0  0  0  0  0
   48.6161    6.3126   17.9764 H   0  0  0  0  0  0  0  0  0  0  0  0
   52.9980    7.2603   14.8526 H   0  0  0  0  0  0  0  0  0  0  0  0
   52.6553    8.9366   14.3657 H   0  0  0  0  0  0  0  0  0  0  0  0
   52.1482    7.5683   13.3468 H   0  0  0  0  0  0  0  0  0  0  0  0
   49.8903    8.3570   13.3501 H   0  0  0  0  0  0  0  0  0  0  0  0
   48.9852    8.5317   14.8356 H   0  0  0  0  0  0  0  0  0  0  0  0
   50.2385    9.7237   14.4285 H   0  0  0  0  0  0  0  0  0  0  0  0
   49.9973    4.4027   21.6467 H   0  0  0  0  0  0  0  0  0  0  0  0
   48.1252   12.6542   17.7464 H   0  0  0  0  0  0  0  0  0  0  0  0
   46.2075   13.0780   19.2640 H   0  0  0  0  0  0  0  0  0  0  0  0
   48.1583    4.6235   23.2970 H   0  0  0  0  0  0  0  0  0  0  0  0
   47.2527    8.9186   17.7011 H   0  0  0  0  0  0  0  0  0  0  0  0
   47.7863    7.5755   18.6238 H   0  0  0  0  0  0  0  0  0  0  0  0
   49.1008   10.3112   19.0032 H   0  0  0  0  0  0  0  0  0  0  0  0
   50.3539    8.4646   19.8946 H   0  0  0  0  0  0  0  0  0  0  0  0
   49.7855    9.5115   21.1626 H   0  0  0  0  0  0  0  0  0  0  0  0
   47.6676   10.3363   16.2169 H   0  0  0  0  0  0  0  0  0  0  0  0
   48.2976    5.8418   17.6046 H   0  0  0  0  0  0  0  0  0  0  0  0
   52.4793   11.1214   15.4031 H   0  0  0  0  0  0  0  0  0  0  0  0
   53.2078    5.9820   17.0546 H   0  0  0  0  0  0  0  0  0  0  0  0
   46.5588    9.2791   20.3192 H   0  0  0  0  0  0  0  0  0  0  0  0
   46.7464   10.6952   19.2838 H   0  0  0  0  0  0  0  0  0  0  0  0
   47.5092   10.6781   20.8766 H   0  0  0  0  0  0  0  0  0  0  0  0
   49.0441    8.3531   23.1045 H   0  0  0  0  0  0  0  0  0  0  0  0
   47.4966    8.7274   22.3287 H   0  0  0  0  0  0  0  0  0  0  0  0
   47.8104    7.0981   22.8854 H   0  0  0  0  0  0  0  0  0  0  0  0
   50.6759    6.8997   21.9465 H   0  0  0  0  0  0  0  0  0  0  0  0
   49.3958    5.6759   21.7858 H   0  0  0  0  0  0  0  0  0  0  0  0
   50.2581    6.2169   20.3616 H   0  0  0  0  0  0  0  0  0  0  0  0
   49.6037    3.7842   17.7520 H   0  0  0  0  0  0  0  0  0  0  0  0
   48.3962   12.3684   15.0808 H   0  0  0  0  0  0  0  0  0  0  0  0
   50.8087   12.7748   14.6606 H   0  0  0  0  0  0  0  0  0  0  0  0
   52.0706    3.8375   17.4771 H   0  0  0  0  0  0  0  0  0  0  0  0
   46.6649    9.2352   18.9021 H   0  0  0  0  0  0  0  0  0  0  0  0
   49.3977   10.0057   15.8337 H   0  0  0  0  0  0  0  0  0  0  0  0
   49.2732    6.8010   20.9219 H   0  0  0  0  0  0  0  0  0  0  0  0
   50.6900    7.4096   16.5714 H   0  0  0  0  0  0  0  0  0  0  0  0
   48.9900    6.6500   18.4856 H   0  0  0  0  0  0  0  0  0  0  0  0
   51.2054    8.6504   19.0007 H   0  0  0  0  0  0  0  0  0  0  0  0
 10  9  1  0
 11  4  2  0
 12  3  2  0
 13  6  2  0
 14  5  2  0
 15  8  1  0
 16 10  1  0
 17 10  1  0
 18 12  1  0
 19 11  1  0
 20 19  2  0
 21 18  2  0
  5  2  1  0
 13 20  1  0
 14 21  1  0
  2  6  1  0
  3  1  1  0
  4  1  1  0
  5  3  1  0
  6  4  1  0
  7  1  1  0
  8  7  1  0
  9  8  1  0
 31 30  1  0
 32 25  2  0
 33 24  2  0
 34 27  2  0
 35 26  2  0
 36 29  1  0
 37 31  1  0
 38 31  1  0
 39 33  1  0
 40 32  1  0
 41 40  2  0
 42 39  2  0
 26 23  1  0
 34 41  1  0
 35 42  1  0
 23 27  1  0
 24 22  1  0
 25 22  1  0
 26 24  1  0
 27 25  1  0
 28 22  1  0
 29 28  1  0
 30 29  1  0
 49 44  2  0
 50 47  1  0
 51 48  1  0
 49 43  1  0
 51 52  1  0
 50 51  1  0
 52 45  1  0
 49 50  1  0
 52 46  2  0
  7 53  1  0
  7 54  1  0
  8 55  1  6
  9 56  1  0
  9 57  1  0
 11 58  1  0
 12 59  1  0
 13 60  1  0
 14 61  1  0
 15 62  1  0
 15 63  1  0
 15 64  1  0
 16 65  1  0
 16 66  1  0
 16 67  1  0
 17 68  1  0
 17 69  1  0
 17 70  1  0
 18 71  1  0
 19 72  1  0
 20 73  1  0
 21 74  1  0
 28 75  1  0
 28 76  1  0
 29 77  1  1
 30 78  1  0
 30 79  1  0
 32 80  1  0
 33 81  1  0
 34 82  1  0
 35 83  1  0
 36 84  1  0
 36 85  1  0
 36 86  1  0
 37 87  1  0
 37 88  1  0
 37 89  1  0
 38 90  1  0
 38 91  1  0
 38 92  1  0
 39 93  1  0
 40 94  1  0
 41 95  1  0
 42 96  1  0
 43 97  1  0
 45 98  1  0
 47 99  1  0
 48100  1  0
 50101  1  6
 51102  1  1
M  END
> <Uni-Dock RESULT> 
ENERGY=   -4.554  LOWER_BOUND=    1.978  UPPER_BOUND=    4.532
INTER + INTRA:          -4.554
INTER:                  -4.554
INTRA:                   0.000
UNBOUND:                 0.000

$$$$
