
     RDKit          3D

102105  0  0  0  0  0  0  0  0999 V2000
   49.5534    6.4968   18.8688 N   0  0  0  0  0  0  0  0  0  0  0  0
   48.6273    3.9848   20.5574 S   0  0  0  0  0  0  0  0  0  0  0  0
   49.7569    6.5512   20.2882 C   0  0  0  0  0  0  0  0  0  0  0  0
   48.8130    5.4862   18.1812 C   0  0  0  0  0  0  0  0  0  0  0  0
   49.3554    5.4956   21.1338 C   0  0  0  0  0  0  0  0  0  0  0  0
   48.3448    4.3277   18.8393 C   0  0  0  0  0  0  0  0  0  0  0  0
   50.2061    7.5646   18.0695 C   0  0  0  0  0  0  0  0  0  0  0  0
   51.7363    7.3452   17.9018 C   0  0  1  0  0  0  0  0  0  0  0  0
   52.0089    6.2092   16.8826 C   0  0  0  0  0  0  0  0  0  0  0  0
   53.3867    5.7856   16.5980 N   0  0  0  0  0  0  0  0  0  0  0  0
   48.4876    5.5779   16.8051 C   0  0  0  0  0  0  0  0  0  0  0  0
   50.3489    7.6709   20.9322 C   0  0  0  0  0  0  0  0  0  0  0  0
   47.6165    3.3363   18.1464 C   0  0  0  0  0  0  0  0  0  0  0  0
   49.5393    5.5732   22.5294 C   0  0  0  0  0  0  0  0  0  0  0  0
   52.3723    8.6783   17.4938 C   0  0  0  0  0  0  0  0  0  0  0  0
   54.1951    5.5596   17.7836 C   0  0  0  0  0  0  0  0  0  0  0  0
   54.0832    6.5866   15.6034 C   0  0  0  0  0  0  0  0  0  0  0  0
   50.5203    7.7402   22.3222 C   0  0  0  0  0  0  0  0  0  0  0  0
   47.7648    4.5913   16.1211 C   0  0  0  0  0  0  0  0  0  0  0  0
   47.3262    3.4669   16.7942 C   0  0  0  0  0  0  0  0  0  0  0  0
   50.1112    6.6904   23.1253 C   0  0  0  0  0  0  0  0  0  0  0  0
   50.3846    5.4553   19.5303 N   0  0  0  0  0  0  0  0  0  0  0  0
   47.5290    5.8277   18.2793 S   0  0  0  0  0  0  0  0  0  0  0  0
   49.4915    6.3347   20.2151 C   0  0  0  0  0  0  0  0  0  0  0  0
   49.9878    4.4952   18.5542 C   0  0  0  0  0  0  0  0  0  0  0  0
   48.1701    6.5415   19.7725 C   0  0  0  0  0  0  0  0  0  0  0  0
   48.7227    4.5518   17.9378 C   0  0  0  0  0  0  0  0  0  0  0  0
   51.8311    5.7893   19.6197 C   0  0  0  0  0  0  0  0  0  0  0  0
   52.2136    7.0763   18.8412 C   0  0  2  0  0  0  0  0  0  0  0  0
   52.1583    6.8249   17.3137 C   0  0  0  0  0  0  0  0  0  0  0  0
   52.6794    7.9328   16.4897 N   0  0  0  0  0  0  0  0  0  0  0  0
   50.8124    3.4014   18.2006 C   0  0  0  0  0  0  0  0  0  0  0  0
   49.8678    7.0207   21.3898 C   0  0  0  0  0  0  0  0  0  0  0  0
   48.3403    3.6007   16.9763 C   0  0  0  0  0  0  0  0  0  0  0  0
   47.2900    7.3946   20.4693 C   0  0  0  0  0  0  0  0  0  0  0  0
   53.6207    7.5076   19.2832 C   0  0  0  0  0  0  0  0  0  0  0  0
   52.8488    7.4925   15.1051 C   0  0  0  0  0  0  0  0  0  0  0  0
   51.7811    9.0869   16.5306 C   0  0  0  0  0  0  0  0  0  0  0  0
   48.9948    7.8740   22.0768 C   0  0  0  0  0  0  0  0  0  0  0  0
   50.4265    2.4613   17.2351 C   0  0  0  0  0  0  0  0  0  0  0  0
   49.1940    2.5642   16.6180 C   0  0  0  0  0  0  0  0  0  0  0  0
   47.6979    8.0576   21.6180 C   0  0  0  0  0  0  0  0  0  0  0  0
   48.5745    7.4805   17.9621 O   0  0  0  0  0  0  0  0  0  0  0  0
   48.1580    6.2798   19.7972 O   0  0  0  0  0  0  0  0  0  0  0  0
   53.2956    5.9187   17.4614 O   0  0  0  0  0  0  0  0  0  0  0  0
   51.8733    7.1089   16.1865 O   0  0  0  0  0  0  0  0  0  0  0  0
   50.5661    4.8293   19.5446 O   0  0  0  0  0  0  0  0  0  0  0  0
   52.1581    6.8385   19.7675 O   0  0  0  0  0  0  0  0  0  0  0  0
   48.9235    6.5527   18.8853 C   0  0  0  0  0  0  0  0  0  0  0  0
   50.2516    5.8634   18.5908 C   0  0  1  0  0  0  0  0  0  0  0  0
   51.3841    6.9023   18.5703 C   0  0  2  0  0  0  0  0  0  0  0  0
   52.1891    6.6773   17.2932 C   0  0  0  0  0  0  0  0  0  0  0  0
   50.0004    8.5341   18.5340 H   0  0  0  0  0  0  0  0  0  0  0  0
   49.7669    7.7292   17.0827 H   0  0  0  0  0  0  0  0  0  0  0  0
   52.1693    7.0560   18.8672 H   0  0  0  0  0  0  0  0  0  0  0  0
   51.4998    5.3069   17.2431 H   0  0  0  0  0  0  0  0  0  0  0  0
   51.5085    6.4485   15.9346 H   0  0  0  0  0  0  0  0  0  0  0  0
   48.7796    6.4159   16.1904 H   0  0  0  0  0  0  0  0  0  0  0  0
   50.7019    8.5381   20.3828 H   0  0  0  0  0  0  0  0  0  0  0  0
   47.2721    2.4425   18.6665 H   0  0  0  0  0  0  0  0  0  0  0  0
   49.2283    4.7476   23.1665 H   0  0  0  0  0  0  0  0  0  0  0  0
   53.4609    8.6431   17.5898 H   0  0  0  0  0  0  0  0  0  0  0  0
   52.0339    9.4948   18.1389 H   0  0  0  0  0  0  0  0  0  0  0  0
   52.1150    8.9409   16.4629 H   0  0  0  0  0  0  0  0  0  0  0  0
   53.6851    4.9014   18.4908 H   0  0  0  0  0  0  0  0  0  0  0  0
   55.1265    5.0507   17.5161 H   0  0  0  0  0  0  0  0  0  0  0  0
   54.4574    6.4894   18.3000 H   0  0  0  0  0  0  0  0  0  0  0  0
   53.4543    6.7388   14.7136 H   0  0  0  0  0  0  0  0  0  0  0  0
   54.3904    7.5718   15.9761 H   0  0  0  0  0  0  0  0  0  0  0  0
   54.9844    6.0577   15.2579 H   0  0  0  0  0  0  0  0  0  0  0  0
   50.9770    8.6195   22.7693 H   0  0  0  0  0  0  0  0  0  0  0  0
   47.5412    4.7187   15.0634 H   0  0  0  0  0  0  0  0  0  0  0  0
   46.7632    2.6983   16.2740 H   0  0  0  0  0  0  0  0  0  0  0  0
   50.2283    6.7382   24.2049 H   0  0  0  0  0  0  0  0  0  0  0  0
   52.1300    5.8818   20.6701 H   0  0  0  0  0  0  0  0  0  0  0  0
   52.4802    4.9835   19.2683 H   0  0  0  0  0  0  0  0  0  0  0  0
   51.5211    7.8859   19.0978 H   0  0  0  0  0  0  0  0  0  0  0  0
   52.7526    5.9265   17.1066 H   0  0  0  0  0  0  0  0  0  0  0  0
   51.1346    6.5957   17.0034 H   0  0  0  0  0  0  0  0  0  0  0  0
   51.7621    3.2185   18.6919 H   0  0  0  0  0  0  0  0  0  0  0  0
   50.8568    6.9054   21.8252 H   0  0  0  0  0  0  0  0  0  0  0  0
   47.3657    3.6637   16.5010 H   0  0  0  0  0  0  0  0  0  0  0  0
   46.2703    7.5434   20.1144 H   0  0  0  0  0  0  0  0  0  0  0  0
   53.6618    7.6603   20.3646 H   0  0  0  0  0  0  0  0  0  0  0  0
   54.3645    6.7496   19.0208 H   0  0  0  0  0  0  0  0  0  0  0  0
   53.9180    8.4528   18.8153 H   0  0  0  0  0  0  0  0  0  0  0  0
   53.4428    6.5749   15.0514 H   0  0  0  0  0  0  0  0  0  0  0  0
   51.8905    7.3034   14.6120 H   0  0  0  0  0  0  0  0  0  0  0  0
   53.3984    8.2414   14.5325 H   0  0  0  0  0  0  0  0  0  0  0  0
   50.7686    8.8237   16.2012 H   0  0  0  0  0  0  0  0  0  0  0  0
   51.7181    9.5026   17.5407 H   0  0  0  0  0  0  0  0  0  0  0  0
   52.1531    9.8945   15.8929 H   0  0  0  0  0  0  0  0  0  0  0  0
   49.3301    8.3779   22.9792 H   0  0  0  0  0  0  0  0  0  0  0  0
   51.0924    1.6351   16.9856 H   0  0  0  0  0  0  0  0  0  0  0  0
   48.8801    1.8370   15.8760 H   0  0  0  0  0  0  0  0  0  0  0  0
   47.0147    8.7093   22.1559 H   0  0  0  0  0  0  0  0  0  0  0  0
   47.6896    7.8070   18.2436 H   0  0  0  0  0  0  0  0  0  0  0  0
   53.7160    5.8964   16.5768 H   0  0  0  0  0  0  0  0  0  0  0  0
   49.7063    4.5008   19.8815 H   0  0  0  0  0  0  0  0  0  0  0  0
   52.2562    5.8731   19.9475 H   0  0  0  0  0  0  0  0  0  0  0  0
   50.1240    5.3610   17.6181 H   0  0  0  0  0  0  0  0  0  0  0  0
   51.0223    7.9364   18.5067 H   0  0  0  0  0  0  0  0  0  0  0  0
 10  9  1  0
 11  4  2  0
 12  3  2  0
 13  6  2  0
 14  5  2  0
 15  8  1  0
 16 10  1  0
 17 10  1  0
 18 12  1  0
 19 11  1  0
 20 19  2  0
 21 18  2  0
  5  2  1  0
 13 20  1  0
 14 21  1  0
  2  6  1  0
  3  1  1  0
  4  1  1  0
  5  3  1  0
  6  4  1  0
  7  1  1  0
  8  7  1  0
  9  8  1  0
 31 30  1  0
 32 25  2  0
 33 24  2  0
 34 27  2  0
 35 26  2  0
 36 29  1  0
 37 31  1  0
 38 31  1  0
 39 33  1  0
 40 32  1  0
 41 40  2  0
 42 39  2  0
 26 23  1  0
 34 41  1  0
 35 42  1  0
 23 27  1  0
 24 22  1  0
 25 22  1  0
 26 24  1  0
 27 25  1  0
 28 22  1  0
 29 28  1  0
 30 29  1  0
 49 44  2  0
 50 47  1  0
 51 48  1  0
 49 43  1  0
 51 52  1  0
 50 51  1  0
 52 45  1  0
 49 50  1  0
 52 46  2  0
  7 53  1  0
  7 54  1  0
  8 55  1  6
  9 56  1  0
  9 57  1  0
 11 58  1  0
 12 59  1  0
 13 60  1  0
 14 61  1  0
 15 62  1  0
 15 63  1  0
 15 64  1  0
 16 65  1  0
 16 66  1  0
 16 67  1  0
 17 68  1  0
 17 69  1  0
 17 70  1  0
 18 71  1  0
 19 72  1  0
 20 73  1  0
 21 74  1  0
 28 75  1  0
 28 76  1  0
 29 77  1  1
 30 78  1  0
 30 79  1  0
 32 80  1  0
 33 81  1  0
 34 82  1  0
 35 83  1  0
 36 84  1  0
 36 85  1  0
 36 86  1  0
 37 87  1  0
 37 88  1  0
 37 89  1  0
 38 90  1  0
 38 91  1  0
 38 92  1  0
 39 93  1  0
 40 94  1  0
 41 95  1  0
 42 96  1  0
 43 97  1  0
 45 98  1  0
 47 99  1  0
 48100  1  0
 50101  1  6
 51102  1  1
M  END
> <Uni-Dock RESULT> 
ENERGY=   -5.355  LOWER_BOUND=    0.000  UPPER_BOUND=    0.000
INTER + INTRA:          -5.355
INTER:                  -5.355
INTRA:                   0.000
UNBOUND:                 0.000

$$$$

     RDKit          3D

102105  0  0  0  0  0  0  0  0999 V2000
   49.8611    6.4565   18.8794 N   0  0  0  0  0  0  0  0  0  0  0  0
   51.6088    3.9961   17.9248 S   0  0  0  0  0  0  0  0  0  0  0  0
   49.1581    5.3016   18.3987 C   0  0  0  0  0  0  0  0  0  0  0  0
   51.2742    6.6532   18.7981 C   0  0  0  0  0  0  0  0  0  0  0  0
   49.8432    4.1628   17.9254 C   0  0  0  0  0  0  0  0  0  0  0  0
   52.1467    5.6256   18.3772 C   0  0  0  0  0  0  0  0  0  0  0  0
   49.0377    7.4981   19.5445 C   0  0  0  0  0  0  0  0  0  0  0  0
   48.6123    7.1033   20.9871 C   0  0  1  0  0  0  0  0  0  0  0  0
   49.8165    7.2251   21.9558 C   0  0  0  0  0  0  0  0  0  0  0  0
   49.6691    6.8533   23.3696 N   0  0  0  0  0  0  0  0  0  0  0  0
   51.8956    7.8856   19.1194 C   0  0  0  0  0  0  0  0  0  0  0  0
   47.7396    5.2385   18.3460 C   0  0  0  0  0  0  0  0  0  0  0  0
   53.5412    5.8339   18.3041 C   0  0  0  0  0  0  0  0  0  0  0  0
   49.1397    3.0447   17.4330 C   0  0  0  0  0  0  0  0  0  0  0  0
   47.4255    7.9817   21.3969 C   0  0  0  0  0  0  0  0  0  0  0  0
   49.0211    5.5705   23.5816 C   0  0  0  0  0  0  0  0  0  0  0  0
   49.1197    7.8937   24.2250 C   0  0  0  0  0  0  0  0  0  0  0  0
   47.0504    4.1236   17.8474 C   0  0  0  0  0  0  0  0  0  0  0  0
   53.2803    8.0878   19.0459 C   0  0  0  0  0  0  0  0  0  0  0  0
   54.1063    7.0588   18.6354 C   0  0  0  0  0  0  0  0  0  0  0  0
   47.7513    3.0238   17.3855 C   0  0  0  0  0  0  0  0  0  0  0  0
   50.0698    5.1422   19.5444 N   0  0  0  0  0  0  0  0  0  0  0  0
   51.5216    7.1039   17.5691 S   0  0  0  0  0  0  0  0  0  0  0  0
   49.4777    5.3133   18.2560 C   0  0  0  0  0  0  0  0  0  0  0  0
   51.4079    5.5043   19.8766 C   0  0  0  0  0  0  0  0  0  0  0  0
   50.0670    6.1313   17.2719 C   0  0  0  0  0  0  0  0  0  0  0  0
   52.1633    6.3640   19.0557 C   0  0  0  0  0  0  0  0  0  0  0  0
   49.1325    4.8656   20.6656 C   0  0  0  0  0  0  0  0  0  0  0  0
   48.2425    6.0818   21.0365 C   0  0  2  0  0  0  0  0  0  0  0  0
   49.0826    7.1761   21.7408 C   0  0  0  0  0  0  0  0  0  0  0  0
   48.2944    8.2943   22.2944 N   0  0  0  0  0  0  0  0  0  0  0  0
   52.0694    4.9715   21.0080 C   0  0  0  0  0  0  0  0  0  0  0  0
   48.2893    4.6499   17.8823 C   0  0  0  0  0  0  0  0  0  0  0  0
   53.4820    6.7154   19.3914 C   0  0  0  0  0  0  0  0  0  0  0  0
   49.4856    6.2750   15.9955 C   0  0  0  0  0  0  0  0  0  0  0  0
   47.1026    5.5878   21.9409 C   0  0  0  0  0  0  0  0  0  0  0  0
   49.1308    9.1122   23.1725 C   0  0  0  0  0  0  0  0  0  0  0  0
   47.7423    9.1284   21.2267 C   0  0  0  0  0  0  0  0  0  0  0  0
   47.7085    4.7996   16.6165 C   0  0  0  0  0  0  0  0  0  0  0  0
   53.3824    5.3329   21.3399 C   0  0  0  0  0  0  0  0  0  0  0  0
   54.0866    6.2097   20.5362 C   0  0  0  0  0  0  0  0  0  0  0  0
   48.3123    5.6113   15.6663 C   0  0  0  0  0  0  0  0  0  0  0  0
   49.8620    7.9742   18.2124 O   0  0  0  0  0  0  0  0  0  0  0  0
   50.2729    5.9728   17.3133 O   0  0  0  0  0  0  0  0  0  0  0  0
   49.2550    6.2625   22.8687 O   0  0  0  0  0  0  0  0  0  0  0  0
   49.4316    8.3040   21.9379 O   0  0  0  0  0  0  0  0  0  0  0  0
   50.4884    4.7425   19.8446 O   0  0  0  0  0  0  0  0  0  0  0  0
   48.0859    5.2301   20.6269 O   0  0  0  0  0  0  0  0  0  0  0  0
   50.0849    6.6422   18.3176 C   0  0  0  0  0  0  0  0  0  0  0  0
   50.1771    6.1473   19.7572 C   0  0  1  0  0  0  0  0  0  0  0  0
   48.8541    6.4248   20.4887 C   0  0  2  0  0  0  0  0  0  0  0  0
   49.1962    7.1041   21.8120 C   0  0  0  0  0  0  0  0  0  0  0  0
   48.1610    7.7095   18.9242 H   0  0  0  0  0  0  0  0  0  0  0  0
   49.4937    8.4904   19.5743 H   0  0  0  0  0  0  0  0  0  0  0  0
   48.2678    6.0619   20.9916 H   0  0  0  0  0  0  0  0  0  0  0  0
   50.6203    6.5844   21.5728 H   0  0  0  0  0  0  0  0  0  0  0  0
   50.2237    8.2435   21.8976 H   0  0  0  0  0  0  0  0  0  0  0  0
   51.3406    8.7518   19.4466 H   0  0  0  0  0  0  0  0  0  0  0  0
   47.1082    6.0522   18.6890 H   0  0  0  0  0  0  0  0  0  0  0  0
   54.2020    5.0267   17.9882 H   0  0  0  0  0  0  0  0  0  0  0  0
   49.6840    2.1725   17.0764 H   0  0  0  0  0  0  0  0  0  0  0  0
   46.9392    7.5951   22.2966 H   0  0  0  0  0  0  0  0  0  0  0  0
   46.6574    8.0018   20.6178 H   0  0  0  0  0  0  0  0  0  0  0  0
   47.7409    9.0138   21.5793 H   0  0  0  0  0  0  0  0  0  0  0  0
   49.4897    4.7866   22.9822 H   0  0  0  0  0  0  0  0  0  0  0  0
   49.1307    5.2582   24.6249 H   0  0  0  0  0  0  0  0  0  0  0  0
   47.9509    5.5940   23.3493 H   0  0  0  0  0  0  0  0  0  0  0  0
   49.6297    8.8528   24.0510 H   0  0  0  0  0  0  0  0  0  0  0  0
   48.0429    8.0497   24.0829 H   0  0  0  0  0  0  0  0  0  0  0  0
   49.2899    7.6407   25.2824 H   0  0  0  0  0  0  0  0  0  0  0  0
   45.9636    4.1230   17.8255 H   0  0  0  0  0  0  0  0  0  0  0  0
   53.7005    9.0588   19.3018 H   0  0  0  0  0  0  0  0  0  0  0  0
   55.1799    7.2063   18.5724 H   0  0  0  0  0  0  0  0  0  0  0  0
   47.2279    2.1590   16.9859 H   0  0  0  0  0  0  0  0  0  0  0  0
   48.5055    3.9997   20.4247 H   0  0  0  0  0  0  0  0  0  0  0  0
   49.6381    4.5343   21.5760 H   0  0  0  0  0  0  0  0  0  0  0  0
   47.7909    6.5022   20.1309 H   0  0  0  0  0  0  0  0  0  0  0  0
   49.6288    6.6944   22.5611 H   0  0  0  0  0  0  0  0  0  0  0  0
   49.8395    7.5725   21.0574 H   0  0  0  0  0  0  0  0  0  0  0  0
   51.6039    4.2271   21.6451 H   0  0  0  0  0  0  0  0  0  0  0  0
   47.7746    3.9762   18.5623 H   0  0  0  0  0  0  0  0  0  0  0  0
   54.0485    7.3885   18.7546 H   0  0  0  0  0  0  0  0  0  0  0  0
   49.9544    6.9109   15.2448 H   0  0  0  0  0  0  0  0  0  0  0  0
   46.5273    4.7988   21.4500 H   0  0  0  0  0  0  0  0  0  0  0  0
   47.4925    5.1863   22.8807 H   0  0  0  0  0  0  0  0  0  0  0  0
   46.4001    6.3939   22.1803 H   0  0  0  0  0  0  0  0  0  0  0  0
   49.6310    8.4980   23.9277 H   0  0  0  0  0  0  0  0  0  0  0  0
   49.9002    9.6584   22.6184 H   0  0  0  0  0  0  0  0  0  0  0  0
   48.5180    9.8277   23.7232 H   0  0  0  0  0  0  0  0  0  0  0  0
   48.5292    9.5185   20.5699 H   0  0  0  0  0  0  0  0  0  0  0  0
   47.0295    8.5667   20.6155 H   0  0  0  0  0  0  0  0  0  0  0  0
   47.1860    9.9750   21.6404 H   0  0  0  0  0  0  0  0  0  0  0  0
   46.7939    4.2651   16.3747 H   0  0  0  0  0  0  0  0  0  0  0  0
   53.8562    4.9050   22.2234 H   0  0  0  0  0  0  0  0  0  0  0  0
   55.1071    6.4895   20.7774 H   0  0  0  0  0  0  0  0  0  0  0  0
   47.8707    5.7196   14.6794 H   0  0  0  0  0  0  0  0  0  0  0  0
   49.8732    8.1639   17.2466 H   0  0  0  0  0  0  0  0  0  0  0  0
   49.4446    6.8423   23.6353 H   0  0  0  0  0  0  0  0  0  0  0  0
   50.9933    4.5259   19.0329 H   0  0  0  0  0  0  0  0  0  0  0  0
   48.7475    4.5365   20.8620 H   0  0  0  0  0  0  0  0  0  0  0  0
   51.0279    6.6831   20.2088 H   0  0  0  0  0  0  0  0  0  0  0  0
   48.2059    7.1336   19.9579 H   0  0  0  0  0  0  0  0  0  0  0  0
 10  9  1  0
 11  4  2  0
 12  3  2  0
 13  6  2  0
 14  5  2  0
 15  8  1  0
 16 10  1  0
 17 10  1  0
 18 12  1  0
 19 11  1  0
 20 19  2  0
 21 18  2  0
  5  2  1  0
 13 20  1  0
 14 21  1  0
  2  6  1  0
  3  1  1  0
  4  1  1  0
  5  3  1  0
  6  4  1  0
  7  1  1  0
  8  7  1  0
  9  8  1  0
 31 30  1  0
 32 25  2  0
 33 24  2  0
 34 27  2  0
 35 26  2  0
 36 29  1  0
 37 31  1  0
 38 31  1  0
 39 33  1  0
 40 32  1  0
 41 40  2  0
 42 39  2  0
 26 23  1  0
 34 41  1  0
 35 42  1  0
 23 27  1  0
 24 22  1  0
 25 22  1  0
 26 24  1  0
 27 25  1  0
 28 22  1  0
 29 28  1  0
 30 29  1  0
 49 44  2  0
 50 47  1  0
 51 48  1  0
 49 43  1  0
 51 52  1  0
 50 51  1  0
 52 45  1  0
 49 50  1  0
 52 46  2  0
  7 53  1  0
  7 54  1  0
  8 55  1  6
  9 56  1  0
  9 57  1  0
 11 58  1  0
 12 59  1  0
 13 60  1  0
 14 61  1  0
 15 62  1  0
 15 63  1  0
 15 64  1  0
 16 65  1  0
 16 66  1  0
 16 67  1  0
 17 68  1  0
 17 69  1  0
 17 70  1  0
 18 71  1  0
 19 72  1  0
 20 73  1  0
 21 74  1  0
 28 75  1  0
 28 76  1  0
 29 77  1  1
 30 78  1  0
 30 79  1  0
 32 80  1  0
 33 81  1  0
 34 82  1  0
 35 83  1  0
 36 84  1  0
 36 85  1  0
 36 86  1  0
 37 87  1  0
 37 88  1  0
 37 89  1  0
 38 90  1  0
 38 91  1  0
 38 92  1  0
 39 93  1  0
 40 94  1  0
 41 95  1  0
 42 96  1  0
 43 97  1  0
 45 98  1  0
 47 99  1  0
 48100  1  0
 50101  1  6
 51102  1  1
M  END
> <Uni-Dock RESULT> 
ENERGY=   -5.165  LOWER_BOUND=    1.764  UPPER_BOUND=    5.321
INTER + INTRA:          -5.165
INTER:                  -5.165
INTRA:                   0.000
UNBOUND:                 0.000

$$$$

     RDKit          3D

102105  0  0  0  0  0  0  0  0999 V2000
   50.2052    7.7861   18.1333 N   0  0  0  0  0  0  0  0  0  0  0  0
   48.0262    9.6556   16.8004 S   0  0  0  0  0  0  0  0  0  0  0  0
   49.1763    8.3048   18.9886 C   0  0  0  0  0  0  0  0  0  0  0  0
   50.4271    8.1824   16.7783 C   0  0  0  0  0  0  0  0  0  0  0  0
   48.1734    9.1681   18.4992 C   0  0  0  0  0  0  0  0  0  0  0  0
   49.5230    9.0206   16.0894 C   0  0  0  0  0  0  0  0  0  0  0  0
   51.0701    6.7272   18.7127 C   0  0  0  0  0  0  0  0  0  0  0  0
   50.3676    5.3416   18.7798 C   0  0  1  0  0  0  0  0  0  0  0  0
   50.2864    4.7101   17.3663 C   0  0  0  0  0  0  0  0  0  0  0  0
   49.6150    3.4178   17.1709 N   0  0  0  0  0  0  0  0  0  0  0  0
   51.5655    7.7767   16.0384 C   0  0  0  0  0  0  0  0  0  0  0  0
   49.1139    8.0052   20.3760 C   0  0  0  0  0  0  0  0  0  0  0  0
   49.7542    9.4020   14.7499 C   0  0  0  0  0  0  0  0  0  0  0  0
   47.1830    9.6899   19.3561 C   0  0  0  0  0  0  0  0  0  0  0  0
   51.1257    4.4651   19.7825 C   0  0  0  0  0  0  0  0  0  0  0  0
   48.3113    3.3244   17.8049 C   0  0  0  0  0  0  0  0  0  0  0  0
   50.4399    2.2497   17.4377 C   0  0  0  0  0  0  0  0  0  0  0  0
   48.1281    8.5357   21.2205 C   0  0  0  0  0  0  0  0  0  0  0  0
   51.7908    8.1573   14.7087 C   0  0  0  0  0  0  0  0  0  0  0  0
   50.8828    8.9741   14.0622 C   0  0  0  0  0  0  0  0  0  0  0  0
   47.1610    9.3841   20.7112 C   0  0  0  0  0  0  0  0  0  0  0  0
   48.7796    7.4912   17.8266 N   0  0  0  0  0  0  0  0  0  0  0  0
   51.1361    9.3092   16.8269 S   0  0  0  0  0  0  0  0  0  0  0  0
   49.2214    8.5186   18.7149 C   0  0  0  0  0  0  0  0  0  0  0  0
   49.0724    7.4432   16.4324 C   0  0  0  0  0  0  0  0  0  0  0  0
   50.2388    9.4239   18.3538 C   0  0  0  0  0  0  0  0  0  0  0  0
   50.0964    8.2283   15.8678 C   0  0  0  0  0  0  0  0  0  0  0  0
   48.2579    6.2528   18.4639 C   0  0  0  0  0  0  0  0  0  0  0  0
   49.3567    5.4172   19.1733 C   0  0  2  0  0  0  0  0  0  0  0  0
   50.2790    4.7355   18.1322 C   0  0  0  0  0  0  0  0  0  0  0  0
   51.2433    3.7745   18.7020 N   0  0  0  0  0  0  0  0  0  0  0  0
   48.3122    6.6585   15.5337 C   0  0  0  0  0  0  0  0  0  0  0  0
   48.6448    8.7079   19.9891 C   0  0  0  0  0  0  0  0  0  0  0  0
   50.3779    8.1742   14.4918 C   0  0  0  0  0  0  0  0  0  0  0  0
   50.6514   10.4486   19.2301 C   0  0  0  0  0  0  0  0  0  0  0  0
   48.6682    4.3776   20.0713 C   0  0  0  0  0  0  0  0  0  0  0  0
   51.8581    2.9866   17.6338 C   0  0  0  0  0  0  0  0  0  0  0  0
   52.2848    4.4633   19.4646 C   0  0  0  0  0  0  0  0  0  0  0  0
   49.0610    9.7216   20.8618 C   0  0  0  0  0  0  0  0  0  0  0  0
   48.6043    6.6045   14.1638 C   0  0  0  0  0  0  0  0  0  0  0  0
   49.6408    7.3565   13.6436 C   0  0  0  0  0  0  0  0  0  0  0  0
   50.0650   10.5998   20.4785 C   0  0  0  0  0  0  0  0  0  0  0  0
   51.8314    8.0933   18.2281 O   0  0  0  0  0  0  0  0  0  0  0  0
   50.0769    9.4712   18.1519 O   0  0  0  0  0  0  0  0  0  0  0  0
   49.1437    3.9098   17.7253 O   0  0  0  0  0  0  0  0  0  0  0  0
   51.3401    4.3996   17.6918 O   0  0  0  0  0  0  0  0  0  0  0  0
   48.3279    7.4000   17.3655 O   0  0  0  0  0  0  0  0  0  0  0  0
   48.6130    5.9443   19.4681 O   0  0  0  0  0  0  0  0  0  0  0  0
   50.5104    8.3338   18.0493 C   0  0  0  0  0  0  0  0  0  0  0  0
   49.7154    7.1046   17.6218 C   0  0  1  0  0  0  0  0  0  0  0  0
   49.8158    6.0175   18.7036 C   0  0  2  0  0  0  0  0  0  0  0  0
   50.1943    4.7127   18.0079 C   0  0  0  0  0  0  0  0  0  0  0  0
   51.4038    7.0431   19.7061 H   0  0  0  0  0  0  0  0  0  0  0  0
   52.0362    6.6051   18.2173 H   0  0  0  0  0  0  0  0  0  0  0  0
   49.3472    5.4703   19.1611 H   0  0  0  0  0  0  0  0  0  0  0  0
   49.7513    5.4129   16.7160 H   0  0  0  0  0  0  0  0  0  0  0  0
   51.2967    4.6529   16.9391 H   0  0  0  0  0  0  0  0  0  0  0  0
   52.3351    7.1423   16.4515 H   0  0  0  0  0  0  0  0  0  0  0  0
   49.8281    7.3475   20.8616 H   0  0  0  0  0  0  0  0  0  0  0  0
   49.0407   10.0402   14.2288 H   0  0  0  0  0  0  0  0  0  0  0  0
   46.4139   10.3505   18.9610 H   0  0  0  0  0  0  0  0  0  0  0  0
   50.5487    3.5742   20.0447 H   0  0  0  0  0  0  0  0  0  0  0  0
   51.3080    4.9993   20.7199 H   0  0  0  0  0  0  0  0  0  0  0  0
   52.0962    4.1547   19.3827 H   0  0  0  0  0  0  0  0  0  0  0  0
   47.6805    4.1759   17.5399 H   0  0  0  0  0  0  0  0  0  0  0  0
   47.7807    2.4347   17.4514 H   0  0  0  0  0  0  0  0  0  0  0  0
   48.3755    3.2648   18.8968 H   0  0  0  0  0  0  0  0  0  0  0  0
   51.4183    2.3407   16.9429 H   0  0  0  0  0  0  0  0  0  0  0  0
   50.6138    2.0752   18.5069 H   0  0  0  0  0  0  0  0  0  0  0  0
   49.9647    1.3497   17.0193 H   0  0  0  0  0  0  0  0  0  0  0  0
   48.1228    8.2786   22.2767 H   0  0  0  0  0  0  0  0  0  0  0  0
   52.6866    7.8173   14.1921 H   0  0  0  0  0  0  0  0  0  0  0  0
   51.0497    9.2768   13.0332 H   0  0  0  0  0  0  0  0  0  0  0  0
   46.3992    9.8107   21.3587 H   0  0  0  0  0  0  0  0  0  0  0  0
   47.4596    6.5034   19.1717 H   0  0  0  0  0  0  0  0  0  0  0  0
   47.7411    5.5937   17.7619 H   0  0  0  0  0  0  0  0  0  0  0  0
   49.9599    6.0667   19.8177 H   0  0  0  0  0  0  0  0  0  0  0  0
   49.6353    4.2038   17.4208 H   0  0  0  0  0  0  0  0  0  0  0  0
   50.8210    5.4895   17.5536 H   0  0  0  0  0  0  0  0  0  0  0  0
   47.4432    6.0965   15.8588 H   0  0  0  0  0  0  0  0  0  0  0  0
   47.8351    8.0780   20.3477 H   0  0  0  0  0  0  0  0  0  0  0  0
   51.1781    8.7769   14.0724 H   0  0  0  0  0  0  0  0  0  0  0  0
   51.4393   11.1416   18.9354 H   0  0  0  0  0  0  0  0  0  0  0  0
   47.9997    4.8609   20.7883 H   0  0  0  0  0  0  0  0  0  0  0  0
   48.0754    3.6761   19.4771 H   0  0  0  0  0  0  0  0  0  0  0  0
   49.3968    3.8010   20.6520 H   0  0  0  0  0  0  0  0  0  0  0  0
   51.0989    2.5326   16.9895 H   0  0  0  0  0  0  0  0  0  0  0  0
   52.5183    3.5901   17.0035 H   0  0  0  0  0  0  0  0  0  0  0  0
   52.4315    2.1586   18.0538 H   0  0  0  0  0  0  0  0  0  0  0  0
   52.8150    5.2012   18.8506 H   0  0  0  0  0  0  0  0  0  0  0  0
   51.8632    4.9767   20.3339 H   0  0  0  0  0  0  0  0  0  0  0  0
   53.0164    3.7512   19.8582 H   0  0  0  0  0  0  0  0  0  0  0  0
   48.5839    9.8291   21.8321 H   0  0  0  0  0  0  0  0  0  0  0  0
   47.9987    5.9831   13.5039 H   0  0  0  0  0  0  0  0  0  0  0  0
   49.8703    7.3305   12.5831 H   0  0  0  0  0  0  0  0  0  0  0  0
   50.3813   11.3948   21.1485 H   0  0  0  0  0  0  0  0  0  0  0  0
   52.2266    8.9668   18.4512 H   0  0  0  0  0  0  0  0  0  0  0  0
   49.5446    3.1121   17.3218 H   0  0  0  0  0  0  0  0  0  0  0  0
   48.2971    8.3406   17.0917 H   0  0  0  0  0  0  0  0  0  0  0  0
   47.8906    6.0389   18.8023 H   0  0  0  0  0  0  0  0  0  0  0  0
   50.1475    6.7826   16.6603 H   0  0  0  0  0  0  0  0  0  0  0  0
   50.6174    6.2019   19.4301 H   0  0  0  0  0  0  0  0  0  0  0  0
 10  9  1  0
 11  4  2  0
 12  3  2  0
 13  6  2  0
 14  5  2  0
 15  8  1  0
 16 10  1  0
 17 10  1  0
 18 12  1  0
 19 11  1  0
 20 19  2  0
 21 18  2  0
  5  2  1  0
 13 20  1  0
 14 21  1  0
  2  6  1  0
  3  1  1  0
  4  1  1  0
  5  3  1  0
  6  4  1  0
  7  1  1  0
  8  7  1  0
  9  8  1  0
 31 30  1  0
 32 25  2  0
 33 24  2  0
 34 27  2  0
 35 26  2  0
 36 29  1  0
 37 31  1  0
 38 31  1  0
 39 33  1  0
 40 32  1  0
 41 40  2  0
 42 39  2  0
 26 23  1  0
 34 41  1  0
 35 42  1  0
 23 27  1  0
 24 22  1  0
 25 22  1  0
 26 24  1  0
 27 25  1  0
 28 22  1  0
 29 28  1  0
 30 29  1  0
 49 44  2  0
 50 47  1  0
 51 48  1  0
 49 43  1  0
 51 52  1  0
 50 51  1  0
 52 45  1  0
 49 50  1  0
 52 46  2  0
  7 53  1  0
  7 54  1  0
  8 55  1  6
  9 56  1  0
  9 57  1  0
 11 58  1  0
 12 59  1  0
 13 60  1  0
 14 61  1  0
 15 62  1  0
 15 63  1  0
 15 64  1  0
 16 65  1  0
 16 66  1  0
 16 67  1  0
 17 68  1  0
 17 69  1  0
 17 70  1  0
 18 71  1  0
 19 72  1  0
 20 73  1  0
 21 74  1  0
 28 75  1  0
 28 76  1  0
 29 77  1  1
 30 78  1  0
 30 79  1  0
 32 80  1  0
 33 81  1  0
 34 82  1  0
 35 83  1  0
 36 84  1  0
 36 85  1  0
 36 86  1  0
 37 87  1  0
 37 88  1  0
 37 89  1  0
 38 90  1  0
 38 91  1  0
 38 92  1  0
 39 93  1  0
 40 94  1  0
 41 95  1  0
 42 96  1  0
 43 97  1  0
 45 98  1  0
 47 99  1  0
 48100  1  0
 50101  1  6
 51102  1  1
M  END
> <Uni-Dock RESULT> 
ENERGY=   -4.901  LOWER_BOUND=    2.066  UPPER_BOUND=    4.347
INTER + INTRA:          -4.901
INTER:                  -4.901
INTRA:                   0.000
UNBOUND:                 0.000

$$$$

     RDKit          3D

102105  0  0  0  0  0  0  0  0999 V2000
   50.6564    5.4598   17.8605 N   0  0  0  0  0  0  0  0  0  0  0  0
   49.1684    4.3142   20.4087 S   0  0  0  0  0  0  0  0  0  0  0  0
   49.4075    4.7878   17.6421 C   0  0  0  0  0  0  0  0  0  0  0  0
   51.3642    5.4994   19.1014 C   0  0  0  0  0  0  0  0  0  0  0  0
   48.6781    4.2182   18.7070 C   0  0  0  0  0  0  0  0  0  0  0  0
   50.7978    5.0085   20.2984 C   0  0  0  0  0  0  0  0  0  0  0  0
   51.2181    6.1973   16.7005 C   0  0  0  0  0  0  0  0  0  0  0  0
   50.4909    7.5450   16.4308 C   0  0  1  0  0  0  0  0  0  0  0  0
   50.9015    8.5998   17.4902 C   0  0  0  0  0  0  0  0  0  0  0  0
   50.3009    9.9406   17.4705 N   0  0  0  0  0  0  0  0  0  0  0  0
   52.6778    6.0182   19.2176 C   0  0  0  0  0  0  0  0  0  0  0  0
   48.8401    4.6326   16.3488 C   0  0  0  0  0  0  0  0  0  0  0  0
   51.5082    5.0564   21.5176 C   0  0  0  0  0  0  0  0  0  0  0  0
   47.4646    3.5394   18.4748 C   0  0  0  0  0  0  0  0  0  0  0  0
   50.8070    7.9846   14.9972 C   0  0  0  0  0  0  0  0  0  0  0  0
   48.8540    9.9411   17.3405 C   0  0  0  0  0  0  0  0  0  0  0  0
   50.9338   10.8846   16.5626 C   0  0  0  0  0  0  0  0  0  0  0  0
   47.6356    3.9491   16.1287 C   0  0  0  0  0  0  0  0  0  0  0  0
   53.3790    6.0643   20.4299 C   0  0  0  0  0  0  0  0  0  0  0  0
   52.7930    5.5804   21.5841 C   0  0  0  0  0  0  0  0  0  0  0  0
   46.9463    3.3967   17.1936 C   0  0  0  0  0  0  0  0  0  0  0  0
   49.4271    5.9618   18.5314 N   0  0  0  0  0  0  0  0  0  0  0  0
   52.0469    4.3583   19.1821 S   0  0  0  0  0  0  0  0  0  0  0  0
   49.5553    4.6695   17.9367 C   0  0  0  0  0  0  0  0  0  0  0  0
   50.1997    6.4268   19.6355 C   0  0  0  0  0  0  0  0  0  0  0  0
   50.6652    3.8411   18.1955 C   0  0  0  0  0  0  0  0  0  0  0  0
   51.3848    5.7763   20.0306 C   0  0  0  0  0  0  0  0  0  0  0  0
   48.6687    6.9724   17.7471 C   0  0  0  0  0  0  0  0  0  0  0  0
   49.4093    7.4371   16.4648 C   0  0  2  0  0  0  0  0  0  0  0  0
   50.6201    8.3317   16.8297 C   0  0  0  0  0  0  0  0  0  0  0  0
   51.2812    8.9711   15.6756 N   0  0  0  0  0  0  0  0  0  0  0  0
   49.7868    7.5214   20.4308 C   0  0  0  0  0  0  0  0  0  0  0  0
   48.5661    4.1345   17.0840 C   0  0  0  0  0  0  0  0  0  0  0  0
   52.1400    6.2422   21.1205 C   0  0  0  0  0  0  0  0  0  0  0  0
   50.7704    2.5580   17.6207 C   0  0  0  0  0  0  0  0  0  0  0  0
   48.4084    8.1917   15.5759 C   0  0  0  0  0  0  0  0  0  0  0  0
   52.2112   10.0016   16.1369 C   0  0  0  0  0  0  0  0  0  0  0  0
   52.0020    7.9857   14.8693 C   0  0  0  0  0  0  0  0  0  0  0  0
   48.6755    2.8626   16.5074 C   0  0  0  0  0  0  0  0  0  0  0  0
   50.5498    7.9845   21.5117 C   0  0  0  0  0  0  0  0  0  0  0  0
   51.7293    7.3498   21.8527 C   0  0  0  0  0  0  0  0  0  0  0  0
   49.7800    2.0680   16.7814 C   0  0  0  0  0  0  0  0  0  0  0  0
   52.1494    4.9962   17.3091 O   0  0  0  0  0  0  0  0  0  0  0  0
   50.5884    3.8754   18.4448 O   0  0  0  0  0  0  0  0  0  0  0  0
   49.6791    9.3409   17.3118 O   0  0  0  0  0  0  0  0  0  0  0  0
   51.7562    8.6958   16.7335 O   0  0  0  0  0  0  0  0  0  0  0  0
   49.1685    6.2350   19.0639 O   0  0  0  0  0  0  0  0  0  0  0  0
   48.6281    6.9112   16.6406 O   0  0  0  0  0  0  0  0  0  0  0  0
   50.9902    4.9430   18.0078 C   0  0  0  0  0  0  0  0  0  0  0  0
   50.3600    6.3094   18.2558 C   0  0  1  0  0  0  0  0  0  0  0  0
   50.0271    6.9804   16.9138 C   0  0  2  0  0  0  0  0  0  0  0  0
   50.5850    8.4004   16.9608 C   0  0  0  0  0  0  0  0  0  0  0  0
   51.1829    5.5524   15.8169 H   0  0  0  0  0  0  0  0  0  0  0  0
   52.2928    6.3856   16.7562 H   0  0  0  0  0  0  0  0  0  0  0  0
   49.4067    7.3918   16.4963 H   0  0  0  0  0  0  0  0  0  0  0  0
   50.6605    8.1918   18.4795 H   0  0  0  0  0  0  0  0  0  0  0  0
   51.9951    8.7011   17.4921 H   0  0  0  0  0  0  0  0  0  0  0  0
   53.2249    6.4168   18.3767 H   0  0  0  0  0  0  0  0  0  0  0  0
   49.3088    5.0349   15.4561 H   0  0  0  0  0  0  0  0  0  0  0  0
   51.0523    4.6837   22.4347 H   0  0  0  0  0  0  0  0  0  0  0  0
   46.9122    3.1103   19.3084 H   0  0  0  0  0  0  0  0  0  0  0  0
   50.1438    8.7922   14.6757 H   0  0  0  0  0  0  0  0  0  0  0  0
   50.6585    7.1650   14.2877 H   0  0  0  0  0  0  0  0  0  0  0  0
   51.8449    8.3197   14.9055 H   0  0  0  0  0  0  0  0  0  0  0  0
   48.3905    9.2781   18.0746 H   0  0  0  0  0  0  0  0  0  0  0  0
   48.4555   10.9403   17.5429 H   0  0  0  0  0  0  0  0  0  0  0  0
   48.5193    9.6427   16.3411 H   0  0  0  0  0  0  0  0  0  0  0  0
   52.0272   10.8706   16.6837 H   0  0  0  0  0  0  0  0  0  0  0  0
   50.7054   10.6921   15.5068 H   0  0  0  0  0  0  0  0  0  0  0  0
   50.6099   11.9094   16.7991 H   0  0  0  0  0  0  0  0  0  0  0  0
   47.2421    3.8546   15.1198 H   0  0  0  0  0  0  0  0  0  0  0  0
   54.3883    6.4711   20.4570 H   0  0  0  0  0  0  0  0  0  0  0  0
   53.3291    5.6090   22.5276 H   0  0  0  0  0  0  0  0  0  0  0  0
   46.0178    2.8545   17.0334 H   0  0  0  0  0  0  0  0  0  0  0  0
   47.6785    6.5802   17.4888 H   0  0  0  0  0  0  0  0  0  0  0  0
   48.4163    7.8642   18.3263 H   0  0  0  0  0  0  0  0  0  0  0  0
   49.7626    6.5652   15.9028 H   0  0  0  0  0  0  0  0  0  0  0  0
   50.2572    9.1174   17.5035 H   0  0  0  0  0  0  0  0  0  0  0  0
   51.3596    7.7574   17.3958 H   0  0  0  0  0  0  0  0  0  0  0  0
   48.8401    8.0244   20.2648 H   0  0  0  0  0  0  0  0  0  0  0  0
   47.6603    4.6857   16.8455 H   0  0  0  0  0  0  0  0  0  0  0  0
   53.0579    5.7371   21.4066 H   0  0  0  0  0  0  0  0  0  0  0  0
   51.6350    1.9289   17.8315 H   0  0  0  0  0  0  0  0  0  0  0  0
   47.5441    7.5655   15.3407 H   0  0  0  0  0  0  0  0  0  0  0  0
   48.0450    9.0957   16.0731 H   0  0  0  0  0  0  0  0  0  0  0  0
   48.8592    8.4858   14.6214 H   0  0  0  0  0  0  0  0  0  0  0  0
   51.7191   10.7029   16.8180 H   0  0  0  0  0  0  0  0  0  0  0  0
   53.0743    9.5755   16.6573 H   0  0  0  0  0  0  0  0  0  0  0  0
   52.5663   10.5980   15.2949 H   0  0  0  0  0  0  0  0  0  0  0  0
   52.7428    7.4390   15.4653 H   0  0  0  0  0  0  0  0  0  0  0  0
   51.3141    7.2607   14.4242 H   0  0  0  0  0  0  0  0  0  0  0  0
   52.5181    8.4672   14.0332 H   0  0  0  0  0  0  0  0  0  0  0  0
   47.8856    2.4931   15.8593 H   0  0  0  0  0  0  0  0  0  0  0  0
   50.2008    8.8350   22.0974 H   0  0  0  0  0  0  0  0  0  0  0  0
   52.3237    7.6930   22.6934 H   0  0  0  0  0  0  0  0  0  0  0  0
   49.8616    1.0760   16.3454 H   0  0  0  0  0  0  0  0  0  0  0  0
   52.4680    4.0659   17.2632 H   0  0  0  0  0  0  0  0  0  0  0  0
   50.1704   10.1870   17.2622 H   0  0  0  0  0  0  0  0  0  0  0  0
   49.2708    5.4378   19.6248 H   0  0  0  0  0  0  0  0  0  0  0  0
   48.1971    7.0985   17.5085 H   0  0  0  0  0  0  0  0  0  0  0  0
   51.0975    6.8824   18.8412 H   0  0  0  0  0  0  0  0  0  0  0  0
   50.5197    6.5036   16.0569 H   0  0  0  0  0  0  0  0  0  0  0  0
 10  9  1  0
 11  4  2  0
 12  3  2  0
 13  6  2  0
 14  5  2  0
 15  8  1  0
 16 10  1  0
 17 10  1  0
 18 12  1  0
 19 11  1  0
 20 19  2  0
 21 18  2  0
  5  2  1  0
 13 20  1  0
 14 21  1  0
  2  6  1  0
  3  1  1  0
  4  1  1  0
  5  3  1  0
  6  4  1  0
  7  1  1  0
  8  7  1  0
  9  8  1  0
 31 30  1  0
 32 25  2  0
 33 24  2  0
 34 27  2  0
 35 26  2  0
 36 29  1  0
 37 31  1  0
 38 31  1  0
 39 33  1  0
 40 32  1  0
 41 40  2  0
 42 39  2  0
 26 23  1  0
 34 41  1  0
 35 42  1  0
 23 27  1  0
 24 22  1  0
 25 22  1  0
 26 24  1  0
 27 25  1  0
 28 22  1  0
 29 28  1  0
 30 29  1  0
 49 44  2  0
 50 47  1  0
 51 48  1  0
 49 43  1  0
 51 52  1  0
 50 51  1  0
 52 45  1  0
 49 50  1  0
 52 46  2  0
  7 53  1  0
  7 54  1  0
  8 55  1  6
  9 56  1  0
  9 57  1  0
 11 58  1  0
 12 59  1  0
 13 60  1  0
 14 61  1  0
 15 62  1  0
 15 63  1  0
 15 64  1  0
 16 65  1  0
 16 66  1  0
 16 67  1  0
 17 68  1  0
 17 69  1  0
 17 70  1  0
 18 71  1  0
 19 72  1  0
 20 73  1  0
 21 74  1  0
 28 75  1  0
 28 76  1  0
 29 77  1  1
 30 78  1  0
 30 79  1  0
 32 80  1  0
 33 81  1  0
 34 82  1  0
 35 83  1  0
 36 84  1  0
 36 85  1  0
 36 86  1  0
 37 87  1  0
 37 88  1  0
 37 89  1  0
 38 90  1  0
 38 91  1  0
 38 92  1  0
 39 93  1  0
 40 94  1  0
 41 95  1  0
 42 96  1  0
 43 97  1  0
 45 98  1  0
 47 99  1  0
 48100  1  0
 50101  1  6
 51102  1  1
M  END
> <Uni-Dock RESULT> 
ENERGY=   -4.854  LOWER_BOUND=    1.518  UPPER_BOUND=    4.655
INTER + INTRA:          -4.854
INTER:                  -4.854
INTRA:                   0.000
UNBOUND:                 0.000

$$$$

     RDKit          3D

102105  0  0  0  0  0  0  0  0999 V2000
   50.0281    9.6710   15.4543 N   0  0  0  0  0  0  0  0  0  0  0  0
   51.6682    8.2050   17.7303 S   0  0  0  0  0  0  0  0  0  0  0  0
   51.3511    9.2244   15.1235 C   0  0  0  0  0  0  0  0  0  0  0  0
   49.4613    9.6662   16.7662 C   0  0  0  0  0  0  0  0  0  0  0  0
   52.1745    8.5842   16.0735 C   0  0  0  0  0  0  0  0  0  0  0  0
   50.1116    9.0477   17.8566 C   0  0  0  0  0  0  0  0  0  0  0  0
   49.1877   10.1339   14.3209 C   0  0  0  0  0  0  0  0  0  0  0  0
   48.6252    8.9626   13.4668 C   0  0  1  0  0  0  0  0  0  0  0  0
   47.4751    8.2490   14.2227 C   0  0  0  0  0  0  0  0  0  0  0  0
   46.8200    7.0733   13.6333 N   0  0  0  0  0  0  0  0  0  0  0  0
   48.2232   10.2861   17.0678 C   0  0  0  0  0  0  0  0  0  0  0  0
   51.9224    9.4168   13.8369 C   0  0  0  0  0  0  0  0  0  0  0  0
   49.5382    9.0489   19.1469 C   0  0  0  0  0  0  0  0  0  0  0  0
   53.4814    8.1727   15.7417 C   0  0  0  0  0  0  0  0  0  0  0  0
   48.1896    9.5225   12.1085 C   0  0  0  0  0  0  0  0  0  0  0  0
   47.7422    6.0728   13.1245 C   0  0  0  0  0  0  0  0  0  0  0  0
   45.7570    7.3720   12.6862 C   0  0  0  0  0  0  0  0  0  0  0  0
   53.2263    9.0096   13.5201 C   0  0  0  0  0  0  0  0  0  0  0  0
   47.6576   10.2844   18.3498 C   0  0  0  0  0  0  0  0  0  0  0  0
   48.3179    9.6649   19.3938 C   0  0  0  0  0  0  0  0  0  0  0  0
   54.0111    8.3889   14.4756 C   0  0  0  0  0  0  0  0  0  0  0  0
   50.3679    8.2283   15.5823 N   0  0  0  0  0  0  0  0  0  0  0  0
   49.9059   10.7660   17.3725 S   0  0  0  0  0  0  0  0  0  0  0  0
   51.3279    9.2797   15.4686 C   0  0  0  0  0  0  0  0  0  0  0  0
   49.4415    8.0886   16.6567 C   0  0  0  0  0  0  0  0  0  0  0  0
   51.2485   10.4446   16.2571 C   0  0  0  0  0  0  0  0  0  0  0  0
   49.1675    9.1544   17.5357 C   0  0  0  0  0  0  0  0  0  0  0  0
   50.1226    7.4283   14.3529 C   0  0  0  0  0  0  0  0  0  0  0  0
   49.3887    8.2224   13.2394 C   0  0  2  0  0  0  0  0  0  0  0  0
   47.9074    8.4585   13.6257 C   0  0  0  0  0  0  0  0  0  0  0  0
   47.0795    9.0460   12.5544 N   0  0  0  0  0  0  0  0  0  0  0  0
   48.7993    6.8597   16.9373 C   0  0  0  0  0  0  0  0  0  0  0  0
   52.4269    9.2001   14.5867 C   0  0  0  0  0  0  0  0  0  0  0  0
   48.2524    9.0073   18.5922 C   0  0  0  0  0  0  0  0  0  0  0  0
   52.2146   11.4662   16.1525 C   0  0  0  0  0  0  0  0  0  0  0  0
   49.5018    7.4306   11.9273 C   0  0  0  0  0  0  0  0  0  0  0  0
   45.6634    8.9635   12.9116 C   0  0  0  0  0  0  0  0  0  0  0  0
   47.4438   10.4424   12.3134 C   0  0  0  0  0  0  0  0  0  0  0  0
   53.3817   10.2193   14.4782 C   0  0  0  0  0  0  0  0  0  0  0  0
   47.8822    6.7234   17.9886 C   0  0  0  0  0  0  0  0  0  0  0  0
   47.6033    7.7981   18.8118 C   0  0  0  0  0  0  0  0  0  0  0  0
   53.2787   11.3553   15.2688 C   0  0  0  0  0  0  0  0  0  0  0  0
   49.4837   11.2363   15.4948 O   0  0  0  0  0  0  0  0  0  0  0  0
   51.2525   10.2697   16.4536 O   0  0  0  0  0  0  0  0  0  0  0  0
   47.6870    7.0187   13.5040 O   0  0  0  0  0  0  0  0  0  0  0  0
   46.9161    9.1207   13.7327 O   0  0  0  0  0  0  0  0  0  0  0  0
   50.2816    7.6745   15.9154 O   0  0  0  0  0  0  0  0  0  0  0  0
   50.2752    7.8765   13.3501 O   0  0  0  0  0  0  0  0  0  0  0  0
   50.2060   10.1426   15.8366 C   0  0  0  0  0  0  0  0  0  0  0  0
   49.5305    8.8238   15.4758 C   0  0  1  0  0  0  0  0  0  0  0  0
   49.3192    8.7460   13.9554 C   0  0  2  0  0  0  0  0  0  0  0  0
   47.8670    8.3421   13.7149 C   0  0  0  0  0  0  0  0  0  0  0  0
   49.7717   10.8219   13.7015 H   0  0  0  0  0  0  0  0  0  0  0  0
   48.3599   10.7884   14.6039 H   0  0  0  0  0  0  0  0  0  0  0  0
   49.4231    8.2331   13.2813 H   0  0  0  0  0  0  0  0  0  0  0  0
   47.8709    7.9043   15.1860 H   0  0  0  0  0  0  0  0  0  0  0  0
   46.7064    8.9873   14.4883 H   0  0  0  0  0  0  0  0  0  0  0  0
   47.6308   10.7993   16.3255 H   0  0  0  0  0  0  0  0  0  0  0  0
   51.3802    9.8916   13.0251 H   0  0  0  0  0  0  0  0  0  0  0  0
   50.0477    8.5571   19.9754 H   0  0  0  0  0  0  0  0  0  0  0  0
   54.1013    7.6757   16.4853 H   0  0  0  0  0  0  0  0  0  0  0  0
   48.0076    8.7193   11.3894 H   0  0  0  0  0  0  0  0  0  0  0  0
   48.9676   10.1555   11.6709 H   0  0  0  0  0  0  0  0  0  0  0  0
   47.2824   10.1277   12.2021 H   0  0  0  0  0  0  0  0  0  0  0  0
   48.4938    5.8106   13.8725 H   0  0  0  0  0  0  0  0  0  0  0  0
   47.2074    5.1453   12.8966 H   0  0  0  0  0  0  0  0  0  0  0  0
   48.2560    6.3962   12.2127 H   0  0  0  0  0  0  0  0  0  0  0  0
   45.0690    8.1264   13.0958 H   0  0  0  0  0  0  0  0  0  0  0  0
   46.1259    7.7364   11.7193 H   0  0  0  0  0  0  0  0  0  0  0  0
   45.1529    6.4708   12.5018 H   0  0  0  0  0  0  0  0  0  0  0  0
   53.6204    9.1806   12.5215 H   0  0  0  0  0  0  0  0  0  0  0  0
   46.7044   10.7811   18.5223 H   0  0  0  0  0  0  0  0  0  0  0  0
   47.8895    9.6606   20.3911 H   0  0  0  0  0  0  0  0  0  0  0  0
   55.0274    8.0798   14.2448 H   0  0  0  0  0  0  0  0  0  0  0  0
   51.0691    7.0301   13.9699 H   0  0  0  0  0  0  0  0  0  0  0  0
   49.5514    6.5159   14.5413 H   0  0  0  0  0  0  0  0  0  0  0  0
   49.8796    9.1903   13.0877 H   0  0  0  0  0  0  0  0  0  0  0  0
   47.4810    7.4867   13.9031 H   0  0  0  0  0  0  0  0  0  0  0  0
   47.8434    9.0892   14.5174 H   0  0  0  0  0  0  0  0  0  0  0  0
   49.0204    5.9575   16.3769 H   0  0  0  0  0  0  0  0  0  0  0  0
   52.5901    8.3299   13.9564 H   0  0  0  0  0  0  0  0  0  0  0  0
   48.0425    9.8415   19.2552 H   0  0  0  0  0  0  0  0  0  0  0  0
   52.1396   12.3610   16.7703 H   0  0  0  0  0  0  0  0  0  0  0  0
   50.5479    7.2449   11.6709 H   0  0  0  0  0  0  0  0  0  0  0  0
   48.9971    6.4634   12.0073 H   0  0  0  0  0  0  0  0  0  0  0  0
   49.0590    7.9773   11.0873 H   0  0  0  0  0  0  0  0  0  0  0  0
   45.3833    7.9420   13.1867 H   0  0  0  0  0  0  0  0  0  0  0  0
   45.4102    9.6200   13.7496 H   0  0  0  0  0  0  0  0  0  0  0  0
   45.0395    9.2273   12.0560 H   0  0  0  0  0  0  0  0  0  0  0  0
   47.3555   11.0467   13.2244 H   0  0  0  0  0  0  0  0  0  0  0  0
   48.4700   10.5243   11.9430 H   0  0  0  0  0  0  0  0  0  0  0  0
   46.8065   10.8848   11.5419 H   0  0  0  0  0  0  0  0  0  0  0  0
   54.2124   10.1104   13.7863 H   0  0  0  0  0  0  0  0  0  0  0  0
   47.4033    5.7610   18.1696 H   0  0  0  0  0  0  0  0  0  0  0  0
   46.9025    7.7022   19.6350 H   0  0  0  0  0  0  0  0  0  0  0  0
   54.0247   12.1419   15.1957 H   0  0  0  0  0  0  0  0  0  0  0  0
   50.0043   12.0045   15.8229 H   0  0  0  0  0  0  0  0  0  0  0  0
   46.7271    6.9247   13.3325 H   0  0  0  0  0  0  0  0  0  0  0  0
   50.7923    7.9681   16.6988 H   0  0  0  0  0  0  0  0  0  0  0  0
   50.3400    7.1107   13.9694 H   0  0  0  0  0  0  0  0  0  0  0  0
   48.5803    8.8064   16.0341 H   0  0  0  0  0  0  0  0  0  0  0  0
   49.4384    9.7135   13.4514 H   0  0  0  0  0  0  0  0  0  0  0  0
 10  9  1  0
 11  4  2  0
 12  3  2  0
 13  6  2  0
 14  5  2  0
 15  8  1  0
 16 10  1  0
 17 10  1  0
 18 12  1  0
 19 11  1  0
 20 19  2  0
 21 18  2  0
  5  2  1  0
 13 20  1  0
 14 21  1  0
  2  6  1  0
  3  1  1  0
  4  1  1  0
  5  3  1  0
  6  4  1  0
  7  1  1  0
  8  7  1  0
  9  8  1  0
 31 30  1  0
 32 25  2  0
 33 24  2  0
 34 27  2  0
 35 26  2  0
 36 29  1  0
 37 31  1  0
 38 31  1  0
 39 33  1  0
 40 32  1  0
 41 40  2  0
 42 39  2  0
 26 23  1  0
 34 41  1  0
 35 42  1  0
 23 27  1  0
 24 22  1  0
 25 22  1  0
 26 24  1  0
 27 25  1  0
 28 22  1  0
 29 28  1  0
 30 29  1  0
 49 44  2  0
 50 47  1  0
 51 48  1  0
 49 43  1  0
 51 52  1  0
 50 51  1  0
 52 45  1  0
 49 50  1  0
 52 46  2  0
  7 53  1  0
  7 54  1  0
  8 55  1  6
  9 56  1  0
  9 57  1  0
 11 58  1  0
 12 59  1  0
 13 60  1  0
 14 61  1  0
 15 62  1  0
 15 63  1  0
 15 64  1  0
 16 65  1  0
 16 66  1  0
 16 67  1  0
 17 68  1  0
 17 69  1  0
 17 70  1  0
 18 71  1  0
 19 72  1  0
 20 73  1  0
 21 74  1  0
 28 75  1  0
 28 76  1  0
 29 77  1  1
 30 78  1  0
 30 79  1  0
 32 80  1  0
 33 81  1  0
 34 82  1  0
 35 83  1  0
 36 84  1  0
 36 85  1  0
 36 86  1  0
 37 87  1  0
 37 88  1  0
 37 89  1  0
 38 90  1  0
 38 91  1  0
 38 92  1  0
 39 93  1  0
 40 94  1  0
 41 95  1  0
 42 96  1  0
 43 97  1  0
 45 98  1  0
 47 99  1  0
 48100  1  0
 50101  1  6
 51102  1  1
M  END
> <Uni-Dock RESULT> 
ENERGY=   -4.665  LOWER_BOUND=    3.528  UPPER_BOUND=    6.432
INTER + INTRA:          -4.665
INTER:                  -4.665
INTRA:                   0.000
UNBOUND:                 0.000

$$$$

     RDKit          3D

102105  0  0  0  0  0  0  0  0999 V2000
   49.7766    8.6317   20.5944 N   0  0  0  0  0  0  0  0  0  0  0  0
   47.2351    8.4235   22.4697 S   0  0  0  0  0  0  0  0  0  0  0  0
   49.2159    7.3260   20.7943 C   0  0  0  0  0  0  0  0  0  0  0  0
   49.3933    9.8102   21.3061 C   0  0  0  0  0  0  0  0  0  0  0  0
   48.0996    7.1210   21.6324 C   0  0  0  0  0  0  0  0  0  0  0  0
   48.2803    9.8270   22.1752 C   0  0  0  0  0  0  0  0  0  0  0  0
   50.8073    8.7491   19.5319 C   0  0  0  0  0  0  0  0  0  0  0  0
   50.2029    8.7423   18.0992 C   0  0  1  0  0  0  0  0  0  0  0  0
   49.5214   10.1013   17.7959 C   0  0  0  0  0  0  0  0  0  0  0  0
   48.8320   10.3137   16.5158 N   0  0  0  0  0  0  0  0  0  0  0  0
   50.1025   11.0326   21.2016 C   0  0  0  0  0  0  0  0  0  0  0  0
   49.7571    6.1615   20.1861 C   0  0  0  0  0  0  0  0  0  0  0  0
   47.9121   10.9997   22.8700 C   0  0  0  0  0  0  0  0  0  0  0  0
   47.5743    5.8292   21.8390 C   0  0  0  0  0  0  0  0  0  0  0  0
   51.3193    8.3998   17.1070 C   0  0  0  0  0  0  0  0  0  0  0  0
   47.9283    9.2392   16.1429 C   0  0  0  0  0  0  0  0  0  0  0  0
   49.6920   10.7150   15.4134 C   0  0  0  0  0  0  0  0  0  0  0  0
   49.2306    4.8803   20.4046 C   0  0  0  0  0  0  0  0  0  0  0  0
   49.7332   12.1943   21.8927 C   0  0  0  0  0  0  0  0  0  0  0  0
   48.6348   12.1778   22.7312 C   0  0  0  0  0  0  0  0  0  0  0  0
   48.1381    4.7113   21.2365 C   0  0  0  0  0  0  0  0  0  0  0  0
   48.3581    8.3788   20.2242 N   0  0  0  0  0  0  0  0  0  0  0  0
   50.0536    9.7830   22.4628 S   0  0  0  0  0  0  0  0  0  0  0  0
   49.1387    7.5308   21.0676 C   0  0  0  0  0  0  0  0  0  0  0  0
   48.0221    9.7318   20.5220 C   0  0  0  0  0  0  0  0  0  0  0  0
   49.9011    8.0454   22.1349 C   0  0  0  0  0  0  0  0  0  0  0  0
   48.7029   10.4569   21.5192 C   0  0  0  0  0  0  0  0  0  0  0  0
   48.1622    7.9123   18.8257 C   0  0  0  0  0  0  0  0  0  0  0  0
   49.4599    7.9580   17.9754 C   0  0  2  0  0  0  0  0  0  0  0  0
   49.8445    9.4223   17.6479 C   0  0  0  0  0  0  0  0  0  0  0  0
   50.9606    9.5652   16.6931 N   0  0  0  0  0  0  0  0  0  0  0  0
   46.9495   10.3958   19.8817 C   0  0  0  0  0  0  0  0  0  0  0  0
   49.1668    6.1294   20.9032 C   0  0  0  0  0  0  0  0  0  0  0  0
   48.3645   11.7907   21.8058 C   0  0  0  0  0  0  0  0  0  0  0  0
   50.6501    7.1965   22.9752 C   0  0  0  0  0  0  0  0  0  0  0  0
   49.2256    7.1445   16.6930 C   0  0  0  0  0  0  0  0  0  0  0  0
   51.0561   10.9514   16.2357 C   0  0  0  0  0  0  0  0  0  0  0  0
   52.2286    9.1613   17.3011 C   0  0  0  0  0  0  0  0  0  0  0  0
   49.9176    5.2878   21.7339 C   0  0  0  0  0  0  0  0  0  0  0  0
   46.6233   11.7286   20.1681 C   0  0  0  0  0  0  0  0  0  0  0  0
   47.3345   12.4284   21.1247 C   0  0  0  0  0  0  0  0  0  0  0  0
   50.6583    5.8229   22.7786 C   0  0  0  0  0  0  0  0  0  0  0  0
   51.2851    9.1503   21.0457 O   0  0  0  0  0  0  0  0  0  0  0  0
   49.6679    8.1427   22.2085 O   0  0  0  0  0  0  0  0  0  0  0  0
   48.6450    9.5102   16.8173 O   0  0  0  0  0  0  0  0  0  0  0  0
   50.6127   10.3333   17.5355 O   0  0  0  0  0  0  0  0  0  0  0  0
   47.7518    8.6164   20.1907 O   0  0  0  0  0  0  0  0  0  0  0  0
   48.9152    7.2592   18.3398 O   0  0  0  0  0  0  0  0  0  0  0  0
   50.0157    8.6961   21.1766 C   0  0  0  0  0  0  0  0  0  0  0  0
   49.1147    9.0442   19.9964 C   0  0  1  0  0  0  0  0  0  0  0  0
   49.6716    8.4108   18.7116 C   0  0  2  0  0  0  0  0  0  0  0  0
   49.7145    9.5013   17.6446 C   0  0  0  0  0  0  0  0  0  0  0  0
   51.5360    7.9411   19.6509 H   0  0  0  0  0  0  0  0  0  0  0  0
   51.4660    9.6154   19.6287 H   0  0  0  0  0  0  0  0  0  0  0  0
   49.4460    7.9515   18.0285 H   0  0  0  0  0  0  0  0  0  0  0  0
   48.7580   10.2719   18.5649 H   0  0  0  0  0  0  0  0  0  0  0  0
   50.2493   10.9102   17.9450 H   0  0  0  0  0  0  0  0  0  0  0  0
   50.9753   11.1500   20.5773 H   0  0  0  0  0  0  0  0  0  0  0  0
   50.6112    6.1984   19.5170 H   0  0  0  0  0  0  0  0  0  0  0  0
   47.0434   10.9990   23.5282 H   0  0  0  0  0  0  0  0  0  0  0  0
   46.7097    5.6896   22.4847 H   0  0  0  0  0  0  0  0  0  0  0  0
   50.9118    8.1516   16.1231 H   0  0  0  0  0  0  0  0  0  0  0  0
   51.8872    7.5233   17.4336 H   0  0  0  0  0  0  0  0  0  0  0  0
   52.0233    9.2311   17.0004 H   0  0  0  0  0  0  0  0  0  0  0  0
   47.2444    8.9961   16.9593 H   0  0  0  0  0  0  0  0  0  0  0  0
   47.2977    9.5484   15.3034 H   0  0  0  0  0  0  0  0  0  0  0  0
   48.4564    8.3262   15.8472 H   0  0  0  0  0  0  0  0  0  0  0  0
   50.3620   11.5328   15.7177 H   0  0  0  0  0  0  0  0  0  0  0  0
   50.3093    9.8960   15.0233 H   0  0  0  0  0  0  0  0  0  0  0  0
   49.0834   11.1065   14.5844 H   0  0  0  0  0  0  0  0  0  0  0  0
   49.6807    4.0187   19.9180 H   0  0  0  0  0  0  0  0  0  0  0  0
   50.3195   13.1040   21.7756 H   0  0  0  0  0  0  0  0  0  0  0  0
   48.3423   13.0717   23.2731 H   0  0  0  0  0  0  0  0  0  0  0  0
   47.7290    3.7216   21.4224 H   0  0  0  0  0  0  0  0  0  0  0  0
   47.7463    6.8984   18.8238 H   0  0  0  0  0  0  0  0  0  0  0  0
   47.3939    8.4745   18.2892 H   0  0  0  0  0  0  0  0  0  0  0  0
   50.2814    7.4846   18.5248 H   0  0  0  0  0  0  0  0  0  0  0  0
   48.9575    9.9082   17.2232 H   0  0  0  0  0  0  0  0  0  0  0  0
   50.0841    9.9665   18.5663 H   0  0  0  0  0  0  0  0  0  0  0  0
   46.3054    9.8891   19.1710 H   0  0  0  0  0  0  0  0  0  0  0  0
   48.5906    5.6351   20.1255 H   0  0  0  0  0  0  0  0  0  0  0  0
   48.9060   12.3410   22.5696 H   0  0  0  0  0  0  0  0  0  0  0  0
   51.2341    7.6101   23.7973 H   0  0  0  0  0  0  0  0  0  0  0  0
   48.9307    6.1188   16.9284 H   0  0  0  0  0  0  0  0  0  0  0  0
   48.4351    7.5915   16.0831 H   0  0  0  0  0  0  0  0  0  0  0  0
   50.1336    7.0841   16.0826 H   0  0  0  0  0  0  0  0  0  0  0  0
   50.0936   11.3111   15.8588 H   0  0  0  0  0  0  0  0  0  0  0  0
   51.3803   11.6275   17.0326 H   0  0  0  0  0  0  0  0  0  0  0  0
   51.7549   11.0292   15.4012 H   0  0  0  0  0  0  0  0  0  0  0  0
   52.4424    9.7356   18.2107 H   0  0  0  0  0  0  0  0  0  0  0  0
   52.2220    8.0978   17.5580 H   0  0  0  0  0  0  0  0  0  0  0  0
   53.0588    9.2993   16.6019 H   0  0  0  0  0  0  0  0  0  0  0  0
   49.9047    4.2138   21.5691 H   0  0  0  0  0  0  0  0  0  0  0  0
   45.7930   12.2077   19.6492 H   0  0  0  0  0  0  0  0  0  0  0  0
   47.0851   13.4577   21.3621 H   0  0  0  0  0  0  0  0  0  0  0  0
   51.2318    5.1713   23.4323 H   0  0  0  0  0  0  0  0  0  0  0  0
   51.7373    8.9027   21.8842 H   0  0  0  0  0  0  0  0  0  0  0  0
   48.8335   10.2285   16.1784 H   0  0  0  0  0  0  0  0  0  0  0  0
   47.6058    8.6089   21.1599 H   0  0  0  0  0  0  0  0  0  0  0  0
   47.9765    7.5166   18.5031 H   0  0  0  0  0  0  0  0  0  0  0  0
   49.0910   10.1450   19.9467 H   0  0  0  0  0  0  0  0  0  0  0  0
   50.7078    8.0639   18.8135 H   0  0  0  0  0  0  0  0  0  0  0  0
 10  9  1  0
 11  4  2  0
 12  3  2  0
 13  6  2  0
 14  5  2  0
 15  8  1  0
 16 10  1  0
 17 10  1  0
 18 12  1  0
 19 11  1  0
 20 19  2  0
 21 18  2  0
  5  2  1  0
 13 20  1  0
 14 21  1  0
  2  6  1  0
  3  1  1  0
  4  1  1  0
  5  3  1  0
  6  4  1  0
  7  1  1  0
  8  7  1  0
  9  8  1  0
 31 30  1  0
 32 25  2  0
 33 24  2  0
 34 27  2  0
 35 26  2  0
 36 29  1  0
 37 31  1  0
 38 31  1  0
 39 33  1  0
 40 32  1  0
 41 40  2  0
 42 39  2  0
 26 23  1  0
 34 41  1  0
 35 42  1  0
 23 27  1  0
 24 22  1  0
 25 22  1  0
 26 24  1  0
 27 25  1  0
 28 22  1  0
 29 28  1  0
 30 29  1  0
 49 44  2  0
 50 47  1  0
 51 48  1  0
 49 43  1  0
 51 52  1  0
 50 51  1  0
 52 45  1  0
 49 50  1  0
 52 46  2  0
  7 53  1  0
  7 54  1  0
  8 55  1  6
  9 56  1  0
  9 57  1  0
 11 58  1  0
 12 59  1  0
 13 60  1  0
 14 61  1  0
 15 62  1  0
 15 63  1  0
 15 64  1  0
 16 65  1  0
 16 66  1  0
 16 67  1  0
 17 68  1  0
 17 69  1  0
 17 70  1  0
 18 71  1  0
 19 72  1  0
 20 73  1  0
 21 74  1  0
 28 75  1  0
 28 76  1  0
 29 77  1  1
 30 78  1  0
 30 79  1  0
 32 80  1  0
 33 81  1  0
 34 82  1  0
 35 83  1  0
 36 84  1  0
 36 85  1  0
 36 86  1  0
 37 87  1  0
 37 88  1  0
 37 89  1  0
 38 90  1  0
 38 91  1  0
 38 92  1  0
 39 93  1  0
 40 94  1  0
 41 95  1  0
 42 96  1  0
 43 97  1  0
 45 98  1  0
 47 99  1  0
 48100  1  0
 50101  1  6
 51102  1  1
M  END
> <Uni-Dock RESULT> 
ENERGY=   -4.579  LOWER_BOUND=    2.638  UPPER_BOUND=    5.321
INTER + INTRA:          -4.579
INTER:                  -4.579
INTRA:                   0.000
UNBOUND:                 0.000

$$$$

     RDKit          3D

102105  0  0  0  0  0  0  0  0999 V2000
   48.8880    8.1548   19.0907 N   0  0  0  0  0  0  0  0  0  0  0  0
   50.3803   10.8293   18.2912 S   0  0  0  0  0  0  0  0  0  0  0  0
   50.0806    8.0284   18.3027 C   0  0  0  0  0  0  0  0  0  0  0  0
   48.2268    9.3854   19.3921 C   0  0  0  0  0  0  0  0  0  0  0  0
   50.8053    9.1595   17.8715 C   0  0  0  0  0  0  0  0  0  0  0  0
   48.7988   10.6364   19.0726 C   0  0  0  0  0  0  0  0  0  0  0  0
   48.3386    6.8975   19.6585 C   0  0  0  0  0  0  0  0  0  0  0  0
   49.1456    6.3840   20.8845 C   0  0  1  0  0  0  0  0  0  0  0  0
   48.8432    7.2545   22.1311 C   0  0  0  0  0  0  0  0  0  0  0  0
   49.5320    6.9912   23.4020 N   0  0  0  0  0  0  0  0  0  0  0  0
   46.9559    9.4389   20.0167 C   0  0  0  0  0  0  0  0  0  0  0  0
   50.5922    6.7692   17.8889 C   0  0  0  0  0  0  0  0  0  0  0  0
   48.1347   11.8442   19.3786 C   0  0  0  0  0  0  0  0  0  0  0  0
   51.9617    9.0213   17.0772 C   0  0  0  0  0  0  0  0  0  0  0  0
   48.8117    4.9033   21.0952 C   0  0  0  0  0  0  0  0  0  0  0  0
   50.9704    6.8317   23.2757 C   0  0  0  0  0  0  0  0  0  0  0  0
   48.9340    5.9481   24.2208 C   0  0  0  0  0  0  0  0  0  0  0  0
   51.7397    6.6440   17.0926 C   0  0  0  0  0  0  0  0  0  0  0  0
   46.3006   10.6400   20.3192 C   0  0  0  0  0  0  0  0  0  0  0  0
   46.8912   11.8473   19.9978 C   0  0  0  0  0  0  0  0  0  0  0  0
   52.4257    7.7730   16.6813 C   0  0  0  0  0  0  0  0  0  0  0  0
   50.1703    8.7024   19.6093 N   0  0  0  0  0  0  0  0  0  0  0  0
   47.4716    9.6761   18.3338 S   0  0  0  0  0  0  0  0  0  0  0  0
   49.9351    8.3421   18.2474 C   0  0  0  0  0  0  0  0  0  0  0  0
   49.4686    9.7263   20.3102 C   0  0  0  0  0  0  0  0  0  0  0  0
   48.7812    8.7637   17.5576 C   0  0  0  0  0  0  0  0  0  0  0  0
   48.2563   10.2531   19.8239 C   0  0  0  0  0  0  0  0  0  0  0  0
   50.9684    7.7395   20.4141 C   0  0  0  0  0  0  0  0  0  0  0  0
   50.2180    6.4126   20.7060 C   0  0  2  0  0  0  0  0  0  0  0  0
   49.0834    6.6442   21.7348 C   0  0  0  0  0  0  0  0  0  0  0  0
   48.4284    5.4117   22.2145 N   0  0  0  0  0  0  0  0  0  0  0  0
   49.9811   10.3121   21.4915 C   0  0  0  0  0  0  0  0  0  0  0  0
   50.8566    7.5730   17.5049 C   0  0  0  0  0  0  0  0  0  0  0  0
   47.5714   11.2626   20.5220 C   0  0  0  0  0  0  0  0  0  0  0  0
   48.5703    8.4209   16.2064 C   0  0  0  0  0  0  0  0  0  0  0  0
   51.2370    5.3856   21.2237 C   0  0  0  0  0  0  0  0  0  0  0  0
   47.5862    5.7087   23.3730 C   0  0  0  0  0  0  0  0  0  0  0  0
   47.6159    4.8031   21.1609 C   0  0  0  0  0  0  0  0  0  0  0  0
   50.6421    7.2267   16.1646 C   0  0  0  0  0  0  0  0  0  0  0  0
   49.2881   11.3133   22.1858 C   0  0  0  0  0  0  0  0  0  0  0  0
   48.0805   11.7840   21.7055 C   0  0  0  0  0  0  0  0  0  0  0  0
   49.4964    7.6573   15.5103 C   0  0  0  0  0  0  0  0  0  0  0  0
   47.3493    7.7240   18.6491 O   0  0  0  0  0  0  0  0  0  0  0  0
   48.8685    9.0016   17.6282 O   0  0  0  0  0  0  0  0  0  0  0  0
   50.1061    6.9248   22.7406 O   0  0  0  0  0  0  0  0  0  0  0  0
   47.9718    6.5113   22.1584 O   0  0  0  0  0  0  0  0  0  0  0  0
   50.4646    9.1741   19.9498 O   0  0  0  0  0  0  0  0  0  0  0  0
   50.9674    6.6595   20.1626 O   0  0  0  0  0  0  0  0  0  0  0  0
   48.5252    8.3961   18.6320 C   0  0  0  0  0  0  0  0  0  0  0  0
   49.2543    8.3913   19.9715 C   0  0  1  0  0  0  0  0  0  0  0  0
   49.5863    6.9469   20.3783 C   0  0  2  0  0  0  0  0  0  0  0  0
   49.1275    6.7607   21.8221 C   0  0  0  0  0  0  0  0  0  0  0  0
   48.3002    6.1376   18.8717 H   0  0  0  0  0  0  0  0  0  0  0  0
   47.2815    6.9432   19.9308 H   0  0  0  0  0  0  0  0  0  0  0  0
   50.2186    6.4514   20.6666 H   0  0  0  0  0  0  0  0  0  0  0  0
   49.0893    8.2939   21.8812 H   0  0  0  0  0  0  0  0  0  0  0  0
   47.7596    7.2626   22.3102 H   0  0  0  0  0  0  0  0  0  0  0  0
   46.4089    8.5539   20.3048 H   0  0  0  0  0  0  0  0  0  0  0  0
   50.1219    5.8309   18.1662 H   0  0  0  0  0  0  0  0  0  0  0  0
   48.5952   12.8018   19.1356 H   0  0  0  0  0  0  0  0  0  0  0  0
   52.5116    9.9043   16.7574 H   0  0  0  0  0  0  0  0  0  0  0  0
   49.5167    4.4332   21.7861 H   0  0  0  0  0  0  0  0  0  0  0  0
   48.8805    4.3425   20.1582 H   0  0  0  0  0  0  0  0  0  0  0  0
   47.7963    4.7777   21.4839 H   0  0  0  0  0  0  0  0  0  0  0  0
   51.4125    7.6589   22.7156 H   0  0  0  0  0  0  0  0  0  0  0  0
   51.4420    6.8503   24.2633 H   0  0  0  0  0  0  0  0  0  0  0  0
   51.2503    5.8917   22.7880 H   0  0  0  0  0  0  0  0  0  0  0  0
   47.8469    6.0935   24.3068 H   0  0  0  0  0  0  0  0  0  0  0  0
   49.1131    4.9366   23.8354 H   0  0  0  0  0  0  0  0  0  0  0  0
   49.3342    5.9975   25.2448 H   0  0  0  0  0  0  0  0  0  0  0  0
   52.0916    5.6582   16.7995 H   0  0  0  0  0  0  0  0  0  0  0  0
   45.3226   10.6185   20.7967 H   0  0  0  0  0  0  0  0  0  0  0  0
   46.3905   12.7831   20.2254 H   0  0  0  0  0  0  0  0  0  0  0  0
   53.3094    7.6885   16.0540 H   0  0  0  0  0  0  0  0  0  0  0  0
   51.9205    7.5312   19.9130 H   0  0  0  0  0  0  0  0  0  0  0  0
   51.2998    8.1508   21.3708 H   0  0  0  0  0  0  0  0  0  0  0  0
   49.7878    6.0170   19.7790 H   0  0  0  0  0  0  0  0  0  0  0  0
   49.5211    7.1645   22.5955 H   0  0  0  0  0  0  0  0  0  0  0  0
   48.3263    7.3166   21.3203 H   0  0  0  0  0  0  0  0  0  0  0  0
   50.9535   10.0415   21.8890 H   0  0  0  0  0  0  0  0  0  0  0  0
   51.7890    7.2237   17.9404 H   0  0  0  0  0  0  0  0  0  0  0  0
   46.6317   11.6513   20.1408 H   0  0  0  0  0  0  0  0  0  0  0  0
   47.6727    8.7556   15.6866 H   0  0  0  0  0  0  0  0  0  0  0  0
   52.0486    5.2432   20.5058 H   0  0  0  0  0  0  0  0  0  0  0  0
   51.6772    5.7117   22.1705 H   0  0  0  0  0  0  0  0  0  0  0  0
   50.7751    4.4047   21.3828 H   0  0  0  0  0  0  0  0  0  0  0  0
   48.1472    6.2480   24.1426 H   0  0  0  0  0  0  0  0  0  0  0  0
   46.7143    6.3132   23.1053 H   0  0  0  0  0  0  0  0  0  0  0  0
   47.2440    4.7844   23.8414 H   0  0  0  0  0  0  0  0  0  0  0  0
   46.8604    5.5002   20.7787 H   0  0  0  0  0  0  0  0  0  0  0  0
   48.2379    4.4746   20.3229 H   0  0  0  0  0  0  0  0  0  0  0  0
   47.1056    3.9079   21.5291 H   0  0  0  0  0  0  0  0  0  0  0  0
   51.3830    6.6349   15.6340 H   0  0  0  0  0  0  0  0  0  0  0  0
   49.7132   11.7361   23.0961 H   0  0  0  0  0  0  0  0  0  0  0  0
   47.5394   12.5658   22.2289 H   0  0  0  0  0  0  0  0  0  0  0  0
   49.3333    7.4005   14.4670 H   0  0  0  0  0  0  0  0  0  0  0  0
   46.9673    7.8459   17.7502 H   0  0  0  0  0  0  0  0  0  0  0  0
   49.6717    6.7407   23.5992 H   0  0  0  0  0  0  0  0  0  0  0  0
   50.3276    9.8661   19.2693 H   0  0  0  0  0  0  0  0  0  0  0  0
   51.4391    7.4726   20.4632 H   0  0  0  0  0  0  0  0  0  0  0  0
   48.5773    8.8851   20.6876 H   0  0  0  0  0  0  0  0  0  0  0  0
   49.0339    6.1958   19.7994 H   0  0  0  0  0  0  0  0  0  0  0  0
 10  9  1  0
 11  4  2  0
 12  3  2  0
 13  6  2  0
 14  5  2  0
 15  8  1  0
 16 10  1  0
 17 10  1  0
 18 12  1  0
 19 11  1  0
 20 19  2  0
 21 18  2  0
  5  2  1  0
 13 20  1  0
 14 21  1  0
  2  6  1  0
  3  1  1  0
  4  1  1  0
  5  3  1  0
  6  4  1  0
  7  1  1  0
  8  7  1  0
  9  8  1  0
 31 30  1  0
 32 25  2  0
 33 24  2  0
 34 27  2  0
 35 26  2  0
 36 29  1  0
 37 31  1  0
 38 31  1  0
 39 33  1  0
 40 32  1  0
 41 40  2  0
 42 39  2  0
 26 23  1  0
 34 41  1  0
 35 42  1  0
 23 27  1  0
 24 22  1  0
 25 22  1  0
 26 24  1  0
 27 25  1  0
 28 22  1  0
 29 28  1  0
 30 29  1  0
 49 44  2  0
 50 47  1  0
 51 48  1  0
 49 43  1  0
 51 52  1  0
 50 51  1  0
 52 45  1  0
 49 50  1  0
 52 46  2  0
  7 53  1  0
  7 54  1  0
  8 55  1  6
  9 56  1  0
  9 57  1  0
 11 58  1  0
 12 59  1  0
 13 60  1  0
 14 61  1  0
 15 62  1  0
 15 63  1  0
 15 64  1  0
 16 65  1  0
 16 66  1  0
 16 67  1  0
 17 68  1  0
 17 69  1  0
 17 70  1  0
 18 71  1  0
 19 72  1  0
 20 73  1  0
 21 74  1  0
 28 75  1  0
 28 76  1  0
 29 77  1  1
 30 78  1  0
 30 79  1  0
 32 80  1  0
 33 81  1  0
 34 82  1  0
 35 83  1  0
 36 84  1  0
 36 85  1  0
 36 86  1  0
 37 87  1  0
 37 88  1  0
 37 89  1  0
 38 90  1  0
 38 91  1  0
 38 92  1  0
 39 93  1  0
 40 94  1  0
 41 95  1  0
 42 96  1  0
 43 97  1  0
 45 98  1  0
 47 99  1  0
 48100  1  0
 50101  1  6
 51102  1  1
M  END
> <Uni-Dock RESULT> 
ENERGY=   -4.527  LOWER_BOUND=    2.572  UPPER_BOUND=    5.962
INTER + INTRA:          -4.527
INTER:                  -4.527
INTRA:                   0.000
UNBOUND:                 0.000

$$$$

     RDKit          3D

102105  0  0  0  0  0  0  0  0999 V2000
   49.2016    8.1221   17.1689 N   0  0  0  0  0  0  0  0  0  0  0  0
   51.3646    8.8777   19.3529 S   0  0  0  0  0  0  0  0  0  0  0  0
   49.0841    9.4114   17.7878 C   0  0  0  0  0  0  0  0  0  0  0  0
   50.1012    7.0904   17.5798 C   0  0  0  0  0  0  0  0  0  0  0  0
   49.9809    9.8344   18.7915 C   0  0  0  0  0  0  0  0  0  0  0  0
   51.0997    7.3162   18.5526 C   0  0  0  0  0  0  0  0  0  0  0  0
   48.3370    7.8790   15.9863 C   0  0  0  0  0  0  0  0  0  0  0  0
   48.8532    8.5896   14.7031 C   0  0  1  0  0  0  0  0  0  0  0  0
   50.0909    7.8470   14.1373 C   0  0  0  0  0  0  0  0  0  0  0  0
   50.7867    8.3658   12.9517 N   0  0  0  0  0  0  0  0  0  0  0  0
   50.0494    5.7753   17.0545 C   0  0  0  0  0  0  0  0  0  0  0  0
   48.0529   10.3289   17.4507 C   0  0  0  0  0  0  0  0  0  0  0  0
   51.9830    6.2878   18.9469 C   0  0  0  0  0  0  0  0  0  0  0  0
   49.8387   11.0941   19.4082 C   0  0  0  0  0  0  0  0  0  0  0  0
   47.6973    8.6730   13.7005 C   0  0  0  0  0  0  0  0  0  0  0  0
   51.0750    9.7885   13.0078 C   0  0  0  0  0  0  0  0  0  0  0  0
   50.2058    7.9734   11.6771 C   0  0  0  0  0  0  0  0  0  0  0  0
   47.9169   11.5766   18.0760 C   0  0  0  0  0  0  0  0  0  0  0  0
   50.9285    4.7576   17.4484 C   0  0  0  0  0  0  0  0  0  0  0  0
   51.8981    5.0140   18.3991 C   0  0  0  0  0  0  0  0  0  0  0  0
   48.8096   11.9605   19.0609 C   0  0  0  0  0  0  0  0  0  0  0  0
   50.3308    9.0861   17.0741 N   0  0  0  0  0  0  0  0  0  0  0  0
   49.5170    6.4664   18.6016 S   0  0  0  0  0  0  0  0  0  0  0  0
   49.2513    9.1917   18.0032 C   0  0  0  0  0  0  0  0  0  0  0  0
   51.2666    8.0114   17.0368 C   0  0  0  0  0  0  0  0  0  0  0  0
   48.8311    8.0937   18.7796 C   0  0  0  0  0  0  0  0  0  0  0  0
   51.0167    6.7944   17.7002 C   0  0  0  0  0  0  0  0  0  0  0  0
   50.2705    9.9881   15.8932 C   0  0  0  0  0  0  0  0  0  0  0  0
   49.1387    9.6209   14.8967 C   0  0  2  0  0  0  0  0  0  0  0  0
   49.4850    8.3162   14.1368 C   0  0  0  0  0  0  0  0  0  0  0  0
   48.5580    7.9807   13.0386 N   0  0  0  0  0  0  0  0  0  0  0  0
   52.5192    8.1307   16.3901 C   0  0  0  0  0  0  0  0  0  0  0  0
   48.5656   10.4058   18.2219 C   0  0  0  0  0  0  0  0  0  0  0  0
   51.9455    5.7403   17.6578 C   0  0  0  0  0  0  0  0  0  0  0  0
   47.7789    8.2154   19.7102 C   0  0  0  0  0  0  0  0  0  0  0  0
   48.9503   10.7967   13.9255 C   0  0  0  0  0  0  0  0  0  0  0  0
   49.1214    6.9114   12.2147 C   0  0  0  0  0  0  0  0  0  0  0  0
   47.2551    7.5646   13.5580 C   0  0  0  0  0  0  0  0  0  0  0  0
   47.5154   10.5234   19.1413 C   0  0  0  0  0  0  0  0  0  0  0  0
   53.4368    7.0719   16.3462 C   0  0  0  0  0  0  0  0  0  0  0  0
   53.1478    5.8748   16.9737 C   0  0  0  0  0  0  0  0  0  0  0  0
   47.1237    9.4247   19.8933 C   0  0  0  0  0  0  0  0  0  0  0  0
   48.1189    6.8699   17.2571 O   0  0  0  0  0  0  0  0  0  0  0  0
   49.0833    8.0949   18.8546 O   0  0  0  0  0  0  0  0  0  0  0  0
   50.5766    9.0341   13.4815 O   0  0  0  0  0  0  0  0  0  0  0  0
   49.2345    7.2385   13.6804 O   0  0  0  0  0  0  0  0  0  0  0  0
   50.9772    9.1701   17.0589 O   0  0  0  0  0  0  0  0  0  0  0  0
   49.2941   10.3436   15.5060 O   0  0  0  0  0  0  0  0  0  0  0  0
   49.0266    7.7846   17.6745 C   0  0  0  0  0  0  0  0  0  0  0  0
   49.9740    8.2546   16.5757 C   0  0  1  0  0  0  0  0  0  0  0  0
   49.1720    8.9230   15.4477 C   0  0  2  0  0  0  0  0  0  0  0  0
   49.6368    8.3096   14.1296 C   0  0  0  0  0  0  0  0  0  0  0  0
   47.3151    8.1931   16.2210 H   0  0  0  0  0  0  0  0  0  0  0  0
   48.1642    6.8251   15.7561 H   0  0  0  0  0  0  0  0  0  0  0  0
   49.1484    9.6165   14.9509 H   0  0  0  0  0  0  0  0  0  0  0  0
   50.8523    7.8161   14.9264 H   0  0  0  0  0  0  0  0  0  0  0  0
   49.8305    6.7943   13.9633 H   0  0  0  0  0  0  0  0  0  0  0  0
   49.3284    5.4713   16.3108 H   0  0  0  0  0  0  0  0  0  0  0  0
   47.3101   10.1144   16.6886 H   0  0  0  0  0  0  0  0  0  0  0  0
   52.7556    6.4816   19.6908 H   0  0  0  0  0  0  0  0  0  0  0  0
   50.5424   11.4066   20.1772 H   0  0  0  0  0  0  0  0  0  0  0  0
   47.9305    9.3620   12.8842 H   0  0  0  0  0  0  0  0  0  0  0  0
   46.7871    9.0544   14.1732 H   0  0  0  0  0  0  0  0  0  0  0  0
   47.4661    7.6893   13.2799 H   0  0  0  0  0  0  0  0  0  0  0  0
   51.5721   10.0549   13.9433 H   0  0  0  0  0  0  0  0  0  0  0  0
   51.7687   10.0665   12.2080 H   0  0  0  0  0  0  0  0  0  0  0  0
   50.1766   10.4064   12.9023 H   0  0  0  0  0  0  0  0  0  0  0  0
   50.0023    6.8924   11.6564 H   0  0  0  0  0  0  0  0  0  0  0  0
   49.2720    8.5004   11.4442 H   0  0  0  0  0  0  0  0  0  0  0  0
   50.9189    8.1691   10.8622 H   0  0  0  0  0  0  0  0  0  0  0  0
   47.1097   12.2440   17.7851 H   0  0  0  0  0  0  0  0  0  0  0  0
   50.8380    3.7644   17.0123 H   0  0  0  0  0  0  0  0  0  0  0  0
   52.5820    4.2317   18.7130 H   0  0  0  0  0  0  0  0  0  0  0  0
   48.7068   12.9202   19.5607 H   0  0  0  0  0  0  0  0  0  0  0  0
   50.1605   11.0280   16.2214 H   0  0  0  0  0  0  0  0  0  0  0  0
   51.2078   10.0244   15.3324 H   0  0  0  0  0  0  0  0  0  0  0  0
   48.1965    9.4822   15.4387 H   0  0  0  0  0  0  0  0  0  0  0  0
   50.4921    8.4364   13.7191 H   0  0  0  0  0  0  0  0  0  0  0  0
   49.5385    7.4740   14.8331 H   0  0  0  0  0  0  0  0  0  0  0  0
   52.8423    9.0613   15.9358 H   0  0  0  0  0  0  0  0  0  0  0  0
   48.8339   11.3155   17.6913 H   0  0  0  0  0  0  0  0  0  0  0  0
   51.7341    4.8034   18.1647 H   0  0  0  0  0  0  0  0  0  0  0  0
   47.4663    7.3565   20.3039 H   0  0  0  0  0  0  0  0  0  0  0  0
   48.7303   11.7203   14.4669 H   0  0  0  0  0  0  0  0  0  0  0  0
   49.8521   10.9619   13.3288 H   0  0  0  0  0  0  0  0  0  0  0  0
   48.1147   10.6220   13.2386 H   0  0  0  0  0  0  0  0  0  0  0  0
   50.1362    7.1571   11.8867 H   0  0  0  0  0  0  0  0  0  0  0  0
   49.1612    5.9568   12.7481 H   0  0  0  0  0  0  0  0  0  0  0  0
   48.5332    6.7825   11.3046 H   0  0  0  0  0  0  0  0  0  0  0  0
   47.3454    6.7114   14.2412 H   0  0  0  0  0  0  0  0  0  0  0  0
   46.7631    8.3833   14.0916 H   0  0  0  0  0  0  0  0  0  0  0  0
   46.5807    7.2851   12.7430 H   0  0  0  0  0  0  0  0  0  0  0  0
   47.0199   11.4810   19.2765 H   0  0  0  0  0  0  0  0  0  0  0  0
   54.3897    7.2007   15.8328 H   0  0  0  0  0  0  0  0  0  0  0  0
   53.8543    5.0511   16.9549 H   0  0  0  0  0  0  0  0  0  0  0  0
   46.3175    9.5161   20.6162 H   0  0  0  0  0  0  0  0  0  0  0  0
   47.6116    6.6209   18.0630 H   0  0  0  0  0  0  0  0  0  0  0  0
   50.7419    8.5384   12.6528 H   0  0  0  0  0  0  0  0  0  0  0  0
   51.1120    8.9499   18.0045 H   0  0  0  0  0  0  0  0  0  0  0  0
   50.2451   10.5016   15.7175 H   0  0  0  0  0  0  0  0  0  0  0  0
   50.5122    7.3557   16.2336 H   0  0  0  0  0  0  0  0  0  0  0  0
   48.0955    8.7162   15.5001 H   0  0  0  0  0  0  0  0  0  0  0  0
 10  9  1  0
 11  4  2  0
 12  3  2  0
 13  6  2  0
 14  5  2  0
 15  8  1  0
 16 10  1  0
 17 10  1  0
 18 12  1  0
 19 11  1  0
 20 19  2  0
 21 18  2  0
  5  2  1  0
 13 20  1  0
 14 21  1  0
  2  6  1  0
  3  1  1  0
  4  1  1  0
  5  3  1  0
  6  4  1  0
  7  1  1  0
  8  7  1  0
  9  8  1  0
 31 30  1  0
 32 25  2  0
 33 24  2  0
 34 27  2  0
 35 26  2  0
 36 29  1  0
 37 31  1  0
 38 31  1  0
 39 33  1  0
 40 32  1  0
 41 40  2  0
 42 39  2  0
 26 23  1  0
 34 41  1  0
 35 42  1  0
 23 27  1  0
 24 22  1  0
 25 22  1  0
 26 24  1  0
 27 25  1  0
 28 22  1  0
 29 28  1  0
 30 29  1  0
 49 44  2  0
 50 47  1  0
 51 48  1  0
 49 43  1  0
 51 52  1  0
 50 51  1  0
 52 45  1  0
 49 50  1  0
 52 46  2  0
  7 53  1  0
  7 54  1  0
  8 55  1  6
  9 56  1  0
  9 57  1  0
 11 58  1  0
 12 59  1  0
 13 60  1  0
 14 61  1  0
 15 62  1  0
 15 63  1  0
 15 64  1  0
 16 65  1  0
 16 66  1  0
 16 67  1  0
 17 68  1  0
 17 69  1  0
 17 70  1  0
 18 71  1  0
 19 72  1  0
 20 73  1  0
 21 74  1  0
 28 75  1  0
 28 76  1  0
 29 77  1  1
 30 78  1  0
 30 79  1  0
 32 80  1  0
 33 81  1  0
 34 82  1  0
 35 83  1  0
 36 84  1  0
 36 85  1  0
 36 86  1  0
 37 87  1  0
 37 88  1  0
 37 89  1  0
 38 90  1  0
 38 91  1  0
 38 92  1  0
 39 93  1  0
 40 94  1  0
 41 95  1  0
 42 96  1  0
 43 97  1  0
 45 98  1  0
 47 99  1  0
 48100  1  0
 50101  1  6
 51102  1  1
M  END
> <Uni-Dock RESULT> 
ENERGY=   -4.448  LOWER_BOUND=    2.942  UPPER_BOUND=    4.644
INTER + INTRA:          -4.448
INTER:                  -4.448
INTRA:                   0.000
UNBOUND:                 0.000

$$$$

     RDKit          3D

102105  0  0  0  0  0  0  0  0999 V2000
   49.2988    8.6440   21.3162 N   0  0  0  0  0  0  0  0  0  0  0  0
   46.9656    8.0134   19.2722 S   0  0  0  0  0  0  0  0  0  0  0  0
   49.1377    7.2778   20.9080 C   0  0  0  0  0  0  0  0  0  0  0  0
   48.3903    9.7056   21.0162 C   0  0  0  0  0  0  0  0  0  0  0  0
   48.1121    6.8869   20.0216 C   0  0  0  0  0  0  0  0  0  0  0  0
   47.3096    9.5318   20.1239 C   0  0  0  0  0  0  0  0  0  0  0  0
   50.5343    8.9620   22.0762 C   0  0  0  0  0  0  0  0  0  0  0  0
   51.7976    9.0380   21.1728 C   0  0  1  0  0  0  0  0  0  0  0  0
   51.7902   10.3493   20.3460 C   0  0  0  0  0  0  0  0  0  0  0  0
   52.8620   10.6195   19.3779 N   0  0  0  0  0  0  0  0  0  0  0  0
   48.4999   10.9941   21.5958 C   0  0  0  0  0  0  0  0  0  0  0  0
   49.9774    6.2349   21.3834 C   0  0  0  0  0  0  0  0  0  0  0  0
   46.4214   10.5907   19.8352 C   0  0  0  0  0  0  0  0  0  0  0  0
   47.9504    5.5371   19.6483 C   0  0  0  0  0  0  0  0  0  0  0  0
   53.0364    8.9015   22.0645 C   0  0  0  0  0  0  0  0  0  0  0  0
   53.1575    9.5058   18.4933 C   0  0  0  0  0  0  0  0  0  0  0  0
   54.0673   11.2064   19.9428 C   0  0  0  0  0  0  0  0  0  0  0  0
   49.8028    4.8944   21.0109 C   0  0  0  0  0  0  0  0  0  0  0  0
   47.6164   12.0424   21.3060 C   0  0  0  0  0  0  0  0  0  0  0  0
   46.5723   11.8399   20.4236 C   0  0  0  0  0  0  0  0  0  0  0  0
   48.7840    4.5420   20.1436 C   0  0  0  0  0  0  0  0  0  0  0  0
   49.3874    8.2952   19.8727 N   0  0  0  0  0  0  0  0  0  0  0  0
   47.4105    9.6282   21.9155 S   0  0  0  0  0  0  0  0  0  0  0  0
   48.8323    7.4467   20.8786 C   0  0  0  0  0  0  0  0  0  0  0  0
   48.8704    9.5746   19.5150 C   0  0  0  0  0  0  0  0  0  0  0  0
   47.8981    7.9244   21.8188 C   0  0  0  0  0  0  0  0  0  0  0  0
   47.9625   10.2600   20.3454 C   0  0  0  0  0  0  0  0  0  0  0  0
   50.7573    7.9512   19.4071 C   0  0  0  0  0  0  0  0  0  0  0  0
   51.8516    8.2026   20.4786 C   0  0  2  0  0  0  0  0  0  0  0  0
   52.0809    9.7218   20.6761 C   0  0  0  0  0  0  0  0  0  0  0  0
   53.2270   10.0626   21.5411 N   0  0  0  0  0  0  0  0  0  0  0  0
   49.1879   10.1933   18.2830 C   0  0  0  0  0  0  0  0  0  0  0  0
   49.1605    6.0770   20.9696 C   0  0  0  0  0  0  0  0  0  0  0  0
   47.4581   11.5212   19.9843 C   0  0  0  0  0  0  0  0  0  0  0  0
   47.3395    7.0723   22.7933 C   0  0  0  0  0  0  0  0  0  0  0  0
   53.1410    7.4999   20.0260 C   0  0  0  0  0  0  0  0  0  0  0  0
   53.5303   11.4896   21.4342 C   0  0  0  0  0  0  0  0  0  0  0  0
   52.9519    9.7232   22.9374 C   0  0  0  0  0  0  0  0  0  0  0  0
   48.6106    5.2332   21.9432 C   0  0  0  0  0  0  0  0  0  0  0  0
   48.6863   11.4548   17.9338 C   0  0  0  0  0  0  0  0  0  0  0  0
   47.8272   12.1219   18.7866 C   0  0  0  0  0  0  0  0  0  0  0  0
   47.6914    5.7315   22.8559 C   0  0  0  0  0  0  0  0  0  0  0  0
   49.1197    9.2567   22.8461 O   0  0  0  0  0  0  0  0  0  0  0  0
   47.7660    7.9915   21.6013 O   0  0  0  0  0  0  0  0  0  0  0  0
   52.6231    9.7763   19.3198 O   0  0  0  0  0  0  0  0  0  0  0  0
   52.2468   10.7081   21.3336 O   0  0  0  0  0  0  0  0  0  0  0  0
   49.2641    8.4763   19.2586 O   0  0  0  0  0  0  0  0  0  0  0  0
   51.4639    7.4231   20.0791 O   0  0  0  0  0  0  0  0  0  0  0  0
   48.7769    8.6736   21.6726 C   0  0  0  0  0  0  0  0  0  0  0  0
   49.6913    9.0484   20.5110 C   0  0  1  0  0  0  0  0  0  0  0  0
   51.1294    8.5993   20.8147 C   0  0  2  0  0  0  0  0  0  0  0  0
   52.0475    9.7881   20.5433 C   0  0  0  0  0  0  0  0  0  0  0  0
   50.6666    8.2190   22.8689 H   0  0  0  0  0  0  0  0  0  0  0  0
   50.4791    9.8732   22.6765 H   0  0  0  0  0  0  0  0  0  0  0  0
   51.7979    8.1897   20.4774 H   0  0  0  0  0  0  0  0  0  0  0  0
   50.8627   10.3708   19.7608 H   0  0  0  0  0  0  0  0  0  0  0  0
   51.7056   11.2051   21.0292 H   0  0  0  0  0  0  0  0  0  0  0  0
   49.2767   11.2542   22.2988 H   0  0  0  0  0  0  0  0  0  0  0  0
   50.8031    6.4179   22.0641 H   0  0  0  0  0  0  0  0  0  0  0  0
   45.5989   10.4432   19.1354 H   0  0  0  0  0  0  0  0  0  0  0  0
   47.1570    5.2537   18.9595 H   0  0  0  0  0  0  0  0  0  0  0  0
   53.9338    8.7132   21.4689 H   0  0  0  0  0  0  0  0  0  0  0  0
   52.9411    8.0552   22.7514 H   0  0  0  0  0  0  0  0  0  0  0  0
   53.1923    9.8023   22.6664 H   0  0  0  0  0  0  0  0  0  0  0  0
   52.2488    9.1203   18.0253 H   0  0  0  0  0  0  0  0  0  0  0  0
   53.8030    9.8344   17.6727 H   0  0  0  0  0  0  0  0  0  0  0  0
   53.6621    8.6803   19.0069 H   0  0  0  0  0  0  0  0  0  0  0  0
   53.8187   12.0504   20.6033 H   0  0  0  0  0  0  0  0  0  0  0  0
   54.6714   10.4918   20.5157 H   0  0  0  0  0  0  0  0  0  0  0  0
   54.6977   11.6177   19.1400 H   0  0  0  0  0  0  0  0  0  0  0  0
   50.4701    4.1311   21.4029 H   0  0  0  0  0  0  0  0  0  0  0  0
   47.7484   13.0107   21.7856 H   0  0  0  0  0  0  0  0  0  0  0  0
   45.8808   12.6448   20.1948 H   0  0  0  0  0  0  0  0  0  0  0  0
   48.6318    3.5045   19.8573 H   0  0  0  0  0  0  0  0  0  0  0  0
   50.7889    6.9074   19.0745 H   0  0  0  0  0  0  0  0  0  0  0  0
   51.0502    8.4878   18.5013 H   0  0  0  0  0  0  0  0  0  0  0  0
   51.5471    7.7578   21.4327 H   0  0  0  0  0  0  0  0  0  0  0  0
   52.2491   10.1605   19.6849 H   0  0  0  0  0  0  0  0  0  0  0  0
   51.1772   10.1938   21.0729 H   0  0  0  0  0  0  0  0  0  0  0  0
   49.8002    9.6997   17.5359 H   0  0  0  0  0  0  0  0  0  0  0  0
   49.8507    5.6087   20.2730 H   0  0  0  0  0  0  0  0  0  0  0  0
   46.7674   12.0431   20.6401 H   0  0  0  0  0  0  0  0  0  0  0  0
   46.6172    7.4571   23.5131 H   0  0  0  0  0  0  0  0  0  0  0  0
   52.9692    6.4328   19.8642 H   0  0  0  0  0  0  0  0  0  0  0  0
   53.5139    7.9273   19.0907 H   0  0  0  0  0  0  0  0  0  0  0  0
   53.9324    7.5858   20.7790 H   0  0  0  0  0  0  0  0  0  0  0  0
   53.6508   11.7915   20.3892 H   0  0  0  0  0  0  0  0  0  0  0  0
   52.7470   12.1122   21.8770 H   0  0  0  0  0  0  0  0  0  0  0  0
   54.4788   11.7145   21.9244 H   0  0  0  0  0  0  0  0  0  0  0  0
   52.0478   10.2235   23.3050 H   0  0  0  0  0  0  0  0  0  0  0  0
   52.8246    8.6439   23.0636 H   0  0  0  0  0  0  0  0  0  0  0  0
   53.7901   10.0071   23.5810 H   0  0  0  0  0  0  0  0  0  0  0  0
   48.8924    4.1842   21.9710 H   0  0  0  0  0  0  0  0  0  0  0  0
   48.9588   11.9013   16.9774 H   0  0  0  0  0  0  0  0  0  0  0  0
   47.4247   13.0947   18.5229 H   0  0  0  0  0  0  0  0  0  0  0  0
   47.2539    5.0764   23.6044 H   0  0  0  0  0  0  0  0  0  0  0  0
   48.4303    8.9724   23.4886 H   0  0  0  0  0  0  0  0  0  0  0  0
   53.1997   10.5683   19.3111 H   0  0  0  0  0  0  0  0  0  0  0  0
   48.2935    8.3603   19.3308 H   0  0  0  0  0  0  0  0  0  0  0  0
   51.0771    7.5731   19.1836 H   0  0  0  0  0  0  0  0  0  0  0  0
   49.6068   10.1416   20.3984 H   0  0  0  0  0  0  0  0  0  0  0  0
   51.2899    8.3439   21.8699 H   0  0  0  0  0  0  0  0  0  0  0  0
 10  9  1  0
 11  4  2  0
 12  3  2  0
 13  6  2  0
 14  5  2  0
 15  8  1  0
 16 10  1  0
 17 10  1  0
 18 12  1  0
 19 11  1  0
 20 19  2  0
 21 18  2  0
  5  2  1  0
 13 20  1  0
 14 21  1  0
  2  6  1  0
  3  1  1  0
  4  1  1  0
  5  3  1  0
  6  4  1  0
  7  1  1  0
  8  7  1  0
  9  8  1  0
 31 30  1  0
 32 25  2  0
 33 24  2  0
 34 27  2  0
 35 26  2  0
 36 29  1  0
 37 31  1  0
 38 31  1  0
 39 33  1  0
 40 32  1  0
 41 40  2  0
 42 39  2  0
 26 23  1  0
 34 41  1  0
 35 42  1  0
 23 27  1  0
 24 22  1  0
 25 22  1  0
 26 24  1  0
 27 25  1  0
 28 22  1  0
 29 28  1  0
 30 29  1  0
 49 44  2  0
 50 47  1  0
 51 48  1  0
 49 43  1  0
 51 52  1  0
 50 51  1  0
 52 45  1  0
 49 50  1  0
 52 46  2  0
  7 53  1  0
  7 54  1  0
  8 55  1  6
  9 56  1  0
  9 57  1  0
 11 58  1  0
 12 59  1  0
 13 60  1  0
 14 61  1  0
 15 62  1  0
 15 63  1  0
 15 64  1  0
 16 65  1  0
 16 66  1  0
 16 67  1  0
 17 68  1  0
 17 69  1  0
 17 70  1  0
 18 71  1  0
 19 72  1  0
 20 73  1  0
 21 74  1  0
 28 75  1  0
 28 76  1  0
 29 77  1  1
 30 78  1  0
 30 79  1  0
 32 80  1  0
 33 81  1  0
 34 82  1  0
 35 83  1  0
 36 84  1  0
 36 85  1  0
 36 86  1  0
 37 87  1  0
 37 88  1  0
 37 89  1  0
 38 90  1  0
 38 91  1  0
 38 92  1  0
 39 93  1  0
 40 94  1  0
 41 95  1  0
 42 96  1  0
 43 97  1  0
 45 98  1  0
 47 99  1  0
 48100  1  0
 50101  1  6
 51102  1  1
M  END
> <Uni-Dock RESULT> 
ENERGY=   -4.312  LOWER_BOUND=    2.777  UPPER_BOUND=    5.073
INTER + INTRA:          -4.312
INTER:                  -4.312
INTRA:                   0.000
UNBOUND:                 0.000

$$$$
