
     RDKit          3D

102105  0  0  0  0  0  0  0  0999 V2000
   51.2781    4.9172   17.8720 N   0  0  0  0  0  0  0  0  0  0  0  0
   49.2101    7.1890   17.2346 S   0  0  0  0  0  0  0  0  0  0  0  0
   51.8136    6.1514   17.4130 C   0  0  0  0  0  0  0  0  0  0  0  0
   49.9310    4.5105   17.6816 C   0  0  0  0  0  0  0  0  0  0  0  0
   50.9841    7.2343   17.0640 C   0  0  0  0  0  0  0  0  0  0  0  0
   48.9120    5.4346   17.3757 C   0  0  0  0  0  0  0  0  0  0  0  0
   52.0125    4.2711   18.9900 C   0  0  0  0  0  0  0  0  0  0  0  0
   51.9730    5.0936   20.3038 C   0  0  1  0  0  0  0  0  0  0  0  0
   50.5706    5.0309   20.9549 C   0  0  0  0  0  0  0  0  0  0  0  0
   50.4836    5.6834   22.2798 N   0  0  0  0  0  0  0  0  0  0  0  0
   49.5694    3.1474   17.7378 C   0  0  0  0  0  0  0  0  0  0  0  0
   53.2043    6.3159   17.2416 C   0  0  0  0  0  0  0  0  0  0  0  0
   47.5843    5.0066   17.2031 C   0  0  0  0  0  0  0  0  0  0  0  0
   51.5430    8.4392   16.6043 C   0  0  0  0  0  0  0  0  0  0  0  0
   53.0471    4.5461   21.2530 C   0  0  0  0  0  0  0  0  0  0  0  0
   49.2284    5.3030   22.9339 C   0  0  0  0  0  0  0  0  0  0  0  0
   50.5540    7.1427   22.1571 C   0  0  0  0  0  0  0  0  0  0  0  0
   53.7528    7.5100   16.7683 C   0  0  0  0  0  0  0  0  0  0  0  0
   48.2426    2.7292   17.5746 C   0  0  0  0  0  0  0  0  0  0  0  0
   47.2492    3.6612   17.3161 C   0  0  0  0  0  0  0  0  0  0  0  0
   52.9217    8.5805   16.4581 C   0  0  0  0  0  0  0  0  0  0  0  0
   50.8538    4.9874   18.0403 N   0  0  0  0  0  0  0  0  0  0  0  0
   49.4686    6.6778   15.7829 S   0  0  0  0  0  0  0  0  0  0  0  0
   51.6954    5.8440   17.2745 C   0  0  0  0  0  0  0  0  0  0  0  0
   49.5656    4.5555   17.6332 C   0  0  0  0  0  0  0  0  0  0  0  0
   51.1968    6.6293   16.2161 C   0  0  0  0  0  0  0  0  0  0  0  0
   48.8552    5.2188   16.6131 C   0  0  0  0  0  0  0  0  0  0  0  0
   51.1866    4.8576   19.4832 C   0  0  0  0  0  0  0  0  0  0  0  0
   51.0244    6.1913   20.2519 C   0  0  2  0  0  0  0  0  0  0  0  0
   51.8832    6.1820   21.5385 C   0  0  0  0  0  0  0  0  0  0  0  0
   51.5956    5.0382   22.4211 N   0  0  0  0  0  0  0  0  0  0  0  0
   48.9656    3.4024   18.1832 C   0  0  0  0  0  0  0  0  0  0  0  0
   53.0826    5.9133   17.5227 C   0  0  0  0  0  0  0  0  0  0  0  0
   47.5839    4.7709   16.2155 C   0  0  0  0  0  0  0  0  0  0  0  0
   52.0542    7.4650   15.4765 C   0  0  0  0  0  0  0  0  0  0  0  0
   49.5501    6.4953   20.5319 C   0  0  0  0  0  0  0  0  0  0  0  0
   52.8338    4.4017   22.8828 C   0  0  0  0  0  0  0  0  0  0  0  0
   50.7907    5.4434   23.5779 C   0  0  0  0  0  0  0  0  0  0  0  0
   53.9302    6.7476   16.7885 C   0  0  0  0  0  0  0  0  0  0  0  0
   47.6994    2.9616   17.7811 C   0  0  0  0  0  0  0  0  0  0  0  0
   47.0035    3.6483   16.8012 C   0  0  0  0  0  0  0  0  0  0  0  0
   53.4166    7.5246   15.7640 C   0  0  0  0  0  0  0  0  0  0  0  0
   50.8799    3.9528   17.4968 O   0  0  0  0  0  0  0  0  0  0  0  0
   52.6746    5.1840   16.9872 O   0  0  0  0  0  0  0  0  0  0  0  0
   48.9625    4.3187   21.0118 O   0  0  0  0  0  0  0  0  0  0  0  0
   48.6576    6.3693   20.1804 O   0  0  0  0  0  0  0  0  0  0  0  0
   52.0431    7.1353   18.8526 O   0  0  0  0  0  0  0  0  0  0  0  0
   51.6730    5.9743   21.0648 O   0  0  0  0  0  0  0  0  0  0  0  0
   51.6700    5.0301   17.6639 C   0  0  0  0  0  0  0  0  0  0  0  0
   51.1324    6.0320   18.6762 C   0  0  1  0  0  0  0  0  0  0  0  0
   50.8917    5.3536   20.0365 C   0  0  2  0  0  0  0  0  0  0  0  0
   49.4130    5.4313   20.3837 C   0  0  0  0  0  0  0  0  0  0  0  0
   53.0547    4.1010   18.6970 H   0  0  0  0  0  0  0  0  0  0  0  0
   51.6489    3.2604   19.2030 H   0  0  0  0  0  0  0  0  0  0  0  0
   52.2248    6.1379   20.0864 H   0  0  0  0  0  0  0  0  0  0  0  0
   50.3153    3.9668   21.0689 H   0  0  0  0  0  0  0  0  0  0  0  0
   49.8168    5.4681   20.2876 H   0  0  0  0  0  0  0  0  0  0  0  0
   50.3259    2.3803   17.8726 H   0  0  0  0  0  0  0  0  0  0  0  0
   53.8911    5.4988   17.4385 H   0  0  0  0  0  0  0  0  0  0  0  0
   46.8005    5.7326   16.9881 H   0  0  0  0  0  0  0  0  0  0  0  0
   50.9013    9.2784   16.3483 H   0  0  0  0  0  0  0  0  0  0  0  0
   54.0332    4.5692   20.7788 H   0  0  0  0  0  0  0  0  0  0  0  0
   52.8291    3.5143   21.5418 H   0  0  0  0  0  0  0  0  0  0  0  0
   53.1282    5.1509   22.1590 H   0  0  0  0  0  0  0  0  0  0  0  0
   49.1582    5.7430   23.9331 H   0  0  0  0  0  0  0  0  0  0  0  0
   49.1824    4.2193   23.0717 H   0  0  0  0  0  0  0  0  0  0  0  0
   48.3468    5.6080   22.3604 H   0  0  0  0  0  0  0  0  0  0  0  0
   51.5038    7.4575   21.7194 H   0  0  0  0  0  0  0  0  0  0  0  0
   50.5095    7.6162   23.1468 H   0  0  0  0  0  0  0  0  0  0  0  0
   49.7390    7.5489   21.5479 H   0  0  0  0  0  0  0  0  0  0  0  0
   54.8283    7.6014   16.6423 H   0  0  0  0  0  0  0  0  0  0  0  0
   48.0008    1.6722   17.6346 H   0  0  0  0  0  0  0  0  0  0  0  0
   46.2224    3.3412   17.1702 H   0  0  0  0  0  0  0  0  0  0  0  0
   53.3446    9.5145   16.0970 H   0  0  0  0  0  0  0  0  0  0  0  0
   50.5862    4.0970   19.9898 H   0  0  0  0  0  0  0  0  0  0  0  0
   52.2065    4.4742   19.5851 H   0  0  0  0  0  0  0  0  0  0  0  0
   51.4053    7.0232   19.6445 H   0  0  0  0  0  0  0  0  0  0  0  0
   51.7708    7.1356   22.0690 H   0  0  0  0  0  0  0  0  0  0  0  0
   52.9346    6.1606   21.2205 H   0  0  0  0  0  0  0  0  0  0  0  0
   49.4958    2.7912   18.9088 H   0  0  0  0  0  0  0  0  0  0  0  0
   53.5485    5.2923   18.2817 H   0  0  0  0  0  0  0  0  0  0  0  0
   47.0353    5.2964   15.4380 H   0  0  0  0  0  0  0  0  0  0  0  0
   51.6600    8.0741   14.6667 H   0  0  0  0  0  0  0  0  0  0  0  0
   49.0020    6.6625   19.6002 H   0  0  0  0  0  0  0  0  0  0  0  0
   49.0589    5.6773   21.0682 H   0  0  0  0  0  0  0  0  0  0  0  0
   49.4526    7.4037   21.1351 H   0  0  0  0  0  0  0  0  0  0  0  0
   53.4035    4.0105   22.0328 H   0  0  0  0  0  0  0  0  0  0  0  0
   52.6143    3.5444   23.5288 H   0  0  0  0  0  0  0  0  0  0  0  0
   53.4752    5.0990   23.4386 H   0  0  0  0  0  0  0  0  0  0  0  0
   50.5054    4.5638   24.1691 H   0  0  0  0  0  0  0  0  0  0  0  0
   49.8597    5.9271   23.2662 H   0  0  0  0  0  0  0  0  0  0  0  0
   51.3353    6.1336   24.2375 H   0  0  0  0  0  0  0  0  0  0  0  0
   54.9959    6.7705   17.0111 H   0  0  0  0  0  0  0  0  0  0  0  0
   47.2711    2.0669   18.2300 H   0  0  0  0  0  0  0  0  0  0  0  0
   46.0203    3.3123   16.4844 H   0  0  0  0  0  0  0  0  0  0  0  0
   54.0683    8.1711   15.1862 H   0  0  0  0  0  0  0  0  0  0  0  0
   51.3272    3.4170   16.8043 H   0  0  0  0  0  0  0  0  0  0  0  0
   48.0347    4.5341   21.2437 H   0  0  0  0  0  0  0  0  0  0  0  0
   52.5013    7.2592   17.9924 H   0  0  0  0  0  0  0  0  0  0  0  0
   51.8835    6.8705   20.7230 H   0  0  0  0  0  0  0  0  0  0  0  0
   50.2242    6.4502   18.2318 H   0  0  0  0  0  0  0  0  0  0  0  0
   51.1724    4.2924   20.0160 H   0  0  0  0  0  0  0  0  0  0  0  0
 10  9  1  0
 11  4  2  0
 12  3  2  0
 13  6  2  0
 14  5  2  0
 15  8  1  0
 16 10  1  0
 17 10  1  0
 18 12  1  0
 19 11  1  0
 20 19  2  0
 21 18  2  0
  5  2  1  0
 13 20  1  0
 14 21  1  0
  2  6  1  0
  3  1  1  0
  4  1  1  0
  5  3  1  0
  6  4  1  0
  7  1  1  0
  8  7  1  0
  9  8  1  0
 31 30  1  0
 32 25  2  0
 33 24  2  0
 34 27  2  0
 35 26  2  0
 36 29  1  0
 37 31  1  0
 38 31  1  0
 39 33  1  0
 40 32  1  0
 41 40  2  0
 42 39  2  0
 26 23  1  0
 34 41  1  0
 35 42  1  0
 23 27  1  0
 24 22  1  0
 25 22  1  0
 26 24  1  0
 27 25  1  0
 28 22  1  0
 29 28  1  0
 30 29  1  0
 49 44  2  0
 50 47  1  0
 51 48  1  0
 49 43  1  0
 51 52  1  0
 50 51  1  0
 52 45  1  0
 49 50  1  0
 52 46  2  0
  7 53  1  0
  7 54  1  0
  8 55  1  6
  9 56  1  0
  9 57  1  0
 11 58  1  0
 12 59  1  0
 13 60  1  0
 14 61  1  0
 15 62  1  0
 15 63  1  0
 15 64  1  0
 16 65  1  0
 16 66  1  0
 16 67  1  0
 17 68  1  0
 17 69  1  0
 17 70  1  0
 18 71  1  0
 19 72  1  0
 20 73  1  0
 21 74  1  0
 28 75  1  0
 28 76  1  0
 29 77  1  6
 30 78  1  0
 30 79  1  0
 32 80  1  0
 33 81  1  0
 34 82  1  0
 35 83  1  0
 36 84  1  0
 36 85  1  0
 36 86  1  0
 37 87  1  0
 37 88  1  0
 37 89  1  0
 38 90  1  0
 38 91  1  0
 38 92  1  0
 39 93  1  0
 40 94  1  0
 41 95  1  0
 42 96  1  0
 43 97  1  0
 45 98  1  0
 47 99  1  0
 48100  1  0
 50101  1  6
 51102  1  1
M  END
> <Uni-Dock RESULT> 
ENERGY=   -6.958  LOWER_BOUND=    0.000  UPPER_BOUND=    0.000
INTER + INTRA:          -6.958
INTER:                  -6.958
INTRA:                   0.000
UNBOUND:                 0.000

$$$$

     RDKit          3D

102105  0  0  0  0  0  0  0  0999 V2000
   47.5795    6.5670   19.0189 N   0  0  0  0  0  0  0  0  0  0  0  0
   50.2238    6.9837   17.3824 S   0  0  0  0  0  0  0  0  0  0  0  0
   48.0681    5.4386   18.3056 C   0  0  0  0  0  0  0  0  0  0  0  0
   47.9421    7.9102   18.7349 C   0  0  0  0  0  0  0  0  0  0  0  0
   49.2273    5.5110   17.5096 C   0  0  0  0  0  0  0  0  0  0  0  0
   49.0991    8.2270   17.9953 C   0  0  0  0  0  0  0  0  0  0  0  0
   47.0706    6.2944   20.3875 C   0  0  0  0  0  0  0  0  0  0  0  0
   48.1724    5.8078   21.3640 C   0  0  1  0  0  0  0  0  0  0  0  0
   49.1179    6.9685   21.7556 C   0  0  0  0  0  0  0  0  0  0  0  0
   50.1200    6.6177   22.7858 N   0  0  0  0  0  0  0  0  0  0  0  0
   47.1210    8.9847   19.1390 C   0  0  0  0  0  0  0  0  0  0  0  0
   47.3721    4.2116   18.3309 C   0  0  0  0  0  0  0  0  0  0  0  0
   49.4410    9.5659   17.7377 C   0  0  0  0  0  0  0  0  0  0  0  0
   49.6804    4.3802   16.8085 C   0  0  0  0  0  0  0  0  0  0  0  0
   47.4943    5.2067   22.6022 C   0  0  0  0  0  0  0  0  0  0  0  0
   50.7438    7.8396   23.3014 C   0  0  0  0  0  0  0  0  0  0  0  0
   51.1511    5.7291   22.2409 C   0  0  0  0  0  0  0  0  0  0  0  0
   47.8181    3.0961   17.6186 C   0  0  0  0  0  0  0  0  0  0  0  0
   47.4731   10.3169   18.8874 C   0  0  0  0  0  0  0  0  0  0  0  0
   48.6384   10.6065   18.1942 C   0  0  0  0  0  0  0  0  0  0  0  0
   48.9821    3.1753   16.8625 C   0  0  0  0  0  0  0  0  0  0  0  0
   47.9236    6.8682   19.0834 N   0  0  0  0  0  0  0  0  0  0  0  0
   49.1916    7.1178   16.2195 S   0  0  0  0  0  0  0  0  0  0  0  0
   47.8508    5.7165   18.2487 C   0  0  0  0  0  0  0  0  0  0  0  0
   48.1599    8.1856   18.6138 C   0  0  0  0  0  0  0  0  0  0  0  0
   48.3571    5.7141   16.9337 C   0  0  0  0  0  0  0  0  0  0  0  0
   48.7026    8.4251   17.3357 C   0  0  0  0  0  0  0  0  0  0  0  0
   48.1404    6.6171   20.5323 C   0  0  0  0  0  0  0  0  0  0  0  0
   49.5107    5.9582   20.8220 C   0  0  2  0  0  0  0  0  0  0  0  0
   49.4771    5.2130   22.1772 C   0  0  0  0  0  0  0  0  0  0  0  0
   49.0678    6.0710   23.3023 N   0  0  0  0  0  0  0  0  0  0  0  0
   47.7999    9.3170   19.3769 C   0  0  0  0  0  0  0  0  0  0  0  0
   47.2290    4.5315   18.6958 C   0  0  0  0  0  0  0  0  0  0  0  0
   48.9207    9.7373   16.8828 C   0  0  0  0  0  0  0  0  0  0  0  0
   48.2688    4.5605   16.1325 C   0  0  0  0  0  0  0  0  0  0  0  0
   50.6470    6.9815   20.7424 C   0  0  0  0  0  0  0  0  0  0  0  0
   48.0636    5.4044   24.1381 C   0  0  0  0  0  0  0  0  0  0  0  0
   50.2168    6.4560   24.1280 C   0  0  0  0  0  0  0  0  0  0  0  0
   47.1469    3.3865   17.8985 C   0  0  0  0  0  0  0  0  0  0  0  0
   48.0192   10.6212   18.9185 C   0  0  0  0  0  0  0  0  0  0  0  0
   48.5855   10.8340   17.6735 C   0  0  0  0  0  0  0  0  0  0  0  0
   47.6668    3.4000   16.6152 C   0  0  0  0  0  0  0  0  0  0  0  0
   46.9334    7.4590   18.8914 O   0  0  0  0  0  0  0  0  0  0  0  0
   46.7121    5.3029   18.3452 O   0  0  0  0  0  0  0  0  0  0  0  0
   49.4760    8.6914   21.7518 O   0  0  0  0  0  0  0  0  0  0  0  0
   50.9187    7.7976   20.2994 O   0  0  0  0  0  0  0  0  0  0  0  0
   49.1888    4.6346   19.3967 O   0  0  0  0  0  0  0  0  0  0  0  0
   49.2705    5.5214   21.7601 O   0  0  0  0  0  0  0  0  0  0  0  0
   47.3789    6.1890   18.8560 C   0  0  0  0  0  0  0  0  0  0  0  0
   48.7863    6.0187   19.4108 C   0  0  1  0  0  0  0  0  0  0  0  0
   48.8708    6.5544   20.8511 C   0  0  2  0  0  0  0  0  0  0  0  0
   49.8602    7.7084   20.9023 C   0  0  0  0  0  0  0  0  0  0  0  0
   46.2688    5.5488   20.3411 H   0  0  0  0  0  0  0  0  0  0  0  0
   46.5732    7.1631   20.8316 H   0  0  0  0  0  0  0  0  0  0  0  0
   48.7551    5.0116   20.8866 H   0  0  0  0  0  0  0  0  0  0  0  0
   48.4863    7.7826   22.1414 H   0  0  0  0  0  0  0  0  0  0  0  0
   49.6337    7.3601   20.8695 H   0  0  0  0  0  0  0  0  0  0  0  0
   46.1685    8.7993   19.6260 H   0  0  0  0  0  0  0  0  0  0  0  0
   46.4412    4.1097   18.8795 H   0  0  0  0  0  0  0  0  0  0  0  0
   50.3495    9.8002   17.1832 H   0  0  0  0  0  0  0  0  0  0  0  0
   50.5831    4.4347   16.2054 H   0  0  0  0  0  0  0  0  0  0  0  0
   46.8078    4.4031   22.3177 H   0  0  0  0  0  0  0  0  0  0  0  0
   46.9272    5.9654   23.1484 H   0  0  0  0  0  0  0  0  0  0  0  0
   48.2234    4.7608   23.2825 H   0  0  0  0  0  0  0  0  0  0  0  0
   51.4623    7.6086   24.0934 H   0  0  0  0  0  0  0  0  0  0  0  0
   49.9907    8.4926   23.7510 H   0  0  0  0  0  0  0  0  0  0  0  0
   51.2613    8.4081   22.5217 H   0  0  0  0  0  0  0  0  0  0  0  0
   50.7193    4.7869   21.8962 H   0  0  0  0  0  0  0  0  0  0  0  0
   51.8778    5.4582   23.0181 H   0  0  0  0  0  0  0  0  0  0  0  0
   51.6969    6.1864   21.4082 H   0  0  0  0  0  0  0  0  0  0  0  0
   47.2549    2.1674   17.6553 H   0  0  0  0  0  0  0  0  0  0  0  0
   46.8209   11.1178   19.2226 H   0  0  0  0  0  0  0  0  0  0  0  0
   48.9069   11.6361   17.9800 H   0  0  0  0  0  0  0  0  0  0  0  0
   49.3374    2.3075   16.3129 H   0  0  0  0  0  0  0  0  0  0  0  0
   48.0646    7.5258   21.1360 H   0  0  0  0  0  0  0  0  0  0  0  0
   47.3244    5.9974   20.9171 H   0  0  0  0  0  0  0  0  0  0  0  0
   49.7262    5.1923   20.0650 H   0  0  0  0  0  0  0  0  0  0  0  0
   50.4484    4.7397   22.3668 H   0  0  0  0  0  0  0  0  0  0  0  0
   48.7749    4.3757   22.0638 H   0  0  0  0  0  0  0  0  0  0  0  0
   47.2941    9.2061   20.3325 H   0  0  0  0  0  0  0  0  0  0  0  0
   46.7625    4.4776   19.6747 H   0  0  0  0  0  0  0  0  0  0  0  0
   49.3534    9.9144   15.9014 H   0  0  0  0  0  0  0  0  0  0  0  0
   48.6694    4.5644   15.1217 H   0  0  0  0  0  0  0  0  0  0  0  0
   50.7531    7.3689   19.7250 H   0  0  0  0  0  0  0  0  0  0  0  0
   50.4779    7.8325   21.4097 H   0  0  0  0  0  0  0  0  0  0  0  0
   51.6007    6.5193   21.0165 H   0  0  0  0  0  0  0  0  0  0  0  0
   47.1599    5.1928   23.5561 H   0  0  0  0  0  0  0  0  0  0  0  0
   47.7536    6.0513   24.9664 H   0  0  0  0  0  0  0  0  0  0  0  0
   48.4353    4.4593   24.5571 H   0  0  0  0  0  0  0  0  0  0  0  0
   49.9070    7.1715   24.9003 H   0  0  0  0  0  0  0  0  0  0  0  0
   50.9880    6.9531   23.5313 H   0  0  0  0  0  0  0  0  0  0  0  0
   50.6720    5.5907   24.6301 H   0  0  0  0  0  0  0  0  0  0  0  0
   46.6572    2.4923   18.2811 H   0  0  0  0  0  0  0  0  0  0  0  0
   47.7270   11.4678   19.5377 H   0  0  0  0  0  0  0  0  0  0  0  0
   48.7590   11.8433   17.3113 H   0  0  0  0  0  0  0  0  0  0  0  0
   47.6029    2.5172   15.9882 H   0  0  0  0  0  0  0  0  0  0  0  0
   46.0409    7.4248   18.4801 H   0  0  0  0  0  0  0  0  0  0  0  0
   50.2286    9.3195   21.7466 H   0  0  0  0  0  0  0  0  0  0  0  0
   48.7353    4.2199   18.6302 H   0  0  0  0  0  0  0  0  0  0  0  0
   49.7201    4.8485   21.2040 H   0  0  0  0  0  0  0  0  0  0  0  0
   49.4493    6.5395   18.7133 H   0  0  0  0  0  0  0  0  0  0  0  0
   47.9014    6.9327   21.2008 H   0  0  0  0  0  0  0  0  0  0  0  0
 10  9  1  0
 11  4  2  0
 12  3  2  0
 13  6  2  0
 14  5  2  0
 15  8  1  0
 16 10  1  0
 17 10  1  0
 18 12  1  0
 19 11  1  0
 20 19  2  0
 21 18  2  0
  5  2  1  0
 13 20  1  0
 14 21  1  0
  2  6  1  0
  3  1  1  0
  4  1  1  0
  5  3  1  0
  6  4  1  0
  7  1  1  0
  8  7  1  0
  9  8  1  0
 31 30  1  0
 32 25  2  0
 33 24  2  0
 34 27  2  0
 35 26  2  0
 36 29  1  0
 37 31  1  0
 38 31  1  0
 39 33  1  0
 40 32  1  0
 41 40  2  0
 42 39  2  0
 26 23  1  0
 34 41  1  0
 35 42  1  0
 23 27  1  0
 24 22  1  0
 25 22  1  0
 26 24  1  0
 27 25  1  0
 28 22  1  0
 29 28  1  0
 30 29  1  0
 49 44  2  0
 50 47  1  0
 51 48  1  0
 49 43  1  0
 51 52  1  0
 50 51  1  0
 52 45  1  0
 49 50  1  0
 52 46  2  0
  7 53  1  0
  7 54  1  0
  8 55  1  6
  9 56  1  0
  9 57  1  0
 11 58  1  0
 12 59  1  0
 13 60  1  0
 14 61  1  0
 15 62  1  0
 15 63  1  0
 15 64  1  0
 16 65  1  0
 16 66  1  0
 16 67  1  0
 17 68  1  0
 17 69  1  0
 17 70  1  0
 18 71  1  0
 19 72  1  0
 20 73  1  0
 21 74  1  0
 28 75  1  0
 28 76  1  0
 29 77  1  6
 30 78  1  0
 30 79  1  0
 32 80  1  0
 33 81  1  0
 34 82  1  0
 35 83  1  0
 36 84  1  0
 36 85  1  0
 36 86  1  0
 37 87  1  0
 37 88  1  0
 37 89  1  0
 38 90  1  0
 38 91  1  0
 38 92  1  0
 39 93  1  0
 40 94  1  0
 41 95  1  0
 42 96  1  0
 43 97  1  0
 45 98  1  0
 47 99  1  0
 48100  1  0
 50101  1  6
 51102  1  1
M  END
> <Uni-Dock RESULT> 
ENERGY=   -6.478  LOWER_BOUND=    2.417  UPPER_BOUND=    4.664
INTER + INTRA:          -6.478
INTER:                  -6.478
INTRA:                   0.000
UNBOUND:                 0.000

$$$$

     RDKit          3D

102105  0  0  0  0  0  0  0  0999 V2000
   48.3070    6.7964   19.7888 N   0  0  0  0  0  0  0  0  0  0  0  0
   49.2967    9.1527   21.6089 S   0  0  0  0  0  0  0  0  0  0  0  0
   48.5816    8.0292   19.1364 C   0  0  0  0  0  0  0  0  0  0  0  0
   48.0590    6.6670   21.1810 C   0  0  0  0  0  0  0  0  0  0  0  0
   49.0003    9.1679   19.8510 C   0  0  0  0  0  0  0  0  0  0  0  0
   48.4419    7.6644   22.0998 C   0  0  0  0  0  0  0  0  0  0  0  0
   48.7738    5.5752   19.0836 C   0  0  0  0  0  0  0  0  0  0  0  0
   50.3176    5.4877   18.9688 C   0  0  1  0  0  0  0  0  0  0  0  0
   50.9572    5.1556   20.3382 C   0  0  0  0  0  0  0  0  0  0  0  0
   52.4180    4.9267   20.2895 N   0  0  0  0  0  0  0  0  0  0  0  0
   47.3648    5.5503   21.6939 C   0  0  0  0  0  0  0  0  0  0  0  0
   48.3921    8.1677   17.7452 C   0  0  0  0  0  0  0  0  0  0  0  0
   48.1942    7.5061   23.4744 C   0  0  0  0  0  0  0  0  0  0  0  0
   49.2551   10.3756   19.1787 C   0  0  0  0  0  0  0  0  0  0  0  0
   50.6680    4.4211   17.9229 C   0  0  0  0  0  0  0  0  0  0  0  0
   52.8637    4.3245   21.5492 C   0  0  0  0  0  0  0  0  0  0  0  0
   53.1431    6.1798   20.0576 C   0  0  0  0  0  0  0  0  0  0  0  0
   48.6307    9.3752   17.0852 C   0  0  0  0  0  0  0  0  0  0  0  0
   47.1302    5.3944   23.0660 C   0  0  0  0  0  0  0  0  0  0  0  0
   47.5537    6.3691   23.9564 C   0  0  0  0  0  0  0  0  0  0  0  0
   49.0742   10.4816   17.8009 C   0  0  0  0  0  0  0  0  0  0  0  0
   48.5280    6.7851   20.1942 N   0  0  0  0  0  0  0  0  0  0  0  0
   47.7954    9.5582   21.4769 S   0  0  0  0  0  0  0  0  0  0  0  0
   48.3056    7.8672   19.2953 C   0  0  0  0  0  0  0  0  0  0  0  0
   48.0829    6.7563   21.5406 C   0  0  0  0  0  0  0  0  0  0  0  0
   47.9423    9.1512   19.7478 C   0  0  0  0  0  0  0  0  0  0  0  0
   47.7032    7.9334   22.2156 C   0  0  0  0  0  0  0  0  0  0  0  0
   49.5955    5.8233   19.8135 C   0  0  0  0  0  0  0  0  0  0  0  0
   50.9992    6.4748   19.7864 C   0  0  2  0  0  0  0  0  0  0  0  0
   51.9538    5.6656   18.8769 C   0  0  0  0  0  0  0  0  0  0  0  0
   52.0504    4.2449   19.2537 N   0  0  0  0  0  0  0  0  0  0  0  0
   47.9354    5.5413   22.2436 C   0  0  0  0  0  0  0  0  0  0  0  0
   48.4041    7.6861   17.8995 C   0  0  0  0  0  0  0  0  0  0  0  0
   47.2550    7.8850   23.5466 C   0  0  0  0  0  0  0  0  0  0  0  0
   47.7277   10.2002   18.8344 C   0  0  0  0  0  0  0  0  0  0  0  0
   51.5531    6.6603   21.2017 C   0  0  0  0  0  0  0  0  0  0  0  0
   51.9358    3.3765   18.0773 C   0  0  0  0  0  0  0  0  0  0  0  0
   53.3073    3.9606   19.9535 C   0  0  0  0  0  0  0  0  0  0  0  0
   48.1941    8.7315   16.9958 C   0  0  0  0  0  0  0  0  0  0  0  0
   47.4872    5.5010   23.5690 C   0  0  0  0  0  0  0  0  0  0  0  0
   47.1520    6.6729   24.2250 C   0  0  0  0  0  0  0  0  0  0  0  0
   47.8553    9.9902   17.4627 C   0  0  0  0  0  0  0  0  0  0  0  0
   47.4924    6.2558   20.3118 O   0  0  0  0  0  0  0  0  0  0  0  0
   47.5939    7.4300   18.4125 O   0  0  0  0  0  0  0  0  0  0  0  0
   50.7634    4.6525   22.0132 O   0  0  0  0  0  0  0  0  0  0  0  0
   51.2869    6.8214   22.1178 O   0  0  0  0  0  0  0  0  0  0  0  0
   50.2921    7.9821   18.7304 O   0  0  0  0  0  0  0  0  0  0  0  0
   51.4710    5.7847   19.1308 O   0  0  0  0  0  0  0  0  0  0  0  0
   48.1614    6.9819   19.3964 C   0  0  0  0  0  0  0  0  0  0  0  0
   49.6131    7.2483   19.7689 C   0  0  1  0  0  0  0  0  0  0  0  0
   50.3597    5.9270   20.0240 C   0  0  2  0  0  0  0  0  0  0  0  0
   50.8396    5.8898   21.4668 C   0  0  0  0  0  0  0  0  0  0  0  0
   48.3305    5.5354   18.0822 H   0  0  0  0  0  0  0  0  0  0  0  0
   48.4085    4.6546   19.5510 H   0  0  0  0  0  0  0  0  0  0  0  0
   50.7100    6.4457   18.6088 H   0  0  0  0  0  0  0  0  0  0  0  0
   50.4697    4.2415   20.7086 H   0  0  0  0  0  0  0  0  0  0  0  0
   50.7406    5.9478   21.0662 H   0  0  0  0  0  0  0  0  0  0  0  0
   46.9591    4.7972   21.0252 H   0  0  0  0  0  0  0  0  0  0  0  0
   48.0157    7.3428   17.1487 H   0  0  0  0  0  0  0  0  0  0  0  0
   48.5140    8.2740   24.1786 H   0  0  0  0  0  0  0  0  0  0  0  0
   49.5913   11.2496   19.7307 H   0  0  0  0  0  0  0  0  0  0  0  0
   50.1929    4.6471   16.9631 H   0  0  0  0  0  0  0  0  0  0  0  0
   50.3374    3.4299   18.2447 H   0  0  0  0  0  0  0  0  0  0  0  0
   51.7429    4.3841   17.7319 H   0  0  0  0  0  0  0  0  0  0  0  0
   53.9362    4.1098   21.5230 H   0  0  0  0  0  0  0  0  0  0  0  0
   52.3627    3.3666   21.7131 H   0  0  0  0  0  0  0  0  0  0  0  0
   52.6614    4.9637   22.4149 H   0  0  0  0  0  0  0  0  0  0  0  0
   52.8678    6.6243   19.0986 H   0  0  0  0  0  0  0  0  0  0  0  0
   54.2242    5.9961   20.0025 H   0  0  0  0  0  0  0  0  0  0  0  0
   52.9623    6.9174   20.8472 H   0  0  0  0  0  0  0  0  0  0  0  0
   48.4692    9.4495   16.0131 H   0  0  0  0  0  0  0  0  0  0  0  0
   46.6013    4.5164   23.4246 H   0  0  0  0  0  0  0  0  0  0  0  0
   47.3582    6.2628   25.0188 H   0  0  0  0  0  0  0  0  0  0  0  0
   49.2689   11.4212   17.2903 H   0  0  0  0  0  0  0  0  0  0  0  0
   49.6366    4.9525   20.4738 H   0  0  0  0  0  0  0  0  0  0  0  0
   49.3545    5.3834   18.8408 H   0  0  0  0  0  0  0  0  0  0  0  0
   50.9393    7.4766   19.3404 H   0  0  0  0  0  0  0  0  0  0  0  0
   52.9416    6.1424   18.8548 H   0  0  0  0  0  0  0  0  0  0  0  0
   51.5739    5.7607   17.8504 H   0  0  0  0  0  0  0  0  0  0  0  0
   48.1235    4.5889   21.7548 H   0  0  0  0  0  0  0  0  0  0  0  0
   48.6204    6.7108   17.4742 H   0  0  0  0  0  0  0  0  0  0  0  0
   46.9777    8.7989   24.0659 H   0  0  0  0  0  0  0  0  0  0  0  0
   47.4559   11.1902   19.1924 H   0  0  0  0  0  0  0  0  0  0  0  0
   50.9457    7.3718   21.7687 H   0  0  0  0  0  0  0  0  0  0  0  0
   51.5743    5.7183   21.7589 H   0  0  0  0  0  0  0  0  0  0  0  0
   52.5727    7.0572   21.1668 H   0  0  0  0  0  0  0  0  0  0  0  0
   50.9612    3.5108   17.5954 H   0  0  0  0  0  0  0  0  0  0  0  0
   51.9961    2.3208   18.3643 H   0  0  0  0  0  0  0  0  0  0  0  0
   52.7202    3.5790   17.3354 H   0  0  0  0  0  0  0  0  0  0  0  0
   53.3169    2.9230   20.3109 H   0  0  0  0  0  0  0  0  0  0  0  0
   53.4252    4.5973   20.8359 H   0  0  0  0  0  0  0  0  0  0  0  0
   54.1822    4.1040   19.3039 H   0  0  0  0  0  0  0  0  0  0  0  0
   48.2785    8.5492   15.9255 H   0  0  0  0  0  0  0  0  0  0  0  0
   47.3869    4.5429   24.0764 H   0  0  0  0  0  0  0  0  0  0  0  0
   46.8038    6.6493   25.2537 H   0  0  0  0  0  0  0  0  0  0  0  0
   47.6859   10.8057   16.7678 H   0  0  0  0  0  0  0  0  0  0  0  0
   46.5763    6.1897   19.9608 H   0  0  0  0  0  0  0  0  0  0  0  0
   51.1711    4.7566   22.8987 H   0  0  0  0  0  0  0  0  0  0  0  0
   49.6145    8.5488   18.3004 H   0  0  0  0  0  0  0  0  0  0  0  0
   51.6818    6.6968   18.8344 H   0  0  0  0  0  0  0  0  0  0  0  0
   49.5832    7.9069   20.6422 H   0  0  0  0  0  0  0  0  0  0  0  0
   49.7088    5.0567   19.8684 H   0  0  0  0  0  0  0  0  0  0  0  0
 10  9  1  0
 11  4  2  0
 12  3  2  0
 13  6  2  0
 14  5  2  0
 15  8  1  0
 16 10  1  0
 17 10  1  0
 18 12  1  0
 19 11  1  0
 20 19  2  0
 21 18  2  0
  5  2  1  0
 13 20  1  0
 14 21  1  0
  2  6  1  0
  3  1  1  0
  4  1  1  0
  5  3  1  0
  6  4  1  0
  7  1  1  0
  8  7  1  0
  9  8  1  0
 31 30  1  0
 32 25  2  0
 33 24  2  0
 34 27  2  0
 35 26  2  0
 36 29  1  0
 37 31  1  0
 38 31  1  0
 39 33  1  0
 40 32  1  0
 41 40  2  0
 42 39  2  0
 26 23  1  0
 34 41  1  0
 35 42  1  0
 23 27  1  0
 24 22  1  0
 25 22  1  0
 26 24  1  0
 27 25  1  0
 28 22  1  0
 29 28  1  0
 30 29  1  0
 49 44  2  0
 50 47  1  0
 51 48  1  0
 49 43  1  0
 51 52  1  0
 50 51  1  0
 52 45  1  0
 49 50  1  0
 52 46  2  0
  7 53  1  0
  7 54  1  0
  8 55  1  6
  9 56  1  0
  9 57  1  0
 11 58  1  0
 12 59  1  0
 13 60  1  0
 14 61  1  0
 15 62  1  0
 15 63  1  0
 15 64  1  0
 16 65  1  0
 16 66  1  0
 16 67  1  0
 17 68  1  0
 17 69  1  0
 17 70  1  0
 18 71  1  0
 19 72  1  0
 20 73  1  0
 21 74  1  0
 28 75  1  0
 28 76  1  0
 29 77  1  6
 30 78  1  0
 30 79  1  0
 32 80  1  0
 33 81  1  0
 34 82  1  0
 35 83  1  0
 36 84  1  0
 36 85  1  0
 36 86  1  0
 37 87  1  0
 37 88  1  0
 37 89  1  0
 38 90  1  0
 38 91  1  0
 38 92  1  0
 39 93  1  0
 40 94  1  0
 41 95  1  0
 42 96  1  0
 43 97  1  0
 45 98  1  0
 47 99  1  0
 48100  1  0
 50101  1  6
 51102  1  1
M  END
> <Uni-Dock RESULT> 
ENERGY=   -6.389  LOWER_BOUND=    2.422  UPPER_BOUND=    4.649
INTER + INTRA:          -6.389
INTER:                  -6.389
INTRA:                   0.000
UNBOUND:                 0.000

$$$$

     RDKit          3D

102105  0  0  0  0  0  0  0  0999 V2000
   49.8470    4.9132   20.7122 N   0  0  0  0  0  0  0  0  0  0  0  0
   51.7254    5.3170   18.2318 S   0  0  0  0  0  0  0  0  0  0  0  0
   51.2090    5.2104   20.9903 C   0  0  0  0  0  0  0  0  0  0  0  0
   49.3775    4.4013   19.4737 C   0  0  0  0  0  0  0  0  0  0  0  0
   52.1547    5.3807   19.9610 C   0  0  0  0  0  0  0  0  0  0  0  0
   50.1357    4.5072   18.2906 C   0  0  0  0  0  0  0  0  0  0  0  0
   48.8478    5.6120   21.5606 C   0  0  0  0  0  0  0  0  0  0  0  0
   48.8409    7.1491   21.3570 C   0  0  1  0  0  0  0  0  0  0  0  0
   48.2092    7.5249   19.9953 C   0  0  0  0  0  0  0  0  0  0  0  0
   48.0464    8.9794   19.7792 N   0  0  0  0  0  0  0  0  0  0  0  0
   48.1481    3.7129   19.3920 C   0  0  0  0  0  0  0  0  0  0  0  0
   51.6728    5.2944   22.3200 C   0  0  0  0  0  0  0  0  0  0  0  0
   49.6425    4.0015   17.0753 C   0  0  0  0  0  0  0  0  0  0  0  0
   53.4965    5.6649   20.2678 C   0  0  0  0  0  0  0  0  0  0  0  0
   48.0701    7.7903   22.5186 C   0  0  0  0  0  0  0  0  0  0  0  0
   47.1730    9.2104   18.6252 C   0  0  0  0  0  0  0  0  0  0  0  0
   49.3414    9.6299   19.5563 C   0  0  0  0  0  0  0  0  0  0  0  0
   53.0110    5.5603   22.6187 C   0  0  0  0  0  0  0  0  0  0  0  0
   47.6582    3.2204   18.1756 C   0  0  0  0  0  0  0  0  0  0  0  0
   48.4026    3.3734   17.0160 C   0  0  0  0  0  0  0  0  0  0  0  0
   53.9258    5.7572   21.5905 C   0  0  0  0  0  0  0  0  0  0  0  0
   49.7454    5.0480   20.2823 N   0  0  0  0  0  0  0  0  0  0  0  0
   52.1018    3.8448   18.5878 S   0  0  0  0  0  0  0  0  0  0  0  0
   51.0046    4.9225   20.9359 C   0  0  0  0  0  0  0  0  0  0  0  0
   49.3782    4.3447   19.1067 C   0  0  0  0  0  0  0  0  0  0  0  0
   52.1290    4.3704   20.2907 C   0  0  0  0  0  0  0  0  0  0  0  0
   50.3447    3.7406   18.2783 C   0  0  0  0  0  0  0  0  0  0  0  0
   48.9391    6.2463   20.6339 C   0  0  0  0  0  0  0  0  0  0  0  0
   49.6232    7.5678   20.2081 C   0  0  2  0  0  0  0  0  0  0  0  0
   49.0888    8.7498   21.0510 C   0  0  0  0  0  0  0  0  0  0  0  0
   47.6231    8.8858   20.9977 N   0  0  0  0  0  0  0  0  0  0  0  0
   48.0254    4.1598   18.7493 C   0  0  0  0  0  0  0  0  0  0  0  0
   51.1689    5.3149   22.2812 C   0  0  0  0  0  0  0  0  0  0  0  0
   49.9620    3.0390   17.1224 C   0  0  0  0  0  0  0  0  0  0  0  0
   53.3598    4.2581   20.9639 C   0  0  0  0  0  0  0  0  0  0  0  0
   49.4797    7.8077   18.7027 C   0  0  0  0  0  0  0  0  0  0  0  0
   47.0609    9.0831   22.3380 C   0  0  0  0  0  0  0  0  0  0  0  0
   47.2194    9.9950   20.1276 C   0  0  0  0  0  0  0  0  0  0  0  0
   52.3940    5.2055   22.9451 C   0  0  0  0  0  0  0  0  0  0  0  0
   47.6519    3.4585   17.5969 C   0  0  0  0  0  0  0  0  0  0  0  0
   48.6193    2.9021   16.7781 C   0  0  0  0  0  0  0  0  0  0  0  0
   53.4912    4.6764   22.2867 C   0  0  0  0  0  0  0  0  0  0  0  0
   49.1699    4.0575   20.5151 O   0  0  0  0  0  0  0  0  0  0  0  0
   50.7703    4.4420   22.0274 O   0  0  0  0  0  0  0  0  0  0  0  0
   47.3108    7.0399   18.5621 O   0  0  0  0  0  0  0  0  0  0  0  0
   49.4063    7.3500   17.8535 O   0  0  0  0  0  0  0  0  0  0  0  0
   51.3169    6.9656   21.0179 O   0  0  0  0  0  0  0  0  0  0  0  0
   49.1274    8.2176   20.8868 O   0  0  0  0  0  0  0  0  0  0  0  0
   50.1168    4.8347   21.0737 C   0  0  0  0  0  0  0  0  0  0  0  0
   50.3326    6.1545   20.3463 C   0  0  1  0  0  0  0  0  0  0  0  0
   49.0137    6.9411   20.2457 C   0  0  2  0  0  0  0  0  0  0  0  0
   48.6452    7.1218   18.7812 C   0  0  0  0  0  0  0  0  0  0  0  0
   49.0364    5.3844   22.6159 H   0  0  0  0  0  0  0  0  0  0  0  0
   47.8303    5.2376   21.4064 H   0  0  0  0  0  0  0  0  0  0  0  0
   49.8697    7.5253   21.3950 H   0  0  0  0  0  0  0  0  0  0  0  0
   47.2174    7.0502   19.9579 H   0  0  0  0  0  0  0  0  0  0  0  0
   48.7949    7.1011   19.1695 H   0  0  0  0  0  0  0  0  0  0  0  0
   47.5658    3.5141   20.2865 H   0  0  0  0  0  0  0  0  0  0  0  0
   51.0044    5.1156   23.1562 H   0  0  0  0  0  0  0  0  0  0  0  0
   50.2278    4.1081   16.1622 H   0  0  0  0  0  0  0  0  0  0  0  0
   54.2220    5.8093   19.4714 H   0  0  0  0  0  0  0  0  0  0  0  0
   48.5054    7.5013   23.4803 H   0  0  0  0  0  0  0  0  0  0  0  0
   47.0203    7.4849   22.5112 H   0  0  0  0  0  0  0  0  0  0  0  0
   48.1152    8.8809   22.4768 H   0  0  0  0  0  0  0  0  0  0  0  0
   47.0059   10.2801   18.4681 H   0  0  0  0  0  0  0  0  0  0  0  0
   46.1880    8.7678   18.7968 H   0  0  0  0  0  0  0  0  0  0  0  0
   47.5775    8.7855   17.7006 H   0  0  0  0  0  0  0  0  0  0  0  0
   49.9949    9.5177   20.4242 H   0  0  0  0  0  0  0  0  0  0  0  0
   49.2117   10.7114   19.4177 H   0  0  0  0  0  0  0  0  0  0  0  0
   49.8605    9.2333   18.6768 H   0  0  0  0  0  0  0  0  0  0  0  0
   53.3364    5.6125   23.6543 H   0  0  0  0  0  0  0  0  0  0  0  0
   46.7030    2.7046   18.1501 H   0  0  0  0  0  0  0  0  0  0  0  0
   48.0368    2.9774   16.0740 H   0  0  0  0  0  0  0  0  0  0  0  0
   54.9667    5.9723   21.8182 H   0  0  0  0  0  0  0  0  0  0  0  0
   47.9366    6.2255   20.1976 H   0  0  0  0  0  0  0  0  0  0  0  0
   48.7392    6.2436   21.7099 H   0  0  0  0  0  0  0  0  0  0  0  0
   50.7006    7.5162   20.4151 H   0  0  0  0  0  0  0  0  0  0  0  0
   49.5888    9.6787   20.7500 H   0  0  0  0  0  0  0  0  0  0  0  0
   49.4164    8.5780   22.0855 H   0  0  0  0  0  0  0  0  0  0  0  0
   47.2256    4.5207   19.3907 H   0  0  0  0  0  0  0  0  0  0  0  0
   50.3326    5.6925   22.8616 H   0  0  0  0  0  0  0  0  0  0  0  0
   50.7141    2.5879   16.4800 H   0  0  0  0  0  0  0  0  0  0  0  0
   54.2248    3.8386   20.4560 H   0  0  0  0  0  0  0  0  0  0  0  0
   50.0132    7.0418   18.1325 H   0  0  0  0  0  0  0  0  0  0  0  0
   48.4323    7.7942   18.3849 H   0  0  0  0  0  0  0  0  0  0  0  0
   49.9062    8.7770   18.4253 H   0  0  0  0  0  0  0  0  0  0  0  0
   47.2757    8.2178   22.9747 H   0  0  0  0  0  0  0  0  0  0  0  0
   45.9697    9.1715   22.2942 H   0  0  0  0  0  0  0  0  0  0  0  0
   47.4618    9.9813   22.8269 H   0  0  0  0  0  0  0  0  0  0  0  0
   46.1271   10.0184   20.0238 H   0  0  0  0  0  0  0  0  0  0  0  0
   47.6279    9.8796   19.1189 H   0  0  0  0  0  0  0  0  0  0  0  0
   47.5436   10.9680   20.5230 H   0  0  0  0  0  0  0  0  0  0  0  0
   52.4781    5.5186   23.9846 H   0  0  0  0  0  0  0  0  0  0  0  0
   46.5969    3.3378   17.3560 H   0  0  0  0  0  0  0  0  0  0  0  0
   48.3370    2.3569   15.8820 H   0  0  0  0  0  0  0  0  0  0  0  0
   54.4443    4.5835   22.7961 H   0  0  0  0  0  0  0  0  0  0  0  0
   49.1608    3.2396   21.0607 H   0  0  0  0  0  0  0  0  0  0  0  0
   47.2114    7.2507   17.6099 H   0  0  0  0  0  0  0  0  0  0  0  0
   51.9483    6.3439   21.4423 H   0  0  0  0  0  0  0  0  0  0  0  0
   50.0904    8.4075   20.9139 H   0  0  0  0  0  0  0  0  0  0  0  0
   50.7597    5.8947   19.3729 H   0  0  0  0  0  0  0  0  0  0  0  0
   48.1860    6.4094   20.7329 H   0  0  0  0  0  0  0  0  0  0  0  0
 10  9  1  0
 11  4  2  0
 12  3  2  0
 13  6  2  0
 14  5  2  0
 15  8  1  0
 16 10  1  0
 17 10  1  0
 18 12  1  0
 19 11  1  0
 20 19  2  0
 21 18  2  0
  5  2  1  0
 13 20  1  0
 14 21  1  0
  2  6  1  0
  3  1  1  0
  4  1  1  0
  5  3  1  0
  6  4  1  0
  7  1  1  0
  8  7  1  0
  9  8  1  0
 31 30  1  0
 32 25  2  0
 33 24  2  0
 34 27  2  0
 35 26  2  0
 36 29  1  0
 37 31  1  0
 38 31  1  0
 39 33  1  0
 40 32  1  0
 41 40  2  0
 42 39  2  0
 26 23  1  0
 34 41  1  0
 35 42  1  0
 23 27  1  0
 24 22  1  0
 25 22  1  0
 26 24  1  0
 27 25  1  0
 28 22  1  0
 29 28  1  0
 30 29  1  0
 49 44  2  0
 50 47  1  0
 51 48  1  0
 49 43  1  0
 51 52  1  0
 50 51  1  0
 52 45  1  0
 49 50  1  0
 52 46  2  0
  7 53  1  0
  7 54  1  0
  8 55  1  6
  9 56  1  0
  9 57  1  0
 11 58  1  0
 12 59  1  0
 13 60  1  0
 14 61  1  0
 15 62  1  0
 15 63  1  0
 15 64  1  0
 16 65  1  0
 16 66  1  0
 16 67  1  0
 17 68  1  0
 17 69  1  0
 17 70  1  0
 18 71  1  0
 19 72  1  0
 20 73  1  0
 21 74  1  0
 28 75  1  0
 28 76  1  0
 29 77  1  6
 30 78  1  0
 30 79  1  0
 32 80  1  0
 33 81  1  0
 34 82  1  0
 35 83  1  0
 36 84  1  0
 36 85  1  0
 36 86  1  0
 37 87  1  0
 37 88  1  0
 37 89  1  0
 38 90  1  0
 38 91  1  0
 38 92  1  0
 39 93  1  0
 40 94  1  0
 41 95  1  0
 42 96  1  0
 43 97  1  0
 45 98  1  0
 47 99  1  0
 48100  1  0
 50101  1  6
 51102  1  1
M  END
> <Uni-Dock RESULT> 
ENERGY=   -6.238  LOWER_BOUND=    2.260  UPPER_BOUND=    4.122
INTER + INTRA:          -6.238
INTER:                  -6.238
INTRA:                   0.000
UNBOUND:                 0.000

$$$$

     RDKit          3D

102105  0  0  0  0  0  0  0  0999 V2000
   48.7715    5.7974   18.4728 N   0  0  0  0  0  0  0  0  0  0  0  0
   49.6985    8.6200   19.4816 S   0  0  0  0  0  0  0  0  0  0  0  0
   49.0587    6.7654   17.4721 C   0  0  0  0  0  0  0  0  0  0  0  0
   48.4849    6.1098   19.8280 C   0  0  0  0  0  0  0  0  0  0  0  0
   49.4518    8.0767   17.8017 C   0  0  0  0  0  0  0  0  0  0  0  0
   48.8371    7.3510   20.3949 C   0  0  0  0  0  0  0  0  0  0  0  0
   49.2637    4.4225   18.2007 C   0  0  0  0  0  0  0  0  0  0  0  0
   50.8105    4.3238   18.1584 C   0  0  1  0  0  0  0  0  0  0  0  0
   51.4127    4.4485   19.5784 C   0  0  0  0  0  0  0  0  0  0  0  0
   52.8753    4.2354   19.6415 N   0  0  0  0  0  0  0  0  0  0  0  0
   47.7816    5.2025   20.6491 C   0  0  0  0  0  0  0  0  0  0  0  0
   48.9079    6.4561   16.1039 C   0  0  0  0  0  0  0  0  0  0  0  0
   48.5514    7.6304   21.7425 C   0  0  0  0  0  0  0  0  0  0  0  0
   49.7200    9.0144   16.7896 C   0  0  0  0  0  0  0  0  0  0  0  0
   51.1952    2.9867   17.5114 C   0  0  0  0  0  0  0  0  0  0  0  0
   53.2880    4.0667   21.0376 C   0  0  0  0  0  0  0  0  0  0  0  0
   53.6008    5.3611   19.0447 C   0  0  0  0  0  0  0  0  0  0  0  0
   49.1596    7.3972   15.1031 C   0  0  0  0  0  0  0  0  0  0  0  0
   47.5091    5.4837   21.9939 C   0  0  0  0  0  0  0  0  0  0  0  0
   47.9027    6.6949   22.5420 C   0  0  0  0  0  0  0  0  0  0  0  0
   49.5776    8.6785   15.4445 C   0  0  0  0  0  0  0  0  0  0  0  0
   48.9810    5.9173   18.8665 N   0  0  0  0  0  0  0  0  0  0  0  0
   48.1998    8.9433   19.1904 S   0  0  0  0  0  0  0  0  0  0  0  0
   48.7791    6.6581   17.6670 C   0  0  0  0  0  0  0  0  0  0  0  0
   48.4982    6.3083   20.1416 C   0  0  0  0  0  0  0  0  0  0  0  0
   48.3973    8.0143   17.6822 C   0  0  0  0  0  0  0  0  0  0  0  0
   48.0942    7.6329   20.4012 C   0  0  0  0  0  0  0  0  0  0  0  0
   50.0632    4.8988   18.8357 C   0  0  0  0  0  0  0  0  0  0  0  0
   51.4642    5.5272   18.6401 C   0  0  2  0  0  0  0  0  0  0  0  0
   52.4477    4.4854   18.0566 C   0  0  0  0  0  0  0  0  0  0  0  0
   52.5402    3.2572   18.8645 N   0  0  0  0  0  0  0  0  0  0  0  0
   48.3365    5.3748   21.1878 C   0  0  0  0  0  0  0  0  0  0  0  0
   48.9178    6.0478   16.4024 C   0  0  0  0  0  0  0  0  0  0  0  0
   47.6088    8.0003   21.6677 C   0  0  0  0  0  0  0  0  0  0  0  0
   48.2037    8.7192   16.4795 C   0  0  0  0  0  0  0  0  0  0  0  0
   51.9770    6.1564   19.9384 C   0  0  0  0  0  0  0  0  0  0  0  0
   52.4629    2.0609   18.0194 C   0  0  0  0  0  0  0  0  0  0  0  0
   53.7781    3.2245   19.6499 C   0  0  0  0  0  0  0  0  0  0  0  0
   48.7286    6.7523   15.2102 C   0  0  0  0  0  0  0  0  0  0  0  0
   47.8512    5.7480   22.4465 C   0  0  0  0  0  0  0  0  0  0  0  0
   47.4923    7.0624   22.6909 C   0  0  0  0  0  0  0  0  0  0  0  0
   48.3710    8.0894   15.2477 C   0  0  0  0  0  0  0  0  0  0  0  0
   47.9449    5.4383   19.1187 O   0  0  0  0  0  0  0  0  0  0  0  0
   48.0946    5.9556   16.9493 O   0  0  0  0  0  0  0  0  0  0  0  0
   51.1740    4.4962   21.3212 O   0  0  0  0  0  0  0  0  0  0  0  0
   51.6842    6.5944   20.7499 O   0  0  0  0  0  0  0  0  0  0  0  0
   50.7802    6.6155   17.1452 O   0  0  0  0  0  0  0  0  0  0  0  0
   51.9575    4.6720   18.2477 O   0  0  0  0  0  0  0  0  0  0  0  0
   48.6361    5.8478   18.0383 C   0  0  0  0  0  0  0  0  0  0  0  0
   50.0756    6.2373   18.3445 C   0  0  1  0  0  0  0  0  0  0  0  0
   50.8207    5.0737   19.0221 C   0  0  2  0  0  0  0  0  0  0  0  0
   51.2598    5.4992   20.4147 C   0  0  0  0  0  0  0  0  0  0  0  0
   48.8490    4.0634   17.2519 H   0  0  0  0  0  0  0  0  0  0  0  0
   48.8895    3.6913   18.9250 H   0  0  0  0  0  0  0  0  0  0  0  0
   51.2085    5.1247   17.5248 H   0  0  0  0  0  0  0  0  0  0  0  0
   50.9191    3.6913   20.2057 H   0  0  0  0  0  0  0  0  0  0  0  0
   51.1719    5.4268   20.0138 H   0  0  0  0  0  0  0  0  0  0  0  0
   47.3984    4.2718   20.2419 H   0  0  0  0  0  0  0  0  0  0  0  0
   48.5523    5.4803   15.7885 H   0  0  0  0  0  0  0  0  0  0  0  0
   48.8476    8.5852   22.1765 H   0  0  0  0  0  0  0  0  0  0  0  0
   50.0364   10.0221   17.0462 H   0  0  0  0  0  0  0  0  0  0  0  0
   50.7463    2.8926   16.5176 H   0  0  0  0  0  0  0  0  0  0  0  0
   50.8602    2.1431   18.1208 H   0  0  0  0  0  0  0  0  0  0  0  0
   52.2752    2.9057   17.3691 H   0  0  0  0  0  0  0  0  0  0  0  0
   54.3617    3.8689   21.1077 H   0  0  0  0  0  0  0  0  0  0  0  0
   52.7870    3.2025   21.4824 H   0  0  0  0  0  0  0  0  0  0  0  0
   53.0583    4.9433   21.6523 H   0  0  0  0  0  0  0  0  0  0  0  0
   53.3507    5.4772   17.9879 H   0  0  0  0  0  0  0  0  0  0  0  0
   54.6839    5.1838   19.0778 H   0  0  0  0  0  0  0  0  0  0  0  0
   53.3945    6.3075   19.5567 H   0  0  0  0  0  0  0  0  0  0  0  0
   49.0280    7.1278   14.0586 H   0  0  0  0  0  0  0  0  0  0  0  0
   46.9743    4.7565   22.5975 H   0  0  0  0  0  0  0  0  0  0  0  0
   47.6779    6.9261   23.5784 H   0  0  0  0  0  0  0  0  0  0  0  0
   49.7823    9.4119   14.6689 H   0  0  0  0  0  0  0  0  0  0  0  0
   50.0896    4.2810   19.7376 H   0  0  0  0  0  0  0  0  0  0  0  0
   49.8519    4.1717   18.0455 H   0  0  0  0  0  0  0  0  0  0  0  0
   51.4123    6.3366   17.8996 H   0  0  0  0  0  0  0  0  0  0  0  0
   53.4335    4.9440   17.9104 H   0  0  0  0  0  0  0  0  0  0  0  0
   52.0966    4.2473   17.0433 H   0  0  0  0  0  0  0  0  0  0  0  0
   48.5427    4.3195   21.0292 H   0  0  0  0  0  0  0  0  0  0  0  0
   49.1505    4.9911   16.3119 H   0  0  0  0  0  0  0  0  0  0  0  0
   47.3128    9.0275   21.8652 H   0  0  0  0  0  0  0  0  0  0  0  0
   47.9173    9.7679   16.5001 H   0  0  0  0  0  0  0  0  0  0  0  0
   51.3506    7.0021   20.2365 H   0  0  0  0  0  0  0  0  0  0  0  0
   51.9868    5.4383   20.7644 H   0  0  0  0  0  0  0  0  0  0  0  0
   52.9953    6.5356   19.8059 H   0  0  0  0  0  0  0  0  0  0  0  0
   51.5017    2.0236   17.4952 H   0  0  0  0  0  0  0  0  0  0  0  0
   52.5199    1.1503   18.6260 H   0  0  0  0  0  0  0  0  0  0  0  0
   53.2670    2.0298   17.2716 H   0  0  0  0  0  0  0  0  0  0  0  0
   53.7824    2.3525   20.3163 H   0  0  0  0  0  0  0  0  0  0  0  0
   53.8682    4.1082   20.2892 H   0  0  0  0  0  0  0  0  0  0  0  0
   54.6704    3.1675   19.0106 H   0  0  0  0  0  0  0  0  0  0  0  0
   48.8440    6.2433   14.2545 H   0  0  0  0  0  0  0  0  0  0  0  0
   47.7411    4.9974   23.2274 H   0  0  0  0  0  0  0  0  0  0  0  0
   47.1152    7.3595   23.6653 H   0  0  0  0  0  0  0  0  0  0  0  0
   48.2175    8.6422   14.3271 H   0  0  0  0  0  0  0  0  0  0  0  0
   47.0394    5.2529   18.7834 H   0  0  0  0  0  0  0  0  0  0  0  0
   51.5559    4.8793   22.1387 H   0  0  0  0  0  0  0  0  0  0  0  0
   50.1124    7.0089   16.5414 H   0  0  0  0  0  0  0  0  0  0  0  0
   52.1724    5.4470   17.6844 H   0  0  0  0  0  0  0  0  0  0  0  0
   50.0180    7.1370   18.9646 H   0  0  0  0  0  0  0  0  0  0  0  0
   50.1785    4.1901   19.1323 H   0  0  0  0  0  0  0  0  0  0  0  0
 10  9  1  0
 11  4  2  0
 12  3  2  0
 13  6  2  0
 14  5  2  0
 15  8  1  0
 16 10  1  0
 17 10  1  0
 18 12  1  0
 19 11  1  0
 20 19  2  0
 21 18  2  0
  5  2  1  0
 13 20  1  0
 14 21  1  0
  2  6  1  0
  3  1  1  0
  4  1  1  0
  5  3  1  0
  6  4  1  0
  7  1  1  0
  8  7  1  0
  9  8  1  0
 31 30  1  0
 32 25  2  0
 33 24  2  0
 34 27  2  0
 35 26  2  0
 36 29  1  0
 37 31  1  0
 38 31  1  0
 39 33  1  0
 40 32  1  0
 41 40  2  0
 42 39  2  0
 26 23  1  0
 34 41  1  0
 35 42  1  0
 23 27  1  0
 24 22  1  0
 25 22  1  0
 26 24  1  0
 27 25  1  0
 28 22  1  0
 29 28  1  0
 30 29  1  0
 49 44  2  0
 50 47  1  0
 51 48  1  0
 49 43  1  0
 51 52  1  0
 50 51  1  0
 52 45  1  0
 49 50  1  0
 52 46  2  0
  7 53  1  0
  7 54  1  0
  8 55  1  6
  9 56  1  0
  9 57  1  0
 11 58  1  0
 12 59  1  0
 13 60  1  0
 14 61  1  0
 15 62  1  0
 15 63  1  0
 15 64  1  0
 16 65  1  0
 16 66  1  0
 16 67  1  0
 17 68  1  0
 17 69  1  0
 17 70  1  0
 18 71  1  0
 19 72  1  0
 20 73  1  0
 21 74  1  0
 28 75  1  0
 28 76  1  0
 29 77  1  6
 30 78  1  0
 30 79  1  0
 32 80  1  0
 33 81  1  0
 34 82  1  0
 35 83  1  0
 36 84  1  0
 36 85  1  0
 36 86  1  0
 37 87  1  0
 37 88  1  0
 37 89  1  0
 38 90  1  0
 38 91  1  0
 38 92  1  0
 39 93  1  0
 40 94  1  0
 41 95  1  0
 42 96  1  0
 43 97  1  0
 45 98  1  0
 47 99  1  0
 48100  1  0
 50101  1  6
 51102  1  1
M  END
> <Uni-Dock RESULT> 
ENERGY=   -6.172  LOWER_BOUND=    2.030  UPPER_BOUND=    3.902
INTER + INTRA:          -6.172
INTER:                  -6.172
INTRA:                   0.000
UNBOUND:                 0.000

$$$$

     RDKit          3D

102105  0  0  0  0  0  0  0  0999 V2000
   50.1725    4.6742   18.8875 N   0  0  0  0  0  0  0  0  0  0  0  0
   52.0057    6.2113   20.9175 S   0  0  0  0  0  0  0  0  0  0  0  0
   49.5106    5.4104   19.9076 C   0  0  0  0  0  0  0  0  0  0  0  0
   51.5291    4.2597   18.9534 C   0  0  0  0  0  0  0  0  0  0  0  0
   50.2257    6.1140   20.8957 C   0  0  0  0  0  0  0  0  0  0  0  0
   52.4480    4.8619   19.8359 C   0  0  0  0  0  0  0  0  0  0  0  0
   49.5756    4.7714   17.5307 C   0  0  0  0  0  0  0  0  0  0  0  0
   49.6493    6.1994   16.9311 C   0  0  1  0  0  0  0  0  0  0  0  0
   51.0969    6.5505   16.5121 C   0  0  0  0  0  0  0  0  0  0  0  0
   51.2318    7.8466   15.8117 N   0  0  0  0  0  0  0  0  0  0  0  0
   51.9981    3.1833   18.1702 C   0  0  0  0  0  0  0  0  0  0  0  0
   48.1025    5.4181   19.9945 C   0  0  0  0  0  0  0  0  0  0  0  0
   53.7883    4.4398   19.8731 C   0  0  0  0  0  0  0  0  0  0  0  0
   49.5427    6.8253   21.8971 C   0  0  0  0  0  0  0  0  0  0  0  0
   48.6945    6.2735   15.7323 C   0  0  0  0  0  0  0  0  0  0  0  0
   52.5579    7.9363   15.1941 C   0  0  0  0  0  0  0  0  0  0  0  0
   51.0400    8.9698   16.7345 C   0  0  0  0  0  0  0  0  0  0  0  0
   47.4297    6.1130   21.0020 C   0  0  0  0  0  0  0  0  0  0  0  0
   53.3374    2.7745   18.2052 C   0  0  0  0  0  0  0  0  0  0  0  0
   54.2338    3.4099   19.0508 C   0  0  0  0  0  0  0  0  0  0  0  0
   48.1501    6.8288   21.9516 C   0  0  0  0  0  0  0  0  0  0  0  0
   50.6016    4.8370   18.8349 N   0  0  0  0  0  0  0  0  0  0  0  0
   51.6800    4.9546   21.7837 S   0  0  0  0  0  0  0  0  0  0  0  0
   49.6416    5.0817   19.8581 C   0  0  0  0  0  0  0  0  0  0  0  0
   51.8854    4.2763   19.0570 C   0  0  0  0  0  0  0  0  0  0  0  0
   49.9977    5.1278   21.2207 C   0  0  0  0  0  0  0  0  0  0  0  0
   52.4644    4.2488   20.3412 C   0  0  0  0  0  0  0  0  0  0  0  0
   50.3883    5.5516   17.5491 C   0  0  0  0  0  0  0  0  0  0  0  0
   50.5038    7.0880   17.6978 C   0  0  2  0  0  0  0  0  0  0  0  0
   49.7465    7.8008   16.5525 C   0  0  0  0  0  0  0  0  0  0  0  0
   50.1866    7.3765   15.2124 N   0  0  0  0  0  0  0  0  0  0  0  0
   52.6119    3.6600   18.0156 C   0  0  0  0  0  0  0  0  0  0  0  0
   48.2755    5.2522   19.5490 C   0  0  0  0  0  0  0  0  0  0  0  0
   53.7332    3.6802   20.5446 C   0  0  0  0  0  0  0  0  0  0  0  0
   49.0256    5.3701   22.2090 C   0  0  0  0  0  0  0  0  0  0  0  0
   51.9669    7.5280   17.7976 C   0  0  0  0  0  0  0  0  0  0  0  0
   49.0392    7.0947   14.3433 C   0  0  0  0  0  0  0  0  0  0  0  0
   51.0418    8.3885   14.5840 C   0  0  0  0  0  0  0  0  0  0  0  0
   47.3136    5.4967   20.5332 C   0  0  0  0  0  0  0  0  0  0  0  0
   53.8749    3.0946   18.2262 C   0  0  0  0  0  0  0  0  0  0  0  0
   54.4406    3.1089   19.4895 C   0  0  0  0  0  0  0  0  0  0  0  0
   47.6880    5.5557   21.8649 C   0  0  0  0  0  0  0  0  0  0  0  0
   50.6150    3.6775   18.6869 O   0  0  0  0  0  0  0  0  0  0  0  0
   48.6976    4.3562   19.6139 O   0  0  0  0  0  0  0  0  0  0  0  0
   52.7550    6.0331   16.2299 O   0  0  0  0  0  0  0  0  0  0  0  0
   52.8378    7.2415   18.1067 O   0  0  0  0  0  0  0  0  0  0  0  0
   49.3137    7.0372   19.2688 O   0  0  0  0  0  0  0  0  0  0  0  0
   49.9362    7.3633   16.8430 O   0  0  0  0  0  0  0  0  0  0  0  0
   49.7587    4.6392   19.0802 C   0  0  0  0  0  0  0  0  0  0  0  0
   50.2912    6.0513   18.8810 C   0  0  1  0  0  0  0  0  0  0  0  0
   50.6843    6.2813   17.4110 C   0  0  2  0  0  0  0  0  0  0  0  0
   52.1744    6.5745   17.3277 C   0  0  0  0  0  0  0  0  0  0  0  0
   48.5307    4.4426   17.5632 H   0  0  0  0  0  0  0  0  0  0  0  0
   50.0311    4.0735   16.8203 H   0  0  0  0  0  0  0  0  0  0  0  0
   49.3021    6.9246   17.6760 H   0  0  0  0  0  0  0  0  0  0  0  0
   51.4415    5.7499   15.8407 H   0  0  0  0  0  0  0  0  0  0  0  0
   51.7629    6.5411   17.3845 H   0  0  0  0  0  0  0  0  0  0  0  0
   51.3153    2.6170   17.5442 H   0  0  0  0  0  0  0  0  0  0  0  0
   47.4975    4.8479   19.2967 H   0  0  0  0  0  0  0  0  0  0  0  0
   54.4955    4.9271   20.5440 H   0  0  0  0  0  0  0  0  0  0  0  0
   50.0968    7.3788   22.6509 H   0  0  0  0  0  0  0  0  0  0  0  0
   47.6769    6.0001   16.0284 H   0  0  0  0  0  0  0  0  0  0  0  0
   49.0124    5.5988   14.9328 H   0  0  0  0  0  0  0  0  0  0  0  0
   48.6347    7.2868   15.3288 H   0  0  0  0  0  0  0  0  0  0  0  0
   52.6682    8.8712   14.6367 H   0  0  0  0  0  0  0  0  0  0  0  0
   52.6976    7.1289   14.4700 H   0  0  0  0  0  0  0  0  0  0  0  0
   53.3681    7.8752   15.9282 H   0  0  0  0  0  0  0  0  0  0  0  0
   50.0387    8.9568   17.1705 H   0  0  0  0  0  0  0  0  0  0  0  0
   51.1214    9.9261   16.2013 H   0  0  0  0  0  0  0  0  0  0  0  0
   51.7735    8.9696   17.5484 H   0  0  0  0  0  0  0  0  0  0  0  0
   46.3439    6.0935   21.0435 H   0  0  0  0  0  0  0  0  0  0  0  0
   53.6638    1.9485   17.5805 H   0  0  0  0  0  0  0  0  0  0  0  0
   55.2685    3.0853   19.0961 H   0  0  0  0  0  0  0  0  0  0  0  0
   47.6306    7.3776   22.7328 H   0  0  0  0  0  0  0  0  0  0  0  0
   51.0817    5.2318   16.7664 H   0  0  0  0  0  0  0  0  0  0  0  0
   49.4114    5.2751   17.1404 H   0  0  0  0  0  0  0  0  0  0  0  0
   50.0156    7.4128   18.6264 H   0  0  0  0  0  0  0  0  0  0  0  0
   49.8241    8.8883   16.6742 H   0  0  0  0  0  0  0  0  0  0  0  0
   48.6792    7.5792   16.6890 H   0  0  0  0  0  0  0  0  0  0  0  0
   52.1861    3.5649   17.0202 H   0  0  0  0  0  0  0  0  0  0  0  0
   47.9168    5.1696   18.5275 H   0  0  0  0  0  0  0  0  0  0  0  0
   54.1802    3.6758   21.5356 H   0  0  0  0  0  0  0  0  0  0  0  0
   49.3102    5.4124   23.2576 H   0  0  0  0  0  0  0  0  0  0  0  0
   52.4295    7.1416   18.7104 H   0  0  0  0  0  0  0  0  0  0  0  0
   52.5584    7.1759   16.9465 H   0  0  0  0  0  0  0  0  0  0  0  0
   52.0387    8.6197   17.8326 H   0  0  0  0  0  0  0  0  0  0  0  0
   48.4396    6.2749   14.7540 H   0  0  0  0  0  0  0  0  0  0  0  0
   49.3717    6.7678   13.3517 H   0  0  0  0  0  0  0  0  0  0  0  0
   48.3890    7.9713   14.2190 H   0  0  0  0  0  0  0  0  0  0  0  0
   51.4374    8.0133   13.6315 H   0  0  0  0  0  0  0  0  0  0  0  0
   51.9068    8.6249   15.2115 H   0  0  0  0  0  0  0  0  0  0  0  0
   50.4962    9.3208   14.3812 H   0  0  0  0  0  0  0  0  0  0  0  0
   46.2689    5.6212   20.2523 H   0  0  0  0  0  0  0  0  0  0  0  0
   54.4032    2.6283   17.3962 H   0  0  0  0  0  0  0  0  0  0  0  0
   55.4205    2.6724   19.6603 H   0  0  0  0  0  0  0  0  0  0  0  0
   46.9470    5.7402   22.6353 H   0  0  0  0  0  0  0  0  0  0  0  0
   50.1600    2.8322   18.8998 H   0  0  0  0  0  0  0  0  0  0  0  0
   53.6781    6.3616   16.2610 H   0  0  0  0  0  0  0  0  0  0  0  0
   48.7845    6.6357   19.9927 H   0  0  0  0  0  0  0  0  0  0  0  0
   49.6323    7.8967   17.6093 H   0  0  0  0  0  0  0  0  0  0  0  0
   51.1288    6.1575   19.5771 H   0  0  0  0  0  0  0  0  0  0  0  0
   50.4857    5.3948   16.7945 H   0  0  0  0  0  0  0  0  0  0  0  0
 10  9  1  0
 11  4  2  0
 12  3  2  0
 13  6  2  0
 14  5  2  0
 15  8  1  0
 16 10  1  0
 17 10  1  0
 18 12  1  0
 19 11  1  0
 20 19  2  0
 21 18  2  0
  5  2  1  0
 13 20  1  0
 14 21  1  0
  2  6  1  0
  3  1  1  0
  4  1  1  0
  5  3  1  0
  6  4  1  0
  7  1  1  0
  8  7  1  0
  9  8  1  0
 31 30  1  0
 32 25  2  0
 33 24  2  0
 34 27  2  0
 35 26  2  0
 36 29  1  0
 37 31  1  0
 38 31  1  0
 39 33  1  0
 40 32  1  0
 41 40  2  0
 42 39  2  0
 26 23  1  0
 34 41  1  0
 35 42  1  0
 23 27  1  0
 24 22  1  0
 25 22  1  0
 26 24  1  0
 27 25  1  0
 28 22  1  0
 29 28  1  0
 30 29  1  0
 49 44  2  0
 50 47  1  0
 51 48  1  0
 49 43  1  0
 51 52  1  0
 50 51  1  0
 52 45  1  0
 49 50  1  0
 52 46  2  0
  7 53  1  0
  7 54  1  0
  8 55  1  6
  9 56  1  0
  9 57  1  0
 11 58  1  0
 12 59  1  0
 13 60  1  0
 14 61  1  0
 15 62  1  0
 15 63  1  0
 15 64  1  0
 16 65  1  0
 16 66  1  0
 16 67  1  0
 17 68  1  0
 17 69  1  0
 17 70  1  0
 18 71  1  0
 19 72  1  0
 20 73  1  0
 21 74  1  0
 28 75  1  0
 28 76  1  0
 29 77  1  6
 30 78  1  0
 30 79  1  0
 32 80  1  0
 33 81  1  0
 34 82  1  0
 35 83  1  0
 36 84  1  0
 36 85  1  0
 36 86  1  0
 37 87  1  0
 37 88  1  0
 37 89  1  0
 38 90  1  0
 38 91  1  0
 38 92  1  0
 39 93  1  0
 40 94  1  0
 41 95  1  0
 42 96  1  0
 43 97  1  0
 45 98  1  0
 47 99  1  0
 48100  1  0
 50101  1  6
 51102  1  1
M  END
> <Uni-Dock RESULT> 
ENERGY=   -6.124  LOWER_BOUND=    1.897  UPPER_BOUND=    5.575
INTER + INTRA:          -6.124
INTER:                  -6.124
INTRA:                   0.000
UNBOUND:                 0.000

$$$$

     RDKit          3D

102105  0  0  0  0  0  0  0  0999 V2000
   47.6461    8.7471   20.0149 N   0  0  0  0  0  0  0  0  0  0  0  0
   49.6966    9.4310   22.2890 S   0  0  0  0  0  0  0  0  0  0  0  0
   47.9015   10.1265   20.2443 C   0  0  0  0  0  0  0  0  0  0  0  0
   47.9132    7.7176   20.9558 C   0  0  0  0  0  0  0  0  0  0  0  0
   48.7772   10.5587   21.2588 C   0  0  0  0  0  0  0  0  0  0  0  0
   48.8038    7.9069   22.0314 C   0  0  0  0  0  0  0  0  0  0  0  0
   47.5595    8.3351   18.5904 C   0  0  0  0  0  0  0  0  0  0  0  0
   48.8975    8.4982   17.8241 C   0  0  1  0  0  0  0  0  0  0  0  0
   49.9192    7.4198   18.2574 C   0  0  0  0  0  0  0  0  0  0  0  0
   51.1781    7.4251   17.4803 N   0  0  0  0  0  0  0  0  0  0  0  0
   47.2492    6.4745   20.8798 C   0  0  0  0  0  0  0  0  0  0  0  0
   47.2403   11.1185   19.4899 C   0  0  0  0  0  0  0  0  0  0  0  0
   49.0589    6.8673   22.9424 C   0  0  0  0  0  0  0  0  0  0  0  0
   49.0023   11.9302   21.4675 C   0  0  0  0  0  0  0  0  0  0  0  0
   48.6100    8.4129   16.3193 C   0  0  0  0  0  0  0  0  0  0  0  0
   51.9287    6.1958   17.7515 C   0  0  0  0  0  0  0  0  0  0  0  0
   52.0022    8.5907   17.8149 C   0  0  0  0  0  0  0  0  0  0  0  0
   47.4553   12.4803   19.7132 C   0  0  0  0  0  0  0  0  0  0  0  0
   47.5157    5.4396   21.7854 C   0  0  0  0  0  0  0  0  0  0  0  0
   48.4278    5.6344   22.8112 C   0  0  0  0  0  0  0  0  0  0  0  0
   48.3472   12.8899   20.6979 C   0  0  0  0  0  0  0  0  0  0  0  0
   47.9948    8.4964   20.1848 N   0  0  0  0  0  0  0  0  0  0  0  0
   48.3696    9.6723   23.0742 S   0  0  0  0  0  0  0  0  0  0  0  0
   47.6779    9.8736   20.3613 C   0  0  0  0  0  0  0  0  0  0  0  0
   48.0868    7.5528   21.2398 C   0  0  0  0  0  0  0  0  0  0  0  0
   47.7770   10.5079   21.6156 C   0  0  0  0  0  0  0  0  0  0  0  0
   48.2322    7.9600   22.5808 C   0  0  0  0  0  0  0  0  0  0  0  0
   48.6256    8.1278   18.8902 C   0  0  0  0  0  0  0  0  0  0  0  0
   50.0189    8.7754   18.7033 C   0  0  2  0  0  0  0  0  0  0  0  0
   50.3815    8.8550   17.2015 C   0  0  0  0  0  0  0  0  0  0  0  0
   50.3217    7.5509   16.5193 N   0  0  0  0  0  0  0  0  0  0  0  0
   47.9689    6.1665   21.0026 C   0  0  0  0  0  0  0  0  0  0  0  0
   47.2111   10.6571   19.2846 C   0  0  0  0  0  0  0  0  0  0  0  0
   48.3116    7.0114   23.6145 C   0  0  0  0  0  0  0  0  0  0  0  0
   47.4551   11.8704   21.7586 C   0  0  0  0  0  0  0  0  0  0  0  0
   51.0848    8.0476   19.5271 C   0  0  0  0  0  0  0  0  0  0  0  0
   49.6045    7.6533   15.2440 C   0  0  0  0  0  0  0  0  0  0  0  0
   51.6632    7.0064   16.2860 C   0  0  0  0  0  0  0  0  0  0  0  0
   46.8962   12.0110   19.4298 C   0  0  0  0  0  0  0  0  0  0  0  0
   48.0478    5.2276   22.0377 C   0  0  0  0  0  0  0  0  0  0  0  0
   48.2254    5.6477   23.3446 C   0  0  0  0  0  0  0  0  0  0  0  0
   47.0177   12.6193   20.6677 C   0  0  0  0  0  0  0  0  0  0  0  0
   46.9933    7.9185   20.3566 O   0  0  0  0  0  0  0  0  0  0  0  0
   46.6162   10.0493   19.7964 O   0  0  0  0  0  0  0  0  0  0  0  0
   50.2651    5.9304   19.1285 O   0  0  0  0  0  0  0  0  0  0  0  0
   51.2171    7.5451   20.3432 O   0  0  0  0  0  0  0  0  0  0  0  0
   49.2905   10.5264   19.2423 O   0  0  0  0  0  0  0  0  0  0  0  0
   50.0627    8.7309   17.6428 O   0  0  0  0  0  0  0  0  0  0  0  0
   47.4057    9.1278   19.9319 C   0  0  0  0  0  0  0  0  0  0  0  0
   48.9133    9.2301   19.7477 C   0  0  1  0  0  0  0  0  0  0  0  0
   49.4172    8.1448   18.7798 C   0  0  2  0  0  0  0  0  0  0  0  0
   50.3812    7.2244   19.5125 C   0  0  0  0  0  0  0  0  0  0  0  0
   46.7772    8.9137   18.0861 H   0  0  0  0  0  0  0  0  0  0  0  0
   47.2161    7.3019   18.4719 H   0  0  0  0  0  0  0  0  0  0  0  0
   49.3129    9.4922   18.0258 H   0  0  0  0  0  0  0  0  0  0  0  0
   49.4304    6.4425   18.1293 H   0  0  0  0  0  0  0  0  0  0  0  0
   50.1541    7.5193   19.3249 H   0  0  0  0  0  0  0  0  0  0  0  0
   46.4805    6.3037   20.1324 H   0  0  0  0  0  0  0  0  0  0  0  0
   46.5104   10.8496   18.7329 H   0  0  0  0  0  0  0  0  0  0  0  0
   49.7659    7.0175   23.7580 H   0  0  0  0  0  0  0  0  0  0  0  0
   49.6891   12.2612   22.2423 H   0  0  0  0  0  0  0  0  0  0  0  0
   47.8682    9.1609   16.0224 H   0  0  0  0  0  0  0  0  0  0  0  0
   48.2296    7.4249   16.0461 H   0  0  0  0  0  0  0  0  0  0  0  0
   49.5051    8.6168   15.7274 H   0  0  0  0  0  0  0  0  0  0  0  0
   52.8470    6.1584   17.1580 H   0  0  0  0  0  0  0  0  0  0  0  0
   51.3419    5.3188   17.4648 H   0  0  0  0  0  0  0  0  0  0  0  0
   52.1968    6.0919   18.8080 H   0  0  0  0  0  0  0  0  0  0  0  0
   51.4860    9.5224   17.5735 H   0  0  0  0  0  0  0  0  0  0  0  0
   52.9238    8.5964   17.2183 H   0  0  0  0  0  0  0  0  0  0  0  0
   52.2815    8.6126   18.8741 H   0  0  0  0  0  0  0  0  0  0  0  0
   46.9251   13.2188   19.1177 H   0  0  0  0  0  0  0  0  0  0  0  0
   46.9923    4.4931   21.6892 H   0  0  0  0  0  0  0  0  0  0  0  0
   48.6245    4.8426   23.5270 H   0  0  0  0  0  0  0  0  0  0  0  0
   48.5238   13.9485   20.8699 H   0  0  0  0  0  0  0  0  0  0  0  0
   48.7322    7.0469   18.7632 H   0  0  0  0  0  0  0  0  0  0  0  0
   47.9564    8.4070   18.0705 H   0  0  0  0  0  0  0  0  0  0  0  0
   50.0015    9.8133   19.0619 H   0  0  0  0  0  0  0  0  0  0  0  0
   51.3646    9.3264   17.0796 H   0  0  0  0  0  0  0  0  0  0  0  0
   49.6747    9.5576   16.7392 H   0  0  0  0  0  0  0  0  0  0  0  0
   47.7646    5.7877   20.0045 H   0  0  0  0  0  0  0  0  0  0  0  0
   47.0514   10.2226   18.3025 H   0  0  0  0  0  0  0  0  0  0  0  0
   48.4386    7.3324   24.6454 H   0  0  0  0  0  0  0  0  0  0  0  0
   47.5423   12.3543   22.7284 H   0  0  0  0  0  0  0  0  0  0  0  0
   50.8895    8.1525   20.5983 H   0  0  0  0  0  0  0  0  0  0  0  0
   51.1207    6.9784   19.2955 H   0  0  0  0  0  0  0  0  0  0  0  0
   52.0757    8.4705   19.3334 H   0  0  0  0  0  0  0  0  0  0  0  0
   48.5694    7.9711   15.4110 H   0  0  0  0  0  0  0  0  0  0  0  0
   49.5522    6.6785   14.7464 H   0  0  0  0  0  0  0  0  0  0  0  0
   50.0800    8.3674   14.5579 H   0  0  0  0  0  0  0  0  0  0  0  0
   51.5949    5.9944   15.8671 H   0  0  0  0  0  0  0  0  0  0  0  0
   52.2271    6.9217   17.2201 H   0  0  0  0  0  0  0  0  0  0  0  0
   52.2431    7.6248   15.5865 H   0  0  0  0  0  0  0  0  0  0  0  0
   46.5376   12.5800   18.5734 H   0  0  0  0  0  0  0  0  0  0  0  0
   47.9519    4.1665   21.8131 H   0  0  0  0  0  0  0  0  0  0  0  0
   48.2879    4.9248   24.1530 H   0  0  0  0  0  0  0  0  0  0  0  0
   46.7708   13.6684   20.7900 H   0  0  0  0  0  0  0  0  0  0  0  0
   46.0195    8.0062   20.4603 H   0  0  0  0  0  0  0  0  0  0  0  0
   50.9849    5.4723   19.6112 H   0  0  0  0  0  0  0  0  0  0  0  0
   48.6313   11.1651   19.5928 H   0  0  0  0  0  0  0  0  0  0  0  0
   50.3280    9.6308   17.9325 H   0  0  0  0  0  0  0  0  0  0  0  0
   49.3444    9.1530   20.7504 H   0  0  0  0  0  0  0  0  0  0  0  0
   48.5935    7.5270   18.3987 H   0  0  0  0  0  0  0  0  0  0  0  0
 10  9  1  0
 11  4  2  0
 12  3  2  0
 13  6  2  0
 14  5  2  0
 15  8  1  0
 16 10  1  0
 17 10  1  0
 18 12  1  0
 19 11  1  0
 20 19  2  0
 21 18  2  0
  5  2  1  0
 13 20  1  0
 14 21  1  0
  2  6  1  0
  3  1  1  0
  4  1  1  0
  5  3  1  0
  6  4  1  0
  7  1  1  0
  8  7  1  0
  9  8  1  0
 31 30  1  0
 32 25  2  0
 33 24  2  0
 34 27  2  0
 35 26  2  0
 36 29  1  0
 37 31  1  0
 38 31  1  0
 39 33  1  0
 40 32  1  0
 41 40  2  0
 42 39  2  0
 26 23  1  0
 34 41  1  0
 35 42  1  0
 23 27  1  0
 24 22  1  0
 25 22  1  0
 26 24  1  0
 27 25  1  0
 28 22  1  0
 29 28  1  0
 30 29  1  0
 49 44  2  0
 50 47  1  0
 51 48  1  0
 49 43  1  0
 51 52  1  0
 50 51  1  0
 52 45  1  0
 49 50  1  0
 52 46  2  0
  7 53  1  0
  7 54  1  0
  8 55  1  6
  9 56  1  0
  9 57  1  0
 11 58  1  0
 12 59  1  0
 13 60  1  0
 14 61  1  0
 15 62  1  0
 15 63  1  0
 15 64  1  0
 16 65  1  0
 16 66  1  0
 16 67  1  0
 17 68  1  0
 17 69  1  0
 17 70  1  0
 18 71  1  0
 19 72  1  0
 20 73  1  0
 21 74  1  0
 28 75  1  0
 28 76  1  0
 29 77  1  6
 30 78  1  0
 30 79  1  0
 32 80  1  0
 33 81  1  0
 34 82  1  0
 35 83  1  0
 36 84  1  0
 36 85  1  0
 36 86  1  0
 37 87  1  0
 37 88  1  0
 37 89  1  0
 38 90  1  0
 38 91  1  0
 38 92  1  0
 39 93  1  0
 40 94  1  0
 41 95  1  0
 42 96  1  0
 43 97  1  0
 45 98  1  0
 47 99  1  0
 48100  1  0
 50101  1  6
 51102  1  1
M  END
> <Uni-Dock RESULT> 
ENERGY=   -6.084  LOWER_BOUND=    3.526  UPPER_BOUND=    6.150
INTER + INTRA:          -6.084
INTER:                  -6.084
INTRA:                   0.000
UNBOUND:                 0.000

$$$$

     RDKit          3D

102105  0  0  0  0  0  0  0  0999 V2000
   47.8208    9.4523   18.8297 N   0  0  0  0  0  0  0  0  0  0  0  0
   49.3129    9.5379   21.5883 S   0  0  0  0  0  0  0  0  0  0  0  0
   48.0438   10.7395   19.3900 C   0  0  0  0  0  0  0  0  0  0  0  0
   47.8470    8.2421   19.5720 C   0  0  0  0  0  0  0  0  0  0  0  0
   48.6738   10.9045   20.6385 C   0  0  0  0  0  0  0  0  0  0  0  0
   48.4730    8.1565   20.8317 C   0  0  0  0  0  0  0  0  0  0  0  0
   48.0526    9.3363   17.3670 C   0  0  0  0  0  0  0  0  0  0  0  0
   49.5328    9.5595   16.9628 C   0  0  1  0  0  0  0  0  0  0  0  0
   50.4082    8.3522   17.3760 C   0  0  0  0  0  0  0  0  0  0  0  0
   51.8107    8.4284   16.9115 N   0  0  0  0  0  0  0  0  0  0  0  0
   47.1938    7.0846   19.0968 C   0  0  0  0  0  0  0  0  0  0  0  0
   47.5908   11.9021   18.7315 C   0  0  0  0  0  0  0  0  0  0  0  0
   48.4940    6.9430   21.5407 C   0  0  0  0  0  0  0  0  0  0  0  0
   48.8719   12.1901   21.1708 C   0  0  0  0  0  0  0  0  0  0  0  0
   49.5935    9.7921   15.4473 C   0  0  0  0  0  0  0  0  0  0  0  0
   52.4561    7.1234   17.0796 C   0  0  0  0  0  0  0  0  0  0  0  0
   52.5593    9.4485   17.6523 C   0  0  0  0  0  0  0  0  0  0  0  0
   47.7755   13.1759   19.2735 C   0  0  0  0  0  0  0  0  0  0  0  0
   47.2274    5.8761   19.8041 C   0  0  0  0  0  0  0  0  0  0  0  0
   47.8858    5.8044   21.0222 C   0  0  0  0  0  0  0  0  0  0  0  0
   48.4277   13.3236   20.4925 C   0  0  0  0  0  0  0  0  0  0  0  0
   48.1168    9.1507   19.0160 N   0  0  0  0  0  0  0  0  0  0  0  0
   47.8470    9.7057   22.0967 S   0  0  0  0  0  0  0  0  0  0  0  0
   47.7946   10.4837   19.4003 C   0  0  0  0  0  0  0  0  0  0  0  0
   47.9481    8.0134   19.8466 C   0  0  0  0  0  0  0  0  0  0  0  0
   47.6179   10.8498   20.7494 C   0  0  0  0  0  0  0  0  0  0  0  0
   47.7924    8.1373   21.2415 C   0  0  0  0  0  0  0  0  0  0  0  0
   49.0183    9.0046   17.8432 C   0  0  0  0  0  0  0  0  0  0  0  0
   50.4299    9.5836   18.1039 C   0  0  2  0  0  0  0  0  0  0  0  0
   51.1261    9.9343   16.7677 C   0  0  0  0  0  0  0  0  0  0  0  0
   51.1980    8.7974   15.8339 N   0  0  0  0  0  0  0  0  0  0  0  0
   47.8606    6.7120   19.3075 C   0  0  0  0  0  0  0  0  0  0  0  0
   47.6002   11.4931   18.4338 C   0  0  0  0  0  0  0  0  0  0  0  0
   47.6163    7.0002   22.0480 C   0  0  0  0  0  0  0  0  0  0  0  0
   47.2982   12.1754   21.0976 C   0  0  0  0  0  0  0  0  0  0  0  0
   51.2662    8.6393   18.9718 C   0  0  0  0  0  0  0  0  0  0  0  0
   50.7918    9.1964   14.4822 C   0  0  0  0  0  0  0  0  0  0  0  0
   52.5466    8.2230   15.7921 C   0  0  0  0  0  0  0  0  0  0  0  0
   47.2866   12.8095   18.7839 C   0  0  0  0  0  0  0  0  0  0  0  0
   47.6839    5.5840   20.1172 C   0  0  0  0  0  0  0  0  0  0  0  0
   47.5675    5.7252   21.4893 C   0  0  0  0  0  0  0  0  0  0  0  0
   47.1350   13.1520   20.1169 C   0  0  0  0  0  0  0  0  0  0  0  0
   47.0916    8.6171   18.8410 O   0  0  0  0  0  0  0  0  0  0  0  0
   46.8929   10.8366   18.6658 O   0  0  0  0  0  0  0  0  0  0  0  0
   50.5181    6.7008   17.9738 O   0  0  0  0  0  0  0  0  0  0  0  0
   51.1996    7.9780   19.6748 O   0  0  0  0  0  0  0  0  0  0  0  0
   49.6317   11.2375   18.8213 O   0  0  0  0  0  0  0  0  0  0  0  0
   50.7130    9.7466   17.0930 O   0  0  0  0  0  0  0  0  0  0  0  0
   47.6129    9.8568   18.7768 C   0  0  0  0  0  0  0  0  0  0  0  0
   49.1246    9.8945   18.9521 C   0  0  1  0  0  0  0  0  0  0  0  0
   49.8145    8.9911   17.9146 C   0  0  2  0  0  0  0  0  0  0  0  0
   50.5686    7.8830   18.6334 C   0  0  0  0  0  0  0  0  0  0  0  0
   47.4169   10.0530   16.8349 H   0  0  0  0  0  0  0  0  0  0  0  0
   47.7254    8.3716   16.9649 H   0  0  0  0  0  0  0  0  0  0  0  0
   49.9104   10.4647   17.4519 H   0  0  0  0  0  0  0  0  0  0  0  0
   49.9426    7.4536   16.9445 H   0  0  0  0  0  0  0  0  0  0  0  0
   50.3959    8.2234   18.4660 H   0  0  0  0  0  0  0  0  0  0  0  0
   46.6122    7.1155   18.1805 H   0  0  0  0  0  0  0  0  0  0  0  0
   47.0472   11.8363   17.7944 H   0  0  0  0  0  0  0  0  0  0  0  0
   48.9997    6.8826   22.5043 H   0  0  0  0  0  0  0  0  0  0  0  0
   49.3706   12.3158   22.1284 H   0  0  0  0  0  0  0  0  0  0  0  0
   48.9533   10.6309   15.1570 H   0  0  0  0  0  0  0  0  0  0  0  0
   49.2664    8.9046   14.8989 H   0  0  0  0  0  0  0  0  0  0  0  0
   50.6036   10.0498   15.1210 H   0  0  0  0  0  0  0  0  0  0  0  0
   53.4845    7.1438   16.7068 H   0  0  0  0  0  0  0  0  0  0  0  0
   51.9332    6.3606   16.4963 H   0  0  0  0  0  0  0  0  0  0  0  0
   52.4748    6.7955   18.1242 H   0  0  0  0  0  0  0  0  0  0  0  0
   52.1296   10.4414   17.5022 H   0  0  0  0  0  0  0  0  0  0  0  0
   53.5925    9.5115   17.2861 H   0  0  0  0  0  0  0  0  0  0  0  0
   52.5907    9.2425   18.7279 H   0  0  0  0  0  0  0  0  0  0  0  0
   47.4090   14.0505   18.7428 H   0  0  0  0  0  0  0  0  0  0  0  0
   46.7215    5.0036   19.4019 H   0  0  0  0  0  0  0  0  0  0  0  0
   47.8992    4.8756   21.5838 H   0  0  0  0  0  0  0  0  0  0  0  0
   48.5808   14.3135   20.9144 H   0  0  0  0  0  0  0  0  0  0  0  0
   49.1303    7.9654   17.5215 H   0  0  0  0  0  0  0  0  0  0  0  0
   48.5587    9.4833   16.9730 H   0  0  0  0  0  0  0  0  0  0  0  0
   50.3513   10.5292   18.6570 H   0  0  0  0  0  0  0  0  0  0  0  0
   52.1200   10.3551   16.9641 H   0  0  0  0  0  0  0  0  0  0  0  0
   50.5567   10.7591   16.3178 H   0  0  0  0  0  0  0  0  0  0  0  0
   47.8816    6.5520   18.2326 H   0  0  0  0  0  0  0  0  0  0  0  0
   47.6598   11.2726   17.3724 H   0  0  0  0  0  0  0  0  0  0  0  0
   47.5116    7.1022   23.1253 H   0  0  0  0  0  0  0  0  0  0  0  0
   47.1718   12.4515   22.1416 H   0  0  0  0  0  0  0  0  0  0  0  0
   50.8343    8.5431   19.9722 H   0  0  0  0  0  0  0  0  0  0  0  0
   51.3332    7.6369   18.5373 H   0  0  0  0  0  0  0  0  0  0  0  0
   52.2831    9.0263   19.0914 H   0  0  0  0  0  0  0  0  0  0  0  0
   49.7523    9.5420   14.4808 H   0  0  0  0  0  0  0  0  0  0  0  0
   50.8354    8.3446   13.7943 H   0  0  0  0  0  0  0  0  0  0  0  0
   51.4247    9.9991   14.0799 H   0  0  0  0  0  0  0  0  0  0  0  0
   52.5560    7.3203   15.1680 H   0  0  0  0  0  0  0  0  0  0  0  0
   52.8815    7.9188   16.7886 H   0  0  0  0  0  0  0  0  0  0  0  0
   53.2823    8.9281   15.3800 H   0  0  0  0  0  0  0  0  0  0  0  0
   47.1432   13.5585   18.0066 H   0  0  0  0  0  0  0  0  0  0  0  0
   47.6212    4.5968   19.6623 H   0  0  0  0  0  0  0  0  0  0  0  0
   47.4306    4.8544   22.1241 H   0  0  0  0  0  0  0  0  0  0  0  0
   46.8869   14.1702   20.3968 H   0  0  0  0  0  0  0  0  0  0  0  0
   46.1215    8.7462   18.7451 H   0  0  0  0  0  0  0  0  0  0  0  0
   51.1002    6.1102   18.4966 H   0  0  0  0  0  0  0  0  0  0  0  0
   48.9226   11.8362   19.1436 H   0  0  0  0  0  0  0  0  0  0  0  0
   50.9226   10.5523   17.6137 H   0  0  0  0  0  0  0  0  0  0  0  0
   49.3147    9.5929   19.9866 H   0  0  0  0  0  0  0  0  0  0  0  0
   49.0874    8.5160   17.2431 H   0  0  0  0  0  0  0  0  0  0  0  0
 10  9  1  0
 11  4  2  0
 12  3  2  0
 13  6  2  0
 14  5  2  0
 15  8  1  0
 16 10  1  0
 17 10  1  0
 18 12  1  0
 19 11  1  0
 20 19  2  0
 21 18  2  0
  5  2  1  0
 13 20  1  0
 14 21  1  0
  2  6  1  0
  3  1  1  0
  4  1  1  0
  5  3  1  0
  6  4  1  0
  7  1  1  0
  8  7  1  0
  9  8  1  0
 31 30  1  0
 32 25  2  0
 33 24  2  0
 34 27  2  0
 35 26  2  0
 36 29  1  0
 37 31  1  0
 38 31  1  0
 39 33  1  0
 40 32  1  0
 41 40  2  0
 42 39  2  0
 26 23  1  0
 34 41  1  0
 35 42  1  0
 23 27  1  0
 24 22  1  0
 25 22  1  0
 26 24  1  0
 27 25  1  0
 28 22  1  0
 29 28  1  0
 30 29  1  0
 49 44  2  0
 50 47  1  0
 51 48  1  0
 49 43  1  0
 51 52  1  0
 50 51  1  0
 52 45  1  0
 49 50  1  0
 52 46  2  0
  7 53  1  0
  7 54  1  0
  8 55  1  6
  9 56  1  0
  9 57  1  0
 11 58  1  0
 12 59  1  0
 13 60  1  0
 14 61  1  0
 15 62  1  0
 15 63  1  0
 15 64  1  0
 16 65  1  0
 16 66  1  0
 16 67  1  0
 17 68  1  0
 17 69  1  0
 17 70  1  0
 18 71  1  0
 19 72  1  0
 20 73  1  0
 21 74  1  0
 28 75  1  0
 28 76  1  0
 29 77  1  6
 30 78  1  0
 30 79  1  0
 32 80  1  0
 33 81  1  0
 34 82  1  0
 35 83  1  0
 36 84  1  0
 36 85  1  0
 36 86  1  0
 37 87  1  0
 37 88  1  0
 37 89  1  0
 38 90  1  0
 38 91  1  0
 38 92  1  0
 39 93  1  0
 40 94  1  0
 41 95  1  0
 42 96  1  0
 43 97  1  0
 45 98  1  0
 47 99  1  0
 48100  1  0
 50101  1  6
 51102  1  1
M  END
> <Uni-Dock RESULT> 
ENERGY=   -5.992  LOWER_BOUND=    3.844  UPPER_BOUND=    6.203
INTER + INTRA:          -5.992
INTER:                  -5.992
INTRA:                   0.000
UNBOUND:                 0.000

$$$$

     RDKit          3D

102105  0  0  0  0  0  0  0  0999 V2000
   50.1911    6.2472   16.7608 N   0  0  0  0  0  0  0  0  0  0  0  0
   51.2038    4.5070   19.1671 S   0  0  0  0  0  0  0  0  0  0  0  0
   49.3095    5.2334   17.2252 C   0  0  0  0  0  0  0  0  0  0  0  0
   51.5887    6.2670   17.0113 C   0  0  0  0  0  0  0  0  0  0  0  0
   49.6654    4.3676   18.2771 C   0  0  0  0  0  0  0  0  0  0  0  0
   52.1675    5.5159   18.0537 C   0  0  0  0  0  0  0  0  0  0  0  0
   49.5594    7.5508   16.4322 C   0  0  0  0  0  0  0  0  0  0  0  0
   48.9478    8.2624   17.6666 C   0  0  1  0  0  0  0  0  0  0  0  0
   50.0565    8.8305   18.5845 C   0  0  0  0  0  0  0  0  0  0  0  0
   49.5553    9.6373   19.7187 N   0  0  0  0  0  0  0  0  0  0  0  0
   52.4641    7.0028   16.1839 C   0  0  0  0  0  0  0  0  0  0  0  0
   48.0582    5.0261   16.6074 C   0  0  0  0  0  0  0  0  0  0  0  0
   53.5529    5.5623   18.2870 C   0  0  0  0  0  0  0  0  0  0  0  0
   48.7756    3.3685   18.7079 C   0  0  0  0  0  0  0  0  0  0  0  0
   48.0151    9.3765   17.1734 C   0  0  0  0  0  0  0  0  0  0  0  0
   50.6670   10.3722   20.3288 C   0  0  0  0  0  0  0  0  0  0  0  0
   48.9108    8.7904   20.7272 C   0  0  0  0  0  0  0  0  0  0  0  0
   47.1853    4.0206   17.0288 C   0  0  0  0  0  0  0  0  0  0  0  0
   53.8424    7.0522   16.4284 C   0  0  0  0  0  0  0  0  0  0  0  0
   54.3845    6.3384   17.4862 C   0  0  0  0  0  0  0  0  0  0  0  0
   47.5386    3.1945   18.0898 C   0  0  0  0  0  0  0  0  0  0  0  0
   50.4959    6.3489   17.0926 N   0  0  0  0  0  0  0  0  0  0  0  0
   51.5243    3.5220   17.9998 S   0  0  0  0  0  0  0  0  0  0  0  0
   49.5739    5.2685   16.9874 C   0  0  0  0  0  0  0  0  0  0  0  0
   51.9021    6.1961   17.1975 C   0  0  0  0  0  0  0  0  0  0  0  0
   49.9266    3.9494   17.3352 C   0  0  0  0  0  0  0  0  0  0  0  0
   52.4831    4.9684   17.5721 C   0  0  0  0  0  0  0  0  0  0  0  0
   49.9262    7.6626   17.4916 C   0  0  0  0  0  0  0  0  0  0  0  0
   49.3337    7.6429   18.9214 C   0  0  2  0  0  0  0  0  0  0  0  0
   48.2873    8.7698   19.0891 C   0  0  0  0  0  0  0  0  0  0  0  0
   48.8158   10.1064   18.7669 N   0  0  0  0  0  0  0  0  0  0  0  0
   52.7855    7.2459   16.8662 C   0  0  0  0  0  0  0  0  0  0  0  0
   48.2690    5.4708   16.4902 C   0  0  0  0  0  0  0  0  0  0  0  0
   53.8789    4.8322   17.6612 C   0  0  0  0  0  0  0  0  0  0  0  0
   48.9934    2.9023   17.2188 C   0  0  0  0  0  0  0  0  0  0  0  0
   50.4374    7.7037   19.9810 C   0  0  0  0  0  0  0  0  0  0  0  0
   47.8883   10.8490   17.9069 C   0  0  0  0  0  0  0  0  0  0  0  0
   49.0876   10.8820   19.9813 C   0  0  0  0  0  0  0  0  0  0  0  0
   47.3439    4.4289   16.3798 C   0  0  0  0  0  0  0  0  0  0  0  0
   54.1749    7.1023   16.9563 C   0  0  0  0  0  0  0  0  0  0  0  0
   54.7241    5.8975   17.3598 C   0  0  0  0  0  0  0  0  0  0  0  0
   47.7055    3.1429   16.7440 C   0  0  0  0  0  0  0  0  0  0  0  0
   51.0309    6.4081   16.0549 O   0  0  0  0  0  0  0  0  0  0  0  0
   49.0559    5.3739   15.8931 O   0  0  0  0  0  0  0  0  0  0  0  0
   51.7545    9.2142   18.8420 O   0  0  0  0  0  0  0  0  0  0  0  0
   51.3551    7.4499   20.1524 O   0  0  0  0  0  0  0  0  0  0  0  0
   48.3651    5.9757   18.5098 O   0  0  0  0  0  0  0  0  0  0  0  0
   48.6678    8.4641   18.8180 O   0  0  0  0  0  0  0  0  0  0  0  0
   49.8474    6.0174   16.5642 C   0  0  0  0  0  0  0  0  0  0  0  0
   49.6677    6.3696   18.0342 C   0  0  1  0  0  0  0  0  0  0  0  0
   49.8504    7.8814   18.2568 C   0  0  2  0  0  0  0  0  0  0  0  0
   51.0373    8.1152   19.1787 C   0  0  0  0  0  0  0  0  0  0  0  0
   48.7822    7.4032   15.6738 H   0  0  0  0  0  0  0  0  0  0  0  0
   50.2530    8.2422   15.9422 H   0  0  0  0  0  0  0  0  0  0  0  0
   48.3394    7.5482   18.2333 H   0  0  0  0  0  0  0  0  0  0  0  0
   50.7000    9.4657   17.9577 H   0  0  0  0  0  0  0  0  0  0  0  0
   50.6892    8.0207   18.9699 H   0  0  0  0  0  0  0  0  0  0  0  0
   52.0895    7.5221   15.3072 H   0  0  0  0  0  0  0  0  0  0  0  0
   47.7516    5.6231   15.7544 H   0  0  0  0  0  0  0  0  0  0  0  0
   53.9871    4.9943   19.1095 H   0  0  0  0  0  0  0  0  0  0  0  0
   49.0469    2.7101   19.5291 H   0  0  0  0  0  0  0  0  0  0  0  0
   47.2480    8.9735   16.5047 H   0  0  0  0  0  0  0  0  0  0  0  0
   48.5722   10.1463   16.6325 H   0  0  0  0  0  0  0  0  0  0  0  0
   47.4824    9.8499   18.0012 H   0  0  0  0  0  0  0  0  0  0  0  0
   50.3148   11.0071   21.1472 H   0  0  0  0  0  0  0  0  0  0  0  0
   51.1293   11.0415   19.5981 H   0  0  0  0  0  0  0  0  0  0  0  0
   51.4457    9.7083   20.7184 H   0  0  0  0  0  0  0  0  0  0  0  0
   48.0451    8.2699   20.3119 H   0  0  0  0  0  0  0  0  0  0  0  0
   48.5243    9.4005   21.5542 H   0  0  0  0  0  0  0  0  0  0  0  0
   49.5969    8.0453   21.1449 H   0  0  0  0  0  0  0  0  0  0  0  0
   46.2310    3.8842   16.5271 H   0  0  0  0  0  0  0  0  0  0  0  0
   54.4835    7.6375   15.7759 H   0  0  0  0  0  0  0  0  0  0  0  0
   55.4542    6.3579   17.6692 H   0  0  0  0  0  0  0  0  0  0  0  0
   46.8592    2.4158   18.4265 H   0  0  0  0  0  0  0  0  0  0  0  0
   50.6556    8.4754   17.4361 H   0  0  0  0  0  0  0  0  0  0  0  0
   49.1671    7.9630   16.7627 H   0  0  0  0  0  0  0  0  0  0  0  0
   48.7905    6.7033   19.0896 H   0  0  0  0  0  0  0  0  0  0  0  0
   47.8649    8.7391   20.1011 H   0  0  0  0  0  0  0  0  0  0  0  0
   47.4456    8.5251   18.4269 H   0  0  0  0  0  0  0  0  0  0  0  0
   52.4087    8.1906   16.4831 H   0  0  0  0  0  0  0  0  0  0  0  0
   47.9452    6.4481   16.1456 H   0  0  0  0  0  0  0  0  0  0  0  0
   54.3197    3.8861   17.9651 H   0  0  0  0  0  0  0  0  0  0  0  0
   49.2710    1.8886   17.4972 H   0  0  0  0  0  0  0  0  0  0  0  0
   51.0631    6.8073   19.9450 H   0  0  0  0  0  0  0  0  0  0  0  0
   51.0881    8.5731   19.8436 H   0  0  0  0  0  0  0  0  0  0  0  0
   50.0042    7.7590   20.9848 H   0  0  0  0  0  0  0  0  0  0  0  0
   47.7469   10.3263   16.9546 H   0  0  0  0  0  0  0  0  0  0  0  0
   48.2915   11.8375   17.6603 H   0  0  0  0  0  0  0  0  0  0  0  0
   46.9051   10.9836   18.3779 H   0  0  0  0  0  0  0  0  0  0  0  0
   49.5705   11.8335   19.7244 H   0  0  0  0  0  0  0  0  0  0  0  0
   49.7747   10.3516   20.6479 H   0  0  0  0  0  0  0  0  0  0  0  0
   48.1686   11.1080   20.5403 H   0  0  0  0  0  0  0  0  0  0  0  0
   46.3468    4.6273   15.9896 H   0  0  0  0  0  0  0  0  0  0  0  0
   54.8225    7.9365   16.6916 H   0  0  0  0  0  0  0  0  0  0  0  0
   55.8014    5.7788   17.4324 H   0  0  0  0  0  0  0  0  0  0  0  0
   46.9951    2.3279   16.6569 H   0  0  0  0  0  0  0  0  0  0  0  0
   51.0214    6.0924   15.1238 H   0  0  0  0  0  0  0  0  0  0  0  0
   52.4262    9.2882   19.5522 H   0  0  0  0  0  0  0  0  0  0  0  0
   48.1084    5.1802   17.9935 H   0  0  0  0  0  0  0  0  0  0  0  0
   48.1863    7.7176   19.2364 H   0  0  0  0  0  0  0  0  0  0  0  0
   50.3928    5.7586   18.5804 H   0  0  0  0  0  0  0  0  0  0  0  0
   50.0527    8.4086   17.3153 H   0  0  0  0  0  0  0  0  0  0  0  0
 10  9  1  0
 11  4  2  0
 12  3  2  0
 13  6  2  0
 14  5  2  0
 15  8  1  0
 16 10  1  0
 17 10  1  0
 18 12  1  0
 19 11  1  0
 20 19  2  0
 21 18  2  0
  5  2  1  0
 13 20  1  0
 14 21  1  0
  2  6  1  0
  3  1  1  0
  4  1  1  0
  5  3  1  0
  6  4  1  0
  7  1  1  0
  8  7  1  0
  9  8  1  0
 31 30  1  0
 32 25  2  0
 33 24  2  0
 34 27  2  0
 35 26  2  0
 36 29  1  0
 37 31  1  0
 38 31  1  0
 39 33  1  0
 40 32  1  0
 41 40  2  0
 42 39  2  0
 26 23  1  0
 34 41  1  0
 35 42  1  0
 23 27  1  0
 24 22  1  0
 25 22  1  0
 26 24  1  0
 27 25  1  0
 28 22  1  0
 29 28  1  0
 30 29  1  0
 49 44  2  0
 50 47  1  0
 51 48  1  0
 49 43  1  0
 51 52  1  0
 50 51  1  0
 52 45  1  0
 49 50  1  0
 52 46  2  0
  7 53  1  0
  7 54  1  0
  8 55  1  6
  9 56  1  0
  9 57  1  0
 11 58  1  0
 12 59  1  0
 13 60  1  0
 14 61  1  0
 15 62  1  0
 15 63  1  0
 15 64  1  0
 16 65  1  0
 16 66  1  0
 16 67  1  0
 17 68  1  0
 17 69  1  0
 17 70  1  0
 18 71  1  0
 19 72  1  0
 20 73  1  0
 21 74  1  0
 28 75  1  0
 28 76  1  0
 29 77  1  6
 30 78  1  0
 30 79  1  0
 32 80  1  0
 33 81  1  0
 34 82  1  0
 35 83  1  0
 36 84  1  0
 36 85  1  0
 36 86  1  0
 37 87  1  0
 37 88  1  0
 37 89  1  0
 38 90  1  0
 38 91  1  0
 38 92  1  0
 39 93  1  0
 40 94  1  0
 41 95  1  0
 42 96  1  0
 43 97  1  0
 45 98  1  0
 47 99  1  0
 48100  1  0
 50101  1  6
 51102  1  1
M  END
> <Uni-Dock RESULT> 
ENERGY=   -5.906  LOWER_BOUND=    2.231  UPPER_BOUND=    5.170
INTER + INTRA:          -5.906
INTER:                  -5.906
INTRA:                   0.000
UNBOUND:                 0.000

$$$$
