
     RDKit          3D

102105  0  0  0  0  0  0  0  0999 V2000
   48.4152    9.3207   18.2009 N   0  0  0  0  0  0  0  0  0  0  0  0
   50.4293   11.7290   18.6306 S   0  0  0  0  0  0  0  0  0  0  0  0
   49.6922    9.2358   17.5539 C   0  0  0  0  0  0  0  0  0  0  0  0
   47.9348   10.4509   18.9330 C   0  0  0  0  0  0  0  0  0  0  0  0
   50.6553   10.2584   17.6685 C   0  0  0  0  0  0  0  0  0  0  0  0
   48.7464   11.5808   19.1701 C   0  0  0  0  0  0  0  0  0  0  0  0
   47.5607    8.1070   18.1347 C   0  0  0  0  0  0  0  0  0  0  0  0
   48.0082    6.9988   19.1211 C   0  0  1  0  0  0  0  0  0  0  0  0
   47.8033    7.4336   20.5908 C   0  0  0  0  0  0  0  0  0  0  0  0
   48.1295    6.3959   21.5916 N   0  0  0  0  0  0  0  0  0  0  0  0
   46.6231   10.5275   19.4611 C   0  0  0  0  0  0  0  0  0  0  0  0
   50.0698    8.1314   16.7511 C   0  0  0  0  0  0  0  0  0  0  0  0
   48.2662   12.6952   19.8916 C   0  0  0  0  0  0  0  0  0  0  0  0
   51.9057   10.1660   17.0202 C   0  0  0  0  0  0  0  0  0  0  0  0
   47.2306    5.7132   18.8052 C   0  0  0  0  0  0  0  0  0  0  0  0
   47.6818    6.8286   22.9195 C   0  0  0  0  0  0  0  0  0  0  0  0
   49.5686    6.1193   21.6301 C   0  0  0  0  0  0  0  0  0  0  0  0
   51.3126    8.0421   16.1090 C   0  0  0  0  0  0  0  0  0  0  0  0
   46.1492   11.6363   20.1776 C   0  0  0  0  0  0  0  0  0  0  0  0
   46.9727   12.7252   20.3931 C   0  0  0  0  0  0  0  0  0  0  0  0
   52.2347    9.0635   16.2437 C   0  0  0  0  0  0  0  0  0  0  0  0
   48.6487    7.6800   20.0773 N   0  0  0  0  0  0  0  0  0  0  0  0
   47.9537    5.0776   21.7523 S   0  0  0  0  0  0  0  0  0  0  0  0
   48.3195    7.8568   21.4563 C   0  0  0  0  0  0  0  0  0  0  0  0
   48.6480    6.4276   19.3805 C   0  0  0  0  0  0  0  0  0  0  0  0
   47.9958    6.7669   22.2914 C   0  0  0  0  0  0  0  0  0  0  0  0
   48.3383    5.2139   20.0269 C   0  0  0  0  0  0  0  0  0  0  0  0
   49.1634    8.8602   19.3265 C   0  0  0  0  0  0  0  0  0  0  0  0
   48.0969    9.4978   18.4053 C   0  0  2  0  0  0  0  0  0  0  0  0
   48.7152   10.2117   17.1734 C   0  0  0  0  0  0  0  0  0  0  0  0
   49.2892   11.5555   17.3789 N   0  0  0  0  0  0  0  0  0  0  0  0
   48.9466    6.3251   17.9999 C   0  0  0  0  0  0  0  0  0  0  0  0
   48.2830    9.1272   22.0787 C   0  0  0  0  0  0  0  0  0  0  0  0
   48.3314    3.9900   19.3231 C   0  0  0  0  0  0  0  0  0  0  0  0
   47.6801    6.9538   23.6544 C   0  0  0  0  0  0  0  0  0  0  0  0
   47.1252   10.4217   19.1442 C   0  0  0  0  0  0  0  0  0  0  0  0
   50.6079   11.5288   18.0122 C   0  0  0  0  0  0  0  0  0  0  0  0
   49.3983   12.2483   16.0879 C   0  0  0  0  0  0  0  0  0  0  0  0
   47.9649    9.3107   23.4317 C   0  0  0  0  0  0  0  0  0  0  0  0
   48.9366    5.1094   17.3030 C   0  0  0  0  0  0  0  0  0  0  0  0
   48.6274    3.9365   17.9672 C   0  0  0  0  0  0  0  0  0  0  0  0
   47.6655    8.2195   24.2244 C   0  0  0  0  0  0  0  0  0  0  0  0
   48.7463    7.2020   21.8388 O   0  0  0  0  0  0  0  0  0  0  0  0
   48.1311    5.9834   20.0732 O   0  0  0  0  0  0  0  0  0  0  0  0
   48.2139   10.6053   17.3559 O   0  0  0  0  0  0  0  0  0  0  0  0
   49.4408    8.8168   16.8093 O   0  0  0  0  0  0  0  0  0  0  0  0
   50.0721    9.0314   20.4370 O   0  0  0  0  0  0  0  0  0  0  0  0
   47.6192    9.8300   19.7710 O   0  0  0  0  0  0  0  0  0  0  0  0
   48.6820    6.9835   20.5086 C   0  0  0  0  0  0  0  0  0  0  0  0
   49.3074    8.0952   19.6726 C   0  0  1  0  0  0  0  0  0  0  0  0
   48.1793    8.8105   18.9275 C   0  0  2  0  0  0  0  0  0  0  0  0
   48.7084    9.3697   17.6114 C   0  0  0  0  0  0  0  0  0  0  0  0
   46.4978    8.3083   18.2818 H   0  0  0  0  0  0  0  0  0  0  0  0
   47.5444    7.7231   17.1071 H   0  0  0  0  0  0  0  0  0  0  0  0
   49.0710    6.7885   18.9602 H   0  0  0  0  0  0  0  0  0  0  0  0
   46.7457    7.7046   20.7088 H   0  0  0  0  0  0  0  0  0  0  0  0
   48.3893    8.3363   20.8016 H   0  0  0  0  0  0  0  0  0  0  0  0
   45.8984    9.7312   19.3445 H   0  0  0  0  0  0  0  0  0  0  0  0
   49.4104    7.2861   16.5881 H   0  0  0  0  0  0  0  0  0  0  0  0
   48.9117   13.5549   20.0656 H   0  0  0  0  0  0  0  0  0  0  0  0
   52.6367   10.9667   17.1223 H   0  0  0  0  0  0  0  0  0  0  0  0
   46.1575    5.8462   18.9812 H   0  0  0  0  0  0  0  0  0  0  0  0
   47.3700    5.4256   17.7573 H   0  0  0  0  0  0  0  0  0  0  0  0
   47.5752    4.8759   19.4207 H   0  0  0  0  0  0  0  0  0  0  0  0
   47.8842    6.0524   23.6668 H   0  0  0  0  0  0  0  0  0  0  0  0
   48.1723    7.7547   23.2414 H   0  0  0  0  0  0  0  0  0  0  0  0
   46.5982    6.9924   22.9266 H   0  0  0  0  0  0  0  0  0  0  0  0
   49.7966    5.3794   22.4060 H   0  0  0  0  0  0  0  0  0  0  0  0
   49.9144    5.6819   20.6884 H   0  0  0  0  0  0  0  0  0  0  0  0
   50.1591    7.0200   21.8339 H   0  0  0  0  0  0  0  0  0  0  0  0
   51.5491    7.1690   15.5057 H   0  0  0  0  0  0  0  0  0  0  0  0
   45.1313   11.6391   20.5606 H   0  0  0  0  0  0  0  0  0  0  0  0
   46.6169   13.5897   20.9453 H   0  0  0  0  0  0  0  0  0  0  0  0
   53.2006    9.0057   15.7513 H   0  0  0  0  0  0  0  0  0  0  0  0
   49.6019    9.6065   19.9914 H   0  0  0  0  0  0  0  0  0  0  0  0
   50.0401    8.5532   18.7411 H   0  0  0  0  0  0  0  0  0  0  0  0
   47.4753    8.6922   17.9918 H   0  0  0  0  0  0  0  0  0  0  0  0
   49.4435    9.5530   16.6808 H   0  0  0  0  0  0  0  0  0  0  0  0
   47.8845   10.3089   16.4586 H   0  0  0  0  0  0  0  0  0  0  0  0
   49.1902    7.1947   17.4008 H   0  0  0  0  0  0  0  0  0  0  0  0
   48.4834   10.0424   21.5348 H   0  0  0  0  0  0  0  0  0  0  0  0
   48.0897    3.0625   19.8398 H   0  0  0  0  0  0  0  0  0  0  0  0
   47.4398    6.0981   24.2832 H   0  0  0  0  0  0  0  0  0  0  0  0
   47.6479   11.2367   19.6547 H   0  0  0  0  0  0  0  0  0  0  0  0
   46.5425    9.8662   19.8849 H   0  0  0  0  0  0  0  0  0  0  0  0
   46.4104   10.8699   18.4455 H   0  0  0  0  0  0  0  0  0  0  0  0
   50.5390   11.2240   19.0574 H   0  0  0  0  0  0  0  0  0  0  0  0
   51.0491   12.5328   18.0324 H   0  0  0  0  0  0  0  0  0  0  0  0
   51.3065   10.8629   17.4918 H   0  0  0  0  0  0  0  0  0  0  0  0
   49.7658   13.2717   16.2293 H   0  0  0  0  0  0  0  0  0  0  0  0
   48.4155   12.3379   15.6099 H   0  0  0  0  0  0  0  0  0  0  0  0
   50.0752   11.7288   15.3981 H   0  0  0  0  0  0  0  0  0  0  0  0
   47.9481   10.3140   23.8522 H   0  0  0  0  0  0  0  0  0  0  0  0
   49.1699    5.0890   16.2415 H   0  0  0  0  0  0  0  0  0  0  0  0
   48.6157    2.9876   17.4393 H   0  0  0  0  0  0  0  0  0  0  0  0
   47.4183    8.3474   25.2738 H   0  0  0  0  0  0  0  0  0  0  0  0
   48.3148    6.4193   22.2403 H   0  0  0  0  0  0  0  0  0  0  0  0
   48.6281   10.8517   16.4995 H   0  0  0  0  0  0  0  0  0  0  0  0
   49.4241    9.4529   21.0367 H   0  0  0  0  0  0  0  0  0  0  0  0
   47.3140   10.5321   19.1597 H   0  0  0  0  0  0  0  0  0  0  0  0
   50.0084    7.5979   18.9938 H   0  0  0  0  0  0  0  0  0  0  0  0
   47.3641    8.1299   18.6568 H   0  0  0  0  0  0  0  0  0  0  0  0
 10  9  1  0
 11  4  2  0
 12  3  2  0
 13  6  2  0
 14  5  2  0
 15  8  1  0
 16 10  1  0
 17 10  1  0
 18 12  1  0
 19 11  1  0
 20 19  2  0
 21 18  2  0
  5  2  1  0
 13 20  1  0
 14 21  1  0
  2  6  1  0
  3  1  1  0
  4  1  1  0
  5  3  1  0
  6  4  1  0
  7  1  1  0
  8  7  1  0
  9  8  1  0
 31 30  1  0
 32 25  2  0
 33 24  2  0
 34 27  2  0
 35 26  2  0
 36 29  1  0
 37 31  1  0
 38 31  1  0
 39 33  1  0
 40 32  1  0
 41 40  2  0
 42 39  2  0
 26 23  1  0
 34 41  1  0
 35 42  1  0
 23 27  1  0
 24 22  1  0
 25 22  1  0
 26 24  1  0
 27 25  1  0
 28 22  1  0
 29 28  1  0
 30 29  1  0
 49 44  2  0
 50 47  1  0
 51 48  1  0
 49 43  1  0
 51 52  1  0
 50 51  1  0
 52 45  1  0
 49 50  1  0
 52 46  2  0
  7 53  1  0
  7 54  1  0
  8 55  1  1
  9 56  1  0
  9 57  1  0
 11 58  1  0
 12 59  1  0
 13 60  1  0
 14 61  1  0
 15 62  1  0
 15 63  1  0
 15 64  1  0
 16 65  1  0
 16 66  1  0
 16 67  1  0
 17 68  1  0
 17 69  1  0
 17 70  1  0
 18 71  1  0
 19 72  1  0
 20 73  1  0
 21 74  1  0
 28 75  1  0
 28 76  1  0
 29 77  1  6
 30 78  1  0
 30 79  1  0
 32 80  1  0
 33 81  1  0
 34 82  1  0
 35 83  1  0
 36 84  1  0
 36 85  1  0
 36 86  1  0
 37 87  1  0
 37 88  1  0
 37 89  1  0
 38 90  1  0
 38 91  1  0
 38 92  1  0
 39 93  1  0
 40 94  1  0
 41 95  1  0
 42 96  1  0
 43 97  1  0
 45 98  1  0
 47 99  1  0
 48100  1  0
 50101  1  1
 51102  1  6
M  END
> <Uni-Dock RESULT> 
ENERGY=   -5.608  LOWER_BOUND=    0.000  UPPER_BOUND=    0.000
INTER + INTRA:          -5.608
INTER:                  -5.608
INTRA:                   0.000
UNBOUND:                 0.000

$$$$

     RDKit          3D

102105  0  0  0  0  0  0  0  0999 V2000
   48.3802    9.3058   18.1770 N   0  0  0  0  0  0  0  0  0  0  0  0
   50.4232   11.6998   18.5458 S   0  0  0  0  0  0  0  0  0  0  0  0
   49.6453    9.2018   17.5098 C   0  0  0  0  0  0  0  0  0  0  0  0
   47.9225   10.4485   18.9043 C   0  0  0  0  0  0  0  0  0  0  0  0
   50.6195   10.2165   17.5968 C   0  0  0  0  0  0  0  0  0  0  0  0
   48.7483   11.5734   19.1149 C   0  0  0  0  0  0  0  0  0  0  0  0
   47.5135    8.0996   18.1388 C   0  0  0  0  0  0  0  0  0  0  0  0
   47.9673    6.9982   19.1300 C   0  0  1  0  0  0  0  0  0  0  0  0
   47.7912    7.4513   20.5980 C   0  0  0  0  0  0  0  0  0  0  0  0
   48.1246    6.4217   21.6048 N   0  0  0  0  0  0  0  0  0  0  0  0
   46.6206   10.5433   19.4533 C   0  0  0  0  0  0  0  0  0  0  0  0
   49.9991    8.0851   16.7133 C   0  0  0  0  0  0  0  0  0  0  0  0
   48.2905   12.7002   19.8318 C   0  0  0  0  0  0  0  0  0  0  0  0
   51.8579   10.1052   16.9287 C   0  0  0  0  0  0  0  0  0  0  0  0
   47.1728    5.7166   18.8417 C   0  0  0  0  0  0  0  0  0  0  0  0
   47.7033    6.8734   22.9350 C   0  0  0  0  0  0  0  0  0  0  0  0
   49.5616    6.1321   21.6224 C   0  0  0  0  0  0  0  0  0  0  0  0
   51.2301    7.9770   16.0516 C   0  0  0  0  0  0  0  0  0  0  0  0
   46.1691   11.6645   20.1651 C   0  0  0  0  0  0  0  0  0  0  0  0
   47.0060   12.7479   20.3545 C   0  0  0  0  0  0  0  0  0  0  0  0
   52.1637    8.9911   16.1593 C   0  0  0  0  0  0  0  0  0  0  0  0
   48.6301    7.6840   20.0676 N   0  0  0  0  0  0  0  0  0  0  0  0
   47.9395    5.1071   21.7833 S   0  0  0  0  0  0  0  0  0  0  0  0
   48.3257    7.8792   21.4498 C   0  0  0  0  0  0  0  0  0  0  0  0
   48.6061    6.4240   19.3851 C   0  0  0  0  0  0  0  0  0  0  0  0
   48.0061    6.8018   22.3025 C   0  0  0  0  0  0  0  0  0  0  0  0
   48.2962    5.2205   20.0502 C   0  0  0  0  0  0  0  0  0  0  0  0
   49.1429    8.8509   19.2951 C   0  0  0  0  0  0  0  0  0  0  0  0
   48.0670    9.4882   18.3846 C   0  0  2  0  0  0  0  0  0  0  0  0
   48.6710   10.1826   17.1346 C   0  0  0  0  0  0  0  0  0  0  0  0
   49.2607   11.5230   17.3154 N   0  0  0  0  0  0  0  0  0  0  0  0
   48.8805    6.3034   18.0009 C   0  0  0  0  0  0  0  0  0  0  0  0
   48.3113    9.1568   22.0584 C   0  0  0  0  0  0  0  0  0  0  0  0
   48.2663    3.9890   19.3605 C   0  0  0  0  0  0  0  0  0  0  0  0
   47.7151    7.0068   23.6684 C   0  0  0  0  0  0  0  0  0  0  0  0
   47.1164   10.4293   19.1293 C   0  0  0  0  0  0  0  0  0  0  0  0
   50.5896   11.4911   17.9268 C   0  0  0  0  0  0  0  0  0  0  0  0
   49.3544   12.2005   16.0150 C   0  0  0  0  0  0  0  0  0  0  0  0
   48.0177    9.3583   23.4143 C   0  0  0  0  0  0  0  0  0  0  0  0
   48.8477    5.0801   17.3181 C   0  0  0  0  0  0  0  0  0  0  0  0
   48.5390    3.9176   18.0006 C   0  0  0  0  0  0  0  0  0  0  0  0
   47.7217    8.2788   24.2242 C   0  0  0  0  0  0  0  0  0  0  0  0
   48.7528    7.2247   21.8326 O   0  0  0  0  0  0  0  0  0  0  0  0
   48.0969    5.9924   20.0913 O   0  0  0  0  0  0  0  0  0  0  0  0
   48.1764   10.5828   17.3210 O   0  0  0  0  0  0  0  0  0  0  0  0
   49.3775    8.7769   16.7743 O   0  0  0  0  0  0  0  0  0  0  0  0
   50.0717    9.0260   20.3882 O   0  0  0  0  0  0  0  0  0  0  0  0
   47.6153    9.8400   19.7543 O   0  0  0  0  0  0  0  0  0  0  0  0
   48.6642    6.9921   20.5062 C   0  0  0  0  0  0  0  0  0  0  0  0
   49.2856    8.0885   19.6473 C   0  0  1  0  0  0  0  0  0  0  0  0
   48.1518    8.8060   18.9132 C   0  0  2  0  0  0  0  0  0  0  0  0
   48.6638    9.3456   17.5822 C   0  0  0  0  0  0  0  0  0  0  0  0
   46.4552    8.3125   18.3013 H   0  0  0  0  0  0  0  0  0  0  0  0
   47.4765    7.7044   17.1160 H   0  0  0  0  0  0  0  0  0  0  0  0
   49.0253    6.7763   18.9538 H   0  0  0  0  0  0  0  0  0  0  0  0
   46.7383    7.7335   20.7306 H   0  0  0  0  0  0  0  0  0  0  0  0
   48.3889    8.3508   20.7887 H   0  0  0  0  0  0  0  0  0  0  0  0
   45.8868    9.7526   19.3578 H   0  0  0  0  0  0  0  0  0  0  0  0
   49.3294    7.2442   16.5709 H   0  0  0  0  0  0  0  0  0  0  0  0
   48.9468   13.5557   19.9853 H   0  0  0  0  0  0  0  0  0  0  0  0
   52.5979   10.9001   17.0096 H   0  0  0  0  0  0  0  0  0  0  0  0
   46.1041    5.8615   19.0341 H   0  0  0  0  0  0  0  0  0  0  0  0
   47.2919    5.4160   17.7949 H   0  0  0  0  0  0  0  0  0  0  0  0
   47.5200    4.8830   19.4608 H   0  0  0  0  0  0  0  0  0  0  0  0
   47.9110    6.1038   23.6875 H   0  0  0  0  0  0  0  0  0  0  0  0
   48.2076    7.7984   23.2383 H   0  0  0  0  0  0  0  0  0  0  0  0
   46.6215    7.0474   22.9584 H   0  0  0  0  0  0  0  0  0  0  0  0
   49.7958    5.3988   22.4027 H   0  0  0  0  0  0  0  0  0  0  0  0
   49.8875    5.6811   20.6800 H   0  0  0  0  0  0  0  0  0  0  0  0
   50.1637    7.0295   21.8061 H   0  0  0  0  0  0  0  0  0  0  0  0
   51.4484    7.0950   15.4543 H   0  0  0  0  0  0  0  0  0  0  0  0
   45.1577   11.6810   20.5649 H   0  0  0  0  0  0  0  0  0  0  0  0
   46.6675   13.6218   20.9027 H   0  0  0  0  0  0  0  0  0  0  0  0
   53.1206    8.9187   15.6515 H   0  0  0  0  0  0  0  0  0  0  0  0
   49.5994    9.6004   19.9441 H   0  0  0  0  0  0  0  0  0  0  0  0
   50.0067    8.5292   18.6986 H   0  0  0  0  0  0  0  0  0  0  0  0
   47.4311    8.6839   17.9908 H   0  0  0  0  0  0  0  0  0  0  0  0
   49.3849    9.5115   16.6375 H   0  0  0  0  0  0  0  0  0  0  0  0
   47.8293   10.2795   16.4328 H   0  0  0  0  0  0  0  0  0  0  0  0
   49.1220    7.1639   17.3881 H   0  0  0  0  0  0  0  0  0  0  0  0
   48.5110   10.0639   21.5010 H   0  0  0  0  0  0  0  0  0  0  0  0
   48.0248    3.0696   19.8916 H   0  0  0  0  0  0  0  0  0  0  0  0
   47.4775    6.1604   24.3108 H   0  0  0  0  0  0  0  0  0  0  0  0
   47.6550   11.2450   19.6217 H   0  0  0  0  0  0  0  0  0  0  0  0
   46.5411    9.8876   19.8858 H   0  0  0  0  0  0  0  0  0  0  0  0
   46.3941   10.8764   18.4376 H   0  0  0  0  0  0  0  0  0  0  0  0
   50.5354   11.1986   18.9764 H   0  0  0  0  0  0  0  0  0  0  0  0
   51.0402   12.4910   17.9283 H   0  0  0  0  0  0  0  0  0  0  0  0
   51.2732   10.8129   17.4023 H   0  0  0  0  0  0  0  0  0  0  0  0
   49.7336   13.2218   16.1387 H   0  0  0  0  0  0  0  0  0  0  0  0
   48.3646   12.2939   15.5525 H   0  0  0  0  0  0  0  0  0  0  0  0
   50.0149   11.6669   15.3199 H   0  0  0  0  0  0  0  0  0  0  0  0
   48.0172   10.3663   23.8237 H   0  0  0  0  0  0  0  0  0  0  0  0
   49.0629    5.0457   16.2532 H   0  0  0  0  0  0  0  0  0  0  0  0
   48.5097    2.9631   17.4836 H   0  0  0  0  0  0  0  0  0  0  0  0
   47.4934    8.4207   25.2761 H   0  0  0  0  0  0  0  0  0  0  0  0
   48.3210    6.4506   22.2500 H   0  0  0  0  0  0  0  0  0  0  0  0
   48.5784   10.8158   16.4551 H   0  0  0  0  0  0  0  0  0  0  0  0
   49.4378    9.4601   20.9939 H   0  0  0  0  0  0  0  0  0  0  0  0
   47.3063   10.5381   19.1403 H   0  0  0  0  0  0  0  0  0  0  0  0
   49.9706    7.5771   18.9625 H   0  0  0  0  0  0  0  0  0  0  0  0
   47.3260    8.1301   18.6638 H   0  0  0  0  0  0  0  0  0  0  0  0
 10  9  1  0
 11  4  2  0
 12  3  2  0
 13  6  2  0
 14  5  2  0
 15  8  1  0
 16 10  1  0
 17 10  1  0
 18 12  1  0
 19 11  1  0
 20 19  2  0
 21 18  2  0
  5  2  1  0
 13 20  1  0
 14 21  1  0
  2  6  1  0
  3  1  1  0
  4  1  1  0
  5  3  1  0
  6  4  1  0
  7  1  1  0
  8  7  1  0
  9  8  1  0
 31 30  1  0
 32 25  2  0
 33 24  2  0
 34 27  2  0
 35 26  2  0
 36 29  1  0
 37 31  1  0
 38 31  1  0
 39 33  1  0
 40 32  1  0
 41 40  2  0
 42 39  2  0
 26 23  1  0
 34 41  1  0
 35 42  1  0
 23 27  1  0
 24 22  1  0
 25 22  1  0
 26 24  1  0
 27 25  1  0
 28 22  1  0
 29 28  1  0
 30 29  1  0
 49 44  2  0
 50 47  1  0
 51 48  1  0
 49 43  1  0
 51 52  1  0
 50 51  1  0
 52 45  1  0
 49 50  1  0
 52 46  2  0
  7 53  1  0
  7 54  1  0
  8 55  1  1
  9 56  1  0
  9 57  1  0
 11 58  1  0
 12 59  1  0
 13 60  1  0
 14 61  1  0
 15 62  1  0
 15 63  1  0
 15 64  1  0
 16 65  1  0
 16 66  1  0
 16 67  1  0
 17 68  1  0
 17 69  1  0
 17 70  1  0
 18 71  1  0
 19 72  1  0
 20 73  1  0
 21 74  1  0
 28 75  1  0
 28 76  1  0
 29 77  1  6
 30 78  1  0
 30 79  1  0
 32 80  1  0
 33 81  1  0
 34 82  1  0
 35 83  1  0
 36 84  1  0
 36 85  1  0
 36 86  1  0
 37 87  1  0
 37 88  1  0
 37 89  1  0
 38 90  1  0
 38 91  1  0
 38 92  1  0
 39 93  1  0
 40 94  1  0
 41 95  1  0
 42 96  1  0
 43 97  1  0
 45 98  1  0
 47 99  1  0
 48100  1  0
 50101  1  1
 51102  1  6
M  END
> <Uni-Dock RESULT> 
ENERGY=   -5.608  LOWER_BOUND=    0.064  UPPER_BOUND=    0.064
INTER + INTRA:          -5.608
INTER:                  -5.608
INTRA:                   0.000
UNBOUND:                 0.000

$$$$

     RDKit          3D

102105  0  0  0  0  0  0  0  0999 V2000
   48.1179    9.7733   18.4760 N   0  0  0  0  0  0  0  0  0  0  0  0
   50.3690   10.5638   16.3907 S   0  0  0  0  0  0  0  0  0  0  0  0
   48.9679    8.7238   17.9938 C   0  0  0  0  0  0  0  0  0  0  0  0
   48.1314   11.1253   18.0111 C   0  0  0  0  0  0  0  0  0  0  0  0
   49.9906    8.9652   17.0546 C   0  0  0  0  0  0  0  0  0  0  0  0
   49.0840   11.5777   17.0732 C   0  0  0  0  0  0  0  0  0  0  0  0
   47.1922    9.4162   19.5820 C   0  0  0  0  0  0  0  0  0  0  0  0
   47.8998    9.3310   20.9581 C   0  0  1  0  0  0  0  0  0  0  0  0
   48.4044   10.7173   21.4212 C   0  0  0  0  0  0  0  0  0  0  0  0
   49.0176   10.7322   22.7660 N   0  0  0  0  0  0  0  0  0  0  0  0
   47.1978   12.0989   18.4418 C   0  0  0  0  0  0  0  0  0  0  0  0
   48.8344    7.3782   18.4158 C   0  0  0  0  0  0  0  0  0  0  0  0
   49.0914   12.9132   16.6156 C   0  0  0  0  0  0  0  0  0  0  0  0
   50.8154    7.9218   16.5821 C   0  0  0  0  0  0  0  0  0  0  0  0
   46.9263    8.7217   21.9770 C   0  0  0  0  0  0  0  0  0  0  0  0
   49.2432   12.1169   23.1935 C   0  0  0  0  0  0  0  0  0  0  0  0
   50.2899   10.0042   22.7851 C   0  0  0  0  0  0  0  0  0  0  0  0
   49.6556    6.3441   17.9454 C   0  0  0  0  0  0  0  0  0  0  0  0
   47.2081   13.4251   17.9851 C   0  0  0  0  0  0  0  0  0  0  0  0
   48.1573   13.8344   17.0676 C   0  0  0  0  0  0  0  0  0  0  0  0
   50.6503    6.6166   17.0245 C   0  0  0  0  0  0  0  0  0  0  0  0
   48.9633   10.1275   20.8057 N   0  0  0  0  0  0  0  0  0  0  0  0
   48.7857   10.1967   23.9718 S   0  0  0  0  0  0  0  0  0  0  0  0
   49.2888   11.3586   21.4535 C   0  0  0  0  0  0  0  0  0  0  0  0
   48.5216    8.9357   21.4678 C   0  0  0  0  0  0  0  0  0  0  0  0
   49.2435   11.4977   22.8565 C   0  0  0  0  0  0  0  0  0  0  0  0
   48.3931    8.8645   22.8696 C   0  0  0  0  0  0  0  0  0  0  0  0
   49.2259   10.0188   19.3425 C   0  0  0  0  0  0  0  0  0  0  0  0
   47.9419   10.1519   18.4903 C   0  0  2  0  0  0  0  0  0  0  0  0
   48.0364    9.3958   17.1379 C   0  0  0  0  0  0  0  0  0  0  0  0
   48.7863   10.0427   16.0441 N   0  0  0  0  0  0  0  0  0  0  0  0
   48.1761    7.7572   20.7625 C   0  0  0  0  0  0  0  0  0  0  0  0
   49.6668   12.5223   20.7423 C   0  0  0  0  0  0  0  0  0  0  0  0
   47.9461    7.6859   23.5054 C   0  0  0  0  0  0  0  0  0  0  0  0
   49.5754   12.7171   23.4853 C   0  0  0  0  0  0  0  0  0  0  0  0
   47.4969   11.6013   18.2785 C   0  0  0  0  0  0  0  0  0  0  0  0
   50.2374    9.9322   16.1953 C   0  0  0  0  0  0  0  0  0  0  0  0
   48.3978    9.4460   14.7589 C   0  0  0  0  0  0  0  0  0  0  0  0
   49.9918   13.7336   21.3689 C   0  0  0  0  0  0  0  0  0  0  0  0
   47.7303    6.5893   21.3958 C   0  0  0  0  0  0  0  0  0  0  0  0
   47.6144    6.5533   22.7733 C   0  0  0  0  0  0  0  0  0  0  0  0
   49.9495   13.8311   22.7463 C   0  0  0  0  0  0  0  0  0  0  0  0
   49.7648   11.0955   22.1328 O   0  0  0  0  0  0  0  0  0  0  0  0
   48.3126    9.4082   22.2908 O   0  0  0  0  0  0  0  0  0  0  0  0
   47.7111    9.9544   16.9906 O   0  0  0  0  0  0  0  0  0  0  0  0
   48.3730    8.0611   17.9806 O   0  0  0  0  0  0  0  0  0  0  0  0
   50.5401   10.5338   19.6522 O   0  0  0  0  0  0  0  0  0  0  0  0
   48.1461   11.5211   19.0262 O   0  0  0  0  0  0  0  0  0  0  0  0
   49.1043   10.0418   21.6088 C   0  0  0  0  0  0  0  0  0  0  0  0
   49.4211    9.7875   20.1388 C   0  0  1  0  0  0  0  0  0  0  0  0
   48.1673   10.1162   19.3268 C   0  0  2  0  0  0  0  0  0  0  0  0
   48.1285    9.2517   18.0715 C   0  0  0  0  0  0  0  0  0  0  0  0
   46.3286   10.0790   19.6647 H   0  0  0  0  0  0  0  0  0  0  0  0
   46.6881    8.4698   19.3499 H   0  0  0  0  0  0  0  0  0  0  0  0
   48.7563    8.6534   20.8753 H   0  0  0  0  0  0  0  0  0  0  0  0
   47.5406   11.3953   21.4298 H   0  0  0  0  0  0  0  0  0  0  0  0
   49.1189   11.1204   20.6933 H   0  0  0  0  0  0  0  0  0  0  0  0
   46.4120   11.8806   19.1544 H   0  0  0  0  0  0  0  0  0  0  0  0
   48.0815    7.0719   19.1336 H   0  0  0  0  0  0  0  0  0  0  0  0
   49.8384   13.2411   15.8940 H   0  0  0  0  0  0  0  0  0  0  0  0
   51.6010    8.1294   15.8571 H   0  0  0  0  0  0  0  0  0  0  0  0
   46.0587    9.3721   22.1335 H   0  0  0  0  0  0  0  0  0  0  0  0
   46.5630    7.7484   21.6293 H   0  0  0  0  0  0  0  0  0  0  0  0
   47.4102    8.5609   22.9458 H   0  0  0  0  0  0  0  0  0  0  0  0
   49.6641   12.1445   24.2054 H   0  0  0  0  0  0  0  0  0  0  0  0
   49.9233   12.6532   22.5214 H   0  0  0  0  0  0  0  0  0  0  0  0
   48.2961   12.6667   23.2354 H   0  0  0  0  0  0  0  0  0  0  0  0
   50.7501   10.0617   23.7782 H   0  0  0  0  0  0  0  0  0  0  0  0
   50.1408    8.9385   22.5854 H   0  0  0  0  0  0  0  0  0  0  0  0
   51.0051   10.3992   22.0544 H   0  0  0  0  0  0  0  0  0  0  0  0
   49.5083    5.3289   18.3059 H   0  0  0  0  0  0  0  0  0  0  0  0
   46.4655   14.1301   18.3519 H   0  0  0  0  0  0  0  0  0  0  0  0
   48.1748   14.8580   16.7059 H   0  0  0  0  0  0  0  0  0  0  0  0
   51.2926    5.8240   16.6529 H   0  0  0  0  0  0  0  0  0  0  0  0
   49.9892   10.7256   19.0120 H   0  0  0  0  0  0  0  0  0  0  0  0
   49.7206    9.0595   19.1414 H   0  0  0  0  0  0  0  0  0  0  0  0
   47.1180    9.6709   19.0345 H   0  0  0  0  0  0  0  0  0  0  0  0
   48.4004    8.3722   17.3017 H   0  0  0  0  0  0  0  0  0  0  0  0
   46.9936    9.2817   16.8063 H   0  0  0  0  0  0  0  0  0  0  0  0
   48.2285    7.7009   19.6815 H   0  0  0  0  0  0  0  0  0  0  0  0
   49.7095   12.5491   19.6603 H   0  0  0  0  0  0  0  0  0  0  0  0
   47.8532    7.6500   24.5898 H   0  0  0  0  0  0  0  0  0  0  0  0
   49.5404   12.8012   24.5703 H   0  0  0  0  0  0  0  0  0  0  0  0
   48.2756   12.1991   17.7946 H   0  0  0  0  0  0  0  0  0  0  0  0
   47.2377   12.0749   19.2299 H   0  0  0  0  0  0  0  0  0  0  0  0
   46.6032   11.6432   17.6464 H   0  0  0  0  0  0  0  0  0  0  0  0
   50.5974   10.5481   17.0207 H   0  0  0  0  0  0  0  0  0  0  0  0
   50.7507   10.3141   15.3044 H   0  0  0  0  0  0  0  0  0  0  0  0
   50.5619    8.8971   16.3548 H   0  0  0  0  0  0  0  0  0  0  0  0
   48.9002    9.9570   13.9290 H   0  0  0  0  0  0  0  0  0  0  0  0
   47.3214    9.5624   14.5853 H   0  0  0  0  0  0  0  0  0  0  0  0
   48.6453    8.3782   14.7096 H   0  0  0  0  0  0  0  0  0  0  0  0
   50.2700   14.5962   20.7672 H   0  0  0  0  0  0  0  0  0  0  0  0
   47.4743    5.7138   20.8045 H   0  0  0  0  0  0  0  0  0  0  0  0
   47.2699    5.6549   23.2768 H   0  0  0  0  0  0  0  0  0  0  0  0
   50.1996   14.7629   23.2444 H   0  0  0  0  0  0  0  0  0  0  0  0
   49.4681   11.1358   23.0658 H   0  0  0  0  0  0  0  0  0  0  0  0
   47.7354    9.2979   16.2597 H   0  0  0  0  0  0  0  0  0  0  0  0
   50.2685   11.4704   19.7296 H   0  0  0  0  0  0  0  0  0  0  0  0
   47.6843   11.5941   18.1652 H   0  0  0  0  0  0  0  0  0  0  0  0
   49.6974    8.7296   20.0732 H   0  0  0  0  0  0  0  0  0  0  0  0
   47.2464    9.8883   19.8753 H   0  0  0  0  0  0  0  0  0  0  0  0
 10  9  1  0
 11  4  2  0
 12  3  2  0
 13  6  2  0
 14  5  2  0
 15  8  1  0
 16 10  1  0
 17 10  1  0
 18 12  1  0
 19 11  1  0
 20 19  2  0
 21 18  2  0
  5  2  1  0
 13 20  1  0
 14 21  1  0
  2  6  1  0
  3  1  1  0
  4  1  1  0
  5  3  1  0
  6  4  1  0
  7  1  1  0
  8  7  1  0
  9  8  1  0
 31 30  1  0
 32 25  2  0
 33 24  2  0
 34 27  2  0
 35 26  2  0
 36 29  1  0
 37 31  1  0
 38 31  1  0
 39 33  1  0
 40 32  1  0
 41 40  2  0
 42 39  2  0
 26 23  1  0
 34 41  1  0
 35 42  1  0
 23 27  1  0
 24 22  1  0
 25 22  1  0
 26 24  1  0
 27 25  1  0
 28 22  1  0
 29 28  1  0
 30 29  1  0
 49 44  2  0
 50 47  1  0
 51 48  1  0
 49 43  1  0
 51 52  1  0
 50 51  1  0
 52 45  1  0
 49 50  1  0
 52 46  2  0
  7 53  1  0
  7 54  1  0
  8 55  1  1
  9 56  1  0
  9 57  1  0
 11 58  1  0
 12 59  1  0
 13 60  1  0
 14 61  1  0
 15 62  1  0
 15 63  1  0
 15 64  1  0
 16 65  1  0
 16 66  1  0
 16 67  1  0
 17 68  1  0
 17 69  1  0
 17 70  1  0
 18 71  1  0
 19 72  1  0
 20 73  1  0
 21 74  1  0
 28 75  1  0
 28 76  1  0
 29 77  1  6
 30 78  1  0
 30 79  1  0
 32 80  1  0
 33 81  1  0
 34 82  1  0
 35 83  1  0
 36 84  1  0
 36 85  1  0
 36 86  1  0
 37 87  1  0
 37 88  1  0
 37 89  1  0
 38 90  1  0
 38 91  1  0
 38 92  1  0
 39 93  1  0
 40 94  1  0
 41 95  1  0
 42 96  1  0
 43 97  1  0
 45 98  1  0
 47 99  1  0
 48100  1  0
 50101  1  1
 51102  1  6
M  END
> <Uni-Dock RESULT> 
ENERGY=   -5.527  LOWER_BOUND=    1.974  UPPER_BOUND=    3.401
INTER + INTRA:          -5.527
INTER:                  -5.527
INTRA:                   0.000
UNBOUND:                 0.000

$$$$

     RDKit          3D

102105  0  0  0  0  0  0  0  0999 V2000
   47.9445    7.9381   20.9131 N   0  0  0  0  0  0  0  0  0  0  0  0
   50.2486    5.8883   21.6417 S   0  0  0  0  0  0  0  0  0  0  0  0
   48.8006    8.2724   22.0139 C   0  0  0  0  0  0  0  0  0  0  0  0
   47.9757    6.7062   20.1881 C   0  0  0  0  0  0  0  0  0  0  0  0
   49.8466    7.4240   22.4289 C   0  0  0  0  0  0  0  0  0  0  0  0
   48.9524    5.7200   20.4430 C   0  0  0  0  0  0  0  0  0  0  0  0
   46.9909    8.9906   20.4763 C   0  0  0  0  0  0  0  0  0  0  0  0
   47.6651   10.1060   19.6380 C   0  0  1  0  0  0  0  0  0  0  0  0
   48.1652    9.5670   18.2777 C   0  0  0  0  0  0  0  0  0  0  0  0
   48.7462   10.5916   17.3848 N   0  0  0  0  0  0  0  0  0  0  0  0
   47.0367    6.3803   19.1795 C   0  0  0  0  0  0  0  0  0  0  0  0
   48.6506    9.4651   22.7633 C   0  0  0  0  0  0  0  0  0  0  0  0
   48.9772    4.5042   19.7257 C   0  0  0  0  0  0  0  0  0  0  0  0
   50.6774    7.7612   23.5191 C   0  0  0  0  0  0  0  0  0  0  0  0
   46.6646   11.2553   19.4499 C   0  0  0  0  0  0  0  0  0  0  0  0
   48.9682   10.0206   16.0522 C   0  0  0  0  0  0  0  0  0  0  0  0
   50.0141   11.1066   17.9104 C   0  0  0  0  0  0  0  0  0  0  0  0
   49.4778    9.7977   23.8451 C   0  0  0  0  0  0  0  0  0  0  0  0
   47.0643    5.1713   18.4688 C   0  0  0  0  0  0  0  0  0  0  0  0
   48.0371    4.2286   18.7431 C   0  0  0  0  0  0  0  0  0  0  0  0
   50.4955    8.9424   24.2250 C   0  0  0  0  0  0  0  0  0  0  0  0
   48.7357    9.4949   19.1193 N   0  0  0  0  0  0  0  0  0  0  0  0
   48.4830   11.8506   17.0104 S   0  0  0  0  0  0  0  0  0  0  0  0
   49.0517    9.1933   17.7590 C   0  0  0  0  0  0  0  0  0  0  0  0
   48.2727   10.7634   19.5995 C   0  0  0  0  0  0  0  0  0  0  0  0
   48.9736   10.1674   16.7416 C   0  0  0  0  0  0  0  0  0  0  0  0
   48.1103   11.8715   18.7437 C   0  0  0  0  0  0  0  0  0  0  0  0
   49.0326    8.4600   20.1501 C   0  0  0  0  0  0  0  0  0  0  0  0
   47.7700    7.6990   20.6183 C   0  0  2  0  0  0  0  0  0  0  0  0
   47.8931    7.1656   22.0709 C   0  0  0  0  0  0  0  0  0  0  0  0
   48.6721    5.9303   22.2817 N   0  0  0  0  0  0  0  0  0  0  0  0
   47.9384   10.9867   20.9575 C   0  0  0  0  0  0  0  0  0  0  0  0
   49.4521    7.9046   17.3329 C   0  0  0  0  0  0  0  0  0  0  0  0
   47.6426   13.1113   19.2310 C   0  0  0  0  0  0  0  0  0  0  0  0
   49.2962    9.8590   15.4026 C   0  0  0  0  0  0  0  0  0  0  0  0
   47.3372    6.5862   19.6601 C   0  0  0  0  0  0  0  0  0  0  0  0
   50.1186    6.1479   22.2501 C   0  0  0  0  0  0  0  0  0  0  0  0
   48.3115    5.3340   23.5752 C   0  0  0  0  0  0  0  0  0  0  0  0
   49.7679    7.5996   16.0015 C   0  0  0  0  0  0  0  0  0  0  0  0
   47.4720   12.2176   21.4383 C   0  0  0  0  0  0  0  0  0  0  0  0
   47.3231   13.2847   20.5714 C   0  0  0  0  0  0  0  0  0  0  0  0
   49.6933    8.5814   15.0323 C   0  0  0  0  0  0  0  0  0  0  0  0
   49.5101    9.8904   17.5116 O   0  0  0  0  0  0  0  0  0  0  0  0
   48.0464   11.0767   18.7079 O   0  0  0  0  0  0  0  0  0  0  0  0
   47.5742    6.6836   21.7461 O   0  0  0  0  0  0  0  0  0  0  0  0
   48.2031    8.6807   22.5329 O   0  0  0  0  0  0  0  0  0  0  0  0
   50.3416    8.3884   19.5420 O   0  0  0  0  0  0  0  0  0  0  0  0
   47.9680    7.2200   19.2273 O   0  0  0  0  0  0  0  0  0  0  0  0
   48.8571   10.1636   18.6606 C   0  0  0  0  0  0  0  0  0  0  0  0
   49.2077    9.2194   19.8058 C   0  0  1  0  0  0  0  0  0  0  0  0
   47.9753    8.3623   20.0988 C   0  0  2  0  0  0  0  0  0  0  0  0
   47.9622    7.9703   21.5723 C   0  0  0  0  0  0  0  0  0  0  0  0
   46.1289    8.6040   19.9292 H   0  0  0  0  0  0  0  0  0  0  0  0
   46.4880    9.4190   21.3521 H   0  0  0  0  0  0  0  0  0  0  0  0
   48.5200   10.5020   20.1964 H   0  0  0  0  0  0  0  0  0  0  0  0
   47.3047    9.1143   17.7673 H   0  0  0  0  0  0  0  0  0  0  0  0
   48.8988    8.7673   18.4362 H   0  0  0  0  0  0  0  0  0  0  0  0
   46.2331    7.0467   18.8913 H   0  0  0  0  0  0  0  0  0  0  0  0
   47.8793   10.1933   22.5382 H   0  0  0  0  0  0  0  0  0  0  0  0
   49.7428    3.7590   19.9369 H   0  0  0  0  0  0  0  0  0  0  0  0
   51.4811    7.0923   23.8234 H   0  0  0  0  0  0  0  0  0  0  0  0
   45.7966   10.9328   18.8643 H   0  0  0  0  0  0  0  0  0  0  0  0
   46.3050   11.6164   20.4197 H   0  0  0  0  0  0  0  0  0  0  0  0
   47.1245   12.1059   18.9364 H   0  0  0  0  0  0  0  0  0  0  0  0
   49.3650   10.7801   15.3683 H   0  0  0  0  0  0  0  0  0  0  0  0
   49.6668    9.1760   16.0737 H   0  0  0  0  0  0  0  0  0  0  0  0
   48.0230    9.6748   15.6185 H   0  0  0  0  0  0  0  0  0  0  0  0
   50.4508   11.8331   17.2155 H   0  0  0  0  0  0  0  0  0  0  0  0
   49.8647   11.6447   18.8515 H   0  0  0  0  0  0  0  0  0  0  0  0
   50.7485   10.3100   18.0768 H   0  0  0  0  0  0  0  0  0  0  0  0
   49.3171   10.7285   24.3837 H   0  0  0  0  0  0  0  0  0  0  0  0
   46.3166    4.9756   17.7035 H   0  0  0  0  0  0  0  0  0  0  0  0
   48.0681    3.2887   18.2004 H   0  0  0  0  0  0  0  0  0  0  0  0
   51.1427    9.1892   25.0611 H   0  0  0  0  0  0  0  0  0  0  0  0
   49.8070    7.7657   19.8190 H   0  0  0  0  0  0  0  0  0  0  0  0
   49.5274    8.9417   21.0037 H   0  0  0  0  0  0  0  0  0  0  0  0
   46.9310    8.4076   20.6397 H   0  0  0  0  0  0  0  0  0  0  0  0
   48.2481    7.9633   22.7377 H   0  0  0  0  0  0  0  0  0  0  0  0
   46.8580    6.9659   22.3855 H   0  0  0  0  0  0  0  0  0  0  0  0
   48.0163   10.2036   21.7025 H   0  0  0  0  0  0  0  0  0  0  0  0
   49.5208    7.0663   18.0156 H   0  0  0  0  0  0  0  0  0  0  0  0
   47.5238   13.9561   18.5544 H   0  0  0  0  0  0  0  0  0  0  0  0
   49.2358   10.6276   14.6337 H   0  0  0  0  0  0  0  0  0  0  0  0
   48.1301    5.8466   19.5114 H   0  0  0  0  0  0  0  0  0  0  0  0
   47.0576    6.9953   18.6848 H   0  0  0  0  0  0  0  0  0  0  0  0
   46.4591    6.0599   20.0499 H   0  0  0  0  0  0  0  0  0  0  0  0
   50.4618    6.3818   21.2413 H   0  0  0  0  0  0  0  0  0  0  0  0
   50.6548    5.2339   22.5331 H   0  0  0  0  0  0  0  0  0  0  0  0
   50.4342    6.9490   22.9290 H   0  0  0  0  0  0  0  0  0  0  0  0
   48.8359    4.3822   23.7206 H   0  0  0  0  0  0  0  0  0  0  0  0
   47.2401    5.1036   23.6124 H   0  0  0  0  0  0  0  0  0  0  0  0
   48.5549    5.9963   24.4155 H   0  0  0  0  0  0  0  0  0  0  0  0
   50.0646    6.5877   15.7340 H   0  0  0  0  0  0  0  0  0  0  0  0
   47.2259   12.3324   22.4908 H   0  0  0  0  0  0  0  0  0  0  0  0
   46.9623   14.2439   20.9306 H   0  0  0  0  0  0  0  0  0  0  0  0
   49.9359    8.3590   13.9976 H   0  0  0  0  0  0  0  0  0  0  0  0
   49.1914   10.5664   16.8779 H   0  0  0  0  0  0  0  0  0  0  0  0
   47.6127    6.5561   22.7198 H   0  0  0  0  0  0  0  0  0  0  0  0
   50.0727    7.8323   18.7833 H   0  0  0  0  0  0  0  0  0  0  0  0
   47.5273    6.5089   19.7371 H   0  0  0  0  0  0  0  0  0  0  0  0
   49.4803    9.8633   20.6488 H   0  0  0  0  0  0  0  0  0  0  0  0
   47.0404    8.9074   19.9263 H   0  0  0  0  0  0  0  0  0  0  0  0
 10  9  1  0
 11  4  2  0
 12  3  2  0
 13  6  2  0
 14  5  2  0
 15  8  1  0
 16 10  1  0
 17 10  1  0
 18 12  1  0
 19 11  1  0
 20 19  2  0
 21 18  2  0
  5  2  1  0
 13 20  1  0
 14 21  1  0
  2  6  1  0
  3  1  1  0
  4  1  1  0
  5  3  1  0
  6  4  1  0
  7  1  1  0
  8  7  1  0
  9  8  1  0
 31 30  1  0
 32 25  2  0
 33 24  2  0
 34 27  2  0
 35 26  2  0
 36 29  1  0
 37 31  1  0
 38 31  1  0
 39 33  1  0
 40 32  1  0
 41 40  2  0
 42 39  2  0
 26 23  1  0
 34 41  1  0
 35 42  1  0
 23 27  1  0
 24 22  1  0
 25 22  1  0
 26 24  1  0
 27 25  1  0
 28 22  1  0
 29 28  1  0
 30 29  1  0
 49 44  2  0
 50 47  1  0
 51 48  1  0
 49 43  1  0
 51 52  1  0
 50 51  1  0
 52 45  1  0
 49 50  1  0
 52 46  2  0
  7 53  1  0
  7 54  1  0
  8 55  1  1
  9 56  1  0
  9 57  1  0
 11 58  1  0
 12 59  1  0
 13 60  1  0
 14 61  1  0
 15 62  1  0
 15 63  1  0
 15 64  1  0
 16 65  1  0
 16 66  1  0
 16 67  1  0
 17 68  1  0
 17 69  1  0
 17 70  1  0
 18 71  1  0
 19 72  1  0
 20 73  1  0
 21 74  1  0
 28 75  1  0
 28 76  1  0
 29 77  1  6
 30 78  1  0
 30 79  1  0
 32 80  1  0
 33 81  1  0
 34 82  1  0
 35 83  1  0
 36 84  1  0
 36 85  1  0
 36 86  1  0
 37 87  1  0
 37 88  1  0
 37 89  1  0
 38 90  1  0
 38 91  1  0
 38 92  1  0
 39 93  1  0
 40 94  1  0
 41 95  1  0
 42 96  1  0
 43 97  1  0
 45 98  1  0
 47 99  1  0
 48100  1  0
 50101  1  1
 51102  1  6
M  END
> <Uni-Dock RESULT> 
ENERGY=   -5.385  LOWER_BOUND=    1.283  UPPER_BOUND=    6.114
INTER + INTRA:          -5.385
INTER:                  -5.385
INTRA:                   0.000
UNBOUND:                 0.000

$$$$

     RDKit          3D

102105  0  0  0  0  0  0  0  0999 V2000
   49.4977    6.4286   21.4170 N   0  0  0  0  0  0  0  0  0  0  0  0
   50.9719    9.1869   21.9265 S   0  0  0  0  0  0  0  0  0  0  0  0
   48.9551    7.5936   20.7808 C   0  0  0  0  0  0  0  0  0  0  0  0
   50.5820    6.4270   22.3489 C   0  0  0  0  0  0  0  0  0  0  0  0
   49.5260    8.8707   20.9524 C   0  0  0  0  0  0  0  0  0  0  0  0
   51.2974    7.6039   22.6566 C   0  0  0  0  0  0  0  0  0  0  0  0
   48.9031    5.1251   21.0232 C   0  0  0  0  0  0  0  0  0  0  0  0
   49.4011    4.6267   19.6429 C   0  0  1  0  0  0  0  0  0  0  0  0
   50.9064    4.2746   19.6783 C   0  0  0  0  0  0  0  0  0  0  0  0
   51.4373    3.7114   18.4191 N   0  0  0  0  0  0  0  0  0  0  0  0
   51.0100    5.2633   23.0329 C   0  0  0  0  0  0  0  0  0  0  0  0
   47.8093    7.5460   19.9492 C   0  0  0  0  0  0  0  0  0  0  0  0
   52.3659    7.5971   23.5794 C   0  0  0  0  0  0  0  0  0  0  0  0
   48.9774   10.0107   20.3266 C   0  0  0  0  0  0  0  0  0  0  0  0
   48.5544    3.4179   19.2196 C   0  0  0  0  0  0  0  0  0  0  0  0
   52.7957    3.2030   18.6364 C   0  0  0  0  0  0  0  0  0  0  0  0
   51.4585    4.7130   17.3488 C   0  0  0  0  0  0  0  0  0  0  0  0
   47.2672    8.6798   19.3284 C   0  0  0  0  0  0  0  0  0  0  0  0
   52.0721    5.2602   23.9491 C   0  0  0  0  0  0  0  0  0  0  0  0
   52.7524    6.4312   24.2250 C   0  0  0  0  0  0  0  0  0  0  0  0
   47.8533    9.9177   19.5177 C   0  0  0  0  0  0  0  0  0  0  0  0
   50.5881    5.2283   19.5098 N   0  0  0  0  0  0  0  0  0  0  0  0
   51.0544    2.8350   17.4811 S   0  0  0  0  0  0  0  0  0  0  0  0
   51.9005    4.6668   19.4493 C   0  0  0  0  0  0  0  0  0  0  0  0
   49.4564    4.7691   18.7601 C   0  0  0  0  0  0  0  0  0  0  0  0
   52.2162    3.6005   18.5813 C   0  0  0  0  0  0  0  0  0  0  0  0
   49.5511    3.7026   17.8433 C   0  0  0  0  0  0  0  0  0  0  0  0
   50.3979    6.4716   20.3096 C   0  0  0  0  0  0  0  0  0  0  0  0
   49.7338    6.2076   21.6814 C   0  0  2  0  0  0  0  0  0  0  0  0
   48.9258    7.4260   22.2031 C   0  0  0  0  0  0  0  0  0  0  0  0
   49.6807    8.5327   22.8217 N   0  0  0  0  0  0  0  0  0  0  0  0
   48.1697    5.3452   18.8954 C   0  0  0  0  0  0  0  0  0  0  0  0
   52.9687    5.1265   20.2558 C   0  0  0  0  0  0  0  0  0  0  0  0
   48.4238    3.2553   17.1206 C   0  0  0  0  0  0  0  0  0  0  0  0
   53.5187    3.0598   18.5248 C   0  0  0  0  0  0  0  0  0  0  0  0
   50.7109    5.7012   22.7456 C   0  0  0  0  0  0  0  0  0  0  0  0
   50.3378    9.4003   21.8439 C   0  0  0  0  0  0  0  0  0  0  0  0
   48.7767    9.3473   23.6450 C   0  0  0  0  0  0  0  0  0  0  0  0
   54.2606    4.5849   20.2010 C   0  0  0  0  0  0  0  0  0  0  0  0
   47.0517    4.8978   18.1786 C   0  0  0  0  0  0  0  0  0  0  0  0
   47.1790    3.8480   17.2875 C   0  0  0  0  0  0  0  0  0  0  0  0
   54.5384    3.5494   19.3296 C   0  0  0  0  0  0  0  0  0  0  0  0
   52.0218    4.5594   18.5943 O   0  0  0  0  0  0  0  0  0  0  0  0
   49.8827    3.9255   18.5343 O   0  0  0  0  0  0  0  0  0  0  0  0
   49.2150    7.1773   22.7453 O   0  0  0  0  0  0  0  0  0  0  0  0
   48.0909    7.3823   20.8225 O   0  0  0  0  0  0  0  0  0  0  0  0
   51.5434    6.9784   19.5891 O   0  0  0  0  0  0  0  0  0  0  0  0
   51.0853    5.6118   21.8298 O   0  0  0  0  0  0  0  0  0  0  0  0
   50.7118    4.7688   18.8421 C   0  0  0  0  0  0  0  0  0  0  0  0
   50.4237    6.0893   19.5487 C   0  0  1  0  0  0  0  0  0  0  0  0
   49.9476    5.7668   20.9660 C   0  0  2  0  0  0  0  0  0  0  0  0
   48.9957    6.8563   21.4471 C   0  0  0  0  0  0  0  0  0  0  0  0
   49.0472    4.3343   21.7619 H   0  0  0  0  0  0  0  0  0  0  0  0
   47.8087    5.2012   21.0322 H   0  0  0  0  0  0  0  0  0  0  0  0
   49.2408    5.4166   18.9014 H   0  0  0  0  0  0  0  0  0  0  0  0
   51.0516    3.5327   20.4748 H   0  0  0  0  0  0  0  0  0  0  0  0
   51.4935    5.1586   19.9551 H   0  0  0  0  0  0  0  0  0  0  0  0
   50.5421    4.2968   22.8920 H   0  0  0  0  0  0  0  0  0  0  0  0
   47.2838    6.6195   19.7457 H   0  0  0  0  0  0  0  0  0  0  0  0
   52.9062    8.5169   23.7988 H   0  0  0  0  0  0  0  0  0  0  0  0
   49.4343   10.9887   20.4711 H   0  0  0  0  0  0  0  0  0  0  0  0
   48.6974    2.5750   19.9046 H   0  0  0  0  0  0  0  0  0  0  0  0
   47.4895    3.6754   19.2153 H   0  0  0  0  0  0  0  0  0  0  0  0
   48.8121    3.0832   18.2096 H   0  0  0  0  0  0  0  0  0  0  0  0
   53.1889    2.7487   17.7194 H   0  0  0  0  0  0  0  0  0  0  0  0
   53.4876    3.9911   18.9559 H   0  0  0  0  0  0  0  0  0  0  0  0
   52.7953    2.4154   19.3984 H   0  0  0  0  0  0  0  0  0  0  0  0
   51.8939    4.2902   16.4361 H   0  0  0  0  0  0  0  0  0  0  0  0
   50.4457    5.0280   17.0793 H   0  0  0  0  0  0  0  0  0  0  0  0
   52.0387    5.6016   17.6234 H   0  0  0  0  0  0  0  0  0  0  0  0
   46.3861    8.5834   18.6987 H   0  0  0  0  0  0  0  0  0  0  0  0
   52.3573    4.3350   24.4447 H   0  0  0  0  0  0  0  0  0  0  0  0
   53.5754    6.4416   24.9330 H   0  0  0  0  0  0  0  0  0  0  0  0
   47.4427   10.8031   19.0420 H   0  0  0  0  0  0  0  0  0  0  0  0
   51.3302    7.0269   20.4272 H   0  0  0  0  0  0  0  0  0  0  0  0
   49.7981    7.1810   19.7246 H   0  0  0  0  0  0  0  0  0  0  0  0
   48.9968    5.4030   21.5563 H   0  0  0  0  0  0  0  0  0  0  0  0
   48.2629    7.8060   21.4136 H   0  0  0  0  0  0  0  0  0  0  0  0
   48.2539    7.0106   22.9688 H   0  0  0  0  0  0  0  0  0  0  0  0
   47.9786    6.1652   19.5776 H   0  0  0  0  0  0  0  0  0  0  0  0
   52.8433    5.9200   20.9825 H   0  0  0  0  0  0  0  0  0  0  0  0
   48.5167    2.4298   16.4166 H   0  0  0  0  0  0  0  0  0  0  0  0
   53.7429    2.2412   17.8427 H   0  0  0  0  0  0  0  0  0  0  0  0
   51.5341    6.4037   22.9090 H   0  0  0  0  0  0  0  0  0  0  0  0
   51.1331    4.7329   22.4612 H   0  0  0  0  0  0  0  0  0  0  0  0
   50.1995    5.5581   23.7037 H   0  0  0  0  0  0  0  0  0  0  0  0
   51.1718    8.8904   21.3595 H   0  0  0  0  0  0  0  0  0  0  0  0
   50.7804   10.2747   22.3365 H   0  0  0  0  0  0  0  0  0  0  0  0
   49.6446    9.7605   21.0745 H   0  0  0  0  0  0  0  0  0  0  0  0
   49.3332   10.1383   24.1615 H   0  0  0  0  0  0  0  0  0  0  0  0
   48.3089    8.7388   24.4281 H   0  0  0  0  0  0  0  0  0  0  0  0
   47.9844    9.8145   23.0467 H   0  0  0  0  0  0  0  0  0  0  0  0
   55.0398    4.9776   20.8508 H   0  0  0  0  0  0  0  0  0  0  0  0
   46.0857    5.3743   18.3247 H   0  0  0  0  0  0  0  0  0  0  0  0
   46.3207    3.4912   16.7260 H   0  0  0  0  0  0  0  0  0  0  0  0
   55.5348    3.1213   19.2764 H   0  0  0  0  0  0  0  0  0  0  0  0
   52.0536    3.6895   18.1444 H   0  0  0  0  0  0  0  0  0  0  0  0
   48.5539    7.8811   22.9283 H   0  0  0  0  0  0  0  0  0  0  0  0
   52.2165    6.5086   20.1215 H   0  0  0  0  0  0  0  0  0  0  0  0
   50.7810    5.9063   22.7132 H   0  0  0  0  0  0  0  0  0  0  0  0
   49.6518    6.5844   18.9499 H   0  0  0  0  0  0  0  0  0  0  0  0
   49.3780    4.8316   21.0095 H   0  0  0  0  0  0  0  0  0  0  0  0
 10  9  1  0
 11  4  2  0
 12  3  2  0
 13  6  2  0
 14  5  2  0
 15  8  1  0
 16 10  1  0
 17 10  1  0
 18 12  1  0
 19 11  1  0
 20 19  2  0
 21 18  2  0
  5  2  1  0
 13 20  1  0
 14 21  1  0
  2  6  1  0
  3  1  1  0
  4  1  1  0
  5  3  1  0
  6  4  1  0
  7  1  1  0
  8  7  1  0
  9  8  1  0
 31 30  1  0
 32 25  2  0
 33 24  2  0
 34 27  2  0
 35 26  2  0
 36 29  1  0
 37 31  1  0
 38 31  1  0
 39 33  1  0
 40 32  1  0
 41 40  2  0
 42 39  2  0
 26 23  1  0
 34 41  1  0
 35 42  1  0
 23 27  1  0
 24 22  1  0
 25 22  1  0
 26 24  1  0
 27 25  1  0
 28 22  1  0
 29 28  1  0
 30 29  1  0
 49 44  2  0
 50 47  1  0
 51 48  1  0
 49 43  1  0
 51 52  1  0
 50 51  1  0
 52 45  1  0
 49 50  1  0
 52 46  2  0
  7 53  1  0
  7 54  1  0
  8 55  1  1
  9 56  1  0
  9 57  1  0
 11 58  1  0
 12 59  1  0
 13 60  1  0
 14 61  1  0
 15 62  1  0
 15 63  1  0
 15 64  1  0
 16 65  1  0
 16 66  1  0
 16 67  1  0
 17 68  1  0
 17 69  1  0
 17 70  1  0
 18 71  1  0
 19 72  1  0
 20 73  1  0
 21 74  1  0
 28 75  1  0
 28 76  1  0
 29 77  1  6
 30 78  1  0
 30 79  1  0
 32 80  1  0
 33 81  1  0
 34 82  1  0
 35 83  1  0
 36 84  1  0
 36 85  1  0
 36 86  1  0
 37 87  1  0
 37 88  1  0
 37 89  1  0
 38 90  1  0
 38 91  1  0
 38 92  1  0
 39 93  1  0
 40 94  1  0
 41 95  1  0
 42 96  1  0
 43 97  1  0
 45 98  1  0
 47 99  1  0
 48100  1  0
 50101  1  1
 51102  1  6
M  END
> <Uni-Dock RESULT> 
ENERGY=   -5.180  LOWER_BOUND=    2.777  UPPER_BOUND=    5.442
INTER + INTRA:          -5.180
INTER:                  -5.180
INTRA:                   0.000
UNBOUND:                 0.000

$$$$

     RDKit          3D

102105  0  0  0  0  0  0  0  0999 V2000
   48.4945    9.3796   13.7203 N   0  0  0  0  0  0  0  0  0  0  0  0
   51.4843    8.4294   13.2736 S   0  0  0  0  0  0  0  0  0  0  0  0
   49.2097    9.9501   12.6159 C   0  0  0  0  0  0  0  0  0  0  0  0
   49.0537    8.5013   14.7001 C   0  0  0  0  0  0  0  0  0  0  0  0
   50.5478    9.6066   12.3373 C   0  0  0  0  0  0  0  0  0  0  0  0
   50.3800    8.0290   14.6023 C   0  0  0  0  0  0  0  0  0  0  0  0
   47.0462    9.7004   13.8041 C   0  0  0  0  0  0  0  0  0  0  0  0
   46.1883    8.8860   12.8030 C   0  0  1  0  0  0  0  0  0  0  0  0
   46.1858    7.3802   13.1550 C   0  0  0  0  0  0  0  0  0  0  0  0
   45.3201    6.5475   12.2936 N   0  0  0  0  0  0  0  0  0  0  0  0
   48.3341    8.0514   15.8337 C   0  0  0  0  0  0  0  0  0  0  0  0
   48.6300   10.9001   11.7395 C   0  0  0  0  0  0  0  0  0  0  0  0
   50.9280    7.1638   15.5740 C   0  0  0  0  0  0  0  0  0  0  0  0
   51.2430   10.1813   11.2516 C   0  0  0  0  0  0  0  0  0  0  0  0
   44.7642    9.4596   12.7924 C   0  0  0  0  0  0  0  0  0  0  0  0
   45.2126    5.1970   12.8553 C   0  0  0  0  0  0  0  0  0  0  0  0
   45.8418    6.4652   10.9260 C   0  0  0  0  0  0  0  0  0  0  0  0
   49.3227   11.4686   10.6616 C   0  0  0  0  0  0  0  0  0  0  0  0
   48.8818    7.1916   16.7972 C   0  0  0  0  0  0  0  0  0  0  0  0
   50.1839    6.7466   16.6684 C   0  0  0  0  0  0  0  0  0  0  0  0
   50.6348   11.1081   10.4163 C   0  0  0  0  0  0  0  0  0  0  0  0
   46.9258    7.7914   12.5871 N   0  0  0  0  0  0  0  0  0  0  0  0
   44.1029    6.6198   11.7387 S   0  0  0  0  0  0  0  0  0  0  0  0
   46.6589    6.4257   12.9110 C   0  0  0  0  0  0  0  0  0  0  0  0
   46.0052    8.6855   11.9492 C   0  0  0  0  0  0  0  0  0  0  0  0
   45.4363    5.8056   12.5787 C   0  0  0  0  0  0  0  0  0  0  0  0
   44.7198    8.2708   11.5460 C   0  0  0  0  0  0  0  0  0  0  0  0
   48.3096    8.3015   12.8025 C   0  0  0  0  0  0  0  0  0  0  0  0
   48.4385    9.1690   14.0767 C   0  0  2  0  0  0  0  0  0  0  0  0
   49.5729   10.2236   13.9743 C   0  0  0  0  0  0  0  0  0  0  0  0
   50.9572    9.7617   14.1922 N   0  0  0  0  0  0  0  0  0  0  0  0
   46.3180   10.0424   11.6906 C   0  0  0  0  0  0  0  0  0  0  0  0
   47.5880    5.6042   13.5928 C   0  0  0  0  0  0  0  0  0  0  0  0
   43.8208    9.1675   10.9285 C   0  0  0  0  0  0  0  0  0  0  0  0
   45.1877    4.4531   12.8970 C   0  0  0  0  0  0  0  0  0  0  0  0
   48.5660    8.3493   15.3633 C   0  0  0  0  0  0  0  0  0  0  0  0
   51.5197    9.0600   13.0381 C   0  0  0  0  0  0  0  0  0  0  0  0
   51.8161   10.9100   14.5123 C   0  0  0  0  0  0  0  0  0  0  0  0
   47.3371    4.2622   13.9117 C   0  0  0  0  0  0  0  0  0  0  0  0
   45.4230   10.9310   11.0798 C   0  0  0  0  0  0  0  0  0  0  0  0
   44.1687   10.4920   10.6972 C   0  0  0  0  0  0  0  0  0  0  0  0
   46.1335    3.6826   13.5595 C   0  0  0  0  0  0  0  0  0  0  0  0
   46.2725    6.1313   12.1890 O   0  0  0  0  0  0  0  0  0  0  0  0
   45.2425    8.1102   12.1274 O   0  0  0  0  0  0  0  0  0  0  0  0
   49.6042   10.0101   14.6011 O   0  0  0  0  0  0  0  0  0  0  0  0
   48.8584   10.7683   12.6335 O   0  0  0  0  0  0  0  0  0  0  0  0
   48.7374    7.1231   12.0838 O   0  0  0  0  0  0  0  0  0  0  0  0
   48.2249    7.7999   14.6092 O   0  0  0  0  0  0  0  0  0  0  0  0
   46.2888    7.4807   12.1748 C   0  0  0  0  0  0  0  0  0  0  0  0
   47.6888    8.0792   12.2631 C   0  0  1  0  0  0  0  0  0  0  0  0
   47.8191    8.7643   13.6244 C   0  0  2  0  0  0  0  0  0  0  0  0
   48.7925    9.9331   13.5187 C   0  0  0  0  0  0  0  0  0  0  0  0
   46.6278    9.5891   14.8063 H   0  0  0  0  0  0  0  0  0  0  0  0
   46.8974   10.7765   13.6509 H   0  0  0  0  0  0  0  0  0  0  0  0
   46.6016    9.0124   11.7967 H   0  0  0  0  0  0  0  0  0  0  0  0
   45.8332    7.2855   14.1906 H   0  0  0  0  0  0  0  0  0  0  0  0
   47.2088    6.9857   13.1290 H   0  0  0  0  0  0  0  0  0  0  0  0
   47.3102    8.3442   16.0303 H   0  0  0  0  0  0  0  0  0  0  0  0
   47.6078   11.2426   11.8564 H   0  0  0  0  0  0  0  0  0  0  0  0
   51.9530    6.8089   15.4760 H   0  0  0  0  0  0  0  0  0  0  0  0
   52.2765    9.9016   11.0524 H   0  0  0  0  0  0  0  0  0  0  0  0
   44.2786    9.3318   13.7660 H   0  0  0  0  0  0  0  0  0  0  0  0
   44.7812   10.5299   12.5590 H   0  0  0  0  0  0  0  0  0  0  0  0
   44.1421    8.9716   12.0351 H   0  0  0  0  0  0  0  0  0  0  0  0
   44.5434    4.5780   12.2462 H   0  0  0  0  0  0  0  0  0  0  0  0
   46.1853    4.6952   12.9186 H   0  0  0  0  0  0  0  0  0  0  0  0
   44.7765    5.2309   13.8601 H   0  0  0  0  0  0  0  0  0  0  0  0
   45.2113    5.8104   10.3135 H   0  0  0  0  0  0  0  0  0  0  0  0
   45.8244    7.4428   10.4346 H   0  0  0  0  0  0  0  0  0  0  0  0
   46.8667    6.0776   10.8954 H   0  0  0  0  0  0  0  0  0  0  0  0
   48.8263   12.1926   10.0201 H   0  0  0  0  0  0  0  0  0  0  0  0
   48.2808    6.8784   17.6479 H   0  0  0  0  0  0  0  0  0  0  0  0
   50.6192    6.0818   17.4082 H   0  0  0  0  0  0  0  0  0  0  0  0
   51.1816   11.5415    9.5844 H   0  0  0  0  0  0  0  0  0  0  0  0
   49.0455    7.4954   12.8026 H   0  0  0  0  0  0  0  0  0  0  0  0
   48.6183    8.8735   11.9177 H   0  0  0  0  0  0  0  0  0  0  0  0
   47.5128    9.7490   14.1915 H   0  0  0  0  0  0  0  0  0  0  0  0
   49.4947   10.7721   13.0256 H   0  0  0  0  0  0  0  0  0  0  0  0
   49.3405   10.9630   14.7551 H   0  0  0  0  0  0  0  0  0  0  0  0
   47.2741   10.4719   11.9659 H   0  0  0  0  0  0  0  0  0  0  0  0
   48.5496    5.9745   13.9269 H   0  0  0  0  0  0  0  0  0  0  0  0
   42.8319    8.8285   10.6239 H   0  0  0  0  0  0  0  0  0  0  0  0
   44.2397    3.9917   12.6252 H   0  0  0  0  0  0  0  0  0  0  0  0
   49.4304    7.6785   15.3340 H   0  0  0  0  0  0  0  0  0  0  0  0
   47.6678    7.7495   15.5368 H   0  0  0  0  0  0  0  0  0  0  0  0
   48.6839    9.0072   16.2312 H   0  0  0  0  0  0  0  0  0  0  0  0
   51.0476    8.0865   12.8981 H   0  0  0  0  0  0  0  0  0  0  0  0
   52.5838    8.8453   13.1952 H   0  0  0  0  0  0  0  0  0  0  0  0
   51.4247    9.6390   12.1118 H   0  0  0  0  0  0  0  0  0  0  0  0
   52.8363   10.5774   14.7378 H   0  0  0  0  0  0  0  0  0  0  0  0
   51.4559   11.4273   15.4096 H   0  0  0  0  0  0  0  0  0  0  0  0
   51.8610   11.6326   13.6879 H   0  0  0  0  0  0  0  0  0  0  0  0
   48.0894    3.6826   14.4424 H   0  0  0  0  0  0  0  0  0  0  0  0
   45.7140   11.9643   10.9089 H   0  0  0  0  0  0  0  0  0  0  0  0
   43.4653   11.1701   10.2233 H   0  0  0  0  0  0  0  0  0  0  0  0
   45.9266    2.6441   13.7996 H   0  0  0  0  0  0  0  0  0  0  0  0
   45.3241    5.8936   12.1260 H   0  0  0  0  0  0  0  0  0  0  0  0
   50.1767   10.7858   14.4109 H   0  0  0  0  0  0  0  0  0  0  0  0
   48.6419    6.5036   12.8350 H   0  0  0  0  0  0  0  0  0  0  0  0
   48.7546    8.3038   15.2613 H   0  0  0  0  0  0  0  0  0  0  0  0
   47.7630    8.7858   11.4296 H   0  0  0  0  0  0  0  0  0  0  0  0
   46.8706    9.1951   13.9644 H   0  0  0  0  0  0  0  0  0  0  0  0
 10  9  1  0
 11  4  2  0
 12  3  2  0
 13  6  2  0
 14  5  2  0
 15  8  1  0
 16 10  1  0
 17 10  1  0
 18 12  1  0
 19 11  1  0
 20 19  2  0
 21 18  2  0
  5  2  1  0
 13 20  1  0
 14 21  1  0
  2  6  1  0
  3  1  1  0
  4  1  1  0
  5  3  1  0
  6  4  1  0
  7  1  1  0
  8  7  1  0
  9  8  1  0
 31 30  1  0
 32 25  2  0
 33 24  2  0
 34 27  2  0
 35 26  2  0
 36 29  1  0
 37 31  1  0
 38 31  1  0
 39 33  1  0
 40 32  1  0
 41 40  2  0
 42 39  2  0
 26 23  1  0
 34 41  1  0
 35 42  1  0
 23 27  1  0
 24 22  1  0
 25 22  1  0
 26 24  1  0
 27 25  1  0
 28 22  1  0
 29 28  1  0
 30 29  1  0
 49 44  2  0
 50 47  1  0
 51 48  1  0
 49 43  1  0
 51 52  1  0
 50 51  1  0
 52 45  1  0
 49 50  1  0
 52 46  2  0
  7 53  1  0
  7 54  1  0
  8 55  1  1
  9 56  1  0
  9 57  1  0
 11 58  1  0
 12 59  1  0
 13 60  1  0
 14 61  1  0
 15 62  1  0
 15 63  1  0
 15 64  1  0
 16 65  1  0
 16 66  1  0
 16 67  1  0
 17 68  1  0
 17 69  1  0
 17 70  1  0
 18 71  1  0
 19 72  1  0
 20 73  1  0
 21 74  1  0
 28 75  1  0
 28 76  1  0
 29 77  1  6
 30 78  1  0
 30 79  1  0
 32 80  1  0
 33 81  1  0
 34 82  1  0
 35 83  1  0
 36 84  1  0
 36 85  1  0
 36 86  1  0
 37 87  1  0
 37 88  1  0
 37 89  1  0
 38 90  1  0
 38 91  1  0
 38 92  1  0
 39 93  1  0
 40 94  1  0
 41 95  1  0
 42 96  1  0
 43 97  1  0
 45 98  1  0
 47 99  1  0
 48100  1  0
 50101  1  1
 51102  1  6
M  END
> <Uni-Dock RESULT> 
ENERGY=   -5.120  LOWER_BOUND=    5.113  UPPER_BOUND=    7.632
INTER + INTRA:          -5.120
INTER:                  -5.120
INTRA:                   0.000
UNBOUND:                 0.000

$$$$

     RDKit          3D

102105  0  0  0  0  0  0  0  0999 V2000
   50.8921    8.4571   16.0847 N   0  0  0  0  0  0  0  0  0  0  0  0
   48.2659   10.1334   16.6630 S   0  0  0  0  0  0  0  0  0  0  0  0
   50.9581    9.4511   17.1163 C   0  0  0  0  0  0  0  0  0  0  0  0
   49.7734    8.2359   15.2224 C   0  0  0  0  0  0  0  0  0  0  0  0
   49.8516   10.2604   17.4434 C   0  0  0  0  0  0  0  0  0  0  0  0
   48.5606    8.9390   15.3856 C   0  0  0  0  0  0  0  0  0  0  0  0
   52.0725    7.5642   15.9531 C   0  0  0  0  0  0  0  0  0  0  0  0
   52.1191    6.4607   17.0400 C   0  0  1  0  0  0  0  0  0  0  0  0
   50.9575    5.4536   16.8735 C   0  0  0  0  0  0  0  0  0  0  0  0
   50.9822    4.3219   17.8239 N   0  0  0  0  0  0  0  0  0  0  0  0
   49.7979    7.3148   14.1472 C   0  0  0  0  0  0  0  0  0  0  0  0
   52.1342    9.6957   17.8671 C   0  0  0  0  0  0  0  0  0  0  0  0
   47.4597    8.7185   14.5297 C   0  0  0  0  0  0  0  0  0  0  0  0
   49.9321   11.2406   18.4558 C   0  0  0  0  0  0  0  0  0  0  0  0
   53.4823    5.7576   16.9716 C   0  0  0  0  0  0  0  0  0  0  0  0
   49.9855    3.3207   17.4296 C   0  0  0  0  0  0  0  0  0  0  0  0
   50.7104    4.7647   19.1947 C   0  0  0  0  0  0  0  0  0  0  0  0
   52.2109   10.6694   18.8726 C   0  0  0  0  0  0  0  0  0  0  0  0
   48.7021    7.0982   13.2988 C   0  0  0  0  0  0  0  0  0  0  0  0
   47.5286    7.8031   13.4892 C   0  0  0  0  0  0  0  0  0  0  0  0
   51.1055   11.4455   19.1684 C   0  0  0  0  0  0  0  0  0  0  0  0
   50.8362    6.3228   17.3920 N   0  0  0  0  0  0  0  0  0  0  0  0
   51.8861    3.4898   18.3579 S   0  0  0  0  0  0  0  0  0  0  0  0
   49.9554    5.2090   17.2346 C   0  0  0  0  0  0  0  0  0  0  0  0
   52.1706    6.2555   17.9107 C   0  0  0  0  0  0  0  0  0  0  0  0
   50.3222    3.9061   17.6317 C   0  0  0  0  0  0  0  0  0  0  0  0
   52.7394    5.0440   18.3528 C   0  0  0  0  0  0  0  0  0  0  0  0
   50.2927    7.6848   17.1254 C   0  0  0  0  0  0  0  0  0  0  0  0
   50.7367    8.2513   15.7562 C   0  0  2  0  0  0  0  0  0  0  0  0
   50.7952    9.8023   15.7372 C   0  0  0  0  0  0  0  0  0  0  0  0
   49.5219   10.5326   15.5860 N   0  0  0  0  0  0  0  0  0  0  0  0
   53.0085    7.3935   18.0046 C   0  0  0  0  0  0  0  0  0  0  0  0
   48.6658    5.3266   16.6637 C   0  0  0  0  0  0  0  0  0  0  0  0
   54.0594    4.9932   18.8509 C   0  0  0  0  0  0  0  0  0  0  0  0
   49.4399    2.8151   17.4784 C   0  0  0  0  0  0  0  0  0  0  0  0
   49.9147    7.7189   14.5794 C   0  0  0  0  0  0  0  0  0  0  0  0
   48.7384   10.5877   16.8205 C   0  0  0  0  0  0  0  0  0  0  0  0
   49.7905   11.9047   15.1345 C   0  0  0  0  0  0  0  0  0  0  0  0
   47.7928    4.2407   16.5084 C   0  0  0  0  0  0  0  0  0  0  0  0
   54.3193    7.3399   18.4971 C   0  0  0  0  0  0  0  0  0  0  0  0
   54.8475    6.1346   18.9220 C   0  0  0  0  0  0  0  0  0  0  0  0
   48.1794    2.9799   16.9205 C   0  0  0  0  0  0  0  0  0  0  0  0
   50.0568    4.7793   17.9844 O   0  0  0  0  0  0  0  0  0  0  0  0
   52.2210    5.2916   17.7986 O   0  0  0  0  0  0  0  0  0  0  0  0
   50.5543    9.6404   15.1411 O   0  0  0  0  0  0  0  0  0  0  0  0
   51.8000    9.7161   16.9973 O   0  0  0  0  0  0  0  0  0  0  0  0
   49.1979    7.2957   17.9846 O   0  0  0  0  0  0  0  0  0  0  0  0
   49.7983    7.1600   15.3924 O   0  0  0  0  0  0  0  0  0  0  0  0
   51.0596    5.6699   17.8348 C   0  0  0  0  0  0  0  0  0  0  0  0
   50.5839    7.1110   17.6837 C   0  0  1  0  0  0  0  0  0  0  0  0
   50.8818    7.5535   16.2502 C   0  0  2  0  0  0  0  0  0  0  0  0
   51.1317    9.0573   16.2196 C   0  0  0  0  0  0  0  0  0  0  0  0
   52.1664    7.1008   14.9691 H   0  0  0  0  0  0  0  0  0  0  0  0
   52.9917    8.1628   15.9736 H   0  0  0  0  0  0  0  0  0  0  0  0
   52.0402    6.9304   18.0262 H   0  0  0  0  0  0  0  0  0  0  0  0
   51.0177    5.0483   15.8547 H   0  0  0  0  0  0  0  0  0  0  0  0
   49.9948    5.9726   16.9538 H   0  0  0  0  0  0  0  0  0  0  0  0
   50.6687    6.7163   13.9098 H   0  0  0  0  0  0  0  0  0  0  0  0
   53.0487    9.1367   17.7029 H   0  0  0  0  0  0  0  0  0  0  0  0
   46.5322    9.2702   14.6767 H   0  0  0  0  0  0  0  0  0  0  0  0
   49.0652   11.8550   18.6942 H   0  0  0  0  0  0  0  0  0  0  0  0
   53.6106    5.2347   16.0175 H   0  0  0  0  0  0  0  0  0  0  0  0
   54.2964    6.4836   17.0735 H   0  0  0  0  0  0  0  0  0  0  0  0
   53.5960    5.0263   17.7784 H   0  0  0  0  0  0  0  0  0  0  0  0
   50.0177    2.4576   18.1049 H   0  0  0  0  0  0  0  0  0  0  0  0
   48.9666    3.7253   17.4340 H   0  0  0  0  0  0  0  0  0  0  0  0
   50.1998    2.9381   16.4253 H   0  0  0  0  0  0  0  0  0  0  0  0
   50.6906    3.9079   19.8780 H   0  0  0  0  0  0  0  0  0  0  0  0
   51.5023    5.4238   19.5637 H   0  0  0  0  0  0  0  0  0  0  0  0
   49.7519    5.2900   19.2788 H   0  0  0  0  0  0  0  0  0  0  0  0
   53.1404   10.8126   19.4182 H   0  0  0  0  0  0  0  0  0  0  0  0
   48.7787    6.3766   12.4885 H   0  0  0  0  0  0  0  0  0  0  0  0
   46.6741    7.6449   12.8384 H   0  0  0  0  0  0  0  0  0  0  0  0
   51.1527   12.2027   19.9450 H   0  0  0  0  0  0  0  0  0  0  0  0
   49.2065    7.7172   17.2280 H   0  0  0  0  0  0  0  0  0  0  0  0
   50.6047    8.3560   17.9362 H   0  0  0  0  0  0  0  0  0  0  0  0
   51.7663    7.9199   15.5658 H   0  0  0  0  0  0  0  0  0  0  0  0
   51.3489   10.1704   16.6118 H   0  0  0  0  0  0  0  0  0  0  0  0
   51.4269   10.0491   14.8709 H   0  0  0  0  0  0  0  0  0  0  0  0
   52.6785    8.3751   17.6855 H   0  0  0  0  0  0  0  0  0  0  0  0
   48.2822    6.2695   16.2934 H   0  0  0  0  0  0  0  0  0  0  0  0
   54.4816    4.0478   19.1880 H   0  0  0  0  0  0  0  0  0  0  0  0
   49.7403    1.8186   17.7979 H   0  0  0  0  0  0  0  0  0  0  0  0
   48.8488    7.9385   14.6957 H   0  0  0  0  0  0  0  0  0  0  0  0
   50.0360    6.6368   14.4742 H   0  0  0  0  0  0  0  0  0  0  0  0
   50.2478    8.1711   13.6389 H   0  0  0  0  0  0  0  0  0  0  0  0
   48.3306    9.6082   17.0745 H   0  0  0  0  0  0  0  0  0  0  0  0
   47.8660   11.2410   16.6976 H   0  0  0  0  0  0  0  0  0  0  0  0
   49.3238   10.9613   17.6690 H   0  0  0  0  0  0  0  0  0  0  0  0
   48.8518   12.4431   14.9577 H   0  0  0  0  0  0  0  0  0  0  0  0
   50.3279   11.9018   14.1788 H   0  0  0  0  0  0  0  0  0  0  0  0
   50.3823   12.4698   15.8654 H   0  0  0  0  0  0  0  0  0  0  0  0
   46.8148    4.3931   16.0569 H   0  0  0  0  0  0  0  0  0  0  0  0
   54.9203    8.2445   18.5433 H   0  0  0  0  0  0  0  0  0  0  0  0
   55.8619    6.0789   19.3055 H   0  0  0  0  0  0  0  0  0  0  0  0
   47.5128    2.1305   16.8069 H   0  0  0  0  0  0  0  0  0  0  0  0
   50.5052    3.9122   18.0696 H   0  0  0  0  0  0  0  0  0  0  0  0
   50.7798   10.5919   15.2395 H   0  0  0  0  0  0  0  0  0  0  0  0
   48.7236    6.7647   17.3136 H   0  0  0  0  0  0  0  0  0  0  0  0
   49.7670    7.8395   14.6874 H   0  0  0  0  0  0  0  0  0  0  0  0
   51.1455    7.6886   18.4257 H   0  0  0  0  0  0  0  0  0  0  0  0
   51.7930    7.0911   15.8542 H   0  0  0  0  0  0  0  0  0  0  0  0
 10  9  1  0
 11  4  2  0
 12  3  2  0
 13  6  2  0
 14  5  2  0
 15  8  1  0
 16 10  1  0
 17 10  1  0
 18 12  1  0
 19 11  1  0
 20 19  2  0
 21 18  2  0
  5  2  1  0
 13 20  1  0
 14 21  1  0
  2  6  1  0
  3  1  1  0
  4  1  1  0
  5  3  1  0
  6  4  1  0
  7  1  1  0
  8  7  1  0
  9  8  1  0
 31 30  1  0
 32 25  2  0
 33 24  2  0
 34 27  2  0
 35 26  2  0
 36 29  1  0
 37 31  1  0
 38 31  1  0
 39 33  1  0
 40 32  1  0
 41 40  2  0
 42 39  2  0
 26 23  1  0
 34 41  1  0
 35 42  1  0
 23 27  1  0
 24 22  1  0
 25 22  1  0
 26 24  1  0
 27 25  1  0
 28 22  1  0
 29 28  1  0
 30 29  1  0
 49 44  2  0
 50 47  1  0
 51 48  1  0
 49 43  1  0
 51 52  1  0
 50 51  1  0
 52 45  1  0
 49 50  1  0
 52 46  2  0
  7 53  1  0
  7 54  1  0
  8 55  1  1
  9 56  1  0
  9 57  1  0
 11 58  1  0
 12 59  1  0
 13 60  1  0
 14 61  1  0
 15 62  1  0
 15 63  1  0
 15 64  1  0
 16 65  1  0
 16 66  1  0
 16 67  1  0
 17 68  1  0
 17 69  1  0
 17 70  1  0
 18 71  1  0
 19 72  1  0
 20 73  1  0
 21 74  1  0
 28 75  1  0
 28 76  1  0
 29 77  1  6
 30 78  1  0
 30 79  1  0
 32 80  1  0
 33 81  1  0
 34 82  1  0
 35 83  1  0
 36 84  1  0
 36 85  1  0
 36 86  1  0
 37 87  1  0
 37 88  1  0
 37 89  1  0
 38 90  1  0
 38 91  1  0
 38 92  1  0
 39 93  1  0
 40 94  1  0
 41 95  1  0
 42 96  1  0
 43 97  1  0
 45 98  1  0
 47 99  1  0
 48100  1  0
 50101  1  1
 51102  1  6
M  END
> <Uni-Dock RESULT> 
ENERGY=   -4.797  LOWER_BOUND=    3.215  UPPER_BOUND=    5.023
INTER + INTRA:          -4.797
INTER:                  -4.797
INTRA:                   0.000
UNBOUND:                 0.000

$$$$

     RDKit          3D

102105  0  0  0  0  0  0  0  0999 V2000
   47.9408    8.8800   20.6930 N   0  0  0  0  0  0  0  0  0  0  0  0
   49.4572    8.0026   23.3335 S   0  0  0  0  0  0  0  0  0  0  0  0
   48.2811    9.9099   21.6311 C   0  0  0  0  0  0  0  0  0  0  0  0
   48.1312    7.4784   20.9014 C   0  0  0  0  0  0  0  0  0  0  0  0
   48.9434    9.6256   22.8422 C   0  0  0  0  0  0  0  0  0  0  0  0
   48.7832    6.9810   22.0500 C   0  0  0  0  0  0  0  0  0  0  0  0
   47.3949    9.3319   19.3871 C   0  0  0  0  0  0  0  0  0  0  0  0
   48.4878    9.8697   18.4292 C   0  0  1  0  0  0  0  0  0  0  0  0
   49.4509    8.7456   17.9821 C   0  0  0  0  0  0  0  0  0  0  0  0
   50.4727    9.1641   16.9995 N   0  0  0  0  0  0  0  0  0  0  0  0
   47.6784    6.4940   19.9897 C   0  0  0  0  0  0  0  0  0  0  0  0
   47.9690   11.2744   21.4138 C   0  0  0  0  0  0  0  0  0  0  0  0
   48.9665    5.5959   22.2521 C   0  0  0  0  0  0  0  0  0  0  0  0
   49.2658   10.6479   23.7607 C   0  0  0  0  0  0  0  0  0  0  0  0
   47.8055   10.5329   17.2243 C   0  0  0  0  0  0  0  0  0  0  0  0
   51.1706    7.9850   16.4763 C   0  0  0  0  0  0  0  0  0  0  0  0
   51.4483   10.0816   17.5958 C   0  0  0  0  0  0  0  0  0  0  0  0
   48.2912   12.2875   22.3274 C   0  0  0  0  0  0  0  0  0  0  0  0
   47.8624    5.1184   20.1936 C   0  0  0  0  0  0  0  0  0  0  0  0
   48.5076    4.6667   21.3293 C   0  0  0  0  0  0  0  0  0  0  0  0
   48.9422   11.9733   23.5061 C   0  0  0  0  0  0  0  0  0  0  0  0
   49.5969    9.2543   18.8533 N   0  0  0  0  0  0  0  0  0  0  0  0
   50.5443    9.9295   15.9024 S   0  0  0  0  0  0  0  0  0  0  0  0
   50.4228    8.2928   18.1941 C   0  0  0  0  0  0  0  0  0  0  0  0
   49.1272   10.4778   18.2734 C   0  0  0  0  0  0  0  0  0  0  0  0
   50.8999    8.4941   16.8819 C   0  0  0  0  0  0  0  0  0  0  0  0
   49.4759   10.8653   16.9638 C   0  0  0  0  0  0  0  0  0  0  0  0
   49.3033    9.0465   20.2997 C   0  0  0  0  0  0  0  0  0  0  0  0
   47.8812    8.4919   20.5504 C   0  0  2  0  0  0  0  0  0  0  0  0
   47.3116    8.9003   21.9354 C   0  0  0  0  0  0  0  0  0  0  0  0
   47.7753    8.1446   23.1149 N   0  0  0  0  0  0  0  0  0  0  0  0
   48.2766   11.3718   18.9685 C   0  0  0  0  0  0  0  0  0  0  0  0
   50.8109    7.0733   18.7982 C   0  0  0  0  0  0  0  0  0  0  0  0
   48.9956   12.0689   16.4035 C   0  0  0  0  0  0  0  0  0  0  0  0
   51.7219    7.5401   16.2443 C   0  0  0  0  0  0  0  0  0  0  0  0
   47.7683    6.9804   20.3347 C   0  0  0  0  0  0  0  0  0  0  0  0
   49.1127    8.5354   23.5613 C   0  0  0  0  0  0  0  0  0  0  0  0
   46.8317    8.3345   24.2250 C   0  0  0  0  0  0  0  0  0  0  0  0
   51.6239    6.1253   18.1612 C   0  0  0  0  0  0  0  0  0  0  0  0
   47.7991   12.5647   18.4091 C   0  0  0  0  0  0  0  0  0  0  0  0
   48.1598   12.9149   17.1209 C   0  0  0  0  0  0  0  0  0  0  0  0
   52.0847    6.3606   16.8802 C   0  0  0  0  0  0  0  0  0  0  0  0
   51.0216    8.7909   17.8062 O   0  0  0  0  0  0  0  0  0  0  0  0
   49.3398   10.1915   17.3694 O   0  0  0  0  0  0  0  0  0  0  0  0
   47.1064    8.2754   21.8519 O   0  0  0  0  0  0  0  0  0  0  0  0
   47.5725   10.4374   21.5182 O   0  0  0  0  0  0  0  0  0  0  0  0
   50.7280    8.8554   20.4481 O   0  0  0  0  0  0  0  0  0  0  0  0
   48.5932    7.3504   19.9229 O   0  0  0  0  0  0  0  0  0  0  0  0
   49.9797    9.5560   18.1940 C   0  0  0  0  0  0  0  0  0  0  0  0
   49.6964    9.4948   19.6913 C   0  0  1  0  0  0  0  0  0  0  0  0
   48.3645    8.7684   19.8856 C   0  0  2  0  0  0  0  0  0  0  0  0
   47.6805    9.2811   21.1482 C   0  0  0  0  0  0  0  0  0  0  0  0
   46.8079    8.5715   18.8684 H   0  0  0  0  0  0  0  0  0  0  0  0
   46.6220   10.0924   19.5539 H   0  0  0  0  0  0  0  0  0  0  0  0
   49.0647   10.6431   18.9476 H   0  0  0  0  0  0  0  0  0  0  0  0
   48.8419    7.9526   17.5281 H   0  0  0  0  0  0  0  0  0  0  0  0
   49.9475    8.3057   18.8554 H   0  0  0  0  0  0  0  0  0  0  0  0
   47.1583    6.7415   19.0726 H   0  0  0  0  0  0  0  0  0  0  0  0
   47.4584   11.6127   20.5190 H   0  0  0  0  0  0  0  0  0  0  0  0
   49.4759    5.2349   23.1445 H   0  0  0  0  0  0  0  0  0  0  0  0
   49.7789   10.4075   24.6907 H   0  0  0  0  0  0  0  0  0  0  0  0
   47.2371    9.8017   16.6392 H   0  0  0  0  0  0  0  0  0  0  0  0
   47.1135   11.3152   17.5552 H   0  0  0  0  0  0  0  0  0  0  0  0
   48.5369   11.0054   16.5606 H   0  0  0  0  0  0  0  0  0  0  0  0
   51.9070    8.2773   15.7186 H   0  0  0  0  0  0  0  0  0  0  0  0
   51.6887    7.4258   17.2642 H   0  0  0  0  0  0  0  0  0  0  0  0
   50.4657    7.3083   15.9803 H   0  0  0  0  0  0  0  0  0  0  0  0
   52.2212   10.3475   16.8656 H   0  0  0  0  0  0  0  0  0  0  0  0
   50.9780   11.0247   17.8909 H   0  0  0  0  0  0  0  0  0  0  0  0
   51.9426    9.6489   18.4733 H   0  0  0  0  0  0  0  0  0  0  0  0
   48.0281   13.3193   22.1071 H   0  0  0  0  0  0  0  0  0  0  0  0
   47.4932    4.4077   19.4577 H   0  0  0  0  0  0  0  0  0  0  0  0
   48.6549    3.6044   21.4987 H   0  0  0  0  0  0  0  0  0  0  0  0
   49.1970   12.7493   24.2214 H   0  0  0  0  0  0  0  0  0  0  0  0
   50.0569    8.4219   20.7828 H   0  0  0  0  0  0  0  0  0  0  0  0
   49.4416    9.9979   20.8298 H   0  0  0  0  0  0  0  0  0  0  0  0
   47.2028    8.9426   19.8135 H   0  0  0  0  0  0  0  0  0  0  0  0
   47.4412    9.9796   22.0941 H   0  0  0  0  0  0  0  0  0  0  0  0
   46.2253    8.7499   21.8480 H   0  0  0  0  0  0  0  0  0  0  0  0
   47.9375   11.1711   19.9780 H   0  0  0  0  0  0  0  0  0  0  0  0
   50.4836    6.7913   19.7916 H   0  0  0  0  0  0  0  0  0  0  0  0
   49.2761   12.3515   15.3900 H   0  0  0  0  0  0  0  0  0  0  0  0
   52.0851    7.7183   15.2334 H   0  0  0  0  0  0  0  0  0  0  0  0
   48.4558    6.4252   20.9805 H   0  0  0  0  0  0  0  0  0  0  0  0
   47.9800    6.7158   19.2946 H   0  0  0  0  0  0  0  0  0  0  0  0
   46.7524    6.6333   20.5527 H   0  0  0  0  0  0  0  0  0  0  0  0
   49.8769    8.2102   22.8539 H   0  0  0  0  0  0  0  0  0  0  0  0
   49.3658    8.0416   24.5074 H   0  0  0  0  0  0  0  0  0  0  0  0
   49.2022    9.6180   23.7104 H   0  0  0  0  0  0  0  0  0  0  0  0
   47.1282    7.7304   25.0907 H   0  0  0  0  0  0  0  0  0  0  0  0
   45.8271    7.9967   23.9440 H   0  0  0  0  0  0  0  0  0  0  0  0
   46.7714    9.3842   24.5386 H   0  0  0  0  0  0  0  0  0  0  0  0
   51.8843    5.2028   18.6759 H   0  0  0  0  0  0  0  0  0  0  0  0
   47.1448   13.2125   18.9868 H   0  0  0  0  0  0  0  0  0  0  0  0
   47.7967   13.8362   16.6752 H   0  0  0  0  0  0  0  0  0  0  0  0
   52.7157    5.6353   16.3756 H   0  0  0  0  0  0  0  0  0  0  0  0
   51.0846    8.9291   16.8383 H   0  0  0  0  0  0  0  0  0  0  0  0
   46.7123    8.7282   22.6300 H   0  0  0  0  0  0  0  0  0  0  0  0
   50.7433    7.9336   20.1208 H   0  0  0  0  0  0  0  0  0  0  0  0
   47.8971    6.9919   20.5117 H   0  0  0  0  0  0  0  0  0  0  0  0
   49.6590   10.5359   20.0294 H   0  0  0  0  0  0  0  0  0  0  0  0
   47.6631    8.9620   19.0661 H   0  0  0  0  0  0  0  0  0  0  0  0
 10  9  1  0
 11  4  2  0
 12  3  2  0
 13  6  2  0
 14  5  2  0
 15  8  1  0
 16 10  1  0
 17 10  1  0
 18 12  1  0
 19 11  1  0
 20 19  2  0
 21 18  2  0
  5  2  1  0
 13 20  1  0
 14 21  1  0
  2  6  1  0
  3  1  1  0
  4  1  1  0
  5  3  1  0
  6  4  1  0
  7  1  1  0
  8  7  1  0
  9  8  1  0
 31 30  1  0
 32 25  2  0
 33 24  2  0
 34 27  2  0
 35 26  2  0
 36 29  1  0
 37 31  1  0
 38 31  1  0
 39 33  1  0
 40 32  1  0
 41 40  2  0
 42 39  2  0
 26 23  1  0
 34 41  1  0
 35 42  1  0
 23 27  1  0
 24 22  1  0
 25 22  1  0
 26 24  1  0
 27 25  1  0
 28 22  1  0
 29 28  1  0
 30 29  1  0
 49 44  2  0
 50 47  1  0
 51 48  1  0
 49 43  1  0
 51 52  1  0
 50 51  1  0
 52 45  1  0
 49 50  1  0
 52 46  2  0
  7 53  1  0
  7 54  1  0
  8 55  1  1
  9 56  1  0
  9 57  1  0
 11 58  1  0
 12 59  1  0
 13 60  1  0
 14 61  1  0
 15 62  1  0
 15 63  1  0
 15 64  1  0
 16 65  1  0
 16 66  1  0
 16 67  1  0
 17 68  1  0
 17 69  1  0
 17 70  1  0
 18 71  1  0
 19 72  1  0
 20 73  1  0
 21 74  1  0
 28 75  1  0
 28 76  1  0
 29 77  1  6
 30 78  1  0
 30 79  1  0
 32 80  1  0
 33 81  1  0
 34 82  1  0
 35 83  1  0
 36 84  1  0
 36 85  1  0
 36 86  1  0
 37 87  1  0
 37 88  1  0
 37 89  1  0
 38 90  1  0
 38 91  1  0
 38 92  1  0
 39 93  1  0
 40 94  1  0
 41 95  1  0
 42 96  1  0
 43 97  1  0
 45 98  1  0
 47 99  1  0
 48100  1  0
 50101  1  1
 51102  1  6
M  END
> <Uni-Dock RESULT> 
ENERGY=   -4.719  LOWER_BOUND=    1.555  UPPER_BOUND=    5.781
INTER + INTRA:          -4.719
INTER:                  -4.719
INTRA:                   0.000
UNBOUND:                 0.000

$$$$

     RDKit          3D

102105  0  0  0  0  0  0  0  0999 V2000
   51.3509    5.2948   18.1500 N   0  0  0  0  0  0  0  0  0  0  0  0
   50.1967    8.2389   18.3540 S   0  0  0  0  0  0  0  0  0  0  0  0
   51.9987    6.3123   17.3742 C   0  0  0  0  0  0  0  0  0  0  0  0
   50.1612    5.4776   18.9215 C   0  0  0  0  0  0  0  0  0  0  0  0
   51.5564    7.6504   17.3822 C   0  0  0  0  0  0  0  0  0  0  0  0
   49.5584    6.7454   19.0663 C   0  0  0  0  0  0  0  0  0  0  0  0
   52.0148    3.9659   18.1800 C   0  0  0  0  0  0  0  0  0  0  0  0
   53.2454    3.9267   19.1209 C   0  0  1  0  0  0  0  0  0  0  0  0
   52.8306    4.0915   20.6014 C   0  0  0  0  0  0  0  0  0  0  0  0
   53.9426    3.9807   21.5689 N   0  0  0  0  0  0  0  0  0  0  0  0
   49.4991    4.4146   19.5825 C   0  0  0  0  0  0  0  0  0  0  0  0
   53.1141    6.0449   16.5430 C   0  0  0  0  0  0  0  0  0  0  0  0
   48.3822    6.9199   19.8274 C   0  0  0  0  0  0  0  0  0  0  0  0
   52.1982    8.6409   16.6080 C   0  0  0  0  0  0  0  0  0  0  0  0
   53.9979    2.6077   18.8950 C   0  0  0  0  0  0  0  0  0  0  0  0
   53.4089    3.9185   22.9336 C   0  0  0  0  0  0  0  0  0  0  0  0
   54.8658    5.1142   21.4593 C   0  0  0  0  0  0  0  0  0  0  0  0
   53.7499    7.0309   15.7758 C   0  0  0  0  0  0  0  0  0  0  0  0
   48.3306    4.5916   20.3380 C   0  0  0  0  0  0  0  0  0  0  0  0
   47.7686    5.8483   20.4604 C   0  0  0  0  0  0  0  0  0  0  0  0
   53.2902    8.3345   15.8080 C   0  0  0  0  0  0  0  0  0  0  0  0
   52.9891    4.9002   20.0014 N   0  0  0  0  0  0  0  0  0  0  0  0
   55.0283    3.2183   21.7547 S   0  0  0  0  0  0  0  0  0  0  0  0
   52.7390    4.8254   21.4061 C   0  0  0  0  0  0  0  0  0  0  0  0
   54.0614    4.2415   19.3158 C   0  0  0  0  0  0  0  0  0  0  0  0
   53.5835    4.1051   22.2767 C   0  0  0  0  0  0  0  0  0  0  0  0
   55.0133    3.4570   19.9979 C   0  0  0  0  0  0  0  0  0  0  0  0
   52.1586    5.8386   19.1943 C   0  0  0  0  0  0  0  0  0  0  0  0
   51.0539    5.1191   18.3853 C   0  0  2  0  0  0  0  0  0  0  0  0
   50.6619    5.8822   17.0917 C   0  0  0  0  0  0  0  0  0  0  0  0
   49.7575    7.0400   17.2286 N   0  0  0  0  0  0  0  0  0  0  0  0
   54.2315    4.3244   17.9122 C   0  0  0  0  0  0  0  0  0  0  0  0
   51.6300    5.4531   22.0215 C   0  0  0  0  0  0  0  0  0  0  0  0
   56.0574    2.8057   19.3057 C   0  0  0  0  0  0  0  0  0  0  0  0
   53.3303    4.0455   23.6640 C   0  0  0  0  0  0  0  0  0  0  0  0
   49.8149    4.7746   19.2158 C   0  0  0  0  0  0  0  0  0  0  0  0
   50.4300    8.2423   17.7215 C   0  0  0  0  0  0  0  0  0  0  0  0
   49.1415    7.3416   15.9293 C   0  0  0  0  0  0  0  0  0  0  0  0
   51.3781    5.3889   23.3992 C   0  0  0  0  0  0  0  0  0  0  0  0
   55.2673    3.6748   17.2272 C   0  0  0  0  0  0  0  0  0  0  0  0
   56.1842    2.9118   17.9268 C   0  0  0  0  0  0  0  0  0  0  0  0
   52.2334    4.6852   24.2250 C   0  0  0  0  0  0  0  0  0  0  0  0
   53.5338    4.9256   21.7461 O   0  0  0  0  0  0  0  0  0  0  0  0
   54.2399    3.6439   20.0610 O   0  0  0  0  0  0  0  0  0  0  0  0
   50.0871    5.6464   17.3230 O   0  0  0  0  0  0  0  0  0  0  0  0
   52.2166    5.8236   16.6623 O   0  0  0  0  0  0  0  0  0  0  0  0
   52.4847    6.8203   20.2034 O   0  0  0  0  0  0  0  0  0  0  0  0
   50.5964    4.9865   19.7913 O   0  0  0  0  0  0  0  0  0  0  0  0
   53.6374    4.6406   20.4310 C   0  0  0  0  0  0  0  0  0  0  0  0
   52.9157    5.6354   19.5280 C   0  0  1  0  0  0  0  0  0  0  0  0
   51.7213    4.9153   18.9001 C   0  0  2  0  0  0  0  0  0  0  0  0
   51.4198    5.5192   17.5329 C   0  0  0  0  0  0  0  0  0  0  0  0
   51.3433    3.1440   18.4355 H   0  0  0  0  0  0  0  0  0  0  0  0
   52.3001    3.6732   17.1619 H   0  0  0  0  0  0  0  0  0  0  0  0
   53.9241    4.7431   18.8517 H   0  0  0  0  0  0  0  0  0  0  0  0
   52.0989    3.3044   20.8272 H   0  0  0  0  0  0  0  0  0  0  0  0
   52.3206    5.0517   20.7450 H   0  0  0  0  0  0  0  0  0  0  0  0
   49.8542    3.3922   19.5465 H   0  0  0  0  0  0  0  0  0  0  0  0
   53.5412    5.0521   16.4543 H   0  0  0  0  0  0  0  0  0  0  0  0
   47.9365    7.9085   19.9283 H   0  0  0  0  0  0  0  0  0  0  0  0
   51.8416    9.6697   16.6290 H   0  0  0  0  0  0  0  0  0  0  0  0
   53.3831    1.7471   19.1808 H   0  0  0  0  0  0  0  0  0  0  0  0
   54.2708    2.4950   17.8400 H   0  0  0  0  0  0  0  0  0  0  0  0
   54.9250    2.5715   19.4763 H   0  0  0  0  0  0  0  0  0  0  0  0
   54.2211    3.7990   23.6603 H   0  0  0  0  0  0  0  0  0  0  0  0
   52.8382    4.8165   23.1975 H   0  0  0  0  0  0  0  0  0  0  0  0
   52.7546    3.0474   23.0524 H   0  0  0  0  0  0  0  0  0  0  0  0
   55.6593    5.0371   22.2116 H   0  0  0  0  0  0  0  0  0  0  0  0
   55.3726    5.1214   20.4893 H   0  0  0  0  0  0  0  0  0  0  0  0
   54.3593    6.0768   21.5954 H   0  0  0  0  0  0  0  0  0  0  0  0
   54.6040    6.7681   15.1563 H   0  0  0  0  0  0  0  0  0  0  0  0
   47.8656    3.7373   20.8246 H   0  0  0  0  0  0  0  0  0  0  0  0
   46.8637    5.9977   21.0415 H   0  0  0  0  0  0  0  0  0  0  0  0
   53.7745    9.1068   15.2182 H   0  0  0  0  0  0  0  0  0  0  0  0
   51.7370    6.6384   19.8058 H   0  0  0  0  0  0  0  0  0  0  0  0
   52.8162    6.4061   18.5228 H   0  0  0  0  0  0  0  0  0  0  0  0
   51.4527    4.1545   18.0434 H   0  0  0  0  0  0  0  0  0  0  0  0
   51.5636    6.1622   16.5299 H   0  0  0  0  0  0  0  0  0  0  0  0
   50.1535    5.1331   16.4666 H   0  0  0  0  0  0  0  0  0  0  0  0
   53.5537    4.8926   17.2860 H   0  0  0  0  0  0  0  0  0  0  0  0
   50.8941    6.0103   21.4545 H   0  0  0  0  0  0  0  0  0  0  0  0
   56.7835    2.2039   19.8501 H   0  0  0  0  0  0  0  0  0  0  0  0
   53.9987    3.4895   24.3194 H   0  0  0  0  0  0  0  0  0  0  0  0
   49.3655    5.6660   19.6644 H   0  0  0  0  0  0  0  0  0  0  0  0
   50.0624    4.0712   20.0162 H   0  0  0  0  0  0  0  0  0  0  0  0
   49.0525    4.2946   18.5926 H   0  0  0  0  0  0  0  0  0  0  0  0
   50.7121    8.1363   18.7701 H   0  0  0  0  0  0  0  0  0  0  0  0
   49.7541    9.1056   17.6900 H   0  0  0  0  0  0  0  0  0  0  0  0
   51.3228    8.4902   17.1353 H   0  0  0  0  0  0  0  0  0  0  0  0
   48.4193    8.1609   16.0258 H   0  0  0  0  0  0  0  0  0  0  0  0
   48.5787    6.4780   15.5555 H   0  0  0  0  0  0  0  0  0  0  0  0
   49.8877    7.6238   15.1759 H   0  0  0  0  0  0  0  0  0  0  0  0
   50.5048    5.8884   23.8133 H   0  0  0  0  0  0  0  0  0  0  0  0
   55.3483    3.7695   16.1474 H   0  0  0  0  0  0  0  0  0  0  0  0
   56.9914    2.4030   17.4084 H   0  0  0  0  0  0  0  0  0  0  0  0
   52.0506    4.6281   25.2937 H   0  0  0  0  0  0  0  0  0  0  0  0
   54.0379    4.2153   22.1947 H   0  0  0  0  0  0  0  0  0  0  0  0
   50.0274    6.0451   16.4267 H   0  0  0  0  0  0  0  0  0  0  0  0
   51.8346    6.5085   20.8647 H   0  0  0  0  0  0  0  0  0  0  0  0
   49.8072    4.9936   19.2110 H   0  0  0  0  0  0  0  0  0  0  0  0
   53.6541    5.9503   18.7830 H   0  0  0  0  0  0  0  0  0  0  0  0
   51.9250    3.8538   18.7196 H   0  0  0  0  0  0  0  0  0  0  0  0
 10  9  1  0
 11  4  2  0
 12  3  2  0
 13  6  2  0
 14  5  2  0
 15  8  1  0
 16 10  1  0
 17 10  1  0
 18 12  1  0
 19 11  1  0
 20 19  2  0
 21 18  2  0
  5  2  1  0
 13 20  1  0
 14 21  1  0
  2  6  1  0
  3  1  1  0
  4  1  1  0
  5  3  1  0
  6  4  1  0
  7  1  1  0
  8  7  1  0
  9  8  1  0
 31 30  1  0
 32 25  2  0
 33 24  2  0
 34 27  2  0
 35 26  2  0
 36 29  1  0
 37 31  1  0
 38 31  1  0
 39 33  1  0
 40 32  1  0
 41 40  2  0
 42 39  2  0
 26 23  1  0
 34 41  1  0
 35 42  1  0
 23 27  1  0
 24 22  1  0
 25 22  1  0
 26 24  1  0
 27 25  1  0
 28 22  1  0
 29 28  1  0
 30 29  1  0
 49 44  2  0
 50 47  1  0
 51 48  1  0
 49 43  1  0
 51 52  1  0
 50 51  1  0
 52 45  1  0
 49 50  1  0
 52 46  2  0
  7 53  1  0
  7 54  1  0
  8 55  1  1
  9 56  1  0
  9 57  1  0
 11 58  1  0
 12 59  1  0
 13 60  1  0
 14 61  1  0
 15 62  1  0
 15 63  1  0
 15 64  1  0
 16 65  1  0
 16 66  1  0
 16 67  1  0
 17 68  1  0
 17 69  1  0
 17 70  1  0
 18 71  1  0
 19 72  1  0
 20 73  1  0
 21 74  1  0
 28 75  1  0
 28 76  1  0
 29 77  1  6
 30 78  1  0
 30 79  1  0
 32 80  1  0
 33 81  1  0
 34 82  1  0
 35 83  1  0
 36 84  1  0
 36 85  1  0
 36 86  1  0
 37 87  1  0
 37 88  1  0
 37 89  1  0
 38 90  1  0
 38 91  1  0
 38 92  1  0
 39 93  1  0
 40 94  1  0
 41 95  1  0
 42 96  1  0
 43 97  1  0
 45 98  1  0
 47 99  1  0
 48100  1  0
 50101  1  1
 51102  1  6
M  END
> <Uni-Dock RESULT> 
ENERGY=   -4.686  LOWER_BOUND=    4.019  UPPER_BOUND=    5.484
INTER + INTRA:          -4.686
INTER:                  -4.686
INTRA:                   0.000
UNBOUND:                 0.000

$$$$
