
     RDKit          3D

102105  0  0  0  0  0  0  0  0999 V2000
   48.9538    8.2845   15.2198 N   0  0  0  0  0  0  0  0  0  0  0  0
   51.8879    7.6125   16.0980 S   0  0  0  0  0  0  0  0  0  0  0  0
   49.8669    9.3707   15.2545 C   0  0  0  0  0  0  0  0  0  0  0  0
   49.1435    7.0514   15.9050 C   0  0  0  0  0  0  0  0  0  0  0  0
   51.2110    9.1936   15.6437 C   0  0  0  0  0  0  0  0  0  0  0  0
   50.4091    6.6621   16.3855 C   0  0  0  0  0  0  0  0  0  0  0  0
   47.8904    8.3123   14.1822 C   0  0  0  0  0  0  0  0  0  0  0  0
   48.1995    7.3883   12.9775 C   0  0  1  0  0  0  0  0  0  0  0  0
   46.9657    7.2854   12.0481 C   0  0  0  0  0  0  0  0  0  0  0  0
   45.7862    6.6911   12.7046 N   0  0  0  0  0  0  0  0  0  0  0  0
   48.0651    6.1802   16.1707 C   0  0  0  0  0  0  0  0  0  0  0  0
   49.4612   10.6873   14.9642 C   0  0  0  0  0  0  0  0  0  0  0  0
   50.5800    5.4471   17.0735 C   0  0  0  0  0  0  0  0  0  0  0  0
   52.1057   10.2785   15.6741 C   0  0  0  0  0  0  0  0  0  0  0  0
   49.3930    7.9112   12.1658 C   0  0  0  0  0  0  0  0  0  0  0  0
   44.5758    6.9752   11.9302 C   0  0  0  0  0  0  0  0  0  0  0  0
   45.9329    5.2397   12.8611 C   0  0  0  0  0  0  0  0  0  0  0  0
   50.3510   11.7676   15.0010 C   0  0  0  0  0  0  0  0  0  0  0  0
   48.2383    4.9730   16.8579 C   0  0  0  0  0  0  0  0  0  0  0  0
   49.4968    4.6063   17.3115 C   0  0  0  0  0  0  0  0  0  0  0  0
   51.6777   11.5635   15.3487 C   0  0  0  0  0  0  0  0  0  0  0  0
   47.7879    7.2334   13.2244 N   0  0  0  0  0  0  0  0  0  0  0  0
   44.8239    7.7011   12.2000 S   0  0  0  0  0  0  0  0  0  0  0  0
   47.4265    8.5653   12.8307 C   0  0  0  0  0  0  0  0  0  0  0  0
   46.9168    6.1014   13.2052 C   0  0  0  0  0  0  0  0  0  0  0  0
   46.1378    8.8790   12.3538 C   0  0  0  0  0  0  0  0  0  0  0  0
   45.5788    6.1995   12.7681 C   0  0  0  0  0  0  0  0  0  0  0  0
   49.2085    7.0220   13.6078 C   0  0  0  0  0  0  0  0  0  0  0  0
   49.5060    7.4475   15.0712 C   0  0  2  0  0  0  0  0  0  0  0  0
   51.0272    7.7146   15.2092 C   0  0  0  0  0  0  0  0  0  0  0  0
   51.4735    8.1423   16.5474 N   0  0  0  0  0  0  0  0  0  0  0  0
   47.3215    4.8111   13.6234 C   0  0  0  0  0  0  0  0  0  0  0  0
   48.3361    9.6505   12.8900 C   0  0  0  0  0  0  0  0  0  0  0  0
   44.7179    5.0791   12.7667 C   0  0  0  0  0  0  0  0  0  0  0  0
   45.8030   10.1921   11.9601 C   0  0  0  0  0  0  0  0  0  0  0  0
   49.0339    6.4009   16.0826 C   0  0  0  0  0  0  0  0  0  0  0  0
   52.9337    8.2035   16.5968 C   0  0  0  0  0  0  0  0  0  0  0  0
   50.9072    9.4343   16.9359 C   0  0  0  0  0  0  0  0  0  0  0  0
   48.0036   10.9515   12.4886 C   0  0  0  0  0  0  0  0  0  0  0  0
   46.4677    3.6971   13.6139 C   0  0  0  0  0  0  0  0  0  0  0  0
   45.1585    3.8324   13.1909 C   0  0  0  0  0  0  0  0  0  0  0  0
   46.7313   11.2233   12.0244 C   0  0  0  0  0  0  0  0  0  0  0  0
   46.7106    6.3682   12.4544 O   0  0  0  0  0  0  0  0  0  0  0  0
   46.1184    8.3786   13.2154 O   0  0  0  0  0  0  0  0  0  0  0  0
   50.4646    8.0915   16.3401 O   0  0  0  0  0  0  0  0  0  0  0  0
   50.2141    9.6596   14.7645 O   0  0  0  0  0  0  0  0  0  0  0  0
   49.3128    6.6876   12.8503 O   0  0  0  0  0  0  0  0  0  0  0  0
   48.6330    6.4705   15.4223 O   0  0  0  0  0  0  0  0  0  0  0  0
   47.0026    7.5607   13.0099 C   0  0  0  0  0  0  0  0  0  0  0  0
   48.4767    7.7295   13.3619 C   0  0  1  0  0  0  0  0  0  0  0  0
   48.5927    7.8029   14.8848 C   0  0  2  0  0  0  0  0  0  0  0  0
   49.8223    8.6214   15.2688 C   0  0  0  0  0  0  0  0  0  0  0  0
   47.7223    9.3157   13.7796 H   0  0  0  0  0  0  0  0  0  0  0  0
   46.9307    8.0635   14.6454 H   0  0  0  0  0  0  0  0  0  0  0  0
   48.4698    6.3850   13.3226 H   0  0  0  0  0  0  0  0  0  0  0  0
   46.7197    8.3051   11.7151 H   0  0  0  0  0  0  0  0  0  0  0  0
   47.2203    6.7170   11.1408 H   0  0  0  0  0  0  0  0  0  0  0  0
   47.0556    6.4260   15.8613 H   0  0  0  0  0  0  0  0  0  0  0  0
   48.4240   10.9202   14.7509 H   0  0  0  0  0  0  0  0  0  0  0  0
   51.5675    5.1506   17.4272 H   0  0  0  0  0  0  0  0  0  0  0  0
   53.1426   10.1248   15.9672 H   0  0  0  0  0  0  0  0  0  0  0  0
   49.2269    8.9399   11.8257 H   0  0  0  0  0  0  0  0  0  0  0  0
   50.3144    7.8927   12.7569 H   0  0  0  0  0  0  0  0  0  0  0  0
   49.5653    7.2867   11.2815 H   0  0  0  0  0  0  0  0  0  0  0  0
   43.6937    6.5511   12.4244 H   0  0  0  0  0  0  0  0  0  0  0  0
   44.4101    8.0567   11.8693 H   0  0  0  0  0  0  0  0  0  0  0  0
   44.6297    6.5718   10.9121 H   0  0  0  0  0  0  0  0  0  0  0  0
   45.0502    4.8210   13.3579 H   0  0  0  0  0  0  0  0  0  0  0  0
   46.0568    4.7316   11.8965 H   0  0  0  0  0  0  0  0  0  0  0  0
   46.7875    4.9906   13.4982 H   0  0  0  0  0  0  0  0  0  0  0  0
   49.9972   12.7687   14.7699 H   0  0  0  0  0  0  0  0  0  0  0  0
   47.3855    4.3261   17.0408 H   0  0  0  0  0  0  0  0  0  0  0  0
   49.6423    3.6698   17.8428 H   0  0  0  0  0  0  0  0  0  0  0  0
   52.3787   12.3934   15.3770 H   0  0  0  0  0  0  0  0  0  0  0  0
   49.5567    5.9998   13.4349 H   0  0  0  0  0  0  0  0  0  0  0  0
   49.8507    7.5719   12.9061 H   0  0  0  0  0  0  0  0  0  0  0  0
   48.9624    8.3723   15.2871 H   0  0  0  0  0  0  0  0  0  0  0  0
   51.5474    6.7827   14.9488 H   0  0  0  0  0  0  0  0  0  0  0  0
   51.3334    8.4615   14.4634 H   0  0  0  0  0  0  0  0  0  0  0  0
   48.3231    4.6112   13.9858 H   0  0  0  0  0  0  0  0  0  0  0  0
   49.3496    9.5337   13.2521 H   0  0  0  0  0  0  0  0  0  0  0  0
   43.6882    5.1754   12.4257 H   0  0  0  0  0  0  0  0  0  0  0  0
   44.8023   10.4162   11.5941 H   0  0  0  0  0  0  0  0  0  0  0  0
   47.9528    6.2483   16.0170 H   0  0  0  0  0  0  0  0  0  0  0  0
   49.2455    6.7149   17.1088 H   0  0  0  0  0  0  0  0  0  0  0  0
   49.5319    5.4396   15.9206 H   0  0  0  0  0  0  0  0  0  0  0  0
   53.3673    7.2215   16.3719 H   0  0  0  0  0  0  0  0  0  0  0  0
   53.3420    8.9342   15.8866 H   0  0  0  0  0  0  0  0  0  0  0  0
   53.2730    8.4687   17.6036 H   0  0  0  0  0  0  0  0  0  0  0  0
   51.3076    9.7547   17.9036 H   0  0  0  0  0  0  0  0  0  0  0  0
   51.1170   10.2205   16.2041 H   0  0  0  0  0  0  0  0  0  0  0  0
   49.8269    9.3687   17.0740 H   0  0  0  0  0  0  0  0  0  0  0  0
   48.7429   11.7463   12.5481 H   0  0  0  0  0  0  0  0  0  0  0  0
   46.8337    2.7329   13.9590 H   0  0  0  0  0  0  0  0  0  0  0  0
   44.4892    2.9770   13.1797 H   0  0  0  0  0  0  0  0  0  0  0  0
   46.4582   12.2250   11.7079 H   0  0  0  0  0  0  0  0  0  0  0  0
   45.7461    6.4005   12.2835 H   0  0  0  0  0  0  0  0  0  0  0  0
   51.2294    8.6936   16.4743 H   0  0  0  0  0  0  0  0  0  0  0  0
   48.9946    5.8719   13.2888 H   0  0  0  0  0  0  0  0  0  0  0  0
   49.1558    6.5388   16.2475 H   0  0  0  0  0  0  0  0  0  0  0  0
   48.7956    8.6579   12.8750 H   0  0  0  0  0  0  0  0  0  0  0  0
   47.7365    8.3120   15.3420 H   0  0  0  0  0  0  0  0  0  0  0  0
 10  9  1  0
 11  4  2  0
 12  3  2  0
 13  6  2  0
 14  5  2  0
 15  8  1  0
 16 10  1  0
 17 10  1  0
 18 12  1  0
 19 11  1  0
 20 19  2  0
 21 18  2  0
  5  2  1  0
 13 20  1  0
 14 21  1  0
  2  6  1  0
  3  1  1  0
  4  1  1  0
  5  3  1  0
  6  4  1  0
  7  1  1  0
  8  7  1  0
  9  8  1  0
 31 30  1  0
 32 25  2  0
 33 24  2  0
 34 27  2  0
 35 26  2  0
 36 29  1  0
 37 31  1  0
 38 31  1  0
 39 33  1  0
 40 32  1  0
 41 40  2  0
 42 39  2  0
 26 23  1  0
 34 41  1  0
 35 42  1  0
 23 27  1  0
 24 22  1  0
 25 22  1  0
 26 24  1  0
 27 25  1  0
 28 22  1  0
 29 28  1  0
 30 29  1  0
 49 44  2  0
 50 47  1  0
 51 48  1  0
 49 43  1  0
 51 52  1  0
 50 51  1  0
 52 45  1  0
 49 50  1  0
 52 46  2  0
  7 53  1  0
  7 54  1  0
  8 55  1  1
  9 56  1  0
  9 57  1  0
 11 58  1  0
 12 59  1  0
 13 60  1  0
 14 61  1  0
 15 62  1  0
 15 63  1  0
 15 64  1  0
 16 65  1  0
 16 66  1  0
 16 67  1  0
 17 68  1  0
 17 69  1  0
 17 70  1  0
 18 71  1  0
 19 72  1  0
 20 73  1  0
 21 74  1  0
 28 75  1  0
 28 76  1  0
 29 77  1  1
 30 78  1  0
 30 79  1  0
 32 80  1  0
 33 81  1  0
 34 82  1  0
 35 83  1  0
 36 84  1  0
 36 85  1  0
 36 86  1  0
 37 87  1  0
 37 88  1  0
 37 89  1  0
 38 90  1  0
 38 91  1  0
 38 92  1  0
 39 93  1  0
 40 94  1  0
 41 95  1  0
 42 96  1  0
 43 97  1  0
 45 98  1  0
 47 99  1  0
 48100  1  0
 50101  1  6
 51102  1  1
M  END
> <Uni-Dock RESULT> 
ENERGY=   -6.790  LOWER_BOUND=    0.000  UPPER_BOUND=    0.000
INTER + INTRA:          -6.790
INTER:                  -6.790
INTRA:                   0.000
UNBOUND:                 0.000

$$$$

     RDKit          3D

102105  0  0  0  0  0  0  0  0999 V2000
   48.0317    8.4793   18.0842 N   0  0  0  0  0  0  0  0  0  0  0  0
   49.2418   10.9605   16.5974 S   0  0  0  0  0  0  0  0  0  0  0  0
   48.5708    8.2406   16.7929 C   0  0  0  0  0  0  0  0  0  0  0  0
   47.6461    9.7600   18.5711 C   0  0  0  0  0  0  0  0  0  0  0  0
   49.1330    9.2803   16.0234 C   0  0  0  0  0  0  0  0  0  0  0  0
   48.0914   10.9469   17.9571 C   0  0  0  0  0  0  0  0  0  0  0  0
   48.1500    7.3926   19.0909 C   0  0  0  0  0  0  0  0  0  0  0  0
   49.2890    7.6384   20.1120 C   0  0  1  0  0  0  0  0  0  0  0  0
   49.2173    6.6001   21.2580 C   0  0  0  0  0  0  0  0  0  0  0  0
   47.9684    6.6757   22.0391 N   0  0  0  0  0  0  0  0  0  0  0  0
   46.7669    9.8999   19.6666 C   0  0  0  0  0  0  0  0  0  0  0  0
   48.5135    6.9689   16.1912 C   0  0  0  0  0  0  0  0  0  0  0  0
   47.6912   12.2060   18.4400 C   0  0  0  0  0  0  0  0  0  0  0  0
   49.6636    9.0304   14.7450 C   0  0  0  0  0  0  0  0  0  0  0  0
   50.6673    7.5472   19.4422 C   0  0  0  0  0  0  0  0  0  0  0  0
   47.7861    5.4542   22.8267 C   0  0  0  0  0  0  0  0  0  0  0  0
   47.9654    7.8366   22.9362 C   0  0  0  0  0  0  0  0  0  0  0  0
   49.0360    6.7226   14.9160 C   0  0  0  0  0  0  0  0  0  0  0  0
   46.3686   11.1544   20.1429 C   0  0  0  0  0  0  0  0  0  0  0  0
   46.8298   12.3093   19.5282 C   0  0  0  0  0  0  0  0  0  0  0  0
   49.6196    7.7521   14.1933 C   0  0  0  0  0  0  0  0  0  0  0  0
   48.8387    7.6367   20.3391 N   0  0  0  0  0  0  0  0  0  0  0  0
   47.7253    5.2123   22.0526 S   0  0  0  0  0  0  0  0  0  0  0  0
   48.8889    6.3302   19.7473 C   0  0  0  0  0  0  0  0  0  0  0  0
   48.3153    7.9374   21.6338 C   0  0  0  0  0  0  0  0  0  0  0  0
   48.4273    5.1848   20.4266 C   0  0  0  0  0  0  0  0  0  0  0  0
   47.7951    6.9334   22.4777 C   0  0  0  0  0  0  0  0  0  0  0  0
   49.4549    8.7394   19.5553 C   0  0  0  0  0  0  0  0  0  0  0  0
   48.5125    9.2923   18.4521 C   0  0  2  0  0  0  0  0  0  0  0  0
   49.3739   10.0028   17.3762 C   0  0  0  0  0  0  0  0  0  0  0  0
   48.6228   10.5770   16.2452 N   0  0  0  0  0  0  0  0  0  0  0  0
   48.2732    9.2502   22.1615 C   0  0  0  0  0  0  0  0  0  0  0  0
   49.4068    6.1017   18.4480 C   0  0  0  0  0  0  0  0  0  0  0  0
   47.2644    7.2400   23.7508 C   0  0  0  0  0  0  0  0  0  0  0  0
   48.4948    3.9059   19.8340 C   0  0  0  0  0  0  0  0  0  0  0  0
   47.4501   10.2348   19.0214 C   0  0  0  0  0  0  0  0  0  0  0  0
   49.5168   11.3555   15.3890 C   0  0  0  0  0  0  0  0  0  0  0  0
   47.9412    9.5527   15.4531 C   0  0  0  0  0  0  0  0  0  0  0  0
   49.4820    4.8289   17.8662 C   0  0  0  0  0  0  0  0  0  0  0  0
   47.7532    9.5524   23.4297 C   0  0  0  0  0  0  0  0  0  0  0  0
   47.2399    8.5448   24.2250 C   0  0  0  0  0  0  0  0  0  0  0  0
   49.0217    3.7275   18.5613 C   0  0  0  0  0  0  0  0  0  0  0  0
   48.7567    7.2877   21.8797 O   0  0  0  0  0  0  0  0  0  0  0  0
   47.7603    5.9252   20.4228 O   0  0  0  0  0  0  0  0  0  0  0  0
   48.1385    9.9637   16.9181 O   0  0  0  0  0  0  0  0  0  0  0  0
   49.1647    8.0001   16.6099 O   0  0  0  0  0  0  0  0  0  0  0  0
   50.1095    8.6734   20.0687 O   0  0  0  0  0  0  0  0  0  0  0  0
   47.7006    9.6579   19.4754 O   0  0  0  0  0  0  0  0  0  0  0  0
   48.4967    6.8799   20.6220 C   0  0  0  0  0  0  0  0  0  0  0  0
   49.1649    7.7331   19.5493 C   0  0  1  0  0  0  0  0  0  0  0  0
   48.0666    8.4593   18.7719 C   0  0  2  0  0  0  0  0  0  0  0  0
   48.5435    8.7430   17.3501 C   0  0  0  0  0  0  0  0  0  0  0  0
   48.3358    6.4156   18.6348 H   0  0  0  0  0  0  0  0  0  0  0  0
   47.1846    7.2579   19.5883 H   0  0  0  0  0  0  0  0  0  0  0  0
   49.2127    8.6441   20.5377 H   0  0  0  0  0  0  0  0  0  0  0  0
   49.2996    5.6018   20.8021 H   0  0  0  0  0  0  0  0  0  0  0  0
   50.0870    6.7085   21.9236 H   0  0  0  0  0  0  0  0  0  0  0  0
   46.3559    9.0326   20.1708 H   0  0  0  0  0  0  0  0  0  0  0  0
   48.0110    6.1405   16.6780 H   0  0  0  0  0  0  0  0  0  0  0  0
   48.0549   13.1172   17.9650 H   0  0  0  0  0  0  0  0  0  0  0  0
   50.1032    9.8410   14.1667 H   0  0  0  0  0  0  0  0  0  0  0  0
   50.8061    6.5830   18.9396 H   0  0  0  0  0  0  0  0  0  0  0  0
   50.8017    8.3405   18.6997 H   0  0  0  0  0  0  0  0  0  0  0  0
   51.4677    7.6604   20.1827 H   0  0  0  0  0  0  0  0  0  0  0  0
   46.8493    5.4982   23.3947 H   0  0  0  0  0  0  0  0  0  0  0  0
   47.7095    4.5844   22.1645 H   0  0  0  0  0  0  0  0  0  0  0  0
   48.6101    5.2866   23.5303 H   0  0  0  0  0  0  0  0  0  0  0  0
   47.0261    7.8777   23.4997 H   0  0  0  0  0  0  0  0  0  0  0  0
   48.7947    7.8051   23.6540 H   0  0  0  0  0  0  0  0  0  0  0  0
   48.0255    8.7751   22.3759 H   0  0  0  0  0  0  0  0  0  0  0  0
   48.9714    5.7260   14.4875 H   0  0  0  0  0  0  0  0  0  0  0  0
   45.6936   11.2232   20.9908 H   0  0  0  0  0  0  0  0  0  0  0  0
   46.5294   13.2877   19.8925 H   0  0  0  0  0  0  0  0  0  0  0  0
   50.0321    7.5723   13.2042 H   0  0  0  0  0  0  0  0  0  0  0  0
   49.8270    9.5581   20.1777 H   0  0  0  0  0  0  0  0  0  0  0  0
   50.3959    8.3798   19.1168 H   0  0  0  0  0  0  0  0  0  0  0  0
   47.9841    8.4545   17.9871 H   0  0  0  0  0  0  0  0  0  0  0  0
   49.9217   10.8120   17.8783 H   0  0  0  0  0  0  0  0  0  0  0  0
   50.1310    9.3023   16.9970 H   0  0  0  0  0  0  0  0  0  0  0  0
   48.6377   10.1060   21.6055 H   0  0  0  0  0  0  0  0  0  0  0  0
   49.7777    6.9063   17.8259 H   0  0  0  0  0  0  0  0  0  0  0  0
   46.8672    6.4506   24.3872 H   0  0  0  0  0  0  0  0  0  0  0  0
   48.1333    3.0320   20.3736 H   0  0  0  0  0  0  0  0  0  0  0  0
   46.8122    9.7192   19.7451 H   0  0  0  0  0  0  0  0  0  0  0  0
   46.7908   10.6133   18.2348 H   0  0  0  0  0  0  0  0  0  0  0  0
   47.9085   11.0982   19.5140 H   0  0  0  0  0  0  0  0  0  0  0  0
   49.9827   12.1687   15.9586 H   0  0  0  0  0  0  0  0  0  0  0  0
   50.3119   10.7386   14.9507 H   0  0  0  0  0  0  0  0  0  0  0  0
   48.9549   11.8287   14.5768 H   0  0  0  0  0  0  0  0  0  0  0  0
   47.4475   10.0026   14.5852 H   0  0  0  0  0  0  0  0  0  0  0  0
   48.6253    8.7787   15.0918 H   0  0  0  0  0  0  0  0  0  0  0  0
   47.1458    9.0727   16.0253 H   0  0  0  0  0  0  0  0  0  0  0  0
   49.8955    4.7091   16.8681 H   0  0  0  0  0  0  0  0  0  0  0  0
   47.7373   10.5834   23.7754 H   0  0  0  0  0  0  0  0  0  0  0  0
   46.8348    8.7676   25.2079 H   0  0  0  0  0  0  0  0  0  0  0  0
   49.0742    2.7346   18.1258 H   0  0  0  0  0  0  0  0  0  0  0  0
   48.2715    6.6582   22.4530 H   0  0  0  0  0  0  0  0  0  0  0  0
   48.5142   10.0266   16.0124 H   0  0  0  0  0  0  0  0  0  0  0  0
   49.5823    9.2713   20.6375 H   0  0  0  0  0  0  0  0  0  0  0  0
   47.3988   10.2829   18.7845 H   0  0  0  0  0  0  0  0  0  0  0  0
   49.7281    7.0348   18.9201 H   0  0  0  0  0  0  0  0  0  0  0  0
   47.1596    7.8522   18.6704 H   0  0  0  0  0  0  0  0  0  0  0  0
 10  9  1  0
 11  4  2  0
 12  3  2  0
 13  6  2  0
 14  5  2  0
 15  8  1  0
 16 10  1  0
 17 10  1  0
 18 12  1  0
 19 11  1  0
 20 19  2  0
 21 18  2  0
  5  2  1  0
 13 20  1  0
 14 21  1  0
  2  6  1  0
  3  1  1  0
  4  1  1  0
  5  3  1  0
  6  4  1  0
  7  1  1  0
  8  7  1  0
  9  8  1  0
 31 30  1  0
 32 25  2  0
 33 24  2  0
 34 27  2  0
 35 26  2  0
 36 29  1  0
 37 31  1  0
 38 31  1  0
 39 33  1  0
 40 32  1  0
 41 40  2  0
 42 39  2  0
 26 23  1  0
 34 41  1  0
 35 42  1  0
 23 27  1  0
 24 22  1  0
 25 22  1  0
 26 24  1  0
 27 25  1  0
 28 22  1  0
 29 28  1  0
 30 29  1  0
 49 44  2  0
 50 47  1  0
 51 48  1  0
 49 43  1  0
 51 52  1  0
 50 51  1  0
 52 45  1  0
 49 50  1  0
 52 46  2  0
  7 53  1  0
  7 54  1  0
  8 55  1  1
  9 56  1  0
  9 57  1  0
 11 58  1  0
 12 59  1  0
 13 60  1  0
 14 61  1  0
 15 62  1  0
 15 63  1  0
 15 64  1  0
 16 65  1  0
 16 66  1  0
 16 67  1  0
 17 68  1  0
 17 69  1  0
 17 70  1  0
 18 71  1  0
 19 72  1  0
 20 73  1  0
 21 74  1  0
 28 75  1  0
 28 76  1  0
 29 77  1  1
 30 78  1  0
 30 79  1  0
 32 80  1  0
 33 81  1  0
 34 82  1  0
 35 83  1  0
 36 84  1  0
 36 85  1  0
 36 86  1  0
 37 87  1  0
 37 88  1  0
 37 89  1  0
 38 90  1  0
 38 91  1  0
 38 92  1  0
 39 93  1  0
 40 94  1  0
 41 95  1  0
 42 96  1  0
 43 97  1  0
 45 98  1  0
 47 99  1  0
 48100  1  0
 50101  1  6
 51102  1  1
M  END
> <Uni-Dock RESULT> 
ENERGY=   -6.470  LOWER_BOUND=    4.230  UPPER_BOUND=    7.266
INTER + INTRA:          -6.470
INTER:                  -6.470
INTRA:                   0.000
UNBOUND:                 0.000

$$$$

     RDKit          3D

102105  0  0  0  0  0  0  0  0999 V2000
   49.2909    7.5544   13.9779 N   0  0  0  0  0  0  0  0  0  0  0  0
   46.9896    9.3823   12.8849 S   0  0  0  0  0  0  0  0  0  0  0  0
   49.6788    8.8211   13.4681 C   0  0  0  0  0  0  0  0  0  0  0  0
   48.0576    6.9099   13.6788 C   0  0  0  0  0  0  0  0  0  0  0  0
   48.7341    9.7255   12.9399 C   0  0  0  0  0  0  0  0  0  0  0  0
   46.9659    7.6199   13.1421 C   0  0  0  0  0  0  0  0  0  0  0  0
   50.0718    7.0019   15.1151 C   0  0  0  0  0  0  0  0  0  0  0  0
   49.3525    7.1680   16.4773 C   0  0  1  0  0  0  0  0  0  0  0  0
   50.1004    6.3797   17.5800 C   0  0  0  0  0  0  0  0  0  0  0  0
   50.1423    4.9260   17.3342 N   0  0  0  0  0  0  0  0  0  0  0  0
   47.8845    5.5217   13.8679 C   0  0  0  0  0  0  0  0  0  0  0  0
   51.0304    9.2108   13.4058 C   0  0  0  0  0  0  0  0  0  0  0  0
   45.7571    6.9677   12.8379 C   0  0  0  0  0  0  0  0  0  0  0  0
   49.1318   10.9777   12.4374 C   0  0  0  0  0  0  0  0  0  0  0  0
   49.2712    8.6448   16.8882 C   0  0  0  0  0  0  0  0  0  0  0  0
   51.1683    4.2980   18.1700 C   0  0  0  0  0  0  0  0  0  0  0  0
   48.8443    4.2978   17.6049 C   0  0  0  0  0  0  0  0  0  0  0  0
   51.4257   10.4547   12.8995 C   0  0  0  0  0  0  0  0  0  0  0  0
   46.6811    4.8755   13.5617 C   0  0  0  0  0  0  0  0  0  0  0  0
   45.6163    5.5987   13.0445 C   0  0  0  0  0  0  0  0  0  0  0  0
   50.4756   11.3442   12.4214 C   0  0  0  0  0  0  0  0  0  0  0  0
   49.4072    6.6808   16.3589 N   0  0  0  0  0  0  0  0  0  0  0  0
   51.5824    4.7731   17.6560 S   0  0  0  0  0  0  0  0  0  0  0  0
   50.7649    7.1451   16.3819 C   0  0  0  0  0  0  0  0  0  0  0  0
   48.9562    5.4219   16.8613 C   0  0  0  0  0  0  0  0  0  0  0  0
   51.8066    6.3784   16.9419 C   0  0  0  0  0  0  0  0  0  0  0  0
   49.8409    4.4985   17.4574 C   0  0  0  0  0  0  0  0  0  0  0  0
   48.3936    7.6334   15.8342 C   0  0  0  0  0  0  0  0  0  0  0  0
   48.3287    7.6482   14.2830 C   0  0  2  0  0  0  0  0  0  0  0  0
   47.6954    8.9881   13.8271 C   0  0  0  0  0  0  0  0  0  0  0  0
   47.5727    9.1637   12.3686 N   0  0  0  0  0  0  0  0  0  0  0  0
   47.6047    5.0061   16.7956 C   0  0  0  0  0  0  0  0  0  0  0  0
   51.1497    8.4010   15.8498 C   0  0  0  0  0  0  0  0  0  0  0  0
   49.3907    3.2484   17.9381 C   0  0  0  0  0  0  0  0  0  0  0  0
   53.1345    6.8555   16.9664 C   0  0  0  0  0  0  0  0  0  0  0  0
   47.5529    6.4521   13.7275 C   0  0  0  0  0  0  0  0  0  0  0  0
   46.8189   10.3803   12.0685 C   0  0  0  0  0  0  0  0  0  0  0  0
   48.8747    9.2072   11.7024 C   0  0  0  0  0  0  0  0  0  0  0  0
   52.4677    8.8765   15.8848 C   0  0  0  0  0  0  0  0  0  0  0  0
   47.1573    3.7673   17.2808 C   0  0  0  0  0  0  0  0  0  0  0  0
   48.0545    2.8814   17.8477 C   0  0  0  0  0  0  0  0  0  0  0  0
   53.4638    8.0992   16.4430 C   0  0  0  0  0  0  0  0  0  0  0  0
   49.4167    5.6049   17.5185 O   0  0  0  0  0  0  0  0  0  0  0  0
   51.2582    5.8637   16.2881 O   0  0  0  0  0  0  0  0  0  0  0  0
   48.1165    8.3707   12.7413 O   0  0  0  0  0  0  0  0  0  0  0  0
   49.8112    9.3925   13.7844 O   0  0  0  0  0  0  0  0  0  0  0  0
   48.1929    7.7829   16.6303 O   0  0  0  0  0  0  0  0  0  0  0  0
   47.9422    6.3525   14.3909 O   0  0  0  0  0  0  0  0  0  0  0  0
   50.1406    6.2568   16.5873 C   0  0  0  0  0  0  0  0  0  0  0  0
   49.4153    7.4466   15.9680 C   0  0  1  0  0  0  0  0  0  0  0  0
   49.1501    7.1241   14.4970 C   0  0  2  0  0  0  0  0  0  0  0  0
   49.0857    8.4176   13.6896 C   0  0  0  0  0  0  0  0  0  0  0  0
   51.0562    7.4689   15.2151 H   0  0  0  0  0  0  0  0  0  0  0  0
   50.3108    5.9538   14.9103 H   0  0  0  0  0  0  0  0  0  0  0  0
   48.3225    6.8022   16.4147 H   0  0  0  0  0  0  0  0  0  0  0  0
   51.1286    6.7698   17.6223 H   0  0  0  0  0  0  0  0  0  0  0  0
   49.6515    6.5844   18.5637 H   0  0  0  0  0  0  0  0  0  0  0  0
   48.6895    4.9021   14.2464 H   0  0  0  0  0  0  0  0  0  0  0  0
   51.8234    8.5334   13.7024 H   0  0  0  0  0  0  0  0  0  0  0  0
   44.9148    7.5316   12.4368 H   0  0  0  0  0  0  0  0  0  0  0  0
   48.3902   11.6694   12.0419 H   0  0  0  0  0  0  0  0  0  0  0  0
   50.2645    9.1073   16.9216 H   0  0  0  0  0  0  0  0  0  0  0  0
   48.6522    9.2181   16.1904 H   0  0  0  0  0  0  0  0  0  0  0  0
   48.8171    8.7478   17.8806 H   0  0  0  0  0  0  0  0  0  0  0  0
   51.2157    3.2197   17.9770 H   0  0  0  0  0  0  0  0  0  0  0  0
   52.1566    4.7031   17.9252 H   0  0  0  0  0  0  0  0  0  0  0  0
   50.9831    4.4503   19.2399 H   0  0  0  0  0  0  0  0  0  0  0  0
   48.8961    3.2208   17.4078 H   0  0  0  0  0  0  0  0  0  0  0  0
   48.5259    4.4412   18.6450 H   0  0  0  0  0  0  0  0  0  0  0  0
   48.0645    4.6908   16.9447 H   0  0  0  0  0  0  0  0  0  0  0  0
   52.4800   10.7168   12.8692 H   0  0  0  0  0  0  0  0  0  0  0  0
   46.5834    3.8062   13.7240 H   0  0  0  0  0  0  0  0  0  0  0  0
   44.6771    5.1070   12.8069 H   0  0  0  0  0  0  0  0  0  0  0  0
   50.7699   12.3141   12.0296 H   0  0  0  0  0  0  0  0  0  0  0  0
   47.3948    7.4767   16.2513 H   0  0  0  0  0  0  0  0  0  0  0  0
   48.6158    8.6369   16.2225 H   0  0  0  0  0  0  0  0  0  0  0  0
   49.3467    7.5840   13.8867 H   0  0  0  0  0  0  0  0  0  0  0  0
   46.6920    9.0429   14.2710 H   0  0  0  0  0  0  0  0  0  0  0  0
   48.2699    9.8236   14.2510 H   0  0  0  0  0  0  0  0  0  0  0  0
   46.8325    5.6257   16.3548 H   0  0  0  0  0  0  0  0  0  0  0  0
   50.4393    9.0707   15.3820 H   0  0  0  0  0  0  0  0  0  0  0  0
   50.0896    2.5492   18.3948 H   0  0  0  0  0  0  0  0  0  0  0  0
   53.9267    6.2494   17.4031 H   0  0  0  0  0  0  0  0  0  0  0  0
   48.0280    5.5081   14.0096 H   0  0  0  0  0  0  0  0  0  0  0  0
   47.5186    6.4725   12.6343 H   0  0  0  0  0  0  0  0  0  0  0  0
   46.5206    6.4450   14.0916 H   0  0  0  0  0  0  0  0  0  0  0  0
   45.8155   10.3290   12.5082 H   0  0  0  0  0  0  0  0  0  0  0  0
   47.3184   11.2813   12.4474 H   0  0  0  0  0  0  0  0  0  0  0  0
   46.6783   10.4880   10.9878 H   0  0  0  0  0  0  0  0  0  0  0  0
   48.7529    9.4035   10.6319 H   0  0  0  0  0  0  0  0  0  0  0  0
   49.5317    9.9782   12.1167 H   0  0  0  0  0  0  0  0  0  0  0  0
   49.3857    8.2453   11.7667 H   0  0  0  0  0  0  0  0  0  0  0  0
   52.7069    9.8516   15.4682 H   0  0  0  0  0  0  0  0  0  0  0  0
   46.1071    3.4992   17.1909 H   0  0  0  0  0  0  0  0  0  0  0  0
   47.7191    1.9201   18.2261 H   0  0  0  0  0  0  0  0  0  0  0  0
   54.4892    8.4534   16.4796 H   0  0  0  0  0  0  0  0  0  0  0  0
   49.9981    4.8778   17.8245 H   0  0  0  0  0  0  0  0  0  0  0  0
   48.1708    9.2514   12.3091 H   0  0  0  0  0  0  0  0  0  0  0  0
   47.6212    6.9958   16.5178 H   0  0  0  0  0  0  0  0  0  0  0  0
   47.5713    6.5699   13.5111 H   0  0  0  0  0  0  0  0  0  0  0  0
   50.0873    8.3033   16.0916 H   0  0  0  0  0  0  0  0  0  0  0  0
   49.9558    6.5297   14.0509 H   0  0  0  0  0  0  0  0  0  0  0  0
 10  9  1  0
 11  4  2  0
 12  3  2  0
 13  6  2  0
 14  5  2  0
 15  8  1  0
 16 10  1  0
 17 10  1  0
 18 12  1  0
 19 11  1  0
 20 19  2  0
 21 18  2  0
  5  2  1  0
 13 20  1  0
 14 21  1  0
  2  6  1  0
  3  1  1  0
  4  1  1  0
  5  3  1  0
  6  4  1  0
  7  1  1  0
  8  7  1  0
  9  8  1  0
 31 30  1  0
 32 25  2  0
 33 24  2  0
 34 27  2  0
 35 26  2  0
 36 29  1  0
 37 31  1  0
 38 31  1  0
 39 33  1  0
 40 32  1  0
 41 40  2  0
 42 39  2  0
 26 23  1  0
 34 41  1  0
 35 42  1  0
 23 27  1  0
 24 22  1  0
 25 22  1  0
 26 24  1  0
 27 25  1  0
 28 22  1  0
 29 28  1  0
 30 29  1  0
 49 44  2  0
 50 47  1  0
 51 48  1  0
 49 43  1  0
 51 52  1  0
 50 51  1  0
 52 45  1  0
 49 50  1  0
 52 46  2  0
  7 53  1  0
  7 54  1  0
  8 55  1  1
  9 56  1  0
  9 57  1  0
 11 58  1  0
 12 59  1  0
 13 60  1  0
 14 61  1  0
 15 62  1  0
 15 63  1  0
 15 64  1  0
 16 65  1  0
 16 66  1  0
 16 67  1  0
 17 68  1  0
 17 69  1  0
 17 70  1  0
 18 71  1  0
 19 72  1  0
 20 73  1  0
 21 74  1  0
 28 75  1  0
 28 76  1  0
 29 77  1  1
 30 78  1  0
 30 79  1  0
 32 80  1  0
 33 81  1  0
 34 82  1  0
 35 83  1  0
 36 84  1  0
 36 85  1  0
 36 86  1  0
 37 87  1  0
 37 88  1  0
 37 89  1  0
 38 90  1  0
 38 91  1  0
 38 92  1  0
 39 93  1  0
 40 94  1  0
 41 95  1  0
 42 96  1  0
 43 97  1  0
 45 98  1  0
 47 99  1  0
 48100  1  0
 50101  1  6
 51102  1  1
M  END
> <Uni-Dock RESULT> 
ENERGY=   -6.425  LOWER_BOUND=    1.543  UPPER_BOUND=    5.103
INTER + INTRA:          -6.425
INTER:                  -6.425
INTRA:                   0.000
UNBOUND:                 0.000

$$$$

     RDKit          3D

102105  0  0  0  0  0  0  0  0999 V2000
   46.4468    7.6709   13.3575 N   0  0  0  0  0  0  0  0  0  0  0  0
   45.1889    5.8476   11.1382 S   0  0  0  0  0  0  0  0  0  0  0  0
   46.5834    6.2697   13.5391 C   0  0  0  0  0  0  0  0  0  0  0  0
   45.4836    8.2818   12.5060 C   0  0  0  0  0  0  0  0  0  0  0  0
   46.0498    5.3493   12.6130 C   0  0  0  0  0  0  0  0  0  0  0  0
   44.8197    7.5520   11.5008 C   0  0  0  0  0  0  0  0  0  0  0  0
   47.5507    8.5386   13.8438 C   0  0  0  0  0  0  0  0  0  0  0  0
   48.4805    9.0263   12.7044 C   0  0  1  0  0  0  0  0  0  0  0  0
   49.4643   10.0977   13.2344 C   0  0  0  0  0  0  0  0  0  0  0  0
   48.7930   11.3107   13.7380 N   0  0  0  0  0  0  0  0  0  0  0  0
   45.1192    9.6374   12.6558 C   0  0  0  0  0  0  0  0  0  0  0  0
   47.2014    5.7291   14.6829 C   0  0  0  0  0  0  0  0  0  0  0  0
   43.8596    8.1648   10.6753 C   0  0  0  0  0  0  0  0  0  0  0  0
   46.1919    3.9632   12.8049 C   0  0  0  0  0  0  0  0  0  0  0  0
   49.2846    7.8640   12.1052 C   0  0  0  0  0  0  0  0  0  0  0  0
   49.7131   12.0954   14.5646 C   0  0  0  0  0  0  0  0  0  0  0  0
   48.2962   12.1455   12.6385 C   0  0  0  0  0  0  0  0  0  0  0  0
   47.3365    4.3491   14.8761 C   0  0  0  0  0  0  0  0  0  0  0  0
   44.1615   10.2434   11.8342 C   0  0  0  0  0  0  0  0  0  0  0  0
   43.5294    9.5063   10.8436 C   0  0  0  0  0  0  0  0  0  0  0  0
   46.8386    3.4632   13.9328 C   0  0  0  0  0  0  0  0  0  0  0  0
   48.2411    9.4133   12.9217 N   0  0  0  0  0  0  0  0  0  0  0  0
   49.5964   11.4069   14.9814 S   0  0  0  0  0  0  0  0  0  0  0  0
   48.9590    8.8389   14.0236 C   0  0  0  0  0  0  0  0  0  0  0  0
   48.0753   10.8120   12.6831 C   0  0  0  0  0  0  0  0  0  0  0  0
   49.6041    9.6356   14.9909 C   0  0  0  0  0  0  0  0  0  0  0  0
   48.6367   11.7843   13.5378 C   0  0  0  0  0  0  0  0  0  0  0  0
   47.6987    8.4590   11.9192 C   0  0  0  0  0  0  0  0  0  0  0  0
   46.3517    7.8249   12.3601 C   0  0  2  0  0  0  0  0  0  0  0  0
   46.1482    6.5018   11.5776 C   0  0  0  0  0  0  0  0  0  0  0  0
   44.9102    5.7665   11.8932 N   0  0  0  0  0  0  0  0  0  0  0  0
   47.3394   11.3244   11.5879 C   0  0  0  0  0  0  0  0  0  0  0  0
   49.0718    7.4388   14.2125 C   0  0  0  0  0  0  0  0  0  0  0  0
   48.4555   13.1660   13.3047 C   0  0  0  0  0  0  0  0  0  0  0  0
   50.3154    9.0538   16.0618 C   0  0  0  0  0  0  0  0  0  0  0  0
   45.1719    8.7770   12.1535 C   0  0  0  0  0  0  0  0  0  0  0  0
   44.7507    4.6327   10.9835 C   0  0  0  0  0  0  0  0  0  0  0  0
   44.8782    5.3009   13.2800 C   0  0  0  0  0  0  0  0  0  0  0  0
   49.7877    6.8640   15.2714 C   0  0  0  0  0  0  0  0  0  0  0  0
   47.1670   12.6974   11.3529 C   0  0  0  0  0  0  0  0  0  0  0  0
   47.7207   13.6224   12.2184 C   0  0  0  0  0  0  0  0  0  0  0  0
   50.4094    7.6750   16.2008 C   0  0  0  0  0  0  0  0  0  0  0  0
   48.8822   10.8570   12.8393 O   0  0  0  0  0  0  0  0  0  0  0  0
   48.6557    9.9031   14.8419 O   0  0  0  0  0  0  0  0  0  0  0  0
   45.1864    6.5710   12.4763 O   0  0  0  0  0  0  0  0  0  0  0  0
   47.0948    5.8641   13.4049 O   0  0  0  0  0  0  0  0  0  0  0  0
   48.3476    8.6701   11.4387 O   0  0  0  0  0  0  0  0  0  0  0  0
   45.8626    9.0894   12.3179 O   0  0  0  0  0  0  0  0  0  0  0  0
   48.5916    9.8021   13.6258 C   0  0  0  0  0  0  0  0  0  0  0  0
   48.1621    8.5599   12.8528 C   0  0  1  0  0  0  0  0  0  0  0  0
   46.6923    8.2881   13.1753 C   0  0  2  0  0  0  0  0  0  0  0  0
   46.4017    6.7963   13.0358 C   0  0  0  0  0  0  0  0  0  0  0  0
   48.1853    8.0378   14.5810 H   0  0  0  0  0  0  0  0  0  0  0  0
   47.1271    9.3769   14.4053 H   0  0  0  0  0  0  0  0  0  0  0  0
   47.8929    9.4561   11.8867 H   0  0  0  0  0  0  0  0  0  0  0  0
   50.0418    9.6379   14.0505 H   0  0  0  0  0  0  0  0  0  0  0  0
   50.1919   10.3646   12.4531 H   0  0  0  0  0  0  0  0  0  0  0  0
   45.5624   10.2557   13.4281 H   0  0  0  0  0  0  0  0  0  0  0  0
   47.5507    6.3680   15.4862 H   0  0  0  0  0  0  0  0  0  0  0  0
   43.3638    7.5924    9.8913 H   0  0  0  0  0  0  0  0  0  0  0  0
   45.7833    3.2651   12.0766 H   0  0  0  0  0  0  0  0  0  0  0  0
   49.8644    7.3392   12.8734 H   0  0  0  0  0  0  0  0  0  0  0  0
   48.6281    7.1360   11.6177 H   0  0  0  0  0  0  0  0  0  0  0  0
   49.9842    8.2272   11.3434 H   0  0  0  0  0  0  0  0  0  0  0  0
   49.2126   12.9888   14.9565 H   0  0  0  0  0  0  0  0  0  0  0  0
   50.0342   11.5104   15.4339 H   0  0  0  0  0  0  0  0  0  0  0  0
   50.6032   12.4130   14.0087 H   0  0  0  0  0  0  0  0  0  0  0  0
   47.7945   13.0356   13.0352 H   0  0  0  0  0  0  0  0  0  0  0  0
   49.1044   12.4752   11.9735 H   0  0  0  0  0  0  0  0  0  0  0  0
   47.5480   11.6154   12.0406 H   0  0  0  0  0  0  0  0  0  0  0  0
   47.8204    3.9728   15.7735 H   0  0  0  0  0  0  0  0  0  0  0  0
   43.9093   11.2901   11.9765 H   0  0  0  0  0  0  0  0  0  0  0  0
   42.7873    9.9683   10.1986 H   0  0  0  0  0  0  0  0  0  0  0  0
   46.9409    2.3901   14.0698 H   0  0  0  0  0  0  0  0  0  0  0  0
   47.6023    8.8898   10.9186 H   0  0  0  0  0  0  0  0  0  0  0  0
   48.4498    7.6802   11.7285 H   0  0  0  0  0  0  0  0  0  0  0  0
   46.4009    7.6004   13.4299 H   0  0  0  0  0  0  0  0  0  0  0  0
   46.1424    6.7524   10.5080 H   0  0  0  0  0  0  0  0  0  0  0  0
   47.0160    5.8474   11.7398 H   0  0  0  0  0  0  0  0  0  0  0  0
   46.8561   10.6769   10.8657 H   0  0  0  0  0  0  0  0  0  0  0  0
   48.6068    6.7277   13.5417 H   0  0  0  0  0  0  0  0  0  0  0  0
   48.8967   13.9010   13.9764 H   0  0  0  0  0  0  0  0  0  0  0  0
   50.8077    9.6850   16.8000 H   0  0  0  0  0  0  0  0  0  0  0  0
   45.2935    9.6899   12.7437 H   0  0  0  0  0  0  0  0  0  0  0  0
   44.2306    8.3198   12.4719 H   0  0  0  0  0  0  0  0  0  0  0  0
   45.0659    9.0549   11.1000 H   0  0  0  0  0  0  0  0  0  0  0  0
   44.7065    4.9778    9.9434 H   0  0  0  0  0  0  0  0  0  0  0  0
   45.5716    3.9096   11.0749 H   0  0  0  0  0  0  0  0  0  0  0  0
   43.8061    4.1142   11.1782 H   0  0  0  0  0  0  0  0  0  0  0  0
   43.9789    4.7039   13.4650 H   0  0  0  0  0  0  0  0  0  0  0  0
   45.7498    4.6912   13.5373 H   0  0  0  0  0  0  0  0  0  0  0  0
   44.8222    6.1375   13.9783 H   0  0  0  0  0  0  0  0  0  0  0  0
   49.8484    5.7826   15.3651 H   0  0  0  0  0  0  0  0  0  0  0  0
   46.5800   13.0301   10.4999 H   0  0  0  0  0  0  0  0  0  0  0  0
   47.5932   14.6872   12.0462 H   0  0  0  0  0  0  0  0  0  0  0  0
   50.9692    7.2458   17.0257 H   0  0  0  0  0  0  0  0  0  0  0  0
   49.1382   11.5703   13.4607 H   0  0  0  0  0  0  0  0  0  0  0  0
   45.1284    5.5911   12.4322 H   0  0  0  0  0  0  0  0  0  0  0  0
   47.7629    9.4065   11.1652 H   0  0  0  0  0  0  0  0  0  0  0  0
   45.0331    8.5804   12.2092 H   0  0  0  0  0  0  0  0  0  0  0  0
   48.8195    7.7529   13.1954 H   0  0  0  0  0  0  0  0  0  0  0  0
   46.4393    8.5494   14.2093 H   0  0  0  0  0  0  0  0  0  0  0  0
 10  9  1  0
 11  4  2  0
 12  3  2  0
 13  6  2  0
 14  5  2  0
 15  8  1  0
 16 10  1  0
 17 10  1  0
 18 12  1  0
 19 11  1  0
 20 19  2  0
 21 18  2  0
  5  2  1  0
 13 20  1  0
 14 21  1  0
  2  6  1  0
  3  1  1  0
  4  1  1  0
  5  3  1  0
  6  4  1  0
  7  1  1  0
  8  7  1  0
  9  8  1  0
 31 30  1  0
 32 25  2  0
 33 24  2  0
 34 27  2  0
 35 26  2  0
 36 29  1  0
 37 31  1  0
 38 31  1  0
 39 33  1  0
 40 32  1  0
 41 40  2  0
 42 39  2  0
 26 23  1  0
 34 41  1  0
 35 42  1  0
 23 27  1  0
 24 22  1  0
 25 22  1  0
 26 24  1  0
 27 25  1  0
 28 22  1  0
 29 28  1  0
 30 29  1  0
 49 44  2  0
 50 47  1  0
 51 48  1  0
 49 43  1  0
 51 52  1  0
 50 51  1  0
 52 45  1  0
 49 50  1  0
 52 46  2  0
  7 53  1  0
  7 54  1  0
  8 55  1  1
  9 56  1  0
  9 57  1  0
 11 58  1  0
 12 59  1  0
 13 60  1  0
 14 61  1  0
 15 62  1  0
 15 63  1  0
 15 64  1  0
 16 65  1  0
 16 66  1  0
 16 67  1  0
 17 68  1  0
 17 69  1  0
 17 70  1  0
 18 71  1  0
 19 72  1  0
 20 73  1  0
 21 74  1  0
 28 75  1  0
 28 76  1  0
 29 77  1  1
 30 78  1  0
 30 79  1  0
 32 80  1  0
 33 81  1  0
 34 82  1  0
 35 83  1  0
 36 84  1  0
 36 85  1  0
 36 86  1  0
 37 87  1  0
 37 88  1  0
 37 89  1  0
 38 90  1  0
 38 91  1  0
 38 92  1  0
 39 93  1  0
 40 94  1  0
 41 95  1  0
 42 96  1  0
 43 97  1  0
 45 98  1  0
 47 99  1  0
 48100  1  0
 50101  1  6
 51102  1  1
M  END
> <Uni-Dock RESULT> 
ENERGY=   -5.994  LOWER_BOUND=    1.717  UPPER_BOUND=    6.294
INTER + INTRA:          -5.994
INTER:                  -5.994
INTRA:                   0.000
UNBOUND:                 0.000

$$$$

     RDKit          3D

102105  0  0  0  0  0  0  0  0999 V2000
   50.5721    5.6810   21.1013 N   0  0  0  0  0  0  0  0  0  0  0  0
   51.8698    8.2267   22.3925 S   0  0  0  0  0  0  0  0  0  0  0  0
   49.6973    6.7638   21.3790 C   0  0  0  0  0  0  0  0  0  0  0  0
   51.8511    5.5056   21.7009 C   0  0  0  0  0  0  0  0  0  0  0  0
   50.1632    7.9573   21.9687 C   0  0  0  0  0  0  0  0  0  0  0  0
   52.5131    6.5663   22.3493 C   0  0  0  0  0  0  0  0  0  0  0  0
   50.2764    4.8460   19.9082 C   0  0  0  0  0  0  0  0  0  0  0  0
   51.1819    5.1833   18.6970 C   0  0  1  0  0  0  0  0  0  0  0  0
   50.9848    4.1395   17.5709 C   0  0  0  0  0  0  0  0  0  0  0  0
   51.3594    2.7699   17.9702 N   0  0  0  0  0  0  0  0  0  0  0  0
   52.4973    4.2505   21.7093 C   0  0  0  0  0  0  0  0  0  0  0  0
   48.3127    6.6762   21.1387 C   0  0  0  0  0  0  0  0  0  0  0  0
   53.7707    6.3756   22.9500 C   0  0  0  0  0  0  0  0  0  0  0  0
   49.2857    9.0228   22.2391 C   0  0  0  0  0  0  0  0  0  0  0  0
   50.8720    6.5805   18.1416 C   0  0  0  0  0  0  0  0  0  0  0  0
   50.7966    1.7948   17.0332 C   0  0  0  0  0  0  0  0  0  0  0  0
   52.8163    2.6058   18.0246 C   0  0  0  0  0  0  0  0  0  0  0  0
   47.4391    7.7349   21.4142 C   0  0  0  0  0  0  0  0  0  0  0  0
   53.7475    4.0637   22.3104 C   0  0  0  0  0  0  0  0  0  0  0  0
   54.3848    5.1269   22.9330 C   0  0  0  0  0  0  0  0  0  0  0  0
   47.9258    8.9139   21.9579 C   0  0  0  0  0  0  0  0  0  0  0  0
   51.2622    4.7123   18.8583 N   0  0  0  0  0  0  0  0  0  0  0  0
   50.1508    2.1248   17.4012 S   0  0  0  0  0  0  0  0  0  0  0  0
   49.8665    4.6888   18.5251 C   0  0  0  0  0  0  0  0  0  0  0  0
   52.1911    3.6585   18.5989 C   0  0  0  0  0  0  0  0  0  0  0  0
   49.2737    3.5905   17.8700 C   0  0  0  0  0  0  0  0  0  0  0  0
   51.8012    2.4643   17.9564 C   0  0  0  0  0  0  0  0  0  0  0  0
   51.7769    5.9741   19.4521 C   0  0  0  0  0  0  0  0  0  0  0  0
   51.4953    6.0805   20.9754 C   0  0  2  0  0  0  0  0  0  0  0  0
   51.5501    7.5748   21.3854 C   0  0  0  0  0  0  0  0  0  0  0  0
   51.2903    7.8477   22.8106 N   0  0  0  0  0  0  0  0  0  0  0  0
   53.5562    3.7274   18.9669 C   0  0  0  0  0  0  0  0  0  0  0  0
   48.9931    5.7636   18.8263 C   0  0  0  0  0  0  0  0  0  0  0  0
   52.7218    1.4195   17.7171 C   0  0  0  0  0  0  0  0  0  0  0  0
   47.9018    3.5891   17.5396 C   0  0  0  0  0  0  0  0  0  0  0  0
   52.4738    5.2436   21.8018 C   0  0  0  0  0  0  0  0  0  0  0  0
   51.5296    9.2597   23.1059 C   0  0  0  0  0  0  0  0  0  0  0  0
   49.9314    7.4788   23.2086 C   0  0  0  0  0  0  0  0  0  0  0  0
   47.6331    5.7635   18.4876 C   0  0  0  0  0  0  0  0  0  0  0  0
   54.4715    2.6920   18.7214 C   0  0  0  0  0  0  0  0  0  0  0  0
   54.0518    1.5302   18.1007 C   0  0  0  0  0  0  0  0  0  0  0  0
   47.0854    4.6707   17.8442 C   0  0  0  0  0  0  0  0  0  0  0  0
   51.8504    3.6450   17.8497 O   0  0  0  0  0  0  0  0  0  0  0  0
   49.8026    3.3217   18.6707 O   0  0  0  0  0  0  0  0  0  0  0  0
   51.1244    6.9014   22.4356 O   0  0  0  0  0  0  0  0  0  0  0  0
   49.4605    7.2419   20.9796 O   0  0  0  0  0  0  0  0  0  0  0  0
   52.0868    6.1464   18.6966 O   0  0  0  0  0  0  0  0  0  0  0  0
   52.2909    4.9882   21.0926 O   0  0  0  0  0  0  0  0  0  0  0  0
   50.7717    4.0555   18.5455 C   0  0  0  0  0  0  0  0  0  0  0  0
   50.9240    5.4472   19.1496 C   0  0  1  0  0  0  0  0  0  0  0  0
   50.9528    5.3005   20.6714 C   0  0  2  0  0  0  0  0  0  0  0  0
   50.4217    6.5749   21.3218 C   0  0  0  0  0  0  0  0  0  0  0  0
   49.2408    4.9477   19.5703 H   0  0  0  0  0  0  0  0  0  0  0  0
   50.3480    3.7893   20.1833 H   0  0  0  0  0  0  0  0  0  0  0  0
   52.2352    5.1904   18.9953 H   0  0  0  0  0  0  0  0  0  0  0  0
   49.9209    4.1567   17.2899 H   0  0  0  0  0  0  0  0  0  0  0  0
   51.5465    4.4389   16.6732 H   0  0  0  0  0  0  0  0  0  0  0  0
   52.0361    3.3788   21.2591 H   0  0  0  0  0  0  0  0  0  0  0  0
   47.8635    5.7579   20.7774 H   0  0  0  0  0  0  0  0  0  0  0  0
   54.2792    7.2086   23.4358 H   0  0  0  0  0  0  0  0  0  0  0  0
   49.6615    9.9416   22.6855 H   0  0  0  0  0  0  0  0  0  0  0  0
   49.8152    6.6780   17.8675 H   0  0  0  0  0  0  0  0  0  0  0  0
   51.1072    7.3603   18.8732 H   0  0  0  0  0  0  0  0  0  0  0  0
   51.4730    6.7857   17.2480 H   0  0  0  0  0  0  0  0  0  0  0  0
   51.0570    0.7739   17.3367 H   0  0  0  0  0  0  0  0  0  0  0  0
   49.7023    1.8527   17.0380 H   0  0  0  0  0  0  0  0  0  0  0  0
   51.1506    1.9520   16.0074 H   0  0  0  0  0  0  0  0  0  0  0  0
   53.0716    1.5848   18.3310 H   0  0  0  0  0  0  0  0  0  0  0  0
   53.2897    2.8009   17.0541 H   0  0  0  0  0  0  0  0  0  0  0  0
   53.2658    3.2687   18.7707 H   0  0  0  0  0  0  0  0  0  0  0  0
   46.3766    7.6263   21.2138 H   0  0  0  0  0  0  0  0  0  0  0  0
   54.2161    3.0842   22.2939 H   0  0  0  0  0  0  0  0  0  0  0  0
   55.3569    4.9929   23.3994 H   0  0  0  0  0  0  0  0  0  0  0  0
   47.2581    9.7440   22.1724 H   0  0  0  0  0  0  0  0  0  0  0  0
   52.8385    6.1455   19.2527 H   0  0  0  0  0  0  0  0  0  0  0  0
   51.3343    6.8247   18.9157 H   0  0  0  0  0  0  0  0  0  0  0  0
   50.4914    5.6941   21.1763 H   0  0  0  0  0  0  0  0  0  0  0  0
   52.5539    7.9453   21.1363 H   0  0  0  0  0  0  0  0  0  0  0  0
   50.8444    8.1468   20.7670 H   0  0  0  0  0  0  0  0  0  0  0  0
   53.9734    4.5908   19.4717 H   0  0  0  0  0  0  0  0  0  0  0  0
   49.3316    6.6544   19.3398 H   0  0  0  0  0  0  0  0  0  0  0  0
   52.4011    0.5052   17.2199 H   0  0  0  0  0  0  0  0  0  0  0  0
   47.4608    2.7318   17.0335 H   0  0  0  0  0  0  0  0  0  0  0  0
   52.4001    4.1827   21.5455 H   0  0  0  0  0  0  0  0  0  0  0  0
   52.2616    5.3240   22.8719 H   0  0  0  0  0  0  0  0  0  0  0  0
   53.5068    5.5692   21.6432 H   0  0  0  0  0  0  0  0  0  0  0  0
   52.5666    9.5306   22.8731 H   0  0  0  0  0  0  0  0  0  0  0  0
   50.8621    9.9207   22.5379 H   0  0  0  0  0  0  0  0  0  0  0  0
   51.3901    9.4576   24.1739 H   0  0  0  0  0  0  0  0  0  0  0  0
   49.7484    7.7531   24.2529 H   0  0  0  0  0  0  0  0  0  0  0  0
   49.1683    7.9627   22.5912 H   0  0  0  0  0  0  0  0  0  0  0  0
   49.7830    6.3989   23.1599 H   0  0  0  0  0  0  0  0  0  0  0  0
   47.0092    6.6182   18.7362 H   0  0  0  0  0  0  0  0  0  0  0  0
   55.5062    2.7989   19.0389 H   0  0  0  0  0  0  0  0  0  0  0  0
   54.7517    0.7227   17.9061 H   0  0  0  0  0  0  0  0  0  0  0  0
   46.0344    4.6554   17.5734 H   0  0  0  0  0  0  0  0  0  0  0  0
   51.6142    2.7510   17.5250 H   0  0  0  0  0  0  0  0  0  0  0  0
   50.6979    7.7306   22.7452 H   0  0  0  0  0  0  0  0  0  0  0  0
   52.8420    5.6048   19.0054 H   0  0  0  0  0  0  0  0  0  0  0  0
   52.3721    5.3579   21.9958 H   0  0  0  0  0  0  0  0  0  0  0  0
   50.0564    6.0198   18.8030 H   0  0  0  0  0  0  0  0  0  0  0  0
   50.3040    4.4896   21.0222 H   0  0  0  0  0  0  0  0  0  0  0  0
 10  9  1  0
 11  4  2  0
 12  3  2  0
 13  6  2  0
 14  5  2  0
 15  8  1  0
 16 10  1  0
 17 10  1  0
 18 12  1  0
 19 11  1  0
 20 19  2  0
 21 18  2  0
  5  2  1  0
 13 20  1  0
 14 21  1  0
  2  6  1  0
  3  1  1  0
  4  1  1  0
  5  3  1  0
  6  4  1  0
  7  1  1  0
  8  7  1  0
  9  8  1  0
 31 30  1  0
 32 25  2  0
 33 24  2  0
 34 27  2  0
 35 26  2  0
 36 29  1  0
 37 31  1  0
 38 31  1  0
 39 33  1  0
 40 32  1  0
 41 40  2  0
 42 39  2  0
 26 23  1  0
 34 41  1  0
 35 42  1  0
 23 27  1  0
 24 22  1  0
 25 22  1  0
 26 24  1  0
 27 25  1  0
 28 22  1  0
 29 28  1  0
 30 29  1  0
 49 44  2  0
 50 47  1  0
 51 48  1  0
 49 43  1  0
 51 52  1  0
 50 51  1  0
 52 45  1  0
 49 50  1  0
 52 46  2  0
  7 53  1  0
  7 54  1  0
  8 55  1  1
  9 56  1  0
  9 57  1  0
 11 58  1  0
 12 59  1  0
 13 60  1  0
 14 61  1  0
 15 62  1  0
 15 63  1  0
 15 64  1  0
 16 65  1  0
 16 66  1  0
 16 67  1  0
 17 68  1  0
 17 69  1  0
 17 70  1  0
 18 71  1  0
 19 72  1  0
 20 73  1  0
 21 74  1  0
 28 75  1  0
 28 76  1  0
 29 77  1  1
 30 78  1  0
 30 79  1  0
 32 80  1  0
 33 81  1  0
 34 82  1  0
 35 83  1  0
 36 84  1  0
 36 85  1  0
 36 86  1  0
 37 87  1  0
 37 88  1  0
 37 89  1  0
 38 90  1  0
 38 91  1  0
 38 92  1  0
 39 93  1  0
 40 94  1  0
 41 95  1  0
 42 96  1  0
 43 97  1  0
 45 98  1  0
 47 99  1  0
 48100  1  0
 50101  1  6
 51102  1  1
M  END
> <Uni-Dock RESULT> 
ENERGY=   -5.730  LOWER_BOUND=    5.457  UPPER_BOUND=    7.570
INTER + INTRA:          -5.730
INTER:                  -5.730
INTRA:                   0.000
UNBOUND:                 0.000

$$$$

     RDKit          3D

102105  0  0  0  0  0  0  0  0999 V2000
   48.1997    8.8744   16.5132 N   0  0  0  0  0  0  0  0  0  0  0  0
   49.9948   10.8702   14.8926 S   0  0  0  0  0  0  0  0  0  0  0  0
   48.5603    8.4754   15.1995 C   0  0  0  0  0  0  0  0  0  0  0  0
   48.2434   10.2158   16.9873 C   0  0  0  0  0  0  0  0  0  0  0  0
   49.3558    9.2941   14.3711 C   0  0  0  0  0  0  0  0  0  0  0  0
   48.9810   11.2111   16.3170 C   0  0  0  0  0  0  0  0  0  0  0  0
   48.0538    7.8101   17.5399 C   0  0  0  0  0  0  0  0  0  0  0  0
   49.2771    7.7137   18.4860 C   0  0  1  0  0  0  0  0  0  0  0  0
   48.9734    6.7533   19.6616 C   0  0  0  0  0  0  0  0  0  0  0  0
   47.8556    7.2040   20.5118 N   0  0  0  0  0  0  0  0  0  0  0  0
   47.5170   10.6202   18.1281 C   0  0  0  0  0  0  0  0  0  0  0  0
   48.0899    7.2737   14.6364 C   0  0  0  0  0  0  0  0  0  0  0  0
   49.0043   12.5361   16.7886 C   0  0  0  0  0  0  0  0  0  0  0  0
   49.7058    8.8871   13.0710 C   0  0  0  0  0  0  0  0  0  0  0  0
   50.5206    7.2105   17.7396 C   0  0  0  0  0  0  0  0  0  0  0  0
   47.3693    6.0987   21.3411 C   0  0  0  0  0  0  0  0  0  0  0  0
   48.2544    8.3203   21.3763 C   0  0  0  0  0  0  0  0  0  0  0  0
   48.4336    6.8725   13.3399 C   0  0  0  0  0  0  0  0  0  0  0  0
   47.5403   11.9403   18.5931 C   0  0  0  0  0  0  0  0  0  0  0  0
   48.2835   12.9003   17.9220 C   0  0  0  0  0  0  0  0  0  0  0  0
   49.2493    7.6755   12.5572 C   0  0  0  0  0  0  0  0  0  0  0  0
   48.8619    7.8481   18.7389 N   0  0  0  0  0  0  0  0  0  0  0  0
   47.1903    5.8796   20.5786 S   0  0  0  0  0  0  0  0  0  0  0  0
   48.4843    6.5812   18.1803 C   0  0  0  0  0  0  0  0  0  0  0  0
   48.5349    8.3016   20.0534 C   0  0  0  0  0  0  0  0  0  0  0  0
   47.7475    5.6309   18.9157 C   0  0  0  0  0  0  0  0  0  0  0  0
   47.7948    7.5051   20.9527 C   0  0  0  0  0  0  0  0  0  0  0  0
   49.7265    8.7107   17.8914 C   0  0  0  0  0  0  0  0  0  0  0  0
   48.9226    9.5103   16.8306 C   0  0  2  0  0  0  0  0  0  0  0  0
   49.8858    9.9230   15.6877 C   0  0  0  0  0  0  0  0  0  0  0  0
   49.2687   10.6857   14.5874 N   0  0  0  0  0  0  0  0  0  0  0  0
   48.9181    9.5716   20.5474 C   0  0  0  0  0  0  0  0  0  0  0  0
   48.8272    6.1982   16.8596 C   0  0  0  0  0  0  0  0  0  0  0  0
   47.4612    7.9663   22.2459 C   0  0  0  0  0  0  0  0  0  0  0  0
   47.3945    4.3852   18.3546 C   0  0  0  0  0  0  0  0  0  0  0  0
   48.2263   10.7311   17.4354 C   0  0  0  0  0  0  0  0  0  0  0  0
   50.2971   11.1555   13.6601 C   0  0  0  0  0  0  0  0  0  0  0  0
   48.2648    9.9047   13.8641 C   0  0  0  0  0  0  0  0  0  0  0  0
   48.4839    4.9561   16.3086 C   0  0  0  0  0  0  0  0  0  0  0  0
   48.5930   10.0253   21.8352 C   0  0  0  0  0  0  0  0  0  0  0  0
   47.8554    9.2230   22.6858 C   0  0  0  0  0  0  0  0  0  0  0  0
   47.7626    4.0476   17.0585 C   0  0  0  0  0  0  0  0  0  0  0  0
   48.7782    7.5519   20.2905 O   0  0  0  0  0  0  0  0  0  0  0  0
   47.3316    6.5364   18.9311 O   0  0  0  0  0  0  0  0  0  0  0  0
   48.6679   10.2501   15.3036 O   0  0  0  0  0  0  0  0  0  0  0  0
   49.0432    8.0674   14.9887 O   0  0  0  0  0  0  0  0  0  0  0  0
   50.3633    8.4569   18.3673 O   0  0  0  0  0  0  0  0  0  0  0  0
   48.3227   10.1095   17.8893 O   0  0  0  0  0  0  0  0  0  0  0  0
   48.3293    7.2299   19.0614 C   0  0  0  0  0  0  0  0  0  0  0  0
   49.1511    7.8365   17.9292 C   0  0  1  0  0  0  0  0  0  0  0  0
   48.2707    8.8506   17.1979 C   0  0  2  0  0  0  0  0  0  0  0  0
   48.7189    8.9677   15.7438 C   0  0  0  0  0  0  0  0  0  0  0  0
   47.9119    6.8185   17.1000 H   0  0  0  0  0  0  0  0  0  0  0  0
   47.1257    7.9733   18.0962 H   0  0  0  0  0  0  0  0  0  0  0  0
   49.5299    8.6999   18.8884 H   0  0  0  0  0  0  0  0  0  0  0  0
   48.7264    5.7722   19.2285 H   0  0  0  0  0  0  0  0  0  0  0  0
   49.8765    6.6030   20.2721 H   0  0  0  0  0  0  0  0  0  0  0  0
   46.9000    9.9190   18.6784 H   0  0  0  0  0  0  0  0  0  0  0  0
   47.3962    6.6367   15.1735 H   0  0  0  0  0  0  0  0  0  0  0  0
   49.5911   13.2937   16.2689 H   0  0  0  0  0  0  0  0  0  0  0  0
   50.3285    9.5251   12.4466 H   0  0  0  0  0  0  0  0  0  0  0  0
   50.3346    6.2447   17.2557 H   0  0  0  0  0  0  0  0  0  0  0  0
   50.8369    7.9217   16.9697 H   0  0  0  0  0  0  0  0  0  0  0  0
   51.3639    7.0861   18.4289 H   0  0  0  0  0  0  0  0  0  0  0  0
   46.5259    6.4244   21.9614 H   0  0  0  0  0  0  0  0  0  0  0  0
   46.9960    5.2859   20.7080 H   0  0  0  0  0  0  0  0  0  0  0  0
   48.1494    5.6989   21.9996 H   0  0  0  0  0  0  0  0  0  0  0  0
   47.4075    8.6440   21.9922 H   0  0  0  0  0  0  0  0  0  0  0  0
   49.0808    8.0489   22.0451 H   0  0  0  0  0  0  0  0  0  0  0  0
   48.5546    9.1936   20.7885 H   0  0  0  0  0  0  0  0  0  0  0  0
   48.0489    5.9370   12.9427 H   0  0  0  0  0  0  0  0  0  0  0  0
   46.9715   12.2140   19.4768 H   0  0  0  0  0  0  0  0  0  0  0  0
   48.3108   13.9267   18.2769 H   0  0  0  0  0  0  0  0  0  0  0  0
   49.5260    7.3729   11.5509 H   0  0  0  0  0  0  0  0  0  0  0  0
   50.3637    9.3864   18.4689 H   0  0  0  0  0  0  0  0  0  0  0  0
   50.4885    8.0834   17.4085 H   0  0  0  0  0  0  0  0  0  0  0  0
   48.1408    8.8642   16.4197 H   0  0  0  0  0  0  0  0  0  0  0  0
   50.6799   10.5363   16.1352 H   0  0  0  0  0  0  0  0  0  0  0  0
   50.3750    9.0257   15.2838 H   0  0  0  0  0  0  0  0  0  0  0  0
   49.4840   10.2754   19.9484 H   0  0  0  0  0  0  0  0  0  0  0  0
   49.3799    6.8507   16.1957 H   0  0  0  0  0  0  0  0  0  0  0  0
   46.8888    7.3363   22.9253 H   0  0  0  0  0  0  0  0  0  0  0  0
   46.8249    3.6632   18.9375 H   0  0  0  0  0  0  0  0  0  0  0  0
   47.5116   10.4349   18.2087 H   0  0  0  0  0  0  0  0  0  0  0  0
   47.6605   11.2825   16.6789 H   0  0  0  0  0  0  0  0  0  0  0  0
   48.9507   11.4227   17.8773 H   0  0  0  0  0  0  0  0  0  0  0  0
   51.0187   11.7975   14.1797 H   0  0  0  0  0  0  0  0  0  0  0  0
   50.8437   10.3261   13.1928 H   0  0  0  0  0  0  0  0  0  0  0  0
   49.8505   11.7680   12.8697 H   0  0  0  0  0  0  0  0  0  0  0  0
   47.8727   10.4741   13.0148 H   0  0  0  0  0  0  0  0  0  0  0  0
   48.6638    8.9590   13.4843 H   0  0  0  0  0  0  0  0  0  0  0  0
   47.4008    9.6881   14.4944 H   0  0  0  0  0  0  0  0  0  0  0  0
   48.7789    4.7104   15.2916 H   0  0  0  0  0  0  0  0  0  0  0  0
   48.9059   11.0170   22.1537 H   0  0  0  0  0  0  0  0  0  0  0  0
   47.5981    9.5644   23.6843 H   0  0  0  0  0  0  0  0  0  0  0  0
   47.4902    3.0807   16.6474 H   0  0  0  0  0  0  0  0  0  0  0  0
   48.1654    7.1003   20.9077 H   0  0  0  0  0  0  0  0  0  0  0  0
   48.9869   10.1908   14.3762 H   0  0  0  0  0  0  0  0  0  0  0  0
   50.0746    9.1893   18.9497 H   0  0  0  0  0  0  0  0  0  0  0  0
   48.1767   10.7904   17.2008 H   0  0  0  0  0  0  0  0  0  0  0  0
   49.4403    6.9970   17.2871 H   0  0  0  0  0  0  0  0  0  0  0  0
   47.2199    8.5405   17.1658 H   0  0  0  0  0  0  0  0  0  0  0  0
 10  9  1  0
 11  4  2  0
 12  3  2  0
 13  6  2  0
 14  5  2  0
 15  8  1  0
 16 10  1  0
 17 10  1  0
 18 12  1  0
 19 11  1  0
 20 19  2  0
 21 18  2  0
  5  2  1  0
 13 20  1  0
 14 21  1  0
  2  6  1  0
  3  1  1  0
  4  1  1  0
  5  3  1  0
  6  4  1  0
  7  1  1  0
  8  7  1  0
  9  8  1  0
 31 30  1  0
 32 25  2  0
 33 24  2  0
 34 27  2  0
 35 26  2  0
 36 29  1  0
 37 31  1  0
 38 31  1  0
 39 33  1  0
 40 32  1  0
 41 40  2  0
 42 39  2  0
 26 23  1  0
 34 41  1  0
 35 42  1  0
 23 27  1  0
 24 22  1  0
 25 22  1  0
 26 24  1  0
 27 25  1  0
 28 22  1  0
 29 28  1  0
 30 29  1  0
 49 44  2  0
 50 47  1  0
 51 48  1  0
 49 43  1  0
 51 52  1  0
 50 51  1  0
 52 45  1  0
 49 50  1  0
 52 46  2  0
  7 53  1  0
  7 54  1  0
  8 55  1  1
  9 56  1  0
  9 57  1  0
 11 58  1  0
 12 59  1  0
 13 60  1  0
 14 61  1  0
 15 62  1  0
 15 63  1  0
 15 64  1  0
 16 65  1  0
 16 66  1  0
 16 67  1  0
 17 68  1  0
 17 69  1  0
 17 70  1  0
 18 71  1  0
 19 72  1  0
 20 73  1  0
 21 74  1  0
 28 75  1  0
 28 76  1  0
 29 77  1  1
 30 78  1  0
 30 79  1  0
 32 80  1  0
 33 81  1  0
 34 82  1  0
 35 83  1  0
 36 84  1  0
 36 85  1  0
 36 86  1  0
 37 87  1  0
 37 88  1  0
 37 89  1  0
 38 90  1  0
 38 91  1  0
 38 92  1  0
 39 93  1  0
 40 94  1  0
 41 95  1  0
 42 96  1  0
 43 97  1  0
 45 98  1  0
 47 99  1  0
 48100  1  0
 50101  1  6
 51102  1  1
M  END
> <Uni-Dock RESULT> 
ENERGY=   -5.722  LOWER_BOUND=    3.178  UPPER_BOUND=    6.306
INTER + INTRA:          -5.722
INTER:                  -5.722
INTRA:                   0.000
UNBOUND:                 0.000

$$$$

     RDKit          3D

102105  0  0  0  0  0  0  0  0999 V2000
   48.0876    8.6032   17.3482 N   0  0  0  0  0  0  0  0  0  0  0  0
   49.8078    6.0360   16.8170 S   0  0  0  0  0  0  0  0  0  0  0  0
   48.1973    7.6830   18.4234 C   0  0  0  0  0  0  0  0  0  0  0  0
   48.3432    8.2825   15.9852 C   0  0  0  0  0  0  0  0  0  0  0  0
   48.9356    6.4876   18.3002 C   0  0  0  0  0  0  0  0  0  0  0  0
   49.0675    7.1303   15.6223 C   0  0  0  0  0  0  0  0  0  0  0  0
   47.9926   10.0474   17.6854 C   0  0  0  0  0  0  0  0  0  0  0  0
   49.3307   10.8023   17.4853 C   0  0  1  0  0  0  0  0  0  0  0  0
   49.1144   12.3282   17.6316 C   0  0  0  0  0  0  0  0  0  0  0  0
   48.1945   12.8883   16.6238 N   0  0  0  0  0  0  0  0  0  0  0  0
   47.8479    9.0821   14.9326 C   0  0  0  0  0  0  0  0  0  0  0  0
   47.5232    7.8867   19.6427 C   0  0  0  0  0  0  0  0  0  0  0  0
   49.3009    6.8176   14.2708 C   0  0  0  0  0  0  0  0  0  0  0  0
   49.0361    5.5839   19.3733 C   0  0  0  0  0  0  0  0  0  0  0  0
   50.3848   10.3481   18.5047 C   0  0  0  0  0  0  0  0  0  0  0  0
   47.7302   14.2139   17.0397 C   0  0  0  0  0  0  0  0  0  0  0  0
   48.8360   12.9894   15.3082 C   0  0  0  0  0  0  0  0  0  0  0  0
   47.6186    6.9834   20.7080 C   0  0  0  0  0  0  0  0  0  0  0  0
   48.0798    8.7666   13.5887 C   0  0  0  0  0  0  0  0  0  0  0  0
   48.8058    7.6322   13.2568 C   0  0  0  0  0  0  0  0  0  0  0  0
   48.3824    5.8334   20.5778 C   0  0  0  0  0  0  0  0  0  0  0  0
   48.9759   10.9750   17.1712 N   0  0  0  0  0  0  0  0  0  0  0  0
   47.4137   13.7027   17.5872 S   0  0  0  0  0  0  0  0  0  0  0  0
   48.3869   11.2103   18.4586 C   0  0  0  0  0  0  0  0  0  0  0  0
   48.9050   11.8643   16.0555 C   0  0  0  0  0  0  0  0  0  0  0  0
   47.6782   12.3932   18.7503 C   0  0  0  0  0  0  0  0  0  0  0  0
   48.2343   13.1032   16.1329 C   0  0  0  0  0  0  0  0  0  0  0  0
   49.7838    9.7349   17.0327 C   0  0  0  0  0  0  0  0  0  0  0  0
   48.9130    8.4758   16.7736 C   0  0  2  0  0  0  0  0  0  0  0  0
   49.7253    7.2198   17.1820 C   0  0  0  0  0  0  0  0  0  0  0  0
   49.0280    5.9330   17.0061 N   0  0  0  0  0  0  0  0  0  0  0  0
   49.4898   11.5725   14.7999 C   0  0  0  0  0  0  0  0  0  0  0  0
   48.4798   10.2769   19.5210 C   0  0  0  0  0  0  0  0  0  0  0  0
   48.1545   13.9710   15.0207 C   0  0  0  0  0  0  0  0  0  0  0  0
   47.1152   12.6131   20.0254 C   0  0  0  0  0  0  0  0  0  0  0  0
   48.4492    8.3857   15.3183 C   0  0  0  0  0  0  0  0  0  0  0  0
   49.9438    4.8230   17.2663 C   0  0  0  0  0  0  0  0  0  0  0  0
   47.8488    5.8177   17.8645 C   0  0  0  0  0  0  0  0  0  0  0  0
   47.9284   10.5028   20.7895 C   0  0  0  0  0  0  0  0  0  0  0  0
   49.4167   12.4391   13.6981 C   0  0  0  0  0  0  0  0  0  0  0  0
   48.7403   13.6399   13.8060 C   0  0  0  0  0  0  0  0  0  0  0  0
   47.2413   11.6743   21.0413 C   0  0  0  0  0  0  0  0  0  0  0  0
   49.1029   12.4459   16.6033 O   0  0  0  0  0  0  0  0  0  0  0  0
   47.3659   11.9540   17.9120 O   0  0  0  0  0  0  0  0  0  0  0  0
   48.5034    6.8143   16.8991 O   0  0  0  0  0  0  0  0  0  0  0  0
   48.5967    7.6868   18.9568 O   0  0  0  0  0  0  0  0  0  0  0  0
   50.4568   10.2227   17.1079 O   0  0  0  0  0  0  0  0  0  0  0  0
   48.5495    9.0926   15.6215 O   0  0  0  0  0  0  0  0  0  0  0  0
   48.4383   11.6173   17.4325 C   0  0  0  0  0  0  0  0  0  0  0  0
   49.1336   10.2775   17.6487 C   0  0  1  0  0  0  0  0  0  0  0  0
   48.2608    9.1871   17.0263 C   0  0  2  0  0  0  0  0  0  0  0  0
   48.4884    7.8661   17.7561 C   0  0  0  0  0  0  0  0  0  0  0  0
   47.6821   10.2176   18.7206 H   0  0  0  0  0  0  0  0  0  0  0  0
   47.1837   10.4991   17.1031 H   0  0  0  0  0  0  0  0  0  0  0  0
   49.7438   10.5950   16.4928 H   0  0  0  0  0  0  0  0  0  0  0  0
   48.7030   12.5065   18.6366 H   0  0  0  0  0  0  0  0  0  0  0  0
   50.0807   12.8538   17.5956 H   0  0  0  0  0  0  0  0  0  0  0  0
   47.2540    9.9670   15.1315 H   0  0  0  0  0  0  0  0  0  0  0  0
   46.8586    8.7320   19.7815 H   0  0  0  0  0  0  0  0  0  0  0  0
   49.8757    5.9308   14.0037 H   0  0  0  0  0  0  0  0  0  0  0  0
   49.6176    4.6700   19.2667 H   0  0  0  0  0  0  0  0  0  0  0  0
   50.0269   10.4709   19.5335 H   0  0  0  0  0  0  0  0  0  0  0  0
   50.6503    9.2959   18.3600 H   0  0  0  0  0  0  0  0  0  0  0  0
   51.3070   10.9307   18.3961 H   0  0  0  0  0  0  0  0  0  0  0  0
   47.0314   14.6263   16.3023 H   0  0  0  0  0  0  0  0  0  0  0  0
   47.1812   14.1436   17.9854 H   0  0  0  0  0  0  0  0  0  0  0  0
   48.5571   14.9226   17.1672 H   0  0  0  0  0  0  0  0  0  0  0  0
   48.1328   13.3994   14.5742 H   0  0  0  0  0  0  0  0  0  0  0  0
   49.7233   13.6345   15.3306 H   0  0  0  0  0  0  0  0  0  0  0  0
   49.1307   12.0051   14.9305 H   0  0  0  0  0  0  0  0  0  0  0  0
   47.0821    7.1781   21.6328 H   0  0  0  0  0  0  0  0  0  0  0  0
   47.6860    9.4076   12.8055 H   0  0  0  0  0  0  0  0  0  0  0  0
   48.9942    7.3805   12.2168 H   0  0  0  0  0  0  0  0  0  0  0  0
   48.4672    5.1268   21.3989 H   0  0  0  0  0  0  0  0  0  0  0  0
   50.5694    9.8116   16.2757 H   0  0  0  0  0  0  0  0  0  0  0  0
   50.3927    9.6055   17.9382 H   0  0  0  0  0  0  0  0  0  0  0  0
   48.0142    8.5345   17.3951 H   0  0  0  0  0  0  0  0  0  0  0  0
   50.6384    7.2085   16.5712 H   0  0  0  0  0  0  0  0  0  0  0  0
   50.0504    7.3219   18.2268 H   0  0  0  0  0  0  0  0  0  0  0  0
   50.0263   10.6492   14.6153 H   0  0  0  0  0  0  0  0  0  0  0  0
   48.9879    9.3273   19.4109 H   0  0  0  0  0  0  0  0  0  0  0  0
   47.6318   14.9231   15.1006 H   0  0  0  0  0  0  0  0  0  0  0  0
   46.5708   13.5330   20.2329 H   0  0  0  0  0  0  0  0  0  0  0  0
   47.8358    9.2494   15.0455 H   0  0  0  0  0  0  0  0  0  0  0  0
   47.8335    7.4973   15.1507 H   0  0  0  0  0  0  0  0  0  0  0  0
   49.3011    8.3331   14.6329 H   0  0  0  0  0  0  0  0  0  0  0  0
   50.7998    4.8625   16.5818 H   0  0  0  0  0  0  0  0  0  0  0  0
   50.3224    4.8311   18.2966 H   0  0  0  0  0  0  0  0  0  0  0  0
   49.4464    3.8644   17.0851 H   0  0  0  0  0  0  0  0  0  0  0  0
   47.3913    4.8282   17.7593 H   0  0  0  0  0  0  0  0  0  0  0  0
   48.0838    5.9728   18.9221 H   0  0  0  0  0  0  0  0  0  0  0  0
   47.0749    6.5297   17.5735 H   0  0  0  0  0  0  0  0  0  0  0  0
   48.0353    9.7554   21.5716 H   0  0  0  0  0  0  0  0  0  0  0  0
   49.8764   12.1535   12.7547 H   0  0  0  0  0  0  0  0  0  0  0  0
   48.6774   14.3178   12.9597 H   0  0  0  0  0  0  0  0  0  0  0  0
   46.8097   11.8656   22.0187 H   0  0  0  0  0  0  0  0  0  0  0  0
   48.5494   13.2534   16.5588 H   0  0  0  0  0  0  0  0  0  0  0  0
   48.6672    6.0409   17.4825 H   0  0  0  0  0  0  0  0  0  0  0  0
   50.3393   10.3436   16.1433 H   0  0  0  0  0  0  0  0  0  0  0  0
   48.3703    8.1603   15.3815 H   0  0  0  0  0  0  0  0  0  0  0  0
   49.2313   10.1634   18.7341 H   0  0  0  0  0  0  0  0  0  0  0  0
   47.1912    9.4056   17.1243 H   0  0  0  0  0  0  0  0  0  0  0  0
 10  9  1  0
 11  4  2  0
 12  3  2  0
 13  6  2  0
 14  5  2  0
 15  8  1  0
 16 10  1  0
 17 10  1  0
 18 12  1  0
 19 11  1  0
 20 19  2  0
 21 18  2  0
  5  2  1  0
 13 20  1  0
 14 21  1  0
  2  6  1  0
  3  1  1  0
  4  1  1  0
  5  3  1  0
  6  4  1  0
  7  1  1  0
  8  7  1  0
  9  8  1  0
 31 30  1  0
 32 25  2  0
 33 24  2  0
 34 27  2  0
 35 26  2  0
 36 29  1  0
 37 31  1  0
 38 31  1  0
 39 33  1  0
 40 32  1  0
 41 40  2  0
 42 39  2  0
 26 23  1  0
 34 41  1  0
 35 42  1  0
 23 27  1  0
 24 22  1  0
 25 22  1  0
 26 24  1  0
 27 25  1  0
 28 22  1  0
 29 28  1  0
 30 29  1  0
 49 44  2  0
 50 47  1  0
 51 48  1  0
 49 43  1  0
 51 52  1  0
 50 51  1  0
 52 45  1  0
 49 50  1  0
 52 46  2  0
  7 53  1  0
  7 54  1  0
  8 55  1  1
  9 56  1  0
  9 57  1  0
 11 58  1  0
 12 59  1  0
 13 60  1  0
 14 61  1  0
 15 62  1  0
 15 63  1  0
 15 64  1  0
 16 65  1  0
 16 66  1  0
 16 67  1  0
 17 68  1  0
 17 69  1  0
 17 70  1  0
 18 71  1  0
 19 72  1  0
 20 73  1  0
 21 74  1  0
 28 75  1  0
 28 76  1  0
 29 77  1  1
 30 78  1  0
 30 79  1  0
 32 80  1  0
 33 81  1  0
 34 82  1  0
 35 83  1  0
 36 84  1  0
 36 85  1  0
 36 86  1  0
 37 87  1  0
 37 88  1  0
 37 89  1  0
 38 90  1  0
 38 91  1  0
 38 92  1  0
 39 93  1  0
 40 94  1  0
 41 95  1  0
 42 96  1  0
 43 97  1  0
 45 98  1  0
 47 99  1  0
 48100  1  0
 50101  1  6
 51102  1  1
M  END
> <Uni-Dock RESULT> 
ENERGY=   -5.639  LOWER_BOUND=    3.076  UPPER_BOUND=    6.155
INTER + INTRA:          -5.639
INTER:                  -5.639
INTRA:                   0.000
UNBOUND:                 0.000

$$$$

     RDKit          3D

102105  0  0  0  0  0  0  0  0999 V2000
   49.2673    9.5997   18.7894 N   0  0  0  0  0  0  0  0  0  0  0  0
   48.3996    9.1921   15.8040 S   0  0  0  0  0  0  0  0  0  0  0  0
   49.2767   10.7557   17.9657 C   0  0  0  0  0  0  0  0  0  0  0  0
   49.2868    8.2630   18.3006 C   0  0  0  0  0  0  0  0  0  0  0  0
   48.9164   10.6948   16.6034 C   0  0  0  0  0  0  0  0  0  0  0  0
   48.9589    7.9618   16.9643 C   0  0  0  0  0  0  0  0  0  0  0  0
   48.9187    9.7790   20.2228 C   0  0  0  0  0  0  0  0  0  0  0  0
   47.4622    9.3608   20.5458 C   0  0  1  0  0  0  0  0  0  0  0  0
   47.2314    9.3543   22.0766 C   0  0  0  0  0  0  0  0  0  0  0  0
   48.0843    8.3874   22.7930 N   0  0  0  0  0  0  0  0  0  0  0  0
   49.6751    7.1819   19.1210 C   0  0  0  0  0  0  0  0  0  0  0  0
   49.7065   12.0057   18.4505 C   0  0  0  0  0  0  0  0  0  0  0  0
   48.9958    6.6378   16.4905 C   0  0  0  0  0  0  0  0  0  0  0  0
   48.9302   11.8479   15.7979 C   0  0  0  0  0  0  0  0  0  0  0  0
   46.4510   10.3137   19.8931 C   0  0  0  0  0  0  0  0  0  0  0  0
   48.1100    8.6951   24.2250 C   0  0  0  0  0  0  0  0  0  0  0  0
   47.6143    7.0110   22.6007 C   0  0  0  0  0  0  0  0  0  0  0  0
   49.7262   13.1514   17.6462 C   0  0  0  0  0  0  0  0  0  0  0  0
   49.7133    5.8659   18.6455 C   0  0  0  0  0  0  0  0  0  0  0  0
   49.3749    5.5931   17.3282 C   0  0  0  0  0  0  0  0  0  0  0  0
   49.3301   13.0760   16.3195 C   0  0  0  0  0  0  0  0  0  0  0  0
   47.7934    9.0665   20.7867 N   0  0  0  0  0  0  0  0  0  0  0  0
   48.4814    9.3261   23.8710 S   0  0  0  0  0  0  0  0  0  0  0  0
   48.1248   10.3717   21.2830 C   0  0  0  0  0  0  0  0  0  0  0  0
   47.7608    7.8701   21.5666 C   0  0  0  0  0  0  0  0  0  0  0  0
   48.4387   10.5974   22.6384 C   0  0  0  0  0  0  0  0  0  0  0  0
   48.0506    7.8738   22.9475 C   0  0  0  0  0  0  0  0  0  0  0  0
   47.3811    8.9887   19.3606 C   0  0  0  0  0  0  0  0  0  0  0  0
   48.5894    8.9630   18.3859 C   0  0  2  0  0  0  0  0  0  0  0  0
   48.1069    9.4271   16.9873 C   0  0  0  0  0  0  0  0  0  0  0  0
   49.1467    9.4692   15.9433 N   0  0  0  0  0  0  0  0  0  0  0  0
   47.4448    6.6031   21.0202 C   0  0  0  0  0  0  0  0  0  0  0  0
   48.1555   11.5182   20.4504 C   0  0  0  0  0  0  0  0  0  0  0  0
   48.0319    6.6842   23.7096 C   0  0  0  0  0  0  0  0  0  0  0  0
   48.7510   11.8897   23.1117 C   0  0  0  0  0  0  0  0  0  0  0  0
   49.2433    7.5815   18.3154 C   0  0  0  0  0  0  0  0  0  0  0  0
   48.5446    9.7599   14.6428 C   0  0  0  0  0  0  0  0  0  0  0  0
   50.1918   10.4497   16.2388 C   0  0  0  0  0  0  0  0  0  0  0  0
   48.4561   12.8020   20.9255 C   0  0  0  0  0  0  0  0  0  0  0  0
   47.4186    5.4233   21.7800 C   0  0  0  0  0  0  0  0  0  0  0  0
   47.7205    5.4621   23.1286 C   0  0  0  0  0  0  0  0  0  0  0  0
   48.7575   12.9874   22.2607 C   0  0  0  0  0  0  0  0  0  0  0  0
   47.3424    8.3257   22.1096 O   0  0  0  0  0  0  0  0  0  0  0  0
   48.9644    9.8500   22.2407 O   0  0  0  0  0  0  0  0  0  0  0  0
   49.4190    9.3165   16.9262 O   0  0  0  0  0  0  0  0  0  0  0  0
   48.8264   11.2422   17.8981 O   0  0  0  0  0  0  0  0  0  0  0  0
   46.5964    8.9400   19.6405 O   0  0  0  0  0  0  0  0  0  0  0  0
   48.9149    7.7910   18.9862 O   0  0  0  0  0  0  0  0  0  0  0  0
   48.0962    9.3062   21.5746 C   0  0  0  0  0  0  0  0  0  0  0  0
   47.7729    9.6016   20.1139 C   0  0  1  0  0  0  0  0  0  0  0  0
   48.9836    9.1979   19.2717 C   0  0  2  0  0  0  0  0  0  0  0  0
   49.0348   10.0459   18.0038 C   0  0  0  0  0  0  0  0  0  0  0  0
   49.0349   10.8142   20.5572 H   0  0  0  0  0  0  0  0  0  0  0  0
   49.6408    9.2338   20.8383 H   0  0  0  0  0  0  0  0  0  0  0  0
   47.2529    8.3617   20.1501 H   0  0  0  0  0  0  0  0  0  0  0  0
   47.4455   10.3690   22.4450 H   0  0  0  0  0  0  0  0  0  0  0  0
   46.1711    9.1618   22.2998 H   0  0  0  0  0  0  0  0  0  0  0  0
   49.9730    7.3381   20.1516 H   0  0  0  0  0  0  0  0  0  0  0  0
   50.0905   12.1140   19.4587 H   0  0  0  0  0  0  0  0  0  0  0  0
   48.7254    6.4164   15.4580 H   0  0  0  0  0  0  0  0  0  0  0  0
   48.6402   11.7874   14.7505 H   0  0  0  0  0  0  0  0  0  0  0  0
   46.6262   11.3527   20.1951 H   0  0  0  0  0  0  0  0  0  0  0  0
   46.5049   10.2630   18.8008 H   0  0  0  0  0  0  0  0  0  0  0  0
   45.4263   10.0474   20.1775 H   0  0  0  0  0  0  0  0  0  0  0  0
   48.7579    7.9899   24.7590 H   0  0  0  0  0  0  0  0  0  0  0  0
   48.5310    9.6932   24.3905 H   0  0  0  0  0  0  0  0  0  0  0  0
   47.1114    8.6576   24.6760 H   0  0  0  0  0  0  0  0  0  0  0  0
   48.2665    6.3098   23.1341 H   0  0  0  0  0  0  0  0  0  0  0  0
   46.5890    6.8706   22.9654 H   0  0  0  0  0  0  0  0  0  0  0  0
   47.6517    6.7194   21.5463 H   0  0  0  0  0  0  0  0  0  0  0  0
   50.0652   14.0975   18.0596 H   0  0  0  0  0  0  0  0  0  0  0  0
   50.0136    5.0589   19.3072 H   0  0  0  0  0  0  0  0  0  0  0  0
   49.3981    4.5747   16.9506 H   0  0  0  0  0  0  0  0  0  0  0  0
   49.3374   13.9591   15.6865 H   0  0  0  0  0  0  0  0  0  0  0  0
   46.7087    8.1525   19.1488 H   0  0  0  0  0  0  0  0  0  0  0  0
   46.7199    9.8370   19.1360 H   0  0  0  0  0  0  0  0  0  0  0  0
   49.3500    9.6612   18.7485 H   0  0  0  0  0  0  0  0  0  0  0  0
   47.3182    8.7326   16.6669 H   0  0  0  0  0  0  0  0  0  0  0  0
   47.6347   10.4155   17.0761 H   0  0  0  0  0  0  0  0  0  0  0  0
   47.2103    6.4712   19.9704 H   0  0  0  0  0  0  0  0  0  0  0  0
   47.9456   11.4657   19.3897 H   0  0  0  0  0  0  0  0  0  0  0  0
   48.2588    6.7080   24.7745 H   0  0  0  0  0  0  0  0  0  0  0  0
   48.9911   12.0454   24.1622 H   0  0  0  0  0  0  0  0  0  0  0  0
   49.6263    7.2758   19.2933 H   0  0  0  0  0  0  0  0  0  0  0  0
   50.0951    7.5785   17.6291 H   0  0  0  0  0  0  0  0  0  0  0  0
   48.5339    6.8241   17.9669 H   0  0  0  0  0  0  0  0  0  0  0  0
   47.8059    8.9925   14.3812 H   0  0  0  0  0  0  0  0  0  0  0  0
   48.0490   10.7392   14.6252 H   0  0  0  0  0  0  0  0  0  0  0  0
   49.3046    9.7395   13.8547 H   0  0  0  0  0  0  0  0  0  0  0  0
   50.9125   10.5038   15.4159 H   0  0  0  0  0  0  0  0  0  0  0  0
   49.7893   11.4537   16.4048 H   0  0  0  0  0  0  0  0  0  0  0  0
   50.7717   10.1593   17.1163 H   0  0  0  0  0  0  0  0  0  0  0  0
   48.4584   13.6490   20.2440 H   0  0  0  0  0  0  0  0  0  0  0  0
   47.1801    4.4768   21.3003 H   0  0  0  0  0  0  0  0  0  0  0  0
   47.7034    4.5551   23.7259 H   0  0  0  0  0  0  0  0  0  0  0  0
   48.9907   13.9754   22.6450 H   0  0  0  0  0  0  0  0  0  0  0  0
   47.6543    8.2461   23.0352 H   0  0  0  0  0  0  0  0  0  0  0  0
   49.3997    9.9643   16.1877 H   0  0  0  0  0  0  0  0  0  0  0  0
   46.7992    7.9846   19.7120 H   0  0  0  0  0  0  0  0  0  0  0  0
   49.3721    7.6774   18.1277 H   0  0  0  0  0  0  0  0  0  0  0  0
   47.5715   10.6776   20.0643 H   0  0  0  0  0  0  0  0  0  0  0  0
   49.9305    9.3778   19.7936 H   0  0  0  0  0  0  0  0  0  0  0  0
 10  9  1  0
 11  4  2  0
 12  3  2  0
 13  6  2  0
 14  5  2  0
 15  8  1  0
 16 10  1  0
 17 10  1  0
 18 12  1  0
 19 11  1  0
 20 19  2  0
 21 18  2  0
  5  2  1  0
 13 20  1  0
 14 21  1  0
  2  6  1  0
  3  1  1  0
  4  1  1  0
  5  3  1  0
  6  4  1  0
  7  1  1  0
  8  7  1  0
  9  8  1  0
 31 30  1  0
 32 25  2  0
 33 24  2  0
 34 27  2  0
 35 26  2  0
 36 29  1  0
 37 31  1  0
 38 31  1  0
 39 33  1  0
 40 32  1  0
 41 40  2  0
 42 39  2  0
 26 23  1  0
 34 41  1  0
 35 42  1  0
 23 27  1  0
 24 22  1  0
 25 22  1  0
 26 24  1  0
 27 25  1  0
 28 22  1  0
 29 28  1  0
 30 29  1  0
 49 44  2  0
 50 47  1  0
 51 48  1  0
 49 43  1  0
 51 52  1  0
 50 51  1  0
 52 45  1  0
 49 50  1  0
 52 46  2  0
  7 53  1  0
  7 54  1  0
  8 55  1  1
  9 56  1  0
  9 57  1  0
 11 58  1  0
 12 59  1  0
 13 60  1  0
 14 61  1  0
 15 62  1  0
 15 63  1  0
 15 64  1  0
 16 65  1  0
 16 66  1  0
 16 67  1  0
 17 68  1  0
 17 69  1  0
 17 70  1  0
 18 71  1  0
 19 72  1  0
 20 73  1  0
 21 74  1  0
 28 75  1  0
 28 76  1  0
 29 77  1  1
 30 78  1  0
 30 79  1  0
 32 80  1  0
 33 81  1  0
 34 82  1  0
 35 83  1  0
 36 84  1  0
 36 85  1  0
 36 86  1  0
 37 87  1  0
 37 88  1  0
 37 89  1  0
 38 90  1  0
 38 91  1  0
 38 92  1  0
 39 93  1  0
 40 94  1  0
 41 95  1  0
 42 96  1  0
 43 97  1  0
 45 98  1  0
 47 99  1  0
 48100  1  0
 50101  1  6
 51102  1  1
M  END
> <Uni-Dock RESULT> 
ENERGY=   -5.382  LOWER_BOUND=    4.636  UPPER_BOUND=    7.172
INTER + INTRA:          -5.382
INTER:                  -5.382
INTRA:                   0.000
UNBOUND:                 0.000

$$$$

     RDKit          3D

102105  0  0  0  0  0  0  0  0999 V2000
   48.2969   11.2736   17.0664 N   0  0  0  0  0  0  0  0  0  0  0  0
   49.3462   14.1046   17.9126 S   0  0  0  0  0  0  0  0  0  0  0  0
   48.8486   12.0769   16.0343 C   0  0  0  0  0  0  0  0  0  0  0  0
   47.8315   11.7749   18.3146 C   0  0  0  0  0  0  0  0  0  0  0  0
   49.3432   13.3725   16.2914 C   0  0  0  0  0  0  0  0  0  0  0  0
   48.2003   13.0521   18.7799 C   0  0  0  0  0  0  0  0  0  0  0  0
   48.4846    9.8027   16.9683 C   0  0  0  0  0  0  0  0  0  0  0  0
   49.6069    9.2751   17.8971 C   0  0  1  0  0  0  0  0  0  0  0  0
   49.6021    7.7272   17.9207 C   0  0  0  0  0  0  0  0  0  0  0  0
   48.3517    7.1538   18.4530 N   0  0  0  0  0  0  0  0  0  0  0  0
   46.9464   11.0320   19.1254 C   0  0  0  0  0  0  0  0  0  0  0  0
   48.8712   11.6461   14.6940 C   0  0  0  0  0  0  0  0  0  0  0  0
   47.7219   13.5410   20.0091 C   0  0  0  0  0  0  0  0  0  0  0  0
   49.8872   14.1585   15.2595 C   0  0  0  0  0  0  0  0  0  0  0  0
   50.9875    9.7624   17.4354 C   0  0  0  0  0  0  0  0  0  0  0  0
   48.2477    5.7377   18.0932 C   0  0  0  0  0  0  0  0  0  0  0  0
   48.2763    7.2907   19.9118 C   0  0  0  0  0  0  0  0  0  0  0  0
   49.4070   12.4319   13.6666 C   0  0  0  0  0  0  0  0  0  0  0  0
   46.4701   11.5226   20.3469 C   0  0  0  0  0  0  0  0  0  0  0  0
   46.8568   12.7793   20.7890 C   0  0  0  0  0  0  0  0  0  0  0  0
   49.9236   13.6873   13.9492 C   0  0  0  0  0  0  0  0  0  0  0  0
   49.1578    9.0884   18.0306 N   0  0  0  0  0  0  0  0  0  0  0  0
   48.2016    6.1350   17.3851 S   0  0  0  0  0  0  0  0  0  0  0  0
   49.2899    8.6314   16.6766 C   0  0  0  0  0  0  0  0  0  0  0  0
   48.6178    8.3255   19.1108 C   0  0  0  0  0  0  0  0  0  0  0  0
   48.9022    7.3339   16.2855 C   0  0  0  0  0  0  0  0  0  0  0  0
   48.1629    7.0018   18.9326 C   0  0  0  0  0  0  0  0  0  0  0  0
   49.7022   10.4397   18.3261 C   0  0  0  0  0  0  0  0  0  0  0  0
   48.7257   11.5808   17.9320 C   0  0  2  0  0  0  0  0  0  0  0  0
   49.5393   12.8886   17.7533 C   0  0  0  0  0  0  0  0  0  0  0  0
   48.7523   14.0728   17.3643 N   0  0  0  0  0  0  0  0  0  0  0  0
   48.4933    8.8340   20.4260 C   0  0  0  0  0  0  0  0  0  0  0  0
   49.8199    9.4467   15.6455 C   0  0  0  0  0  0  0  0  0  0  0  0
   47.6152    6.2584   20.0021 C   0  0  0  0  0  0  0  0  0  0  0  0
   49.0499    6.8970   14.9518 C   0  0  0  0  0  0  0  0  0  0  0  0
   47.6064   11.7614   18.9594 C   0  0  0  0  0  0  0  0  0  0  0  0
   49.5944   15.2681   17.3869 C   0  0  0  0  0  0  0  0  0  0  0  0
   48.1360   13.9223   16.0458 C   0  0  0  0  0  0  0  0  0  0  0  0
   49.9747    9.0064   14.3240 C   0  0  0  0  0  0  0  0  0  0  0  0
   47.9566    8.0917   21.4894 C   0  0  0  0  0  0  0  0  0  0  0  0
   47.5087    6.8013   21.2757 C   0  0  0  0  0  0  0  0  0  0  0  0
   49.5857    7.7275   13.9759 C   0  0  0  0  0  0  0  0  0  0  0  0
   49.0996    7.7222   18.8257 O   0  0  0  0  0  0  0  0  0  0  0  0
   48.1898    7.8125   16.7920 O   0  0  0  0  0  0  0  0  0  0  0  0
   48.3084   13.1420   17.3555 O   0  0  0  0  0  0  0  0  0  0  0  0
   49.4564   12.0725   15.7610 O   0  0  0  0  0  0  0  0  0  0  0  0
   50.3602   10.0488   18.6588 O   0  0  0  0  0  0  0  0  0  0  0  0
   47.8934   11.0476   18.8609 O   0  0  0  0  0  0  0  0  0  0  0  0
   48.8645    8.3506   17.6570 C   0  0  0  0  0  0  0  0  0  0  0  0
   49.4764    9.7450   17.5758 C   0  0  1  0  0  0  0  0  0  0  0  0
   48.3336   10.7595   17.5235 C   0  0  2  0  0  0  0  0  0  0  0  0
   48.7902   12.0117   16.7800 C   0  0  0  0  0  0  0  0  0  0  0  0
   48.7314    9.4774   15.9532 H   0  0  0  0  0  0  0  0  0  0  0  0
   47.5302    9.3054   17.1663 H   0  0  0  0  0  0  0  0  0  0  0  0
   49.4675    9.6471   18.9173 H   0  0  0  0  0  0  0  0  0  0  0  0
   49.7469    7.3827   16.8856 H   0  0  0  0  0  0  0  0  0  0  0  0
   50.4639    7.3536   18.4942 H   0  0  0  0  0  0  0  0  0  0  0  0
   46.5916   10.0544   18.8196 H   0  0  0  0  0  0  0  0  0  0  0  0
   48.4226   10.7037   14.4004 H   0  0  0  0  0  0  0  0  0  0  0  0
   48.0267   14.5253   20.3647 H   0  0  0  0  0  0  0  0  0  0  0  0
   50.2741   15.1529   15.4748 H   0  0  0  0  0  0  0  0  0  0  0  0
   51.1864    9.4777   16.3957 H   0  0  0  0  0  0  0  0  0  0  0  0
   51.0707   10.8514   17.5119 H   0  0  0  0  0  0  0  0  0  0  0  0
   51.7799    9.3343   18.0604 H   0  0  0  0  0  0  0  0  0  0  0  0
   47.3106    5.3119   18.4709 H   0  0  0  0  0  0  0  0  0  0  0  0
   48.2256    5.6243   17.0034 H   0  0  0  0  0  0  0  0  0  0  0  0
   49.0814    5.1460   18.4895 H   0  0  0  0  0  0  0  0  0  0  0  0
   47.3368    6.8663   20.2842 H   0  0  0  0  0  0  0  0  0  0  0  0
   49.1066    6.7817   20.4171 H   0  0  0  0  0  0  0  0  0  0  0  0
   48.2763    8.3425   20.2152 H   0  0  0  0  0  0  0  0  0  0  0  0
   49.4051   12.0619   12.6448 H   0  0  0  0  0  0  0  0  0  0  0  0
   45.7930   10.9210   20.9458 H   0  0  0  0  0  0  0  0  0  0  0  0
   46.4954   13.1677   21.7371 H   0  0  0  0  0  0  0  0  0  0  0  0
   50.3456   14.3047   13.1609 H   0  0  0  0  0  0  0  0  0  0  0  0
   50.0225   10.5603   19.3649 H   0  0  0  0  0  0  0  0  0  0  0  0
   50.6637   10.5559   17.8072 H   0  0  0  0  0  0  0  0  0  0  0  0
   48.2508   11.3255   16.9798 H   0  0  0  0  0  0  0  0  0  0  0  0
   50.0354   13.0981   18.7109 H   0  0  0  0  0  0  0  0  0  0  0  0
   50.3388   12.7208   17.0182 H   0  0  0  0  0  0  0  0  0  0  0  0
   48.8024    9.8397   20.6860 H   0  0  0  0  0  0  0  0  0  0  0  0
   50.1385   10.4659   15.8233 H   0  0  0  0  0  0  0  0  0  0  0  0
   47.2693    5.2380   19.8440 H   0  0  0  0  0  0  0  0  0  0  0  0
   48.7449    5.8912   14.6676 H   0  0  0  0  0  0  0  0  0  0  0  0
   47.0031   10.8534   19.0496 H   0  0  0  0  0  0  0  0  0  0  0  0
   46.9237   12.5648   18.6676 H   0  0  0  0  0  0  0  0  0  0  0  0
   48.0098   12.0110   19.9460 H   0  0  0  0  0  0  0  0  0  0  0  0
   50.0086   15.4275   18.3898 H   0  0  0  0  0  0  0  0  0  0  0  0
   50.4265   15.2021   16.6740 H   0  0  0  0  0  0  0  0  0  0  0  0
   49.0029   16.1589   17.1509 H   0  0  0  0  0  0  0  0  0  0  0  0
   47.6140   14.8409   15.7578 H   0  0  0  0  0  0  0  0  0  0  0  0
   48.8673   13.6881   15.2660 H   0  0  0  0  0  0  0  0  0  0  0  0
   47.3731   13.1422   16.0511 H   0  0  0  0  0  0  0  0  0  0  0  0
   50.3940    9.6714   13.5732 H   0  0  0  0  0  0  0  0  0  0  0  0
   47.8758    8.5419   22.4761 H   0  0  0  0  0  0  0  0  0  0  0  0
   47.0914    6.2180   22.0914 H   0  0  0  0  0  0  0  0  0  0  0  0
   49.7004    7.3704   12.9573 H   0  0  0  0  0  0  0  0  0  0  0  0
   48.6557    6.8530   18.7369 H   0  0  0  0  0  0  0  0  0  0  0  0
   48.6784   13.8625   16.7994 H   0  0  0  0  0  0  0  0  0  0  0  0
   49.7969   10.0183   19.4591 H   0  0  0  0  0  0  0  0  0  0  0  0
   47.5519   11.9649   18.8302 H   0  0  0  0  0  0  0  0  0  0  0  0
   50.0820    9.7527   16.6626 H   0  0  0  0  0  0  0  0  0  0  0  0
   47.4667   10.3796   16.9706 H   0  0  0  0  0  0  0  0  0  0  0  0
 10  9  1  0
 11  4  2  0
 12  3  2  0
 13  6  2  0
 14  5  2  0
 15  8  1  0
 16 10  1  0
 17 10  1  0
 18 12  1  0
 19 11  1  0
 20 19  2  0
 21 18  2  0
  5  2  1  0
 13 20  1  0
 14 21  1  0
  2  6  1  0
  3  1  1  0
  4  1  1  0
  5  3  1  0
  6  4  1  0
  7  1  1  0
  8  7  1  0
  9  8  1  0
 31 30  1  0
 32 25  2  0
 33 24  2  0
 34 27  2  0
 35 26  2  0
 36 29  1  0
 37 31  1  0
 38 31  1  0
 39 33  1  0
 40 32  1  0
 41 40  2  0
 42 39  2  0
 26 23  1  0
 34 41  1  0
 35 42  1  0
 23 27  1  0
 24 22  1  0
 25 22  1  0
 26 24  1  0
 27 25  1  0
 28 22  1  0
 29 28  1  0
 30 29  1  0
 49 44  2  0
 50 47  1  0
 51 48  1  0
 49 43  1  0
 51 52  1  0
 50 51  1  0
 52 45  1  0
 49 50  1  0
 52 46  2  0
  7 53  1  0
  7 54  1  0
  8 55  1  1
  9 56  1  0
  9 57  1  0
 11 58  1  0
 12 59  1  0
 13 60  1  0
 14 61  1  0
 15 62  1  0
 15 63  1  0
 15 64  1  0
 16 65  1  0
 16 66  1  0
 16 67  1  0
 17 68  1  0
 17 69  1  0
 17 70  1  0
 18 71  1  0
 19 72  1  0
 20 73  1  0
 21 74  1  0
 28 75  1  0
 28 76  1  0
 29 77  1  1
 30 78  1  0
 30 79  1  0
 32 80  1  0
 33 81  1  0
 34 82  1  0
 35 83  1  0
 36 84  1  0
 36 85  1  0
 36 86  1  0
 37 87  1  0
 37 88  1  0
 37 89  1  0
 38 90  1  0
 38 91  1  0
 38 92  1  0
 39 93  1  0
 40 94  1  0
 41 95  1  0
 42 96  1  0
 43 97  1  0
 45 98  1  0
 47 99  1  0
 48100  1  0
 50101  1  6
 51102  1  1
M  END
> <Uni-Dock RESULT> 
ENERGY=   -5.312  LOWER_BOUND=    3.515  UPPER_BOUND=    5.939
INTER + INTRA:          -5.312
INTER:                  -5.312
INTRA:                   0.000
UNBOUND:                 0.000

$$$$
