
     RDKit          3D

102105  0  0  0  0  0  0  0  0999 V2000
   47.7414    7.7915   20.0547 N   0  0  0  0  0  0  0  0  0  0  0  0
   49.4270    8.7369   17.6072 S   0  0  0  0  0  0  0  0  0  0  0  0
   47.8270    6.8822   18.9682 C   0  0  0  0  0  0  0  0  0  0  0  0
   47.9289    9.1909   19.9273 C   0  0  0  0  0  0  0  0  0  0  0  0
   48.5402    7.2022   17.7939 C   0  0  0  0  0  0  0  0  0  0  0  0
   48.6414    9.7464   18.8481 C   0  0  0  0  0  0  0  0  0  0  0  0
   47.9446    7.2172   21.4135 C   0  0  0  0  0  0  0  0  0  0  0  0
   49.3428    6.5760   21.6036 C   0  0  1  0  0  0  0  0  0  0  0  0
   50.4728    7.6162   21.7898 C   0  0  0  0  0  0  0  0  0  0  0  0
   50.3459    8.4654   22.9913 N   0  0  0  0  0  0  0  0  0  0  0  0
   47.3398   10.0856   20.8419 C   0  0  0  0  0  0  0  0  0  0  0  0
   47.1562    5.6441   19.0076 C   0  0  0  0  0  0  0  0  0  0  0  0
   48.7961   11.1387   18.7347 C   0  0  0  0  0  0  0  0  0  0  0  0
   48.6059    6.2859   16.7303 C   0  0  0  0  0  0  0  0  0  0  0  0
   49.2838    5.5567   22.7454 C   0  0  0  0  0  0  0  0  0  0  0  0
   51.1668    7.9664   24.0994 C   0  0  0  0  0  0  0  0  0  0  0  0
   50.7600    9.8387   22.6872 C   0  0  0  0  0  0  0  0  0  0  0  0
   47.2132    4.7443   17.9388 C   0  0  0  0  0  0  0  0  0  0  0  0
   47.4827   11.4721   20.7173 C   0  0  0  0  0  0  0  0  0  0  0  0
   48.2189   11.9991   19.6657 C   0  0  0  0  0  0  0  0  0  0  0  0
   47.9456    5.0626   16.8020 C   0  0  0  0  0  0  0  0  0  0  0  0
   48.1082    7.9581   19.6320 N   0  0  0  0  0  0  0  0  0  0  0  0
   49.2259    9.6078   17.1682 S   0  0  0  0  0  0  0  0  0  0  0  0
   47.6403    9.3055   19.4719 C   0  0  0  0  0  0  0  0  0  0  0  0
   49.0187    7.2896   18.7582 C   0  0  0  0  0  0  0  0  0  0  0  0
   48.0702   10.1217   18.4063 C   0  0  0  0  0  0  0  0  0  0  0  0
   49.5733    7.9324   17.6306 C   0  0  0  0  0  0  0  0  0  0  0  0
   47.5507    7.2063   20.7866 C   0  0  0  0  0  0  0  0  0  0  0  0
   48.2397    7.5741   22.1280 C   0  0  2  0  0  0  0  0  0  0  0  0
   49.5935    6.8500   22.2947 C   0  0  0  0  0  0  0  0  0  0  0  0
   50.2963    7.2473   23.5303 N   0  0  0  0  0  0  0  0  0  0  0  0
   49.4371    5.9526   18.9576 C   0  0  0  0  0  0  0  0  0  0  0  0
   46.7184    9.9058   20.3654 C   0  0  0  0  0  0  0  0  0  0  0  0
   50.4737    7.2678   16.7700 C   0  0  0  0  0  0  0  0  0  0  0  0
   47.5983   11.4446   18.2608 C   0  0  0  0  0  0  0  0  0  0  0  0
   47.2989    7.2211   23.2865 C   0  0  0  0  0  0  0  0  0  0  0  0
   51.2048    6.1847   23.9772 C   0  0  0  0  0  0  0  0  0  0  0  0
   51.0523    8.4892   23.3207 C   0  0  0  0  0  0  0  0  0  0  0  0
   46.2521   11.2176   20.2168 C   0  0  0  0  0  0  0  0  0  0  0  0
   50.3370    5.2969   18.1048 C   0  0  0  0  0  0  0  0  0  0  0  0
   50.8574    5.9564   17.0072 C   0  0  0  0  0  0  0  0  0  0  0  0
   46.6932   11.9910   19.1606 C   0  0  0  0  0  0  0  0  0  0  0  0
   47.1413    8.1606   18.6194 O   0  0  0  0  0  0  0  0  0  0  0  0
   48.9292    9.4666   18.2988 O   0  0  0  0  0  0  0  0  0  0  0  0
   50.2460    7.3657   23.0812 O   0  0  0  0  0  0  0  0  0  0  0  0
   51.6766    8.0747   21.5169 O   0  0  0  0  0  0  0  0  0  0  0  0
   48.2878    6.4950   20.2676 O   0  0  0  0  0  0  0  0  0  0  0  0
   48.1170    8.5057   22.0285 O   0  0  0  0  0  0  0  0  0  0  0  0
   48.4201    8.5236   18.8790 C   0  0  0  0  0  0  0  0  0  0  0  0
   49.0664    7.6551   19.9512 C   0  0  1  0  0  0  0  0  0  0  0  0
   49.2851    8.5073   21.2004 C   0  0  2  0  0  0  0  0  0  0  0  0
   50.5271    7.9915   21.9170 C   0  0  0  0  0  0  0  0  0  0  0  0
   47.1692    6.4629   21.5905 H   0  0  0  0  0  0  0  0  0  0  0  0
   47.7803    7.9542   22.2081 H   0  0  0  0  0  0  0  0  0  0  0  0
   49.6047    6.0042   20.7036 H   0  0  0  0  0  0  0  0  0  0  0  0
   51.4409    7.0976   21.7841 H   0  0  0  0  0  0  0  0  0  0  0  0
   50.4892    8.2365   20.8873 H   0  0  0  0  0  0  0  0  0  0  0  0
   46.7224    9.7171   21.6568 H   0  0  0  0  0  0  0  0  0  0  0  0
   46.5439    5.3756   19.8635 H   0  0  0  0  0  0  0  0  0  0  0  0
   49.3686   11.5613   17.9105 H   0  0  0  0  0  0  0  0  0  0  0  0
   49.1678    6.5303   15.8317 H   0  0  0  0  0  0  0  0  0  0  0  0
   48.5947    4.7427   22.4892 H   0  0  0  0  0  0  0  0  0  0  0  0
   50.2721    5.1108   22.9191 H   0  0  0  0  0  0  0  0  0  0  0  0
   48.9234    6.0091   23.6773 H   0  0  0  0  0  0  0  0  0  0  0  0
   50.8798    6.9570   24.3989 H   0  0  0  0  0  0  0  0  0  0  0  0
   51.0286    8.5957   24.9855 H   0  0  0  0  0  0  0  0  0  0  0  0
   52.2358    7.9591   23.8500 H   0  0  0  0  0  0  0  0  0  0  0  0
   50.6498   10.4788   23.5710 H   0  0  0  0  0  0  0  0  0  0  0  0
   51.7993    9.8907   22.3468 H   0  0  0  0  0  0  0  0  0  0  0  0
   50.1262   10.2735   21.9095 H   0  0  0  0  0  0  0  0  0  0  0  0
   46.6712    3.8022   17.9909 H   0  0  0  0  0  0  0  0  0  0  0  0
   47.0085   12.1339   21.4386 H   0  0  0  0  0  0  0  0  0  0  0  0
   48.3323   13.0752   19.5610 H   0  0  0  0  0  0  0  0  0  0  0  0
   47.9911    4.3685   15.9667 H   0  0  0  0  0  0  0  0  0  0  0  0
   47.5565    6.1214   20.6473 H   0  0  0  0  0  0  0  0  0  0  0  0
   46.4681    7.3869   20.8418 H   0  0  0  0  0  0  0  0  0  0  0  0
   48.4064    8.6545   22.1633 H   0  0  0  0  0  0  0  0  0  0  0  0
   50.2417    7.0154   21.4288 H   0  0  0  0  0  0  0  0  0  0  0  0
   49.3815    5.7741   22.3257 H   0  0  0  0  0  0  0  0  0  0  0  0
   49.0999    5.3576   19.7978 H   0  0  0  0  0  0  0  0  0  0  0  0
   46.3232    9.3803   21.2268 H   0  0  0  0  0  0  0  0  0  0  0  0
   50.8880    7.7836   15.9057 H   0  0  0  0  0  0  0  0  0  0  0  0
   47.9392   12.0601   17.4303 H   0  0  0  0  0  0  0  0  0  0  0  0
   47.7122    7.5372   24.2512 H   0  0  0  0  0  0  0  0  0  0  0  0
   46.3271    7.7151   23.1737 H   0  0  0  0  0  0  0  0  0  0  0  0
   47.1222    6.1394   23.3356 H   0  0  0  0  0  0  0  0  0  0  0  0
   51.7433    6.4849   24.8825 H   0  0  0  0  0  0  0  0  0  0  0  0
   50.6316    5.2892   24.2456 H   0  0  0  0  0  0  0  0  0  0  0  0
   51.9384    5.9084   23.2078 H   0  0  0  0  0  0  0  0  0  0  0  0
   51.8576    8.3577   22.5844 H   0  0  0  0  0  0  0  0  0  0  0  0
   50.4003    9.3013   22.9793 H   0  0  0  0  0  0  0  0  0  0  0  0
   51.5008    8.8283   24.2612 H   0  0  0  0  0  0  0  0  0  0  0  0
   45.5497   11.6268   20.9378 H   0  0  0  0  0  0  0  0  0  0  0  0
   50.6244    4.2681   18.3073 H   0  0  0  0  0  0  0  0  0  0  0  0
   51.5558    5.4593   16.3420 H   0  0  0  0  0  0  0  0  0  0  0  0
   46.3382   13.0094   19.0342 H   0  0  0  0  0  0  0  0  0  0  0  0
   46.8478    8.7951   17.9317 H   0  0  0  0  0  0  0  0  0  0  0  0
   51.1238    7.0803   23.4169 H   0  0  0  0  0  0  0  0  0  0  0  0
   47.3557    6.7738   20.1384 H   0  0  0  0  0  0  0  0  0  0  0  0
   48.1383    7.6463   22.4967 H   0  0  0  0  0  0  0  0  0  0  0  0
   50.0116    7.2986   19.5272 H   0  0  0  0  0  0  0  0  0  0  0  0
   49.4915    9.5544   20.9548 H   0  0  0  0  0  0  0  0  0  0  0  0
 10  9  1  0
 11  4  2  0
 12  3  2  0
 13  6  2  0
 14  5  2  0
 15  8  1  0
 16 10  1  0
 17 10  1  0
 18 12  1  0
 19 11  1  0
 20 19  2  0
 21 18  2  0
  5  2  1  0
 13 20  1  0
 14 21  1  0
  2  6  1  0
  3  1  1  0
  4  1  1  0
  5  3  1  0
  6  4  1  0
  7  1  1  0
  8  7  1  0
  9  8  1  0
 31 30  1  0
 32 25  2  0
 33 24  2  0
 34 27  2  0
 35 26  2  0
 36 29  1  0
 37 31  1  0
 38 31  1  0
 39 33  1  0
 40 32  1  0
 41 40  2  0
 42 39  2  0
 26 23  1  0
 34 41  1  0
 35 42  1  0
 23 27  1  0
 24 22  1  0
 25 22  1  0
 26 24  1  0
 27 25  1  0
 28 22  1  0
 29 28  1  0
 30 29  1  0
 49 44  2  0
 50 47  1  0
 51 48  1  0
 49 43  1  0
 51 52  1  0
 50 51  1  0
 52 45  1  0
 49 50  1  0
 52 46  2  0
  7 53  1  0
  7 54  1  0
  8 55  1  1
  9 56  1  0
  9 57  1  0
 11 58  1  0
 12 59  1  0
 13 60  1  0
 14 61  1  0
 15 62  1  0
 15 63  1  0
 15 64  1  0
 16 65  1  0
 16 66  1  0
 16 67  1  0
 17 68  1  0
 17 69  1  0
 17 70  1  0
 18 71  1  0
 19 72  1  0
 20 73  1  0
 21 74  1  0
 28 75  1  0
 28 76  1  0
 29 77  1  1
 30 78  1  0
 30 79  1  0
 32 80  1  0
 33 81  1  0
 34 82  1  0
 35 83  1  0
 36 84  1  0
 36 85  1  0
 36 86  1  0
 37 87  1  0
 37 88  1  0
 37 89  1  0
 38 90  1  0
 38 91  1  0
 38 92  1  0
 39 93  1  0
 40 94  1  0
 41 95  1  0
 42 96  1  0
 43 97  1  0
 45 98  1  0
 47 99  1  0
 48100  1  0
 50101  1  1
 51102  1  1
M  END
> <Uni-Dock RESULT> 
ENERGY=   -6.058  LOWER_BOUND=    0.000  UPPER_BOUND=    0.000
INTER + INTRA:          -6.058
INTER:                  -6.058
INTRA:                   0.000
UNBOUND:                 0.000

$$$$

     RDKit          3D

102105  0  0  0  0  0  0  0  0999 V2000
   50.4582    5.8101   18.9550 N   0  0  0  0  0  0  0  0  0  0  0  0
   51.7410    3.2173   17.7901 S   0  0  0  0  0  0  0  0  0  0  0  0
   51.5353    5.2597   19.6975 C   0  0  0  0  0  0  0  0  0  0  0  0
   49.6516    5.0594   18.0629 C   0  0  0  0  0  0  0  0  0  0  0  0
   52.1839    4.0758   19.2879 C   0  0  0  0  0  0  0  0  0  0  0  0
   50.1021    3.8525   17.4960 C   0  0  0  0  0  0  0  0  0  0  0  0
   50.4902    7.2831   18.7387 C   0  0  0  0  0  0  0  0  0  0  0  0
   51.7372    7.7585   17.9504 C   0  0  1  0  0  0  0  0  0  0  0  0
   51.6534    7.4598   16.4347 C   0  0  0  0  0  0  0  0  0  0  0  0
   50.5504    8.1395   15.7260 N   0  0  0  0  0  0  0  0  0  0  0  0
   48.3330    5.4588   17.7700 C   0  0  0  0  0  0  0  0  0  0  0  0
   51.9608    5.8538   20.9019 C   0  0  0  0  0  0  0  0  0  0  0  0
   49.2749    3.1172   16.6297 C   0  0  0  0  0  0  0  0  0  0  0  0
   53.2452    3.5488   20.0435 C   0  0  0  0  0  0  0  0  0  0  0  0
   51.9928    9.2391   18.2477 C   0  0  0  0  0  0  0  0  0  0  0  0
   51.0062    9.3610   15.0544 C   0  0  0  0  0  0  0  0  0  0  0  0
   49.9673    7.2457   14.7205 C   0  0  0  0  0  0  0  0  0  0  0  0
   53.0071    5.3146   21.6566 C   0  0  0  0  0  0  0  0  0  0  0  0
   47.5066    4.7160   16.9193 C   0  0  0  0  0  0  0  0  0  0  0  0
   47.9816    3.5469   16.3420 C   0  0  0  0  0  0  0  0  0  0  0  0
   53.6552    4.1650   21.2224 C   0  0  0  0  0  0  0  0  0  0  0  0
   50.7246    5.3616   18.6927 N   0  0  0  0  0  0  0  0  0  0  0  0
   51.1713    2.4270   17.5834 S   0  0  0  0  0  0  0  0  0  0  0  0
   49.5574    4.5992   18.3513 C   0  0  0  0  0  0  0  0  0  0  0  0
   52.0720    4.8982   18.5968 C   0  0  0  0  0  0  0  0  0  0  0  0
   49.6461    3.2826   17.8560 C   0  0  0  0  0  0  0  0  0  0  0  0
   52.3811    3.6069   18.1181 C   0  0  0  0  0  0  0  0  0  0  0  0
   50.4794    6.7266   19.2271 C   0  0  0  0  0  0  0  0  0  0  0  0
   50.1679    7.7585   18.1101 C   0  0  2  0  0  0  0  0  0  0  0  0
   51.4531    8.2505   17.4093 C   0  0  0  0  0  0  0  0  0  0  0  0
   51.1681    9.1748   16.2945 N   0  0  0  0  0  0  0  0  0  0  0  0
   53.1869    5.6903   18.9602 C   0  0  0  0  0  0  0  0  0  0  0  0
   48.2429    5.1110   18.4887 C   0  0  0  0  0  0  0  0  0  0  0  0
   53.7147    3.1536   18.0242 C   0  0  0  0  0  0  0  0  0  0  0  0
   48.4881    2.5444   17.5273 C   0  0  0  0  0  0  0  0  0  0  0  0
   49.4061    8.9412   18.7205 C   0  0  0  0  0  0  0  0  0  0  0  0
   52.3086   10.0665   16.0529 C   0  0  0  0  0  0  0  0  0  0  0  0
   50.8549    8.4284   15.0688 C   0  0  0  0  0  0  0  0  0  0  0  0
   47.0972    4.3752   18.1627 C   0  0  0  0  0  0  0  0  0  0  0  0
   54.5113    5.2398   18.8596 C   0  0  0  0  0  0  0  0  0  0  0  0
   54.7766    3.9672   18.3899 C   0  0  0  0  0  0  0  0  0  0  0  0
   47.2192    3.0866   17.6799 C   0  0  0  0  0  0  0  0  0  0  0  0
   50.3486    4.3590   19.6173 O   0  0  0  0  0  0  0  0  0  0  0  0
   50.6744    3.4944   17.5798 O   0  0  0  0  0  0  0  0  0  0  0  0
   51.2174    8.7208   16.3927 O   0  0  0  0  0  0  0  0  0  0  0  0
   52.1850    7.0192   15.3135 O   0  0  0  0  0  0  0  0  0  0  0  0
   51.6199    6.5969   19.1919 O   0  0  0  0  0  0  0  0  0  0  0  0
   49.4820    7.2433   17.7139 O   0  0  0  0  0  0  0  0  0  0  0  0
   50.8001    4.4364   18.3427 C   0  0  0  0  0  0  0  0  0  0  0  0
   51.4161    5.7931   18.0238 C   0  0  1  0  0  0  0  0  0  0  0  0
   50.5092    6.5171   17.0300 C   0  0  2  0  0  0  0  0  0  0  0  0
   51.3811    7.4020   16.1475 C   0  0  0  0  0  0  0  0  0  0  0  0
   50.4654    7.7776   19.7166 H   0  0  0  0  0  0  0  0  0  0  0  0
   49.5892    7.6518   18.2350 H   0  0  0  0  0  0  0  0  0  0  0  0
   52.6229    7.2215   18.3149 H   0  0  0  0  0  0  0  0  0  0  0  0
   52.6182    7.7009   15.9687 H   0  0  0  0  0  0  0  0  0  0  0  0
   51.5609    6.3738   16.3267 H   0  0  0  0  0  0  0  0  0  0  0  0
   47.9081    6.3460   18.2317 H   0  0  0  0  0  0  0  0  0  0  0  0
   51.4549    6.7320   21.2925 H   0  0  0  0  0  0  0  0  0  0  0  0
   49.6377    2.1965   16.1754 H   0  0  0  0  0  0  0  0  0  0  0  0
   53.7518    2.6432   19.7177 H   0  0  0  0  0  0  0  0  0  0  0  0
   52.2201    9.3764   19.3120 H   0  0  0  0  0  0  0  0  0  0  0  0
   52.8548    9.6067   17.6755 H   0  0  0  0  0  0  0  0  0  0  0  0
   51.1169    9.8580   18.0180 H   0  0  0  0  0  0  0  0  0  0  0  0
   51.4181   10.0857   15.7588 H   0  0  0  0  0  0  0  0  0  0  0  0
   50.1629    9.8605   14.5649 H   0  0  0  0  0  0  0  0  0  0  0  0
   51.7680    9.1527   14.2920 H   0  0  0  0  0  0  0  0  0  0  0  0
   49.1347    7.7385   14.2037 H   0  0  0  0  0  0  0  0  0  0  0  0
   50.7025    6.9291   13.9735 H   0  0  0  0  0  0  0  0  0  0  0  0
   49.5528    6.3493   15.1897 H   0  0  0  0  0  0  0  0  0  0  0  0
   53.3031    5.7860   22.5916 H   0  0  0  0  0  0  0  0  0  0  0  0
   46.4910    5.0509   16.7203 H   0  0  0  0  0  0  0  0  0  0  0  0
   47.3445    2.9633   15.6820 H   0  0  0  0  0  0  0  0  0  0  0  0
   54.4672    3.7394   21.8064 H   0  0  0  0  0  0  0  0  0  0  0  0
   51.2852    7.0983   19.8666 H   0  0  0  0  0  0  0  0  0  0  0  0
   49.6595    6.6828   19.9574 H   0  0  0  0  0  0  0  0  0  0  0  0
   49.5105    7.2980   17.3671 H   0  0  0  0  0  0  0  0  0  0  0  0
   52.0564    7.4108   17.0509 H   0  0  0  0  0  0  0  0  0  0  0  0
   52.0551    8.7674   18.1668 H   0  0  0  0  0  0  0  0  0  0  0  0
   53.0844    6.7062   19.3223 H   0  0  0  0  0  0  0  0  0  0  0  0
   48.0485    6.1136   18.8514 H   0  0  0  0  0  0  0  0  0  0  0  0
   53.9289    2.1530   17.6528 H   0  0  0  0  0  0  0  0  0  0  0  0
   48.5752    1.5278   17.1483 H   0  0  0  0  0  0  0  0  0  0  0  0
   49.0951    9.6590   17.9528 H   0  0  0  0  0  0  0  0  0  0  0  0
   48.4989    8.6060   19.2361 H   0  0  0  0  0  0  0  0  0  0  0  0
   50.0277    9.4773   19.4487 H   0  0  0  0  0  0  0  0  0  0  0  0
   52.1082   10.7398   15.2126 H   0  0  0  0  0  0  0  0  0  0  0  0
   52.4745   10.7087   16.9261 H   0  0  0  0  0  0  0  0  0  0  0  0
   53.2362    9.5152   15.8474 H   0  0  0  0  0  0  0  0  0  0  0  0
   51.7148    7.8412   14.7173 H   0  0  0  0  0  0  0  0  0  0  0  0
   50.0095    7.7476   15.2203 H   0  0  0  0  0  0  0  0  0  0  0  0
   50.5586    9.1145   14.2673 H   0  0  0  0  0  0  0  0  0  0  0  0
   46.1145    4.8229   18.2830 H   0  0  0  0  0  0  0  0  0  0  0  0
   55.3299    5.8926   19.1527 H   0  0  0  0  0  0  0  0  0  0  0  0
   55.7975    3.6092   18.3063 H   0  0  0  0  0  0  0  0  0  0  0  0
   46.3380    2.5057   17.4244 H   0  0  0  0  0  0  0  0  0  0  0  0
   49.9753    3.4547   19.6840 H   0  0  0  0  0  0  0  0  0  0  0  0
   51.8408    9.1582   15.7723 H   0  0  0  0  0  0  0  0  0  0  0  0
   50.8926    6.3457   19.8011 H   0  0  0  0  0  0  0  0  0  0  0  0
   49.9211    8.0525   18.0466 H   0  0  0  0  0  0  0  0  0  0  0  0
   52.4060    5.5877   17.6017 H   0  0  0  0  0  0  0  0  0  0  0  0
   50.0014    5.8224   16.3526 H   0  0  0  0  0  0  0  0  0  0  0  0
 10  9  1  0
 11  4  2  0
 12  3  2  0
 13  6  2  0
 14  5  2  0
 15  8  1  0
 16 10  1  0
 17 10  1  0
 18 12  1  0
 19 11  1  0
 20 19  2  0
 21 18  2  0
  5  2  1  0
 13 20  1  0
 14 21  1  0
  2  6  1  0
  3  1  1  0
  4  1  1  0
  5  3  1  0
  6  4  1  0
  7  1  1  0
  8  7  1  0
  9  8  1  0
 31 30  1  0
 32 25  2  0
 33 24  2  0
 34 27  2  0
 35 26  2  0
 36 29  1  0
 37 31  1  0
 38 31  1  0
 39 33  1  0
 40 32  1  0
 41 40  2  0
 42 39  2  0
 26 23  1  0
 34 41  1  0
 35 42  1  0
 23 27  1  0
 24 22  1  0
 25 22  1  0
 26 24  1  0
 27 25  1  0
 28 22  1  0
 29 28  1  0
 30 29  1  0
 49 44  2  0
 50 47  1  0
 51 48  1  0
 49 43  1  0
 51 52  1  0
 50 51  1  0
 52 45  1  0
 49 50  1  0
 52 46  2  0
  7 53  1  0
  7 54  1  0
  8 55  1  1
  9 56  1  0
  9 57  1  0
 11 58  1  0
 12 59  1  0
 13 60  1  0
 14 61  1  0
 15 62  1  0
 15 63  1  0
 15 64  1  0
 16 65  1  0
 16 66  1  0
 16 67  1  0
 17 68  1  0
 17 69  1  0
 17 70  1  0
 18 71  1  0
 19 72  1  0
 20 73  1  0
 21 74  1  0
 28 75  1  0
 28 76  1  0
 29 77  1  1
 30 78  1  0
 30 79  1  0
 32 80  1  0
 33 81  1  0
 34 82  1  0
 35 83  1  0
 36 84  1  0
 36 85  1  0
 36 86  1  0
 37 87  1  0
 37 88  1  0
 37 89  1  0
 38 90  1  0
 38 91  1  0
 38 92  1  0
 39 93  1  0
 40 94  1  0
 41 95  1  0
 42 96  1  0
 43 97  1  0
 45 98  1  0
 47 99  1  0
 48100  1  0
 50101  1  1
 51102  1  1
M  END
> <Uni-Dock RESULT> 
ENERGY=   -5.386  LOWER_BOUND=    3.150  UPPER_BOUND=    6.143
INTER + INTRA:          -5.386
INTER:                  -5.386
INTRA:                   0.000
UNBOUND:                 0.000

$$$$

     RDKit          3D

102105  0  0  0  0  0  0  0  0999 V2000
   48.3679    7.3320   18.3105 N   0  0  0  0  0  0  0  0  0  0  0  0
   48.9243    5.6760   20.8939 S   0  0  0  0  0  0  0  0  0  0  0  0
   47.9117    7.9029   19.5272 C   0  0  0  0  0  0  0  0  0  0  0  0
   48.5941    5.9444   18.1275 C   0  0  0  0  0  0  0  0  0  0  0  0
   48.0819    7.2410   20.7613 C   0  0  0  0  0  0  0  0  0  0  0  0
   48.8227    5.0826   19.2165 C   0  0  0  0  0  0  0  0  0  0  0  0
   49.0824    8.2478   17.3788 C   0  0  0  0  0  0  0  0  0  0  0  0
   50.3733    8.8534   17.9864 C   0  0  1  0  0  0  0  0  0  0  0  0
   51.5541    7.8548   18.0336 C   0  0  0  0  0  0  0  0  0  0  0  0
   52.0171    7.3750   16.7160 N   0  0  0  0  0  0  0  0  0  0  0  0
   48.5220    5.3628   16.8467 C   0  0  0  0  0  0  0  0  0  0  0  0
   47.2251    9.1330   19.5355 C   0  0  0  0  0  0  0  0  0  0  0  0
   49.0246    3.7072   19.0092 C   0  0  0  0  0  0  0  0  0  0  0  0
   47.6169    7.8259   21.9517 C   0  0  0  0  0  0  0  0  0  0  0  0
   50.7238   10.1487   17.2480 C   0  0  0  0  0  0  0  0  0  0  0  0
   53.1883    8.1220   16.2457 C   0  0  0  0  0  0  0  0  0  0  0  0
   52.3706    5.9539   16.7898 C   0  0  0  0  0  0  0  0  0  0  0  0
   46.7513    9.7009   20.7222 C   0  0  0  0  0  0  0  0  0  0  0  0
   48.7081    3.9905   16.6457 C   0  0  0  0  0  0  0  0  0  0  0  0
   48.9676    3.1624   17.7286 C   0  0  0  0  0  0  0  0  0  0  0  0
   46.9547    9.0501   21.9326 C   0  0  0  0  0  0  0  0  0  0  0  0
   48.5326    7.0394   18.7883 N   0  0  0  0  0  0  0  0  0  0  0  0
   48.6257    4.7279   20.9538 S   0  0  0  0  0  0  0  0  0  0  0  0
   48.1495    5.7222   18.3659 C   0  0  0  0  0  0  0  0  0  0  0  0
   48.9297    7.4006   20.1116 C   0  0  0  0  0  0  0  0  0  0  0  0
   48.1498    4.6262   19.2522 C   0  0  0  0  0  0  0  0  0  0  0  0
   49.0023    6.4486   21.1511 C   0  0  0  0  0  0  0  0  0  0  0  0
   48.4601    8.1036   17.7533 C   0  0  0  0  0  0  0  0  0  0  0  0
   49.6802    8.0881   16.7938 C   0  0  2  0  0  0  0  0  0  0  0  0
   50.9145    8.7688   17.4248 C   0  0  0  0  0  0  0  0  0  0  0  0
   52.1045    8.6952   16.5547 N   0  0  0  0  0  0  0  0  0  0  0  0
   49.2856    8.7208   20.4760 C   0  0  0  0  0  0  0  0  0  0  0  0
   47.7450    5.4324   17.0389 C   0  0  0  0  0  0  0  0  0  0  0  0
   49.3963    6.8101   22.4576 C   0  0  0  0  0  0  0  0  0  0  0  0
   47.7674    3.3368   18.8220 C   0  0  0  0  0  0  0  0  0  0  0  0
   49.2954    8.7876   15.4845 C   0  0  0  0  0  0  0  0  0  0  0  0
   53.0292    9.7980   16.8428 C   0  0  0  0  0  0  0  0  0  0  0  0
   52.7959    7.4110   16.7289 C   0  0  0  0  0  0  0  0  0  0  0  0
   47.3655    4.1525   16.6167 C   0  0  0  0  0  0  0  0  0  0  0  0
   49.6832    9.0759   21.7733 C   0  0  0  0  0  0  0  0  0  0  0  0
   49.7390    8.1177   22.7677 C   0  0  0  0  0  0  0  0  0  0  0  0
   47.3764    3.0997   17.5111 C   0  0  0  0  0  0  0  0  0  0  0  0
   47.2467    6.6099   19.1925 O   0  0  0  0  0  0  0  0  0  0  0  0
   48.8269    5.1874   19.8887 O   0  0  0  0  0  0  0  0  0  0  0  0
   51.8778    8.4604   16.8889 O   0  0  0  0  0  0  0  0  0  0  0  0
   52.5604    7.2856   18.6638 O   0  0  0  0  0  0  0  0  0  0  0  0
   48.8482    8.6113   18.7075 O   0  0  0  0  0  0  0  0  0  0  0  0
   49.6013    7.1715   16.5784 O   0  0  0  0  0  0  0  0  0  0  0  0
   48.5391    6.2754   19.4210 C   0  0  0  0  0  0  0  0  0  0  0  0
   49.5083    7.3752   19.0053 C   0  0  1  0  0  0  0  0  0  0  0  0
   50.3034    6.8902   17.7941 C   0  0  2  0  0  0  0  0  0  0  0  0
   51.6868    7.5269   17.8471 C   0  0  0  0  0  0  0  0  0  0  0  0
   48.3983    9.0556   17.0943 H   0  0  0  0  0  0  0  0  0  0  0  0
   49.3300    7.7657   16.4260 H   0  0  0  0  0  0  0  0  0  0  0  0
   50.1820    9.1435   19.0280 H   0  0  0  0  0  0  0  0  0  0  0  0
   52.3837    8.3080   18.5927 H   0  0  0  0  0  0  0  0  0  0  0  0
   51.2350    7.0104   18.6538 H   0  0  0  0  0  0  0  0  0  0  0  0
   48.2819    5.9682   15.9769 H   0  0  0  0  0  0  0  0  0  0  0  0
   47.0148    9.6534   18.6057 H   0  0  0  0  0  0  0  0  0  0  0  0
   49.2247    3.0492   19.8534 H   0  0  0  0  0  0  0  0  0  0  0  0
   47.7616    7.3192   22.9030 H   0  0  0  0  0  0  0  0  0  0  0  0
   49.9289   10.8910   17.3902 H   0  0  0  0  0  0  0  0  0  0  0  0
   51.6535   10.5804   17.6416 H   0  0  0  0  0  0  0  0  0  0  0  0
   50.8303    9.9864   16.1685 H   0  0  0  0  0  0  0  0  0  0  0  0
   52.9764    9.1867   16.1334 H   0  0  0  0  0  0  0  0  0  0  0  0
   53.4898    7.7672   15.2540 H   0  0  0  0  0  0  0  0  0  0  0  0
   54.0460    8.0126   16.9220 H   0  0  0  0  0  0  0  0  0  0  0  0
   52.6971    5.5868   15.8092 H   0  0  0  0  0  0  0  0  0  0  0  0
   53.1676    5.7639   17.5160 H   0  0  0  0  0  0  0  0  0  0  0  0
   51.5033    5.3510   17.0725 H   0  0  0  0  0  0  0  0  0  0  0  0
   46.2097   10.6444   20.6957 H   0  0  0  0  0  0  0  0  0  0  0  0
   48.6391    3.5743   15.6431 H   0  0  0  0  0  0  0  0  0  0  0  0
   49.1108    2.0950   17.5804 H   0  0  0  0  0  0  0  0  0  0  0  0
   46.5859    9.4852   22.8579 H   0  0  0  0  0  0  0  0  0  0  0  0
   48.3201    9.1071   18.1654 H   0  0  0  0  0  0  0  0  0  0  0  0
   47.5215    7.9938   17.1925 H   0  0  0  0  0  0  0  0  0  0  0  0
   49.9314    7.0527   16.5468 H   0  0  0  0  0  0  0  0  0  0  0  0
   51.1447    8.3430   18.4062 H   0  0  0  0  0  0  0  0  0  0  0  0
   50.6510    9.8202   17.5940 H   0  0  0  0  0  0  0  0  0  0  0  0
   49.2909    9.5382   19.7651 H   0  0  0  0  0  0  0  0  0  0  0  0
   47.7125    6.1915   16.2662 H   0  0  0  0  0  0  0  0  0  0  0  0
   49.4441    6.0587   23.2437 H   0  0  0  0  0  0  0  0  0  0  0  0
   47.7712    2.5021   19.5207 H   0  0  0  0  0  0  0  0  0  0  0  0
   50.1028    8.7306   14.7454 H   0  0  0  0  0  0  0  0  0  0  0  0
   48.4103    8.3256   15.0325 H   0  0  0  0  0  0  0  0  0  0  0  0
   49.0710    9.8480   15.6548 H   0  0  0  0  0  0  0  0  0  0  0  0
   53.9230    9.7343   16.2130 H   0  0  0  0  0  0  0  0  0  0  0  0
   52.5550   10.7575   16.6040 H   0  0  0  0  0  0  0  0  0  0  0  0
   53.3423    9.8191   17.8955 H   0  0  0  0  0  0  0  0  0  0  0  0
   53.1993    7.2990   17.7450 H   0  0  0  0  0  0  0  0  0  0  0  0
   52.1275    6.5664   16.5267 H   0  0  0  0  0  0  0  0  0  0  0  0
   53.6267    7.3237   16.0196 H   0  0  0  0  0  0  0  0  0  0  0  0
   47.0706    3.9890   15.5839 H   0  0  0  0  0  0  0  0  0  0  0  0
   49.9466   10.1069   21.9965 H   0  0  0  0  0  0  0  0  0  0  0  0
   50.0470    8.3811   23.7743 H   0  0  0  0  0  0  0  0  0  0  0  0
   47.0834    2.1027   17.1959 H   0  0  0  0  0  0  0  0  0  0  0  0
   46.7404    5.8247   19.4904 H   0  0  0  0  0  0  0  0  0  0  0  0
   52.7894    8.7875   17.0525 H   0  0  0  0  0  0  0  0  0  0  0  0
   47.9748    8.3497   18.3442 H   0  0  0  0  0  0  0  0  0  0  0  0
   49.7510    8.1247   16.4130 H   0  0  0  0  0  0  0  0  0  0  0  0
   50.1524    7.5588   19.8723 H   0  0  0  0  0  0  0  0  0  0  0  0
   50.4685    5.8077   17.8153 H   0  0  0  0  0  0  0  0  0  0  0  0
 10  9  1  0
 11  4  2  0
 12  3  2  0
 13  6  2  0
 14  5  2  0
 15  8  1  0
 16 10  1  0
 17 10  1  0
 18 12  1  0
 19 11  1  0
 20 19  2  0
 21 18  2  0
  5  2  1  0
 13 20  1  0
 14 21  1  0
  2  6  1  0
  3  1  1  0
  4  1  1  0
  5  3  1  0
  6  4  1  0
  7  1  1  0
  8  7  1  0
  9  8  1  0
 31 30  1  0
 32 25  2  0
 33 24  2  0
 34 27  2  0
 35 26  2  0
 36 29  1  0
 37 31  1  0
 38 31  1  0
 39 33  1  0
 40 32  1  0
 41 40  2  0
 42 39  2  0
 26 23  1  0
 34 41  1  0
 35 42  1  0
 23 27  1  0
 24 22  1  0
 25 22  1  0
 26 24  1  0
 27 25  1  0
 28 22  1  0
 29 28  1  0
 30 29  1  0
 49 44  2  0
 50 47  1  0
 51 48  1  0
 49 43  1  0
 51 52  1  0
 50 51  1  0
 52 45  1  0
 49 50  1  0
 52 46  2  0
  7 53  1  0
  7 54  1  0
  8 55  1  1
  9 56  1  0
  9 57  1  0
 11 58  1  0
 12 59  1  0
 13 60  1  0
 14 61  1  0
 15 62  1  0
 15 63  1  0
 15 64  1  0
 16 65  1  0
 16 66  1  0
 16 67  1  0
 17 68  1  0
 17 69  1  0
 17 70  1  0
 18 71  1  0
 19 72  1  0
 20 73  1  0
 21 74  1  0
 28 75  1  0
 28 76  1  0
 29 77  1  1
 30 78  1  0
 30 79  1  0
 32 80  1  0
 33 81  1  0
 34 82  1  0
 35 83  1  0
 36 84  1  0
 36 85  1  0
 36 86  1  0
 37 87  1  0
 37 88  1  0
 37 89  1  0
 38 90  1  0
 38 91  1  0
 38 92  1  0
 39 93  1  0
 40 94  1  0
 41 95  1  0
 42 96  1  0
 43 97  1  0
 45 98  1  0
 47 99  1  0
 48100  1  0
 50101  1  1
 51102  1  1
M  END
> <Uni-Dock RESULT> 
ENERGY=   -5.295  LOWER_BOUND=    2.100  UPPER_BOUND=    5.599
INTER + INTRA:          -5.295
INTER:                  -5.295
INTRA:                   0.000
UNBOUND:                 0.000

$$$$

     RDKit          3D

102105  0  0  0  0  0  0  0  0999 V2000
   50.2973    5.2860   17.5685 N   0  0  0  0  0  0  0  0  0  0  0  0
   53.0880    6.6621   17.7776 S   0  0  0  0  0  0  0  0  0  0  0  0
   51.4066    4.4206   17.7559 C   0  0  0  0  0  0  0  0  0  0  0  0
   50.3975    6.5854   17.0104 C   0  0  0  0  0  0  0  0  0  0  0  0
   52.7236    4.9187   17.8419 C   0  0  0  0  0  0  0  0  0  0  0  0
   51.6107    7.2987   17.0104 C   0  0  0  0  0  0  0  0  0  0  0  0
   49.1018    5.0195   18.4153 C   0  0  0  0  0  0  0  0  0  0  0  0
   49.3882    5.1420   19.9336 C   0  0  1  0  0  0  0  0  0  0  0  0
   49.5012    6.6068   20.4187 C   0  0  0  0  0  0  0  0  0  0  0  0
   48.2734    7.4119   20.2602 N   0  0  0  0  0  0  0  0  0  0  0  0
   49.2971    7.1815   16.3641 C   0  0  0  0  0  0  0  0  0  0  0  0
   51.2320    3.0238   17.8117 C   0  0  0  0  0  0  0  0  0  0  0  0
   51.6879    8.5777   16.4329 C   0  0  0  0  0  0  0  0  0  0  0  0
   53.8054    4.0400   18.0231 C   0  0  0  0  0  0  0  0  0  0  0  0
   48.3430    4.3398   20.7147 C   0  0  0  0  0  0  0  0  0  0  0  0
   47.5021    7.4786   21.5058 C   0  0  0  0  0  0  0  0  0  0  0  0
   48.6127    8.7778   19.8493 C   0  0  0  0  0  0  0  0  0  0  0  0
   52.3151    2.1549   17.9762 C   0  0  0  0  0  0  0  0  0  0  0  0
   49.3816    8.4486   15.7763 C   0  0  0  0  0  0  0  0  0  0  0  0
   50.5776    9.1512   15.8177 C   0  0  0  0  0  0  0  0  0  0  0  0
   53.6025    2.6645   18.0899 C   0  0  0  0  0  0  0  0  0  0  0  0
   50.8024    5.5625   17.6655 N   0  0  0  0  0  0  0  0  0  0  0  0
   53.3940    7.2831   17.0617 S   0  0  0  0  0  0  0  0  0  0  0  0
   50.7346    6.5020   16.5823 C   0  0  0  0  0  0  0  0  0  0  0  0
   51.9504    5.3209   18.4797 C   0  0  0  0  0  0  0  0  0  0  0  0
   51.8332    7.3105   16.2277 C   0  0  0  0  0  0  0  0  0  0  0  0
   53.1561    6.0307   18.2931 C   0  0  0  0  0  0  0  0  0  0  0  0
   49.5763    4.7588   17.9102 C   0  0  0  0  0  0  0  0  0  0  0  0
   48.4941    5.5446   18.6980 C   0  0  2  0  0  0  0  0  0  0  0  0
   48.7938    5.5713   20.2128 C   0  0  0  0  0  0  0  0  0  0  0  0
   47.8147    6.3786   20.9665 N   0  0  0  0  0  0  0  0  0  0  0  0
   51.9651    4.3711   19.5286 C   0  0  0  0  0  0  0  0  0  0  0  0
   49.5682    6.6806   15.7974 C   0  0  0  0  0  0  0  0  0  0  0  0
   54.2881    5.7890   19.1012 C   0  0  0  0  0  0  0  0  0  0  0  0
   51.7516    8.2281   15.1575 C   0  0  0  0  0  0  0  0  0  0  0  0
   47.1239    4.9081   18.4357 C   0  0  0  0  0  0  0  0  0  0  0  0
   47.7299    5.9266   22.3603 C   0  0  0  0  0  0  0  0  0  0  0  0
   48.1769    7.8016   20.9287 C   0  0  0  0  0  0  0  0  0  0  0  0
   49.4919    7.5908   14.7362 C   0  0  0  0  0  0  0  0  0  0  0  0
   53.0892    4.1378   20.3342 C   0  0  0  0  0  0  0  0  0  0  0  0
   54.2548    4.8490   20.1202 C   0  0  0  0  0  0  0  0  0  0  0  0
   50.5875    8.3683   14.4142 C   0  0  0  0  0  0  0  0  0  0  0  0
   51.4547    5.1770   16.4708 O   0  0  0  0  0  0  0  0  0  0  0  0
   52.2368    7.1345   17.2200 O   0  0  0  0  0  0  0  0  0  0  0  0
   48.2190    6.4123   20.7349 O   0  0  0  0  0  0  0  0  0  0  0  0
   50.1056    7.5510   21.1093 O   0  0  0  0  0  0  0  0  0  0  0  0
   50.3364    4.4338   18.7074 O   0  0  0  0  0  0  0  0  0  0  0  0
   48.4985    6.2906   18.1181 O   0  0  0  0  0  0  0  0  0  0  0  0
   51.5819    6.1279   17.4269 C   0  0  0  0  0  0  0  0  0  0  0  0
   50.8116    5.7851   18.6961 C   0  0  1  0  0  0  0  0  0  0  0  0
   49.6448    6.7617   18.8352 C   0  0  2  0  0  0  0  0  0  0  0  0
   49.3761    6.9736   20.3201 C   0  0  0  0  0  0  0  0  0  0  0  0
   48.7372    4.0101   18.1922 H   0  0  0  0  0  0  0  0  0  0  0  0
   48.2551    5.6670   18.1597 H   0  0  0  0  0  0  0  0  0  0  0  0
   50.3558    4.6744   20.1589 H   0  0  0  0  0  0  0  0  0  0  0  0
   49.8341    6.6124   21.4653 H   0  0  0  0  0  0  0  0  0  0  0  0
   50.3285    7.0644   19.8658 H   0  0  0  0  0  0  0  0  0  0  0  0
   48.3537    6.6497   16.2740 H   0  0  0  0  0  0  0  0  0  0  0  0
   50.2456    2.5860   17.6898 H   0  0  0  0  0  0  0  0  0  0  0  0
   52.6233    9.1346   16.4570 H   0  0  0  0  0  0  0  0  0  0  0  0
   54.8182    4.4284   18.1024 H   0  0  0  0  0  0  0  0  0  0  0  0
   48.4196    3.2748   20.4633 H   0  0  0  0  0  0  0  0  0  0  0  0
   48.5076    4.4369   21.7959 H   0  0  0  0  0  0  0  0  0  0  0  0
   47.3215    4.6596   20.4753 H   0  0  0  0  0  0  0  0  0  0  0  0
   47.1859    6.4906   21.8447 H   0  0  0  0  0  0  0  0  0  0  0  0
   46.5826    8.0539   21.3508 H   0  0  0  0  0  0  0  0  0  0  0  0
   48.0687    7.9542   22.3168 H   0  0  0  0  0  0  0  0  0  0  0  0
   47.7034    9.3756   19.7114 H   0  0  0  0  0  0  0  0  0  0  0  0
   49.2533    9.2818   20.5803 H   0  0  0  0  0  0  0  0  0  0  0  0
   49.1315    8.7775   18.8867 H   0  0  0  0  0  0  0  0  0  0  0  0
   52.1515    1.0794   17.9991 H   0  0  0  0  0  0  0  0  0  0  0  0
   48.5132    8.8759   15.2797 H   0  0  0  0  0  0  0  0  0  0  0  0
   50.6515   10.1350   15.3612 H   0  0  0  0  0  0  0  0  0  0  0  0
   54.4488    1.9938   18.2148 H   0  0  0  0  0  0  0  0  0  0  0  0
   49.7714    3.7989   18.3970 H   0  0  0  0  0  0  0  0  0  0  0  0
   49.1802    4.4085   16.9469 H   0  0  0  0  0  0  0  0  0  0  0  0
   48.4513    6.5719   18.3249 H   0  0  0  0  0  0  0  0  0  0  0  0
   49.8066    5.9350   20.4111 H   0  0  0  0  0  0  0  0  0  0  0  0
   48.7594    4.5333   20.5661 H   0  0  0  0  0  0  0  0  0  0  0  0
   51.0967    3.7768   19.7863 H   0  0  0  0  0  0  0  0  0  0  0  0
   48.6579    6.1217   15.9801 H   0  0  0  0  0  0  0  0  0  0  0  0
   55.2077    6.3481   18.9381 H   0  0  0  0  0  0  0  0  0  0  0  0
   52.6108    8.8430   14.8958 H   0  0  0  0  0  0  0  0  0  0  0  0
   46.3174    5.4792   18.9096 H   0  0  0  0  0  0  0  0  0  0  0  0
   46.9037    4.8671   17.3628 H   0  0  0  0  0  0  0  0  0  0  0  0
   47.0835    3.8835   18.8262 H   0  0  0  0  0  0  0  0  0  0  0  0
   47.0193    6.5372   22.9275 H   0  0  0  0  0  0  0  0  0  0  0  0
   47.3487    4.8991   22.3991 H   0  0  0  0  0  0  0  0  0  0  0  0
   48.7022    5.9545   22.8705 H   0  0  0  0  0  0  0  0  0  0  0  0
   49.1317    7.9936   21.4380 H   0  0  0  0  0  0  0  0  0  0  0  0
   48.2546    8.1672   19.8985 H   0  0  0  0  0  0  0  0  0  0  0  0
   47.4029    8.4073   21.4134 H   0  0  0  0  0  0  0  0  0  0  0  0
   48.5678    7.6890   14.1733 H   0  0  0  0  0  0  0  0  0  0  0  0
   53.0432    3.3955   21.1273 H   0  0  0  0  0  0  0  0  0  0  0  0
   55.1298    4.6778   20.7388 H   0  0  0  0  0  0  0  0  0  0  0  0
   50.5409    9.0771   13.5929 H   0  0  0  0  0  0  0  0  0  0  0  0
   51.9816    5.5220   15.7191 H   0  0  0  0  0  0  0  0  0  0  0  0
   48.1868    6.6137   21.6956 H   0  0  0  0  0  0  0  0  0  0  0  0
   50.1562    4.2218   17.7662 H   0  0  0  0  0  0  0  0  0  0  0  0
   48.1087    5.5973   18.6888 H   0  0  0  0  0  0  0  0  0  0  0  0
   51.5257    5.8787   19.5217 H   0  0  0  0  0  0  0  0  0  0  0  0
   49.8828    7.7500   18.4277 H   0  0  0  0  0  0  0  0  0  0  0  0
 10  9  1  0
 11  4  2  0
 12  3  2  0
 13  6  2  0
 14  5  2  0
 15  8  1  0
 16 10  1  0
 17 10  1  0
 18 12  1  0
 19 11  1  0
 20 19  2  0
 21 18  2  0
  5  2  1  0
 13 20  1  0
 14 21  1  0
  2  6  1  0
  3  1  1  0
  4  1  1  0
  5  3  1  0
  6  4  1  0
  7  1  1  0
  8  7  1  0
  9  8  1  0
 31 30  1  0
 32 25  2  0
 33 24  2  0
 34 27  2  0
 35 26  2  0
 36 29  1  0
 37 31  1  0
 38 31  1  0
 39 33  1  0
 40 32  1  0
 41 40  2  0
 42 39  2  0
 26 23  1  0
 34 41  1  0
 35 42  1  0
 23 27  1  0
 24 22  1  0
 25 22  1  0
 26 24  1  0
 27 25  1  0
 28 22  1  0
 29 28  1  0
 30 29  1  0
 49 44  2  0
 50 47  1  0
 51 48  1  0
 49 43  1  0
 51 52  1  0
 50 51  1  0
 52 45  1  0
 49 50  1  0
 52 46  2  0
  7 53  1  0
  7 54  1  0
  8 55  1  1
  9 56  1  0
  9 57  1  0
 11 58  1  0
 12 59  1  0
 13 60  1  0
 14 61  1  0
 15 62  1  0
 15 63  1  0
 15 64  1  0
 16 65  1  0
 16 66  1  0
 16 67  1  0
 17 68  1  0
 17 69  1  0
 17 70  1  0
 18 71  1  0
 19 72  1  0
 20 73  1  0
 21 74  1  0
 28 75  1  0
 28 76  1  0
 29 77  1  1
 30 78  1  0
 30 79  1  0
 32 80  1  0
 33 81  1  0
 34 82  1  0
 35 83  1  0
 36 84  1  0
 36 85  1  0
 36 86  1  0
 37 87  1  0
 37 88  1  0
 37 89  1  0
 38 90  1  0
 38 91  1  0
 38 92  1  0
 39 93  1  0
 40 94  1  0
 41 95  1  0
 42 96  1  0
 43 97  1  0
 45 98  1  0
 47 99  1  0
 48100  1  0
 50101  1  1
 51102  1  1
M  END
> <Uni-Dock RESULT> 
ENERGY=   -5.202  LOWER_BOUND=    2.465  UPPER_BOUND=    4.521
INTER + INTRA:          -5.202
INTER:                  -5.202
INTRA:                   0.000
UNBOUND:                 0.000

$$$$

     RDKit          3D

102105  0  0  0  0  0  0  0  0999 V2000
   50.2124    7.5108   17.8238 N   0  0  0  0  0  0  0  0  0  0  0  0
   47.9481    9.6539   17.7457 S   0  0  0  0  0  0  0  0  0  0  0  0
   50.1729    8.4160   18.9164 C   0  0  0  0  0  0  0  0  0  0  0  0
   49.6596    7.7907   16.5487 C   0  0  0  0  0  0  0  0  0  0  0  0
   49.2112    9.4457   18.9859 C   0  0  0  0  0  0  0  0  0  0  0  0
   48.6556    8.7616   16.3748 C   0  0  0  0  0  0  0  0  0  0  0  0
   50.3970    6.0730   18.1643 C   0  0  0  0  0  0  0  0  0  0  0  0
   49.2595    5.5031   19.0495 C   0  0  1  0  0  0  0  0  0  0  0  0
   47.9534    5.2298   18.2665 C   0  0  0  0  0  0  0  0  0  0  0  0
   48.0671    4.2138   17.2009 N   0  0  0  0  0  0  0  0  0  0  0  0
   50.1527    7.1563   15.3918 C   0  0  0  0  0  0  0  0  0  0  0  0
   51.1302    8.3463   19.9475 C   0  0  0  0  0  0  0  0  0  0  0  0
   48.1383    9.0339   15.0967 C   0  0  0  0  0  0  0  0  0  0  0  0
   49.1964   10.3320   20.0765 C   0  0  0  0  0  0  0  0  0  0  0  0
   49.7685    4.2683   19.7992 C   0  0  0  0  0  0  0  0  0  0  0  0
   47.6014    2.8981   17.6517 C   0  0  0  0  0  0  0  0  0  0  0  0
   47.2747    4.6129   16.0336 C   0  0  0  0  0  0  0  0  0  0  0  0
   51.1186    9.2417   21.0213 C   0  0  0  0  0  0  0  0  0  0  0  0
   49.6461    7.4411   14.1188 C   0  0  0  0  0  0  0  0  0  0  0  0
   48.6315    8.3763   13.9722 C   0  0  0  0  0  0  0  0  0  0  0  0
   50.1455   10.2308   21.0897 C   0  0  0  0  0  0  0  0  0  0  0  0
   49.7484    7.8653   17.8238 N   0  0  0  0  0  0  0  0  0  0  0  0
   47.8450   10.2433   16.9497 S   0  0  0  0  0  0  0  0  0  0  0  0
   49.8273    8.3084   16.4608 C   0  0  0  0  0  0  0  0  0  0  0  0
   48.8993    8.4241   18.8269 C   0  0  0  0  0  0  0  0  0  0  0  0
   49.0292    9.3625   15.9727 C   0  0  0  0  0  0  0  0  0  0  0  0
   48.0154    9.4874   18.5438 C   0  0  0  0  0  0  0  0  0  0  0  0
   50.6671    6.7612   18.2055 C   0  0  0  0  0  0  0  0  0  0  0  0
   50.1490    5.3695   17.7537 C   0  0  2  0  0  0  0  0  0  0  0  0
   49.0705    4.8201   18.7130 C   0  0  0  0  0  0  0  0  0  0  0  0
   48.5136    3.5320   18.2557 N   0  0  0  0  0  0  0  0  0  0  0  0
   48.8716    7.9550   20.1616 C   0  0  0  0  0  0  0  0  0  0  0  0
   50.7078    7.7235   15.5167 C   0  0  0  0  0  0  0  0  0  0  0  0
   47.1772   10.0359   19.5385 C   0  0  0  0  0  0  0  0  0  0  0  0
   49.1206    9.7888   14.6296 C   0  0  0  0  0  0  0  0  0  0  0  0
   51.3330    4.3987   17.6689 C   0  0  0  0  0  0  0  0  0  0  0  0
   47.9927    2.7583   19.3890 C   0  0  0  0  0  0  0  0  0  0  0  0
   47.4450    3.7489   17.2715 C   0  0  0  0  0  0  0  0  0  0  0  0
   50.7962    8.1500   14.1860 C   0  0  0  0  0  0  0  0  0  0  0  0
   48.0330    8.4974   21.1463 C   0  0  0  0  0  0  0  0  0  0  0  0
   47.1826    9.5413   20.8341 C   0  0  0  0  0  0  0  0  0  0  0  0
   49.9998    9.1867   13.7397 C   0  0  0  0  0  0  0  0  0  0  0  0
   50.4441    9.0779   17.6070 O   0  0  0  0  0  0  0  0  0  0  0  0
   48.3575    9.1927   16.8085 O   0  0  0  0  0  0  0  0  0  0  0  0
   48.4546    3.9936   18.2152 O   0  0  0  0  0  0  0  0  0  0  0  0
   46.6446    5.3032   18.1425 O   0  0  0  0  0  0  0  0  0  0  0  0
   50.0549    7.0074   19.1454 O   0  0  0  0  0  0  0  0  0  0  0  0
   50.0142    5.6224   16.8534 O   0  0  0  0  0  0  0  0  0  0  0  0
   49.1795    8.6071   17.4914 C   0  0  0  0  0  0  0  0  0  0  0  0
   48.9669    7.3113   18.2644 C   0  0  1  0  0  0  0  0  0  0  0  0
   48.7590    6.1763   17.2629 C   0  0  2  0  0  0  0  0  0  0  0  0
   47.8291    5.1480   17.8953 C   0  0  0  0  0  0  0  0  0  0  0  0
   51.3558    5.9602   18.6835 H   0  0  0  0  0  0  0  0  0  0  0  0
   50.5046    5.4426   17.2741 H   0  0  0  0  0  0  0  0  0  0  0  0
   48.9992    6.2380   19.8228 H   0  0  0  0  0  0  0  0  0  0  0  0
   47.1610    4.9576   18.9765 H   0  0  0  0  0  0  0  0  0  0  0  0
   47.6265    6.1863   17.8448 H   0  0  0  0  0  0  0  0  0  0  0  0
   50.9735    6.4472   15.4569 H   0  0  0  0  0  0  0  0  0  0  0  0
   51.9281    7.6103   19.9103 H   0  0  0  0  0  0  0  0  0  0  0  0
   47.3450    9.7692   14.9716 H   0  0  0  0  0  0  0  0  0  0  0  0
   48.4452   11.1165   20.1337 H   0  0  0  0  0  0  0  0  0  0  0  0
   50.5857    4.5478   20.4754 H   0  0  0  0  0  0  0  0  0  0  0  0
   48.9694    3.8285   20.4105 H   0  0  0  0  0  0  0  0  0  0  0  0
   50.1581    3.5068   19.1128 H   0  0  0  0  0  0  0  0  0  0  0  0
   48.1804    2.5276   18.4994 H   0  0  0  0  0  0  0  0  0  0  0  0
   47.7269    2.1586   16.8531 H   0  0  0  0  0  0  0  0  0  0  0  0
   46.5422    2.9120   17.9398 H   0  0  0  0  0  0  0  0  0  0  0  0
   47.3705    3.8712   15.2312 H   0  0  0  0  0  0  0  0  0  0  0  0
   46.2132    4.7294   16.2754 H   0  0  0  0  0  0  0  0  0  0  0  0
   47.6352    5.5603   15.6235 H   0  0  0  0  0  0  0  0  0  0  0  0
   51.8810    9.1739   21.7948 H   0  0  0  0  0  0  0  0  0  0  0  0
   50.0553    6.9367   13.2462 H   0  0  0  0  0  0  0  0  0  0  0  0
   48.2347    8.6045   12.9861 H   0  0  0  0  0  0  0  0  0  0  0  0
   50.1333   10.9317   21.9204 H   0  0  0  0  0  0  0  0  0  0  0  0
   50.9108    6.7425   19.2717 H   0  0  0  0  0  0  0  0  0  0  0  0
   51.6622    6.9624   17.7848 H   0  0  0  0  0  0  0  0  0  0  0  0
   49.7243    5.4517   16.7492 H   0  0  0  0  0  0  0  0  0  0  0  0
   48.2626    5.5437   18.8586 H   0  0  0  0  0  0  0  0  0  0  0  0
   49.5486    4.6841   19.6909 H   0  0  0  0  0  0  0  0  0  0  0  0
   49.4870    7.1303   20.5004 H   0  0  0  0  0  0  0  0  0  0  0  0
   51.3646    6.9002   15.7723 H   0  0  0  0  0  0  0  0  0  0  0  0
   46.5041   10.8566   19.2971 H   0  0  0  0  0  0  0  0  0  0  0  0
   48.4982   10.6062   14.2702 H   0  0  0  0  0  0  0  0  0  0  0  0
   51.0258    3.4225   17.2766 H   0  0  0  0  0  0  0  0  0  0  0  0
   52.1148    4.7828   17.0037 H   0  0  0  0  0  0  0  0  0  0  0  0
   51.7821    4.2368   18.6568 H   0  0  0  0  0  0  0  0  0  0  0  0
   47.5600    1.8108   19.0505 H   0  0  0  0  0  0  0  0  0  0  0  0
   48.8102    2.4944   20.0706 H   0  0  0  0  0  0  0  0  0  0  0  0
   47.2313    3.3085   19.9583 H   0  0  0  0  0  0  0  0  0  0  0  0
   46.5845    4.2721   17.7117 H   0  0  0  0  0  0  0  0  0  0  0  0
   47.8028    4.3311   16.4147 H   0  0  0  0  0  0  0  0  0  0  0  0
   47.0941    2.7918   16.8694 H   0  0  0  0  0  0  0  0  0  0  0  0
   51.4861    7.6588   13.5054 H   0  0  0  0  0  0  0  0  0  0  0  0
   48.0531    8.0963   22.1567 H   0  0  0  0  0  0  0  0  0  0  0  0
   46.5282    9.9671   21.5877 H   0  0  0  0  0  0  0  0  0  0  0  0
   50.0598    9.5270   12.7102 H   0  0  0  0  0  0  0  0  0  0  0  0
   50.4458    9.8942   17.0636 H   0  0  0  0  0  0  0  0  0  0  0  0
   47.7481    3.4431   18.6184 H   0  0  0  0  0  0  0  0  0  0  0  0
   50.8502    7.3688   18.6981 H   0  0  0  0  0  0  0  0  0  0  0  0
   50.2908    5.0445   17.5935 H   0  0  0  0  0  0  0  0  0  0  0  0
   48.0836    7.4714   18.8924 H   0  0  0  0  0  0  0  0  0  0  0  0
   48.2565    6.5171   16.3513 H   0  0  0  0  0  0  0  0  0  0  0  0
 10  9  1  0
 11  4  2  0
 12  3  2  0
 13  6  2  0
 14  5  2  0
 15  8  1  0
 16 10  1  0
 17 10  1  0
 18 12  1  0
 19 11  1  0
 20 19  2  0
 21 18  2  0
  5  2  1  0
 13 20  1  0
 14 21  1  0
  2  6  1  0
  3  1  1  0
  4  1  1  0
  5  3  1  0
  6  4  1  0
  7  1  1  0
  8  7  1  0
  9  8  1  0
 31 30  1  0
 32 25  2  0
 33 24  2  0
 34 27  2  0
 35 26  2  0
 36 29  1  0
 37 31  1  0
 38 31  1  0
 39 33  1  0
 40 32  1  0
 41 40  2  0
 42 39  2  0
 26 23  1  0
 34 41  1  0
 35 42  1  0
 23 27  1  0
 24 22  1  0
 25 22  1  0
 26 24  1  0
 27 25  1  0
 28 22  1  0
 29 28  1  0
 30 29  1  0
 49 44  2  0
 50 47  1  0
 51 48  1  0
 49 43  1  0
 51 52  1  0
 50 51  1  0
 52 45  1  0
 49 50  1  0
 52 46  2  0
  7 53  1  0
  7 54  1  0
  8 55  1  1
  9 56  1  0
  9 57  1  0
 11 58  1  0
 12 59  1  0
 13 60  1  0
 14 61  1  0
 15 62  1  0
 15 63  1  0
 15 64  1  0
 16 65  1  0
 16 66  1  0
 16 67  1  0
 17 68  1  0
 17 69  1  0
 17 70  1  0
 18 71  1  0
 19 72  1  0
 20 73  1  0
 21 74  1  0
 28 75  1  0
 28 76  1  0
 29 77  1  1
 30 78  1  0
 30 79  1  0
 32 80  1  0
 33 81  1  0
 34 82  1  0
 35 83  1  0
 36 84  1  0
 36 85  1  0
 36 86  1  0
 37 87  1  0
 37 88  1  0
 37 89  1  0
 38 90  1  0
 38 91  1  0
 38 92  1  0
 39 93  1  0
 40 94  1  0
 41 95  1  0
 42 96  1  0
 43 97  1  0
 45 98  1  0
 47 99  1  0
 48100  1  0
 50101  1  1
 51102  1  1
M  END
> <Uni-Dock RESULT> 
ENERGY=   -5.180  LOWER_BOUND=    2.178  UPPER_BOUND=    5.270
INTER + INTRA:          -5.180
INTER:                  -5.180
INTRA:                   0.000
UNBOUND:                 0.000

$$$$

     RDKit          3D

102105  0  0  0  0  0  0  0  0999 V2000
   47.9514    8.4150   20.4274 N   0  0  0  0  0  0  0  0  0  0  0  0
   49.0105    9.8152   23.0048 S   0  0  0  0  0  0  0  0  0  0  0  0
   47.6071    9.7835   20.5796 C   0  0  0  0  0  0  0  0  0  0  0  0
   48.2885    7.5625   21.5088 C   0  0  0  0  0  0  0  0  0  0  0  0
   48.0059   10.5220   21.7134 C   0  0  0  0  0  0  0  0  0  0  0  0
   48.7455    8.0731   22.7382 C   0  0  0  0  0  0  0  0  0  0  0  0
   48.4399    8.0030   19.0824 C   0  0  0  0  0  0  0  0  0  0  0  0
   49.7334    8.7391   18.6496 C   0  0  1  0  0  0  0  0  0  0  0  0
   51.0038    8.2116   19.3579 C   0  0  0  0  0  0  0  0  0  0  0  0
   51.3322    6.7994   19.0778 N   0  0  0  0  0  0  0  0  0  0  0  0
   48.1045    6.1692   21.4158 C   0  0  0  0  0  0  0  0  0  0  0  0
   46.8084   10.4385   19.6217 C   0  0  0  0  0  0  0  0  0  0  0  0
   49.0542    7.2071   23.8013 C   0  0  0  0  0  0  0  0  0  0  0  0
   47.6480   11.8750   21.8424 C   0  0  0  0  0  0  0  0  0  0  0  0
   49.8511    8.7055   17.1228 C   0  0  0  0  0  0  0  0  0  0  0  0
   52.3495    6.6751   18.0288 C   0  0  0  0  0  0  0  0  0  0  0  0
   51.8325    6.1452   20.2909 C   0  0  0  0  0  0  0  0  0  0  0  0
   46.4431   11.7806   19.7649 C   0  0  0  0  0  0  0  0  0  0  0  0
   48.3981    5.3112   22.4816 C   0  0  0  0  0  0  0  0  0  0  0  0
   48.8813    5.8309   23.6741 C   0  0  0  0  0  0  0  0  0  0  0  0
   46.8702   12.5016   20.8729 C   0  0  0  0  0  0  0  0  0  0  0  0
   48.2068    8.6764   20.8827 N   0  0  0  0  0  0  0  0  0  0  0  0
   48.8188    9.4246   23.9006 S   0  0  0  0  0  0  0  0  0  0  0  0
   47.9042    7.6917   21.8823 C   0  0  0  0  0  0  0  0  0  0  0  0
   48.7391    9.9768   21.1376 C   0  0  0  0  0  0  0  0  0  0  0  0
   48.1323    7.9272   23.2531 C   0  0  0  0  0  0  0  0  0  0  0  0
   49.0446   10.4110   22.4454 C   0  0  0  0  0  0  0  0  0  0  0  0
   47.8908    8.3009   19.4798 C   0  0  0  0  0  0  0  0  0  0  0  0
   48.9672    7.3753   18.8521 C   0  0  2  0  0  0  0  0  0  0  0  0
   50.2005    8.1722   18.3738 C   0  0  0  0  0  0  0  0  0  0  0  0
   51.2649    7.2980   17.8435 N   0  0  0  0  0  0  0  0  0  0  0  0
   49.0068   10.9143   20.1121 C   0  0  0  0  0  0  0  0  0  0  0  0
   47.3571    6.4234   21.5649 C   0  0  0  0  0  0  0  0  0  0  0  0
   49.5715   11.6972   22.6925 C   0  0  0  0  0  0  0  0  0  0  0  0
   47.8266    6.9493   24.2247 C   0  0  0  0  0  0  0  0  0  0  0  0
   48.3430    6.6043   17.6826 C   0  0  0  0  0  0  0  0  0  0  0  0
   52.1050    8.0242   16.8837 C   0  0  0  0  0  0  0  0  0  0  0  0
   52.0982    6.7749   18.9342 C   0  0  0  0  0  0  0  0  0  0  0  0
   47.0543    5.4569   22.5317 C   0  0  0  0  0  0  0  0  0  0  0  0
   49.5367   12.1891   20.3598 C   0  0  0  0  0  0  0  0  0  0  0  0
   49.8202   12.5823   21.6541 C   0  0  0  0  0  0  0  0  0  0  0  0
   47.2897    5.7199   23.8673 C   0  0  0  0  0  0  0  0  0  0  0  0
   47.0359    8.9061   21.6426 O   0  0  0  0  0  0  0  0  0  0  0  0
   48.8289    8.7088   22.9658 O   0  0  0  0  0  0  0  0  0  0  0  0
   51.1095    7.4895   18.2402 O   0  0  0  0  0  0  0  0  0  0  0  0
   52.1370    8.4129   19.9975 O   0  0  0  0  0  0  0  0  0  0  0  0
   48.3502    9.3524   19.4339 O   0  0  0  0  0  0  0  0  0  0  0  0
   48.9521    6.7455   19.5564 O   0  0  0  0  0  0  0  0  0  0  0  0
   48.3741    8.8531   21.8445 C   0  0  0  0  0  0  0  0  0  0  0  0
   49.1643    8.9625   20.5463 C   0  0  1  0  0  0  0  0  0  0  0  0
   49.8349    7.6176   20.2707 C   0  0  2  0  0  0  0  0  0  0  0  0
   51.1424    7.8801   19.5334 C   0  0  0  0  0  0  0  0  0  0  0  0
   47.6467    8.1969   18.3511 H   0  0  0  0  0  0  0  0  0  0  0  0
   48.6050    6.9217   19.0102 H   0  0  0  0  0  0  0  0  0  0  0  0
   49.6550    9.8000   18.9218 H   0  0  0  0  0  0  0  0  0  0  0  0
   51.8511    8.8626   19.1044 H   0  0  0  0  0  0  0  0  0  0  0  0
   50.8563    8.3604   20.4329 H   0  0  0  0  0  0  0  0  0  0  0  0
   47.6910    5.7247   20.5145 H   0  0  0  0  0  0  0  0  0  0  0  0
   46.4249    9.8983   18.7611 H   0  0  0  0  0  0  0  0  0  0  0  0
   49.4300    7.6064   24.7421 H   0  0  0  0  0  0  0  0  0  0  0  0
   47.9684   12.4451   22.7114 H   0  0  0  0  0  0  0  0  0  0  0  0
   49.0121    9.2463   16.6679 H   0  0  0  0  0  0  0  0  0  0  0  0
   50.7772    9.1953   16.7941 H   0  0  0  0  0  0  0  0  0  0  0  0
   49.8280    7.6800   16.7348 H   0  0  0  0  0  0  0  0  0  0  0  0
   52.0192    7.1120   17.0848 H   0  0  0  0  0  0  0  0  0  0  0  0
   52.5498    5.6185   17.8195 H   0  0  0  0  0  0  0  0  0  0  0  0
   53.2965    7.1513   18.3142 H   0  0  0  0  0  0  0  0  0  0  0  0
   52.0601    5.0905   20.0938 H   0  0  0  0  0  0  0  0  0  0  0  0
   52.7343    6.6296   20.6792 H   0  0  0  0  0  0  0  0  0  0  0  0
   51.0753    6.1559   21.0797 H   0  0  0  0  0  0  0  0  0  0  0  0
   45.8113   12.2555   19.0170 H   0  0  0  0  0  0  0  0  0  0  0  0
   48.2377    4.2404   22.3768 H   0  0  0  0  0  0  0  0  0  0  0  0
   49.1094    5.1708   24.5072 H   0  0  0  0  0  0  0  0  0  0  0  0
   46.5868   13.5444   20.9912 H   0  0  0  0  0  0  0  0  0  0  0  0
   47.7076    9.1592   18.8270 H   0  0  0  0  0  0  0  0  0  0  0  0
   46.9014    7.8236   19.4516 H   0  0  0  0  0  0  0  0  0  0  0  0
   49.2852    6.6374   19.5941 H   0  0  0  0  0  0  0  0  0  0  0  0
   50.6011    8.8021   19.1740 H   0  0  0  0  0  0  0  0  0  0  0  0
   49.8583    8.8511   17.5830 H   0  0  0  0  0  0  0  0  0  0  0  0
   48.8354   10.6949   19.0652 H   0  0  0  0  0  0  0  0  0  0  0  0
   47.1460    6.1243   20.5449 H   0  0  0  0  0  0  0  0  0  0  0  0
   49.7987   12.0106   23.7098 H   0  0  0  0  0  0  0  0  0  0  0  0
   48.0071    7.1491   25.2794 H   0  0  0  0  0  0  0  0  0  0  0  0
   49.0460    5.8783   17.2583 H   0  0  0  0  0  0  0  0  0  0  0  0
   47.4560    6.0460   18.0031 H   0  0  0  0  0  0  0  0  0  0  0  0
   48.0386    7.2858   16.8784 H   0  0  0  0  0  0  0  0  0  0  0  0
   52.9085    7.3841   16.5039 H   0  0  0  0  0  0  0  0  0  0  0  0
   51.5098    8.3176   16.0107 H   0  0  0  0  0  0  0  0  0  0  0  0
   52.5523    8.9287   17.3176 H   0  0  0  0  0  0  0  0  0  0  0  0
   52.6428    7.5766   19.4525 H   0  0  0  0  0  0  0  0  0  0  0  0
   51.4965    6.2322   19.6720 H   0  0  0  0  0  0  0  0  0  0  0  0
   52.8313    6.0584   18.5467 H   0  0  0  0  0  0  0  0  0  0  0  0
   46.6418    4.4988   22.2278 H   0  0  0  0  0  0  0  0  0  0  0  0
   49.7233   12.8689   19.5320 H   0  0  0  0  0  0  0  0  0  0  0  0
   50.2321   13.5655   21.8569 H   0  0  0  0  0  0  0  0  0  0  0  0
   47.0582    4.9787   24.6264 H   0  0  0  0  0  0  0  0  0  0  0  0
   46.6548    8.8163   22.5417 H   0  0  0  0  0  0  0  0  0  0  0  0
   51.9975    7.7293   17.8957 H   0  0  0  0  0  0  0  0  0  0  0  0
   47.4666    8.9683   19.6210 H   0  0  0  0  0  0  0  0  0  0  0  0
   48.9824    7.0570   18.6288 H   0  0  0  0  0  0  0  0  0  0  0  0
   49.8969    9.7623   20.7008 H   0  0  0  0  0  0  0  0  0  0  0  0
   50.1086    7.0959   21.1939 H   0  0  0  0  0  0  0  0  0  0  0  0
 10  9  1  0
 11  4  2  0
 12  3  2  0
 13  6  2  0
 14  5  2  0
 15  8  1  0
 16 10  1  0
 17 10  1  0
 18 12  1  0
 19 11  1  0
 20 19  2  0
 21 18  2  0
  5  2  1  0
 13 20  1  0
 14 21  1  0
  2  6  1  0
  3  1  1  0
  4  1  1  0
  5  3  1  0
  6  4  1  0
  7  1  1  0
  8  7  1  0
  9  8  1  0
 31 30  1  0
 32 25  2  0
 33 24  2  0
 34 27  2  0
 35 26  2  0
 36 29  1  0
 37 31  1  0
 38 31  1  0
 39 33  1  0
 40 32  1  0
 41 40  2  0
 42 39  2  0
 26 23  1  0
 34 41  1  0
 35 42  1  0
 23 27  1  0
 24 22  1  0
 25 22  1  0
 26 24  1  0
 27 25  1  0
 28 22  1  0
 29 28  1  0
 30 29  1  0
 49 44  2  0
 50 47  1  0
 51 48  1  0
 49 43  1  0
 51 52  1  0
 50 51  1  0
 52 45  1  0
 49 50  1  0
 52 46  2  0
  7 53  1  0
  7 54  1  0
  8 55  1  1
  9 56  1  0
  9 57  1  0
 11 58  1  0
 12 59  1  0
 13 60  1  0
 14 61  1  0
 15 62  1  0
 15 63  1  0
 15 64  1  0
 16 65  1  0
 16 66  1  0
 16 67  1  0
 17 68  1  0
 17 69  1  0
 17 70  1  0
 18 71  1  0
 19 72  1  0
 20 73  1  0
 21 74  1  0
 28 75  1  0
 28 76  1  0
 29 77  1  1
 30 78  1  0
 30 79  1  0
 32 80  1  0
 33 81  1  0
 34 82  1  0
 35 83  1  0
 36 84  1  0
 36 85  1  0
 36 86  1  0
 37 87  1  0
 37 88  1  0
 37 89  1  0
 38 90  1  0
 38 91  1  0
 38 92  1  0
 39 93  1  0
 40 94  1  0
 41 95  1  0
 42 96  1  0
 43 97  1  0
 45 98  1  0
 47 99  1  0
 48100  1  0
 50101  1  1
 51102  1  1
M  END
> <Uni-Dock RESULT> 
ENERGY=   -5.065  LOWER_BOUND=    1.940  UPPER_BOUND=    5.140
INTER + INTRA:          -5.065
INTER:                  -5.065
INTRA:                   0.000
UNBOUND:                 0.000

$$$$

     RDKit          3D

102105  0  0  0  0  0  0  0  0999 V2000
   49.3832    5.7833   21.1476 N   0  0  0  0  0  0  0  0  0  0  0  0
   48.1602    7.7494   19.0586 S   0  0  0  0  0  0  0  0  0  0  0  0
   48.8065    5.1886   19.9951 C   0  0  0  0  0  0  0  0  0  0  0  0
   49.0322    7.0695   21.6298 C   0  0  0  0  0  0  0  0  0  0  0  0
   48.2001    5.9689   18.9884 C   0  0  0  0  0  0  0  0  0  0  0  0
   48.4404    8.0359   20.7951 C   0  0  0  0  0  0  0  0  0  0  0  0
   50.7138    5.2604   21.5644 C   0  0  0  0  0  0  0  0  0  0  0  0
   51.8109    5.4512   20.4864 C   0  0  1  0  0  0  0  0  0  0  0  0
   52.3270    6.9065   20.3895 C   0  0  0  0  0  0  0  0  0  0  0  0
   52.9864    7.4160   21.6087 N   0  0  0  0  0  0  0  0  0  0  0  0
   49.1948    7.4013   22.9889 C   0  0  0  0  0  0  0  0  0  0  0  0
   48.7761    3.7885   19.8428 C   0  0  0  0  0  0  0  0  0  0  0  0
   48.0839    9.2970   21.3030 C   0  0  0  0  0  0  0  0  0  0  0  0
   47.6320    5.3552   17.8589 C   0  0  0  0  0  0  0  0  0  0  0  0
   52.9365    4.4395   20.7218 C   0  0  0  0  0  0  0  0  0  0  0  0
   54.4468    7.3147   21.5201 C   0  0  0  0  0  0  0  0  0  0  0  0
   52.6299    8.8212   21.8280 C   0  0  0  0  0  0  0  0  0  0  0  0
   48.1948    3.1845   18.7237 C   0  0  0  0  0  0  0  0  0  0  0  0
   48.8243    8.6525   23.4946 C   0  0  0  0  0  0  0  0  0  0  0  0
   48.2747    9.6048   22.6479 C   0  0  0  0  0  0  0  0  0  0  0  0
   47.6291    3.9696   17.7268 C   0  0  0  0  0  0  0  0  0  0  0  0
   49.2137    6.1662   20.7407 N   0  0  0  0  0  0  0  0  0  0  0  0
   47.4801    8.4196   19.3414 S   0  0  0  0  0  0  0  0  0  0  0  0
   48.4824    7.0614   21.5915 C   0  0  0  0  0  0  0  0  0  0  0  0
   49.2059    6.1913   19.3128 C   0  0  0  0  0  0  0  0  0  0  0  0
   47.6765    8.0934   21.0698 C   0  0  0  0  0  0  0  0  0  0  0  0
   48.4653    7.1517   18.5909 C   0  0  0  0  0  0  0  0  0  0  0  0
   50.0017    5.1100   21.4281 C   0  0  0  0  0  0  0  0  0  0  0  0
   51.3514    5.6378   21.9838 C   0  0  2  0  0  0  0  0  0  0  0  0
   52.4264    5.7381   20.8795 C   0  0  0  0  0  0  0  0  0  0  0  0
   53.6930    6.3098   21.3767 N   0  0  0  0  0  0  0  0  0  0  0  0
   49.9377    5.2739   18.5221 C   0  0  0  0  0  0  0  0  0  0  0  0
   48.5166    6.9710   23.0055 C   0  0  0  0  0  0  0  0  0  0  0  0
   48.4613    7.1731   17.1793 C   0  0  0  0  0  0  0  0  0  0  0  0
   46.9608    8.9643   21.9202 C   0  0  0  0  0  0  0  0  0  0  0  0
   51.8262    4.7098   23.1086 C   0  0  0  0  0  0  0  0  0  0  0  0
   54.8249    5.8571   20.5594 C   0  0  0  0  0  0  0  0  0  0  0  0
   53.6361    7.7776   21.3738 C   0  0  0  0  0  0  0  0  0  0  0  0
   47.8043    7.8360   23.8451 C   0  0  0  0  0  0  0  0  0  0  0  0
   49.9374    5.3016   17.1198 C   0  0  0  0  0  0  0  0  0  0  0  0
   49.1969    6.2544   16.4458 C   0  0  0  0  0  0  0  0  0  0  0  0
   47.0230    8.8371   23.3012 C   0  0  0  0  0  0  0  0  0  0  0  0
   47.8220    5.9305   20.8357 O   0  0  0  0  0  0  0  0  0  0  0  0
   48.2403    8.0169   20.1452 O   0  0  0  0  0  0  0  0  0  0  0  0
   53.2808    6.4319   21.1938 O   0  0  0  0  0  0  0  0  0  0  0  0
   52.6707    7.9653   19.6863 O   0  0  0  0  0  0  0  0  0  0  0  0
   50.1872    4.9669   20.3038 O   0  0  0  0  0  0  0  0  0  0  0  0
   50.9673    6.3631   22.4521 O   0  0  0  0  0  0  0  0  0  0  0  0
   48.6515    6.8903   20.3614 C   0  0  0  0  0  0  0  0  0  0  0  0
   50.0797    6.3902   20.1824 C   0  0  1  0  0  0  0  0  0  0  0  0
   50.9698    7.0819   21.2138 C   0  0  2  0  0  0  0  0  0  0  0  0
   52.3622    7.2356   20.6140 C   0  0  0  0  0  0  0  0  0  0  0  0
   50.6100    4.1940   21.7959 H   0  0  0  0  0  0  0  0  0  0  0  0
   51.0602    5.7011   22.5064 H   0  0  0  0  0  0  0  0  0  0  0  0
   51.3941    5.2128   19.4989 H   0  0  0  0  0  0  0  0  0  0  0  0
   52.9974    6.9915   19.5238 H   0  0  0  0  0  0  0  0  0  0  0  0
   51.4674    7.5348   20.1328 H   0  0  0  0  0  0  0  0  0  0  0  0
   49.5841    6.6717   23.6939 H   0  0  0  0  0  0  0  0  0  0  0  0
   49.1752    3.1407   20.6179 H   0  0  0  0  0  0  0  0  0  0  0  0
   47.6482   10.0490   20.6469 H   0  0  0  0  0  0  0  0  0  0  0  0
   47.1771    5.9605   17.0782 H   0  0  0  0  0  0  0  0  0  0  0  0
   52.5551    3.4174   20.6074 H   0  0  0  0  0  0  0  0  0  0  0  0
   53.7411    4.5761   19.9872 H   0  0  0  0  0  0  0  0  0  0  0  0
   53.3535    4.5216   21.7328 H   0  0  0  0  0  0  0  0  0  0  0  0
   54.7784    6.2827   21.3940 H   0  0  0  0  0  0  0  0  0  0  0  0
   54.9074    7.6692   22.4489 H   0  0  0  0  0  0  0  0  0  0  0  0
   54.8518    7.9089   20.6907 H   0  0  0  0  0  0  0  0  0  0  0  0
   53.1016    9.1999   22.7430 H   0  0  0  0  0  0  0  0  0  0  0  0
   52.9315    9.4592   20.9909 H   0  0  0  0  0  0  0  0  0  0  0  0
   51.5511    8.9322   21.9676 H   0  0  0  0  0  0  0  0  0  0  0  0
   48.1713    2.0998   18.6413 H   0  0  0  0  0  0  0  0  0  0  0  0
   48.9582    8.8724   24.5514 H   0  0  0  0  0  0  0  0  0  0  0  0
   47.9822   10.5780   23.0341 H   0  0  0  0  0  0  0  0  0  0  0  0
   47.1730    3.5056   16.8560 H   0  0  0  0  0  0  0  0  0  0  0  0
   50.1711    4.2203   20.8146 H   0  0  0  0  0  0  0  0  0  0  0  0
   49.3919    4.6753   22.2323 H   0  0  0  0  0  0  0  0  0  0  0  0
   51.1981    6.6276   22.4230 H   0  0  0  0  0  0  0  0  0  0  0  0
   52.0657    6.3200   20.0258 H   0  0  0  0  0  0  0  0  0  0  0  0
   52.6054    4.7204   20.5111 H   0  0  0  0  0  0  0  0  0  0  0  0
   50.5618    4.5018   18.9558 H   0  0  0  0  0  0  0  0  0  0  0  0
   49.1072    6.2237   23.5223 H   0  0  0  0  0  0  0  0  0  0  0  0
   47.8816    7.9228   16.6439 H   0  0  0  0  0  0  0  0  0  0  0  0
   46.3412    9.7544   21.4999 H   0  0  0  0  0  0  0  0  0  0  0  0
   52.7376    5.0885   23.5851 H   0  0  0  0  0  0  0  0  0  0  0  0
   51.0665    4.6154   23.8930 H   0  0  0  0  0  0  0  0  0  0  0  0
   52.0408    3.7040   22.7261 H   0  0  0  0  0  0  0  0  0  0  0  0
   55.7638    6.2961   20.9132 H   0  0  0  0  0  0  0  0  0  0  0  0
   54.9425    4.7706   20.6502 H   0  0  0  0  0  0  0  0  0  0  0  0
   54.7005    6.1041   19.4963 H   0  0  0  0  0  0  0  0  0  0  0  0
   53.5412    8.1806   20.3558 H   0  0  0  0  0  0  0  0  0  0  0  0
   52.7950    8.1463   21.9718 H   0  0  0  0  0  0  0  0  0  0  0  0
   54.5425    8.1972   21.8247 H   0  0  0  0  0  0  0  0  0  0  0  0
   47.8743    7.7223   24.9234 H   0  0  0  0  0  0  0  0  0  0  0  0
   50.5198    4.5717   16.5629 H   0  0  0  0  0  0  0  0  0  0  0  0
   49.1910    6.2861   15.3611 H   0  0  0  0  0  0  0  0  0  0  0  0
   46.4653    9.5136   23.9420 H   0  0  0  0  0  0  0  0  0  0  0  0
   46.9542    6.3808   20.9117 H   0  0  0  0  0  0  0  0  0  0  0  0
   54.1103    6.6257   20.7047 H   0  0  0  0  0  0  0  0  0  0  0  0
   49.4916    4.7155   20.9490 H   0  0  0  0  0  0  0  0  0  0  0  0
   51.5667    5.6030   22.3061 H   0  0  0  0  0  0  0  0  0  0  0  0
   50.3664    6.6450   19.1562 H   0  0  0  0  0  0  0  0  0  0  0  0
   50.6259    8.0964   21.4417 H   0  0  0  0  0  0  0  0  0  0  0  0
 10  9  1  0
 11  4  2  0
 12  3  2  0
 13  6  2  0
 14  5  2  0
 15  8  1  0
 16 10  1  0
 17 10  1  0
 18 12  1  0
 19 11  1  0
 20 19  2  0
 21 18  2  0
  5  2  1  0
 13 20  1  0
 14 21  1  0
  2  6  1  0
  3  1  1  0
  4  1  1  0
  5  3  1  0
  6  4  1  0
  7  1  1  0
  8  7  1  0
  9  8  1  0
 31 30  1  0
 32 25  2  0
 33 24  2  0
 34 27  2  0
 35 26  2  0
 36 29  1  0
 37 31  1  0
 38 31  1  0
 39 33  1  0
 40 32  1  0
 41 40  2  0
 42 39  2  0
 26 23  1  0
 34 41  1  0
 35 42  1  0
 23 27  1  0
 24 22  1  0
 25 22  1  0
 26 24  1  0
 27 25  1  0
 28 22  1  0
 29 28  1  0
 30 29  1  0
 49 44  2  0
 50 47  1  0
 51 48  1  0
 49 43  1  0
 51 52  1  0
 50 51  1  0
 52 45  1  0
 49 50  1  0
 52 46  2  0
  7 53  1  0
  7 54  1  0
  8 55  1  1
  9 56  1  0
  9 57  1  0
 11 58  1  0
 12 59  1  0
 13 60  1  0
 14 61  1  0
 15 62  1  0
 15 63  1  0
 15 64  1  0
 16 65  1  0
 16 66  1  0
 16 67  1  0
 17 68  1  0
 17 69  1  0
 17 70  1  0
 18 71  1  0
 19 72  1  0
 20 73  1  0
 21 74  1  0
 28 75  1  0
 28 76  1  0
 29 77  1  1
 30 78  1  0
 30 79  1  0
 32 80  1  0
 33 81  1  0
 34 82  1  0
 35 83  1  0
 36 84  1  0
 36 85  1  0
 36 86  1  0
 37 87  1  0
 37 88  1  0
 37 89  1  0
 38 90  1  0
 38 91  1  0
 38 92  1  0
 39 93  1  0
 40 94  1  0
 41 95  1  0
 42 96  1  0
 43 97  1  0
 45 98  1  0
 47 99  1  0
 48100  1  0
 50101  1  1
 51102  1  1
M  END
> <Uni-Dock RESULT> 
ENERGY=   -5.013  LOWER_BOUND=    2.071  UPPER_BOUND=    3.154
INTER + INTRA:          -5.013
INTER:                  -5.013
INTRA:                   0.000
UNBOUND:                 0.000

$$$$

     RDKit          3D

102105  0  0  0  0  0  0  0  0999 V2000
   43.2165   11.6852    9.4615 N   0  0  0  0  0  0  0  0  0  0  0  0
   41.1880   13.6406    8.1248 S   0  0  0  0  0  0  0  0  0  0  0  0
   43.3634   11.8753    8.0626 C   0  0  0  0  0  0  0  0  0  0  0  0
   42.0048   11.9057   10.1635 C   0  0  0  0  0  0  0  0  0  0  0  0
   42.4933   12.7166    7.3379 C   0  0  0  0  0  0  0  0  0  0  0  0
   40.9938   12.7394    9.6500 C   0  0  0  0  0  0  0  0  0  0  0  0
   44.4671   11.7310   10.2686 C   0  0  0  0  0  0  0  0  0  0  0  0
   45.2052   13.0907   10.1762 C   0  0  1  0  0  0  0  0  0  0  0  0
   44.5348   14.2088   11.0093 C   0  0  0  0  0  0  0  0  0  0  0  0
   44.4989   13.9643   12.4652 N   0  0  0  0  0  0  0  0  0  0  0  0
   41.7367   11.2337   11.3720 C   0  0  0  0  0  0  0  0  0  0  0  0
   44.3572   11.1863    7.3401 C   0  0  0  0  0  0  0  0  0  0  0  0
   39.7934   12.9257   10.3568 C   0  0  0  0  0  0  0  0  0  0  0  0
   42.6572   12.8843    5.9522 C   0  0  0  0  0  0  0  0  0  0  0  0
   46.6817   12.8931   10.5322 C   0  0  0  0  0  0  0  0  0  0  0  0
   45.5922   14.6524   13.1596 C   0  0  0  0  0  0  0  0  0  0  0  0
   43.2263   14.4289   13.0259 C   0  0  0  0  0  0  0  0  0  0  0  0
   44.5040   11.3461    5.9588 C   0  0  0  0  0  0  0  0  0  0  0  0
   40.5338   11.4094   12.0654 C   0  0  0  0  0  0  0  0  0  0  0  0
   39.5635   12.2632   11.5603 C   0  0  0  0  0  0  0  0  0  0  0  0
   43.6578   12.2024    5.2655 C   0  0  0  0  0  0  0  0  0  0  0  0
   42.8691   12.0982    9.2387 N   0  0  0  0  0  0  0  0  0  0  0  0
   40.2088   13.5011    8.2405 S   0  0  0  0  0  0  0  0  0  0  0  0
   41.6337   11.6701    9.8310 C   0  0  0  0  0  0  0  0  0  0  0  0
   42.9971   13.0885    8.2178 C   0  0  0  0  0  0  0  0  0  0  0  0
   40.3946   12.2252    9.4529 C   0  0  0  0  0  0  0  0  0  0  0  0
   41.8754   13.7718    7.7010 C   0  0  0  0  0  0  0  0  0  0  0  0
   44.0956   11.4075    9.7158 C   0  0  0  0  0  0  0  0  0  0  0  0
   44.5951   11.9517   11.0810 C   0  0  2  0  0  0  0  0  0  0  0  0
   45.3852   13.2688   10.9188 C   0  0  0  0  0  0  0  0  0  0  0  0
   45.8021   13.8387   12.2148 N   0  0  0  0  0  0  0  0  0  0  0  0
   44.2422   13.4633    7.6597 C   0  0  0  0  0  0  0  0  0  0  0  0
   41.5720   10.6653   10.8286 C   0  0  0  0  0  0  0  0  0  0  0  0
   42.0069   14.7507    6.6924 C   0  0  0  0  0  0  0  0  0  0  0  0
   39.1873   11.7912   10.0430 C   0  0  0  0  0  0  0  0  0  0  0  0
   45.4669   10.8855   11.7555 C   0  0  0  0  0  0  0  0  0  0  0  0
   46.9958   14.6776   12.0550 C   0  0  0  0  0  0  0  0  0  0  0  0
   44.7159   14.6309   12.8066 C   0  0  0  0  0  0  0  0  0  0  0  0
   40.3727   10.2370   11.4103 C   0  0  0  0  0  0  0  0  0  0  0  0
   44.3708   14.4410    6.6624 C   0  0  0  0  0  0  0  0  0  0  0  0
   43.2496   15.0873    6.1769 C   0  0  0  0  0  0  0  0  0  0  0  0
   39.1749   10.8016   11.0167 C   0  0  0  0  0  0  0  0  0  0  0  0
   42.0631   11.2503    8.4433 O   0  0  0  0  0  0  0  0  0  0  0  0
   40.9376   13.0812    9.0644 O   0  0  0  0  0  0  0  0  0  0  0  0
   45.4489   13.8392   11.9091 O   0  0  0  0  0  0  0  0  0  0  0  0
   44.0920   15.4416   11.1428 O   0  0  0  0  0  0  0  0  0  0  0  0
   44.4453   12.1864    8.9477 O   0  0  0  0  0  0  0  0  0  0  0  0
   43.7621   11.8541   11.5160 O   0  0  0  0  0  0  0  0  0  0  0  0
   42.0032   12.4983    8.9659 C   0  0  0  0  0  0  0  0  0  0  0  0
   43.3683   13.0115    9.4076 C   0  0  1  0  0  0  0  0  0  0  0  0
   43.3821   13.1053   10.9325 C   0  0  2  0  0  0  0  0  0  0  0  0
   44.3006   14.2543   11.3303 C   0  0  0  0  0  0  0  0  0  0  0  0
   45.1314   10.9301    9.9241 H   0  0  0  0  0  0  0  0  0  0  0  0
   44.2929   11.4919   11.3241 H   0  0  0  0  0  0  0  0  0  0  0  0
   45.1912   13.4407    9.1355 H   0  0  0  0  0  0  0  0  0  0  0  0
   45.0303   15.1641   10.7904 H   0  0  0  0  0  0  0  0  0  0  0  0
   43.5183   14.3322   10.6206 H   0  0  0  0  0  0  0  0  0  0  0  0
   42.4521   10.5261   11.7821 H   0  0  0  0  0  0  0  0  0  0  0  0
   45.0137   10.4807    7.8409 H   0  0  0  0  0  0  0  0  0  0  0  0
   39.0246   13.5905    9.9659 H   0  0  0  0  0  0  0  0  0  0  0  0
   41.9930   13.5441    5.3987 H   0  0  0  0  0  0  0  0  0  0  0  0
   47.1588   12.2242    9.8054 H   0  0  0  0  0  0  0  0  0  0  0  0
   47.2194   13.8500   10.5032 H   0  0  0  0  0  0  0  0  0  0  0  0
   46.8048   12.4401   11.5234 H   0  0  0  0  0  0  0  0  0  0  0  0
   46.5715   14.3199   12.8112 H   0  0  0  0  0  0  0  0  0  0  0  0
   45.5600   14.4278   14.2314 H   0  0  0  0  0  0  0  0  0  0  0  0
   45.5368   15.7420   13.0380 H   0  0  0  0  0  0  0  0  0  0  0  0
   43.1859   14.2325   14.1042 H   0  0  0  0  0  0  0  0  0  0  0  0
   43.0688   15.4997   12.8607 H   0  0  0  0  0  0  0  0  0  0  0  0
   42.3850   13.8898   12.5817 H   0  0  0  0  0  0  0  0  0  0  0  0
   45.2704   10.7880    5.4247 H   0  0  0  0  0  0  0  0  0  0  0  0
   40.3578   10.8692   12.9929 H   0  0  0  0  0  0  0  0  0  0  0  0
   38.6257   12.4029   12.0921 H   0  0  0  0  0  0  0  0  0  0  0  0
   43.7650   12.3284    4.1912 H   0  0  0  0  0  0  0  0  0  0  0  0
   44.9126   11.4127    8.9885 H   0  0  0  0  0  0  0  0  0  0  0  0
   43.8981   10.3281    9.7749 H   0  0  0  0  0  0  0  0  0  0  0  0
   43.7362   12.1293   11.7344 H   0  0  0  0  0  0  0  0  0  0  0  0
   44.8107   14.0097   10.3544 H   0  0  0  0  0  0  0  0  0  0  0  0
   46.2743   13.0390   10.3186 H   0  0  0  0  0  0  0  0  0  0  0  0
   45.1793   13.0281    7.9853 H   0  0  0  0  0  0  0  0  0  0  0  0
   42.4595   10.1711   11.2062 H   0  0  0  0  0  0  0  0  0  0  0  0
   41.1272   15.2641    6.3084 H   0  0  0  0  0  0  0  0  0  0  0  0
   38.2390   12.2293    9.7372 H   0  0  0  0  0  0  0  0  0  0  0  0
   45.7776   11.1959   12.7596 H   0  0  0  0  0  0  0  0  0  0  0  0
   44.9249    9.9390   11.8630 H   0  0  0  0  0  0  0  0  0  0  0  0
   46.3735   10.6888   11.1697 H   0  0  0  0  0  0  0  0  0  0  0  0
   47.2955   15.1187   13.0116 H   0  0  0  0  0  0  0  0  0  0  0  0
   47.8427   14.0656   11.7221 H   0  0  0  0  0  0  0  0  0  0  0  0
   46.8460   15.4864   11.3271 H   0  0  0  0  0  0  0  0  0  0  0  0
   44.4706   15.5095   12.1937 H   0  0  0  0  0  0  0  0  0  0  0  0
   43.8069   14.0318   12.9325 H   0  0  0  0  0  0  0  0  0  0  0  0
   44.9967   14.9793   13.8070 H   0  0  0  0  0  0  0  0  0  0  0  0
   40.3879    9.4664   12.1761 H   0  0  0  0  0  0  0  0  0  0  0  0
   45.3539   14.6897    6.2703 H   0  0  0  0  0  0  0  0  0  0  0  0
   43.3378   15.8466    5.4068 H   0  0  0  0  0  0  0  0  0  0  0  0
   38.2381   10.4772   11.4598 H   0  0  0  0  0  0  0  0  0  0  0  0
   41.1327   11.0425    8.2136 H   0  0  0  0  0  0  0  0  0  0  0  0
   45.9370   14.6710   12.0948 H   0  0  0  0  0  0  0  0  0  0  0  0
   44.0744   11.2780    8.9233 H   0  0  0  0  0  0  0  0  0  0  0  0
   44.7350   11.8119   11.4161 H   0  0  0  0  0  0  0  0  0  0  0  0
   43.4939   13.9919    8.9350 H   0  0  0  0  0  0  0  0  0  0  0  0
   42.3960   13.3524   11.3399 H   0  0  0  0  0  0  0  0  0  0  0  0
 10  9  1  0
 11  4  2  0
 12  3  2  0
 13  6  2  0
 14  5  2  0
 15  8  1  0
 16 10  1  0
 17 10  1  0
 18 12  1  0
 19 11  1  0
 20 19  2  0
 21 18  2  0
  5  2  1  0
 13 20  1  0
 14 21  1  0
  2  6  1  0
  3  1  1  0
  4  1  1  0
  5  3  1  0
  6  4  1  0
  7  1  1  0
  8  7  1  0
  9  8  1  0
 31 30  1  0
 32 25  2  0
 33 24  2  0
 34 27  2  0
 35 26  2  0
 36 29  1  0
 37 31  1  0
 38 31  1  0
 39 33  1  0
 40 32  1  0
 41 40  2  0
 42 39  2  0
 26 23  1  0
 34 41  1  0
 35 42  1  0
 23 27  1  0
 24 22  1  0
 25 22  1  0
 26 24  1  0
 27 25  1  0
 28 22  1  0
 29 28  1  0
 30 29  1  0
 49 44  2  0
 50 47  1  0
 51 48  1  0
 49 43  1  0
 51 52  1  0
 50 51  1  0
 52 45  1  0
 49 50  1  0
 52 46  2  0
  7 53  1  0
  7 54  1  0
  8 55  1  1
  9 56  1  0
  9 57  1  0
 11 58  1  0
 12 59  1  0
 13 60  1  0
 14 61  1  0
 15 62  1  0
 15 63  1  0
 15 64  1  0
 16 65  1  0
 16 66  1  0
 16 67  1  0
 17 68  1  0
 17 69  1  0
 17 70  1  0
 18 71  1  0
 19 72  1  0
 20 73  1  0
 21 74  1  0
 28 75  1  0
 28 76  1  0
 29 77  1  1
 30 78  1  0
 30 79  1  0
 32 80  1  0
 33 81  1  0
 34 82  1  0
 35 83  1  0
 36 84  1  0
 36 85  1  0
 36 86  1  0
 37 87  1  0
 37 88  1  0
 37 89  1  0
 38 90  1  0
 38 91  1  0
 38 92  1  0
 39 93  1  0
 40 94  1  0
 41 95  1  0
 42 96  1  0
 43 97  1  0
 45 98  1  0
 47 99  1  0
 48100  1  0
 50101  1  1
 51102  1  1
M  END
> <Uni-Dock RESULT> 
ENERGY=   -4.967  LOWER_BOUND=   10.492  UPPER_BOUND=   13.116
INTER + INTRA:          -4.967
INTER:                  -4.967
INTRA:                   0.000
UNBOUND:                 0.000

$$$$

     RDKit          3D

102105  0  0  0  0  0  0  0  0999 V2000
   50.3950    6.4895   16.7881 N   0  0  0  0  0  0  0  0  0  0  0  0
   50.8432    5.1086   19.5481 S   0  0  0  0  0  0  0  0  0  0  0  0
   49.4469    5.4972   17.1498 C   0  0  0  0  0  0  0  0  0  0  0  0
   51.7115    6.5490   17.3109 C   0  0  0  0  0  0  0  0  0  0  0  0
   49.5530    4.7837   18.3622 C   0  0  0  0  0  0  0  0  0  0  0  0
   52.0509    5.9354   18.5312 C   0  0  0  0  0  0  0  0  0  0  0  0
   49.8447    7.7575   16.2343 C   0  0  0  0  0  0  0  0  0  0  0  0
   48.9165    8.5055   17.2249 C   0  0  1  0  0  0  0  0  0  0  0  0
   49.6858    9.2397   18.3487 C   0  0  0  0  0  0  0  0  0  0  0  0
   50.5892   10.3126   17.8868 N   0  0  0  0  0  0  0  0  0  0  0  0
   52.7505    7.1636   16.5853 C   0  0  0  0  0  0  0  0  0  0  0  0
   48.3916    5.1553   16.2815 C   0  0  0  0  0  0  0  0  0  0  0  0
   53.3682    5.9924   19.0178 C   0  0  0  0  0  0  0  0  0  0  0  0
   48.6033    3.8026   18.6950 C   0  0  0  0  0  0  0  0  0  0  0  0
   47.9823    9.4346   16.4438 C   0  0  0  0  0  0  0  0  0  0  0  0
   49.9647   11.6349   17.9975 C   0  0  0  0  0  0  0  0  0  0  0  0
   51.8226   10.3128   18.6796 C   0  0  0  0  0  0  0  0  0  0  0  0
   47.4598    4.1668   16.6126 C   0  0  0  0  0  0  0  0  0  0  0  0
   54.0644    7.2050   17.0654 C   0  0  0  0  0  0  0  0  0  0  0  0
   54.3719    6.6248   18.2879 C   0  0  0  0  0  0  0  0  0  0  0  0
   47.5615    3.4953   17.8245 C   0  0  0  0  0  0  0  0  0  0  0  0
   50.4588    6.2848   17.3312 N   0  0  0  0  0  0  0  0  0  0  0  0
   51.7188    4.6832   19.7579 S   0  0  0  0  0  0  0  0  0  0  0  0
   51.8691    6.0213   17.2881 C   0  0  0  0  0  0  0  0  0  0  0  0
   49.5702    5.8635   18.3667 C   0  0  0  0  0  0  0  0  0  0  0  0
   52.5259    5.3115   18.3135 C   0  0  0  0  0  0  0  0  0  0  0  0
   50.0279    5.1424   19.4904 C   0  0  0  0  0  0  0  0  0  0  0  0
   49.8967    7.0218   16.1693 C   0  0  0  0  0  0  0  0  0  0  0  0
   50.1552    8.5502   16.2493 C   0  0  2  0  0  0  0  0  0  0  0  0
   49.1552    9.2522   17.1939 C   0  0  0  0  0  0  0  0  0  0  0  0
   49.4352   10.6940   17.3395 N   0  0  0  0  0  0  0  0  0  0  0  0
   48.1827    6.1409   18.3515 C   0  0  0  0  0  0  0  0  0  0  0  0
   52.6946    6.4507   16.2192 C   0  0  0  0  0  0  0  0  0  0  0  0
   49.1459    4.7288   20.5121 C   0  0  0  0  0  0  0  0  0  0  0  0
   53.9138    5.0578   18.2551 C   0  0  0  0  0  0  0  0  0  0  0  0
   50.0669    9.1466   14.8393 C   0  0  0  0  0  0  0  0  0  0  0  0
   48.2158   11.4275   17.6990 C   0  0  0  0  0  0  0  0  0  0  0  0
   50.4683   10.9216   18.3585 C   0  0  0  0  0  0  0  0  0  0  0  0
   54.0703    6.1959   16.1646 C   0  0  0  0  0  0  0  0  0  0  0  0
   47.3097    5.7346   19.3713 C   0  0  0  0  0  0  0  0  0  0  0  0
   47.7925    5.0263   20.4555 C   0  0  0  0  0  0  0  0  0  0  0  0
   54.6834    5.4967   17.1863 C   0  0  0  0  0  0  0  0  0  0  0  0
   50.8309    4.9641   16.9868 O   0  0  0  0  0  0  0  0  0  0  0  0
   51.6924    5.5537   18.9655 O   0  0  0  0  0  0  0  0  0  0  0  0
   49.5438   10.2778   17.5216 O   0  0  0  0  0  0  0  0  0  0  0  0
   49.8536    9.5585   19.6151 O   0  0  0  0  0  0  0  0  0  0  0  0
   49.0190    6.8383   16.8869 O   0  0  0  0  0  0  0  0  0  0  0  0
   51.0860    8.4670   16.3890 O   0  0  0  0  0  0  0  0  0  0  0  0
   50.9102    5.7861   18.0604 C   0  0  0  0  0  0  0  0  0  0  0  0
   49.9632    6.9751   17.9554 C   0  0  1  0  0  0  0  0  0  0  0  0
   50.7945    8.2440   17.7730 C   0  0  2  0  0  0  0  0  0  0  0  0
   50.0443    9.4016   18.4204 C   0  0  0  0  0  0  0  0  0  0  0  0
   49.2895    7.5236   15.3186 H   0  0  0  0  0  0  0  0  0  0  0  0
   50.6308    8.4429   15.8970 H   0  0  0  0  0  0  0  0  0  0  0  0
   48.2653    7.7798   17.7298 H   0  0  0  0  0  0  0  0  0  0  0  0
   48.9650    9.6299   19.0796 H   0  0  0  0  0  0  0  0  0  0  0  0
   50.2503    8.4799   18.8997 H   0  0  0  0  0  0  0  0  0  0  0  0
   52.5615    7.5950   15.6060 H   0  0  0  0  0  0  0  0  0  0  0  0
   48.3005    5.6322   15.3099 H   0  0  0  0  0  0  0  0  0  0  0  0
   53.6196    5.5362   19.9740 H   0  0  0  0  0  0  0  0  0  0  0  0
   48.6805    3.2637   19.6365 H   0  0  0  0  0  0  0  0  0  0  0  0
   47.3325    8.8476   15.7832 H   0  0  0  0  0  0  0  0  0  0  0  0
   47.3350    9.9989   17.1280 H   0  0  0  0  0  0  0  0  0  0  0  0
   48.5404   10.1374   15.8134 H   0  0  0  0  0  0  0  0  0  0  0  0
   49.0572   11.7105   17.3960 H   0  0  0  0  0  0  0  0  0  0  0  0
   50.6438   12.4068   17.6188 H   0  0  0  0  0  0  0  0  0  0  0  0
   49.7098   11.8850   19.0356 H   0  0  0  0  0  0  0  0  0  0  0  0
   52.5060   11.0956   18.3284 H   0  0  0  0  0  0  0  0  0  0  0  0
   51.6285   10.4721   19.7452 H   0  0  0  0  0  0  0  0  0  0  0  0
   52.3562    9.3646   18.5700 H   0  0  0  0  0  0  0  0  0  0  0  0
   46.6648    3.9125   15.9145 H   0  0  0  0  0  0  0  0  0  0  0  0
   54.8433    7.6826   16.4753 H   0  0  0  0  0  0  0  0  0  0  0  0
   55.3908    6.6508   18.6661 H   0  0  0  0  0  0  0  0  0  0  0  0
   46.8419    2.7236   18.0860 H   0  0  0  0  0  0  0  0  0  0  0  0
   48.8330    6.8298   16.0014 H   0  0  0  0  0  0  0  0  0  0  0  0
   50.3157    6.6032   15.2437 H   0  0  0  0  0  0  0  0  0  0  0  0
   51.1719    8.7253   16.6125 H   0  0  0  0  0  0  0  0  0  0  0  0
   49.1376    8.7757   18.1788 H   0  0  0  0  0  0  0  0  0  0  0  0
   48.1556    9.1166   16.7629 H   0  0  0  0  0  0  0  0  0  0  0  0
   47.7116    6.7045   17.5552 H   0  0  0  0  0  0  0  0  0  0  0  0
   52.3050    7.0120   15.3780 H   0  0  0  0  0  0  0  0  0  0  0  0
   49.5216    4.1727   21.3691 H   0  0  0  0  0  0  0  0  0  0  0  0
   54.4044    4.5059   19.0548 H   0  0  0  0  0  0  0  0  0  0  0  0
   50.3213   10.2127   14.8366 H   0  0  0  0  0  0  0  0  0  0  0  0
   50.7599    8.6472   14.1526 H   0  0  0  0  0  0  0  0  0  0  0  0
   49.0544    9.0424   14.4295 H   0  0  0  0  0  0  0  0  0  0  0  0
   48.4245   12.4949   17.8281 H   0  0  0  0  0  0  0  0  0  0  0  0
   47.4817   11.3558   16.8875 H   0  0  0  0  0  0  0  0  0  0  0  0
   47.7527   11.0466   18.6193 H   0  0  0  0  0  0  0  0  0  0  0  0
   50.1317   10.6115   19.3577 H   0  0  0  0  0  0  0  0  0  0  0  0
   51.3908   10.3800   18.1205 H   0  0  0  0  0  0  0  0  0  0  0  0
   50.7364   11.9833   18.4022 H   0  0  0  0  0  0  0  0  0  0  0  0
   54.6540    6.5559   15.3219 H   0  0  0  0  0  0  0  0  0  0  0  0
   46.2516    5.9766   19.3077 H   0  0  0  0  0  0  0  0  0  0  0  0
   47.1263    4.7087   21.2509 H   0  0  0  0  0  0  0  0  0  0  0  0
   55.7494    5.2922   17.1549 H   0  0  0  0  0  0  0  0  0  0  0  0
   51.4867    4.2601   17.1760 H   0  0  0  0  0  0  0  0  0  0  0  0
   49.0838   10.9484   18.0725 H   0  0  0  0  0  0  0  0  0  0  0  0
   49.4928    6.3278   16.1954 H   0  0  0  0  0  0  0  0  0  0  0  0
   50.2627    8.8396   16.0125 H   0  0  0  0  0  0  0  0  0  0  0  0
   49.3887    6.9916   18.8881 H   0  0  0  0  0  0  0  0  0  0  0  0
   51.7588    8.1835   18.2887 H   0  0  0  0  0  0  0  0  0  0  0  0
 10  9  1  0
 11  4  2  0
 12  3  2  0
 13  6  2  0
 14  5  2  0
 15  8  1  0
 16 10  1  0
 17 10  1  0
 18 12  1  0
 19 11  1  0
 20 19  2  0
 21 18  2  0
  5  2  1  0
 13 20  1  0
 14 21  1  0
  2  6  1  0
  3  1  1  0
  4  1  1  0
  5  3  1  0
  6  4  1  0
  7  1  1  0
  8  7  1  0
  9  8  1  0
 31 30  1  0
 32 25  2  0
 33 24  2  0
 34 27  2  0
 35 26  2  0
 36 29  1  0
 37 31  1  0
 38 31  1  0
 39 33  1  0
 40 32  1  0
 41 40  2  0
 42 39  2  0
 26 23  1  0
 34 41  1  0
 35 42  1  0
 23 27  1  0
 24 22  1  0
 25 22  1  0
 26 24  1  0
 27 25  1  0
 28 22  1  0
 29 28  1  0
 30 29  1  0
 49 44  2  0
 50 47  1  0
 51 48  1  0
 49 43  1  0
 51 52  1  0
 50 51  1  0
 52 45  1  0
 49 50  1  0
 52 46  2  0
  7 53  1  0
  7 54  1  0
  8 55  1  1
  9 56  1  0
  9 57  1  0
 11 58  1  0
 12 59  1  0
 13 60  1  0
 14 61  1  0
 15 62  1  0
 15 63  1  0
 15 64  1  0
 16 65  1  0
 16 66  1  0
 16 67  1  0
 17 68  1  0
 17 69  1  0
 17 70  1  0
 18 71  1  0
 19 72  1  0
 20 73  1  0
 21 74  1  0
 28 75  1  0
 28 76  1  0
 29 77  1  1
 30 78  1  0
 30 79  1  0
 32 80  1  0
 33 81  1  0
 34 82  1  0
 35 83  1  0
 36 84  1  0
 36 85  1  0
 36 86  1  0
 37 87  1  0
 37 88  1  0
 37 89  1  0
 38 90  1  0
 38 91  1  0
 38 92  1  0
 39 93  1  0
 40 94  1  0
 41 95  1  0
 42 96  1  0
 43 97  1  0
 45 98  1  0
 47 99  1  0
 48100  1  0
 50101  1  1
 51102  1  1
M  END
> <Uni-Dock RESULT> 
ENERGY=   -4.932  LOWER_BOUND=    3.002  UPPER_BOUND=    5.716
INTER + INTRA:          -4.932
INTER:                  -4.932
INTRA:                   0.000
UNBOUND:                 0.000

$$$$
