
     RDKit          3D

102105  0  0  0  0  0  0  0  0999 V2000
   47.9087    7.8054   20.1621 N   0  0  0  0  0  0  0  0  0  0  0  0
   48.8389    4.7779   20.3727 S   0  0  0  0  0  0  0  0  0  0  0  0
   48.2675    7.1414   18.9448 C   0  0  0  0  0  0  0  0  0  0  0  0
   47.9107    7.2083   21.4629 C   0  0  0  0  0  0  0  0  0  0  0  0
   48.7150    5.8045   18.9288 C   0  0  0  0  0  0  0  0  0  0  0  0
   48.2883    5.8654   21.6661 C   0  0  0  0  0  0  0  0  0  0  0  0
   47.2919    9.1516   20.0296 C   0  0  0  0  0  0  0  0  0  0  0  0
   48.3212   10.2999   19.8648 C   0  0  1  0  0  0  0  0  0  0  0  0
   47.5399   11.6095   19.6069 C   0  0  0  0  0  0  0  0  0  0  0  0
   48.4471   12.7296   19.3208 N   0  0  0  0  0  0  0  0  0  0  0  0
   47.5637    7.9228   22.6363 C   0  0  0  0  0  0  0  0  0  0  0  0
   48.2027    7.7778   17.6822 C   0  0  0  0  0  0  0  0  0  0  0  0
   48.2590    5.2783   22.9515 C   0  0  0  0  0  0  0  0  0  0  0  0
   49.0699    5.1660   17.7200 C   0  0  0  0  0  0  0  0  0  0  0  0
   49.2431   10.4575   21.0797 C   0  0  0  0  0  0  0  0  0  0  0  0
   48.4390   13.0875   17.8993 C   0  0  0  0  0  0  0  0  0  0  0  0
   48.1277   13.9002   20.1403 C   0  0  0  0  0  0  0  0  0  0  0  0
   48.5440    7.1386   16.4835 C   0  0  0  0  0  0  0  0  0  0  0  0
   47.5435    7.3386   23.9132 C   0  0  0  0  0  0  0  0  0  0  0  0
   47.8789    6.0086   24.0693 C   0  0  0  0  0  0  0  0  0  0  0  0
   48.9819    5.8287   16.5015 C   0  0  0  0  0  0  0  0  0  0  0  0
   47.8316    7.8039   20.0471 N   0  0  0  0  0  0  0  0  0  0  0  0
   48.4009    4.8995   21.1929 S   0  0  0  0  0  0  0  0  0  0  0  0
   47.5718    7.5799   21.4372 C   0  0  0  0  0  0  0  0  0  0  0  0
   48.3350    6.8286   19.1319 C   0  0  0  0  0  0  0  0  0  0  0  0
   47.7959    6.3277   22.0489 C   0  0  0  0  0  0  0  0  0  0  0  0
   48.6022    5.5041   19.5353 C   0  0  0  0  0  0  0  0  0  0  0  0
   47.4229    9.1220   19.4983 C   0  0  0  0  0  0  0  0  0  0  0  0
   48.4547   10.2557   19.7616 C   0  0  2  0  0  0  0  0  0  0  0  0
   47.8208   11.6043   19.3353 C   0  0  0  0  0  0  0  0  0  0  0  0
   48.6796   12.7523   19.6701 N   0  0  0  0  0  0  0  0  0  0  0  0
   48.6044    7.1158   17.7714 C   0  0  0  0  0  0  0  0  0  0  0  0
   47.0690    8.5941   22.2917 C   0  0  0  0  0  0  0  0  0  0  0  0
   49.0615    4.5368   18.6143 C   0  0  0  0  0  0  0  0  0  0  0  0
   47.5367    6.1270   23.4222 C   0  0  0  0  0  0  0  0  0  0  0  0
   49.7882   10.0200   19.0465 C   0  0  0  0  0  0  0  0  0  0  0  0
   48.1184   13.5405   20.7762 C   0  0  0  0  0  0  0  0  0  0  0  0
   48.9256   13.6020   18.5022 C   0  0  0  0  0  0  0  0  0  0  0  0
   46.8169    8.3910   23.6558 C   0  0  0  0  0  0  0  0  0  0  0  0
   49.0648    6.1552   16.8613 C   0  0  0  0  0  0  0  0  0  0  0  0
   49.2849    4.8570   17.2817 C   0  0  0  0  0  0  0  0  0  0  0  0
   47.0559    7.1543   24.2250 C   0  0  0  0  0  0  0  0  0  0  0  0
   49.3108    7.9464   21.9761 O   0  0  0  0  0  0  0  0  0  0  0  0
   50.0343    6.8082   20.1877 O   0  0  0  0  0  0  0  0  0  0  0  0
   46.5252   10.5917   21.0151 O   0  0  0  0  0  0  0  0  0  0  0  0
   46.6737   11.2424   18.8789 O   0  0  0  0  0  0  0  0  0  0  0  0
   47.9333    7.7583   18.6144 O   0  0  0  0  0  0  0  0  0  0  0  0
   49.2009   10.0587   18.6078 O   0  0  0  0  0  0  0  0  0  0  0  0
   49.2482    7.6150   20.6659 C   0  0  0  0  0  0  0  0  0  0  0  0
   48.1220    8.3199   19.9183 C   0  0  1  0  0  0  0  0  0  0  0  0
   48.4388    9.8130   19.7986 C   0  0  2  0  0  0  0  0  0  0  0  0
   47.1434   10.6107   19.8157 C   0  0  0  0  0  0  0  0  0  0  0  0
   46.5965    9.1498   19.1781 H   0  0  0  0  0  0  0  0  0  0  0  0
   46.6035    9.3876   20.8498 H   0  0  0  0  0  0  0  0  0  0  0  0
   48.9632   10.0999   18.9960 H   0  0  0  0  0  0  0  0  0  0  0  0
   46.8266   11.4559   18.7810 H   0  0  0  0  0  0  0  0  0  0  0  0
   46.9098   11.8229   20.4870 H   0  0  0  0  0  0  0  0  0  0  0  0
   47.3149    8.9780   22.6209 H   0  0  0  0  0  0  0  0  0  0  0  0
   47.8836    8.8077   17.5786 H   0  0  0  0  0  0  0  0  0  0  0  0
   48.5429    4.2369   23.0851 H   0  0  0  0  0  0  0  0  0  0  0  0
   49.4101    4.1300   17.7229 H   0  0  0  0  0  0  0  0  0  0  0  0
   48.6856   10.7445   21.9769 H   0  0  0  0  0  0  0  0  0  0  0  0
   49.7962    9.5369   21.2866 H   0  0  0  0  0  0  0  0  0  0  0  0
   49.9972   11.2291   20.8968 H   0  0  0  0  0  0  0  0  0  0  0  0
   49.1565   13.8924   17.7017 H   0  0  0  0  0  0  0  0  0  0  0  0
   47.4463   13.4142   17.5515 H   0  0  0  0  0  0  0  0  0  0  0  0
   48.7598   12.2294   17.2906 H   0  0  0  0  0  0  0  0  0  0  0  0
   48.2083   13.6507   21.2097 H   0  0  0  0  0  0  0  0  0  0  0  0
   48.8386   14.7113   19.9471 H   0  0  0  0  0  0  0  0  0  0  0  0
   47.1155   14.2757   19.9448 H   0  0  0  0  0  0  0  0  0  0  0  0
   48.4630    7.6747   15.5403 H   0  0  0  0  0  0  0  0  0  0  0  0
   47.2657    7.9343   24.7821 H   0  0  0  0  0  0  0  0  0  0  0  0
   47.8689    5.5447   25.0511 H   0  0  0  0  0  0  0  0  0  0  0  0
   49.2505    5.3206   15.5798 H   0  0  0  0  0  0  0  0  0  0  0  0
   47.1820    9.0798   18.4312 H   0  0  0  0  0  0  0  0  0  0  0  0
   46.4428    9.3925   19.9136 H   0  0  0  0  0  0  0  0  0  0  0  0
   48.6794   10.3075   20.8354 H   0  0  0  0  0  0  0  0  0  0  0  0
   47.6123   11.5656   18.2555 H   0  0  0  0  0  0  0  0  0  0  0  0
   46.8383   11.7037   19.8192 H   0  0  0  0  0  0  0  0  0  0  0  0
   48.4867    8.1126   17.3644 H   0  0  0  0  0  0  0  0  0  0  0  0
   46.8620    9.5983   21.9349 H   0  0  0  0  0  0  0  0  0  0  0  0
   49.2553    3.5145   18.9355 H   0  0  0  0  0  0  0  0  0  0  0  0
   47.7133    5.1521   23.8749 H   0  0  0  0  0  0  0  0  0  0  0  0
   50.5074   10.8057   19.2957 H   0  0  0  0  0  0  0  0  0  0  0  0
   49.6701   10.0171   17.9578 H   0  0  0  0  0  0  0  0  0  0  0  0
   50.2414    9.0736   19.3549 H   0  0  0  0  0  0  0  0  0  0  0  0
   48.7996   14.3483   21.0603 H   0  0  0  0  0  0  0  0  0  0  0  0
   47.1494   13.9881   20.5263 H   0  0  0  0  0  0  0  0  0  0  0  0
   47.9998   12.9040   21.6598 H   0  0  0  0  0  0  0  0  0  0  0  0
   48.0014   14.0398   18.1057 H   0  0  0  0  0  0  0  0  0  0  0  0
   49.4050   13.0245   17.7005 H   0  0  0  0  0  0  0  0  0  0  0  0
   49.6177   14.4142   18.7502 H   0  0  0  0  0  0  0  0  0  0  0  0
   46.4443    9.2098   24.2683 H   0  0  0  0  0  0  0  0  0  0  0  0
   49.2527    6.4355   15.8281 H   0  0  0  0  0  0  0  0  0  0  0  0
   49.6331    4.1027   16.5817 H   0  0  0  0  0  0  0  0  0  0  0  0
   46.8660    6.9817   25.2812 H   0  0  0  0  0  0  0  0  0  0  0  0
   50.0611    7.4125   22.3270 H   0  0  0  0  0  0  0  0  0  0  0  0
   45.7387   11.1629   20.8915 H   0  0  0  0  0  0  0  0  0  0  0  0
   48.8309    7.6471   18.2411 H   0  0  0  0  0  0  0  0  0  0  0  0
   48.5565   10.0241   17.8731 H   0  0  0  0  0  0  0  0  0  0  0  0
   47.1998    8.1299   20.4870 H   0  0  0  0  0  0  0  0  0  0  0  0
   49.0387   10.1774   20.6428 H   0  0  0  0  0  0  0  0  0  0  0  0
 10  9  1  0
 11  4  2  0
 12  3  2  0
 13  6  2  0
 14  5  2  0
 15  8  1  0
 16 10  1  0
 17 10  1  0
 18 12  1  0
 19 11  1  0
 20 19  2  0
 21 18  2  0
  5  2  1  0
 13 20  1  0
 14 21  1  0
  2  6  1  0
  3  1  1  0
  4  1  1  0
  5  3  1  0
  6  4  1  0
  7  1  1  0
  8  7  1  0
  9  8  1  0
 31 30  1  0
 32 25  2  0
 33 24  2  0
 34 27  2  0
 35 26  2  0
 36 29  1  0
 37 31  1  0
 38 31  1  0
 39 33  1  0
 40 32  1  0
 41 40  2  0
 42 39  2  0
 26 23  1  0
 34 41  1  0
 35 42  1  0
 23 27  1  0
 24 22  1  0
 25 22  1  0
 26 24  1  0
 27 25  1  0
 28 22  1  0
 29 28  1  0
 30 29  1  0
 49 44  2  0
 50 47  1  0
 51 48  1  0
 49 43  1  0
 51 52  1  0
 50 51  1  0
 52 45  1  0
 49 50  1  0
 52 46  2  0
  7 53  1  0
  7 54  1  0
  8 55  1  1
  9 56  1  0
  9 57  1  0
 11 58  1  0
 12 59  1  0
 13 60  1  0
 14 61  1  0
 15 62  1  0
 15 63  1  0
 15 64  1  0
 16 65  1  0
 16 66  1  0
 16 67  1  0
 17 68  1  0
 17 69  1  0
 17 70  1  0
 18 71  1  0
 19 72  1  0
 20 73  1  0
 21 74  1  0
 28 75  1  0
 28 76  1  0
 29 77  1  1
 30 78  1  0
 30 79  1  0
 32 80  1  0
 33 81  1  0
 34 82  1  0
 35 83  1  0
 36 84  1  0
 36 85  1  0
 36 86  1  0
 37 87  1  0
 37 88  1  0
 37 89  1  0
 38 90  1  0
 38 91  1  0
 38 92  1  0
 39 93  1  0
 40 94  1  0
 41 95  1  0
 42 96  1  0
 43 97  1  0
 45 98  1  0
 47 99  1  0
 48100  1  0
 50101  1  6
 51102  1  1
M  END
> <Uni-Dock RESULT> 
ENERGY=   -7.442  LOWER_BOUND=    0.000  UPPER_BOUND=    0.000
INTER + INTRA:          -7.442
INTER:                  -7.442
INTRA:                   0.000
UNBOUND:                 0.000

$$$$

     RDKit          3D

102105  0  0  0  0  0  0  0  0999 V2000
   46.4908    7.8147   13.0542 N   0  0  0  0  0  0  0  0  0  0  0  0
   44.0137    6.6806   11.4255 S   0  0  0  0  0  0  0  0  0  0  0  0
   45.6550    8.7642   12.3825 C   0  0  0  0  0  0  0  0  0  0  0  0
   46.2862    6.3982   13.0725 C   0  0  0  0  0  0  0  0  0  0  0  0
   44.5424    8.3655   11.6137 C   0  0  0  0  0  0  0  0  0  0  0  0
   45.2068    5.7922   12.3980 C   0  0  0  0  0  0  0  0  0  0  0  0
   47.5252    8.3672   13.9681 C   0  0  0  0  0  0  0  0  0  0  0  0
   48.8286    8.8035   13.2498 C   0  0  1  0  0  0  0  0  0  0  0  0
   49.7498    9.4740   14.2957 C   0  0  0  0  0  0  0  0  0  0  0  0
   50.9609   10.0246   13.6714 N   0  0  0  0  0  0  0  0  0  0  0  0
   47.1603    5.5047   13.7399 C   0  0  0  0  0  0  0  0  0  0  0  0
   45.8885   10.1591   12.4394 C   0  0  0  0  0  0  0  0  0  0  0  0
   44.9987    4.3950   12.4468 C   0  0  0  0  0  0  0  0  0  0  0  0
   43.7313    9.3146   10.9533 C   0  0  0  0  0  0  0  0  0  0  0  0
   49.5547    7.6393   12.5657 C   0  0  0  0  0  0  0  0  0  0  0  0
   50.9109   11.4869   13.5827 C   0  0  0  0  0  0  0  0  0  0  0  0
   52.1693    9.6005   14.3810 C   0  0  0  0  0  0  0  0  0  0  0  0
   45.0756   11.0991   11.7932 C   0  0  0  0  0  0  0  0  0  0  0  0
   46.9550    4.1160   13.7796 C   0  0  0  0  0  0  0  0  0  0  0  0
   45.8632    3.5610   13.1426 C   0  0  0  0  0  0  0  0  0  0  0  0
   43.9943   10.6763   11.0449 C   0  0  0  0  0  0  0  0  0  0  0  0
   46.4373    7.9283   13.1126 N   0  0  0  0  0  0  0  0  0  0  0  0
   44.2214    5.9565   11.9838 S   0  0  0  0  0  0  0  0  0  0  0  0
   46.5275    6.5494   13.4878 C   0  0  0  0  0  0  0  0  0  0  0  0
   45.4350    8.4908   12.2633 C   0  0  0  0  0  0  0  0  0  0  0  0
   45.5974    5.5881   13.0372 C   0  0  0  0  0  0  0  0  0  0  0  0
   44.3950    7.7049   11.7256 C   0  0  0  0  0  0  0  0  0  0  0  0
   47.3933    8.8588   13.7653 C   0  0  0  0  0  0  0  0  0  0  0  0
   48.7977    8.8820   13.0971 C   0  0  2  0  0  0  0  0  0  0  0  0
   49.7514    9.7166   13.9894 C   0  0  0  0  0  0  0  0  0  0  0  0
   51.1396    9.6851   13.5002 N   0  0  0  0  0  0  0  0  0  0  0  0
   45.4137    9.8592   11.8988 C   0  0  0  0  0  0  0  0  0  0  0  0
   47.5497    6.0563   14.3384 C   0  0  0  0  0  0  0  0  0  0  0  0
   43.3861    8.2775   10.9200 C   0  0  0  0  0  0  0  0  0  0  0  0
   45.7048    4.2321   13.4155 C   0  0  0  0  0  0  0  0  0  0  0  0
   48.7630    9.4240   11.6653 C   0  0  0  0  0  0  0  0  0  0  0  0
   52.0039    8.8889   14.3826 C   0  0  0  0  0  0  0  0  0  0  0  0
   51.6819   11.0348   13.3254 C   0  0  0  0  0  0  0  0  0  0  0  0
   47.6544    4.7080   14.7081 C   0  0  0  0  0  0  0  0  0  0  0  0
   44.4143   10.4234   11.0951 C   0  0  0  0  0  0  0  0  0  0  0  0
   43.3899    9.6315   10.6114 C   0  0  0  0  0  0  0  0  0  0  0  0
   46.7315    3.7909   14.2414 C   0  0  0  0  0  0  0  0  0  0  0  0
   47.4951    6.0475   11.9842 O   0  0  0  0  0  0  0  0  0  0  0  0
   46.1719    7.3845   10.7681 O   0  0  0  0  0  0  0  0  0  0  0  0
   48.9014    7.8873   15.1964 O   0  0  0  0  0  0  0  0  0  0  0  0
   48.9755   10.1091   14.9376 O   0  0  0  0  0  0  0  0  0  0  0  0
   46.0429    9.2777   12.8152 O   0  0  0  0  0  0  0  0  0  0  0  0
   48.5179    9.8860   12.1804 O   0  0  0  0  0  0  0  0  0  0  0  0
   46.8236    7.2055   11.7883 C   0  0  0  0  0  0  0  0  0  0  0  0
   46.9604    8.1861   12.9476 C   0  0  1  0  0  0  0  0  0  0  0  0
   48.3946    8.7184   13.0054 C   0  0  2  0  0  0  0  0  0  0  0  0
   48.7730    9.0048   14.4509 C   0  0  0  0  0  0  0  0  0  0  0  0
   47.1027    9.2174   14.5223 H   0  0  0  0  0  0  0  0  0  0  0  0
   47.7685    7.6899   14.7955 H   0  0  0  0  0  0  0  0  0  0  0  0
   48.5927    9.5402   12.4696 H   0  0  0  0  0  0  0  0  0  0  0  0
   49.1892   10.2566   14.8320 H   0  0  0  0  0  0  0  0  0  0  0  0
   50.0044    8.7298   15.0693 H   0  0  0  0  0  0  0  0  0  0  0  0
   48.0602    5.8405   14.2429 H   0  0  0  0  0  0  0  0  0  0  0  0
   46.7219   10.5756   12.9918 H   0  0  0  0  0  0  0  0  0  0  0  0
   44.1527    3.9485   11.9292 H   0  0  0  0  0  0  0  0  0  0  0  0
   42.8714    8.9914   10.3658 H   0  0  0  0  0  0  0  0  0  0  0  0
   49.9020    6.8963   13.2905 H   0  0  0  0  0  0  0  0  0  0  0  0
   48.9149    7.1434   11.8301 H   0  0  0  0  0  0  0  0  0  0  0  0
   50.4287    7.9981   12.0137 H   0  0  0  0  0  0  0  0  0  0  0  0
   51.8017   11.8714   13.0722 H   0  0  0  0  0  0  0  0  0  0  0  0
   50.8424   11.9681   14.5711 H   0  0  0  0  0  0  0  0  0  0  0  0
   50.0472   11.8007   12.9783 H   0  0  0  0  0  0  0  0  0  0  0  0
   52.2459    8.5021   14.3813 H   0  0  0  0  0  0  0  0  0  0  0  0
   53.0651    9.9830   13.8790 H   0  0  0  0  0  0  0  0  0  0  0  0
   52.1808    9.9515   15.4204 H   0  0  0  0  0  0  0  0  0  0  0  0
   45.2968   12.1605   11.8822 H   0  0  0  0  0  0  0  0  0  0  0  0
   47.6579    3.4749   14.3105 H   0  0  0  0  0  0  0  0  0  0  0  0
   45.6934    2.4887   13.1640 H   0  0  0  0  0  0  0  0  0  0  0  0
   43.3556   11.3939   10.5378 H   0  0  0  0  0  0  0  0  0  0  0  0
   47.0034    9.8786   13.8452 H   0  0  0  0  0  0  0  0  0  0  0  0
   47.4792    8.5942   14.8277 H   0  0  0  0  0  0  0  0  0  0  0  0
   49.1937    7.8594   13.0360 H   0  0  0  0  0  0  0  0  0  0  0  0
   49.3704   10.7479   14.0375 H   0  0  0  0  0  0  0  0  0  0  0  0
   49.6971    9.3367   15.0200 H   0  0  0  0  0  0  0  0  0  0  0  0
   46.1923   10.5449   12.2099 H   0  0  0  0  0  0  0  0  0  0  0  0
   48.3235    6.7011   14.7436 H   0  0  0  0  0  0  0  0  0  0  0  0
   42.5825    7.6622   10.5181 H   0  0  0  0  0  0  0  0  0  0  0  0
   44.9751    3.5060   13.0594 H   0  0  0  0  0  0  0  0  0  0  0  0
   49.7552    9.3761   11.2071 H   0  0  0  0  0  0  0  0  0  0  0  0
   48.4380   10.4693   11.6347 H   0  0  0  0  0  0  0  0  0  0  0  0
   48.0985    8.8290   11.0323 H   0  0  0  0  0  0  0  0  0  0  0  0
   53.0151    8.8161   13.9711 H   0  0  0  0  0  0  0  0  0  0  0  0
   52.0795    9.3105   15.3918 H   0  0  0  0  0  0  0  0  0  0  0  0
   51.6183    7.8658   14.4518 H   0  0  0  0  0  0  0  0  0  0  0  0
   51.7220   11.5911   14.2699 H   0  0  0  0  0  0  0  0  0  0  0  0
   51.0701   11.6061   12.6146 H   0  0  0  0  0  0  0  0  0  0  0  0
   52.6907   10.9972   12.8998 H   0  0  0  0  0  0  0  0  0  0  0  0
   48.4684    4.3819   15.3526 H   0  0  0  0  0  0  0  0  0  0  0  0
   44.4508   11.4816   10.8500 H   0  0  0  0  0  0  0  0  0  0  0  0
   42.6052   10.0612    9.9951 H   0  0  0  0  0  0  0  0  0  0  0  0
   46.7999    2.7422   14.5187 H   0  0  0  0  0  0  0  0  0  0  0  0
   47.3056    5.5160   11.1763 H   0  0  0  0  0  0  0  0  0  0  0  0
   49.1756    8.2144   16.0784 H   0  0  0  0  0  0  0  0  0  0  0  0
   46.0921    9.5532   11.8777 H   0  0  0  0  0  0  0  0  0  0  0  0
   48.1106   10.6125   12.6927 H   0  0  0  0  0  0  0  0  0  0  0  0
   46.6784    7.6374   13.8584 H   0  0  0  0  0  0  0  0  0  0  0  0
   49.1230    7.9860   12.6334 H   0  0  0  0  0  0  0  0  0  0  0  0
 10  9  1  0
 11  4  2  0
 12  3  2  0
 13  6  2  0
 14  5  2  0
 15  8  1  0
 16 10  1  0
 17 10  1  0
 18 12  1  0
 19 11  1  0
 20 19  2  0
 21 18  2  0
  5  2  1  0
 13 20  1  0
 14 21  1  0
  2  6  1  0
  3  1  1  0
  4  1  1  0
  5  3  1  0
  6  4  1  0
  7  1  1  0
  8  7  1  0
  9  8  1  0
 31 30  1  0
 32 25  2  0
 33 24  2  0
 34 27  2  0
 35 26  2  0
 36 29  1  0
 37 31  1  0
 38 31  1  0
 39 33  1  0
 40 32  1  0
 41 40  2  0
 42 39  2  0
 26 23  1  0
 34 41  1  0
 35 42  1  0
 23 27  1  0
 24 22  1  0
 25 22  1  0
 26 24  1  0
 27 25  1  0
 28 22  1  0
 29 28  1  0
 30 29  1  0
 49 44  2  0
 50 47  1  0
 51 48  1  0
 49 43  1  0
 51 52  1  0
 50 51  1  0
 52 45  1  0
 49 50  1  0
 52 46  2  0
  7 53  1  0
  7 54  1  0
  8 55  1  1
  9 56  1  0
  9 57  1  0
 11 58  1  0
 12 59  1  0
 13 60  1  0
 14 61  1  0
 15 62  1  0
 15 63  1  0
 15 64  1  0
 16 65  1  0
 16 66  1  0
 16 67  1  0
 17 68  1  0
 17 69  1  0
 17 70  1  0
 18 71  1  0
 19 72  1  0
 20 73  1  0
 21 74  1  0
 28 75  1  0
 28 76  1  0
 29 77  1  1
 30 78  1  0
 30 79  1  0
 32 80  1  0
 33 81  1  0
 34 82  1  0
 35 83  1  0
 36 84  1  0
 36 85  1  0
 36 86  1  0
 37 87  1  0
 37 88  1  0
 37 89  1  0
 38 90  1  0
 38 91  1  0
 38 92  1  0
 39 93  1  0
 40 94  1  0
 41 95  1  0
 42 96  1  0
 43 97  1  0
 45 98  1  0
 47 99  1  0
 48100  1  0
 50101  1  6
 51102  1  1
M  END
> <Uni-Dock RESULT> 
ENERGY=   -7.300  LOWER_BOUND=    6.450  UPPER_BOUND=    8.311
INTER + INTRA:          -7.300
INTER:                  -7.300
INTRA:                   0.000
UNBOUND:                 0.000

$$$$

     RDKit          3D

102105  0  0  0  0  0  0  0  0999 V2000
   47.9621    8.5466   19.2348 N   0  0  0  0  0  0  0  0  0  0  0  0
   48.5759    5.4933   18.6224 S   0  0  0  0  0  0  0  0  0  0  0  0
   48.1842    8.1818   17.8677 C   0  0  0  0  0  0  0  0  0  0  0  0
   47.9690    7.6430   20.3448 C   0  0  0  0  0  0  0  0  0  0  0  0
   48.4860    6.8576   17.4891 C   0  0  0  0  0  0  0  0  0  0  0  0
   48.2123    6.2641   20.1819 C   0  0  0  0  0  0  0  0  0  0  0  0
   47.4854    9.9325   19.4852 C   0  0  0  0  0  0  0  0  0  0  0  0
   48.6206   10.9882   19.5288 C   0  0  1  0  0  0  0  0  0  0  0  0
   47.9700   12.3851   19.6618 C   0  0  0  0  0  0  0  0  0  0  0  0
   48.9746   13.4552   19.5905 N   0  0  0  0  0  0  0  0  0  0  0  0
   47.7617    8.0667   21.6810 C   0  0  0  0  0  0  0  0  0  0  0  0
   48.1211    9.1193   16.8092 C   0  0  0  0  0  0  0  0  0  0  0  0
   48.1883    5.3769   21.2820 C   0  0  0  0  0  0  0  0  0  0  0  0
   48.7073    6.5155   16.1368 C   0  0  0  0  0  0  0  0  0  0  0  0
   49.6164   10.7511   20.6701 C   0  0  0  0  0  0  0  0  0  0  0  0
   48.9300   14.1593   18.3056 C   0  0  0  0  0  0  0  0  0  0  0  0
   48.8245   14.4049   20.6947 C   0  0  0  0  0  0  0  0  0  0  0  0
   48.3294    8.7752   15.4674 C   0  0  0  0  0  0  0  0  0  0  0  0
   47.7466    7.1834   22.7728 C   0  0  0  0  0  0  0  0  0  0  0  0
   47.9469    5.8325   22.5708 C   0  0  0  0  0  0  0  0  0  0  0  0
   48.6263    7.4694   15.1290 C   0  0  0  0  0  0  0  0  0  0  0  0
   47.8794    8.5812   19.1292 N   0  0  0  0  0  0  0  0  0  0  0  0
   48.1969    5.4427   19.4786 S   0  0  0  0  0  0  0  0  0  0  0  0
   47.6705    8.0379   20.4375 C   0  0  0  0  0  0  0  0  0  0  0  0
   48.2279    7.8272   17.9663 C   0  0  0  0  0  0  0  0  0  0  0  0
   47.7923    6.6571   20.7035 C   0  0  0  0  0  0  0  0  0  0  0  0
   48.3740    6.4254   18.0100 C   0  0  0  0  0  0  0  0  0  0  0  0
   47.5844   10.0262   18.9545 C   0  0  0  0  0  0  0  0  0  0  0  0
   48.7430   10.9597   19.4079 C   0  0  2  0  0  0  0  0  0  0  0  0
   48.2342   12.4234   19.3764 C   0  0  0  0  0  0  0  0  0  0  0  0
   49.2262   13.3682   19.9156 N   0  0  0  0  0  0  0  0  0  0  0  0
   48.4545    8.4229   16.7015 C   0  0  0  0  0  0  0  0  0  0  0  0
   47.3235    8.8446   21.5512 C   0  0  0  0  0  0  0  0  0  0  0  0
   48.6792    5.6845   16.8469 C   0  0  0  0  0  0  0  0  0  0  0  0
   47.5857    6.1406   22.0011 C   0  0  0  0  0  0  0  0  0  0  0  0
   50.0047   10.7936   18.5559 C   0  0  0  0  0  0  0  0  0  0  0  0
   48.8105   13.8989   21.2214 C   0  0  0  0  0  0  0  0  0  0  0  0
   49.4993   14.4594   18.9770 C   0  0  0  0  0  0  0  0  0  0  0  0
   47.1232    8.3275   22.8389 C   0  0  0  0  0  0  0  0  0  0  0  0
   48.7621    7.6857   15.5505 C   0  0  0  0  0  0  0  0  0  0  0  0
   48.8651    6.3091   15.6207 C   0  0  0  0  0  0  0  0  0  0  0  0
   47.2593    6.9709   23.0664 C   0  0  0  0  0  0  0  0  0  0  0  0
   49.4645    8.0994   20.9139 O   0  0  0  0  0  0  0  0  0  0  0  0
   49.9684    7.3891   18.8502 O   0  0  0  0  0  0  0  0  0  0  0  0
   46.9284   11.1401   20.8507 O   0  0  0  0  0  0  0  0  0  0  0  0
   47.0328   12.2925   18.9350 O   0  0  0  0  0  0  0  0  0  0  0  0
   47.9004    8.8894   17.7259 O   0  0  0  0  0  0  0  0  0  0  0  0
   49.4026   10.9941   18.1869 O   0  0  0  0  0  0  0  0  0  0  0  0
   49.2984    8.1162   19.5713 C   0  0  0  0  0  0  0  0  0  0  0  0
   48.2157    9.0848   19.1092 C   0  0  1  0  0  0  0  0  0  0  0  0
   48.6822   10.5252   19.3360 C   0  0  2  0  0  0  0  0  0  0  0  0
   47.4814   11.4055   19.6487 C   0  0  0  0  0  0  0  0  0  0  0  0
   46.7500   10.2077   18.7158 H   0  0  0  0  0  0  0  0  0  0  0  0
   46.8698   10.0146   20.3890 H   0  0  0  0  0  0  0  0  0  0  0  0
   49.1913   10.9572   18.5905 H   0  0  0  0  0  0  0  0  0  0  0  0
   47.2022   12.5092   18.8811 H   0  0  0  0  0  0  0  0  0  0  0  0
   47.4131   12.4251   20.6132 H   0  0  0  0  0  0  0  0  0  0  0  0
   47.6257    9.1095   21.9447 H   0  0  0  0  0  0  0  0  0  0  0  0
   47.9079   10.1663   16.9867 H   0  0  0  0  0  0  0  0  0  0  0  0
   48.3668    4.3143   21.1331 H   0  0  0  0  0  0  0  0  0  0  0  0
   48.9355    5.4862   15.8587 H   0  0  0  0  0  0  0  0  0  0  0  0
   49.1403   10.8512   21.6506 H   0  0  0  0  0  0  0  0  0  0  0  0
   50.0788    9.7624   20.6011 H   0  0  0  0  0  0  0  0  0  0  0  0
   50.4374   11.4731   20.6248 H   0  0  0  0  0  0  0  0  0  0  0  0
   49.7174   14.9205   18.2571 H   0  0  0  0  0  0  0  0  0  0  0  0
   47.9606   14.6507   18.1265 H   0  0  0  0  0  0  0  0  0  0  0  0
   49.1257   13.4574   17.4818 H   0  0  0  0  0  0  0  0  0  0  0  0
   48.9342   13.8877   21.6604 H   0  0  0  0  0  0  0  0  0  0  0  0
   49.6063   15.1716   20.6524 H   0  0  0  0  0  0  0  0  0  0  0  0
   47.8490   14.9067   20.6763 H   0  0  0  0  0  0  0  0  0  0  0  0
   48.2563    9.5368   14.6941 H   0  0  0  0  0  0  0  0  0  0  0  0
   47.5795    7.5631   23.7802 H   0  0  0  0  0  0  0  0  0  0  0  0
   47.9393    5.1389   23.4062 H   0  0  0  0  0  0  0  0  0  0  0  0
   48.7908    7.1882   14.0928 H   0  0  0  0  0  0  0  0  0  0  0  0
   47.2848   10.2762   17.9317 H   0  0  0  0  0  0  0  0  0  0  0  0
   46.6617   10.2698   19.4980 H   0  0  0  0  0  0  0  0  0  0  0  0
   49.0280   10.7186   20.4408 H   0  0  0  0  0  0  0  0  0  0  0  0
   47.9664   12.6771   18.3396 H   0  0  0  0  0  0  0  0  0  0  0  0
   47.2944   12.4851   19.9443 H   0  0  0  0  0  0  0  0  0  0  0  0
   48.4219    9.4966   16.5624 H   0  0  0  0  0  0  0  0  0  0  0  0
   47.2058    9.9208   21.4692 H   0  0  0  0  0  0  0  0  0  0  0  0
   48.7801    4.6011   16.8910 H   0  0  0  0  0  0  0  0  0  0  0  0
   47.6815    5.0712   22.1853 H   0  0  0  0  0  0  0  0  0  0  0  0
   50.8152   11.4233   18.9343 H   0  0  0  0  0  0  0  0  0  0  0  0
   49.8300   11.0760   17.5124 H   0  0  0  0  0  0  0  0  0  0  0  0
   50.3706    9.7633   18.5863 H   0  0  0  0  0  0  0  0  0  0  0  0
   49.5874   14.5445   21.6419 H   0  0  0  0  0  0  0  0  0  0  0  0
   47.8826   14.4799   21.1649 H   0  0  0  0  0  0  0  0  0  0  0  0
   48.6715   13.0733   21.9280 H   0  0  0  0  0  0  0  0  0  0  0  0
   48.6072   15.0640   18.7729 H   0  0  0  0  0  0  0  0  0  0  0  0
   49.8721   14.0622   18.0234 H   0  0  0  0  0  0  0  0  0  0  0  0
   50.2857   15.1175   19.3628 H   0  0  0  0  0  0  0  0  0  0  0  0
   46.8722    8.9952   23.6607 H   0  0  0  0  0  0  0  0  0  0  0  0
   48.9242    8.1996   14.6066 H   0  0  0  0  0  0  0  0  0  0  0  0
   49.0942    5.7277   14.7321 H   0  0  0  0  0  0  0  0  0  0  0  0
   47.1078    6.5552   24.0592 H   0  0  0  0  0  0  0  0  0  0  0  0
   50.1713    7.4294   21.0638 H   0  0  0  0  0  0  0  0  0  0  0  0
   46.2015   11.7920   20.9324 H   0  0  0  0  0  0  0  0  0  0  0  0
   48.7603    8.7962   17.2685 H   0  0  0  0  0  0  0  0  0  0  0  0
   48.7206   11.2038   17.5183 H   0  0  0  0  0  0  0  0  0  0  0  0
   47.3097    8.8408   19.6833 H   0  0  0  0  0  0  0  0  0  0  0  0
   49.3609   10.6098   20.1949 H   0  0  0  0  0  0  0  0  0  0  0  0
 10  9  1  0
 11  4  2  0
 12  3  2  0
 13  6  2  0
 14  5  2  0
 15  8  1  0
 16 10  1  0
 17 10  1  0
 18 12  1  0
 19 11  1  0
 20 19  2  0
 21 18  2  0
  5  2  1  0
 13 20  1  0
 14 21  1  0
  2  6  1  0
  3  1  1  0
  4  1  1  0
  5  3  1  0
  6  4  1  0
  7  1  1  0
  8  7  1  0
  9  8  1  0
 31 30  1  0
 32 25  2  0
 33 24  2  0
 34 27  2  0
 35 26  2  0
 36 29  1  0
 37 31  1  0
 38 31  1  0
 39 33  1  0
 40 32  1  0
 41 40  2  0
 42 39  2  0
 26 23  1  0
 34 41  1  0
 35 42  1  0
 23 27  1  0
 24 22  1  0
 25 22  1  0
 26 24  1  0
 27 25  1  0
 28 22  1  0
 29 28  1  0
 30 29  1  0
 49 44  2  0
 50 47  1  0
 51 48  1  0
 49 43  1  0
 51 52  1  0
 50 51  1  0
 52 45  1  0
 49 50  1  0
 52 46  2  0
  7 53  1  0
  7 54  1  0
  8 55  1  1
  9 56  1  0
  9 57  1  0
 11 58  1  0
 12 59  1  0
 13 60  1  0
 14 61  1  0
 15 62  1  0
 15 63  1  0
 15 64  1  0
 16 65  1  0
 16 66  1  0
 16 67  1  0
 17 68  1  0
 17 69  1  0
 17 70  1  0
 18 71  1  0
 19 72  1  0
 20 73  1  0
 21 74  1  0
 28 75  1  0
 28 76  1  0
 29 77  1  1
 30 78  1  0
 30 79  1  0
 32 80  1  0
 33 81  1  0
 34 82  1  0
 35 83  1  0
 36 84  1  0
 36 85  1  0
 36 86  1  0
 37 87  1  0
 37 88  1  0
 37 89  1  0
 38 90  1  0
 38 91  1  0
 38 92  1  0
 39 93  1  0
 40 94  1  0
 41 95  1  0
 42 96  1  0
 43 97  1  0
 45 98  1  0
 47 99  1  0
 48100  1  0
 50101  1  6
 51102  1  1
M  END
> <Uni-Dock RESULT> 
ENERGY=   -7.152  LOWER_BOUND=    0.992  UPPER_BOUND=    1.369
INTER + INTRA:          -7.152
INTER:                  -7.152
INTRA:                   0.000
UNBOUND:                 0.000

$$$$

     RDKit          3D

102105  0  0  0  0  0  0  0  0999 V2000
   48.0354    7.2514   19.4793 N   0  0  0  0  0  0  0  0  0  0  0  0
   48.4014    4.4913   21.0034 S   0  0  0  0  0  0  0  0  0  0  0  0
   48.2069    6.0759   18.6791 C   0  0  0  0  0  0  0  0  0  0  0  0
   47.9900    7.2803   20.9096 C   0  0  0  0  0  0  0  0  0  0  0  0
   48.3994    4.8035   19.2551 C   0  0  0  0  0  0  0  0  0  0  0  0
   48.1233    6.1096   21.6834 C   0  0  0  0  0  0  0  0  0  0  0  0
   47.6713    8.5000   18.7591 C   0  0  0  0  0  0  0  0  0  0  0  0
   48.8853    9.2525   18.1546 C   0  0  1  0  0  0  0  0  0  0  0  0
   48.3469   10.4457   17.3310 C   0  0  0  0  0  0  0  0  0  0  0  0
   49.4300   11.1440   16.6248 N   0  0  0  0  0  0  0  0  0  0  0  0
   47.8374    8.4795   21.6489 C   0  0  0  0  0  0  0  0  0  0  0  0
   48.1997    6.1099   17.2641 C   0  0  0  0  0  0  0  0  0  0  0  0
   48.0483    6.1467   23.0944 C   0  0  0  0  0  0  0  0  0  0  0  0
   48.5721    3.6550   18.4515 C   0  0  0  0  0  0  0  0  0  0  0  0
   49.8778    9.7400   19.2166 C   0  0  0  0  0  0  0  0  0  0  0  0
   49.4195   10.8530   15.1881 C   0  0  0  0  0  0  0  0  0  0  0  0
   49.3713   12.5896   16.8499 C   0  0  0  0  0  0  0  0  0  0  0  0
   48.3594    4.9675   16.4694 C   0  0  0  0  0  0  0  0  0  0  0  0
   47.7714    8.5137   23.0513 C   0  0  0  0  0  0  0  0  0  0  0  0
   47.8634    7.3420   23.7756 C   0  0  0  0  0  0  0  0  0  0  0  0
   48.5491    3.7354   17.0641 C   0  0  0  0  0  0  0  0  0  0  0  0
   47.9539    7.2152   19.3733 N   0  0  0  0  0  0  0  0  0  0  0  0
   48.0333    5.0319   21.6754 S   0  0  0  0  0  0  0  0  0  0  0  0
   47.7245    7.6611   20.7145 C   0  0  0  0  0  0  0  0  0  0  0  0
   48.2246    5.8669   18.9847 C   0  0  0  0  0  0  0  0  0  0  0  0
   47.7434    6.7742   21.8124 C   0  0  0  0  0  0  0  0  0  0  0  0
   48.2625    4.8188   19.9273 C   0  0  0  0  0  0  0  0  0  0  0  0
   47.7689    8.2218   18.2972 C   0  0  0  0  0  0  0  0  0  0  0  0
   49.0032    9.1442   18.0853 C   0  0  2  0  0  0  0  0  0  0  0  0
   48.6087   10.2723   17.0984 C   0  0  0  0  0  0  0  0  0  0  0  0
   49.6792   11.2702   16.9386 N   0  0  0  0  0  0  0  0  0  0  0  0
   48.4765    5.4877   17.6435 C   0  0  0  0  0  0  0  0  0  0  0  0
   47.4586    9.0177   21.0317 C   0  0  0  0  0  0  0  0  0  0  0  0
   48.4910    3.4833   19.5285 C   0  0  0  0  0  0  0  0  0  0  0  0
   47.5181    7.2335   23.1283 C   0  0  0  0  0  0  0  0  0  0  0  0
   50.2346    8.3805   17.5897 C   0  0  0  0  0  0  0  0  0  0  0  0
   49.3265   12.5457   17.5777 C   0  0  0  0  0  0  0  0  0  0  0  0
   50.0209   11.4753   15.5288 C   0  0  0  0  0  0  0  0  0  0  0  0
   47.2394    9.4696   22.3406 C   0  0  0  0  0  0  0  0  0  0  0  0
   48.7079    4.1626   17.2516 C   0  0  0  0  0  0  0  0  0  0  0  0
   48.7052    3.1539   18.1966 C   0  0  0  0  0  0  0  0  0  0  0  0
   47.2737    8.5754   23.3940 C   0  0  0  0  0  0  0  0  0  0  0  0
   49.5252    7.8912   21.1065 O   0  0  0  0  0  0  0  0  0  0  0  0
   49.9399    5.9838   20.0079 O   0  0  0  0  0  0  0  0  0  0  0  0
   47.2311   10.3386   19.0020 O   0  0  0  0  0  0  0  0  0  0  0  0
   47.3939    9.9710   16.8003 O   0  0  0  0  0  0  0  0  0  0  0  0
   47.9764    6.5422   18.1039 O   0  0  0  0  0  0  0  0  0  0  0  0
   49.6440    8.3365   17.1559 O   0  0  0  0  0  0  0  0  0  0  0  0
   49.3396    7.0487   20.0643 C   0  0  0  0  0  0  0  0  0  0  0  0
   48.3278    7.5620   19.0460 C   0  0  1  0  0  0  0  0  0  0  0  0
   48.9079    8.7716   18.3083 C   0  0  2  0  0  0  0  0  0  0  0  0
   47.7838    9.7261   17.9340 C   0  0  0  0  0  0  0  0  0  0  0  0
   46.9473    8.2635   17.9663 H   0  0  0  0  0  0  0  0  0  0  0  0
   47.0784    9.1886   19.3729 H   0  0  0  0  0  0  0  0  0  0  0  0
   49.4370    8.5835   17.4798 H   0  0  0  0  0  0  0  0  0  0  0  0
   47.5786   10.0893   16.6259 H   0  0  0  0  0  0  0  0  0  0  0  0
   47.8099   11.1290   18.0106 H   0  0  0  0  0  0  0  0  0  0  0  0
   47.7866    9.4523   21.1728 H   0  0  0  0  0  0  0  0  0  0  0  0
   48.0710    7.0356   16.7167 H   0  0  0  0  0  0  0  0  0  0  0  0
   48.1417    5.2301   23.6725 H   0  0  0  0  0  0  0  0  0  0  0  0
   48.7156    2.6768   18.9114 H   0  0  0  0  0  0  0  0  0  0  0  0
   49.4264   10.4821   19.8827 H   0  0  0  0  0  0  0  0  0  0  0  0
   50.2612    8.9115   19.8188 H   0  0  0  0  0  0  0  0  0  0  0  0
   50.7513   10.2029   18.7476 H   0  0  0  0  0  0  0  0  0  0  0  0
   50.2625   11.3461   14.6901 H   0  0  0  0  0  0  0  0  0  0  0  0
   48.4883   11.1783   14.6978 H   0  0  0  0  0  0  0  0  0  0  0  0
   49.5473    9.7738   15.0190 H   0  0  0  0  0  0  0  0  0  0  0  0
   49.4559   12.8120   17.9248 H   0  0  0  0  0  0  0  0  0  0  0  0
   50.2092   13.0912   16.3529 H   0  0  0  0  0  0  0  0  0  0  0  0
   48.4373   13.0269   16.4754 H   0  0  0  0  0  0  0  0  0  0  0  0
   48.3332    5.0526   15.3852 H   0  0  0  0  0  0  0  0  0  0  0  0
   47.6501    9.4644   23.5693 H   0  0  0  0  0  0  0  0  0  0  0  0
   47.8154    7.3543   24.8603 H   0  0  0  0  0  0  0  0  0  0  0  0
   48.6749    2.8412   16.4605 H   0  0  0  0  0  0  0  0  0  0  0  0
   47.4733    7.7724   17.3437 H   0  0  0  0  0  0  0  0  0  0  0  0
   46.8765    8.8219   18.5201 H   0  0  0  0  0  0  0  0  0  0  0  0
   49.2850    9.6080   19.0402 H   0  0  0  0  0  0  0  0  0  0  0  0
   48.3449    9.8145   16.1331 H   0  0  0  0  0  0  0  0  0  0  0  0
   47.6856   10.7510   17.4566 H   0  0  0  0  0  0  0  0  0  0  0  0
   48.5248    6.2167   16.8438 H   0  0  0  0  0  0  0  0  0  0  0  0
   47.4231    9.7914   20.2708 H   0  0  0  0  0  0  0  0  0  0  0  0
   48.5086    2.6809   20.2644 H   0  0  0  0  0  0  0  0  0  0  0  0
   47.5337    6.5325   23.9619 H   0  0  0  0  0  0  0  0  0  0  0  0
   51.0972    9.0476   17.5033 H   0  0  0  0  0  0  0  0  0  0  0  0
   50.0657    7.9337   16.6043 H   0  0  0  0  0  0  0  0  0  0  0  0
   50.5202    7.5912   18.2910 H   0  0  0  0  0  0  0  0  0  0  0  0
   50.1576   13.2544   17.5119 H   0  0  0  0  0  0  0  0  0  0  0  0
   48.4456   13.0154   17.1249 H   0  0  0  0  0  0  0  0  0  0  0  0
   49.1354   12.3836   18.6442 H   0  0  0  0  0  0  0  0  0  0  0  0
   49.1751   11.8651   14.9494 H   0  0  0  0  0  0  0  0  0  0  0  0
   50.3467   10.5318   15.0708 H   0  0  0  0  0  0  0  0  0  0  0  0
   50.8618   12.1703   15.4288 H   0  0  0  0  0  0  0  0  0  0  0  0
   47.0538   10.5254   22.5281 H   0  0  0  0  0  0  0  0  0  0  0  0
   48.8942    3.9328   16.2058 H   0  0  0  0  0  0  0  0  0  0  0  0
   48.8745    2.1221   17.9016 H   0  0  0  0  0  0  0  0  0  0  0  0
   47.1063    8.9106   24.4143 H   0  0  0  0  0  0  0  0  0  0  0  0
   50.1803    7.4295   21.6797 H   0  0  0  0  0  0  0  0  0  0  0  0
   46.5581   10.9375   18.6166 H   0  0  0  0  0  0  0  0  0  0  0  0
   48.8192    6.1164   17.8474 H   0  0  0  0  0  0  0  0  0  0  0  0
   48.9697    8.1115   16.4844 H   0  0  0  0  0  0  0  0  0  0  0  0
   47.4149    7.8098   19.6074 H   0  0  0  0  0  0  0  0  0  0  0  0
   49.6046    9.3434   18.9352 H   0  0  0  0  0  0  0  0  0  0  0  0
 10  9  1  0
 11  4  2  0
 12  3  2  0
 13  6  2  0
 14  5  2  0
 15  8  1  0
 16 10  1  0
 17 10  1  0
 18 12  1  0
 19 11  1  0
 20 19  2  0
 21 18  2  0
  5  2  1  0
 13 20  1  0
 14 21  1  0
  2  6  1  0
  3  1  1  0
  4  1  1  0
  5  3  1  0
  6  4  1  0
  7  1  1  0
  8  7  1  0
  9  8  1  0
 31 30  1  0
 32 25  2  0
 33 24  2  0
 34 27  2  0
 35 26  2  0
 36 29  1  0
 37 31  1  0
 38 31  1  0
 39 33  1  0
 40 32  1  0
 41 40  2  0
 42 39  2  0
 26 23  1  0
 34 41  1  0
 35 42  1  0
 23 27  1  0
 24 22  1  0
 25 22  1  0
 26 24  1  0
 27 25  1  0
 28 22  1  0
 29 28  1  0
 30 29  1  0
 49 44  2  0
 50 47  1  0
 51 48  1  0
 49 43  1  0
 51 52  1  0
 50 51  1  0
 52 45  1  0
 49 50  1  0
 52 46  2  0
  7 53  1  0
  7 54  1  0
  8 55  1  1
  9 56  1  0
  9 57  1  0
 11 58  1  0
 12 59  1  0
 13 60  1  0
 14 61  1  0
 15 62  1  0
 15 63  1  0
 15 64  1  0
 16 65  1  0
 16 66  1  0
 16 67  1  0
 17 68  1  0
 17 69  1  0
 17 70  1  0
 18 71  1  0
 19 72  1  0
 20 73  1  0
 21 74  1  0
 28 75  1  0
 28 76  1  0
 29 77  1  1
 30 78  1  0
 30 79  1  0
 32 80  1  0
 33 81  1  0
 34 82  1  0
 35 83  1  0
 36 84  1  0
 36 85  1  0
 36 86  1  0
 37 87  1  0
 37 88  1  0
 37 89  1  0
 38 90  1  0
 38 91  1  0
 38 92  1  0
 39 93  1  0
 40 94  1  0
 41 95  1  0
 42 96  1  0
 43 97  1  0
 45 98  1  0
 47 99  1  0
 48100  1  0
 50101  1  6
 51102  1  1
M  END
> <Uni-Dock RESULT> 
ENERGY=   -7.141  LOWER_BOUND=    1.462  UPPER_BOUND=    1.939
INTER + INTRA:          -7.141
INTER:                  -7.141
INTRA:                   0.000
UNBOUND:                 0.000

$$$$

     RDKit          3D

102105  0  0  0  0  0  0  0  0999 V2000
   47.9069    9.4712   19.0642 N   0  0  0  0  0  0  0  0  0  0  0  0
   47.7005    9.2607   22.2246 S   0  0  0  0  0  0  0  0  0  0  0  0
   47.7783    8.1613   19.6291 C   0  0  0  0  0  0  0  0  0  0  0  0
   47.9243   10.6950   19.8061 C   0  0  0  0  0  0  0  0  0  0  0  0
   47.7014    7.9542   21.0216 C   0  0  0  0  0  0  0  0  0  0  0  0
   47.8203   10.7162   21.2117 C   0  0  0  0  0  0  0  0  0  0  0  0
   47.8058    9.5710   17.5842 C   0  0  0  0  0  0  0  0  0  0  0  0
   49.1337    9.2679   16.8427 C   0  0  1  0  0  0  0  0  0  0  0  0
   48.8465    9.2788   15.3231 C   0  0  0  0  0  0  0  0  0  0  0  0
   50.0309    8.8821   14.5490 N   0  0  0  0  0  0  0  0  0  0  0  0
   48.0742   11.9631   19.1918 C   0  0  0  0  0  0  0  0  0  0  0  0
   47.7243    6.9910   18.8348 C   0  0  0  0  0  0  0  0  0  0  0  0
   47.8101   11.9326   21.9314 C   0  0  0  0  0  0  0  0  0  0  0  0
   47.5799    6.6553   21.5627 C   0  0  0  0  0  0  0  0  0  0  0  0
   50.2507   10.2614   17.1831 C   0  0  0  0  0  0  0  0  0  0  0  0
   49.8998    7.5251   14.0101 C   0  0  0  0  0  0  0  0  0  0  0  0
   50.3079    9.8319   13.4696 C   0  0  0  0  0  0  0  0  0  0  0  0
   47.5919    5.7047   19.3734 C   0  0  0  0  0  0  0  0  0  0  0  0
   48.0717   13.1695   19.9108 C   0  0  0  0  0  0  0  0  0  0  0  0
   47.9254   13.1549   21.2835 C   0  0  0  0  0  0  0  0  0  0  0  0
   47.5221    5.5348   20.7423 C   0  0  0  0  0  0  0  0  0  0  0  0
   47.8153    9.3758   19.0229 N   0  0  0  0  0  0  0  0  0  0  0  0
   47.4898   10.1629   22.0802 S   0  0  0  0  0  0  0  0  0  0  0  0
   47.7440   10.7698   19.3418 C   0  0  0  0  0  0  0  0  0  0  0  0
   47.7602    8.3067   19.9695 C   0  0  0  0  0  0  0  0  0  0  0  0
   47.6051   11.2284   20.6695 C   0  0  0  0  0  0  0  0  0  0  0  0
   47.5975    8.5480   21.3493 C   0  0  0  0  0  0  0  0  0  0  0  0
   47.8203    9.0233   17.5802 C   0  0  0  0  0  0  0  0  0  0  0  0
   49.2215    9.1353   16.9144 C   0  0  2  0  0  0  0  0  0  0  0  0
   49.0533    8.9530   15.3844 C   0  0  0  0  0  0  0  0  0  0  0  0
   50.3141    9.1732   14.6568 N   0  0  0  0  0  0  0  0  0  0  0  0
   47.8684    6.9438   19.5994 C   0  0  0  0  0  0  0  0  0  0  0  0
   47.8029   11.7825   18.3505 C   0  0  0  0  0  0  0  0  0  0  0  0
   47.5039    7.4835   22.2728 C   0  0  0  0  0  0  0  0  0  0  0  0
   47.5399   12.6076   20.9645 C   0  0  0  0  0  0  0  0  0  0  0  0
   50.2292    8.1327   17.4840 C   0  0  0  0  0  0  0  0  0  0  0  0
   50.2826   10.4275   13.8918 C   0  0  0  0  0  0  0  0  0  0  0  0
   50.6386    8.0427   13.7834 C   0  0  0  0  0  0  0  0  0  0  0  0
   47.7417   13.1510   18.6489 C   0  0  0  0  0  0  0  0  0  0  0  0
   47.7802    5.8901   20.5185 C   0  0  0  0  0  0  0  0  0  0  0  0
   47.5869    6.1601   21.8603 C   0  0  0  0  0  0  0  0  0  0  0  0
   47.6144   13.5660   19.9612 C   0  0  0  0  0  0  0  0  0  0  0  0
   49.5640   10.9424   19.6688 O   0  0  0  0  0  0  0  0  0  0  0  0
   49.4959    8.9639   20.7166 O   0  0  0  0  0  0  0  0  0  0  0  0
   47.8005   10.7985   16.1261 O   0  0  0  0  0  0  0  0  0  0  0  0
   47.7913    8.7324   15.2660 O   0  0  0  0  0  0  0  0  0  0  0  0
   47.6367    7.9557   18.8949 O   0  0  0  0  0  0  0  0  0  0  0  0
   49.6276    7.8359   17.1858 O   0  0  0  0  0  0  0  0  0  0  0  0
   49.1535    9.6571   19.7681 C   0  0  0  0  0  0  0  0  0  0  0  0
   48.2448    9.2236   18.6234 C   0  0  1  0  0  0  0  0  0  0  0  0
   49.0534    9.1435   17.3259 C   0  0  2  0  0  0  0  0  0  0  0  0
   48.1595    9.4979   16.1468 C   0  0  0  0  0  0  0  0  0  0  0  0
   47.0171    8.8930   17.2280 H   0  0  0  0  0  0  0  0  0  0  0  0
   47.4072   10.5358   17.2484 H   0  0  0  0  0  0  0  0  0  0  0  0
   49.4942    8.2684   17.1224 H   0  0  0  0  0  0  0  0  0  0  0  0
   47.9911    8.6189   15.1055 H   0  0  0  0  0  0  0  0  0  0  0  0
   48.5037   10.2876   15.0367 H   0  0  0  0  0  0  0  0  0  0  0  0
   48.2255   12.0766   18.1242 H   0  0  0  0  0  0  0  0  0  0  0  0
   47.7863    7.0320   17.7542 H   0  0  0  0  0  0  0  0  0  0  0  0
   47.7169   11.9276   23.0151 H   0  0  0  0  0  0  0  0  0  0  0  0
   47.5171    6.5112   22.6417 H   0  0  0  0  0  0  0  0  0  0  0  0
   50.0041   11.2762   16.8554 H   0  0  0  0  0  0  0  0  0  0  0  0
   50.4607   10.2778   18.2563 H   0  0  0  0  0  0  0  0  0  0  0  0
   51.1873    9.9738   16.6958 H   0  0  0  0  0  0  0  0  0  0  0  0
   50.8124    7.2336   13.4772 H   0  0  0  0  0  0  0  0  0  0  0  0
   49.0476    7.4253   13.3195 H   0  0  0  0  0  0  0  0  0  0  0  0
   49.7747    6.8024   14.8296 H   0  0  0  0  0  0  0  0  0  0  0  0
   50.4819   10.8378   13.8819 H   0  0  0  0  0  0  0  0  0  0  0  0
   51.2175    9.5464   12.9293 H   0  0  0  0  0  0  0  0  0  0  0  0
   49.4827    9.8879   12.7487 H   0  0  0  0  0  0  0  0  0  0  0  0
   47.5438    4.8419   18.7126 H   0  0  0  0  0  0  0  0  0  0  0  0
   48.1878   14.1178   19.3870 H   0  0  0  0  0  0  0  0  0  0  0  0
   47.9233   14.0802   21.8518 H   0  0  0  0  0  0  0  0  0  0  0  0
   47.4200    4.5433   21.1741 H   0  0  0  0  0  0  0  0  0  0  0  0
   47.3945    8.0337   17.3850 H   0  0  0  0  0  0  0  0  0  0  0  0
   47.0952    9.6596   17.0553 H   0  0  0  0  0  0  0  0  0  0  0  0
   49.6371   10.1355   17.0962 H   0  0  0  0  0  0  0  0  0  0  0  0
   48.6562    7.9443   15.1951 H   0  0  0  0  0  0  0  0  0  0  0  0
   48.2763    9.6446   15.0276 H   0  0  0  0  0  0  0  0  0  0  0  0
   48.0487    6.6434   18.5745 H   0  0  0  0  0  0  0  0  0  0  0  0
   47.9132   11.5508   17.2956 H   0  0  0  0  0  0  0  0  0  0  0  0
   47.3687    7.6820   23.3349 H   0  0  0  0  0  0  0  0  0  0  0  0
   47.4294   12.9412   21.9956 H   0  0  0  0  0  0  0  0  0  0  0  0
   51.2160    8.2744   17.0335 H   0  0  0  0  0  0  0  0  0  0  0  0
   49.9262    7.0983   17.2908 H   0  0  0  0  0  0  0  0  0  0  0  0
   50.3566    8.2677   18.5619 H   0  0  0  0  0  0  0  0  0  0  0  0
   51.2487   10.6131   13.4128 H   0  0  0  0  0  0  0  0  0  0  0  0
   49.5132   10.4264   13.1108 H   0  0  0  0  0  0  0  0  0  0  0  0
   50.1011   11.2688   14.5696 H   0  0  0  0  0  0  0  0  0  0  0  0
   49.8805    7.8883   13.0058 H   0  0  0  0  0  0  0  0  0  0  0  0
   50.7256    7.1173   14.3683 H   0  0  0  0  0  0  0  0  0  0  0  0
   51.6099    8.1909   13.2988 H   0  0  0  0  0  0  0  0  0  0  0  0
   47.8059   13.8859   17.8489 H   0  0  0  0  0  0  0  0  0  0  0  0
   47.8695    4.8631   20.1739 H   0  0  0  0  0  0  0  0  0  0  0  0
   47.5080    5.3498   22.5796 H   0  0  0  0  0  0  0  0  0  0  0  0
   47.5663   14.6234   20.2082 H   0  0  0  0  0  0  0  0  0  0  0  0
   50.1200   11.0834   20.4701 H   0  0  0  0  0  0  0  0  0  0  0  0
   47.2653   10.8894   15.3104 H   0  0  0  0  0  0  0  0  0  0  0  0
   48.3514    7.3894   19.2496 H   0  0  0  0  0  0  0  0  0  0  0  0
   48.8946    7.2582   16.8940 H   0  0  0  0  0  0  0  0  0  0  0  0
   47.4334    9.9644   18.5683 H   0  0  0  0  0  0  0  0  0  0  0  0
   49.8846    9.8607   17.3116 H   0  0  0  0  0  0  0  0  0  0  0  0
 10  9  1  0
 11  4  2  0
 12  3  2  0
 13  6  2  0
 14  5  2  0
 15  8  1  0
 16 10  1  0
 17 10  1  0
 18 12  1  0
 19 11  1  0
 20 19  2  0
 21 18  2  0
  5  2  1  0
 13 20  1  0
 14 21  1  0
  2  6  1  0
  3  1  1  0
  4  1  1  0
  5  3  1  0
  6  4  1  0
  7  1  1  0
  8  7  1  0
  9  8  1  0
 31 30  1  0
 32 25  2  0
 33 24  2  0
 34 27  2  0
 35 26  2  0
 36 29  1  0
 37 31  1  0
 38 31  1  0
 39 33  1  0
 40 32  1  0
 41 40  2  0
 42 39  2  0
 26 23  1  0
 34 41  1  0
 35 42  1  0
 23 27  1  0
 24 22  1  0
 25 22  1  0
 26 24  1  0
 27 25  1  0
 28 22  1  0
 29 28  1  0
 30 29  1  0
 49 44  2  0
 50 47  1  0
 51 48  1  0
 49 43  1  0
 51 52  1  0
 50 51  1  0
 52 45  1  0
 49 50  1  0
 52 46  2  0
  7 53  1  0
  7 54  1  0
  8 55  1  1
  9 56  1  0
  9 57  1  0
 11 58  1  0
 12 59  1  0
 13 60  1  0
 14 61  1  0
 15 62  1  0
 15 63  1  0
 15 64  1  0
 16 65  1  0
 16 66  1  0
 16 67  1  0
 17 68  1  0
 17 69  1  0
 17 70  1  0
 18 71  1  0
 19 72  1  0
 20 73  1  0
 21 74  1  0
 28 75  1  0
 28 76  1  0
 29 77  1  1
 30 78  1  0
 30 79  1  0
 32 80  1  0
 33 81  1  0
 34 82  1  0
 35 83  1  0
 36 84  1  0
 36 85  1  0
 36 86  1  0
 37 87  1  0
 37 88  1  0
 37 89  1  0
 38 90  1  0
 38 91  1  0
 38 92  1  0
 39 93  1  0
 40 94  1  0
 41 95  1  0
 42 96  1  0
 43 97  1  0
 45 98  1  0
 47 99  1  0
 48100  1  0
 50101  1  6
 51102  1  1
M  END
> <Uni-Dock RESULT> 
ENERGY=   -7.130  LOWER_BOUND=    2.333  UPPER_BOUND=    4.756
INTER + INTRA:          -7.130
INTER:                  -7.130
INTRA:                   0.000
UNBOUND:                 0.000

$$$$

     RDKit          3D

102105  0  0  0  0  0  0  0  0999 V2000
   47.9069    9.4712   19.0642 N   0  0  0  0  0  0  0  0  0  0  0  0
   47.7005    9.2607   22.2246 S   0  0  0  0  0  0  0  0  0  0  0  0
   47.7783    8.1613   19.6291 C   0  0  0  0  0  0  0  0  0  0  0  0
   47.9243   10.6950   19.8061 C   0  0  0  0  0  0  0  0  0  0  0  0
   47.7014    7.9542   21.0216 C   0  0  0  0  0  0  0  0  0  0  0  0
   47.8204   10.7162   21.2118 C   0  0  0  0  0  0  0  0  0  0  0  0
   47.8058    9.5710   17.5842 C   0  0  0  0  0  0  0  0  0  0  0  0
   49.1338    9.2679   16.8427 C   0  0  1  0  0  0  0  0  0  0  0  0
   48.8465    9.2788   15.3231 C   0  0  0  0  0  0  0  0  0  0  0  0
   50.0309    8.8821   14.5490 N   0  0  0  0  0  0  0  0  0  0  0  0
   48.0742   11.9631   19.1919 C   0  0  0  0  0  0  0  0  0  0  0  0
   47.7243    6.9910   18.8348 C   0  0  0  0  0  0  0  0  0  0  0  0
   47.8101   11.9326   21.9315 C   0  0  0  0  0  0  0  0  0  0  0  0
   47.5799    6.6553   21.5627 C   0  0  0  0  0  0  0  0  0  0  0  0
   50.2507   10.2613   17.1831 C   0  0  0  0  0  0  0  0  0  0  0  0
   49.8998    7.5251   14.0101 C   0  0  0  0  0  0  0  0  0  0  0  0
   50.3080    9.8318   13.4696 C   0  0  0  0  0  0  0  0  0  0  0  0
   47.5919    5.7047   19.3734 C   0  0  0  0  0  0  0  0  0  0  0  0
   48.0718   13.1695   19.9108 C   0  0  0  0  0  0  0  0  0  0  0  0
   47.9255   13.1549   21.2835 C   0  0  0  0  0  0  0  0  0  0  0  0
   47.5221    5.5348   20.7423 C   0  0  0  0  0  0  0  0  0  0  0  0
   47.8153    9.3758   19.0229 N   0  0  0  0  0  0  0  0  0  0  0  0
   47.4898   10.1629   22.0802 S   0  0  0  0  0  0  0  0  0  0  0  0
   47.7441   10.7698   19.3419 C   0  0  0  0  0  0  0  0  0  0  0  0
   47.7602    8.3066   19.9696 C   0  0  0  0  0  0  0  0  0  0  0  0
   47.6051   11.2284   20.6695 C   0  0  0  0  0  0  0  0  0  0  0  0
   47.5975    8.5480   21.3493 C   0  0  0  0  0  0  0  0  0  0  0  0
   47.8203    9.0232   17.5802 C   0  0  0  0  0  0  0  0  0  0  0  0
   49.2215    9.1352   16.9144 C   0  0  2  0  0  0  0  0  0  0  0  0
   49.0533    8.9530   15.3844 C   0  0  0  0  0  0  0  0  0  0  0  0
   50.3141    9.1732   14.6568 N   0  0  0  0  0  0  0  0  0  0  0  0
   47.8684    6.9438   19.5994 C   0  0  0  0  0  0  0  0  0  0  0  0
   47.8029   11.7825   18.3505 C   0  0  0  0  0  0  0  0  0  0  0  0
   47.5039    7.4834   22.2728 C   0  0  0  0  0  0  0  0  0  0  0  0
   47.5399   12.6076   20.9646 C   0  0  0  0  0  0  0  0  0  0  0  0
   50.2292    8.1327   17.4840 C   0  0  0  0  0  0  0  0  0  0  0  0
   50.2826   10.4275   13.8918 C   0  0  0  0  0  0  0  0  0  0  0  0
   50.6386    8.0426   13.7834 C   0  0  0  0  0  0  0  0  0  0  0  0
   47.7417   13.1510   18.6489 C   0  0  0  0  0  0  0  0  0  0  0  0
   47.7802    5.8901   20.5186 C   0  0  0  0  0  0  0  0  0  0  0  0
   47.5869    6.1601   21.8603 C   0  0  0  0  0  0  0  0  0  0  0  0
   47.6144   13.5660   19.9612 C   0  0  0  0  0  0  0  0  0  0  0  0
   49.5640   10.9424   19.6688 O   0  0  0  0  0  0  0  0  0  0  0  0
   49.4959    8.9639   20.7166 O   0  0  0  0  0  0  0  0  0  0  0  0
   47.8006   10.7985   16.1261 O   0  0  0  0  0  0  0  0  0  0  0  0
   47.7914    8.7324   15.2660 O   0  0  0  0  0  0  0  0  0  0  0  0
   47.6367    7.9557   18.8949 O   0  0  0  0  0  0  0  0  0  0  0  0
   49.6277    7.8359   17.1859 O   0  0  0  0  0  0  0  0  0  0  0  0
   49.1535    9.6571   19.7681 C   0  0  0  0  0  0  0  0  0  0  0  0
   48.2448    9.2236   18.6234 C   0  0  1  0  0  0  0  0  0  0  0  0
   49.0534    9.1435   17.3259 C   0  0  2  0  0  0  0  0  0  0  0  0
   48.1596    9.4979   16.1468 C   0  0  0  0  0  0  0  0  0  0  0  0
   47.0171    8.8930   17.2280 H   0  0  0  0  0  0  0  0  0  0  0  0
   47.4072   10.5358   17.2484 H   0  0  0  0  0  0  0  0  0  0  0  0
   49.4942    8.2684   17.1224 H   0  0  0  0  0  0  0  0  0  0  0  0
   47.9911    8.6189   15.1055 H   0  0  0  0  0  0  0  0  0  0  0  0
   48.5037   10.2876   15.0367 H   0  0  0  0  0  0  0  0  0  0  0  0
   48.2255   12.0766   18.1242 H   0  0  0  0  0  0  0  0  0  0  0  0
   47.7863    7.0320   17.7542 H   0  0  0  0  0  0  0  0  0  0  0  0
   47.7170   11.9275   23.0151 H   0  0  0  0  0  0  0  0  0  0  0  0
   47.5171    6.5112   22.6417 H   0  0  0  0  0  0  0  0  0  0  0  0
   50.0041   11.2762   16.8554 H   0  0  0  0  0  0  0  0  0  0  0  0
   50.4607   10.2778   18.2563 H   0  0  0  0  0  0  0  0  0  0  0  0
   51.1873    9.9738   16.6958 H   0  0  0  0  0  0  0  0  0  0  0  0
   50.8124    7.2336   13.4772 H   0  0  0  0  0  0  0  0  0  0  0  0
   49.0476    7.4253   13.3195 H   0  0  0  0  0  0  0  0  0  0  0  0
   49.7747    6.8024   14.8296 H   0  0  0  0  0  0  0  0  0  0  0  0
   50.4819   10.8378   13.8819 H   0  0  0  0  0  0  0  0  0  0  0  0
   51.2175    9.5463   12.9293 H   0  0  0  0  0  0  0  0  0  0  0  0
   49.4827    9.8879   12.7488 H   0  0  0  0  0  0  0  0  0  0  0  0
   47.5438    4.8419   18.7126 H   0  0  0  0  0  0  0  0  0  0  0  0
   48.1878   14.1177   19.3870 H   0  0  0  0  0  0  0  0  0  0  0  0
   47.9234   14.0802   21.8518 H   0  0  0  0  0  0  0  0  0  0  0  0
   47.4200    4.5433   21.1741 H   0  0  0  0  0  0  0  0  0  0  0  0
   47.3945    8.0337   17.3850 H   0  0  0  0  0  0  0  0  0  0  0  0
   47.0952    9.6596   17.0554 H   0  0  0  0  0  0  0  0  0  0  0  0
   49.6371   10.1355   17.0962 H   0  0  0  0  0  0  0  0  0  0  0  0
   48.6562    7.9443   15.1951 H   0  0  0  0  0  0  0  0  0  0  0  0
   48.2763    9.6446   15.0276 H   0  0  0  0  0  0  0  0  0  0  0  0
   48.0487    6.6434   18.5745 H   0  0  0  0  0  0  0  0  0  0  0  0
   47.9132   11.5508   17.2956 H   0  0  0  0  0  0  0  0  0  0  0  0
   47.3687    7.6820   23.3349 H   0  0  0  0  0  0  0  0  0  0  0  0
   47.4295   12.9412   21.9956 H   0  0  0  0  0  0  0  0  0  0  0  0
   51.2160    8.2744   17.0335 H   0  0  0  0  0  0  0  0  0  0  0  0
   49.9262    7.0982   17.2908 H   0  0  0  0  0  0  0  0  0  0  0  0
   50.3566    8.2677   18.5619 H   0  0  0  0  0  0  0  0  0  0  0  0
   51.2487   10.6130   13.4128 H   0  0  0  0  0  0  0  0  0  0  0  0
   49.5132   10.4264   13.1108 H   0  0  0  0  0  0  0  0  0  0  0  0
   50.1011   11.2687   14.5697 H   0  0  0  0  0  0  0  0  0  0  0  0
   49.8805    7.8883   13.0058 H   0  0  0  0  0  0  0  0  0  0  0  0
   50.7256    7.1173   14.3683 H   0  0  0  0  0  0  0  0  0  0  0  0
   51.6099    8.1909   13.2988 H   0  0  0  0  0  0  0  0  0  0  0  0
   47.8060   13.8859   17.8489 H   0  0  0  0  0  0  0  0  0  0  0  0
   47.8695    4.8631   20.1739 H   0  0  0  0  0  0  0  0  0  0  0  0
   47.5080    5.3498   22.5796 H   0  0  0  0  0  0  0  0  0  0  0  0
   47.5663   14.6234   20.2083 H   0  0  0  0  0  0  0  0  0  0  0  0
   50.1200   11.0834   20.4701 H   0  0  0  0  0  0  0  0  0  0  0  0
   47.2653   10.8894   15.3104 H   0  0  0  0  0  0  0  0  0  0  0  0
   48.3515    7.3894   19.2496 H   0  0  0  0  0  0  0  0  0  0  0  0
   48.8946    7.2582   16.8940 H   0  0  0  0  0  0  0  0  0  0  0  0
   47.4334    9.9644   18.5683 H   0  0  0  0  0  0  0  0  0  0  0  0
   49.8846    9.8607   17.3116 H   0  0  0  0  0  0  0  0  0  0  0  0
 10  9  1  0
 11  4  2  0
 12  3  2  0
 13  6  2  0
 14  5  2  0
 15  8  1  0
 16 10  1  0
 17 10  1  0
 18 12  1  0
 19 11  1  0
 20 19  2  0
 21 18  2  0
  5  2  1  0
 13 20  1  0
 14 21  1  0
  2  6  1  0
  3  1  1  0
  4  1  1  0
  5  3  1  0
  6  4  1  0
  7  1  1  0
  8  7  1  0
  9  8  1  0
 31 30  1  0
 32 25  2  0
 33 24  2  0
 34 27  2  0
 35 26  2  0
 36 29  1  0
 37 31  1  0
 38 31  1  0
 39 33  1  0
 40 32  1  0
 41 40  2  0
 42 39  2  0
 26 23  1  0
 34 41  1  0
 35 42  1  0
 23 27  1  0
 24 22  1  0
 25 22  1  0
 26 24  1  0
 27 25  1  0
 28 22  1  0
 29 28  1  0
 30 29  1  0
 49 44  2  0
 50 47  1  0
 51 48  1  0
 49 43  1  0
 51 52  1  0
 50 51  1  0
 52 45  1  0
 49 50  1  0
 52 46  2  0
  7 53  1  0
  7 54  1  0
  8 55  1  1
  9 56  1  0
  9 57  1  0
 11 58  1  0
 12 59  1  0
 13 60  1  0
 14 61  1  0
 15 62  1  0
 15 63  1  0
 15 64  1  0
 16 65  1  0
 16 66  1  0
 16 67  1  0
 17 68  1  0
 17 69  1  0
 17 70  1  0
 18 71  1  0
 19 72  1  0
 20 73  1  0
 21 74  1  0
 28 75  1  0
 28 76  1  0
 29 77  1  1
 30 78  1  0
 30 79  1  0
 32 80  1  0
 33 81  1  0
 34 82  1  0
 35 83  1  0
 36 84  1  0
 36 85  1  0
 36 86  1  0
 37 87  1  0
 37 88  1  0
 37 89  1  0
 38 90  1  0
 38 91  1  0
 38 92  1  0
 39 93  1  0
 40 94  1  0
 41 95  1  0
 42 96  1  0
 43 97  1  0
 45 98  1  0
 47 99  1  0
 48100  1  0
 50101  1  6
 51102  1  1
M  END
> <Uni-Dock RESULT> 
ENERGY=   -7.130  LOWER_BOUND=    2.333  UPPER_BOUND=    4.756
INTER + INTRA:          -7.130
INTER:                  -7.130
INTRA:                   0.000
UNBOUND:                 0.000

$$$$

     RDKit          3D

102105  0  0  0  0  0  0  0  0999 V2000
   48.0061    8.8802   20.7945 N   0  0  0  0  0  0  0  0  0  0  0  0
   48.0734    6.1184   19.2315 S   0  0  0  0  0  0  0  0  0  0  0  0
   48.1038    8.9348   19.3666 C   0  0  0  0  0  0  0  0  0  0  0  0
   47.9106    7.6829   21.5729 C   0  0  0  0  0  0  0  0  0  0  0  0
   48.1631    7.7674   18.5783 C   0  0  0  0  0  0  0  0  0  0  0  0
   47.9126    6.4049   20.9781 C   0  0  0  0  0  0  0  0  0  0  0  0
   47.7791   10.1711   21.4963 C   0  0  0  0  0  0  0  0  0  0  0  0
   49.0756   10.9832   21.7510 C   0  0  1  0  0  0  0  0  0  0  0  0
   48.6742   12.3465   22.3610 C   0  0  0  0  0  0  0  0  0  0  0  0
   49.8394   13.2271   22.5234 N   0  0  0  0  0  0  0  0  0  0  0  0
   47.8360    7.6910   22.9880 C   0  0  0  0  0  0  0  0  0  0  0  0
   48.1518   10.1559   18.6524 C   0  0  0  0  0  0  0  0  0  0  0  0
   47.7891    5.2306   21.7550 C   0  0  0  0  0  0  0  0  0  0  0  0
   48.2645    7.8388   17.1713 C   0  0  0  0  0  0  0  0  0  0  0  0
   50.0670   10.2579   22.6684 C   0  0  0  0  0  0  0  0  0  0  0  0
   49.8566   14.2976   21.5221 C   0  0  0  0  0  0  0  0  0  0  0  0
   49.8988   13.7934   23.8724 C   0  0  0  0  0  0  0  0  0  0  0  0
   48.2404   10.2240   17.2562 C   0  0  0  0  0  0  0  0  0  0  0  0
   47.7215    6.5218   23.7574 C   0  0  0  0  0  0  0  0  0  0  0  0
   47.6841    5.2885   23.1380 C   0  0  0  0  0  0  0  0  0  0  0  0
   48.2998    9.0619   16.5120 C   0  0  0  0  0  0  0  0  0  0  0  0
   47.9257    8.9578   20.7126 N   0  0  0  0  0  0  0  0  0  0  0  0
   47.7293    5.8572   20.0638 S   0  0  0  0  0  0  0  0  0  0  0  0
   47.6867    8.0677   21.8084 C   0  0  0  0  0  0  0  0  0  0  0  0
   48.0919    8.5648   19.3487 C   0  0  0  0  0  0  0  0  0  0  0  0
   47.5876    6.6708   21.6311 C   0  0  0  0  0  0  0  0  0  0  0  0
   48.0034    7.2145   18.9519 C   0  0  0  0  0  0  0  0  0  0  0  0
   47.8690   10.4113   21.0121 C   0  0  0  0  0  0  0  0  0  0  0  0
   49.1862   10.9766   21.6162 C   0  0  2  0  0  0  0  0  0  0  0  0
   48.9282   12.4338   22.0772 C   0  0  0  0  0  0  0  0  0  0  0  0
   50.0869   13.0069   22.7818 N   0  0  0  0  0  0  0  0  0  0  0  0
   48.3591    9.4879   18.3083 C   0  0  0  0  0  0  0  0  0  0  0  0
   47.5287    8.5253   23.1415 C   0  0  0  0  0  0  0  0  0  0  0  0
   48.1290    6.8402   17.5958 C   0  0  0  0  0  0  0  0  0  0  0  0
   47.3548    5.8089   22.7248 C   0  0  0  0  0  0  0  0  0  0  0  0
   50.3636   10.9050   20.6397 C   0  0  0  0  0  0  0  0  0  0  0  0
   49.8235   13.1552   24.2199 C   0  0  0  0  0  0  0  0  0  0  0  0
   50.4971   14.2857   22.1964 C   0  0  0  0  0  0  0  0  0  0  0  0
   47.3015    7.6650   24.2249 C   0  0  0  0  0  0  0  0  0  0  0  0
   48.4883    9.1128   16.9645 C   0  0  0  0  0  0  0  0  0  0  0  0
   48.3627    7.7842   16.6046 C   0  0  0  0  0  0  0  0  0  0  0  0
   47.2188    6.3009   24.0172 C   0  0  0  0  0  0  0  0  0  0  0  0
   49.4849    7.7153   22.1108 O   0  0  0  0  0  0  0  0  0  0  0  0
   49.7718    7.6235   19.8913 O   0  0  0  0  0  0  0  0  0  0  0  0
   47.4924   10.9564   23.2092 O   0  0  0  0  0  0  0  0  0  0  0  0
   47.7036   12.6239   21.7316 O   0  0  0  0  0  0  0  0  0  0  0  0
   47.9362    9.6845   19.4730 O   0  0  0  0  0  0  0  0  0  0  0  0
   49.7879   11.2964   20.4068 O   0  0  0  0  0  0  0  0  0  0  0  0
   49.2651    8.1767   20.8581 C   0  0  0  0  0  0  0  0  0  0  0  0
   48.3403    9.3878   20.8145 C   0  0  1  0  0  0  0  0  0  0  0  0
   49.0505   10.6003   21.4222 C   0  0  2  0  0  0  0  0  0  0  0  0
   48.0286   11.5025   22.0978 C   0  0  0  0  0  0  0  0  0  0  0  0
   47.0670   10.7776   20.9188 H   0  0  0  0  0  0  0  0  0  0  0  0
   47.2263   10.0538   22.4361 H   0  0  0  0  0  0  0  0  0  0  0  0
   49.5914   11.1658   20.7982 H   0  0  0  0  0  0  0  0  0  0  0  0
   47.9043   12.8196   21.7301 H   0  0  0  0  0  0  0  0  0  0  0  0
   48.1741   12.1662   23.3277 H   0  0  0  0  0  0  0  0  0  0  0  0
   47.8879    8.6065   23.5666 H   0  0  0  0  0  0  0  0  0  0  0  0
   48.1246   11.1135   19.1579 H   0  0  0  0  0  0  0  0  0  0  0  0
   47.7807    4.2544   21.2754 H   0  0  0  0  0  0  0  0  0  0  0  0
   48.3050    6.9272   16.5745 H   0  0  0  0  0  0  0  0  0  0  0  0
   49.6578   10.1131   23.6732 H   0  0  0  0  0  0  0  0  0  0  0  0
   50.3542    9.2847   22.2601 H   0  0  0  0  0  0  0  0  0  0  0  0
   50.9943   10.8303   22.7670 H   0  0  0  0  0  0  0  0  0  0  0  0
   50.7573   14.9127   21.6328 H   0  0  0  0  0  0  0  0  0  0  0  0
   48.9761   14.9557   21.5919 H   0  0  0  0  0  0  0  0  0  0  0  0
   49.8959   13.8692   20.5099 H   0  0  0  0  0  0  0  0  0  0  0  0
   49.9628   12.9890   24.6213 H   0  0  0  0  0  0  0  0  0  0  0  0
   50.7950   14.4125   23.9911 H   0  0  0  0  0  0  0  0  0  0  0  0
   49.0210   14.4117   24.0982 H   0  0  0  0  0  0  0  0  0  0  0  0
   48.2618   11.1920   16.7602 H   0  0  0  0  0  0  0  0  0  0  0  0
   47.6646    6.5861   24.8435 H   0  0  0  0  0  0  0  0  0  0  0  0
   47.5974    4.3766   23.7210 H   0  0  0  0  0  0  0  0  0  0  0  0
   48.3693    9.0994   15.4287 H   0  0  0  0  0  0  0  0  0  0  0  0
   47.5708   11.0105   20.1458 H   0  0  0  0  0  0  0  0  0  0  0  0
   47.0248   10.6032   21.6877 H   0  0  0  0  0  0  0  0  0  0  0  0
   49.4719   10.3848   22.4961 H   0  0  0  0  0  0  0  0  0  0  0  0
   48.6613   13.0362   21.1958 H   0  0  0  0  0  0  0  0  0  0  0  0
   48.0379   12.4498   22.7226 H   0  0  0  0  0  0  0  0  0  0  0  0
   48.5003   10.5437   18.5044 H   0  0  0  0  0  0  0  0  0  0  0  0
   47.5890    9.5779   23.4007 H   0  0  0  0  0  0  0  0  0  0  0  0
   48.0494    5.7952   17.3001 H   0  0  0  0  0  0  0  0  0  0  0  0
   47.2784    4.7338   22.5667 H   0  0  0  0  0  0  0  0  0  0  0  0
   51.2838   11.2594   21.1133 H   0  0  0  0  0  0  0  0  0  0  0  0
   50.1929   11.5229   19.7519 H   0  0  0  0  0  0  0  0  0  0  0  0
   50.5532    9.8756   20.3222 H   0  0  0  0  0  0  0  0  0  0  0  0
   50.7152   13.5163   24.7414 H   0  0  0  0  0  0  0  0  0  0  0  0
   49.0042   13.8529   24.4292 H   0  0  0  0  0  0  0  0  0  0  0  0
   49.5797   12.1790   24.6531 H   0  0  0  0  0  0  0  0  0  0  0  0
   49.7104   15.0466   22.2695 H   0  0  0  0  0  0  0  0  0  0  0  0
   50.7559   14.1583   21.1368 H   0  0  0  0  0  0  0  0  0  0  0  0
   51.3985   14.6679   22.6879 H   0  0  0  0  0  0  0  0  0  0  0  0
   47.2020    8.0700   25.2301 H   0  0  0  0  0  0  0  0  0  0  0  0
   48.6923    9.8678   16.2097 H   0  0  0  0  0  0  0  0  0  0  0  0
   48.4521    7.4844   15.5643 H   0  0  0  0  0  0  0  0  0  0  0  0
   47.0438    5.6213   24.8471 H   0  0  0  0  0  0  0  0  0  0  0  0
   50.0757    6.9369   21.9839 H   0  0  0  0  0  0  0  0  0  0  0  0
   46.8889   11.6480   23.5523 H   0  0  0  0  0  0  0  0  0  0  0  0
   48.7476    9.6157   18.9304 H   0  0  0  0  0  0  0  0  0  0  0  0
   49.1218   11.8021   19.9001 H   0  0  0  0  0  0  0  0  0  0  0  0
   47.4323    9.1102   21.3700 H   0  0  0  0  0  0  0  0  0  0  0  0
   49.7708   10.3115   22.1988 H   0  0  0  0  0  0  0  0  0  0  0  0
 10  9  1  0
 11  4  2  0
 12  3  2  0
 13  6  2  0
 14  5  2  0
 15  8  1  0
 16 10  1  0
 17 10  1  0
 18 12  1  0
 19 11  1  0
 20 19  2  0
 21 18  2  0
  5  2  1  0
 13 20  1  0
 14 21  1  0
  2  6  1  0
  3  1  1  0
  4  1  1  0
  5  3  1  0
  6  4  1  0
  7  1  1  0
  8  7  1  0
  9  8  1  0
 31 30  1  0
 32 25  2  0
 33 24  2  0
 34 27  2  0
 35 26  2  0
 36 29  1  0
 37 31  1  0
 38 31  1  0
 39 33  1  0
 40 32  1  0
 41 40  2  0
 42 39  2  0
 26 23  1  0
 34 41  1  0
 35 42  1  0
 23 27  1  0
 24 22  1  0
 25 22  1  0
 26 24  1  0
 27 25  1  0
 28 22  1  0
 29 28  1  0
 30 29  1  0
 49 44  2  0
 50 47  1  0
 51 48  1  0
 49 43  1  0
 51 52  1  0
 50 51  1  0
 52 45  1  0
 49 50  1  0
 52 46  2  0
  7 53  1  0
  7 54  1  0
  8 55  1  1
  9 56  1  0
  9 57  1  0
 11 58  1  0
 12 59  1  0
 13 60  1  0
 14 61  1  0
 15 62  1  0
 15 63  1  0
 15 64  1  0
 16 65  1  0
 16 66  1  0
 16 67  1  0
 17 68  1  0
 17 69  1  0
 17 70  1  0
 18 71  1  0
 19 72  1  0
 20 73  1  0
 21 74  1  0
 28 75  1  0
 28 76  1  0
 29 77  1  1
 30 78  1  0
 30 79  1  0
 32 80  1  0
 33 81  1  0
 34 82  1  0
 35 83  1  0
 36 84  1  0
 36 85  1  0
 36 86  1  0
 37 87  1  0
 37 88  1  0
 37 89  1  0
 38 90  1  0
 38 91  1  0
 38 92  1  0
 39 93  1  0
 40 94  1  0
 41 95  1  0
 42 96  1  0
 43 97  1  0
 45 98  1  0
 47 99  1  0
 48100  1  0
 50101  1  6
 51102  1  1
M  END
> <Uni-Dock RESULT> 
ENERGY=   -7.114  LOWER_BOUND=    1.625  UPPER_BOUND=    2.293
INTER + INTRA:          -7.114
INTER:                  -7.114
INTRA:                   0.000
UNBOUND:                 0.000

$$$$

     RDKit          3D

102105  0  0  0  0  0  0  0  0999 V2000
   44.9086   11.7373    8.7402 N   0  0  0  0  0  0  0  0  0  0  0  0
   47.1473   12.8641    6.7925 S   0  0  0  0  0  0  0  0  0  0  0  0
   44.6620   11.6462    7.3322 C   0  0  0  0  0  0  0  0  0  0  0  0
   46.0928   12.2716    9.3407 C   0  0  0  0  0  0  0  0  0  0  0  0
   45.5805   12.1362    6.3813 C   0  0  0  0  0  0  0  0  0  0  0  0
   47.1560   12.7810    8.5678 C   0  0  0  0  0  0  0  0  0  0  0  0
   43.9486   11.0340    9.6312 C   0  0  0  0  0  0  0  0  0  0  0  0
   42.6660   11.8494    9.9399 C   0  0  1  0  0  0  0  0  0  0  0  0
   41.7120   10.9488   10.7589 C   0  0  0  0  0  0  0  0  0  0  0  0
   40.4191   11.6071   10.9924 N   0  0  0  0  0  0  0  0  0  0  0  0
   46.2721   12.3538   10.7439 C   0  0  0  0  0  0  0  0  0  0  0  0
   43.4854   11.0661    6.8008 C   0  0  0  0  0  0  0  0  0  0  0  0
   48.3326   13.2799    9.1714 C   0  0  0  0  0  0  0  0  0  0  0  0
   45.3196   12.0431    4.9963 C   0  0  0  0  0  0  0  0  0  0  0  0
   42.9513   13.1526   10.6953 C   0  0  0  0  0  0  0  0  0  0  0  0
   39.3585   11.0361   10.1569 C   0  0  0  0  0  0  0  0  0  0  0  0
   40.0372   11.5516   12.4049 C   0  0  0  0  0  0  0  0  0  0  0  0
   43.2344   10.9643    5.4265 C   0  0  0  0  0  0  0  0  0  0  0  0
   47.4394   12.8576   11.3405 C   0  0  0  0  0  0  0  0  0  0  0  0
   48.4783   13.3094   10.5516 C   0  0  0  0  0  0  0  0  0  0  0  0
   44.1530   11.4567    4.5200 C   0  0  0  0  0  0  0  0  0  0  0  0
   44.8681   11.6225    8.6741 N   0  0  0  0  0  0  0  0  0  0  0  0
   47.6248   12.7648    7.5933 S   0  0  0  0  0  0  0  0  0  0  0  0
   45.8810   11.9260    9.6396 C   0  0  0  0  0  0  0  0  0  0  0  0
   44.9921   11.7992    7.2615 C   0  0  0  0  0  0  0  0  0  0  0  0
   47.1402   12.4436    9.2668 C   0  0  0  0  0  0  0  0  0  0  0  0
   46.1817   12.2818    6.6780 C   0  0  0  0  0  0  0  0  0  0  0  0
   43.6433   10.9544    9.1832 C   0  0  0  0  0  0  0  0  0  0  0  0
   42.6067   11.9360    9.8005 C   0  0  2  0  0  0  0  0  0  0  0  0
   41.4882   11.1049   10.4792 C   0  0  0  0  0  0  0  0  0  0  0  0
   40.5280   11.9532   11.2043 N   0  0  0  0  0  0  0  0  0  0  0  0
   43.9432   11.5118    6.3543 C   0  0  0  0  0  0  0  0  0  0  0  0
   45.6929   11.7243   11.0308 C   0  0  0  0  0  0  0  0  0  0  0  0
   46.3087   12.4151    5.2777 C   0  0  0  0  0  0  0  0  0  0  0  0
   48.1253   12.7398   10.2339 C   0  0  0  0  0  0  0  0  0  0  0  0
   42.0261   12.9086    8.7700 C   0  0  0  0  0  0  0  0  0  0  0  0
   40.6723   11.8075   12.6595 C   0  0  0  0  0  0  0  0  0  0  0  0
   39.1486   11.6826   10.7917 C   0  0  0  0  0  0  0  0  0  0  0  0
   46.6728   12.0238   11.9877 C   0  0  0  0  0  0  0  0  0  0  0  0
   44.0705   11.6499    4.9659 C   0  0  0  0  0  0  0  0  0  0  0  0
   45.2618   12.0939    4.4237 C   0  0  0  0  0  0  0  0  0  0  0  0
   47.8922   12.5380   11.5888 C   0  0  0  0  0  0  0  0  0  0  0  0
   45.4018   13.7128    9.8035 O   0  0  0  0  0  0  0  0  0  0  0  0
   45.1127   13.7702    7.5830 O   0  0  0  0  0  0  0  0  0  0  0  0
   43.5709   10.6122   11.4513 O   0  0  0  0  0  0  0  0  0  0  0  0
   41.8434    9.8953   10.2223 O   0  0  0  0  0  0  0  0  0  0  0  0
   44.0884   11.1736    7.5536 O   0  0  0  0  0  0  0  0  0  0  0  0
   41.9190   12.1974    8.6234 O   0  0  0  0  0  0  0  0  0  0  0  0
   44.9603   13.1768    8.6424 C   0  0  0  0  0  0  0  0  0  0  0  0
   44.3098   11.8092    8.8178 C   0  0  1  0  0  0  0  0  0  0  0  0
   42.9800   11.9630    9.5607 C   0  0  2  0  0  0  0  0  0  0  0  0
   42.7240   10.7247   10.4067 C   0  0  0  0  0  0  0  0  0  0  0  0
   43.6769   10.0683    9.1815 H   0  0  0  0  0  0  0  0  0  0  0  0
   44.4062   10.6965   10.5689 H   0  0  0  0  0  0  0  0  0  0  0  0
   42.1663   12.1233    9.0005 H   0  0  0  0  0  0  0  0  0  0  0  0
   41.5788    9.9859   10.2398 H   0  0  0  0  0  0  0  0  0  0  0  0
   42.2039   10.6892   11.7116 H   0  0  0  0  0  0  0  0  0  0  0  0
   45.5026   12.0527   11.4459 H   0  0  0  0  0  0  0  0  0  0  0  0
   42.7070   10.6680    7.4403 H   0  0  0  0  0  0  0  0  0  0  0  0
   49.1464   13.6575    8.5565 H   0  0  0  0  0  0  0  0  0  0  0  0
   46.0415   12.4226    4.2726 H   0  0  0  0  0  0  0  0  0  0  0  0
   43.3745   12.9620   11.6866 H   0  0  0  0  0  0  0  0  0  0  0  0
   43.6350   13.7990   10.1376 H   0  0  0  0  0  0  0  0  0  0  0  0
   42.0324   13.7306   10.8324 H   0  0  0  0  0  0  0  0  0  0  0  0
   38.4155   11.5727   10.3133 H   0  0  0  0  0  0  0  0  0  0  0  0
   39.1881    9.9675   10.3623 H   0  0  0  0  0  0  0  0  0  0  0  0
   39.6098   11.1538    9.0926 H   0  0  0  0  0  0  0  0  0  0  0  0
   40.7986   12.0486   13.0257 H   0  0  0  0  0  0  0  0  0  0  0  0
   39.0935   12.0833   12.5700 H   0  0  0  0  0  0  0  0  0  0  0  0
   39.9174   10.5199   12.7586 H   0  0  0  0  0  0  0  0  0  0  0  0
   42.3169   10.4971    5.0754 H   0  0  0  0  0  0  0  0  0  0  0  0
   47.5255   12.8951   12.4260 H   0  0  0  0  0  0  0  0  0  0  0  0
   49.3857   13.7029   10.9999 H   0  0  0  0  0  0  0  0  0  0  0  0
   43.9714   11.3852    3.4515 H   0  0  0  0  0  0  0  0  0  0  0  0
   43.1577   10.3285    8.4276 H   0  0  0  0  0  0  0  0  0  0  0  0
   43.9329   10.1914    9.9182 H   0  0  0  0  0  0  0  0  0  0  0  0
   43.0930   12.5489   10.5713 H   0  0  0  0  0  0  0  0  0  0  0  0
   40.9837   10.5038    9.7077 H   0  0  0  0  0  0  0  0  0  0  0  0
   41.9508   10.3765   11.1609 H   0  0  0  0  0  0  0  0  0  0  0  0
   42.9677   11.1862    6.6944 H   0  0  0  0  0  0  0  0  0  0  0  0
   44.7641   11.3350   11.4365 H   0  0  0  0  0  0  0  0  0  0  0  0
   47.2357   12.7799    4.8379 H   0  0  0  0  0  0  0  0  0  0  0  0
   49.0921   13.1358    9.9256 H   0  0  0  0  0  0  0  0  0  0  0  0
   41.3432   13.6181    9.2464 H   0  0  0  0  0  0  0  0  0  0  0  0
   41.4632   12.3853    7.9900 H   0  0  0  0  0  0  0  0  0  0  0  0
   42.8138   13.5031    8.2984 H   0  0  0  0  0  0  0  0  0  0  0  0
   40.0019   12.4938   13.1856 H   0  0  0  0  0  0  0  0  0  0  0  0
   40.4539   10.7905   13.0057 H   0  0  0  0  0  0  0  0  0  0  0  0
   41.6922   12.0741   12.9578 H   0  0  0  0  0  0  0  0  0  0  0  0
   38.8448   10.6517   11.0109 H   0  0  0  0  0  0  0  0  0  0  0  0
   39.0285   11.8555    9.7139 H   0  0  0  0  0  0  0  0  0  0  0  0
   38.4517   12.3650   11.2907 H   0  0  0  0  0  0  0  0  0  0  0  0
   46.4690   11.8623   13.0444 H   0  0  0  0  0  0  0  0  0  0  0  0
   43.2295   11.4124    4.3196 H   0  0  0  0  0  0  0  0  0  0  0  0
   45.3736   12.1955    3.3479 H   0  0  0  0  0  0  0  0  0  0  0  0
   48.6616   12.7757   12.3189 H   0  0  0  0  0  0  0  0  0  0  0  0
   45.8049   14.5718    9.5377 H   0  0  0  0  0  0  0  0  0  0  0  0
   43.2736    9.8040   11.9186 H   0  0  0  0  0  0  0  0  0  0  0  0
   43.7195   11.8665    6.9695 H   0  0  0  0  0  0  0  0  0  0  0  0
   41.7229   11.3253    8.2269 H   0  0  0  0  0  0  0  0  0  0  0  0
   45.0301   11.1868    9.3691 H   0  0  0  0  0  0  0  0  0  0  0  0
   42.9890   12.8152   10.2528 H   0  0  0  0  0  0  0  0  0  0  0  0
 10  9  1  0
 11  4  2  0
 12  3  2  0
 13  6  2  0
 14  5  2  0
 15  8  1  0
 16 10  1  0
 17 10  1  0
 18 12  1  0
 19 11  1  0
 20 19  2  0
 21 18  2  0
  5  2  1  0
 13 20  1  0
 14 21  1  0
  2  6  1  0
  3  1  1  0
  4  1  1  0
  5  3  1  0
  6  4  1  0
  7  1  1  0
  8  7  1  0
  9  8  1  0
 31 30  1  0
 32 25  2  0
 33 24  2  0
 34 27  2  0
 35 26  2  0
 36 29  1  0
 37 31  1  0
 38 31  1  0
 39 33  1  0
 40 32  1  0
 41 40  2  0
 42 39  2  0
 26 23  1  0
 34 41  1  0
 35 42  1  0
 23 27  1  0
 24 22  1  0
 25 22  1  0
 26 24  1  0
 27 25  1  0
 28 22  1  0
 29 28  1  0
 30 29  1  0
 49 44  2  0
 50 47  1  0
 51 48  1  0
 49 43  1  0
 51 52  1  0
 50 51  1  0
 52 45  1  0
 49 50  1  0
 52 46  2  0
  7 53  1  0
  7 54  1  0
  8 55  1  1
  9 56  1  0
  9 57  1  0
 11 58  1  0
 12 59  1  0
 13 60  1  0
 14 61  1  0
 15 62  1  0
 15 63  1  0
 15 64  1  0
 16 65  1  0
 16 66  1  0
 16 67  1  0
 17 68  1  0
 17 69  1  0
 17 70  1  0
 18 71  1  0
 19 72  1  0
 20 73  1  0
 21 74  1  0
 28 75  1  0
 28 76  1  0
 29 77  1  1
 30 78  1  0
 30 79  1  0
 32 80  1  0
 33 81  1  0
 34 82  1  0
 35 83  1  0
 36 84  1  0
 36 85  1  0
 36 86  1  0
 37 87  1  0
 37 88  1  0
 37 89  1  0
 38 90  1  0
 38 91  1  0
 38 92  1  0
 39 93  1  0
 40 94  1  0
 41 95  1  0
 42 96  1  0
 43 97  1  0
 45 98  1  0
 47 99  1  0
 48100  1  0
 50101  1  6
 51102  1  1
M  END
> <Uni-Dock RESULT> 
ENERGY=   -7.108  LOWER_BOUND=   10.592  UPPER_BOUND=   13.080
INTER + INTRA:          -7.108
INTER:                  -7.108
INTRA:                   0.000
UNBOUND:                 0.000

$$$$

     RDKit          3D

102105  0  0  0  0  0  0  0  0999 V2000
   48.1446    9.4407   17.7570 N   0  0  0  0  0  0  0  0  0  0  0  0
   48.8479   12.3235   16.6303 S   0  0  0  0  0  0  0  0  0  0  0  0
   47.7242   10.5700   18.5312 C   0  0  0  0  0  0  0  0  0  0  0  0
   48.8335    9.5057   16.5042 C   0  0  0  0  0  0  0  0  0  0  0  0
   48.0045   11.8930   18.1327 C   0  0  0  0  0  0  0  0  0  0  0  0
   49.1776   10.7346   15.9055 C   0  0  0  0  0  0  0  0  0  0  0  0
   47.6419    8.1108   18.1919 C   0  0  0  0  0  0  0  0  0  0  0  0
   48.4733    7.4680   19.3324 C   0  0  1  0  0  0  0  0  0  0  0  0
   47.7622    6.1651   19.7670 C   0  0  0  0  0  0  0  0  0  0  0  0
   48.4232    5.5532   20.9281 N   0  0  0  0  0  0  0  0  0  0  0  0
   49.2425    8.3509   15.7920 C   0  0  0  0  0  0  0  0  0  0  0  0
   47.0068   10.4376   19.7442 C   0  0  0  0  0  0  0  0  0  0  0  0
   49.8327   10.7866   14.6541 C   0  0  0  0  0  0  0  0  0  0  0  0
   47.5871   12.9956   18.9105 C   0  0  0  0  0  0  0  0  0  0  0  0
   49.9227    7.1765   18.9267 C   0  0  0  0  0  0  0  0  0  0  0  0
   47.6474    5.7408   22.1577 C   0  0  0  0  0  0  0  0  0  0  0  0
   48.6859    4.1300   20.7063 C   0  0  0  0  0  0  0  0  0  0  0  0
   46.5837   11.5331   20.5077 C   0  0  0  0  0  0  0  0  0  0  0  0
   49.9005    8.4062   14.5526 C   0  0  0  0  0  0  0  0  0  0  0  0
   50.1842    9.6278   13.9754 C   0  0  0  0  0  0  0  0  0  0  0  0
   46.8767   12.8172   20.0917 C   0  0  0  0  0  0  0  0  0  0  0  0
   48.0166    9.4595   17.8065 N   0  0  0  0  0  0  0  0  0  0  0  0
   48.9487   11.7908   15.8652 S   0  0  0  0  0  0  0  0  0  0  0  0
   48.5611    9.0834   16.5368 C   0  0  0  0  0  0  0  0  0  0  0  0
   47.8651   10.8003   18.2773 C   0  0  0  0  0  0  0  0  0  0  0  0
   49.0107   10.0401   15.6014 C   0  0  0  0  0  0  0  0  0  0  0  0
   48.2302   11.9082   17.4850 C   0  0  0  0  0  0  0  0  0  0  0  0
   47.4530    8.3660   18.6385 C   0  0  0  0  0  0  0  0  0  0  0  0
   48.5238    7.5844   19.4521 C   0  0  2  0  0  0  0  0  0  0  0  0
   47.8436    6.3518   20.1005 C   0  0  0  0  0  0  0  0  0  0  0  0
   48.8115    5.4795   20.7857 N   0  0  0  0  0  0  0  0  0  0  0  0
   47.3489   11.1130   19.5586 C   0  0  0  0  0  0  0  0  0  0  0  0
   48.6817    7.7301   16.1299 C   0  0  0  0  0  0  0  0  0  0  0  0
   48.0393   13.2305   17.9430 C   0  0  0  0  0  0  0  0  0  0  0  0
   49.5477    9.6495   14.3554 C   0  0  0  0  0  0  0  0  0  0  0  0
   49.2166    8.4529   20.5060 C   0  0  0  0  0  0  0  0  0  0  0  0
   49.0100    4.2185   20.0576 C   0  0  0  0  0  0  0  0  0  0  0  0
   48.4175    5.2195   22.1726 C   0  0  0  0  0  0  0  0  0  0  0  0
   49.2194    7.3470   14.8931 C   0  0  0  0  0  0  0  0  0  0  0  0
   47.1655   12.4259   20.0121 C   0  0  0  0  0  0  0  0  0  0  0  0
   47.5026   13.4901   19.1971 C   0  0  0  0  0  0  0  0  0  0  0  0
   49.6586    8.3097   14.0038 C   0  0  0  0  0  0  0  0  0  0  0  0
   50.3244    9.0966   17.1195 O   0  0  0  0  0  0  0  0  0  0  0  0
   49.8595   10.9591   18.2736 O   0  0  0  0  0  0  0  0  0  0  0  0
   47.6427    6.2543   17.7605 O   0  0  0  0  0  0  0  0  0  0  0  0
   46.6169    6.4853   19.7361 O   0  0  0  0  0  0  0  0  0  0  0  0
   47.3010   10.0410   18.9087 O   0  0  0  0  0  0  0  0  0  0  0  0
   48.4882    8.3963   20.5774 O   0  0  0  0  0  0  0  0  0  0  0  0
   49.5233    9.8369   17.9198 C   0  0  0  0  0  0  0  0  0  0  0  0
   48.2171    9.1378   18.2793 C   0  0  1  0  0  0  0  0  0  0  0  0
   48.5042    7.9576   19.2112 C   0  0  2  0  0  0  0  0  0  0  0  0
   47.4889    6.8526   18.9602 C   0  0  0  0  0  0  0  0  0  0  0  0
   46.5918    8.2042   18.5035 H   0  0  0  0  0  0  0  0  0  0  0  0
   47.5422    7.4008   17.3622 H   0  0  0  0  0  0  0  0  0  0  0  0
   48.5097    8.1494   20.1935 H   0  0  0  0  0  0  0  0  0  0  0  0
   46.7022    6.3780   19.9806 H   0  0  0  0  0  0  0  0  0  0  0  0
   47.7427    5.4715   18.9093 H   0  0  0  0  0  0  0  0  0  0  0  0
   49.0921    7.3484   16.1766 H   0  0  0  0  0  0  0  0  0  0  0  0
   46.7475    9.4675   20.1503 H   0  0  0  0  0  0  0  0  0  0  0  0
   50.0787   11.7456   14.2036 H   0  0  0  0  0  0  0  0  0  0  0  0
   47.8075   14.0134   18.5872 H   0  0  0  0  0  0  0  0  0  0  0  0
   49.9774    6.4339   18.1244 H   0  0  0  0  0  0  0  0  0  0  0  0
   50.4400    8.0844   18.6037 H   0  0  0  0  0  0  0  0  0  0  0  0
   50.4930    6.7893   19.7765 H   0  0  0  0  0  0  0  0  0  0  0  0
   48.1812    5.3182   23.0169 H   0  0  0  0  0  0  0  0  0  0  0  0
   46.6512    5.2741   22.1041 H   0  0  0  0  0  0  0  0  0  0  0  0
   47.5223    6.8133   22.3670 H   0  0  0  0  0  0  0  0  0  0  0  0
   49.3324    3.9941   19.8256 H   0  0  0  0  0  0  0  0  0  0  0  0
   49.2169    3.6984   21.5621 H   0  0  0  0  0  0  0  0  0  0  0  0
   47.7612    3.5600   20.5519 H   0  0  0  0  0  0  0  0  0  0  0  0
   46.0246   11.3707   21.4266 H   0  0  0  0  0  0  0  0  0  0  0  0
   50.1901    7.4860   14.0464 H   0  0  0  0  0  0  0  0  0  0  0  0
   50.6938    9.6850   13.0183 H   0  0  0  0  0  0  0  0  0  0  0  0
   46.5555   13.6761   20.6739 H   0  0  0  0  0  0  0  0  0  0  0  0
   46.6571    8.7101   19.3068 H   0  0  0  0  0  0  0  0  0  0  0  0
   46.8884    7.6810   17.9918 H   0  0  0  0  0  0  0  0  0  0  0  0
   49.3106    7.2246   18.7755 H   0  0  0  0  0  0  0  0  0  0  0  0
   47.0676    6.7072   20.7952 H   0  0  0  0  0  0  0  0  0  0  0  0
   47.3046    5.7928   19.3217 H   0  0  0  0  0  0  0  0  0  0  0  0
   47.0858   10.3414   20.2717 H   0  0  0  0  0  0  0  0  0  0  0  0
   48.3729    6.9069   16.7669 H   0  0  0  0  0  0  0  0  0  0  0  0
   48.3163   14.0784   17.3182 H   0  0  0  0  0  0  0  0  0  0  0  0
   49.8864   10.4034   13.6459 H   0  0  0  0  0  0  0  0  0  0  0  0
   49.9992    7.8887   21.0217 H   0  0  0  0  0  0  0  0  0  0  0  0
   48.5128    8.8072   21.2665 H   0  0  0  0  0  0  0  0  0  0  0  0
   49.7060    9.3172   20.0480 H   0  0  0  0  0  0  0  0  0  0  0  0
   49.7819    3.6108   20.5394 H   0  0  0  0  0  0  0  0  0  0  0  0
   48.0953    3.6173   19.9977 H   0  0  0  0  0  0  0  0  0  0  0  0
   49.3645    4.4302   19.0429 H   0  0  0  0  0  0  0  0  0  0  0  0
   47.4577    4.6928   22.2393 H   0  0  0  0  0  0  0  0  0  0  0  0
   48.3335    6.1611   22.7316 H   0  0  0  0  0  0  0  0  0  0  0  0
   49.1786    4.6240   22.6888 H   0  0  0  0  0  0  0  0  0  0  0  0
   49.3013    6.2922   14.6384 H   0  0  0  0  0  0  0  0  0  0  0  0
   46.7635   12.6033   21.0062 H   0  0  0  0  0  0  0  0  0  0  0  0
   47.3557   14.5118   19.5359 H   0  0  0  0  0  0  0  0  0  0  0  0
   50.0783    8.0283   13.0415 H   0  0  0  0  0  0  0  0  0  0  0  0
   51.1088    9.6715   16.9607 H   0  0  0  0  0  0  0  0  0  0  0  0
   46.9570    5.5544   17.7488 H   0  0  0  0  0  0  0  0  0  0  0  0
   47.8304   10.5451   19.5591 H   0  0  0  0  0  0  0  0  0  0  0  0
   47.5433    8.4925   20.8102 H   0  0  0  0  0  0  0  0  0  0  0  0
   47.7578    8.8227   17.3307 H   0  0  0  0  0  0  0  0  0  0  0  0
   49.4932    7.5174   19.0286 H   0  0  0  0  0  0  0  0  0  0  0  0
 10  9  1  0
 11  4  2  0
 12  3  2  0
 13  6  2  0
 14  5  2  0
 15  8  1  0
 16 10  1  0
 17 10  1  0
 18 12  1  0
 19 11  1  0
 20 19  2  0
 21 18  2  0
  5  2  1  0
 13 20  1  0
 14 21  1  0
  2  6  1  0
  3  1  1  0
  4  1  1  0
  5  3  1  0
  6  4  1  0
  7  1  1  0
  8  7  1  0
  9  8  1  0
 31 30  1  0
 32 25  2  0
 33 24  2  0
 34 27  2  0
 35 26  2  0
 36 29  1  0
 37 31  1  0
 38 31  1  0
 39 33  1  0
 40 32  1  0
 41 40  2  0
 42 39  2  0
 26 23  1  0
 34 41  1  0
 35 42  1  0
 23 27  1  0
 24 22  1  0
 25 22  1  0
 26 24  1  0
 27 25  1  0
 28 22  1  0
 29 28  1  0
 30 29  1  0
 49 44  2  0
 50 47  1  0
 51 48  1  0
 49 43  1  0
 51 52  1  0
 50 51  1  0
 52 45  1  0
 49 50  1  0
 52 46  2  0
  7 53  1  0
  7 54  1  0
  8 55  1  1
  9 56  1  0
  9 57  1  0
 11 58  1  0
 12 59  1  0
 13 60  1  0
 14 61  1  0
 15 62  1  0
 15 63  1  0
 15 64  1  0
 16 65  1  0
 16 66  1  0
 16 67  1  0
 17 68  1  0
 17 69  1  0
 17 70  1  0
 18 71  1  0
 19 72  1  0
 20 73  1  0
 21 74  1  0
 28 75  1  0
 28 76  1  0
 29 77  1  1
 30 78  1  0
 30 79  1  0
 32 80  1  0
 33 81  1  0
 34 82  1  0
 35 83  1  0
 36 84  1  0
 36 85  1  0
 36 86  1  0
 37 87  1  0
 37 88  1  0
 37 89  1  0
 38 90  1  0
 38 91  1  0
 38 92  1  0
 39 93  1  0
 40 94  1  0
 41 95  1  0
 42 96  1  0
 43 97  1  0
 45 98  1  0
 47 99  1  0
 48100  1  0
 50101  1  6
 51102  1  1
M  END
> <Uni-Dock RESULT> 
ENERGY=   -7.016  LOWER_BOUND=    2.466  UPPER_BOUND=    6.598
INTER + INTRA:          -7.016
INTER:                  -7.016
INTRA:                   0.000
UNBOUND:                 0.000

$$$$
