
     RDKit          3D

102105  0  0  0  0  0  0  0  0999 V2000
   46.3248    8.0626   12.7789 N   0  0  0  0  0  0  0  0  0  0  0  0
   43.7563    6.9553   11.2830 S   0  0  0  0  0  0  0  0  0  0  0  0
   46.0400    6.6689   12.9109 C   0  0  0  0  0  0  0  0  0  0  0  0
   45.5584    8.9954   12.0058 C   0  0  0  0  0  0  0  0  0  0  0  0
   44.9216    6.0742   12.2891 C   0  0  0  0  0  0  0  0  0  0  0  0
   44.4118    8.6021   11.2868 C   0  0  0  0  0  0  0  0  0  0  0  0
   47.4188    8.6306   13.6087 C   0  0  0  0  0  0  0  0  0  0  0  0
   48.7278    8.8802   12.8135 C   0  0  1  0  0  0  0  0  0  0  0  0
   49.6212    9.8363   13.6426 C   0  0  0  0  0  0  0  0  0  0  0  0
   50.9144   10.1802   13.0276 N   0  0  0  0  0  0  0  0  0  0  0  0
   45.9057   10.3645   11.9014 C   0  0  0  0  0  0  0  0  0  0  0  0
   46.8493    5.7874   13.6654 C   0  0  0  0  0  0  0  0  0  0  0  0
   43.6722    9.5305   10.5232 C   0  0  0  0  0  0  0  0  0  0  0  0
   44.6452    4.6964   12.4267 C   0  0  0  0  0  0  0  0  0  0  0  0
   49.4698    7.5860   12.4713 C   0  0  0  0  0  0  0  0  0  0  0  0
   51.7466   10.9176   13.9802 C   0  0  0  0  0  0  0  0  0  0  0  0
   50.7563   10.9595   11.7989 C   0  0  0  0  0  0  0  0  0  0  0  0
   46.5697    4.4195   13.8052 C   0  0  0  0  0  0  0  0  0  0  0  0
   45.1712   11.2808   11.1380 C   0  0  0  0  0  0  0  0  0  0  0  0
   44.0502   10.8639   10.4455 C   0  0  0  0  0  0  0  0  0  0  0  0
   45.4631    3.8731   13.1853 C   0  0  0  0  0  0  0  0  0  0  0  0
   46.2038    8.4068   12.7391 N   0  0  0  0  0  0  0  0  0  0  0  0
   43.7640    6.7679   11.5482 S   0  0  0  0  0  0  0  0  0  0  0  0
   45.1663    9.1522   12.0995 C   0  0  0  0  0  0  0  0  0  0  0  0
   46.2446    6.9788   12.8619 C   0  0  0  0  0  0  0  0  0  0  0  0
   44.0382    8.5205   11.5344 C   0  0  0  0  0  0  0  0  0  0  0  0
   45.2194    6.1561   12.3532 C   0  0  0  0  0  0  0  0  0  0  0  0
   47.2621    9.1631   13.4586 C   0  0  0  0  0  0  0  0  0  0  0  0
   48.5996    9.2394   12.6740 C   0  0  2  0  0  0  0  0  0  0  0  0
   49.7190    9.6391   13.6688 C   0  0  0  0  0  0  0  0  0  0  0  0
   51.0686    9.7612   13.0894 N   0  0  0  0  0  0  0  0  0  0  0  0
   47.3159    6.2976   13.4895 C   0  0  0  0  0  0  0  0  0  0  0  0
   45.1964   10.5611   11.9776 C   0  0  0  0  0  0  0  0  0  0  0  0
   45.2771    4.7508   12.4690 C   0  0  0  0  0  0  0  0  0  0  0  0
   43.0162    9.2641   10.9076 C   0  0  0  0  0  0  0  0  0  0  0  0
   48.5351   10.2070   11.4886 C   0  0  0  0  0  0  0  0  0  0  0  0
   51.5793    8.4785   12.6006 C   0  0  0  0  0  0  0  0  0  0  0  0
   51.9934   10.3240   14.0785 C   0  0  0  0  0  0  0  0  0  0  0  0
   44.1804   11.2940   11.3475 C   0  0  0  0  0  0  0  0  0  0  0  0
   47.3642    4.9016   13.6108 C   0  0  0  0  0  0  0  0  0  0  0  0
   46.3439    4.1247   13.0963 C   0  0  0  0  0  0  0  0  0  0  0  0
   43.0803   10.6463   10.8189 C   0  0  0  0  0  0  0  0  0  0  0  0
   50.0189    8.9608   12.0263 O   0  0  0  0  0  0  0  0  0  0  0  0
   48.7725    7.1176   11.8860 O   0  0  0  0  0  0  0  0  0  0  0  0
   47.3752    7.3068   14.3922 O   0  0  0  0  0  0  0  0  0  0  0  0
   45.6337    6.8178   13.0684 O   0  0  0  0  0  0  0  0  0  0  0  0
   48.1236   10.6771   12.0696 O   0  0  0  0  0  0  0  0  0  0  0  0
   45.2809    9.4490   12.4126 O   0  0  0  0  0  0  0  0  0  0  0  0
   48.8220    8.3325   11.9673 C   0  0  0  0  0  0  0  0  0  0  0  0
   47.6548    9.3218   11.9266 C   0  0  1  0  0  0  0  0  0  0  0  0
   46.5592    9.0667   12.9685 C   0  0  2  0  0  0  0  0  0  0  0  0
   46.4647    7.6282   13.4534 C   0  0  0  0  0  0  0  0  0  0  0  0
   47.6307    8.0411   14.5065 H   0  0  0  0  0  0  0  0  0  0  0  0
   47.0668    9.5658   14.0626 H   0  0  0  0  0  0  0  0  0  0  0  0
   48.4790    9.3627   11.8635 H   0  0  0  0  0  0  0  0  0  0  0  0
   49.8128    9.3498   14.6099 H   0  0  0  0  0  0  0  0  0  0  0  0
   49.0621   10.7566   13.8610 H   0  0  0  0  0  0  0  0  0  0  0  0
   46.7708   10.7783   12.4068 H   0  0  0  0  0  0  0  0  0  0  0  0
   47.7462    6.1182   14.1729 H   0  0  0  0  0  0  0  0  0  0  0  0
   42.7920    9.2087    9.9714 H   0  0  0  0  0  0  0  0  0  0  0  0
   43.7747    4.2581   11.9402 H   0  0  0  0  0  0  0  0  0  0  0  0
   48.8461    6.9208   11.8670 H   0  0  0  0  0  0  0  0  0  0  0  0
   49.7827    7.0518   13.3738 H   0  0  0  0  0  0  0  0  0  0  0  0
   50.3671    7.7921   11.8794 H   0  0  0  0  0  0  0  0  0  0  0  0
   52.7333   11.1282   13.5508 H   0  0  0  0  0  0  0  0  0  0  0  0
   51.9182   10.3224   14.8847 H   0  0  0  0  0  0  0  0  0  0  0  0
   51.2888   11.8677   14.2755 H   0  0  0  0  0  0  0  0  0  0  0  0
   51.7347   11.2219   11.3805 H   0  0  0  0  0  0  0  0  0  0  0  0
   50.2494   10.3778   11.0241 H   0  0  0  0  0  0  0  0  0  0  0  0
   50.1938   11.8854   11.9647 H   0  0  0  0  0  0  0  0  0  0  0  0
   47.2323    3.7882   14.3921 H   0  0  0  0  0  0  0  0  0  0  0  0
   45.4858   12.3199   11.0958 H   0  0  0  0  0  0  0  0  0  0  0  0
   43.4763   11.5665    9.8479 H   0  0  0  0  0  0  0  0  0  0  0  0
   45.2366    2.8154   13.2875 H   0  0  0  0  0  0  0  0  0  0  0  0
   46.9471   10.1685   13.7568 H   0  0  0  0  0  0  0  0  0  0  0  0
   47.4257    8.7013   14.4421 H   0  0  0  0  0  0  0  0  0  0  0  0
   48.8291    8.2513   12.2640 H   0  0  0  0  0  0  0  0  0  0  0  0
   49.7416    8.9167   14.4966 H   0  0  0  0  0  0  0  0  0  0  0  0
   49.4382   10.6076   14.1056 H   0  0  0  0  0  0  0  0  0  0  0  0
   48.1627    6.8220   13.9150 H   0  0  0  0  0  0  0  0  0  0  0  0
   46.0263   11.1555   12.3418 H   0  0  0  0  0  0  0  0  0  0  0  0
   44.4743    4.1364   12.0659 H   0  0  0  0  0  0  0  0  0  0  0  0
   42.1531    8.7585   10.4790 H   0  0  0  0  0  0  0  0  0  0  0  0
   48.3337   11.2324   11.8181 H   0  0  0  0  0  0  0  0  0  0  0  0
   49.4811   10.2156   10.9360 H   0  0  0  0  0  0  0  0  0  0  0  0
   47.7611    9.9020   10.7787 H   0  0  0  0  0  0  0  0  0  0  0  0
   51.6060    7.7177   13.3888 H   0  0  0  0  0  0  0  0  0  0  0  0
   50.9754    8.0999   11.7696 H   0  0  0  0  0  0  0  0  0  0  0  0
   52.5947    8.5949   12.2038 H   0  0  0  0  0  0  0  0  0  0  0  0
   51.6505   11.3140   14.4061 H   0  0  0  0  0  0  0  0  0  0  0  0
   52.9895   10.4645   13.6407 H   0  0  0  0  0  0  0  0  0  0  0  0
   52.0918    9.6824   14.9623 H   0  0  0  0  0  0  0  0  0  0  0  0
   44.2566   12.3747   11.2793 H   0  0  0  0  0  0  0  0  0  0  0  0
   48.2122    4.4305   14.0998 H   0  0  0  0  0  0  0  0  0  0  0  0
   46.3711    3.0425   13.1815 H   0  0  0  0  0  0  0  0  0  0  0  0
   42.2873   11.2058   10.3321 H   0  0  0  0  0  0  0  0  0  0  0  0
   50.6842    8.2339   12.0284 H   0  0  0  0  0  0  0  0  0  0  0  0
   47.1968    6.3604   14.5803 H   0  0  0  0  0  0  0  0  0  0  0  0
   49.0512   10.6749   11.7556 H   0  0  0  0  0  0  0  0  0  0  0  0
   44.8577    8.6301   12.0894 H   0  0  0  0  0  0  0  0  0  0  0  0
   47.2419    9.2623   10.9090 H   0  0  0  0  0  0  0  0  0  0  0  0
   46.6998    9.7093   13.8454 H   0  0  0  0  0  0  0  0  0  0  0  0
 10  9  1  0
 11  4  2  0
 12  3  2  0
 13  6  2  0
 14  5  2  0
 15  8  1  0
 16 10  1  0
 17 10  1  0
 18 12  1  0
 19 11  1  0
 20 19  2  0
 21 18  2  0
  5  2  1  0
 13 20  1  0
 14 21  1  0
  2  6  1  0
  3  1  1  0
  4  1  1  0
  5  3  1  0
  6  4  1  0
  7  1  1  0
  8  7  1  0
  9  8  1  0
 31 30  1  0
 32 25  2  0
 33 24  2  0
 34 27  2  0
 35 26  2  0
 36 29  1  0
 37 31  1  0
 38 31  1  0
 39 33  1  0
 40 32  1  0
 41 40  2  0
 42 39  2  0
 26 23  1  0
 34 41  1  0
 35 42  1  0
 23 27  1  0
 24 22  1  0
 25 22  1  0
 26 24  1  0
 27 25  1  0
 28 22  1  0
 29 28  1  0
 30 29  1  0
 49 44  2  0
 50 47  1  0
 51 48  1  0
 49 43  1  0
 51 52  1  0
 50 51  1  0
 52 45  1  0
 49 50  1  0
 52 46  2  0
  7 53  1  0
  7 54  1  0
  8 55  1  1
  9 56  1  0
  9 57  1  0
 11 58  1  0
 12 59  1  0
 13 60  1  0
 14 61  1  0
 15 62  1  0
 15 63  1  0
 15 64  1  0
 16 65  1  0
 16 66  1  0
 16 67  1  0
 17 68  1  0
 17 69  1  0
 17 70  1  0
 18 71  1  0
 19 72  1  0
 20 73  1  0
 21 74  1  0
 28 75  1  0
 28 76  1  0
 29 77  1  1
 30 78  1  0
 30 79  1  0
 32 80  1  0
 33 81  1  0
 34 82  1  0
 35 83  1  0
 36 84  1  0
 36 85  1  0
 36 86  1  0
 37 87  1  0
 37 88  1  0
 37 89  1  0
 38 90  1  0
 38 91  1  0
 38 92  1  0
 39 93  1  0
 40 94  1  0
 41 95  1  0
 42 96  1  0
 43 97  1  0
 45 98  1  0
 47 99  1  0
 48100  1  0
 50101  1  1
 51102  1  6
M  END
> <Uni-Dock RESULT> 
ENERGY=   -8.094  LOWER_BOUND=    0.000  UPPER_BOUND=    0.000
INTER + INTRA:          -8.094
INTER:                  -8.094
INTRA:                   0.000
UNBOUND:                 0.000

$$$$

     RDKit          3D

102105  0  0  0  0  0  0  0  0999 V2000
   47.4369    7.7908   12.9345 N   0  0  0  0  0  0  0  0  0  0  0  0
   44.3956    7.5755   12.0603 S   0  0  0  0  0  0  0  0  0  0  0  0
   46.8279    8.9622   12.3887 C   0  0  0  0  0  0  0  0  0  0  0  0
   46.7785    6.5343   13.1417 C   0  0  0  0  0  0  0  0  0  0  0  0
   45.4817    8.9747   11.9661 C   0  0  0  0  0  0  0  0  0  0  0  0
   45.4234    6.3395   12.8067 C   0  0  0  0  0  0  0  0  0  0  0  0
   48.9009    7.8215   13.1873 C   0  0  0  0  0  0  0  0  0  0  0  0
   49.2627    8.0028   14.6854 C   0  0  1  0  0  0  0  0  0  0  0  0
   50.7469    7.6016   14.8754 C   0  0  0  0  0  0  0  0  0  0  0  0
   51.2580    7.7158   16.2518 N   0  0  0  0  0  0  0  0  0  0  0  0
   47.4362    5.4138   13.7053 C   0  0  0  0  0  0  0  0  0  0  0  0
   47.5195   10.1865   12.2334 C   0  0  0  0  0  0  0  0  0  0  0  0
   44.7865    5.0989   13.0243 C   0  0  0  0  0  0  0  0  0  0  0  0
   44.8877   10.1358   11.4249 C   0  0  0  0  0  0  0  0  0  0  0  0
   49.0041    9.4243   15.1902 C   0  0  0  0  0  0  0  0  0  0  0  0
   52.7069    7.5061   16.2716 C   0  0  0  0  0  0  0  0  0  0  0  0
   50.6075    6.7765   17.1664 C   0  0  0  0  0  0  0  0  0  0  0  0
   46.9287   11.3376   11.6904 C   0  0  0  0  0  0  0  0  0  0  0  0
   46.7981    4.1862   13.9240 C   0  0  0  0  0  0  0  0  0  0  0  0
   45.4684    4.0265   13.5831 C   0  0  0  0  0  0  0  0  0  0  0  0
   45.6093   11.3112   11.2833 C   0  0  0  0  0  0  0  0  0  0  0  0
   47.4634    7.4249   12.9452 N   0  0  0  0  0  0  0  0  0  0  0  0
   44.5123    7.7852   11.8415 S   0  0  0  0  0  0  0  0  0  0  0  0
   46.6576    6.2499   12.8390 C   0  0  0  0  0  0  0  0  0  0  0  0
   47.0377    8.7549   12.6196 C   0  0  0  0  0  0  0  0  0  0  0  0
   45.3306    6.3000   12.3625 C   0  0  0  0  0  0  0  0  0  0  0  0
   45.7418    9.0269   12.1368 C   0  0  0  0  0  0  0  0  0  0  0  0
   48.9000    7.2553   13.2875 C   0  0  0  0  0  0  0  0  0  0  0  0
   49.2217    7.6066   14.7651 C   0  0  2  0  0  0  0  0  0  0  0  0
   50.7518    7.8230   14.8861 C   0  0  0  0  0  0  0  0  0  0  0  0
   51.2393    8.1657   16.2339 N   0  0  0  0  0  0  0  0  0  0  0  0
   47.8803    9.8833   12.7690 C   0  0  0  0  0  0  0  0  0  0  0  0
   47.1209    4.9654   13.2083 C   0  0  0  0  0  0  0  0  0  0  0  0
   45.3303   10.3420   11.8319 C   0  0  0  0  0  0  0  0  0  0  0  0
   44.5426    5.1344   12.2574 C   0  0  0  0  0  0  0  0  0  0  0  0
   48.7299    6.5393   15.7471 C   0  0  0  0  0  0  0  0  0  0  0  0
   50.7403    9.4653   16.6892 C   0  0  0  0  0  0  0  0  0  0  0  0
   52.7055    8.1562   16.2579 C   0  0  0  0  0  0  0  0  0  0  0  0
   46.3304    3.8115   13.1076 C   0  0  0  0  0  0  0  0  0  0  0  0
   47.4703   11.1870   12.4555 C   0  0  0  0  0  0  0  0  0  0  0  0
   46.1905   11.4185   11.9887 C   0  0  0  0  0  0  0  0  0  0  0  0
   45.0397    3.8923   12.6210 C   0  0  0  0  0  0  0  0  0  0  0  0
   49.5555    8.3315   16.1343 O   0  0  0  0  0  0  0  0  0  0  0  0
   47.9924    9.4937   15.0495 O   0  0  0  0  0  0  0  0  0  0  0  0
   48.9158    9.1144   12.3528 O   0  0  0  0  0  0  0  0  0  0  0  0
   46.7391    8.6881   12.0295 O   0  0  0  0  0  0  0  0  0  0  0  0
   49.0492    6.0296   15.1420 O   0  0  0  0  0  0  0  0  0  0  0  0
   47.0554    6.0687   12.7483 O   0  0  0  0  0  0  0  0  0  0  0  0
   48.5345    8.4210   15.2509 C   0  0  0  0  0  0  0  0  0  0  0  0
   48.1511    7.0556   14.6752 C   0  0  1  0  0  0  0  0  0  0  0  0
   48.0896    6.9976   13.1443 C   0  0  2  0  0  0  0  0  0  0  0  0
   47.8247    8.3335   12.4670 C   0  0  0  0  0  0  0  0  0  0  0  0
   49.4287    8.5642   12.5804 H   0  0  0  0  0  0  0  0  0  0  0  0
   49.3444    6.8954   12.7996 H   0  0  0  0  0  0  0  0  0  0  0  0
   48.6361    7.3355   15.2847 H   0  0  0  0  0  0  0  0  0  0  0  0
   51.3483    8.2522   14.2243 H   0  0  0  0  0  0  0  0  0  0  0  0
   50.8940    6.5748   14.5130 H   0  0  0  0  0  0  0  0  0  0  0  0
   48.4770    5.4494   14.0062 H   0  0  0  0  0  0  0  0  0  0  0  0
   48.5504   10.3104   12.5389 H   0  0  0  0  0  0  0  0  0  0  0  0
   43.7390    4.9674   12.7634 H   0  0  0  0  0  0  0  0  0  0  0  0
   43.8473   10.1228   11.1024 H   0  0  0  0  0  0  0  0  0  0  0  0
   47.9513    9.6988   15.0762 H   0  0  0  0  0  0  0  0  0  0  0  0
   49.6187   10.1574   14.6585 H   0  0  0  0  0  0  0  0  0  0  0  0
   49.2331    9.5103   16.2571 H   0  0  0  0  0  0  0  0  0  0  0  0
   53.1049    7.6456   17.2838 H   0  0  0  0  0  0  0  0  0  0  0  0
   53.2121    8.2389   15.6316 H   0  0  0  0  0  0  0  0  0  0  0  0
   52.9811    6.5028   15.9283 H   0  0  0  0  0  0  0  0  0  0  0  0
   51.0273    6.8672   18.1747 H   0  0  0  0  0  0  0  0  0  0  0  0
   49.5415    6.9978   17.2685 H   0  0  0  0  0  0  0  0  0  0  0  0
   50.7185    5.7360   16.8402 H   0  0  0  0  0  0  0  0  0  0  0  0
   47.5076   12.2535   11.6020 H   0  0  0  0  0  0  0  0  0  0  0  0
   47.3544    3.3611   14.3599 H   0  0  0  0  0  0  0  0  0  0  0  0
   44.9640    3.0794   13.7523 H   0  0  0  0  0  0  0  0  0  0  0  0
   45.1420   12.1963   10.8608 H   0  0  0  0  0  0  0  0  0  0  0  0
   49.2858    6.2587   13.0489 H   0  0  0  0  0  0  0  0  0  0  0  0
   49.5044    7.8747   12.6106 H   0  0  0  0  0  0  0  0  0  0  0  0
   48.7124    8.5384   15.0289 H   0  0  0  0  0  0  0  0  0  0  0  0
   51.0638    8.6019   14.1765 H   0  0  0  0  0  0  0  0  0  0  0  0
   51.2403    6.8925   14.5649 H   0  0  0  0  0  0  0  0  0  0  0  0
   48.8963    9.8002   13.1351 H   0  0  0  0  0  0  0  0  0  0  0  0
   48.1104    4.8037   13.6198 H   0  0  0  0  0  0  0  0  0  0  0  0
   44.3235   10.5272   11.4627 H   0  0  0  0  0  0  0  0  0  0  0  0
   43.5214    5.1936   11.8860 H   0  0  0  0  0  0  0  0  0  0  0  0
   49.2153    5.5737   15.5666 H   0  0  0  0  0  0  0  0  0  0  0  0
   48.9421    6.8293   16.7821 H   0  0  0  0  0  0  0  0  0  0  0  0
   47.6460    6.4127   15.6739 H   0  0  0  0  0  0  0  0  0  0  0  0
   51.0134   10.2752   16.0035 H   0  0  0  0  0  0  0  0  0  0  0  0
   49.6516    9.4562   16.8037 H   0  0  0  0  0  0  0  0  0  0  0  0
   51.1433    9.7063   17.6800 H   0  0  0  0  0  0  0  0  0  0  0  0
   53.0884    7.1666   15.9766 H   0  0  0  0  0  0  0  0  0  0  0  0
   53.0772    8.3620   17.2694 H   0  0  0  0  0  0  0  0  0  0  0  0
   53.1334    8.8994   15.5746 H   0  0  0  0  0  0  0  0  0  0  0  0
   46.7362    2.8508   13.4087 H   0  0  0  0  0  0  0  0  0  0  0  0
   48.1574   12.0173   12.5920 H   0  0  0  0  0  0  0  0  0  0  0  0
   45.8603   12.4238   11.7451 H   0  0  0  0  0  0  0  0  0  0  0  0
   44.4215    3.0037   12.5364 H   0  0  0  0  0  0  0  0  0  0  0  0
   49.6984    9.2549   16.4471 H   0  0  0  0  0  0  0  0  0  0  0  0
   48.5792    9.9293   11.9220 H   0  0  0  0  0  0  0  0  0  0  0  0
   49.4100    6.3550   15.9924 H   0  0  0  0  0  0  0  0  0  0  0  0
   46.2630    6.6007   12.5406 H   0  0  0  0  0  0  0  0  0  0  0  0
   47.1727    6.8064   15.1111 H   0  0  0  0  0  0  0  0  0  0  0  0
   49.0206    6.5902   12.7333 H   0  0  0  0  0  0  0  0  0  0  0  0
 10  9  1  0
 11  4  2  0
 12  3  2  0
 13  6  2  0
 14  5  2  0
 15  8  1  0
 16 10  1  0
 17 10  1  0
 18 12  1  0
 19 11  1  0
 20 19  2  0
 21 18  2  0
  5  2  1  0
 13 20  1  0
 14 21  1  0
  2  6  1  0
  3  1  1  0
  4  1  1  0
  5  3  1  0
  6  4  1  0
  7  1  1  0
  8  7  1  0
  9  8  1  0
 31 30  1  0
 32 25  2  0
 33 24  2  0
 34 27  2  0
 35 26  2  0
 36 29  1  0
 37 31  1  0
 38 31  1  0
 39 33  1  0
 40 32  1  0
 41 40  2  0
 42 39  2  0
 26 23  1  0
 34 41  1  0
 35 42  1  0
 23 27  1  0
 24 22  1  0
 25 22  1  0
 26 24  1  0
 27 25  1  0
 28 22  1  0
 29 28  1  0
 30 29  1  0
 49 44  2  0
 50 47  1  0
 51 48  1  0
 49 43  1  0
 51 52  1  0
 50 51  1  0
 52 45  1  0
 49 50  1  0
 52 46  2  0
  7 53  1  0
  7 54  1  0
  8 55  1  1
  9 56  1  0
  9 57  1  0
 11 58  1  0
 12 59  1  0
 13 60  1  0
 14 61  1  0
 15 62  1  0
 15 63  1  0
 15 64  1  0
 16 65  1  0
 16 66  1  0
 16 67  1  0
 17 68  1  0
 17 69  1  0
 17 70  1  0
 18 71  1  0
 19 72  1  0
 20 73  1  0
 21 74  1  0
 28 75  1  0
 28 76  1  0
 29 77  1  1
 30 78  1  0
 30 79  1  0
 32 80  1  0
 33 81  1  0
 34 82  1  0
 35 83  1  0
 36 84  1  0
 36 85  1  0
 36 86  1  0
 37 87  1  0
 37 88  1  0
 37 89  1  0
 38 90  1  0
 38 91  1  0
 38 92  1  0
 39 93  1  0
 40 94  1  0
 41 95  1  0
 42 96  1  0
 43 97  1  0
 45 98  1  0
 47 99  1  0
 48100  1  0
 50101  1  1
 51102  1  6
M  END
> <Uni-Dock RESULT> 
ENERGY=   -7.707  LOWER_BOUND=    1.801  UPPER_BOUND=    4.503
INTER + INTRA:          -7.707
INTER:                  -7.707
INTRA:                   0.000
UNBOUND:                 0.000

$$$$

     RDKit          3D

102105  0  0  0  0  0  0  0  0999 V2000
   48.7870    6.6763   15.6040 N   0  0  0  0  0  0  0  0  0  0  0  0
   46.8023    4.3184   14.8544 S   0  0  0  0  0  0  0  0  0  0  0  0
   48.1975    6.7051   14.3030 C   0  0  0  0  0  0  0  0  0  0  0  0
   48.5354    5.6823   16.6060 C   0  0  0  0  0  0  0  0  0  0  0  0
   47.3033    5.7043   13.8673 C   0  0  0  0  0  0  0  0  0  0  0  0
   47.6548    4.6050   16.3817 C   0  0  0  0  0  0  0  0  0  0  0  0
   49.8471    7.6718   15.9095 C   0  0  0  0  0  0  0  0  0  0  0  0
   49.3516    8.8460   16.7946 C   0  0  1  0  0  0  0  0  0  0  0  0
   50.5920    9.5628   17.3841 C   0  0  0  0  0  0  0  0  0  0  0  0
   50.2985   10.7124   18.2565 N   0  0  0  0  0  0  0  0  0  0  0  0
   49.1401    5.7213   17.8861 C   0  0  0  0  0  0  0  0  0  0  0  0
   48.4606    7.7289   13.3628 C   0  0  0  0  0  0  0  0  0  0  0  0
   47.4108    3.6386   17.3810 C   0  0  0  0  0  0  0  0  0  0  0  0
   46.7269    5.7383   12.5787 C   0  0  0  0  0  0  0  0  0  0  0  0
   48.4556    9.8257   16.0331 C   0  0  0  0  0  0  0  0  0  0  0  0
   51.5347   11.4238   18.5876 C   0  0  0  0  0  0  0  0  0  0  0  0
   49.6089   10.3166   19.4852 C   0  0  0  0  0  0  0  0  0  0  0  0
   47.8908    7.7577   12.0808 C   0  0  0  0  0  0  0  0  0  0  0  0
   48.8906    4.7626   18.8762 C   0  0  0  0  0  0  0  0  0  0  0  0
   48.0228    3.7169   18.6245 C   0  0  0  0  0  0  0  0  0  0  0  0
   47.0228    6.7582   11.6873 C   0  0  0  0  0  0  0  0  0  0  0  0
   48.9159    6.4823   15.8876 N   0  0  0  0  0  0  0  0  0  0  0  0
   46.9402    4.3821   14.5674 S   0  0  0  0  0  0  0  0  0  0  0  0
   48.6728    5.2722   16.6072 C   0  0  0  0  0  0  0  0  0  0  0  0
   48.3191    6.8353   14.6325 C   0  0  0  0  0  0  0  0  0  0  0  0
   47.8091    4.2734   16.1101 C   0  0  0  0  0  0  0  0  0  0  0  0
   47.4156    5.9811   13.9689 C   0  0  0  0  0  0  0  0  0  0  0  0
   49.9715    7.3958   16.3984 C   0  0  0  0  0  0  0  0  0  0  0  0
   49.4011    8.6356   17.1385 C   0  0  2  0  0  0  0  0  0  0  0  0
   50.5226    9.7019   17.2262 C   0  0  0  0  0  0  0  0  0  0  0  0
   50.1536   10.9562   17.9062 N   0  0  0  0  0  0  0  0  0  0  0  0
   48.5854    8.0638   13.9802 C   0  0  0  0  0  0  0  0  0  0  0  0
   49.2648    4.9925   17.8610 C   0  0  0  0  0  0  0  0  0  0  0  0
   46.8248    6.3453   12.7401 C   0  0  0  0  0  0  0  0  0  0  0  0
   47.5770    3.0796   16.8253 C   0  0  0  0  0  0  0  0  0  0  0  0
   48.8471    8.2934   18.5247 C   0  0  0  0  0  0  0  0  0  0  0  0
   49.1234   11.6990   17.1768 C   0  0  0  0  0  0  0  0  0  0  0  0
   51.3402   11.7975   18.0922 C   0  0  0  0  0  0  0  0  0  0  0  0
   49.0250    3.8066   18.5700 C   0  0  0  0  0  0  0  0  0  0  0  0
   48.0035    8.4172   12.7545 C   0  0  0  0  0  0  0  0  0  0  0  0
   47.1177    7.5575   12.1334 C   0  0  0  0  0  0  0  0  0  0  0  0
   48.1865    2.8406   18.0475 C   0  0  0  0  0  0  0  0  0  0  0  0
   48.7786   10.0396   17.5297 O   0  0  0  0  0  0  0  0  0  0  0  0
   47.6784    9.2107   15.7767 O   0  0  0  0  0  0  0  0  0  0  0  0
   49.8705    7.9604   14.3980 O   0  0  0  0  0  0  0  0  0  0  0  0
   48.3856    6.2867   14.2630 O   0  0  0  0  0  0  0  0  0  0  0  0
   49.5611    7.8269   18.5453 O   0  0  0  0  0  0  0  0  0  0  0  0
   49.0974    5.3395   16.7276 O   0  0  0  0  0  0  0  0  0  0  0  0
   48.3519    9.0037   16.7709 C   0  0  0  0  0  0  0  0  0  0  0  0
   48.7419    7.6514   17.3726 C   0  0  1  0  0  0  0  0  0  0  0  0
   49.4604    6.7014   16.4072 C   0  0  2  0  0  0  0  0  0  0  0  0
   49.1653    6.9468   14.9354 C   0  0  0  0  0  0  0  0  0  0  0  0
   50.3464    8.0592   15.0155 H   0  0  0  0  0  0  0  0  0  0  0  0
   50.6839    7.1559   16.3976 H   0  0  0  0  0  0  0  0  0  0  0  0
   48.7522    8.4423   17.6162 H   0  0  0  0  0  0  0  0  0  0  0  0
   51.2013    9.9125   16.5384 H   0  0  0  0  0  0  0  0  0  0  0  0
   51.2058    8.8339   17.9312 H   0  0  0  0  0  0  0  0  0  0  0  0
   49.8302    6.5069   18.1721 H   0  0  0  0  0  0  0  0  0  0  0  0
   49.1131    8.5633   13.5848 H   0  0  0  0  0  0  0  0  0  0  0  0
   46.7251    2.8158   17.1920 H   0  0  0  0  0  0  0  0  0  0  0  0
   46.0408    4.9539   12.2615 H   0  0  0  0  0  0  0  0  0  0  0  0
   47.5686    9.3234   15.6361 H   0  0  0  0  0  0  0  0  0  0  0  0
   48.9917   10.3002   15.2054 H   0  0  0  0  0  0  0  0  0  0  0  0
   48.0926   10.6204   16.6926 H   0  0  0  0  0  0  0  0  0  0  0  0
   51.3199   12.3145   19.1899 H   0  0  0  0  0  0  0  0  0  0  0  0
   52.0348   11.7736   17.6769 H   0  0  0  0  0  0  0  0  0  0  0  0
   52.2355   10.7919   19.1437 H   0  0  0  0  0  0  0  0  0  0  0  0
   49.4287   11.1887   20.1239 H   0  0  0  0  0  0  0  0  0  0  0  0
   48.6216    9.8998   19.2678 H   0  0  0  0  0  0  0  0  0  0  0  0
   50.1796    9.5800   20.0621 H   0  0  0  0  0  0  0  0  0  0  0  0
   48.1242    8.5746   11.4024 H   0  0  0  0  0  0  0  0  0  0  0  0
   49.3844    4.8442   19.8405 H   0  0  0  0  0  0  0  0  0  0  0  0
   47.8201    2.9706   19.3874 H   0  0  0  0  0  0  0  0  0  0  0  0
   46.5766    6.7701   10.6968 H   0  0  0  0  0  0  0  0  0  0  0  0
   50.7099    6.8915   17.0304 H   0  0  0  0  0  0  0  0  0  0  0  0
   50.6056    7.7141   15.5594 H   0  0  0  0  0  0  0  0  0  0  0  0
   48.5696    9.0460   16.5577 H   0  0  0  0  0  0  0  0  0  0  0  0
   50.8852    9.9291   16.2140 H   0  0  0  0  0  0  0  0  0  0  0  0
   51.3649    9.2474   17.7662 H   0  0  0  0  0  0  0  0  0  0  0  0
   49.2598    8.8029   14.3950 H   0  0  0  0  0  0  0  0  0  0  0  0
   49.9196    5.6964   18.3613 H   0  0  0  0  0  0  0  0  0  0  0  0
   46.1279    5.6697   12.2479 H   0  0  0  0  0  0  0  0  0  0  0  0
   46.9084    2.3204   16.4244 H   0  0  0  0  0  0  0  0  0  0  0  0
   49.6286    7.8975   19.1827 H   0  0  0  0  0  0  0  0  0  0  0  0
   48.4232    9.1802   19.0088 H   0  0  0  0  0  0  0  0  0  0  0  0
   48.0383    7.5609   18.4508 H   0  0  0  0  0  0  0  0  0  0  0  0
   49.4329   11.9359   16.1527 H   0  0  0  0  0  0  0  0  0  0  0  0
   48.1824   11.1408   17.1374 H   0  0  0  0  0  0  0  0  0  0  0  0
   48.8918   12.6399   17.6899 H   0  0  0  0  0  0  0  0  0  0  0  0
   52.0949   11.2711   18.6908 H   0  0  0  0  0  0  0  0  0  0  0  0
   51.0838   12.7118   18.6417 H   0  0  0  0  0  0  0  0  0  0  0  0
   51.7954   12.0846   17.1368 H   0  0  0  0  0  0  0  0  0  0  0  0
   49.5039    3.6454   19.5308 H   0  0  0  0  0  0  0  0  0  0  0  0
   48.2411    9.3745   12.2993 H   0  0  0  0  0  0  0  0  0  0  0  0
   46.6585    7.8210   11.1854 H   0  0  0  0  0  0  0  0  0  0  0  0
   47.9975    1.9181   18.5880 H   0  0  0  0  0  0  0  0  0  0  0  0
   48.4574   10.8439   17.0598 H   0  0  0  0  0  0  0  0  0  0  0  0
   49.5564    8.0006   13.4692 H   0  0  0  0  0  0  0  0  0  0  0  0
   49.3380    8.7126   18.8987 H   0  0  0  0  0  0  0  0  0  0  0  0
   48.3894    5.0826   16.1056 H   0  0  0  0  0  0  0  0  0  0  0  0
   47.8071    7.1997   17.7353 H   0  0  0  0  0  0  0  0  0  0  0  0
   50.5464    6.7542   16.5464 H   0  0  0  0  0  0  0  0  0  0  0  0
 10  9  1  0
 11  4  2  0
 12  3  2  0
 13  6  2  0
 14  5  2  0
 15  8  1  0
 16 10  1  0
 17 10  1  0
 18 12  1  0
 19 11  1  0
 20 19  2  0
 21 18  2  0
  5  2  1  0
 13 20  1  0
 14 21  1  0
  2  6  1  0
  3  1  1  0
  4  1  1  0
  5  3  1  0
  6  4  1  0
  7  1  1  0
  8  7  1  0
  9  8  1  0
 31 30  1  0
 32 25  2  0
 33 24  2  0
 34 27  2  0
 35 26  2  0
 36 29  1  0
 37 31  1  0
 38 31  1  0
 39 33  1  0
 40 32  1  0
 41 40  2  0
 42 39  2  0
 26 23  1  0
 34 41  1  0
 35 42  1  0
 23 27  1  0
 24 22  1  0
 25 22  1  0
 26 24  1  0
 27 25  1  0
 28 22  1  0
 29 28  1  0
 30 29  1  0
 49 44  2  0
 50 47  1  0
 51 48  1  0
 49 43  1  0
 51 52  1  0
 50 51  1  0
 52 45  1  0
 49 50  1  0
 52 46  2  0
  7 53  1  0
  7 54  1  0
  8 55  1  1
  9 56  1  0
  9 57  1  0
 11 58  1  0
 12 59  1  0
 13 60  1  0
 14 61  1  0
 15 62  1  0
 15 63  1  0
 15 64  1  0
 16 65  1  0
 16 66  1  0
 16 67  1  0
 17 68  1  0
 17 69  1  0
 17 70  1  0
 18 71  1  0
 19 72  1  0
 20 73  1  0
 21 74  1  0
 28 75  1  0
 28 76  1  0
 29 77  1  1
 30 78  1  0
 30 79  1  0
 32 80  1  0
 33 81  1  0
 34 82  1  0
 35 83  1  0
 36 84  1  0
 36 85  1  0
 36 86  1  0
 37 87  1  0
 37 88  1  0
 37 89  1  0
 38 90  1  0
 38 91  1  0
 38 92  1  0
 39 93  1  0
 40 94  1  0
 41 95  1  0
 42 96  1  0
 43 97  1  0
 45 98  1  0
 47 99  1  0
 48100  1  0
 50101  1  1
 51102  1  6
M  END
> <Uni-Dock RESULT> 
ENERGY=   -7.657  LOWER_BOUND=    3.611  UPPER_BOUND=    6.011
INTER + INTRA:          -7.657
INTER:                  -7.657
INTRA:                   0.000
UNBOUND:                 0.000

$$$$

     RDKit          3D

102105  0  0  0  0  0  0  0  0999 V2000
   50.9816    4.4362   18.8963 N   0  0  0  0  0  0  0  0  0  0  0  0
   50.9540    1.7137   17.2692 S   0  0  0  0  0  0  0  0  0  0  0  0
   49.7860    4.1102   18.1855 C   0  0  0  0  0  0  0  0  0  0  0  0
   52.1599    3.6217   18.9537 C   0  0  0  0  0  0  0  0  0  0  0  0
   49.6683    2.9252   17.4285 C   0  0  0  0  0  0  0  0  0  0  0  0
   52.2434    2.3845   18.2837 C   0  0  0  0  0  0  0  0  0  0  0  0
   51.0754    5.7822   19.5189 C   0  0  0  0  0  0  0  0  0  0  0  0
   50.8571    5.7658   21.0552 C   0  0  1  0  0  0  0  0  0  0  0  0
   51.3853    7.1031   21.6319 C   0  0  0  0  0  0  0  0  0  0  0  0
   51.2536    7.2544   23.0908 N   0  0  0  0  0  0  0  0  0  0  0  0
   53.3086    3.9952   19.6933 C   0  0  0  0  0  0  0  0  0  0  0  0
   48.6404    4.9401   18.1875 C   0  0  0  0  0  0  0  0  0  0  0  0
   53.4073    1.5896   18.3564 C   0  0  0  0  0  0  0  0  0  0  0  0
   48.4842    2.6113   16.7263 C   0  0  0  0  0  0  0  0  0  0  0  0
   49.3951    5.5339   21.4440 C   0  0  0  0  0  0  0  0  0  0  0  0
   51.5962    8.6209   23.4899 C   0  0  0  0  0  0  0  0  0  0  0  0
   52.0833    6.2993   23.8264 C   0  0  0  0  0  0  0  0  0  0  0  0
   47.4665    4.6287   17.4846 C   0  0  0  0  0  0  0  0  0  0  0  0
   54.4594    3.2001   19.7664 C   0  0  0  0  0  0  0  0  0  0  0  0
   54.5106    1.9925   19.0964 C   0  0  0  0  0  0  0  0  0  0  0  0
   47.3893    3.4616   16.7503 C   0  0  0  0  0  0  0  0  0  0  0  0
   51.3474    4.4215   18.9216 N   0  0  0  0  0  0  0  0  0  0  0  0
   50.7668    1.9032   17.0835 S   0  0  0  0  0  0  0  0  0  0  0  0
   52.4459    3.5536   18.6365 C   0  0  0  0  0  0  0  0  0  0  0  0
   50.0007    4.2317   18.4674 C   0  0  0  0  0  0  0  0  0  0  0  0
   52.2952    2.4047   17.8315 C   0  0  0  0  0  0  0  0  0  0  0  0
   49.6325    3.1370   17.6595 C   0  0  0  0  0  0  0  0  0  0  0  0
   51.6336    5.6977   19.6280 C   0  0  0  0  0  0  0  0  0  0  0  0
   51.2435    5.6655   21.1303 C   0  0  2  0  0  0  0  0  0  0  0  0
   51.1652    7.1277   21.6386 C   0  0  0  0  0  0  0  0  0  0  0  0
   50.8052    7.2872   23.0588 N   0  0  0  0  0  0  0  0  0  0  0  0
   48.9499    5.1191   18.8048 C   0  0  0  0  0  0  0  0  0  0  0  0
   53.7488    3.7731   19.1416 C   0  0  0  0  0  0  0  0  0  0  0  0
   48.3009    2.9540   17.2293 C   0  0  0  0  0  0  0  0  0  0  0  0
   53.3859    1.5547   17.5519 C   0  0  0  0  0  0  0  0  0  0  0  0
   52.2121    4.8325   21.9748 C   0  0  0  0  0  0  0  0  0  0  0  0
   49.4445    6.8242   23.3403 C   0  0  0  0  0  0  0  0  0  0  0  0
   50.9502    8.6896   23.4618 C   0  0  0  0  0  0  0  0  0  0  0  0
   54.8275    2.9207   18.8652 C   0  0  0  0  0  0  0  0  0  0  0  0
   47.6302    4.9385   18.3670 C   0  0  0  0  0  0  0  0  0  0  0  0
   47.3030    3.8512   17.5796 C   0  0  0  0  0  0  0  0  0  0  0  0
   54.6502    1.8125   18.0593 C   0  0  0  0  0  0  0  0  0  0  0  0
   50.4882    5.7109   22.5228 O   0  0  0  0  0  0  0  0  0  0  0  0
   49.2386    4.6043   21.0447 O   0  0  0  0  0  0  0  0  0  0  0  0
   49.8310    6.1422   18.6882 O   0  0  0  0  0  0  0  0  0  0  0  0
   50.0675    4.0885   17.8217 O   0  0  0  0  0  0  0  0  0  0  0  0
   52.7777    5.2419   21.4846 O   0  0  0  0  0  0  0  0  0  0  0  0
   52.6675    3.9407   18.6560 O   0  0  0  0  0  0  0  0  0  0  0  0
   50.3463    4.9642   21.4033 C   0  0  0  0  0  0  0  0  0  0  0  0
   51.6960    4.6028   20.7785 C   0  0  1  0  0  0  0  0  0  0  0  0
   51.8212    4.9289   19.2856 C   0  0  2  0  0  0  0  0  0  0  0  0
   50.5004    4.9840   18.5332 C   0  0  0  0  0  0  0  0  0  0  0  0
   50.4150    6.5208   19.0530 H   0  0  0  0  0  0  0  0  0  0  0  0
   52.0563    6.2128   19.2799 H   0  0  0  0  0  0  0  0  0  0  0  0
   51.4337    4.9420   21.4864 H   0  0  0  0  0  0  0  0  0  0  0  0
   50.8255    7.9143   21.1445 H   0  0  0  0  0  0  0  0  0  0  0  0
   52.4376    7.2320   21.3429 H   0  0  0  0  0  0  0  0  0  0  0  0
   53.3557    4.9225   20.2525 H   0  0  0  0  0  0  0  0  0  0  0  0
   48.5986    5.8658   18.7467 H   0  0  0  0  0  0  0  0  0  0  0  0
   53.4530    0.6357   17.8361 H   0  0  0  0  0  0  0  0  0  0  0  0
   48.4155    1.6922   16.1457 H   0  0  0  0  0  0  0  0  0  0  0  0
   49.0295    4.5790   21.0553 H   0  0  0  0  0  0  0  0  0  0  0  0
   48.7489    6.3357   21.0735 H   0  0  0  0  0  0  0  0  0  0  0  0
   49.2799    5.4902   22.5317 H   0  0  0  0  0  0  0  0  0  0  0  0
   51.4461    8.7592   24.5672 H   0  0  0  0  0  0  0  0  0  0  0  0
   50.9452    9.3451   22.9864 H   0  0  0  0  0  0  0  0  0  0  0  0
   52.6360    8.8695   23.2517 H   0  0  0  0  0  0  0  0  0  0  0  0
   51.9839    6.4545   24.9067 H   0  0  0  0  0  0  0  0  0  0  0  0
   51.7589    5.2711   23.6440 H   0  0  0  0  0  0  0  0  0  0  0  0
   53.1439    6.3827   23.5633 H   0  0  0  0  0  0  0  0  0  0  0  0
   46.6138    5.3017   17.5288 H   0  0  0  0  0  0  0  0  0  0  0  0
   55.3110    3.5391   20.3497 H   0  0  0  0  0  0  0  0  0  0  0  0
   55.3973    1.3674   19.1502 H   0  0  0  0  0  0  0  0  0  0  0  0
   46.4857    3.2109   16.2016 H   0  0  0  0  0  0  0  0  0  0  0  0
   52.6721    6.0275   19.5196 H   0  0  0  0  0  0  0  0  0  0  0  0
   51.1064    6.5152   19.1171 H   0  0  0  0  0  0  0  0  0  0  0  0
   50.2567    5.2039   21.2324 H   0  0  0  0  0  0  0  0  0  0  0  0
   50.4536    7.6888   21.0169 H   0  0  0  0  0  0  0  0  0  0  0  0
   52.1515    7.5842   21.4756 H   0  0  0  0  0  0  0  0  0  0  0  0
   49.1096    5.9938   19.4234 H   0  0  0  0  0  0  0  0  0  0  0  0
   53.9822    4.6027   19.7988 H   0  0  0  0  0  0  0  0  0  0  0  0
   48.0405    2.0993   16.6080 H   0  0  0  0  0  0  0  0  0  0  0  0
   53.2497    0.6739   16.9275 H   0  0  0  0  0  0  0  0  0  0  0  0
   53.2262    5.2464   21.9478 H   0  0  0  0  0  0  0  0  0  0  0  0
   51.8938    4.8017   23.0228 H   0  0  0  0  0  0  0  0  0  0  0  0
   52.2404    3.7962   21.6263 H   0  0  0  0  0  0  0  0  0  0  0  0
   48.6973    7.3449   22.7308 H   0  0  0  0  0  0  0  0  0  0  0  0
   49.3466    5.7474   23.1691 H   0  0  0  0  0  0  0  0  0  0  0  0
   49.1949    6.9832   24.3961 H   0  0  0  0  0  0  0  0  0  0  0  0
   51.9835    9.0282   23.3113 H   0  0  0  0  0  0  0  0  0  0  0  0
   50.7318    8.8096   24.5303 H   0  0  0  0  0  0  0  0  0  0  0  0
   50.2837    9.3517   22.8963 H   0  0  0  0  0  0  0  0  0  0  0  0
   55.8064    3.1354   19.2825 H   0  0  0  0  0  0  0  0  0  0  0  0
   46.8619    5.6492   18.6583 H   0  0  0  0  0  0  0  0  0  0  0  0
   46.2841    3.6989   17.2365 H   0  0  0  0  0  0  0  0  0  0  0  0
   55.4803    1.1487   17.8373 H   0  0  0  0  0  0  0  0  0  0  0  0
   49.5682    5.8629   22.8414 H   0  0  0  0  0  0  0  0  0  0  0  0
   49.0098    6.0121   18.1669 H   0  0  0  0  0  0  0  0  0  0  0  0
   52.4470    5.4048   22.3919 H   0  0  0  0  0  0  0  0  0  0  0  0
   52.0746    3.2864   18.2384 H   0  0  0  0  0  0  0  0  0  0  0  0
   51.8317    3.5253   20.9515 H   0  0  0  0  0  0  0  0  0  0  0  0
   52.3328    5.8872   19.1388 H   0  0  0  0  0  0  0  0  0  0  0  0
 10  9  1  0
 11  4  2  0
 12  3  2  0
 13  6  2  0
 14  5  2  0
 15  8  1  0
 16 10  1  0
 17 10  1  0
 18 12  1  0
 19 11  1  0
 20 19  2  0
 21 18  2  0
  5  2  1  0
 13 20  1  0
 14 21  1  0
  2  6  1  0
  3  1  1  0
  4  1  1  0
  5  3  1  0
  6  4  1  0
  7  1  1  0
  8  7  1  0
  9  8  1  0
 31 30  1  0
 32 25  2  0
 33 24  2  0
 34 27  2  0
 35 26  2  0
 36 29  1  0
 37 31  1  0
 38 31  1  0
 39 33  1  0
 40 32  1  0
 41 40  2  0
 42 39  2  0
 26 23  1  0
 34 41  1  0
 35 42  1  0
 23 27  1  0
 24 22  1  0
 25 22  1  0
 26 24  1  0
 27 25  1  0
 28 22  1  0
 29 28  1  0
 30 29  1  0
 49 44  2  0
 50 47  1  0
 51 48  1  0
 49 43  1  0
 51 52  1  0
 50 51  1  0
 52 45  1  0
 49 50  1  0
 52 46  2  0
  7 53  1  0
  7 54  1  0
  8 55  1  1
  9 56  1  0
  9 57  1  0
 11 58  1  0
 12 59  1  0
 13 60  1  0
 14 61  1  0
 15 62  1  0
 15 63  1  0
 15 64  1  0
 16 65  1  0
 16 66  1  0
 16 67  1  0
 17 68  1  0
 17 69  1  0
 17 70  1  0
 18 71  1  0
 19 72  1  0
 20 73  1  0
 21 74  1  0
 28 75  1  0
 28 76  1  0
 29 77  1  1
 30 78  1  0
 30 79  1  0
 32 80  1  0
 33 81  1  0
 34 82  1  0
 35 83  1  0
 36 84  1  0
 36 85  1  0
 36 86  1  0
 37 87  1  0
 37 88  1  0
 37 89  1  0
 38 90  1  0
 38 91  1  0
 38 92  1  0
 39 93  1  0
 40 94  1  0
 41 95  1  0
 42 96  1  0
 43 97  1  0
 45 98  1  0
 47 99  1  0
 48100  1  0
 50101  1  1
 51102  1  6
M  END
> <Uni-Dock RESULT> 
ENERGY=   -7.592  LOWER_BOUND=    7.739  UPPER_BOUND=   10.157
INTER + INTRA:          -7.592
INTER:                  -7.592
INTRA:                   0.000
UNBOUND:                 0.000

$$$$

     RDKit          3D

102105  0  0  0  0  0  0  0  0999 V2000
   47.8653    6.8394   13.3893 N   0  0  0  0  0  0  0  0  0  0  0  0
   47.1131    4.5297   15.4289 S   0  0  0  0  0  0  0  0  0  0  0  0
   46.8538    5.9143   12.9870 C   0  0  0  0  0  0  0  0  0  0  0  0
   48.5497    6.8231   14.6489 C   0  0  0  0  0  0  0  0  0  0  0  0
   46.4455    4.8485   13.8169 C   0  0  0  0  0  0  0  0  0  0  0  0
   48.2755    5.8521   15.6330 C   0  0  0  0  0  0  0  0  0  0  0  0
   48.3517    7.8191   12.3834 C   0  0  0  0  0  0  0  0  0  0  0  0
   47.7801    9.2470   12.5890 C   0  0  1  0  0  0  0  0  0  0  0  0
   48.6554   10.2380   11.7818 C   0  0  0  0  0  0  0  0  0  0  0  0
   48.2478   11.6505   11.8670 N   0  0  0  0  0  0  0  0  0  0  0  0
   49.5327    7.7826   14.9939 C   0  0  0  0  0  0  0  0  0  0  0  0
   46.1899    5.9958   11.7405 C   0  0  0  0  0  0  0  0  0  0  0  0
   48.9517    5.8539   16.8718 C   0  0  0  0  0  0  0  0  0  0  0  0
   45.4469    3.9364   13.4109 C   0  0  0  0  0  0  0  0  0  0  0  0
   46.3064    9.3588   12.1914 C   0  0  0  0  0  0  0  0  0  0  0  0
   49.0154   12.4561   10.9154 C   0  0  0  0  0  0  0  0  0  0  0  0
   48.4035   12.1940   13.2170 C   0  0  0  0  0  0  0  0  0  0  0  0
   45.2016    5.0850   11.3369 C   0  0  0  0  0  0  0  0  0  0  0  0
   50.1973    7.7830   16.2269 C   0  0  0  0  0  0  0  0  0  0  0  0
   49.9068    6.8161   17.1705 C   0  0  0  0  0  0  0  0  0  0  0  0
   44.8306    4.0512   12.1742 C   0  0  0  0  0  0  0  0  0  0  0  0
   48.1742    6.9078   13.5753 N   0  0  0  0  0  0  0  0  0  0  0  0
   47.0721    4.3811   15.1431 S   0  0  0  0  0  0  0  0  0  0  0  0
   48.8499    6.5403   14.7793 C   0  0  0  0  0  0  0  0  0  0  0  0
   47.0239    6.2447   13.0340 C   0  0  0  0  0  0  0  0  0  0  0  0
   48.4391    5.4345   15.5535 C   0  0  0  0  0  0  0  0  0  0  0  0
   46.4453    5.1226   13.6605 C   0  0  0  0  0  0  0  0  0  0  0  0
   48.7804    7.9731   12.7343 C   0  0  0  0  0  0  0  0  0  0  0  0
   48.0596    9.3417   12.8680 C   0  0  2  0  0  0  0  0  0  0  0  0
   48.4707   10.2221   11.6604 C   0  0  0  0  0  0  0  0  0  0  0  0
   47.8754   11.5698   11.6262 N   0  0  0  0  0  0  0  0  0  0  0  0
   46.3855    6.6738   11.8449 C   0  0  0  0  0  0  0  0  0  0  0  0
   49.9616    7.2543   15.2843 C   0  0  0  0  0  0  0  0  0  0  0  0
   45.3052    4.4861   13.1249 C   0  0  0  0  0  0  0  0  0  0  0  0
   49.1140    5.0761   16.7395 C   0  0  0  0  0  0  0  0  0  0  0  0
   48.3613   10.0412   14.1966 C   0  0  0  0  0  0  0  0  0  0  0  0
   46.4214   11.5286   11.4552 C   0  0  0  0  0  0  0  0  0  0  0  0
   48.4834   12.3630   10.5532 C   0  0  0  0  0  0  0  0  0  0  0  0
   50.6241    6.8967   16.4674 C   0  0  0  0  0  0  0  0  0  0  0  0
   45.2587    6.0324   11.3112 C   0  0  0  0  0  0  0  0  0  0  0  0
   44.7141    4.9372   11.9541 C   0  0  0  0  0  0  0  0  0  0  0  0
   50.2071    5.7978   17.1939 C   0  0  0  0  0  0  0  0  0  0  0  0
   47.0770   10.5790   12.7457 O   0  0  0  0  0  0  0  0  0  0  0  0
   45.8825    8.6993   12.8497 O   0  0  0  0  0  0  0  0  0  0  0  0
   47.6094    6.9644   11.3409 O   0  0  0  0  0  0  0  0  0  0  0  0
   47.1804    5.5994   13.0663 O   0  0  0  0  0  0  0  0  0  0  0  0
   49.1458    9.7636   14.0087 O   0  0  0  0  0  0  0  0  0  0  0  0
   49.1994    6.6959   14.5492 O   0  0  0  0  0  0  0  0  0  0  0  0
   46.9163    9.2873   13.1154 C   0  0  0  0  0  0  0  0  0  0  0  0
   48.1040    8.7708   13.9312 C   0  0  1  0  0  0  0  0  0  0  0  0
   48.7111    7.4581   13.4224 C   0  0  2  0  0  0  0  0  0  0  0  0
   47.7570    6.5830   12.6239 C   0  0  0  0  0  0  0  0  0  0  0  0
   48.1898    7.4942   11.3505 H   0  0  0  0  0  0  0  0  0  0  0  0
   49.4485    7.8414   12.4159 H   0  0  0  0  0  0  0  0  0  0  0  0
   47.8416    9.5040   13.6508 H   0  0  0  0  0  0  0  0  0  0  0  0
   48.6170    9.9262   10.7281 H   0  0  0  0  0  0  0  0  0  0  0  0
   49.7026   10.1382   12.0992 H   0  0  0  0  0  0  0  0  0  0  0  0
   49.8208    8.5792   14.3176 H   0  0  0  0  0  0  0  0  0  0  0  0
   46.3993    6.7800   11.0246 H   0  0  0  0  0  0  0  0  0  0  0  0
   48.7247    5.0993   17.6213 H   0  0  0  0  0  0  0  0  0  0  0  0
   45.1485    3.1190   14.0661 H   0  0  0  0  0  0  0  0  0  0  0  0
   45.6858    8.6746   12.7775 H   0  0  0  0  0  0  0  0  0  0  0  0
   46.1598    9.1442   11.1283 H   0  0  0  0  0  0  0  0  0  0  0  0
   45.9230   10.3661   12.3828 H   0  0  0  0  0  0  0  0  0  0  0  0
   48.6789   13.4996   10.9310 H   0  0  0  0  0  0  0  0  0  0  0  0
   48.8649   12.0928    9.8921 H   0  0  0  0  0  0  0  0  0  0  0  0
   50.0887   12.4363   11.1329 H   0  0  0  0  0  0  0  0  0  0  0  0
   48.1178   13.2518   13.2418 H   0  0  0  0  0  0  0  0  0  0  0  0
   47.7388   11.6911   13.9248 H   0  0  0  0  0  0  0  0  0  0  0  0
   49.4330   12.1073   13.5826 H   0  0  0  0  0  0  0  0  0  0  0  0
   44.7198    5.2017   10.3693 H   0  0  0  0  0  0  0  0  0  0  0  0
   50.9431    8.5450   16.4355 H   0  0  0  0  0  0  0  0  0  0  0  0
   50.4144    6.8105   18.1310 H   0  0  0  0  0  0  0  0  0  0  0  0
   44.0672    3.3399   11.8716 H   0  0  0  0  0  0  0  0  0  0  0  0
   49.8546    8.0993   12.9054 H   0  0  0  0  0  0  0  0  0  0  0  0
   48.7789    7.6451   11.6857 H   0  0  0  0  0  0  0  0  0  0  0  0
   46.9781    9.1797   12.8338 H   0  0  0  0  0  0  0  0  0  0  0  0
   48.2284    9.6928   10.7283 H   0  0  0  0  0  0  0  0  0  0  0  0
   49.5645   10.3247   11.6874 H   0  0  0  0  0  0  0  0  0  0  0  0
   46.7363    7.5270   11.2773 H   0  0  0  0  0  0  0  0  0  0  0  0
   50.3491    8.1414   14.7970 H   0  0  0  0  0  0  0  0  0  0  0  0
   44.8749    3.6226   13.6283 H   0  0  0  0  0  0  0  0  0  0  0  0
   48.7827    4.2187   17.3221 H   0  0  0  0  0  0  0  0  0  0  0  0
   49.4289   10.2649   14.2991 H   0  0  0  0  0  0  0  0  0  0  0  0
   47.8146   10.9874   14.2759 H   0  0  0  0  0  0  0  0  0  0  0  0
   48.0433    9.4247   15.0422 H   0  0  0  0  0  0  0  0  0  0  0  0
   46.1282   10.9950   10.5441 H   0  0  0  0  0  0  0  0  0  0  0  0
   45.9328   11.0528   12.3116 H   0  0  0  0  0  0  0  0  0  0  0  0
   46.0114   12.5442   11.4031 H   0  0  0  0  0  0  0  0  0  0  0  0
   49.5669   12.4510   10.7064 H   0  0  0  0  0  0  0  0  0  0  0  0
   48.0816   13.3840   10.5515 H   0  0  0  0  0  0  0  0  0  0  0  0
   48.3088   11.9213    9.5649 H   0  0  0  0  0  0  0  0  0  0  0  0
   51.4708    7.4829   16.8108 H   0  0  0  0  0  0  0  0  0  0  0  0
   44.8067    6.4058   10.3967 H   0  0  0  0  0  0  0  0  0  0  0  0
   43.8401    4.4336   11.5522 H   0  0  0  0  0  0  0  0  0  0  0  0
   50.7160    5.5116   18.1094 H   0  0  0  0  0  0  0  0  0  0  0  0
   46.2546   10.8026   12.2511 H   0  0  0  0  0  0  0  0  0  0  0  0
   46.9615    6.3237   10.9768 H   0  0  0  0  0  0  0  0  0  0  0  0
   48.7022   10.6284   13.8876 H   0  0  0  0  0  0  0  0  0  0  0  0
   48.5103    6.0379   14.7645 H   0  0  0  0  0  0  0  0  0  0  0  0
   47.7365    8.6532   14.9610 H   0  0  0  0  0  0  0  0  0  0  0  0
   49.5913    7.6531   12.7987 H   0  0  0  0  0  0  0  0  0  0  0  0
 10  9  1  0
 11  4  2  0
 12  3  2  0
 13  6  2  0
 14  5  2  0
 15  8  1  0
 16 10  1  0
 17 10  1  0
 18 12  1  0
 19 11  1  0
 20 19  2  0
 21 18  2  0
  5  2  1  0
 13 20  1  0
 14 21  1  0
  2  6  1  0
  3  1  1  0
  4  1  1  0
  5  3  1  0
  6  4  1  0
  7  1  1  0
  8  7  1  0
  9  8  1  0
 31 30  1  0
 32 25  2  0
 33 24  2  0
 34 27  2  0
 35 26  2  0
 36 29  1  0
 37 31  1  0
 38 31  1  0
 39 33  1  0
 40 32  1  0
 41 40  2  0
 42 39  2  0
 26 23  1  0
 34 41  1  0
 35 42  1  0
 23 27  1  0
 24 22  1  0
 25 22  1  0
 26 24  1  0
 27 25  1  0
 28 22  1  0
 29 28  1  0
 30 29  1  0
 49 44  2  0
 50 47  1  0
 51 48  1  0
 49 43  1  0
 51 52  1  0
 50 51  1  0
 52 45  1  0
 49 50  1  0
 52 46  2  0
  7 53  1  0
  7 54  1  0
  8 55  1  1
  9 56  1  0
  9 57  1  0
 11 58  1  0
 12 59  1  0
 13 60  1  0
 14 61  1  0
 15 62  1  0
 15 63  1  0
 15 64  1  0
 16 65  1  0
 16 66  1  0
 16 67  1  0
 17 68  1  0
 17 69  1  0
 17 70  1  0
 18 71  1  0
 19 72  1  0
 20 73  1  0
 21 74  1  0
 28 75  1  0
 28 76  1  0
 29 77  1  1
 30 78  1  0
 30 79  1  0
 32 80  1  0
 33 81  1  0
 34 82  1  0
 35 83  1  0
 36 84  1  0
 36 85  1  0
 36 86  1  0
 37 87  1  0
 37 88  1  0
 37 89  1  0
 38 90  1  0
 38 91  1  0
 38 92  1  0
 39 93  1  0
 40 94  1  0
 41 95  1  0
 42 96  1  0
 43 97  1  0
 45 98  1  0
 47 99  1  0
 48100  1  0
 50101  1  1
 51102  1  6
M  END
> <Uni-Dock RESULT> 
ENERGY=   -7.591  LOWER_BOUND=    2.297  UPPER_BOUND=    4.633
INTER + INTRA:          -7.591
INTER:                  -7.591
INTRA:                   0.000
UNBOUND:                 0.000

$$$$

     RDKit          3D

102105  0  0  0  0  0  0  0  0999 V2000
   48.8834    6.5430   16.0446 N   0  0  0  0  0  0  0  0  0  0  0  0
   47.0225    4.4802   14.5142 S   0  0  0  0  0  0  0  0  0  0  0  0
   48.4678    5.3792   16.7614 C   0  0  0  0  0  0  0  0  0  0  0  0
   48.5481    6.8415   14.6831 C   0  0  0  0  0  0  0  0  0  0  0  0
   47.6377    4.3998   16.1758 C   0  0  0  0  0  0  0  0  0  0  0  0
   47.7446    5.9812   13.9082 C   0  0  0  0  0  0  0  0  0  0  0  0
   49.6085    7.6004   16.7958 C   0  0  0  0  0  0  0  0  0  0  0  0
   51.1380    7.6022   16.5337 C   0  0  1  0  0  0  0  0  0  0  0  0
   51.7076    8.9617   17.0102 C   0  0  0  0  0  0  0  0  0  0  0  0
   53.1596    9.1320   16.8330 N   0  0  0  0  0  0  0  0  0  0  0  0
   49.0086    8.0072   14.0235 C   0  0  0  0  0  0  0  0  0  0  0  0
   48.8536    5.1213   18.0977 C   0  0  0  0  0  0  0  0  0  0  0  0
   47.4299    6.2845   12.5662 C   0  0  0  0  0  0  0  0  0  0  0  0
   47.2287    3.2535   16.8918 C   0  0  0  0  0  0  0  0  0  0  0  0
   51.8570    6.4326   17.2103 C   0  0  0  0  0  0  0  0  0  0  0  0
   53.6090   10.3581   17.4954 C   0  0  0  0  0  0  0  0  0  0  0  0
   53.5486    9.1583   15.4223 C   0  0  0  0  0  0  0  0  0  0  0  0
   48.4416    3.9840   18.8091 C   0  0  0  0  0  0  0  0  0  0  0  0
   48.6975    8.3011   12.6898 C   0  0  0  0  0  0  0  0  0  0  0  0
   47.9056    7.4376   11.9569 C   0  0  0  0  0  0  0  0  0  0  0  0
   47.6252    3.0485   18.2046 C   0  0  0  0  0  0  0  0  0  0  0  0
   48.8131    6.7994   15.7917 N   0  0  0  0  0  0  0  0  0  0  0  0
   46.9128    4.4544   14.8187 S   0  0  0  0  0  0  0  0  0  0  0  0
   48.1631    6.9661   14.5304 C   0  0  0  0  0  0  0  0  0  0  0  0
   48.6976    5.6483   16.6388 C   0  0  0  0  0  0  0  0  0  0  0  0
   47.2994    5.9822   14.0044 C   0  0  0  0  0  0  0  0  0  0  0  0
   47.8925    4.5445   16.2928 C   0  0  0  0  0  0  0  0  0  0  0  0
   49.5620    7.9571   16.3472 C   0  0  0  0  0  0  0  0  0  0  0  0
   51.1008    7.8204   16.1932 C   0  0  2  0  0  0  0  0  0  0  0  0
   51.7728    8.8206   17.1682 C   0  0  0  0  0  0  0  0  0  0  0  0
   53.2464    8.8276   17.1538 N   0  0  0  0  0  0  0  0  0  0  0  0
   49.3881    5.5352   17.8701 C   0  0  0  0  0  0  0  0  0  0  0  0
   48.3420    8.1115   13.7199 C   0  0  0  0  0  0  0  0  0  0  0  0
   47.7969    3.4116   17.1290 C   0  0  0  0  0  0  0  0  0  0  0  0
   46.6585    6.1560   12.7596 C   0  0  0  0  0  0  0  0  0  0  0  0
   51.5728    8.0425   14.7533 C   0  0  0  0  0  0  0  0  0  0  0  0
   53.8107    7.5611   17.6259 C   0  0  0  0  0  0  0  0  0  0  0  0
   53.7538    9.9362   17.9686 C   0  0  0  0  0  0  0  0  0  0  0  0
   47.7070    8.2754   12.4804 C   0  0  0  0  0  0  0  0  0  0  0  0
   49.2825    4.4118   18.7023 C   0  0  0  0  0  0  0  0  0  0  0  0
   48.4874    3.3447   18.3299 C   0  0  0  0  0  0  0  0  0  0  0  0
   46.8536    7.3001   12.0011 C   0  0  0  0  0  0  0  0  0  0  0  0
   52.6355    7.4613   16.3585 O   0  0  0  0  0  0  0  0  0  0  0  0
   51.4089    5.6396   16.7428 O   0  0  0  0  0  0  0  0  0  0  0  0
   49.1668    6.8574   18.0690 O   0  0  0  0  0  0  0  0  0  0  0  0
   48.0443    5.5270   16.6568 O   0  0  0  0  0  0  0  0  0  0  0  0
   51.0040    8.6759   14.8085 O   0  0  0  0  0  0  0  0  0  0  0  0
   48.1688    7.3928   14.6615 O   0  0  0  0  0  0  0  0  0  0  0  0
   51.5124    6.7241   16.1968 C   0  0  0  0  0  0  0  0  0  0  0  0
   50.5288    7.3806   15.2250 C   0  0  1  0  0  0  0  0  0  0  0  0
   49.0993    7.5284   15.7592 C   0  0  2  0  0  0  0  0  0  0  0  0
   48.7182    6.5305   16.8421 C   0  0  0  0  0  0  0  0  0  0  0  0
   49.4114    7.5779   17.8724 H   0  0  0  0  0  0  0  0  0  0  0  0
   49.1780    8.5756   16.5345 H   0  0  0  0  0  0  0  0  0  0  0  0
   51.3136    7.5020   15.4584 H   0  0  0  0  0  0  0  0  0  0  0  0
   51.4725    9.0590   18.0799 H   0  0  0  0  0  0  0  0  0  0  0  0
   51.1771    9.7764   16.4982 H   0  0  0  0  0  0  0  0  0  0  0  0
   49.6378    8.7376   14.5192 H   0  0  0  0  0  0  0  0  0  0  0  0
   49.5051    5.7864   18.6496 H   0  0  0  0  0  0  0  0  0  0  0  0
   46.8115    5.6072   11.9817 H   0  0  0  0  0  0  0  0  0  0  0  0
   46.5855    2.5109   16.4214 H   0  0  0  0  0  0  0  0  0  0  0  0
   51.4694    5.4726   16.8567 H   0  0  0  0  0  0  0  0  0  0  0  0
   51.7550    6.4741   18.2991 H   0  0  0  0  0  0  0  0  0  0  0  0
   52.9263    6.4402   16.9763 H   0  0  0  0  0  0  0  0  0  0  0  0
   54.6976   10.4639   17.4177 H   0  0  0  0  0  0  0  0  0  0  0  0
   53.3718   10.3283   18.5652 H   0  0  0  0  0  0  0  0  0  0  0  0
   53.1439   11.2513   17.0647 H   0  0  0  0  0  0  0  0  0  0  0  0
   54.6291    9.3126   15.3234 H   0  0  0  0  0  0  0  0  0  0  0  0
   53.3406    8.2008   14.9368 H   0  0  0  0  0  0  0  0  0  0  0  0
   53.0358    9.9509   14.8656 H   0  0  0  0  0  0  0  0  0  0  0  0
   48.7761    3.8346   19.8327 H   0  0  0  0  0  0  0  0  0  0  0  0
   49.0796    9.2115   12.2366 H   0  0  0  0  0  0  0  0  0  0  0  0
   47.6621    7.6552   10.9209 H   0  0  0  0  0  0  0  0  0  0  0  0
   47.2995    2.1648   18.7461 H   0  0  0  0  0  0  0  0  0  0  0  0
   49.2310    8.9194   15.9429 H   0  0  0  0  0  0  0  0  0  0  0  0
   49.2967    8.0796   17.4063 H   0  0  0  0  0  0  0  0  0  0  0  0
   51.3979    6.8046   16.4707 H   0  0  0  0  0  0  0  0  0  0  0  0
   51.4191    8.6225   18.1896 H   0  0  0  0  0  0  0  0  0  0  0  0
   51.4167    9.8258   16.9028 H   0  0  0  0  0  0  0  0  0  0  0  0
   50.0397    6.3173   18.2401 H   0  0  0  0  0  0  0  0  0  0  0  0
   49.0069    8.9202   14.0002 H   0  0  0  0  0  0  0  0  0  0  0  0
   47.1705    2.5703   16.8390 H   0  0  0  0  0  0  0  0  0  0  0  0
   45.9945    5.3860   12.3715 H   0  0  0  0  0  0  0  0  0  0  0  0
   51.3356    9.0537   14.4047 H   0  0  0  0  0  0  0  0  0  0  0  0
   52.6570    7.9082   14.6697 H   0  0  0  0  0  0  0  0  0  0  0  0
   51.1147    7.3153   14.0769 H   0  0  0  0  0  0  0  0  0  0  0  0
   53.4733    7.3110   18.6380 H   0  0  0  0  0  0  0  0  0  0  0  0
   53.5504    6.7349   16.9564 H   0  0  0  0  0  0  0  0  0  0  0  0
   54.9061    7.6070   17.6326 H   0  0  0  0  0  0  0  0  0  0  0  0
   53.3847   10.8961   17.5846 H   0  0  0  0  0  0  0  0  0  0  0  0
   54.8492    9.9793   17.9240 H   0  0  0  0  0  0  0  0  0  0  0  0
   53.4540    9.8460   19.0194 H   0  0  0  0  0  0  0  0  0  0  0  0
   47.8832    9.1743   11.8978 H   0  0  0  0  0  0  0  0  0  0  0  0
   49.8371    4.3764   19.6357 H   0  0  0  0  0  0  0  0  0  0  0  0
   48.3996    2.4680   18.9645 H   0  0  0  0  0  0  0  0  0  0  0  0
   46.3552    7.4199   11.0439 H   0  0  0  0  0  0  0  0  0  0  0  0
   53.1923    6.9373   16.9802 H   0  0  0  0  0  0  0  0  0  0  0  0
   48.8601    6.1186   18.6374 H   0  0  0  0  0  0  0  0  0  0  0  0
   51.9779    8.6496   14.9082 H   0  0  0  0  0  0  0  0  0  0  0  0
   47.8450    6.4714   14.6786 H   0  0  0  0  0  0  0  0  0  0  0  0
   50.5400    6.7605   14.3168 H   0  0  0  0  0  0  0  0  0  0  0  0
   48.9357    8.5365   16.1574 H   0  0  0  0  0  0  0  0  0  0  0  0
 10  9  1  0
 11  4  2  0
 12  3  2  0
 13  6  2  0
 14  5  2  0
 15  8  1  0
 16 10  1  0
 17 10  1  0
 18 12  1  0
 19 11  1  0
 20 19  2  0
 21 18  2  0
  5  2  1  0
 13 20  1  0
 14 21  1  0
  2  6  1  0
  3  1  1  0
  4  1  1  0
  5  3  1  0
  6  4  1  0
  7  1  1  0
  8  7  1  0
  9  8  1  0
 31 30  1  0
 32 25  2  0
 33 24  2  0
 34 27  2  0
 35 26  2  0
 36 29  1  0
 37 31  1  0
 38 31  1  0
 39 33  1  0
 40 32  1  0
 41 40  2  0
 42 39  2  0
 26 23  1  0
 34 41  1  0
 35 42  1  0
 23 27  1  0
 24 22  1  0
 25 22  1  0
 26 24  1  0
 27 25  1  0
 28 22  1  0
 29 28  1  0
 30 29  1  0
 49 44  2  0
 50 47  1  0
 51 48  1  0
 49 43  1  0
 51 52  1  0
 50 51  1  0
 52 45  1  0
 49 50  1  0
 52 46  2  0
  7 53  1  0
  7 54  1  0
  8 55  1  1
  9 56  1  0
  9 57  1  0
 11 58  1  0
 12 59  1  0
 13 60  1  0
 14 61  1  0
 15 62  1  0
 15 63  1  0
 15 64  1  0
 16 65  1  0
 16 66  1  0
 16 67  1  0
 17 68  1  0
 17 69  1  0
 17 70  1  0
 18 71  1  0
 19 72  1  0
 20 73  1  0
 21 74  1  0
 28 75  1  0
 28 76  1  0
 29 77  1  1
 30 78  1  0
 30 79  1  0
 32 80  1  0
 33 81  1  0
 34 82  1  0
 35 83  1  0
 36 84  1  0
 36 85  1  0
 36 86  1  0
 37 87  1  0
 37 88  1  0
 37 89  1  0
 38 90  1  0
 38 91  1  0
 38 92  1  0
 39 93  1  0
 40 94  1  0
 41 95  1  0
 42 96  1  0
 43 97  1  0
 45 98  1  0
 47 99  1  0
 48100  1  0
 50101  1  1
 51102  1  6
M  END
> <Uni-Dock RESULT> 
ENERGY=   -7.446  LOWER_BOUND=    3.548  UPPER_BOUND=    4.830
INTER + INTRA:          -7.446
INTER:                  -7.446
INTRA:                   0.000
UNBOUND:                 0.000

$$$$

     RDKit          3D

102105  0  0  0  0  0  0  0  0999 V2000
   47.8657    7.6402   19.9788 N   0  0  0  0  0  0  0  0  0  0  0  0
   48.5324    4.8126   21.2520 S   0  0  0  0  0  0  0  0  0  0  0  0
   47.7001    7.5024   21.3910 C   0  0  0  0  0  0  0  0  0  0  0  0
   48.3319    6.6123   19.0949 C   0  0  0  0  0  0  0  0  0  0  0  0
   47.9662    6.2878   22.0580 C   0  0  0  0  0  0  0  0  0  0  0  0
   48.6747    5.3274   19.5620 C   0  0  0  0  0  0  0  0  0  0  0  0
   47.3954    8.8981   19.3427 C   0  0  0  0  0  0  0  0  0  0  0  0
   48.5469    9.8762   18.9886 C   0  0  1  0  0  0  0  0  0  0  0  0
   48.0019   10.9182   17.9801 C   0  0  0  0  0  0  0  0  0  0  0  0
   48.9740   11.9311   17.5353 N   0  0  0  0  0  0  0  0  0  0  0  0
   48.4914    6.8194   17.7029 C   0  0  0  0  0  0  0  0  0  0  0  0
   47.2631    8.5620   22.2204 C   0  0  0  0  0  0  0  0  0  0  0  0
   49.1403    4.3281   18.6807 C   0  0  0  0  0  0  0  0  0  0  0  0
   47.7972    6.1587   23.4540 C   0  0  0  0  0  0  0  0  0  0  0  0
   49.1456   10.5584   20.2209 C   0  0  0  0  0  0  0  0  0  0  0  0
   48.3003   12.9677   16.7509 C   0  0  0  0  0  0  0  0  0  0  0  0
   50.0663   11.3486   16.7546 C   0  0  0  0  0  0  0  0  0  0  0  0
   47.0909    8.4299   23.6067 C   0  0  0  0  0  0  0  0  0  0  0  0
   48.9587    5.8258   16.8334 C   0  0  0  0  0  0  0  0  0  0  0  0
   49.2851    4.5751   17.3223 C   0  0  0  0  0  0  0  0  0  0  0  0
   47.3570    7.2238   24.2247 C   0  0  0  0  0  0  0  0  0  0  0  0
   47.8544    7.4906   19.6439 N   0  0  0  0  0  0  0  0  0  0  0  0
   48.2891    4.9145   21.4416 S   0  0  0  0  0  0  0  0  0  0  0  0
   48.1164    6.2592   18.9684 C   0  0  0  0  0  0  0  0  0  0  0  0
   47.7993    7.6609   21.0665 C   0  0  0  0  0  0  0  0  0  0  0  0
   48.3268    5.0555   19.6737 C   0  0  0  0  0  0  0  0  0  0  0  0
   47.9944    6.5848   21.9555 C   0  0  0  0  0  0  0  0  0  0  0  0
   47.4713    8.6680   18.8212 C   0  0  0  0  0  0  0  0  0  0  0  0
   48.6276    9.6878   18.6380 C   0  0  2  0  0  0  0  0  0  0  0  0
   48.0140   11.0320   18.1700 C   0  0  0  0  0  0  0  0  0  0  0  0
   48.9772   12.1239   17.9426 N   0  0  0  0  0  0  0  0  0  0  0  0
   47.5569    8.9164   21.6754 C   0  0  0  0  0  0  0  0  0  0  0  0
   48.1932    6.1576   17.5596 C   0  0  0  0  0  0  0  0  0  0  0  0
   47.9504    6.7675   23.3542 C   0  0  0  0  0  0  0  0  0  0  0  0
   48.5815    3.8429   18.9989 C   0  0  0  0  0  0  0  0  0  0  0  0
   49.7011    9.1952   17.6631 C   0  0  0  0  0  0  0  0  0  0  0  0
   49.6436   12.5405   19.1786 C   0  0  0  0  0  0  0  0  0  0  0  0
   48.3034   13.2711   17.3261 C   0  0  0  0  0  0  0  0  0  0  0  0
   48.4532    4.9504   16.8951 C   0  0  0  0  0  0  0  0  0  0  0  0
   47.5044    9.0914   23.0655 C   0  0  0  0  0  0  0  0  0  0  0  0
   47.7050    8.0149   23.9084 C   0  0  0  0  0  0  0  0  0  0  0  0
   48.6381    3.7855   17.6148 C   0  0  0  0  0  0  0  0  0  0  0  0
   49.6910   10.8509   18.8043 O   0  0  0  0  0  0  0  0  0  0  0  0
   49.5027    9.7462   20.7317 O   0  0  0  0  0  0  0  0  0  0  0  0
   46.6826    9.1867   20.6758 O   0  0  0  0  0  0  0  0  0  0  0  0
   47.4198    7.1563   21.2742 O   0  0  0  0  0  0  0  0  0  0  0  0
   49.0057    8.9545   17.2315 O   0  0  0  0  0  0  0  0  0  0  0  0
   47.8440    6.4457   18.6679 O   0  0  0  0  0  0  0  0  0  0  0  0
   49.3990    9.7387   19.5175 C   0  0  0  0  0  0  0  0  0  0  0  0
   49.0434    8.5543   18.6155 C   0  0  1  0  0  0  0  0  0  0  0  0
   47.7235    7.8556   18.9626 C   0  0  2  0  0  0  0  0  0  0  0  0
   47.2827    8.0108   20.4101 C   0  0  0  0  0  0  0  0  0  0  0  0
   46.6277    9.4164   19.9262 H   0  0  0  0  0  0  0  0  0  0  0  0
   46.8232    8.6439   18.4413 H   0  0  0  0  0  0  0  0  0  0  0  0
   49.3564    9.3137   18.5138 H   0  0  0  0  0  0  0  0  0  0  0  0
   47.1584   11.4320   18.4632 H   0  0  0  0  0  0  0  0  0  0  0  0
   47.5901   10.3955   17.1058 H   0  0  0  0  0  0  0  0  0  0  0  0
   48.2639    7.7696   17.2334 H   0  0  0  0  0  0  0  0  0  0  0  0
   47.0464    9.5484   21.8313 H   0  0  0  0  0  0  0  0  0  0  0  0
   49.4040    3.3432   19.0591 H   0  0  0  0  0  0  0  0  0  0  0  0
   48.0060    5.2108   23.9485 H   0  0  0  0  0  0  0  0  0  0  0  0
   49.5503    9.8229   20.9223 H   0  0  0  0  0  0  0  0  0  0  0  0
   48.4028   11.1704   20.7419 H   0  0  0  0  0  0  0  0  0  0  0  0
   49.9784   11.2121   19.9426 H   0  0  0  0  0  0  0  0  0  0  0  0
   49.0059   13.7563   16.4636 H   0  0  0  0  0  0  0  0  0  0  0  0
   47.5139   13.4503   17.3431 H   0  0  0  0  0  0  0  0  0  0  0  0
   47.8456   12.5629   15.8404 H   0  0  0  0  0  0  0  0  0  0  0  0
   50.7571   12.1293   16.4163 H   0  0  0  0  0  0  0  0  0  0  0  0
   50.6662   10.6654   17.3621 H   0  0  0  0  0  0  0  0  0  0  0  0
   49.7033   10.8060   15.8743 H   0  0  0  0  0  0  0  0  0  0  0  0
   46.7593    9.2818   24.1951 H   0  0  0  0  0  0  0  0  0  0  0  0
   49.0604    6.0430   15.7737 H   0  0  0  0  0  0  0  0  0  0  0  0
   49.6518    3.7993   16.6563 H   0  0  0  0  0  0  0  0  0  0  0  0
   47.2263    7.1101   25.2972 H   0  0  0  0  0  0  0  0  0  0  0  0
   47.0561    8.3960   17.8453 H   0  0  0  0  0  0  0  0  0  0  0  0
   46.6030    9.1588   19.2819 H   0  0  0  0  0  0  0  0  0  0  0  0
   49.1220    9.8429   19.6016 H   0  0  0  0  0  0  0  0  0  0  0  0
   47.2589   11.3578   18.8989 H   0  0  0  0  0  0  0  0  0  0  0  0
   47.4788   10.8379   17.2300 H   0  0  0  0  0  0  0  0  0  0  0  0
   47.3960    9.8172   21.0958 H   0  0  0  0  0  0  0  0  0  0  0  0
   48.0829    7.0188   16.9108 H   0  0  0  0  0  0  0  0  0  0  0  0
   48.1066    5.9213   24.0205 H   0  0  0  0  0  0  0  0  0  0  0  0
   48.7397    2.9245   19.5608 H   0  0  0  0  0  0  0  0  0  0  0  0
   49.2906    9.0392   16.6593 H   0  0  0  0  0  0  0  0  0  0  0  0
   50.5183    9.9201   17.5788 H   0  0  0  0  0  0  0  0  0  0  0  0
   50.1474    8.2608   18.0151 H   0  0  0  0  0  0  0  0  0  0  0  0
   48.9287   12.8604   19.9450 H   0  0  0  0  0  0  0  0  0  0  0  0
   50.2600   11.7347   19.5900 H   0  0  0  0  0  0  0  0  0  0  0  0
   50.3303   13.3727   18.9835 H   0  0  0  0  0  0  0  0  0  0  0  0
   47.8522   12.9828   16.3678 H   0  0  0  0  0  0  0  0  0  0  0  0
   49.0224   14.0706   17.1079 H   0  0  0  0  0  0  0  0  0  0  0  0
   47.5158   13.6809   17.9696 H   0  0  0  0  0  0  0  0  0  0  0  0
   48.5045    4.9308   15.8109 H   0  0  0  0  0  0  0  0  0  0  0  0
   47.3177   10.0782   23.4795 H   0  0  0  0  0  0  0  0  0  0  0  0
   47.6696    8.1381   24.9867 H   0  0  0  0  0  0  0  0  0  0  0  0
   48.8367    2.8457   17.1086 H   0  0  0  0  0  0  0  0  0  0  0  0
   49.9194   11.5301   19.4807 H   0  0  0  0  0  0  0  0  0  0  0  0
   46.4812    9.1379   21.6349 H   0  0  0  0  0  0  0  0  0  0  0  0
   49.5907    9.7369   17.1621 H   0  0  0  0  0  0  0  0  0  0  0  0
   48.0486    5.9977   19.5113 H   0  0  0  0  0  0  0  0  0  0  0  0
   49.8851    7.8508   18.6925 H   0  0  0  0  0  0  0  0  0  0  0  0
   46.9114    8.2191   18.3223 H   0  0  0  0  0  0  0  0  0  0  0  0
 10  9  1  0
 11  4  2  0
 12  3  2  0
 13  6  2  0
 14  5  2  0
 15  8  1  0
 16 10  1  0
 17 10  1  0
 18 12  1  0
 19 11  1  0
 20 19  2  0
 21 18  2  0
  5  2  1  0
 13 20  1  0
 14 21  1  0
  2  6  1  0
  3  1  1  0
  4  1  1  0
  5  3  1  0
  6  4  1  0
  7  1  1  0
  8  7  1  0
  9  8  1  0
 31 30  1  0
 32 25  2  0
 33 24  2  0
 34 27  2  0
 35 26  2  0
 36 29  1  0
 37 31  1  0
 38 31  1  0
 39 33  1  0
 40 32  1  0
 41 40  2  0
 42 39  2  0
 26 23  1  0
 34 41  1  0
 35 42  1  0
 23 27  1  0
 24 22  1  0
 25 22  1  0
 26 24  1  0
 27 25  1  0
 28 22  1  0
 29 28  1  0
 30 29  1  0
 49 44  2  0
 50 47  1  0
 51 48  1  0
 49 43  1  0
 51 52  1  0
 50 51  1  0
 52 45  1  0
 49 50  1  0
 52 46  2  0
  7 53  1  0
  7 54  1  0
  8 55  1  1
  9 56  1  0
  9 57  1  0
 11 58  1  0
 12 59  1  0
 13 60  1  0
 14 61  1  0
 15 62  1  0
 15 63  1  0
 15 64  1  0
 16 65  1  0
 16 66  1  0
 16 67  1  0
 17 68  1  0
 17 69  1  0
 17 70  1  0
 18 71  1  0
 19 72  1  0
 20 73  1  0
 21 74  1  0
 28 75  1  0
 28 76  1  0
 29 77  1  1
 30 78  1  0
 30 79  1  0
 32 80  1  0
 33 81  1  0
 34 82  1  0
 35 83  1  0
 36 84  1  0
 36 85  1  0
 36 86  1  0
 37 87  1  0
 37 88  1  0
 37 89  1  0
 38 90  1  0
 38 91  1  0
 38 92  1  0
 39 93  1  0
 40 94  1  0
 41 95  1  0
 42 96  1  0
 43 97  1  0
 45 98  1  0
 47 99  1  0
 48100  1  0
 50101  1  1
 51102  1  6
M  END
> <Uni-Dock RESULT> 
ENERGY=   -7.270  LOWER_BOUND=    6.751  UPPER_BOUND=    8.469
INTER + INTRA:          -7.270
INTER:                  -7.270
INTRA:                   0.000
UNBOUND:                 0.000

$$$$

     RDKit          3D

102105  0  0  0  0  0  0  0  0999 V2000
   51.6767    4.2870   18.1471 N   0  0  0  0  0  0  0  0  0  0  0  0
   50.3765    1.5931   17.0923 S   0  0  0  0  0  0  0  0  0  0  0  0
   52.4897    3.1127   18.1749 C   0  0  0  0  0  0  0  0  0  0  0  0
   50.3304    4.3515   17.6587 C   0  0  0  0  0  0  0  0  0  0  0  0
   52.0091    1.8624   17.7314 C   0  0  0  0  0  0  0  0  0  0  0  0
   49.6677    3.2166   17.1496 C   0  0  0  0  0  0  0  0  0  0  0  0
   52.2063    5.5152   18.7946 C   0  0  0  0  0  0  0  0  0  0  0  0
   52.7393    6.5634   17.7821 C   0  0  1  0  0  0  0  0  0  0  0  0
   52.8611    7.9231   18.5144 C   0  0  0  0  0  0  0  0  0  0  0  0
   53.3578    9.0385   17.6910 N   0  0  0  0  0  0  0  0  0  0  0  0
   49.5830    5.5545   17.6423 C   0  0  0  0  0  0  0  0  0  0  0  0
   53.8250    3.1136   18.6422 C   0  0  0  0  0  0  0  0  0  0  0  0
   48.3448    3.2975   16.6645 C   0  0  0  0  0  0  0  0  0  0  0  0
   52.8180    0.7055   17.7647 C   0  0  0  0  0  0  0  0  0  0  0  0
   54.0716    6.1533   17.1501 C   0  0  0  0  0  0  0  0  0  0  0  0
   53.6191   10.2091   18.5309 C   0  0  0  0  0  0  0  0  0  0  0  0
   52.4287    9.3945   16.6177 C   0  0  0  0  0  0  0  0  0  0  0  0
   54.6253    1.9615   18.6793 C   0  0  0  0  0  0  0  0  0  0  0  0
   48.2721    5.6305   17.1550 C   0  0  0  0  0  0  0  0  0  0  0  0
   47.6492    4.4989   16.6637 C   0  0  0  0  0  0  0  0  0  0  0  0
   54.1193    0.7536   18.2409 C   0  0  0  0  0  0  0  0  0  0  0  0
   51.3447    4.4414   18.1724 N   0  0  0  0  0  0  0  0  0  0  0  0
   50.5725    1.4840   17.3271 S   0  0  0  0  0  0  0  0  0  0  0  0
   49.9761    4.1910   17.8479 C   0  0  0  0  0  0  0  0  0  0  0  0
   52.4002    3.4724   18.1206 C   0  0  0  0  0  0  0  0  0  0  0  0
   49.5275    2.9115   17.4575 C   0  0  0  0  0  0  0  0  0  0  0  0
   52.1679    2.1347   17.7422 C   0  0  0  0  0  0  0  0  0  0  0  0
   51.6934    5.7697   18.7416 C   0  0  0  0  0  0  0  0  0  0  0  0
   52.3695    6.7166   17.7137 C   0  0  2  0  0  0  0  0  0  0  0  0
   53.0713    7.8550   18.4973 C   0  0  0  0  0  0  0  0  0  0  0  0
   53.7697    8.8564   17.6718 N   0  0  0  0  0  0  0  0  0  0  0  0
   53.7441    3.7910   18.4339 C   0  0  0  0  0  0  0  0  0  0  0  0
   48.9821    5.1968   17.8840 C   0  0  0  0  0  0  0  0  0  0  0  0
   53.2174    1.1931   17.6826 C   0  0  0  0  0  0  0  0  0  0  0  0
   48.1735    2.6717   17.1421 C   0  0  0  0  0  0  0  0  0  0  0  0
   51.3816    7.2743   16.6849 C   0  0  0  0  0  0  0  0  0  0  0  0
   54.9042    8.2813   16.9457 C   0  0  0  0  0  0  0  0  0  0  0  0
   54.2241    9.9718   18.5082 C   0  0  0  0  0  0  0  0  0  0  0  0
   47.6389    4.9535   17.5630 C   0  0  0  0  0  0  0  0  0  0  0  0
   54.7820    2.8498   18.3827 C   0  0  0  0  0  0  0  0  0  0  0  0
   54.5195    1.5474   18.0027 C   0  0  0  0  0  0  0  0  0  0  0  0
   47.2287    3.6848   17.2003 C   0  0  0  0  0  0  0  0  0  0  0  0
   53.3804    7.4805   16.7618 O   0  0  0  0  0  0  0  0  0  0  0  0
   53.7959    5.2919   16.6704 O   0  0  0  0  0  0  0  0  0  0  0  0
   53.2802    4.6035   19.4143 O   0  0  0  0  0  0  0  0  0  0  0  0
   52.1457    2.9409   18.4281 O   0  0  0  0  0  0  0  0  0  0  0  0
   50.9041    7.3531   17.3875 O   0  0  0  0  0  0  0  0  0  0  0  0
   49.9162    4.5018   18.1627 O   0  0  0  0  0  0  0  0  0  0  0  0
   52.9966    6.1881   16.8778 C   0  0  0  0  0  0  0  0  0  0  0  0
   51.5039    6.0576   17.1899 C   0  0  1  0  0  0  0  0  0  0  0  0
   51.1747    5.1727   18.3980 C   0  0  2  0  0  0  0  0  0  0  0  0
   52.2274    4.1245   18.7247 C   0  0  0  0  0  0  0  0  0  0  0  0
   52.9646    5.3090   19.5569 H   0  0  0  0  0  0  0  0  0  0  0  0
   51.4148    5.9553   19.4146 H   0  0  0  0  0  0  0  0  0  0  0  0
   52.0193    6.6647   16.9646 H   0  0  0  0  0  0  0  0  0  0  0  0
   53.5490    7.7797   19.3600 H   0  0  0  0  0  0  0  0  0  0  0  0
   51.8867    8.1908   18.9460 H   0  0  0  0  0  0  0  0  0  0  0  0
   49.9928    6.4907   18.0038 H   0  0  0  0  0  0  0  0  0  0  0  0
   54.3149    4.0139   18.9896 H   0  0  0  0  0  0  0  0  0  0  0  0
   47.8500    2.4123   16.2715 H   0  0  0  0  0  0  0  0  0  0  0  0
   52.4260   -0.2506   17.4198 H   0  0  0  0  0  0  0  0  0  0  0  0
   53.9793    5.2040   16.6143 H   0  0  0  0  0  0  0  0  0  0  0  0
   54.8606    6.0579   17.9025 H   0  0  0  0  0  0  0  0  0  0  0  0
   54.4019    6.8935   16.4144 H   0  0  0  0  0  0  0  0  0  0  0  0
   54.0433   11.0263   17.9355 H   0  0  0  0  0  0  0  0  0  0  0  0
   54.3555    9.9708   19.3072 H   0  0  0  0  0  0  0  0  0  0  0  0
   52.7097   10.5744   19.0200 H   0  0  0  0  0  0  0  0  0  0  0  0
   52.8135   10.2431   16.0407 H   0  0  0  0  0  0  0  0  0  0  0  0
   52.3187    8.5752   15.9019 H   0  0  0  0  0  0  0  0  0  0  0  0
   51.4364    9.6602   16.9996 H   0  0  0  0  0  0  0  0  0  0  0  0
   55.6482    2.0239   19.0422 H   0  0  0  0  0  0  0  0  0  0  0  0
   47.7478    6.5820   17.1680 H   0  0  0  0  0  0  0  0  0  0  0  0
   46.6341    4.5487   16.2802 H   0  0  0  0  0  0  0  0  0  0  0  0
   54.7297   -0.1447   18.2659 H   0  0  0  0  0  0  0  0  0  0  0  0
   50.8428    6.2750   19.2106 H   0  0  0  0  0  0  0  0  0  0  0  0
   52.3488    5.6250   19.6115 H   0  0  0  0  0  0  0  0  0  0  0  0
   53.1250    6.1556   17.1555 H   0  0  0  0  0  0  0  0  0  0  0  0
   53.7788    7.4168   19.2151 H   0  0  0  0  0  0  0  0  0  0  0  0
   52.3009    8.3678   19.0899 H   0  0  0  0  0  0  0  0  0  0  0  0
   54.0459    4.7870   18.7340 H   0  0  0  0  0  0  0  0  0  0  0  0
   49.2097    6.2261   18.1359 H   0  0  0  0  0  0  0  0  0  0  0  0
   53.0135    0.1664   17.3850 H   0  0  0  0  0  0  0  0  0  0  0  0
   47.8467    1.6773   16.8444 H   0  0  0  0  0  0  0  0  0  0  0  0
   50.6009    7.8761   17.1633 H   0  0  0  0  0  0  0  0  0  0  0  0
   51.8921    7.9123   15.9550 H   0  0  0  0  0  0  0  0  0  0  0  0
   50.9115    6.4655   16.1183 H   0  0  0  0  0  0  0  0  0  0  0  0
   55.6324    7.8164   17.6199 H   0  0  0  0  0  0  0  0  0  0  0  0
   54.5737    7.5329   16.2183 H   0  0  0  0  0  0  0  0  0  0  0  0
   55.4213    9.0547   16.3655 H   0  0  0  0  0  0  0  0  0  0  0  0
   53.3720   10.4486   19.0098 H   0  0  0  0  0  0  0  0  0  0  0  0
   54.7019   10.7457   17.8947 H   0  0  0  0  0  0  0  0  0  0  0  0
   54.9388    9.6478   19.2741 H   0  0  0  0  0  0  0  0  0  0  0  0
   46.9182    5.7642   17.6042 H   0  0  0  0  0  0  0  0  0  0  0  0
   55.7963    3.1494   18.6308 H   0  0  0  0  0  0  0  0  0  0  0  0
   55.3152    0.8099   17.9566 H   0  0  0  0  0  0  0  0  0  0  0  0
   46.1902    3.4864   16.9532 H   0  0  0  0  0  0  0  0  0  0  0  0
   54.3407    7.4386   16.5448 H   0  0  0  0  0  0  0  0  0  0  0  0
   53.8646    3.8232   19.5258 H   0  0  0  0  0  0  0  0  0  0  0  0
   51.4634    7.9863   16.8922 H   0  0  0  0  0  0  0  0  0  0  0  0
   50.1305    3.6046   17.8418 H   0  0  0  0  0  0  0  0  0  0  0  0
   51.0372    5.6566   16.2784 H   0  0  0  0  0  0  0  0  0  0  0  0
   51.0169    5.7827   19.2949 H   0  0  0  0  0  0  0  0  0  0  0  0
 10  9  1  0
 11  4  2  0
 12  3  2  0
 13  6  2  0
 14  5  2  0
 15  8  1  0
 16 10  1  0
 17 10  1  0
 18 12  1  0
 19 11  1  0
 20 19  2  0
 21 18  2  0
  5  2  1  0
 13 20  1  0
 14 21  1  0
  2  6  1  0
  3  1  1  0
  4  1  1  0
  5  3  1  0
  6  4  1  0
  7  1  1  0
  8  7  1  0
  9  8  1  0
 31 30  1  0
 32 25  2  0
 33 24  2  0
 34 27  2  0
 35 26  2  0
 36 29  1  0
 37 31  1  0
 38 31  1  0
 39 33  1  0
 40 32  1  0
 41 40  2  0
 42 39  2  0
 26 23  1  0
 34 41  1  0
 35 42  1  0
 23 27  1  0
 24 22  1  0
 25 22  1  0
 26 24  1  0
 27 25  1  0
 28 22  1  0
 29 28  1  0
 30 29  1  0
 49 44  2  0
 50 47  1  0
 51 48  1  0
 49 43  1  0
 51 52  1  0
 50 51  1  0
 52 45  1  0
 49 50  1  0
 52 46  2  0
  7 53  1  0
  7 54  1  0
  8 55  1  1
  9 56  1  0
  9 57  1  0
 11 58  1  0
 12 59  1  0
 13 60  1  0
 14 61  1  0
 15 62  1  0
 15 63  1  0
 15 64  1  0
 16 65  1  0
 16 66  1  0
 16 67  1  0
 17 68  1  0
 17 69  1  0
 17 70  1  0
 18 71  1  0
 19 72  1  0
 20 73  1  0
 21 74  1  0
 28 75  1  0
 28 76  1  0
 29 77  1  1
 30 78  1  0
 30 79  1  0
 32 80  1  0
 33 81  1  0
 34 82  1  0
 35 83  1  0
 36 84  1  0
 36 85  1  0
 36 86  1  0
 37 87  1  0
 37 88  1  0
 37 89  1  0
 38 90  1  0
 38 91  1  0
 38 92  1  0
 39 93  1  0
 40 94  1  0
 41 95  1  0
 42 96  1  0
 43 97  1  0
 45 98  1  0
 47 99  1  0
 48100  1  0
 50101  1  1
 51102  1  6
M  END
> <Uni-Dock RESULT> 
ENERGY=   -7.191  LOWER_BOUND=    6.348  UPPER_BOUND=    8.404
INTER + INTRA:          -7.191
INTER:                  -7.191
INTRA:                   0.000
UNBOUND:                 0.000

$$$$

     RDKit          3D

102105  0  0  0  0  0  0  0  0999 V2000
   47.9586    8.7575   18.8119 N   0  0  0  0  0  0  0  0  0  0  0  0
   48.8069   10.8696   16.6028 S   0  0  0  0  0  0  0  0  0  0  0  0
   48.4748    8.2469   17.5816 C   0  0  0  0  0  0  0  0  0  0  0  0
   47.8161   10.1463   19.1379 C   0  0  0  0  0  0  0  0  0  0  0  0
   48.8792    9.0987   16.5319 C   0  0  0  0  0  0  0  0  0  0  0  0
   48.1828   11.1647   18.2352 C   0  0  0  0  0  0  0  0  0  0  0  0
   47.3968    7.7868   19.7867 C   0  0  0  0  0  0  0  0  0  0  0  0
   48.3461    7.4925   20.9783 C   0  0  1  0  0  0  0  0  0  0  0  0
   47.5148    6.8302   22.1053 C   0  0  0  0  0  0  0  0  0  0  0  0
   48.2690    6.4818   23.3213 N   0  0  0  0  0  0  0  0  0  0  0  0
   47.3126   10.5877   20.3860 C   0  0  0  0  0  0  0  0  0  0  0  0
   48.6204    6.8633   17.3248 C   0  0  0  0  0  0  0  0  0  0  0  0
   48.0445   12.5278   18.5738 C   0  0  0  0  0  0  0  0  0  0  0  0
   49.3858    8.5862   15.3176 C   0  0  0  0  0  0  0  0  0  0  0  0
   49.5396    6.6192   20.5841 C   0  0  0  0  0  0  0  0  0  0  0  0
   47.4325    5.6895   24.2249 C   0  0  0  0  0  0  0  0  0  0  0  0
   48.7740    7.6642   24.0206 C   0  0  0  0  0  0  0  0  0  0  0  0
   49.1192    6.3561   16.1152 C   0  0  0  0  0  0  0  0  0  0  0  0
   47.1821   11.9419   20.7189 C   0  0  0  0  0  0  0  0  0  0  0  0
   47.5491   12.9169   19.8109 C   0  0  0  0  0  0  0  0  0  0  0  0
   49.5011    7.2205   15.1081 C   0  0  0  0  0  0  0  0  0  0  0  0
   47.7702    9.0161   18.9917 N   0  0  0  0  0  0  0  0  0  0  0  0
   48.6987   10.6236   16.4205 S   0  0  0  0  0  0  0  0  0  0  0  0
   47.5255   10.4236   18.9776 C   0  0  0  0  0  0  0  0  0  0  0  0
   48.4247    8.2774   17.9515 C   0  0  0  0  0  0  0  0  0  0  0  0
   47.9010   11.2317   17.8836 C   0  0  0  0  0  0  0  0  0  0  0  0
   48.8904    8.8977   16.7748 C   0  0  0  0  0  0  0  0  0  0  0  0
   47.1851    8.2189   20.1016 C   0  0  0  0  0  0  0  0  0  0  0  0
   48.2255    7.8217   21.1833 C   0  0  2  0  0  0  0  0  0  0  0  0
   47.6301    6.6609   22.0204 C   0  0  0  0  0  0  0  0  0  0  0  0
   48.4903    6.1545   23.1045 N   0  0  0  0  0  0  0  0  0  0  0  0
   48.6574    6.8830   18.0369 C   0  0  0  0  0  0  0  0  0  0  0  0
   46.9048   11.1057   20.0501 C   0  0  0  0  0  0  0  0  0  0  0  0
   49.5446    8.1621   15.7636 C   0  0  0  0  0  0  0  0  0  0  0  0
   47.6526   12.6205   17.8761 C   0  0  0  0  0  0  0  0  0  0  0  0
   48.6320    8.9999   22.0732 C   0  0  0  0  0  0  0  0  0  0  0  0
   49.7123    5.5283   22.5948 C   0  0  0  0  0  0  0  0  0  0  0  0
   47.7476    5.2005   23.9343 C   0  0  0  0  0  0  0  0  0  0  0  0
   46.6665   12.4876   20.0391 C   0  0  0  0  0  0  0  0  0  0  0  0
   49.2992    6.1545   17.0254 C   0  0  0  0  0  0  0  0  0  0  0  0
   49.7476    6.7956   15.8864 C   0  0  0  0  0  0  0  0  0  0  0  0
   47.0316   13.2483   18.9449 C   0  0  0  0  0  0  0  0  0  0  0  0
   49.3701    7.1297   22.0333 O   0  0  0  0  0  0  0  0  0  0  0  0
   49.9968    7.2237   19.8958 O   0  0  0  0  0  0  0  0  0  0  0  0
   47.4509    6.7599   18.6418 O   0  0  0  0  0  0  0  0  0  0  0  0
   48.1334    8.4924   17.3940 O   0  0  0  0  0  0  0  0  0  0  0  0
   47.7915    9.1417   22.0366 O   0  0  0  0  0  0  0  0  0  0  0  0
   47.1672   10.2940   19.2102 O   0  0  0  0  0  0  0  0  0  0  0  0
   49.3238    7.6857   20.8006 C   0  0  0  0  0  0  0  0  0  0  0  0
   48.4393    8.9344   20.7660 C   0  0  1  0  0  0  0  0  0  0  0  0
   47.3739    8.9371   19.6634 C   0  0  2  0  0  0  0  0  0  0  0  0
   47.7032    8.0698   18.4580 C   0  0  0  0  0  0  0  0  0  0  0  0
   47.0716    6.8493   19.3243 H   0  0  0  0  0  0  0  0  0  0  0  0
   46.4366    8.1721   20.1531 H   0  0  0  0  0  0  0  0  0  0  0  0
   48.7544    8.4378   21.3483 H   0  0  0  0  0  0  0  0  0  0  0  0
   47.0751    5.9112   21.6917 H   0  0  0  0  0  0  0  0  0  0  0  0
   46.6747    7.4871   22.3699 H   0  0  0  0  0  0  0  0  0  0  0  0
   47.0046    9.8936   21.1595 H   0  0  0  0  0  0  0  0  0  0  0  0
   48.3647    6.1096   18.0582 H   0  0  0  0  0  0  0  0  0  0  0  0
   48.3361   13.3006   17.8663 H   0  0  0  0  0  0  0  0  0  0  0  0
   49.6898    9.2618   14.5190 H   0  0  0  0  0  0  0  0  0  0  0  0
   50.1388    7.0977   19.8038 H   0  0  0  0  0  0  0  0  0  0  0  0
   49.2175    5.6359   20.2275 H   0  0  0  0  0  0  0  0  0  0  0  0
   50.2091    6.4608   21.4355 H   0  0  0  0  0  0  0  0  0  0  0  0
   48.0034    5.3770   25.1074 H   0  0  0  0  0  0  0  0  0  0  0  0
   47.0910    4.7725   23.7307 H   0  0  0  0  0  0  0  0  0  0  0  0
   46.5520    6.2464   24.5630 H   0  0  0  0  0  0  0  0  0  0  0  0
   49.3067    7.3738   24.9333 H   0  0  0  0  0  0  0  0  0  0  0  0
   49.5042    8.2027   23.4102 H   0  0  0  0  0  0  0  0  0  0  0  0
   47.9710    8.3570   24.2969 H   0  0  0  0  0  0  0  0  0  0  0  0
   49.2158    5.2821   15.9769 H   0  0  0  0  0  0  0  0  0  0  0  0
   46.7888   12.2208   21.6926 H   0  0  0  0  0  0  0  0  0  0  0  0
   47.4550   13.9697   20.0615 H   0  0  0  0  0  0  0  0  0  0  0  0
   49.8878    6.8387   14.1673 H   0  0  0  0  0  0  0  0  0  0  0  0
   46.3235    8.7030   20.5731 H   0  0  0  0  0  0  0  0  0  0  0  0
   46.7102    7.3201   19.6846 H   0  0  0  0  0  0  0  0  0  0  0  0
   49.1359    7.4689   20.6896 H   0  0  0  0  0  0  0  0  0  0  0  0
   47.3624    5.8323   21.3501 H   0  0  0  0  0  0  0  0  0  0  0  0
   46.6909    7.0234   22.4611 H   0  0  0  0  0  0  0  0  0  0  0  0
   48.3485    6.2981   18.8946 H   0  0  0  0  0  0  0  0  0  0  0  0
   46.6019   10.5997   20.9594 H   0  0  0  0  0  0  0  0  0  0  0  0
   49.8976    8.6640   14.8648 H   0  0  0  0  0  0  0  0  0  0  0  0
   47.9486   13.2266   17.0221 H   0  0  0  0  0  0  0  0  0  0  0  0
   47.7752    9.3982   22.6279 H   0  0  0  0  0  0  0  0  0  0  0  0
   49.3895    8.6972   22.8047 H   0  0  0  0  0  0  0  0  0  0  0  0
   49.0758    9.8027   21.4777 H   0  0  0  0  0  0  0  0  0  0  0  0
   49.4968    4.7031   21.9067 H   0  0  0  0  0  0  0  0  0  0  0  0
   50.3480    6.2559   22.0801 H   0  0  0  0  0  0  0  0  0  0  0  0
   50.3163    5.1349   23.4211 H   0  0  0  0  0  0  0  0  0  0  0  0
   46.8612    5.6790   24.3707 H   0  0  0  0  0  0  0  0  0  0  0  0
   48.3645    4.8553   24.7733 H   0  0  0  0  0  0  0  0  0  0  0  0
   47.4208    4.3241   23.3621 H   0  0  0  0  0  0  0  0  0  0  0  0
   46.1891   12.9602   20.8919 H   0  0  0  0  0  0  0  0  0  0  0  0
   49.4544    5.0859   17.1442 H   0  0  0  0  0  0  0  0  0  0  0  0
   50.2484    6.2429   15.0972 H   0  0  0  0  0  0  0  0  0  0  0  0
   46.8481   14.3183   18.9263 H   0  0  0  0  0  0  0  0  0  0  0  0
   49.9749    6.3576   21.9379 H   0  0  0  0  0  0  0  0  0  0  0  0
   47.7296    6.3447   17.7975 H   0  0  0  0  0  0  0  0  0  0  0  0
   48.3613    8.7051   22.7029 H   0  0  0  0  0  0  0  0  0  0  0  0
   47.6952   10.4028   18.3957 H   0  0  0  0  0  0  0  0  0  0  0  0
   49.1230    9.7873   20.6450 H   0  0  0  0  0  0  0  0  0  0  0  0
   46.4049    8.6108   20.0586 H   0  0  0  0  0  0  0  0  0  0  0  0
 10  9  1  0
 11  4  2  0
 12  3  2  0
 13  6  2  0
 14  5  2  0
 15  8  1  0
 16 10  1  0
 17 10  1  0
 18 12  1  0
 19 11  1  0
 20 19  2  0
 21 18  2  0
  5  2  1  0
 13 20  1  0
 14 21  1  0
  2  6  1  0
  3  1  1  0
  4  1  1  0
  5  3  1  0
  6  4  1  0
  7  1  1  0
  8  7  1  0
  9  8  1  0
 31 30  1  0
 32 25  2  0
 33 24  2  0
 34 27  2  0
 35 26  2  0
 36 29  1  0
 37 31  1  0
 38 31  1  0
 39 33  1  0
 40 32  1  0
 41 40  2  0
 42 39  2  0
 26 23  1  0
 34 41  1  0
 35 42  1  0
 23 27  1  0
 24 22  1  0
 25 22  1  0
 26 24  1  0
 27 25  1  0
 28 22  1  0
 29 28  1  0
 30 29  1  0
 49 44  2  0
 50 47  1  0
 51 48  1  0
 49 43  1  0
 51 52  1  0
 50 51  1  0
 52 45  1  0
 49 50  1  0
 52 46  2  0
  7 53  1  0
  7 54  1  0
  8 55  1  1
  9 56  1  0
  9 57  1  0
 11 58  1  0
 12 59  1  0
 13 60  1  0
 14 61  1  0
 15 62  1  0
 15 63  1  0
 15 64  1  0
 16 65  1  0
 16 66  1  0
 16 67  1  0
 17 68  1  0
 17 69  1  0
 17 70  1  0
 18 71  1  0
 19 72  1  0
 20 73  1  0
 21 74  1  0
 28 75  1  0
 28 76  1  0
 29 77  1  1
 30 78  1  0
 30 79  1  0
 32 80  1  0
 33 81  1  0
 34 82  1  0
 35 83  1  0
 36 84  1  0
 36 85  1  0
 36 86  1  0
 37 87  1  0
 37 88  1  0
 37 89  1  0
 38 90  1  0
 38 91  1  0
 38 92  1  0
 39 93  1  0
 40 94  1  0
 41 95  1  0
 42 96  1  0
 43 97  1  0
 45 98  1  0
 47 99  1  0
 48100  1  0
 50101  1  1
 51102  1  6
M  END
> <Uni-Dock RESULT> 
ENERGY=   -6.738  LOWER_BOUND=    6.732  UPPER_BOUND=    8.201
INTER + INTRA:          -6.738
INTER:                  -6.738
INTRA:                   0.000
UNBOUND:                 0.000

$$$$
