
     RDKit          3D

 57 56  0  0  0  0  0  0  0  0999 V2000
   -1.4703    0.5095   -0.4657 C   0  0  2  0  0  0  0  0  0  0  0  0
   -1.0051   -0.9487   -0.3190 C   0  0  2  0  0  0  0  0  0  0  0  0
   -0.4210    1.4874    0.1444 C   0  0  2  0  0  0  0  0  0  0  0  0
    0.3121    0.8720    1.1926 O   0  0  0  0  0  0  0  0  0  0  0  0
    0.5155   -1.0179   -0.4238 C   0  0  1  0  0  0  0  0  0  0  0  0
   -2.8435    0.6402    0.0931 N   0  0  0  0  0  0  0  0  0  0  0  0
    1.1302   -0.2245    0.7451 C   0  0  1  0  0  0  0  0  0  0  0  0
   -1.5961   -1.7664   -1.3374 O   0  0  0  0  0  0  0  0  0  0  0  0
    0.9598   -2.3784   -0.3766 O   0  0  0  0  0  0  0  0  0  0  0  0
   -1.0857    2.6261    0.6747 O   0  0  0  0  0  0  0  0  0  0  0  0
    2.5579    0.2545    0.4361 C   0  0  0  0  0  0  0  0  0  0  0  0
    3.3641   -0.7330   -0.1911 O   0  0  0  0  0  0  0  0  0  0  0  0
    1.5927    0.0424   -0.0105 C   0  0  2  0  0  0  0  0  0  0  0  0
    0.5349    0.5149    0.9994 C   0  0  2  0  0  0  0  0  0  0  0  0
    1.0583   -1.2248   -0.7313 C   0  0  1  0  0  0  0  0  0  0  0  0
   -0.1571   -0.9019   -1.4022 O   0  0  0  0  0  0  0  0  0  0  0  0
   -0.8190    0.7141    0.3012 C   0  0  1  0  0  0  0  0  0  0  0  0
    2.9224   -0.1529    0.6040 N   0  0  0  0  0  0  0  0  0  0  0  0
   -1.2009   -0.5563   -0.4819 C   0  0  1  0  0  0  0  0  0  0  0  0
    0.9302    1.7441    1.6290 O   0  0  0  0  0  0  0  0  0  0  0  0
   -1.8188    1.0425    1.2732 O   0  0  0  0  0  0  0  0  0  0  0  0
    2.0125   -1.6843   -1.6791 O   0  0  0  0  0  0  0  0  0  0  0  0
   -2.5104   -0.3547   -1.2573 C   0  0  0  0  0  0  0  0  0  0  0  0
   -3.6282   -0.1891   -0.3902 O   0  0  0  0  0  0  0  0  0  0  0  0
   -0.1049    0.3539    0.2477 S   0  0  0  0  0  0  0  0  0  0  0  0
    0.2764    0.3525    1.6372 O   0  0  0  0  0  0  0  0  0  0  0  0
   -0.8692   -1.0214   -0.0633 O   0  0  0  0  0  0  0  0  0  0  0  0
    1.2446    0.1600   -0.5988 O   0  0  0  0  0  0  0  0  0  0  0  0
   -0.8861    1.3959   -0.3679 O   0  0  0  0  0  0  0  0  0  0  0  0
   -1.5743    0.7615   -1.5287 H   0  0  0  0  0  0  0  0  0  0  0  0
   -1.3190   -1.3780    0.6417 H   0  0  0  0  0  0  0  0  0  0  0  0
    0.2658    1.8397   -0.6353 H   0  0  0  0  0  0  0  0  0  0  0  0
    0.8363   -0.6164   -1.3930 H   0  0  0  0  0  0  0  0  0  0  0  0
   -2.7736    0.4890    1.1036 H   0  0  0  0  0  0  0  0  0  0  0  0
   -3.0590    1.6457    0.0580 H   0  0  0  0  0  0  0  0  0  0  0  0
    1.2125   -0.9038    1.6034 H   0  0  0  0  0  0  0  0  0  0  0  0
   -2.5501   -1.5420   -1.3159 H   0  0  0  0  0  0  0  0  0  0  0  0
    0.3314   -2.8659   -0.9509 H   0  0  0  0  0  0  0  0  0  0  0  0
   -0.3793    3.1655    1.0652 H   0  0  0  0  0  0  0  0  0  0  0  0
    3.0497    0.5606    1.3650 H   0  0  0  0  0  0  0  0  0  0  0  0
    2.5413    1.1375   -0.2099 H   0  0  0  0  0  0  0  0  0  0  0  0
    3.0003   -1.6143    0.0245 H   0  0  0  0  0  0  0  0  0  0  0  0
    1.7304    0.8340   -0.7595 H   0  0  0  0  0  0  0  0  0  0  0  0
    0.4238   -0.2154    1.8103 H   0  0  0  0  0  0  0  0  0  0  0  0
    0.8863   -2.0437   -0.0204 H   0  0  0  0  0  0  0  0  0  0  0  0
   -0.7450    1.5707   -0.3811 H   0  0  0  0  0  0  0  0  0  0  0  0
    3.1073    0.6371    1.2304 H   0  0  0  0  0  0  0  0  0  0  0  0
    2.8992   -0.9681    1.2219 H   0  0  0  0  0  0  0  0  0  0  0  0
   -1.3604   -1.3839    0.2228 H   0  0  0  0  0  0  0  0  0  0  0  0
    1.2101    2.3679    0.9345 H   0  0  0  0  0  0  0  0  0  0  0  0
   -1.3916    1.6583    1.9041 H   0  0  0  0  0  0  0  0  0  0  0  0
    2.8117   -1.1405   -1.5476 H   0  0  0  0  0  0  0  0  0  0  0  0
   -2.7052   -1.2194   -1.8999 H   0  0  0  0  0  0  0  0  0  0  0  0
   -2.4436    0.5177   -1.9158 H   0  0  0  0  0  0  0  0  0  0  0  0
   -3.3397    0.3912    0.3461 H   0  0  0  0  0  0  0  0  0  0  0  0
   -1.5044   -0.8373   -0.7877 H   0  0  0  0  0  0  0  0  0  0  0  0
    1.8437   -0.4036   -0.0672 H   0  0  0  0  0  0  0  0  0  0  0  0
  2  1  1  0
  3  1  1  0
  4  3  1  0
  5  2  1  0
  1  6  1  0
  7  4  1  0
  2  8  1  0
  5  9  1  0
  3 10  1  0
  7 11  1  0
 12 11  1  0
  5  7  1  0
 14 13  1  0
 15 13  1  0
 16 15  1  0
 17 14  1  0
 13 18  1  0
 19 16  1  0
 14 20  1  0
 17 21  1  0
 15 22  1  0
 19 23  1  0
 24 23  1  0
 17 19  1  0
 25 26  2  0
 25 27  1  0
 25 28  1  0
 25 29  2  0
  1 30  1  6
  2 31  1  1
  3 32  1  6
  5 33  1  6
  6 34  1  0
  6 35  1  0
  7 36  1  1
  8 37  1  0
  9 38  1  0
 10 39  1  0
 11 40  1  0
 11 41  1  0
 12 42  1  0
 13 43  1  6
 14 44  1  1
 15 45  1  1
 17 46  1  6
 18 47  1  0
 18 48  1  0
 19 49  1  1
 20 50  1  0
 21 51  1  0
 22 52  1  0
 23 53  1  0
 23 54  1  0
 24 55  1  0
 27 56  1  0
 28 57  1  0
M  END
$$$$
