
     RDKit          3D

 57 56  0  0  0  0  0  0  0  0999 V2000
   -1.4136   -0.2218   -0.5740 C   0  0  2  0  0  0  0  0  0  0  0  0
   -0.5373   -1.3885   -0.0929 C   0  0  2  0  0  0  0  0  0  0  0  0
   -0.8863    1.1295   -0.0075 C   0  0  2  0  0  0  0  0  0  0  0  0
   -0.0738    0.9407    1.1395 O   0  0  0  0  0  0  0  0  0  0  0  0
    0.9282   -0.9693   -0.1147 C   0  0  1  0  0  0  0  0  0  0  0  0
   -2.8333   -0.5312   -0.2537 N   0  0  0  0  0  0  0  0  0  0  0  0
    1.1297    0.1828    0.8889 C   0  0  1  0  0  0  0  0  0  0  0  0
   -0.7317   -2.5342   -0.9364 O   0  0  0  0  0  0  0  0  0  0  0  0
    1.7618   -2.0801    0.2295 O   0  0  0  0  0  0  0  0  0  0  0  0
   -1.9923    1.9394    0.3842 O   0  0  0  0  0  0  0  0  0  0  0  0
    2.2863    1.1108    0.4935 C   0  0  0  0  0  0  0  0  0  0  0  0
    2.0716    1.6968   -0.7892 O   0  0  0  0  0  0  0  0  0  0  0  0
   -1.5019   -0.8070   -0.1550 C   0  0  2  0  0  0  0  0  0  0  0  0
   -1.0537    0.5808   -0.6315 C   0  0  2  0  0  0  0  0  0  0  0  0
   -0.2813   -1.7586   -0.2086 C   0  0  1  0  0  0  0  0  0  0  0  0
    0.7395   -1.2659    0.6536 O   0  0  0  0  0  0  0  0  0  0  0  0
    0.1333    1.0700    0.2090 C   0  0  1  0  0  0  0  0  0  0  0  0
   -2.6802   -1.3154   -0.8963 N   0  0  0  0  0  0  0  0  0  0  0  0
    1.2443    0.0050    0.2305 C   0  0  1  0  0  0  0  0  0  0  0  0
   -2.1413    1.5125   -0.5278 O   0  0  0  0  0  0  0  0  0  0  0  0
    0.5767    2.3121   -0.3485 O   0  0  0  0  0  0  0  0  0  0  0  0
   -0.6518   -3.0642    0.2104 O   0  0  0  0  0  0  0  0  0  0  0  0
    2.3762    0.4092    1.1860 C   0  0  0  0  0  0  0  0  0  0  0  0
    2.9766    1.6392    0.7796 O   0  0  0  0  0  0  0  0  0  0  0  0
   -0.0622    0.4301    0.0677 S   0  0  0  0  0  0  0  0  0  0  0  0
   -0.7787    0.8322    1.2514 O   0  0  0  0  0  0  0  0  0  0  0  0
   -0.9867   -0.6527   -0.6705 O   0  0  0  0  0  0  0  0  0  0  0  0
    1.1867   -0.4728    0.5119 O   0  0  0  0  0  0  0  0  0  0  0  0
    0.4331    1.3522   -0.9235 O   0  0  0  0  0  0  0  0  0  0  0  0
   -1.3751   -0.1639   -1.6698 H   0  0  0  0  0  0  0  0  0  0  0  0
   -0.8103   -1.7070    0.9223 H   0  0  0  0  0  0  0  0  0  0  0  0
   -0.3478    1.6824   -0.7815 H   0  0  0  0  0  0  0  0  0  0  0  0
    1.2102   -0.6809   -1.1322 H   0  0  0  0  0  0  0  0  0  0  0  0
   -2.9317   -0.4124    0.7590 H   0  0  0  0  0  0  0  0  0  0  0  0
   -3.3858    0.2680   -0.6007 H   0  0  0  0  0  0  0  0  0  0  0  0
    1.4017   -0.2444    1.8635 H   0  0  0  0  0  0  0  0  0  0  0  0
   -1.7051   -2.5900   -1.0410 H   0  0  0  0  0  0  0  0  0  0  0  0
    1.3446   -2.8516   -0.2087 H   0  0  0  0  0  0  0  0  0  0  0  0
   -1.5716    2.7025    0.8270 H   0  0  0  0  0  0  0  0  0  0  0  0
    2.3724    1.9303    1.2135 H   0  0  0  0  0  0  0  0  0  0  0  0
    3.2304    0.5562    0.4649 H   0  0  0  0  0  0  0  0  0  0  0  0
    2.8587    2.2360   -0.9835 H   0  0  0  0  0  0  0  0  0  0  0  0
   -1.8311   -0.7215    0.8897 H   0  0  0  0  0  0  0  0  0  0  0  0
   -0.7739    0.5537   -1.6927 H   0  0  0  0  0  0  0  0  0  0  0  0
    0.1077   -1.8469   -1.2294 H   0  0  0  0  0  0  0  0  0  0  0  0
   -0.2159    1.2811    1.2276 H   0  0  0  0  0  0  0  0  0  0  0  0
   -2.4425   -1.4112   -1.8852 H   0  0  0  0  0  0  0  0  0  0  0  0
   -3.3727   -0.5564   -0.8737 H   0  0  0  0  0  0  0  0  0  0  0  0
    1.6771   -0.0905   -0.7747 H   0  0  0  0  0  0  0  0  0  0  0  0
   -1.7265    2.3981   -0.5893 H   0  0  0  0  0  0  0  0  0  0  0  0
    1.4209    2.5335    0.1065 H   0  0  0  0  0  0  0  0  0  0  0  0
   -1.6061   -3.0290    0.3985 H   0  0  0  0  0  0  0  0  0  0  0  0
    3.1439   -0.3771    1.2243 H   0  0  0  0  0  0  0  0  0  0  0  0
    1.9949    0.5331    2.2041 H   0  0  0  0  0  0  0  0  0  0  0  0
    3.8877    1.4154    0.4929 H   0  0  0  0  0  0  0  0  0  0  0  0
   -1.6092   -1.0013    0.0022 H   0  0  0  0  0  0  0  0  0  0  0  0
    1.8170   -0.4876   -0.2392 H   0  0  0  0  0  0  0  0  0  0  0  0
  2  1  1  0
  3  1  1  0
  4  3  1  0
  5  2  1  0
  1  6  1  0
  7  4  1  0
  2  8  1  0
  5  9  1  0
  3 10  1  0
  7 11  1  0
 12 11  1  0
  5  7  1  0
 14 13  1  0
 15 13  1  0
 16 15  1  0
 17 14  1  0
 13 18  1  0
 19 16  1  0
 14 20  1  0
 17 21  1  0
 15 22  1  0
 19 23  1  0
 24 23  1  0
 17 19  1  0
 25 26  2  0
 25 27  1  0
 25 28  1  0
 25 29  2  0
  1 30  1  6
  2 31  1  1
  3 32  1  6
  5 33  1  6
  6 34  1  0
  6 35  1  0
  7 36  1  1
  8 37  1  0
  9 38  1  0
 10 39  1  0
 11 40  1  0
 11 41  1  0
 12 42  1  0
 13 43  1  1
 14 44  1  6
 15 45  1  6
 17 46  1  1
 18 47  1  0
 18 48  1  0
 19 49  1  6
 20 50  1  0
 21 51  1  0
 22 52  1  0
 23 53  1  0
 23 54  1  0
 24 55  1  0
 27 56  1  0
 28 57  1  0
M  END
$$$$
