
     RDKit          3D

 57 56  0  0  0  0  0  0  0  0999 V2000
   -1.6708    0.7670   -0.4185 C   0  0  2  0  0  0  0  0  0  0  0  0
   -1.2424   -0.6592   -0.8145 C   0  0  2  0  0  0  0  0  0  0  0  0
   -0.4188    1.6555   -0.2035 C   0  0  2  0  0  0  0  0  0  0  0  0
    0.4419    1.1315    0.8031 O   0  0  0  0  0  0  0  0  0  0  0  0
    0.2605   -0.9093   -0.6246 C   0  0  1  0  0  0  0  0  0  0  0  0
   -2.5099    0.7535    0.8168 N   0  0  0  0  0  0  0  0  0  0  0  0
    0.7422   -0.2669    0.6871 C   0  0  1  0  0  0  0  0  0  0  0  0
   -1.5604   -0.9040   -2.1959 O   0  0  0  0  0  0  0  0  0  0  0  0
    0.4823   -2.3240   -0.6784 O   0  0  0  0  0  0  0  0  0  0  0  0
   -0.8317    2.9465    0.2289 O   0  0  0  0  0  0  0  0  0  0  0  0
    2.2575   -0.4291    0.8856 C   0  0  0  0  0  0  0  0  0  0  0  0
    2.6529   -1.7935    0.7777 O   0  0  0  0  0  0  0  0  0  0  0  0
    1.3962    0.1554    0.3869 C   0  0  2  0  0  0  0  0  0  0  0  0
    0.8006   -1.1360   -0.1858 C   0  0  2  0  0  0  0  0  0  0  0  0
    0.8361    1.3701   -0.4074 C   0  0  1  0  0  0  0  0  0  0  0  0
   -0.3404    1.0772   -1.1546 O   0  0  0  0  0  0  0  0  0  0  0  0
   -0.7305   -1.1146   -0.0906 C   0  0  1  0  0  0  0  0  0  0  0  0
    2.8795    0.0853    0.3923 N   0  0  0  0  0  0  0  0  0  0  0  0
   -1.3121    0.2581   -0.4886 C   0  0  1  0  0  0  0  0  0  0  0  0
    1.3020   -2.2927    0.5104 O   0  0  0  0  0  0  0  0  0  0  0  0
   -1.2363   -2.1383   -0.9669 O   0  0  0  0  0  0  0  0  0  0  0  0
    0.5867    2.4600    0.4653 O   0  0  0  0  0  0  0  0  0  0  0  0
   -1.9619    0.9821    0.7048 C   0  0  0  0  0  0  0  0  0  0  0  0
   -3.0804    0.2570    1.2082 O   0  0  0  0  0  0  0  0  0  0  0  0
   -0.0625    0.3629    0.2690 S   0  0  0  0  0  0  0  0  0  0  0  0
    0.5258    0.3418    1.5839 O   0  0  0  0  0  0  0  0  0  0  0  0
   -0.9680   -0.9504    0.0992 O   0  0  0  0  0  0  0  0  0  0  0  0
    1.1251    0.0547   -0.7646 O   0  0  0  0  0  0  0  0  0  0  0  0
   -0.8387    1.4620   -0.2457 O   0  0  0  0  0  0  0  0  0  0  0  0
   -2.2932    1.2122   -1.2040 H   0  0  0  0  0  0  0  0  0  0  0  0
   -1.8213   -1.4018   -0.2503 H   0  0  0  0  0  0  0  0  0  0  0  0
    0.1383    1.7759   -1.1401 H   0  0  0  0  0  0  0  0  0  0  0  0
    0.8097   -0.4821   -1.4734 H   0  0  0  0  0  0  0  0  0  0  0  0
   -1.8982    0.5551    1.6111 H   0  0  0  0  0  0  0  0  0  0  0  0
   -2.7799    1.7302    0.9775 H   0  0  0  0  0  0  0  0  0  0  0  0
    0.2493   -0.7836    1.5210 H   0  0  0  0  0  0  0  0  0  0  0  0
   -1.2903   -1.8300   -2.3559 H   0  0  0  0  0  0  0  0  0  0  0  0
    1.3530   -2.4890   -0.2527 H   0  0  0  0  0  0  0  0  0  0  0  0
   -0.0177    3.4753    0.2547 H   0  0  0  0  0  0  0  0  0  0  0  0
    2.8063    0.1544    0.1380 H   0  0  0  0  0  0  0  0  0  0  0  0
    2.5480   -0.0514    1.8723 H   0  0  0  0  0  0  0  0  0  0  0  0
    3.5925   -1.8332    1.0381 H   0  0  0  0  0  0  0  0  0  0  0  0
    1.1087    0.2449    1.4422 H   0  0  0  0  0  0  0  0  0  0  0  0
    1.1078   -1.2650   -1.2319 H   0  0  0  0  0  0  0  0  0  0  0  0
    1.5845    1.6998   -1.1380 H   0  0  0  0  0  0  0  0  0  0  0  0
   -1.0603   -1.4078    0.9125 H   0  0  0  0  0  0  0  0  0  0  0  0
    3.2172    0.0312   -0.5700 H   0  0  0  0  0  0  0  0  0  0  0  0
    3.1485   -0.8143    0.8004 H   0  0  0  0  0  0  0  0  0  0  0  0
   -2.1071    0.0880   -1.2256 H   0  0  0  0  0  0  0  0  0  0  0  0
    1.1477   -2.1561    1.4632 H   0  0  0  0  0  0  0  0  0  0  0  0
   -0.7200   -2.9441   -0.7704 H   0  0  0  0  0  0  0  0  0  0  0  0
    0.7300    3.2603   -0.0671 H   0  0  0  0  0  0  0  0  0  0  0  0
   -2.2949    1.9846    0.4152 H   0  0  0  0  0  0  0  0  0  0  0  0
   -1.2572    1.1019    1.5325 H   0  0  0  0  0  0  0  0  0  0  0  0
   -3.7443    0.2130    0.4968 H   0  0  0  0  0  0  0  0  0  0  0  0
   -1.5729   -0.7887   -0.6543 H   0  0  0  0  0  0  0  0  0  0  0  0
    1.7912   -0.4824   -0.2875 H   0  0  0  0  0  0  0  0  0  0  0  0
  2  1  1  0
  3  1  1  0
  4  3  1  0
  5  2  1  0
  1  6  1  0
  7  4  1  0
  2  8  1  0
  5  9  1  0
  3 10  1  0
  7 11  1  0
 12 11  1  0
  5  7  1  0
 14 13  1  0
 15 13  1  0
 16 15  1  0
 17 14  1  0
 13 18  1  0
 19 16  1  0
 14 20  1  0
 17 21  1  0
 15 22  1  0
 19 23  1  0
 24 23  1  0
 17 19  1  0
 25 26  2  0
 25 27  1  0
 25 28  1  0
 25 29  2  0
  1 30  1  6
  2 31  1  1
  3 32  1  6
  5 33  1  6
  6 34  1  0
  6 35  1  0
  7 36  1  1
  8 37  1  0
  9 38  1  0
 10 39  1  0
 11 40  1  0
 11 41  1  0
 12 42  1  0
 13 43  1  1
 14 44  1  6
 15 45  1  6
 17 46  1  1
 18 47  1  0
 18 48  1  0
 19 49  1  6
 20 50  1  0
 21 51  1  0
 22 52  1  0
 23 53  1  0
 23 54  1  0
 24 55  1  0
 27 56  1  0
 28 57  1  0
M  END
$$$$
