
     RDKit          3D

 57 56  0  0  0  0  0  0  0  0999 V2000
   -1.6108    0.3397    0.0011 C   0  0  2  0  0  0  0  0  0  0  0  0
   -0.6401    0.9605    1.0190 C   0  0  2  0  0  0  0  0  0  0  0  0
   -0.8238   -0.4569   -1.0813 C   0  0  2  0  0  0  0  0  0  0  0  0
    0.4731    0.0805   -1.2707 O   0  0  0  0  0  0  0  0  0  0  0  0
    0.5607    0.0374    1.2168 C   0  0  1  0  0  0  0  0  0  0  0  0
   -2.4974    1.4157   -0.5171 N   0  0  0  0  0  0  0  0  0  0  0  0
    1.3330   -0.0494   -0.1167 C   0  0  1  0  0  0  0  0  0  0  0  0
   -1.3034    1.1749    2.2698 O   0  0  0  0  0  0  0  0  0  0  0  0
    1.3996    0.5288    2.2642 O   0  0  0  0  0  0  0  0  0  0  0  0
   -1.4979   -0.3886   -2.3283 O   0  0  0  0  0  0  0  0  0  0  0  0
    2.1593   -1.3450   -0.1900 C   0  0  0  0  0  0  0  0  0  0  0  0
    2.9931   -1.3334   -1.3467 O   0  0  0  0  0  0  0  0  0  0  0  0
   -1.5049   -0.2803   -0.1072 C   0  0  2  0  0  0  0  0  0  0  0  0
   -0.8324    1.0854    0.1018 C   0  0  2  0  0  0  0  0  0  0  0  0
   -0.5642   -1.1748   -0.9532 C   0  0  1  0  0  0  0  0  0  0  0  0
    0.6641   -1.3451   -0.2510 O   0  0  0  0  0  0  0  0  0  0  0  0
    0.5771    0.9153    0.6924 C   0  0  1  0  0  0  0  0  0  0  0  0
   -2.8624   -0.1662   -0.6816 N   0  0  0  0  0  0  0  0  0  0  0  0
    1.3839   -0.1029   -0.1260 C   0  0  1  0  0  0  0  0  0  0  0  0
   -1.6211    1.9167    0.9748 O   0  0  0  0  0  0  0  0  0  0  0  0
    1.2324    2.1855    0.7104 O   0  0  0  0  0  0  0  0  0  0  0  0
   -1.1654   -2.4450   -1.1629 O   0  0  0  0  0  0  0  0  0  0  0  0
    2.7286   -0.4199    0.5382 C   0  0  0  0  0  0  0  0  0  0  0  0
    3.4463   -1.3649   -0.2604 O   0  0  0  0  0  0  0  0  0  0  0  0
    0.0864    0.4022   -0.1628 S   0  0  0  0  0  0  0  0  0  0  0  0
    0.5102    1.4294    0.7542 O   0  0  0  0  0  0  0  0  0  0  0  0
   -1.3035   -0.2071    0.3644 O   0  0  0  0  0  0  0  0  0  0  0  0
    1.0761   -0.8381    0.0599 O   0  0  0  0  0  0  0  0  0  0  0  0
   -0.0718    0.6066   -1.5801 O   0  0  0  0  0  0  0  0  0  0  0  0
   -2.2800   -0.3641    0.5083 H   0  0  0  0  0  0  0  0  0  0  0  0
   -0.2797    1.9423    0.6841 H   0  0  0  0  0  0  0  0  0  0  0  0
   -0.7519   -1.5173   -0.8060 H   0  0  0  0  0  0  0  0  0  0  0  0
    0.2113   -0.9515    1.5374 H   0  0  0  0  0  0  0  0  0  0  0  0
   -3.2699    0.9549   -1.0109 H   0  0  0  0  0  0  0  0  0  0  0  0
   -1.9927    1.8721   -1.2787 H   0  0  0  0  0  0  0  0  0  0  0  0
    2.0306    0.7917   -0.1853 H   0  0  0  0  0  0  0  0  0  0  0  0
   -2.0919    1.7104    2.0348 H   0  0  0  0  0  0  0  0  0  0  0  0
    0.7800    0.8487    2.9546 H   0  0  0  0  0  0  0  0  0  0  0  0
   -0.7734   -0.4638   -2.9714 H   0  0  0  0  0  0  0  0  0  0  0  0
    2.8003   -1.4472    0.6931 H   0  0  0  0  0  0  0  0  0  0  0  0
    1.5062   -2.2236   -0.2661 H   0  0  0  0  0  0  0  0  0  0  0  0
    3.5656   -2.1166   -1.2943 H   0  0  0  0  0  0  0  0  0  0  0  0
   -1.6420   -0.7544    0.8761 H   0  0  0  0  0  0  0  0  0  0  0  0
   -0.7655    1.6283   -0.8510 H   0  0  0  0  0  0  0  0  0  0  0  0
   -0.3735   -0.7388   -1.9398 H   0  0  0  0  0  0  0  0  0  0  0  0
    0.4893    0.5828    1.7348 H   0  0  0  0  0  0  0  0  0  0  0  0
   -2.8024    0.2160   -1.6236 H   0  0  0  0  0  0  0  0  0  0  0  0
   -3.3755    0.5455   -0.1516 H   0  0  0  0  0  0  0  0  0  0  0  0
    1.5884    0.2766   -1.1352 H   0  0  0  0  0  0  0  0  0  0  0  0
   -1.8180    1.4092    1.7848 H   0  0  0  0  0  0  0  0  0  0  0  0
    0.5796    2.8373    1.0283 H   0  0  0  0  0  0  0  0  0  0  0  0
   -2.0902   -2.3550   -0.8581 H   0  0  0  0  0  0  0  0  0  0  0  0
    3.3476    0.4739    0.6428 H   0  0  0  0  0  0  0  0  0  0  0  0
    2.5856   -0.8728    1.5248 H   0  0  0  0  0  0  0  0  0  0  0  0
    2.7945   -2.0521   -0.5075 H   0  0  0  0  0  0  0  0  0  0  0  0
   -1.7363   -0.6345   -0.4037 H   0  0  0  0  0  0  0  0  0  0  0  0
    1.4389   -0.7585    0.9681 H   0  0  0  0  0  0  0  0  0  0  0  0
  2  1  1  0
  3  1  1  0
  4  3  1  0
  5  2  1  0
  1  6  1  0
  7  4  1  0
  2  8  1  0
  5  9  1  0
  3 10  1  0
  7 11  1  0
 12 11  1  0
  5  7  1  0
 14 13  1  0
 15 13  1  0
 16 15  1  0
 17 14  1  0
 13 18  1  0
 19 16  1  0
 14 20  1  0
 17 21  1  0
 15 22  1  0
 19 23  1  0
 24 23  1  0
 17 19  1  0
 25 26  2  0
 25 27  1  0
 25 28  1  0
 25 29  2  0
  1 30  1  1
  2 31  1  6
  3 32  1  1
  5 33  1  1
  6 34  1  0
  6 35  1  0
  7 36  1  1
  8 37  1  0
  9 38  1  0
 10 39  1  0
 11 40  1  0
 11 41  1  0
 12 42  1  0
 13 43  1  1
 14 44  1  6
 15 45  1  6
 17 46  1  1
 18 47  1  0
 18 48  1  0
 19 49  1  6
 20 50  1  0
 21 51  1  0
 22 52  1  0
 23 53  1  0
 23 54  1  0
 24 55  1  0
 27 56  1  0
 28 57  1  0
M  END
$$$$
