
     RDKit          3D

 57 56  0  0  0  0  0  0  0  0999 V2000
   -1.5718   -0.2016    0.1363 C   0  0  2  0  0  0  0  0  0  0  0  0
   -0.5973   -1.3919    0.1004 C   0  0  2  0  0  0  0  0  0  0  0  0
   -0.7958    1.1487    0.1393 C   0  0  2  0  0  0  0  0  0  0  0  0
    0.4574    1.0181    0.7914 O   0  0  0  0  0  0  0  0  0  0  0  0
    0.6718   -1.0081   -0.6580 C   0  0  1  0  0  0  0  0  0  0  0  0
   -2.5131   -0.3770    1.2741 N   0  0  0  0  0  0  0  0  0  0  0  0
    1.3724    0.1312    0.1036 C   0  0  1  0  0  0  0  0  0  0  0  0
   -1.2153   -2.5191   -0.5350 O   0  0  0  0  0  0  0  0  0  0  0  0
    1.5358   -2.1374   -0.7818 O   0  0  0  0  0  0  0  0  0  0  0  0
   -1.5612    2.1336    0.8198 O   0  0  0  0  0  0  0  0  0  0  0  0
    2.2723    0.9612   -0.8203 C   0  0  0  0  0  0  0  0  0  0  0  0
    2.9171    1.9958   -0.0756 O   0  0  0  0  0  0  0  0  0  0  0  0
    1.5870    0.0884   -0.0632 C   0  0  2  0  0  0  0  0  0  0  0  0
    0.6485    1.0964    0.6088 C   0  0  2  0  0  0  0  0  0  0  0  0
    0.9108   -1.3035   -0.0322 C   0  0  1  0  0  0  0  0  0  0  0  0
   -0.3463   -1.2658   -0.6898 O   0  0  0  0  0  0  0  0  0  0  0  0
   -0.7326    1.0648   -0.0562 C   0  0  1  0  0  0  0  0  0  0  0  0
    2.9275    0.1101    0.5741 N   0  0  0  0  0  0  0  0  0  0  0  0
   -1.2779   -0.3707   -0.0570 C   0  0  1  0  0  0  0  0  0  0  0  0
    1.1785    2.4275    0.5213 O   0  0  0  0  0  0  0  0  0  0  0  0
   -1.6083    1.9435    0.6555 O   0  0  0  0  0  0  0  0  0  0  0  0
    1.7365   -2.2208   -0.7350 O   0  0  0  0  0  0  0  0  0  0  0  0
   -2.6171   -0.4487   -0.8073 C   0  0  0  0  0  0  0  0  0  0  0  0
   -3.2129   -1.7411   -0.6622 O   0  0  0  0  0  0  0  0  0  0  0  0
   -0.0636    0.4023    0.2057 S   0  0  0  0  0  0  0  0  0  0  0  0
   -0.8705    1.3863   -0.4695 O   0  0  0  0  0  0  0  0  0  0  0  0
    1.1210   -0.0447   -0.7794 O   0  0  0  0  0  0  0  0  0  0  0  0
   -0.9404   -0.9398    0.2627 O   0  0  0  0  0  0  0  0  0  0  0  0
    0.5360    0.6070    1.4996 O   0  0  0  0  0  0  0  0  0  0  0  0
   -2.2087   -0.2131   -0.7573 H   0  0  0  0  0  0  0  0  0  0  0  0
   -0.3212   -1.7211    1.1109 H   0  0  0  0  0  0  0  0  0  0  0  0
   -0.6473    1.4985   -0.8896 H   0  0  0  0  0  0  0  0  0  0  0  0
    0.4092   -0.7034   -1.6787 H   0  0  0  0  0  0  0  0  0  0  0  0
   -3.0721    0.4845    1.3095 H   0  0  0  0  0  0  0  0  0  0  0  0
   -1.9678   -0.3083    2.1387 H   0  0  0  0  0  0  0  0  0  0  0  0
    2.0103   -0.2880    0.8919 H   0  0  0  0  0  0  0  0  0  0  0  0
   -2.0654   -2.6380   -0.0635 H   0  0  0  0  0  0  0  0  0  0  0  0
    0.9447   -2.8931   -0.9816 H   0  0  0  0  0  0  0  0  0  0  0  0
   -1.0735    2.9656    0.7004 H   0  0  0  0  0  0  0  0  0  0  0  0
    3.0424    0.3432   -1.2910 H   0  0  0  0  0  0  0  0  0  0  0  0
    1.6868    1.4503   -1.6050 H   0  0  0  0  0  0  0  0  0  0  0  0
    2.2905    2.2689    0.6212 H   0  0  0  0  0  0  0  0  0  0  0  0
    1.7383    0.3794   -1.1116 H   0  0  0  0  0  0  0  0  0  0  0  0
    0.5419    0.8777    1.6797 H   0  0  0  0  0  0  0  0  0  0  0  0
    0.7881   -1.6700    0.9945 H   0  0  0  0  0  0  0  0  0  0  0  0
   -0.6515    1.4455   -1.0822 H   0  0  0  0  0  0  0  0  0  0  0  0
    3.4888    0.8273    0.1118 H   0  0  0  0  0  0  0  0  0  0  0  0
    3.3852   -0.7703    0.3078 H   0  0  0  0  0  0  0  0  0  0  0  0
   -1.4449   -0.7199    0.9708 H   0  0  0  0  0  0  0  0  0  0  0  0
    2.0575    2.3724    0.9445 H   0  0  0  0  0  0  0  0  0  0  0  0
   -1.1076    2.7802    0.7486 H   0  0  0  0  0  0  0  0  0  0  0  0
    1.1975   -3.0286   -0.7887 H   0  0  0  0  0  0  0  0  0  0  0  0
   -2.4676   -0.2852   -1.8794 H   0  0  0  0  0  0  0  0  0  0  0  0
   -3.3348    0.2897   -0.4370 H   0  0  0  0  0  0  0  0  0  0  0  0
   -3.3847   -1.8784    0.2843 H   0  0  0  0  0  0  0  0  0  0  0  0
    1.7909   -0.5081   -0.2352 H   0  0  0  0  0  0  0  0  0  0  0  0
   -1.5735   -0.9030   -0.4840 H   0  0  0  0  0  0  0  0  0  0  0  0
  2  1  1  0
  3  1  1  0
  4  3  1  0
  5  2  1  0
  1  6  1  0
  7  4  1  0
  2  8  1  0
  5  9  1  0
  3 10  1  0
  7 11  1  0
 12 11  1  0
  5  7  1  0
 14 13  1  0
 15 13  1  0
 16 15  1  0
 17 14  1  0
 13 18  1  0
 19 16  1  0
 14 20  1  0
 17 21  1  0
 15 22  1  0
 19 23  1  0
 24 23  1  0
 17 19  1  0
 25 26  2  0
 25 27  1  0
 25 28  1  0
 25 29  2  0
  1 30  1  6
  2 31  1  1
  3 32  1  6
  5 33  1  6
  6 34  1  0
  6 35  1  0
  7 36  1  1
  8 37  1  0
  9 38  1  0
 10 39  1  0
 11 40  1  0
 11 41  1  0
 12 42  1  0
 13 43  1  6
 14 44  1  1
 15 45  1  1
 17 46  1  6
 18 47  1  0
 18 48  1  0
 19 49  1  1
 20 50  1  0
 21 51  1  0
 22 52  1  0
 23 53  1  0
 23 54  1  0
 24 55  1  0
 27 56  1  0
 28 57  1  0
M  END
$$$$
