
     RDKit          3D

 43 46  0  0  0  0  0  0  0  0999 V2000
   -0.5676   -0.0762   -0.3585 C   0  0  0  0  0  0  0  0  0  0  0  0
   -1.3214   -1.2758    0.0484 C   0  0  0  0  0  0  0  0  0  0  0  0
   -1.3779    1.1494   -0.4784 C   0  0  0  0  0  0  0  0  0  0  0  0
    0.7811   -0.0871   -0.5536 C   0  0  0  0  0  0  0  0  0  0  0  0
   -1.8957   -0.2194    2.2887 C   0  0  0  0  0  0  0  0  0  0  0  0
   -1.9262    1.0926    2.0037 C   0  0  0  0  0  0  0  0  0  0  0  0
    3.6515   -0.0595   -0.7348 N   0  0  0  0  0  0  0  0  0  0  0  0
   -2.0361    1.6880    0.6489 C   0  0  0  0  0  0  0  0  0  0  0  0
   -1.9658   -1.3273    1.3039 C   0  0  0  0  0  0  0  0  0  0  0  0
    1.5196    1.1513   -1.0311 C   0  0  0  0  0  0  0  0  0  0  0  0
    1.5787   -1.3777   -0.4814 C   0  0  0  0  0  0  0  0  0  0  0  0
    2.9476    1.2104   -0.4837 C   0  0  0  0  0  0  0  0  0  0  0  0
    3.0025   -1.1406    0.0272 C   0  0  0  0  0  0  0  0  0  0  0  0
   -1.4292   -2.3621   -0.8368 C   0  0  0  0  0  0  0  0  0  0  0  0
   -1.5256    1.7648   -1.7332 C   0  0  0  0  0  0  0  0  0  0  0  0
    5.0601    0.0619   -0.3278 C   0  0  0  0  0  0  0  0  0  0  0  0
   -2.7693    2.8783    0.5062 C   0  0  0  0  0  0  0  0  0  0  0  0
   -2.6439   -2.5010    1.6745 C   0  0  0  0  0  0  0  0  0  0  0  0
   -2.2776    2.9333   -1.8616 C   0  0  0  0  0  0  0  0  0  0  0  0
   -2.1271   -3.5109   -0.4618 C   0  0  0  0  0  0  0  0  0  0  0  0
   -2.8926    3.4935   -0.7420 C   0  0  0  0  0  0  0  0  0  0  0  0
   -2.7275   -3.5831    0.7951 C   0  0  0  0  0  0  0  0  0  0  0  0
   -1.9216   -0.4928    3.3373 H   0  0  0  0  0  0  0  0  0  0  0  0
   -1.9744    1.7747    2.8448 H   0  0  0  0  0  0  0  0  0  0  0  0
    1.0119    2.0846   -0.7082 H   0  0  0  0  0  0  0  0  0  0  0  0
    1.5525    1.1383   -2.1417 H   0  0  0  0  0  0  0  0  0  0  0  0
    1.6217   -1.8252   -1.4976 H   0  0  0  0  0  0  0  0  0  0  0  0
    1.1099   -2.1145    0.2044 H   0  0  0  0  0  0  0  0  0  0  0  0
    3.4744    2.0460   -0.9963 H   0  0  0  0  0  0  0  0  0  0  0  0
    2.9201    1.4439    0.6062 H   0  0  0  0  0  0  0  0  0  0  0  0
    3.5710   -2.0893   -0.0975 H   0  0  0  0  0  0  0  0  0  0  0  0
    2.9748   -0.9019    1.1160 H   0  0  0  0  0  0  0  0  0  0  0  0
   -0.9662   -2.3194   -1.8151 H   0  0  0  0  0  0  0  0  0  0  0  0
   -1.0519    1.3409   -2.6103 H   0  0  0  0  0  0  0  0  0  0  0  0
    5.5609    0.8603   -0.9166 H   0  0  0  0  0  0  0  0  0  0  0  0
    5.6017   -0.8857   -0.5369 H   0  0  0  0  0  0  0  0  0  0  0  0
    5.1501    0.2997    0.7561 H   0  0  0  0  0  0  0  0  0  0  0  0
   -3.2595    3.3261    1.3624 H   0  0  0  0  0  0  0  0  0  0  0  0
   -3.1220   -2.5747    2.6440 H   0  0  0  0  0  0  0  0  0  0  0  0
   -2.3804    3.4071   -2.8292 H   0  0  0  0  0  0  0  0  0  0  0  0
   -2.1992   -4.3474   -1.1448 H   0  0  0  0  0  0  0  0  0  0  0  0
   -3.4693    4.4040   -0.8414 H   0  0  0  0  0  0  0  0  0  0  0  0
   -3.2621   -4.4776    1.0877 H   0  0  0  0  0  0  0  0  0  0  0  0
  2  1  1  0
  3  1  1  0
  4  1  2  3
  5  9  1  0
  6  8  1  0
  7 13  1  0
  8  3  2  0
  9  2  2  0
 10  4  1  0
 11  4  1  0
 12 10  1  0
 13 11  1  0
 14  2  1  0
 15  3  1  0
 16  7  1  0
 17  8  1  0
 18  9  1  0
 19 15  2  0
 20 14  2  0
 21 19  1  0
 22 20  1  0
  7 12  1  0
  6  5  2  0
 21 17  2  0
 22 18  2  0
  5 23  1  0
  6 24  1  0
 10 25  1  0
 10 26  1  0
 11 27  1  0
 11 28  1  0
 12 29  1  0
 12 30  1  0
 13 31  1  0
 13 32  1  0
 14 33  1  0
 15 34  1  0
 16 35  1  0
 16 36  1  0
 16 37  1  0
 17 38  1  0
 18 39  1  0
 19 40  1  0
 20 41  1  0
 21 42  1  0
 22 43  1  0
M  END
$$$$
