
     RDKit          3D

 43 46  0  0  0  0  0  0  0  0999 V2000
    0.4799   -0.0385   -0.4496 C   0  0  0  0  0  0  0  0  0  0  0  0
    1.2268    1.2118   -0.6709 C   0  0  0  0  0  0  0  0  0  0  0  0
    1.3180   -1.2469   -0.3628 C   0  0  0  0  0  0  0  0  0  0  0  0
   -0.8544   -0.0537   -0.1757 C   0  0  0  0  0  0  0  0  0  0  0  0
    2.3889    0.9639    1.5770 C   0  0  0  0  0  0  0  0  0  0  0  0
    2.4383   -0.3687    1.7439 C   0  0  0  0  0  0  0  0  0  0  0  0
   -3.4223    0.0047    1.0503 N   0  0  0  0  0  0  0  0  0  0  0  0
    2.2597   -1.3885    0.6798 C   0  0  0  0  0  0  0  0  0  0  0  0
    2.1461    1.6742    0.2960 C   0  0  0  0  0  0  0  0  0  0  0  0
   -1.6161    1.2606   -0.0732 C   0  0  0  0  0  0  0  0  0  0  0  0
   -1.5191   -1.3541    0.2545 C   0  0  0  0  0  0  0  0  0  0  0  0
   -3.1264    1.1039    0.1190 C   0  0  0  0  0  0  0  0  0  0  0  0
   -3.0385   -1.2656    0.4159 C   0  0  0  0  0  0  0  0  0  0  0  0
    1.0563    1.9228   -1.8699 C   0  0  0  0  0  0  0  0  0  0  0  0
    1.2108   -2.2419   -1.3481 C   0  0  0  0  0  0  0  0  0  0  0  0
   -4.8598   -0.0092    1.3648 C   0  0  0  0  0  0  0  0  0  0  0  0
    3.0175   -2.5693    0.7576 C   0  0  0  0  0  0  0  0  0  0  0  0
    2.8150    2.8898    0.0735 C   0  0  0  0  0  0  0  0  0  0  0  0
    1.9891   -3.3977   -1.2696 C   0  0  0  0  0  0  0  0  0  0  0  0
    1.7475    3.1159   -2.0858 C   0  0  0  0  0  0  0  0  0  0  0  0
    2.8850   -3.5651   -0.2133 C   0  0  0  0  0  0  0  0  0  0  0  0
    2.6191    3.6033   -1.1116 C   0  0  0  0  0  0  0  0  0  0  0  0
    2.6472    1.5742    2.4347 H   0  0  0  0  0  0  0  0  0  0  0  0
    2.7327   -0.7283    2.7232 H   0  0  0  0  0  0  0  0  0  0  0  0
   -1.2047    1.8354    0.7854 H   0  0  0  0  0  0  0  0  0  0  0  0
   -1.4661    1.8633   -0.9925 H   0  0  0  0  0  0  0  0  0  0  0  0
   -1.0747   -1.6681    1.2245 H   0  0  0  0  0  0  0  0  0  0  0  0
   -1.3171   -2.1522   -0.4892 H   0  0  0  0  0  0  0  0  0  0  0  0
   -3.6138    0.9344   -0.8697 H   0  0  0  0  0  0  0  0  0  0  0  0
   -3.5200    2.0648    0.5203 H   0  0  0  0  0  0  0  0  0  0  0  0
   -3.3646   -2.1240    1.0452 H   0  0  0  0  0  0  0  0  0  0  0  0
   -3.5279   -1.3810   -0.5795 H   0  0  0  0  0  0  0  0  0  0  0  0
    0.3828    1.5541   -2.6341 H   0  0  0  0  0  0  0  0  0  0  0  0
    0.5192   -2.1230   -2.1733 H   0  0  0  0  0  0  0  0  0  0  0  0
   -5.0868   -0.8291    2.0799 H   0  0  0  0  0  0  0  0  0  0  0  0
   -5.4752   -0.1470    0.4473 H   0  0  0  0  0  0  0  0  0  0  0  0
   -5.1525    0.9426    1.8580 H   0  0  0  0  0  0  0  0  0  0  0  0
    3.7255   -2.7138    1.5647 H   0  0  0  0  0  0  0  0  0  0  0  0
    3.5032    3.2800    0.8136 H   0  0  0  0  0  0  0  0  0  0  0  0
    1.8952   -4.1658   -2.0263 H   0  0  0  0  0  0  0  0  0  0  0  0
    1.6048    3.6648   -3.0076 H   0  0  0  0  0  0  0  0  0  0  0  0
    3.4826   -4.4653   -0.1495 H   0  0  0  0  0  0  0  0  0  0  0  0
    3.1489    4.5325   -1.2770 H   0  0  0  0  0  0  0  0  0  0  0  0
  2  1  1  0
  3  1  1  0
  4  1  2  3
  5  9  1  0
  6  8  1  0
  7 13  1  0
  8  3  2  0
  9  2  2  0
 10  4  1  0
 11  4  1  0
 12 10  1  0
 13 11  1  0
 14  2  1  0
 15  3  1  0
 16  7  1  0
 17  8  1  0
 18  9  1  0
 19 15  2  0
 20 14  2  0
 21 19  1  0
 22 20  1  0
  7 12  1  0
  6  5  2  0
 21 17  2  0
 22 18  2  0
  5 23  1  0
  6 24  1  0
 10 25  1  0
 10 26  1  0
 11 27  1  0
 11 28  1  0
 12 29  1  0
 12 30  1  0
 13 31  1  0
 13 32  1  0
 14 33  1  0
 15 34  1  0
 16 35  1  0
 16 36  1  0
 16 37  1  0
 17 38  1  0
 18 39  1  0
 19 40  1  0
 20 41  1  0
 21 42  1  0
 22 43  1  0
M  END
$$$$
