
     RDKit          3D

 43 46  0  0  0  0  0  0  0  0999 V2000
   -0.4759    0.0090    0.1830 C   0  0  0  0  0  0  0  0  0  0  0  0
   -1.3590   -1.1687    0.1474 C   0  0  0  0  0  0  0  0  0  0  0  0
   -1.1419    1.2565    0.5932 C   0  0  0  0  0  0  0  0  0  0  0  0
    0.8203   -0.0306   -0.2328 C   0  0  0  0  0  0  0  0  0  0  0  0
   -2.7460   -0.1257   -1.7100 C   0  0  0  0  0  0  0  0  0  0  0  0
   -2.6281    1.1909   -1.4680 C   0  0  0  0  0  0  0  0  0  0  0  0
    3.6390   -0.1789   -0.7988 N   0  0  0  0  0  0  0  0  0  0  0  0
   -2.1790    1.8043   -0.1928 C   0  0  0  0  0  0  0  0  0  0  0  0
   -2.4494   -1.2171   -0.7482 C   0  0  0  0  0  0  0  0  0  0  0  0
    1.6502    1.2293   -0.3905 C   0  0  0  0  0  0  0  0  0  0  0  0
    1.4259   -1.2765   -0.8510 C   0  0  0  0  0  0  0  0  0  0  0  0
    3.1118    0.9597   -0.0226 C   0  0  0  0  0  0  0  0  0  0  0  0
    2.8997   -1.4095   -0.4580 C   0  0  0  0  0  0  0  0  0  0  0  0
   -1.1485   -2.2240    1.0506 C   0  0  0  0  0  0  0  0  0  0  0  0
   -0.7818    1.8723    1.8035 C   0  0  0  0  0  0  0  0  0  0  0  0
    5.0701   -0.3599   -0.5109 C   0  0  0  0  0  0  0  0  0  0  0  0
   -2.7739    3.0118    0.2100 C   0  0  0  0  0  0  0  0  0  0  0  0
   -3.2554   -2.3676   -0.7788 C   0  0  0  0  0  0  0  0  0  0  0  0
   -1.4006    3.0583    2.2015 C   0  0  0  0  0  0  0  0  0  0  0  0
   -1.9741   -3.3490    1.0238 C   0  0  0  0  0  0  0  0  0  0  0  0
   -2.3890    3.6320    1.4014 C   0  0  0  0  0  0  0  0  0  0  0  0
   -3.0207   -3.4245    0.1043 C   0  0  0  0  0  0  0  0  0  0  0  0
   -3.1919   -0.4121   -2.6555 H   0  0  0  0  0  0  0  0  0  0  0  0
   -2.9881    1.8645   -2.2371 H   0  0  0  0  0  0  0  0  0  0  0  0
    1.5939    1.5594   -1.4503 H   0  0  0  0  0  0  0  0  0  0  0  0
    1.2950    2.0680    0.2386 H   0  0  0  0  0  0  0  0  0  0  0  0
    1.3473   -1.1965   -1.9568 H   0  0  0  0  0  0  0  0  0  0  0  0
    0.9121   -2.2088   -0.5474 H   0  0  0  0  0  0  0  0  0  0  0  0
    3.6971    1.8780   -0.2517 H   0  0  0  0  0  0  0  0  0  0  0  0
    3.1904    0.7671    1.0727 H   0  0  0  0  0  0  0  0  0  0  0  0
    2.9756   -1.6323    0.6317 H   0  0  0  0  0  0  0  0  0  0  0  0
    3.3255   -2.2738   -1.0147 H   0  0  0  0  0  0  0  0  0  0  0  0
   -0.3359   -2.1780    1.7656 H   0  0  0  0  0  0  0  0  0  0  0  0
   -0.0121    1.4380    2.4302 H   0  0  0  0  0  0  0  0  0  0  0  0
    5.6357    0.5538   -0.7939 H   0  0  0  0  0  0  0  0  0  0  0  0
    5.2425   -0.5736    0.5679 H   0  0  0  0  0  0  0  0  0  0  0  0
    5.4790   -1.1977   -1.1158 H   0  0  0  0  0  0  0  0  0  0  0  0
   -3.5512    3.4672   -0.3918 H   0  0  0  0  0  0  0  0  0  0  0  0
   -4.0800   -2.4405   -1.4777 H   0  0  0  0  0  0  0  0  0  0  0  0
   -1.1105    3.5352    3.1288 H   0  0  0  0  0  0  0  0  0  0  0  0
   -1.7998   -4.1647    1.7136 H   0  0  0  0  0  0  0  0  0  0  0  0
   -2.8629    4.5557    1.7075 H   0  0  0  0  0  0  0  0  0  0  0  0
   -3.6557   -4.3007    0.0797 H   0  0  0  0  0  0  0  0  0  0  0  0
  2  1  1  0
  3  1  1  0
  4  1  2  3
  5  9  1  0
  6  8  1  0
  7 13  1  0
  8  3  2  0
  9  2  2  0
 10  4  1  0
 11  4  1  0
 12 10  1  0
 13 11  1  0
 14  2  1  0
 15  3  1  0
 16  7  1  0
 17  8  1  0
 18  9  1  0
 19 15  2  0
 20 14  2  0
 21 19  1  0
 22 20  1  0
  7 12  1  0
  6  5  2  0
 21 17  2  0
 22 18  2  0
  5 23  1  0
  6 24  1  0
 10 25  1  0
 10 26  1  0
 11 27  1  0
 11 28  1  0
 12 29  1  0
 12 30  1  0
 13 31  1  0
 13 32  1  0
 14 33  1  0
 15 34  1  0
 16 35  1  0
 16 36  1  0
 16 37  1  0
 17 38  1  0
 18 39  1  0
 19 40  1  0
 20 41  1  0
 21 42  1  0
 22 43  1  0
M  END
$$$$
