
     RDKit          3D

 43 46  0  0  0  0  0  0  0  0999 V2000
   -0.4652   -0.0879   -0.2698 C   0  0  0  0  0  0  0  0  0  0  0  0
   -0.9707   -1.4418   -0.5593 C   0  0  0  0  0  0  0  0  0  0  0  0
   -1.4827    0.9752   -0.3336 C   0  0  0  0  0  0  0  0  0  0  0  0
    0.8187    0.1413    0.1066 C   0  0  0  0  0  0  0  0  0  0  0  0
   -2.4834   -1.3638    1.4855 C   0  0  0  0  0  0  0  0  0  0  0  0
   -2.7513   -0.0540    1.6105 C   0  0  0  0  0  0  0  0  0  0  0  0
    3.6387    0.6394    0.1220 N   0  0  0  0  0  0  0  0  0  0  0  0
   -2.5806    0.9731    0.5552 C   0  0  0  0  0  0  0  0  0  0  0  0
   -1.9512   -2.0322    0.2711 C   0  0  0  0  0  0  0  0  0  0  0  0
    1.2842    1.4947    0.6012 C   0  0  0  0  0  0  0  0  0  0  0  0
    1.8079   -1.0015    0.2386 C   0  0  0  0  0  0  0  0  0  0  0  0
    2.7142    1.8058    0.1147 C   0  0  0  0  0  0  0  0  0  0  0  0
    3.1227   -0.5286    0.8665 C   0  0  0  0  0  0  0  0  0  0  0  0
   -0.5066   -2.1321   -1.6922 C   0  0  0  0  0  0  0  0  0  0  0  0
   -1.3936    1.9615   -1.3295 C   0  0  0  0  0  0  0  0  0  0  0  0
    4.9820    1.0182    0.6106 C   0  0  0  0  0  0  0  0  0  0  0  0
   -3.5270    2.0120    0.4795 C   0  0  0  0  0  0  0  0  0  0  0  0
   -2.3903   -3.3375   -0.0146 C   0  0  0  0  0  0  0  0  0  0  0  0
   -2.3504    2.9746   -1.4070 C   0  0  0  0  0  0  0  0  0  0  0  0
   -0.9672   -3.4205   -1.9732 C   0  0  0  0  0  0  0  0  0  0  0  0
   -3.4146    3.0033   -0.4990 C   0  0  0  0  0  0  0  0  0  0  0  0
   -1.9030   -4.0251   -1.1318 C   0  0  0  0  0  0  0  0  0  0  0  0
   -2.7678   -2.0043    2.3111 H   0  0  0  0  0  0  0  0  0  0  0  0
   -3.2331    0.2613    2.5270 H   0  0  0  0  0  0  0  0  0  0  0  0
    1.2754    1.4762    1.7158 H   0  0  0  0  0  0  0  0  0  0  0  0
    0.6262    2.3302    0.2905 H   0  0  0  0  0  0  0  0  0  0  0  0
    1.3806   -1.8142    0.8684 H   0  0  0  0  0  0  0  0  0  0  0  0
    2.0292   -1.4080   -0.7728 H   0  0  0  0  0  0  0  0  0  0  0  0
    2.6496    2.1719   -0.9327 H   0  0  0  0  0  0  0  0  0  0  0  0
    3.1033    2.6526    0.7274 H   0  0  0  0  0  0  0  0  0  0  0  0
    3.8499   -1.3690    0.8137 H   0  0  0  0  0  0  0  0  0  0  0  0
    2.9672   -0.2754    1.9433 H   0  0  0  0  0  0  0  0  0  0  0  0
    0.2093   -1.6703   -2.3592 H   0  0  0  0  0  0  0  0  0  0  0  0
   -0.5743    1.9489   -2.0397 H   0  0  0  0  0  0  0  0  0  0  0  0
    5.6896    0.1681    0.4894 H   0  0  0  0  0  0  0  0  0  0  0  0
    4.9476    1.3139    1.6841 H   0  0  0  0  0  0  0  0  0  0  0  0
    5.3817    1.8678    0.0114 H   0  0  0  0  0  0  0  0  0  0  0  0
   -4.3658    2.0463    1.1679 H   0  0  0  0  0  0  0  0  0  0  0  0
   -3.1225   -3.8223    0.6223 H   0  0  0  0  0  0  0  0  0  0  0  0
   -2.2678    3.7386   -2.1708 H   0  0  0  0  0  0  0  0  0  0  0  0
   -0.5984   -3.9500   -2.8425 H   0  0  0  0  0  0  0  0  0  0  0  0
   -4.1552    3.7908   -0.5587 H   0  0  0  0  0  0  0  0  0  0  0  0
   -2.2552   -5.0272   -1.3482 H   0  0  0  0  0  0  0  0  0  0  0  0
  2  1  1  0
  3  1  1  0
  4  1  2  3
  5  9  1  0
  6  8  1  0
  7 13  1  0
  8  3  2  0
  9  2  2  0
 10  4  1  0
 11  4  1  0
 12 10  1  0
 13 11  1  0
 14  2  1  0
 15  3  1  0
 16  7  1  0
 17  8  1  0
 18  9  1  0
 19 15  2  0
 20 14  2  0
 21 19  1  0
 22 20  1  0
  7 12  1  0
  6  5  2  0
 21 17  2  0
 22 18  2  0
  5 23  1  0
  6 24  1  0
 10 25  1  0
 10 26  1  0
 11 27  1  0
 11 28  1  0
 12 29  1  0
 12 30  1  0
 13 31  1  0
 13 32  1  0
 14 33  1  0
 15 34  1  0
 16 35  1  0
 16 36  1  0
 16 37  1  0
 17 38  1  0
 18 39  1  0
 19 40  1  0
 20 41  1  0
 21 42  1  0
 22 43  1  0
M  END
$$$$
