
     RDKit          3D

 43 46  0  0  0  0  0  0  0  0999 V2000
    0.5398    0.0203    0.3466 C   0  0  0  0  0  0  0  0  0  0  0  0
    1.4135    1.1766    0.0773 C   0  0  0  0  0  0  0  0  0  0  0  0
    1.2453   -1.2670    0.4807 C   0  0  0  0  0  0  0  0  0  0  0  0
   -0.8175    0.1243    0.4107 C   0  0  0  0  0  0  0  0  0  0  0  0
    2.1341    0.1808   -2.1483 C   0  0  0  0  0  0  0  0  0  0  0  0
    2.0429   -1.1412   -1.9302 C   0  0  0  0  0  0  0  0  0  0  0  0
   -3.6864    0.3052    0.3112 N   0  0  0  0  0  0  0  0  0  0  0  0
    1.9734   -1.8032   -0.6039 C   0  0  0  0  0  0  0  0  0  0  0  0
    2.1830    1.2351   -1.1052 C   0  0  0  0  0  0  0  0  0  0  0  0
   -1.5107    1.4733    0.3288 C   0  0  0  0  0  0  0  0  0  0  0  0
   -1.6860   -1.0750    0.7493 C   0  0  0  0  0  0  0  0  0  0  0  0
   -2.8894    1.3674   -0.3271 C   0  0  0  0  0  0  0  0  0  0  0  0
   -3.0523   -1.0016    0.0639 C   0  0  0  0  0  0  0  0  0  0  0  0
    1.5082    2.2112    1.0238 C   0  0  0  0  0  0  0  0  0  0  0  0
    1.2217   -1.9474    1.7103 C   0  0  0  0  0  0  0  0  0  0  0  0
   -5.0520    0.3087   -0.2361 C   0  0  0  0  0  0  0  0  0  0  0  0
    2.6020   -3.0509   -0.4527 C   0  0  0  0  0  0  0  0  0  0  0  0
    2.9765    2.3695   -1.3469 C   0  0  0  0  0  0  0  0  0  0  0  0
    1.8718   -3.1743    1.8500 C   0  0  0  0  0  0  0  0  0  0  0  0
    2.3200    3.3195    0.7785 C   0  0  0  0  0  0  0  0  0  0  0  0
    2.5547   -3.7290    0.7677 C   0  0  0  0  0  0  0  0  0  0  0  0
    3.0476    3.4019   -0.4087 C   0  0  0  0  0  0  0  0  0  0  0  0
    2.2846    0.4979   -3.1739 H   0  0  0  0  0  0  0  0  0  0  0  0
    2.1271   -1.7868   -2.7969 H   0  0  0  0  0  0  0  0  0  0  0  0
   -0.9246    2.2027   -0.2689 H   0  0  0  0  0  0  0  0  0  0  0  0
   -1.6239    1.8767    1.3580 H   0  0  0  0  0  0  0  0  0  0  0  0
   -1.8292   -1.1093    1.8508 H   0  0  0  0  0  0  0  0  0  0  0  0
   -1.2156   -2.0284    0.4291 H   0  0  0  0  0  0  0  0  0  0  0  0
   -2.7694    1.1762   -1.4189 H   0  0  0  0  0  0  0  0  0  0  0  0
   -3.3991    2.3496   -0.2088 H   0  0  0  0  0  0  0  0  0  0  0  0
   -3.6856   -1.8172    0.4789 H   0  0  0  0  0  0  0  0  0  0  0  0
   -2.9320   -1.1875   -1.0289 H   0  0  0  0  0  0  0  0  0  0  0  0
    0.9474    2.1601    1.9491 H   0  0  0  0  0  0  0  0  0  0  0  0
    0.6935   -1.5285    2.5581 H   0  0  0  0  0  0  0  0  0  0  0  0
   -5.6644   -0.4757    0.2586 H   0  0  0  0  0  0  0  0  0  0  0  0
   -5.5438    1.2839   -0.0309 H   0  0  0  0  0  0  0  0  0  0  0  0
   -5.0493    0.1279   -1.3346 H   0  0  0  0  0  0  0  0  0  0  0  0
    3.1427   -3.4958   -1.2794 H   0  0  0  0  0  0  0  0  0  0  0  0
    3.5538    2.4499   -2.2603 H   0  0  0  0  0  0  0  0  0  0  0  0
    1.8426   -3.6975    2.7971 H   0  0  0  0  0  0  0  0  0  0  0  0
    2.3822    4.1168    1.5077 H   0  0  0  0  0  0  0  0  0  0  0  0
    3.0520   -4.6843    0.8751 H   0  0  0  0  0  0  0  0  0  0  0  0
    3.6711    4.2654   -0.6012 H   0  0  0  0  0  0  0  0  0  0  0  0
  2  1  1  0
  3  1  1  0
  4  1  2  3
  5  9  1  0
  6  8  1  0
  7 13  1  0
  8  3  2  0
  9  2  2  0
 10  4  1  0
 11  4  1  0
 12 10  1  0
 13 11  1  0
 14  2  1  0
 15  3  1  0
 16  7  1  0
 17  8  1  0
 18  9  1  0
 19 15  2  0
 20 14  2  0
 21 19  1  0
 22 20  1  0
  7 12  1  0
  6  5  2  0
 21 17  2  0
 22 18  2  0
  5 23  1  0
  6 24  1  0
 10 25  1  0
 10 26  1  0
 11 27  1  0
 11 28  1  0
 12 29  1  0
 12 30  1  0
 13 31  1  0
 13 32  1  0
 14 33  1  0
 15 34  1  0
 16 35  1  0
 16 36  1  0
 16 37  1  0
 17 38  1  0
 18 39  1  0
 19 40  1  0
 20 41  1  0
 21 42  1  0
 22 43  1  0
M  END
$$$$
