
     RDKit          3D

 51 55  0  0  0  0  0  0  0  0999 V2000
   45.6196    3.3153   12.4709 O   0  0  0  0  0  0  0  0  0  0  0  0
   44.2694    3.2225   11.9934 C   0  0  0  0  0  0  0  0  0  0  0  0
   43.5986    4.4786   11.8306 O   0  0  0  0  0  0  0  0  0  0  0  0
   44.5914    5.3259   12.2075 C   0  0  0  0  0  0  0  0  0  0  0  0
   45.7404    4.6656   12.5729 C   0  0  0  0  0  0  0  0  0  0  0  0
   44.2779    2.5797   10.7994 F   0  0  0  0  0  0  0  0  0  0  0  0
   43.5596    2.4622   12.8626 F   0  0  0  0  0  0  0  0  0  0  0  0
   46.8677    5.3404   12.9966 C   0  0  0  0  0  0  0  0  0  0  0  0
   44.5081    6.6983   12.2447 C   0  0  0  0  0  0  0  0  0  0  0  0
   45.6396    7.4033   12.6684 C   0  0  0  0  0  0  0  0  0  0  0  0
   46.8400    6.7476   13.0497 C   0  0  0  0  0  0  0  0  0  0  0  0
   48.0413    7.5635   13.5267 C   0  0  0  0  0  0  0  0  0  0  0  0
   48.7773    8.3812   12.4654 C   0  0  0  0  0  0  0  0  0  0  0  0
   49.4439    7.1817   13.0569 C   0  0  0  0  0  0  0  0  0  0  0  0
   47.9071    8.1874   14.9028 C   0  0  0  0  0  0  0  0  0  0  0  0
   47.5583    9.3548   14.9860 O   0  0  0  0  0  0  0  0  0  0  0  0
   48.1821    7.2934   15.9116 N   0  0  0  0  0  0  0  0  0  0  0  0
   48.1686    7.5854   17.2791 C   0  0  0  0  0  0  0  0  0  0  0  0
   47.9994    8.8434   17.7110 N   0  0  0  0  0  0  0  0  0  0  0  0
   48.3520    6.5268   18.1581 C   0  0  0  0  0  0  0  0  0  0  0  0
   48.3482    6.7773   19.5283 C   0  0  0  0  0  0  0  0  0  0  0  0
   48.1786    8.0818   19.9979 C   0  0  0  0  0  0  0  0  0  0  0  0
   47.9972    9.0900   19.0453 C   0  0  0  0  0  0  0  0  0  0  0  0
   48.1802    8.3526   21.4735 C   0  0  0  0  0  0  0  0  0  0  0  0
   47.8233   10.5073   19.3866 C   0  0  0  0  0  0  0  0  0  0  0  0
   46.5007   12.3259   20.3257 C   0  0  0  0  0  0  0  0  0  0  0  0
   46.6524   10.9745   20.0058 C   0  0  0  0  0  0  0  0  0  0  0  0
   48.8330   11.4347   19.0799 C   0  0  0  0  0  0  0  0  0  0  0  0
   48.6883   12.7905   19.4012 C   0  0  0  0  0  0  0  0  0  0  0  0
   47.5182   13.2332   20.0277 C   0  0  0  0  0  0  0  0  0  0  0  0
   49.8024   13.7117   19.0693 C   0  0  0  0  0  0  0  0  0  0  0  0
   49.5209   14.9978   19.3468 O   0  0  0  0  0  0  0  0  0  0  0  0
   50.8804   13.3910   18.6041 O   0  0  0  0  0  0  0  0  0  0  0  0
   47.7561    4.7851   13.2787 H   0  0  0  0  0  0  0  0  0  0  0  0
   43.5989    7.2185   11.9613 H   0  0  0  0  0  0  0  0  0  0  0  0
   45.5932    8.4930   12.7185 H   0  0  0  0  0  0  0  0  0  0  0  0
   48.4400    8.3219   11.4371 H   0  0  0  0  0  0  0  0  0  0  0  0
   49.1415    9.3661   12.7459 H   0  0  0  0  0  0  0  0  0  0  0  0
   49.5783    6.3210   12.4107 H   0  0  0  0  0  0  0  0  0  0  0  0
   50.2823    7.3622   13.7221 H   0  0  0  0  0  0  0  0  0  0  0  0
   48.3687    6.3410   15.6429 H   0  0  0  0  0  0  0  0  0  0  0  0
   48.4902    5.5125   17.8017 H   0  0  0  0  0  0  0  0  0  0  0  0
   48.4855    5.9526   20.2226 H   0  0  0  0  0  0  0  0  0  0  0  0
   48.5990    7.5066   22.0310 H   0  0  0  0  0  0  0  0  0  0  0  0
   48.7980    9.2242   21.7126 H   0  0  0  0  0  0  0  0  0  0  0  0
   47.1589    8.5191   21.8295 H   0  0  0  0  0  0  0  0  0  0  0  0
   45.5849   12.6717   20.7994 H   0  0  0  0  0  0  0  0  0  0  0  0
   45.8414   10.2825   20.2271 H   0  0  0  0  0  0  0  0  0  0  0  0
   49.7365   11.0913   18.5764 H   0  0  0  0  0  0  0  0  0  0  0  0
   47.3877   14.2822   20.2806 H   0  0  0  0  0  0  0  0  0  0  0  0
   50.3326   15.4731   19.0680 H   0  0  0  0  0  0  0  0  0  0  0  0
  1  2  1  0
  1  5  1  0
  2  3  1  0
  3  4  1  0
  2  6  1  0
  2  7  1  0
  8  5  1  0
  5  4  2  0
  4  9  1  0
  8 11  2  0
  9 10  2  0
 10 11  1  0
 11 12  1  0
 12 13  1  0
 13 14  1  0
 14 12  1  0
 12 15  1  0
 15 16  2  0
 15 17  1  0
 17 18  1  0
 19 18  2  0
 18 20  1  0
 19 23  1  0
 20 21  2  0
 21 22  1  0
 22 23  2  0
 22 24  1  0
 23 25  1  0
 27 25  1  0
 25 28  2  0
 26 27  2  0
 26 30  1  0
 28 29  1  0
 29 30  2  0
 29 31  1  0
 31 32  1  0
 31 33  2  0
  8 34  1  0
  9 35  1  0
 10 36  1  0
 13 37  1  0
 13 38  1  0
 14 39  1  0
 14 40  1  0
 17 41  1  0
 20 42  1  0
 21 43  1  0
 24 44  1  0
 24 45  1  0
 24 46  1  0
 26 47  1  0
 27 48  1  0
 28 49  1  0
 30 50  1  0
 32 51  1  0
M  END
> <Uni-Dock RESULT> 
ENERGY=   -5.678  LOWER_BOUND=    0.000  UPPER_BOUND=    0.000
INTER + INTRA:          -5.678
INTER:                  -5.678
INTRA:                   0.000
UNBOUND:                 0.000

$$$$

     RDKit          3D

 51 55  0  0  0  0  0  0  0  0999 V2000
   44.9626    5.1448   12.4429 O   0  0  0  0  0  0  0  0  0  0  0  0
   43.7498    5.4859   11.7557 C   0  0  0  0  0  0  0  0  0  0  0  0
   43.5648    6.8867   11.5159 O   0  0  0  0  0  0  0  0  0  0  0  0
   44.7094    7.3721   12.0634 C   0  0  0  0  0  0  0  0  0  0  0  0
   45.5043    6.3829   12.5918 C   0  0  0  0  0  0  0  0  0  0  0  0
   43.7326    4.8379   10.5647 F   0  0  0  0  0  0  0  0  0  0  0  0
   42.7022    5.0296   12.4850 F   0  0  0  0  0  0  0  0  0  0  0  0
   46.7100    6.6628   13.2031 C   0  0  0  0  0  0  0  0  0  0  0  0
   45.0785    8.6961   12.1164 C   0  0  0  0  0  0  0  0  0  0  0  0
   46.2980    9.0032   12.7290 C   0  0  0  0  0  0  0  0  0  0  0  0
   47.1398    8.0018   13.2814 C   0  0  0  0  0  0  0  0  0  0  0  0
   48.4525    8.3923   13.9600 C   0  0  0  0  0  0  0  0  0  0  0  0
   49.5734    8.8879   13.0465 C   0  0  0  0  0  0  0  0  0  0  0  0
   49.7061    7.5557   13.7101 C   0  0  0  0  0  0  0  0  0  0  0  0
   48.3179    9.0695   15.3106 C   0  0  0  0  0  0  0  0  0  0  0  0
   48.3650   10.2887   15.3626 O   0  0  0  0  0  0  0  0  0  0  0  0
   48.1213    8.1677   16.3307 N   0  0  0  0  0  0  0  0  0  0  0  0
   47.9910    8.4917   17.6849 C   0  0  0  0  0  0  0  0  0  0  0  0
   48.1806    9.7486   18.1115 N   0  0  0  0  0  0  0  0  0  0  0  0
   47.6752    7.4606   18.5588 C   0  0  0  0  0  0  0  0  0  0  0  0
   47.5398    7.7423   19.9162 C   0  0  0  0  0  0  0  0  0  0  0  0
   47.7384    9.0444   20.3809 C   0  0  0  0  0  0  0  0  0  0  0  0
   48.0509   10.0250   19.4336 C   0  0  0  0  0  0  0  0  0  0  0  0
   47.5982    9.3469   21.8437 C   0  0  0  0  0  0  0  0  0  0  0  0
   48.3028   11.4309   19.7735 C   0  0  0  0  0  0  0  0  0  0  0  0
   47.5240   13.6125   20.5302 C   0  0  0  0  0  0  0  0  0  0  0  0
   47.2698   12.2768   20.2093 C   0  0  0  0  0  0  0  0  0  0  0  0
   49.5966   11.9643   19.6505 C   0  0  0  0  0  0  0  0  0  0  0  0
   49.8586   13.3019   19.9740 C   0  0  0  0  0  0  0  0  0  0  0  0
   48.8170   14.1247   20.4167 C   0  0  0  0  0  0  0  0  0  0  0  0
   51.2514   13.7945   19.8426 C   0  0  0  0  0  0  0  0  0  0  0  0
   51.3699   15.1098   20.0996 O   0  0  0  0  0  0  0  0  0  0  0  0
   52.2222   13.1224   19.5471 O   0  0  0  0  0  0  0  0  0  0  0  0
   47.3099    5.8556   13.6102 H   0  0  0  0  0  0  0  0  0  0  0  0
   44.4478    9.4769   11.7040 H   0  0  0  0  0  0  0  0  0  0  0  0
   46.6062   10.0485   12.7946 H   0  0  0  0  0  0  0  0  0  0  0  0
   49.4009    8.9098   11.9767 H   0  0  0  0  0  0  0  0  0  0  0  0
   50.1933    9.7068   13.4022 H   0  0  0  0  0  0  0  0  0  0  0  0
   49.6486    6.6782   13.0750 H   0  0  0  0  0  0  0  0  0  0  0  0
   50.4420    7.4717   14.5034 H   0  0  0  0  0  0  0  0  0  0  0  0
   48.0232    7.1988   16.0745 H   0  0  0  0  0  0  0  0  0  0  0  0
   47.5252    6.4462   18.2070 H   0  0  0  0  0  0  0  0  0  0  0  0
   47.2870    6.9411   20.6056 H   0  0  0  0  0  0  0  0  0  0  0  0
   47.6219    8.4287   22.4421 H   0  0  0  0  0  0  0  0  0  0  0  0
   48.4233    9.9742   22.1962 H   0  0  0  0  0  0  0  0  0  0  0  0
   46.6465    9.8513   22.0370 H   0  0  0  0  0  0  0  0  0  0  0  0
   46.7112   14.2552   20.8603 H   0  0  0  0  0  0  0  0  0  0  0  0
   46.2520   11.8973   20.2845 H   0  0  0  0  0  0  0  0  0  0  0  0
   50.4034   11.3270   19.2891 H   0  0  0  0  0  0  0  0  0  0  0  0
   49.0018   15.1659   20.6682 H   0  0  0  0  0  0  0  0  0  0  0  0
   52.3260   15.2826   19.9632 H   0  0  0  0  0  0  0  0  0  0  0  0
  1  2  1  0
  1  5  1  0
  2  3  1  0
  3  4  1  0
  2  6  1  0
  2  7  1  0
  8  5  1  0
  5  4  2  0
  4  9  1  0
  8 11  2  0
  9 10  2  0
 10 11  1  0
 11 12  1  0
 12 13  1  0
 13 14  1  0
 14 12  1  0
 12 15  1  0
 15 16  2  0
 15 17  1  0
 17 18  1  0
 19 18  2  0
 18 20  1  0
 19 23  1  0
 20 21  2  0
 21 22  1  0
 22 23  2  0
 22 24  1  0
 23 25  1  0
 27 25  1  0
 25 28  2  0
 26 27  2  0
 26 30  1  0
 28 29  1  0
 29 30  2  0
 29 31  1  0
 31 32  1  0
 31 33  2  0
  8 34  1  0
  9 35  1  0
 10 36  1  0
 13 37  1  0
 13 38  1  0
 14 39  1  0
 14 40  1  0
 17 41  1  0
 20 42  1  0
 21 43  1  0
 24 44  1  0
 24 45  1  0
 24 46  1  0
 26 47  1  0
 27 48  1  0
 28 49  1  0
 30 50  1  0
 32 51  1  0
M  END
> <Uni-Dock RESULT> 
ENERGY=   -5.585  LOWER_BOUND=    1.355  UPPER_BOUND=    1.587
INTER + INTRA:          -5.585
INTER:                  -5.585
INTRA:                   0.000
UNBOUND:                 0.000

$$$$

     RDKit          3D

 51 55  0  0  0  0  0  0  0  0999 V2000
   44.1772   10.7859   11.9871 O   0  0  0  0  0  0  0  0  0  0  0  0
   43.0476   10.3763   11.2023 C   0  0  0  0  0  0  0  0  0  0  0  0
   43.0664    9.0049   10.7864 O   0  0  0  0  0  0  0  0  0  0  0  0
   44.2302    8.6014   11.3592 C   0  0  0  0  0  0  0  0  0  0  0  0
   44.8632    9.6134   12.0411 C   0  0  0  0  0  0  0  0  0  0  0  0
   41.9202   10.5933   11.9240 F   0  0  0  0  0  0  0  0  0  0  0  0
   42.9853   11.1622   10.0997 F   0  0  0  0  0  0  0  0  0  0  0  0
   46.0657    9.4167   12.6899 C   0  0  0  0  0  0  0  0  0  0  0  0
   44.7654    7.3362   11.2907 C   0  0  0  0  0  0  0  0  0  0  0  0
   45.9824    7.1129   11.9433 C   0  0  0  0  0  0  0  0  0  0  0  0
   46.6572    8.1389   12.6565 C   0  0  0  0  0  0  0  0  0  0  0  0
   47.9963    7.8486   13.3338 C   0  0  0  0  0  0  0  0  0  0  0  0
   47.9558    6.9569   14.5746 C   0  0  0  0  0  0  0  0  0  0  0  0
   48.2709    8.4095   14.7280 C   0  0  0  0  0  0  0  0  0  0  0  0
   49.1800    7.6739   12.4014 C   0  0  0  0  0  0  0  0  0  0  0  0
   49.5200    6.5427   12.0910 O   0  0  0  0  0  0  0  0  0  0  0  0
   49.7078    8.8774   11.9948 N   0  0  0  0  0  0  0  0  0  0  0  0
   50.8177    9.0345   11.1587 C   0  0  0  0  0  0  0  0  0  0  0  0
   51.5480    7.9754   10.7808 N   0  0  0  0  0  0  0  0  0  0  0  0
   51.1339   10.3246   10.7556 C   0  0  0  0  0  0  0  0  0  0  0  0
   52.2343   10.5229    9.9250 C   0  0  0  0  0  0  0  0  0  0  0  0
   53.0106    9.4329    9.5245 C   0  0  0  0  0  0  0  0  0  0  0  0
   52.6214    8.1664    9.9731 C   0  0  0  0  0  0  0  0  0  0  0  0
   54.1992    9.6471    8.6345 C   0  0  0  0  0  0  0  0  0  0  0  0
   53.3472    6.9321    9.6486 C   0  0  0  0  0  0  0  0  0  0  0  0
   54.0395    5.2239    8.0545 C   0  0  0  0  0  0  0  0  0  0  0  0
   53.3438    6.3990    8.3493 C   0  0  0  0  0  0  0  0  0  0  0  0
   54.0530    6.2459   10.6509 C   0  0  0  0  0  0  0  0  0  0  0  0
   54.7555    5.0691   10.3609 C   0  0  0  0  0  0  0  0  0  0  0  0
   54.7479    4.5608    9.0573 C   0  0  0  0  0  0  0  0  0  0  0  0
   55.4979    4.4073   11.4613 C   0  0  0  0  0  0  0  0  0  0  0  0
   56.0648    3.2456   11.0881 O   0  0  0  0  0  0  0  0  0  0  0  0
   55.6218    4.8308   12.5956 O   0  0  0  0  0  0  0  0  0  0  0  0
   46.5367   10.2400   13.2167 H   0  0  0  0  0  0  0  0  0  0  0  0
   44.2678    6.5394   10.7476 H   0  0  0  0  0  0  0  0  0  0  0  0
   46.4333    6.1199   11.8921 H   0  0  0  0  0  0  0  0  0  0  0  0
   46.9947    6.6034   14.9297 H   0  0  0  0  0  0  0  0  0  0  0  0
   48.7587    6.2367   14.7085 H   0  0  0  0  0  0  0  0  0  0  0  0
   47.5252    9.0293   15.2142 H   0  0  0  0  0  0  0  0  0  0  0  0
   49.2914    8.6668   14.9934 H   0  0  0  0  0  0  0  0  0  0  0  0
   49.2298    9.7124   12.2922 H   0  0  0  0  0  0  0  0  0  0  0  0
   50.5400   11.1764   11.0668 H   0  0  0  0  0  0  0  0  0  0  0  0
   52.4844   11.5295    9.6007 H   0  0  0  0  0  0  0  0  0  0  0  0
   54.4958   10.7023    8.6166 H   0  0  0  0  0  0  0  0  0  0  0  0
   55.0658    9.0823    8.9933 H   0  0  0  0  0  0  0  0  0  0  0  0
   53.9645    9.3450    7.6093 H   0  0  0  0  0  0  0  0  0  0  0  0
   54.0212    4.8216    7.0443 H   0  0  0  0  0  0  0  0  0  0  0  0
   52.7799    6.8940    7.5602 H   0  0  0  0  0  0  0  0  0  0  0  0
   54.0438    6.6335   11.6694 H   0  0  0  0  0  0  0  0  0  0  0  0
   55.2843    3.6469    8.8156 H   0  0  0  0  0  0  0  0  0  0  0  0
   56.4997    2.9311   11.9094 H   0  0  0  0  0  0  0  0  0  0  0  0
  1  2  1  0
  1  5  1  0
  2  3  1  0
  3  4  1  0
  2  6  1  0
  2  7  1  0
  8  5  1  0
  5  4  2  0
  4  9  1  0
  8 11  2  0
  9 10  2  0
 10 11  1  0
 11 12  1  0
 12 13  1  0
 13 14  1  0
 14 12  1  0
 12 15  1  0
 15 16  2  0
 15 17  1  0
 17 18  1  0
 19 18  2  0
 18 20  1  0
 19 23  1  0
 20 21  2  0
 21 22  1  0
 22 23  2  0
 22 24  1  0
 23 25  1  0
 27 25  1  0
 25 28  2  0
 26 27  2  0
 26 30  1  0
 28 29  1  0
 29 30  2  0
 29 31  1  0
 31 32  1  0
 31 33  2  0
  8 34  1  0
  9 35  1  0
 10 36  1  0
 13 37  1  0
 13 38  1  0
 14 39  1  0
 14 40  1  0
 17 41  1  0
 20 42  1  0
 21 43  1  0
 24 44  1  0
 24 45  1  0
 24 46  1  0
 26 47  1  0
 27 48  1  0
 28 49  1  0
 30 50  1  0
 32 51  1  0
M  END
> <Uni-Dock RESULT> 
ENERGY=   -5.491  LOWER_BOUND=    5.292  UPPER_BOUND=    9.315
INTER + INTRA:          -5.491
INTER:                  -5.491
INTRA:                   0.000
UNBOUND:                 0.000

$$$$

     RDKit          3D

 51 55  0  0  0  0  0  0  0  0999 V2000
   51.1548   10.0382   22.2446 O   0  0  0  0  0  0  0  0  0  0  0  0
   50.5193   11.1361   22.9158 C   0  0  0  0  0  0  0  0  0  0  0  0
   49.0887   11.1506   22.8293 O   0  0  0  0  0  0  0  0  0  0  0  0
   48.8857   10.0210   22.1024 C   0  0  0  0  0  0  0  0  0  0  0  0
   50.0596    9.3884   21.7685 C   0  0  0  0  0  0  0  0  0  0  0  0
   50.8724   11.1035   24.2246 F   0  0  0  0  0  0  0  0  0  0  0  0
   50.9963   12.2916   22.3918 F   0  0  0  0  0  0  0  0  0  0  0  0
   50.0771    8.2260   21.0241 C   0  0  0  0  0  0  0  0  0  0  0  0
   47.6645    9.5237   21.7110 C   0  0  0  0  0  0  0  0  0  0  0  0
   47.6578    8.3449   20.9580 C   0  0  0  0  0  0  0  0  0  0  0  0
   48.8546    7.6695   20.6003 C   0  0  0  0  0  0  0  0  0  0  0  0
   48.7938    6.3962   19.7569 C   0  0  0  0  0  0  0  0  0  0  0  0
   48.2460    5.1459   20.4449 C   0  0  0  0  0  0  0  0  0  0  0  0
   49.7001    5.2176   20.1083 C   0  0  0  0  0  0  0  0  0  0  0  0
   48.4300    6.5916   18.2974 C   0  0  0  0  0  0  0  0  0  0  0  0
   47.2698    6.4238   17.9547 O   0  0  0  0  0  0  0  0  0  0  0  0
   49.5085    6.9795   17.5367 N   0  0  0  0  0  0  0  0  0  0  0  0
   49.4872    7.2076   16.1571 C   0  0  0  0  0  0  0  0  0  0  0  0
   48.3934    6.9315   15.4324 N   0  0  0  0  0  0  0  0  0  0  0  0
   50.6428    7.7126   15.5772 C   0  0  0  0  0  0  0  0  0  0  0  0
   50.6624    7.9504   14.2049 C   0  0  0  0  0  0  0  0  0  0  0  0
   49.5347    7.6644   13.4319 C   0  0  0  0  0  0  0  0  0  0  0  0
   48.4109    7.1607   14.0951 C   0  0  0  0  0  0  0  0  0  0  0  0
   49.5576    7.9151   11.9529 C   0  0  0  0  0  0  0  0  0  0  0  0
   47.1612    6.7991   13.4147 C   0  0  0  0  0  0  0  0  0  0  0  0
   45.1296    7.4181   12.2198 C   0  0  0  0  0  0  0  0  0  0  0  0
   46.3154    7.7766   12.8653 C   0  0  0  0  0  0  0  0  0  0  0  0
   46.7778    5.4511   13.3155 C   0  0  0  0  0  0  0  0  0  0  0  0
   45.5916    5.0850   12.6663 C   0  0  0  0  0  0  0  0  0  0  0  0
   44.7687    6.0740   12.1165 C   0  0  0  0  0  0  0  0  0  0  0  0
   45.2582    3.6425   12.5779 C   0  0  0  0  0  0  0  0  0  0  0  0
   44.0606    3.4141   12.0087 O   0  0  0  0  0  0  0  0  0  0  0  0
   45.9602    2.7223   12.9545 O   0  0  0  0  0  0  0  0  0  0  0  0
   51.0235    7.7557   20.7783 H   0  0  0  0  0  0  0  0  0  0  0  0
   46.7386   10.0267   21.9704 H   0  0  0  0  0  0  0  0  0  0  0  0
   46.7010    7.9379   20.6248 H   0  0  0  0  0  0  0  0  0  0  0  0
   47.9605    5.2097   21.4885 H   0  0  0  0  0  0  0  0  0  0  0  0
   47.6124    4.4824   19.8621 H   0  0  0  0  0  0  0  0  0  0  0  0
   50.3963    5.3032   20.9357 H   0  0  0  0  0  0  0  0  0  0  0  0
   50.0525    4.5756   19.3072 H   0  0  0  0  0  0  0  0  0  0  0  0
   50.3741    7.1519   18.0216 H   0  0  0  0  0  0  0  0  0  0  0  0
   51.5241    7.9316   16.1692 H   0  0  0  0  0  0  0  0  0  0  0  0
   51.5617    8.3511   13.7448 H   0  0  0  0  0  0  0  0  0  0  0  0
   50.5835    8.0454   11.5890 H   0  0  0  0  0  0  0  0  0  0  0  0
   49.1338    7.0681   11.4040 H   0  0  0  0  0  0  0  0  0  0  0  0
   48.9967    8.8238   11.7137 H   0  0  0  0  0  0  0  0  0  0  0  0
   44.4833    8.1883   11.8054 H   0  0  0  0  0  0  0  0  0  0  0  0
   46.5733    8.8307   12.9547 H   0  0  0  0  0  0  0  0  0  0  0  0
   47.4110    4.6832   13.7593 H   0  0  0  0  0  0  0  0  0  0  0  0
   43.8430    5.8080   11.6128 H   0  0  0  0  0  0  0  0  0  0  0  0
   43.9809    2.4366   12.0320 H   0  0  0  0  0  0  0  0  0  0  0  0
  1  2  1  0
  1  5  1  0
  2  3  1  0
  3  4  1  0
  2  6  1  0
  2  7  1  0
  8  5  1  0
  5  4  2  0
  4  9  1  0
  8 11  2  0
  9 10  2  0
 10 11  1  0
 11 12  1  0
 12 13  1  0
 13 14  1  0
 14 12  1  0
 12 15  1  0
 15 16  2  0
 15 17  1  0
 17 18  1  0
 19 18  2  0
 18 20  1  0
 19 23  1  0
 20 21  2  0
 21 22  1  0
 22 23  2  0
 22 24  1  0
 23 25  1  0
 27 25  1  0
 25 28  2  0
 26 27  2  0
 26 30  1  0
 28 29  1  0
 29 30  2  0
 29 31  1  0
 31 32  1  0
 31 33  2  0
  8 34  1  0
  9 35  1  0
 10 36  1  0
 13 37  1  0
 13 38  1  0
 14 39  1  0
 14 40  1  0
 17 41  1  0
 20 42  1  0
 21 43  1  0
 24 44  1  0
 24 45  1  0
 24 46  1  0
 26 47  1  0
 27 48  1  0
 28 49  1  0
 30 50  1  0
 32 51  1  0
M  END
> <Uni-Dock RESULT> 
ENERGY=   -4.741  LOWER_BOUND=    4.600  UPPER_BOUND=    9.867
INTER + INTRA:          -4.741
INTER:                  -4.741
INTRA:                   0.000
UNBOUND:                 0.000

$$$$

     RDKit          3D

 51 55  0  0  0  0  0  0  0  0999 V2000
   50.2555   13.4843   21.0733 O   0  0  0  0  0  0  0  0  0  0  0  0
   49.4521   14.6585   21.2613 C   0  0  0  0  0  0  0  0  0  0  0  0
   48.0543   14.4825   20.9981 O   0  0  0  0  0  0  0  0  0  0  0  0
   48.0418   13.1657   20.6645 C   0  0  0  0  0  0  0  0  0  0  0  0
   49.2929   12.5974   20.7058 C   0  0  0  0  0  0  0  0  0  0  0  0
   49.6006   15.0819   22.5409 F   0  0  0  0  0  0  0  0  0  0  0  0
   49.9258   15.6352   20.4494 F   0  0  0  0  0  0  0  0  0  0  0  0
   49.5027   11.2691   20.3940 C   0  0  0  0  0  0  0  0  0  0  0  0
   46.9316   12.4349   20.3104 C   0  0  0  0  0  0  0  0  0  0  0  0
   47.1200   11.0857   19.9929 C   0  0  0  0  0  0  0  0  0  0  0  0
   48.4002   10.4722   20.0289 C   0  0  0  0  0  0  0  0  0  0  0  0
   48.5556    8.9993   19.6512 C   0  0  0  0  0  0  0  0  0  0  0  0
   47.9932    7.9772   20.6389 C   0  0  0  0  0  0  0  0  0  0  0  0
   49.4738    8.1032   20.4806 C   0  0  0  0  0  0  0  0  0  0  0  0
   48.4088    8.6804   18.1755 C   0  0  0  0  0  0  0  0  0  0  0  0
   47.3293    8.2823   17.7661 O   0  0  0  0  0  0  0  0  0  0  0  0
   49.5634    8.9275   17.4695 N   0  0  0  0  0  0  0  0  0  0  0  0
   49.7397    8.7036   16.1004 C   0  0  0  0  0  0  0  0  0  0  0  0
   48.7917    8.0902   15.3773 N   0  0  0  0  0  0  0  0  0  0  0  0
   50.9345    9.1269   15.5346 C   0  0  0  0  0  0  0  0  0  0  0  0
   51.1494    8.9190   14.1742 C   0  0  0  0  0  0  0  0  0  0  0  0
   50.1761    8.2772   13.4049 C   0  0  0  0  0  0  0  0  0  0  0  0
   48.9997    7.8851   14.0522 C   0  0  0  0  0  0  0  0  0  0  0  0
   50.4099    8.0482   11.9408 C   0  0  0  0  0  0  0  0  0  0  0  0
   47.8970    7.1875   13.3794 C   0  0  0  0  0  0  0  0  0  0  0  0
   46.0370    7.1621   11.8051 C   0  0  0  0  0  0  0  0  0  0  0  0
   47.0825    7.8384   12.4384 C   0  0  0  0  0  0  0  0  0  0  0  0
   47.6246    5.8430   13.6828 C   0  0  0  0  0  0  0  0  0  0  0  0
   46.5799    5.1583   13.0487 C   0  0  0  0  0  0  0  0  0  0  0  0
   45.7872    5.8226   12.1062 C   0  0  0  0  0  0  0  0  0  0  0  0
   46.3614    3.7339   13.3996 C   0  0  0  0  0  0  0  0  0  0  0  0
   45.2840    3.2029   12.7934 O   0  0  0  0  0  0  0  0  0  0  0  0
   47.0570    3.0659   14.1422 O   0  0  0  0  0  0  0  0  0  0  0  0
   50.5050   10.8558   20.4361 H   0  0  0  0  0  0  0  0  0  0  0  0
   45.9452   12.8857   20.2727 H   0  0  0  0  0  0  0  0  0  0  0  0
   46.2555   10.4884   19.6963 H   0  0  0  0  0  0  0  0  0  0  0  0
   47.5466    8.3349   21.5594 H   0  0  0  0  0  0  0  0  0  0  0  0
   47.5029    7.0960   20.2333 H   0  0  0  0  0  0  0  0  0  0  0  0
   50.0267    8.5245   21.3133 H   0  0  0  0  0  0  0  0  0  0  0  0
   49.9875    7.2851   19.9859 H   0  0  0  0  0  0  0  0  0  0  0  0
   50.3303    9.3415   17.9740 H   0  0  0  0  0  0  0  0  0  0  0  0
   51.6973    9.6204   16.1259 H   0  0  0  0  0  0  0  0  0  0  0  0
   52.0801    9.2529   13.7232 H   0  0  0  0  0  0  0  0  0  0  0  0
   51.4686    8.1721   11.6845 H   0  0  0  0  0  0  0  0  0  0  0  0
   50.1334    7.0286   11.6533 H   0  0  0  0  0  0  0  0  0  0  0  0
   49.8330    8.7647   11.3481 H   0  0  0  0  0  0  0  0  0  0  0  0
   45.4122    7.6831   11.0835 H   0  0  0  0  0  0  0  0  0  0  0  0
   47.2523    8.8888   12.2070 H   0  0  0  0  0  0  0  0  0  0  0  0
   48.2318    5.3320   14.4297 H   0  0  0  0  0  0  0  0  0  0  0  0
   44.9702    5.3077   11.6076 H   0  0  0  0  0  0  0  0  0  0  0  0
   45.2672    2.2805   13.1272 H   0  0  0  0  0  0  0  0  0  0  0  0
  1  2  1  0
  1  5  1  0
  2  3  1  0
  3  4  1  0
  2  6  1  0
  2  7  1  0
  8  5  1  0
  5  4  2  0
  4  9  1  0
  8 11  2  0
  9 10  2  0
 10 11  1  0
 11 12  1  0
 12 13  1  0
 13 14  1  0
 14 12  1  0
 12 15  1  0
 15 16  2  0
 15 17  1  0
 17 18  1  0
 19 18  2  0
 18 20  1  0
 19 23  1  0
 20 21  2  0
 21 22  1  0
 22 23  2  0
 22 24  1  0
 23 25  1  0
 27 25  1  0
 25 28  2  0
 26 27  2  0
 26 30  1  0
 28 29  1  0
 29 30  2  0
 29 31  1  0
 31 32  1  0
 31 33  2  0
  8 34  1  0
  9 35  1  0
 10 36  1  0
 13 37  1  0
 13 38  1  0
 14 39  1  0
 14 40  1  0
 17 41  1  0
 20 42  1  0
 21 43  1  0
 24 44  1  0
 24 45  1  0
 24 46  1  0
 26 47  1  0
 27 48  1  0
 28 49  1  0
 30 50  1  0
 32 51  1  0
M  END
> <Uni-Dock RESULT> 
ENERGY=   -4.705  LOWER_BOUND=    4.412  UPPER_BOUND=    9.971
INTER + INTRA:          -4.705
INTER:                  -4.705
INTRA:                   0.000
UNBOUND:                 0.000

$$$$

     RDKit          3D

 51 55  0  0  0  0  0  0  0  0999 V2000
   46.2459    4.2672    7.1269 O   0  0  0  0  0  0  0  0  0  0  0  0
   46.2249    2.8769    6.7718 C   0  0  0  0  0  0  0  0  0  0  0  0
   45.8313    1.9899    7.8265 O   0  0  0  0  0  0  0  0  0  0  0  0
   45.6007    2.8904    8.8172 C   0  0  0  0  0  0  0  0  0  0  0  0
   45.8371    4.1853    8.4209 C   0  0  0  0  0  0  0  0  0  0  0  0
   45.3745    2.7114    5.7286 F   0  0  0  0  0  0  0  0  0  0  0  0
   47.4638    2.5246    6.3496 F   0  0  0  0  0  0  0  0  0  0  0  0
   45.6707    5.2539    9.2788 C   0  0  0  0  0  0  0  0  0  0  0  0
   45.1829    2.5941   10.0937 C   0  0  0  0  0  0  0  0  0  0  0  0
   45.0048    3.6618   10.9798 C   0  0  0  0  0  0  0  0  0  0  0  0
   45.2397    5.0089   10.5971 C   0  0  0  0  0  0  0  0  0  0  0  0
   45.0517    6.1378   11.6104 C   0  0  0  0  0  0  0  0  0  0  0  0
   43.6135    6.4609   12.0149 C   0  0  0  0  0  0  0  0  0  0  0  0
   44.3729    7.4348   11.1737 C   0  0  0  0  0  0  0  0  0  0  0  0
   46.1069    6.2284   12.6963 C   0  0  0  0  0  0  0  0  0  0  0  0
   45.8749    5.7221   13.7832 O   0  0  0  0  0  0  0  0  0  0  0  0
   47.2436    6.8744   12.2686 N   0  0  0  0  0  0  0  0  0  0  0  0
   48.3723    7.1333   13.0526 C   0  0  0  0  0  0  0  0  0  0  0  0
   48.3717    6.8656   14.3665 N   0  0  0  0  0  0  0  0  0  0  0  0
   49.4750    7.6881   12.4179 C   0  0  0  0  0  0  0  0  0  0  0  0
   50.6177    7.9636   13.1652 C   0  0  0  0  0  0  0  0  0  0  0  0
   50.6350    7.6968   14.5362 C   0  0  0  0  0  0  0  0  0  0  0  0
   49.4832    7.1349   15.0968 C   0  0  0  0  0  0  0  0  0  0  0  0
   51.8636    7.9988   15.3423 C   0  0  0  0  0  0  0  0  0  0  0  0
   49.3477    6.8154   16.5234 C   0  0  0  0  0  0  0  0  0  0  0  0
   49.9284    5.4690   18.4697 C   0  0  0  0  0  0  0  0  0  0  0  0
   50.0664    5.7613   17.1107 C   0  0  0  0  0  0  0  0  0  0  0  0
   48.4718    7.5592   17.3316 C   0  0  0  0  0  0  0  0  0  0  0  0
   48.3316    7.2732   18.6958 C   0  0  0  0  0  0  0  0  0  0  0  0
   49.0652    6.2256   19.2633 C   0  0  0  0  0  0  0  0  0  0  0  0
   47.4064    8.1122   19.4958 C   0  0  0  0  0  0  0  0  0  0  0  0
   47.2889    7.6963   20.7700 O   0  0  0  0  0  0  0  0  0  0  0  0
   46.8007    9.0892   19.0957 O   0  0  0  0  0  0  0  0  0  0  0  0
   45.8686    6.2623    8.9309 H   0  0  0  0  0  0  0  0  0  0  0  0
   45.0017    1.5711   10.4073 H   0  0  0  0  0  0  0  0  0  0  0  0
   44.6861    3.4503   12.0024 H   0  0  0  0  0  0  0  0  0  0  0  0
   42.8058    5.9071   11.5504 H   0  0  0  0  0  0  0  0  0  0  0  0
   43.4234    6.7139   13.0547 H   0  0  0  0  0  0  0  0  0  0  0  0
   44.0538    7.5539   10.1439 H   0  0  0  0  0  0  0  0  0  0  0  0
   44.6740    8.3642   11.6466 H   0  0  0  0  0  0  0  0  0  0  0  0
   47.2800    7.1468   11.2998 H   0  0  0  0  0  0  0  0  0  0  0  0
   49.4676    7.9037   11.3555 H   0  0  0  0  0  0  0  0  0  0  0  0
   51.4869    8.3928   12.6739 H   0  0  0  0  0  0  0  0  0  0  0  0
   52.5394    8.6692   14.7985 H   0  0  0  0  0  0  0  0  0  0  0  0
   51.6052    8.5037   16.2787 H   0  0  0  0  0  0  0  0  0  0  0  0
   52.4089    7.0759   15.5626 H   0  0  0  0  0  0  0  0  0  0  0  0
   50.4879    4.6453   18.9070 H   0  0  0  0  0  0  0  0  0  0  0  0
   50.7292    5.1494   16.5008 H   0  0  0  0  0  0  0  0  0  0  0  0
   47.8882    8.3638   16.8846 H   0  0  0  0  0  0  0  0  0  0  0  0
   48.9657    5.9875   20.3191 H   0  0  0  0  0  0  0  0  0  0  0  0
   46.6493    8.3310   21.1579 H   0  0  0  0  0  0  0  0  0  0  0  0
  1  2  1  0
  1  5  1  0
  2  3  1  0
  3  4  1  0
  2  6  1  0
  2  7  1  0
  8  5  1  0
  5  4  2  0
  4  9  1  0
  8 11  2  0
  9 10  2  0
 10 11  1  0
 11 12  1  0
 12 13  1  0
 13 14  1  0
 14 12  1  0
 12 15  1  0
 15 16  2  0
 15 17  1  0
 17 18  1  0
 19 18  2  0
 18 20  1  0
 19 23  1  0
 20 21  2  0
 21 22  1  0
 22 23  2  0
 22 24  1  0
 23 25  1  0
 27 25  1  0
 25 28  2  0
 26 27  2  0
 26 30  1  0
 28 29  1  0
 29 30  2  0
 29 31  1  0
 31 32  1  0
 31 33  2  0
  8 34  1  0
  9 35  1  0
 10 36  1  0
 13 37  1  0
 13 38  1  0
 14 39  1  0
 14 40  1  0
 17 41  1  0
 20 42  1  0
 21 43  1  0
 24 44  1  0
 24 45  1  0
 24 46  1  0
 26 47  1  0
 27 48  1  0
 28 49  1  0
 30 50  1  0
 32 51  1  0
M  END
> <Uni-Dock RESULT> 
ENERGY=   -4.588  LOWER_BOUND=    3.358  UPPER_BOUND=    5.466
INTER + INTRA:          -4.588
INTER:                  -4.588
INTRA:                   0.000
UNBOUND:                 0.000

$$$$

     RDKit          3D

 51 55  0  0  0  0  0  0  0  0999 V2000
   51.5371   12.1795   16.1548 O   0  0  0  0  0  0  0  0  0  0  0  0
   51.7779   11.9378   17.5488 C   0  0  0  0  0  0  0  0  0  0  0  0
   51.7233   10.5604   17.9412 O   0  0  0  0  0  0  0  0  0  0  0  0
   51.4606    9.9838   16.7396 C   0  0  0  0  0  0  0  0  0  0  0  0
   51.3533   10.9034   15.7235 C   0  0  0  0  0  0  0  0  0  0  0  0
   53.0013   12.4290   17.8663 F   0  0  0  0  0  0  0  0  0  0  0  0
   50.8600   12.6293   18.2676 F   0  0  0  0  0  0  0  0  0  0  0  0
   51.0814   10.5274   14.4234 C   0  0  0  0  0  0  0  0  0  0  0  0
   51.3031    8.6368   16.5098 C   0  0  0  0  0  0  0  0  0  0  0  0
   51.0296    8.2323   15.1989 C   0  0  0  0  0  0  0  0  0  0  0  0
   50.9153    9.1599   14.1298 C   0  0  0  0  0  0  0  0  0  0  0  0
   50.5930    8.6680   12.7190 C   0  0  0  0  0  0  0  0  0  0  0  0
   51.6996    7.9044   11.9918 C   0  0  0  0  0  0  0  0  0  0  0  0
   51.3282    9.2744   11.5250 C   0  0  0  0  0  0  0  0  0  0  0  0
   49.1704    8.1900   12.4988 C   0  0  0  0  0  0  0  0  0  0  0  0
   48.9374    6.9929   12.5631 O   0  0  0  0  0  0  0  0  0  0  0  0
   48.2974    9.2299   12.2775 N   0  0  0  0  0  0  0  0  0  0  0  0
   46.9299    9.0983   12.0160 C   0  0  0  0  0  0  0  0  0  0  0  0
   46.3789    7.8896   11.8337 N   0  0  0  0  0  0  0  0  0  0  0  0
   46.1812   10.2646   11.9392 C   0  0  0  0  0  0  0  0  0  0  0  0
   44.8161   10.1756   11.6772 C   0  0  0  0  0  0  0  0  0  0  0  0
   44.2243    8.9259   11.4793 C   0  0  0  0  0  0  0  0  0  0  0  0
   45.0496    7.8007   11.5766 C   0  0  0  0  0  0  0  0  0  0  0  0
   42.7551    8.8304   11.1914 C   0  0  0  0  0  0  0  0  0  0  0  0
   44.5743    6.4259   11.3775 C   0  0  0  0  0  0  0  0  0  0  0  0
   43.2809    4.4925   12.1039 C   0  0  0  0  0  0  0  0  0  0  0  0
   43.7262    5.8010   12.3064 C   0  0  0  0  0  0  0  0  0  0  0  0
   44.9794    5.6975   10.2466 C   0  0  0  0  0  0  0  0  0  0  0  0
   44.5335    4.3863   10.0360 C   0  0  0  0  0  0  0  0  0  0  0  0
   43.6803    3.7861   10.9686 C   0  0  0  0  0  0  0  0  0  0  0  0
   44.9819    3.6824    8.8099 C   0  0  0  0  0  0  0  0  0  0  0  0
   44.5607    2.4058    8.7532 O   0  0  0  0  0  0  0  0  0  0  0  0
   45.6513    4.1632    7.9142 O   0  0  0  0  0  0  0  0  0  0  0  0
   51.0024   11.2820   13.6477 H   0  0  0  0  0  0  0  0  0  0  0  0
   51.3825    7.9121   17.3135 H   0  0  0  0  0  0  0  0  0  0  0  0
   50.8878    7.1693   14.9943 H   0  0  0  0  0  0  0  0  0  0  0  0
   52.6549    7.7760   12.4874 H   0  0  0  0  0  0  0  0  0  0  0  0
   51.4113    7.0537   11.3796 H   0  0  0  0  0  0  0  0  0  0  0  0
   52.0527   10.0656   11.6855 H   0  0  0  0  0  0  0  0  0  0  0  0
   50.8073    9.3469   10.5756 H   0  0  0  0  0  0  0  0  0  0  0  0
   48.6676   10.1635   12.3501 H   0  0  0  0  0  0  0  0  0  0  0  0
   46.6339   11.2386   12.0857 H   0  0  0  0  0  0  0  0  0  0  0  0
   44.2224   11.0842   11.6214 H   0  0  0  0  0  0  0  0  0  0  0  0
   42.3464    9.8020   10.8901 H   0  0  0  0  0  0  0  0  0  0  0  0
   42.5604    8.1373   10.3666 H   0  0  0  0  0  0  0  0  0  0  0  0
   42.2148    8.4987   12.0833 H   0  0  0  0  0  0  0  0  0  0  0  0
   42.6295    4.0217   12.8364 H   0  0  0  0  0  0  0  0  0  0  0  0
   43.4214    6.3320   13.2069 H   0  0  0  0  0  0  0  0  0  0  0  0
   45.6577    6.1600    9.5299 H   0  0  0  0  0  0  0  0  0  0  0  0
   43.3279    2.7683   10.8229 H   0  0  0  0  0  0  0  0  0  0  0  0
   44.9389    2.0792    7.9089 H   0  0  0  0  0  0  0  0  0  0  0  0
  1  2  1  0
  1  5  1  0
  2  3  1  0
  3  4  1  0
  2  6  1  0
  2  7  1  0
  8  5  1  0
  5  4  2  0
  4  9  1  0
  8 11  2  0
  9 10  2  0
 10 11  1  0
 11 12  1  0
 12 13  1  0
 13 14  1  0
 14 12  1  0
 12 15  1  0
 15 16  2  0
 15 17  1  0
 17 18  1  0
 19 18  2  0
 18 20  1  0
 19 23  1  0
 20 21  2  0
 21 22  1  0
 22 23  2  0
 22 24  1  0
 23 25  1  0
 27 25  1  0
 25 28  2  0
 26 27  2  0
 26 30  1  0
 28 29  1  0
 29 30  2  0
 29 31  1  0
 31 32  1  0
 31 33  2  0
  8 34  1  0
  9 35  1  0
 10 36  1  0
 13 37  1  0
 13 38  1  0
 14 39  1  0
 14 40  1  0
 17 41  1  0
 20 42  1  0
 21 43  1  0
 24 44  1  0
 24 45  1  0
 24 46  1  0
 26 47  1  0
 27 48  1  0
 28 49  1  0
 30 50  1  0
 32 51  1  0
M  END
> <Uni-Dock RESULT> 
ENERGY=   -4.424  LOWER_BOUND=    4.976  UPPER_BOUND=   10.025
INTER + INTRA:          -4.424
INTER:                  -4.424
INTRA:                   0.000
UNBOUND:                 0.000

$$$$

     RDKit          3D

 51 55  0  0  0  0  0  0  0  0999 V2000
   46.2714   11.2802   10.8754 O   0  0  0  0  0  0  0  0  0  0  0  0
   45.8262   12.5798   11.2907 C   0  0  0  0  0  0  0  0  0  0  0  0
   46.5893   13.1694   12.3511 O   0  0  0  0  0  0  0  0  0  0  0  0
   47.5138   12.1935   12.5462 C   0  0  0  0  0  0  0  0  0  0  0  0
   47.3335   11.1185   11.7086 C   0  0  0  0  0  0  0  0  0  0  0  0
   45.8623   13.4103   10.2194 F   0  0  0  0  0  0  0  0  0  0  0  0
   44.5344   12.4821   11.6896 F   0  0  0  0  0  0  0  0  0  0  0  0
   48.1608   10.0141   11.7485 C   0  0  0  0  0  0  0  0  0  0  0  0
   48.5335   12.2229   13.4688 C   0  0  0  0  0  0  0  0  0  0  0  0
   49.3863   11.1154   13.5253 C   0  0  0  0  0  0  0  0  0  0  0  0
   49.2247    9.9925   12.6713 C   0  0  0  0  0  0  0  0  0  0  0  0
   50.1705    8.7975   12.7885 C   0  0  0  0  0  0  0  0  0  0  0  0
   51.6045    9.0106   12.3040 C   0  0  0  0  0  0  0  0  0  0  0  0
   50.6920    8.1241   11.5203 C   0  0  0  0  0  0  0  0  0  0  0  0
   49.9835    7.9296   14.0184 C   0  0  0  0  0  0  0  0  0  0  0  0
   50.7070    8.1173   14.9842 O   0  0  0  0  0  0  0  0  0  0  0  0
   48.9526    7.0306   13.8723 N   0  0  0  0  0  0  0  0  0  0  0  0
   48.5624    6.0833   14.8243 C   0  0  0  0  0  0  0  0  0  0  0  0
   49.2786    5.8986   15.9427 N   0  0  0  0  0  0  0  0  0  0  0  0
   47.4212    5.3410   14.5534 C   0  0  0  0  0  0  0  0  0  0  0  0
   47.0017    4.3851   15.4756 C   0  0  0  0  0  0  0  0  0  0  0  0
   47.7371    4.1742   16.6442 C   0  0  0  0  0  0  0  0  0  0  0  0
   48.8727    4.9667   16.8416 C   0  0  0  0  0  0  0  0  0  0  0  0
   47.2885    3.1407   17.6349 C   0  0  0  0  0  0  0  0  0  0  0  0
   49.7519    4.8482   18.0114 C   0  0  0  0  0  0  0  0  0  0  0  0
   50.1779    5.1319   20.3940 C   0  0  0  0  0  0  0  0  0  0  0  0
   49.3310    5.2512   19.2893 C   0  0  0  0  0  0  0  0  0  0  0  0
   51.0527    4.3377   17.8661 C   0  0  0  0  0  0  0  0  0  0  0  0
   51.9054    4.2124   18.9704 C   0  0  0  0  0  0  0  0  0  0  0  0
   51.4624    4.6099   20.2368 C   0  0  0  0  0  0  0  0  0  0  0  0
   53.2579    3.6449   18.7501 C   0  0  0  0  0  0  0  0  0  0  0  0
   54.0164    3.6483   19.8614 O   0  0  0  0  0  0  0  0  0  0  0  0
   53.6841    3.2003   17.7003 O   0  0  0  0  0  0  0  0  0  0  0  0
   47.9865    9.1834   11.0728 H   0  0  0  0  0  0  0  0  0  0  0  0
   48.6719   13.0695   14.1333 H   0  0  0  0  0  0  0  0  0  0  0  0
   50.1953   11.1102   14.2585 H   0  0  0  0  0  0  0  0  0  0  0  0
   51.8723    9.9708   11.8784 H   0  0  0  0  0  0  0  0  0  0  0  0
   52.4069    8.5511   12.8754 H   0  0  0  0  0  0  0  0  0  0  0  0
   50.3671    8.4823   10.5493 H   0  0  0  0  0  0  0  0  0  0  0  0
   50.8993    7.0591   11.5445 H   0  0  0  0  0  0  0  0  0  0  0  0
   48.4097    7.0878   13.0261 H   0  0  0  0  0  0  0  0  0  0  0  0
   46.8482    5.4944   13.6461 H   0  0  0  0  0  0  0  0  0  0  0  0
   46.1059    3.8041   15.2730 H   0  0  0  0  0  0  0  0  0  0  0  0
   46.5597    2.4541   17.1886 H   0  0  0  0  0  0  0  0  0  0  0  0
   48.1310    2.5292   17.9737 H   0  0  0  0  0  0  0  0  0  0  0  0
   46.8155    3.6216   18.4966 H   0  0  0  0  0  0  0  0  0  0  0  0
   49.8381    5.4546   21.3753 H   0  0  0  0  0  0  0  0  0  0  0  0
   48.3387    5.6785   19.4250 H   0  0  0  0  0  0  0  0  0  0  0  0
   51.4024    4.0446   16.8764 H   0  0  0  0  0  0  0  0  0  0  0  0
   52.1122    4.5232   21.1037 H   0  0  0  0  0  0  0  0  0  0  0  0
   54.8653    3.2613   19.5581 H   0  0  0  0  0  0  0  0  0  0  0  0
  1  2  1  0
  1  5  1  0
  2  3  1  0
  3  4  1  0
  2  6  1  0
  2  7  1  0
  8  5  1  0
  5  4  2  0
  4  9  1  0
  8 11  2  0
  9 10  2  0
 10 11  1  0
 11 12  1  0
 12 13  1  0
 13 14  1  0
 14 12  1  0
 12 15  1  0
 15 16  2  0
 15 17  1  0
 17 18  1  0
 19 18  2  0
 18 20  1  0
 19 23  1  0
 20 21  2  0
 21 22  1  0
 22 23  2  0
 22 24  1  0
 23 25  1  0
 27 25  1  0
 25 28  2  0
 26 27  2  0
 26 30  1  0
 28 29  1  0
 29 30  2  0
 29 31  1  0
 31 32  1  0
 31 33  2  0
  8 34  1  0
  9 35  1  0
 10 36  1  0
 13 37  1  0
 13 38  1  0
 14 39  1  0
 14 40  1  0
 17 41  1  0
 20 42  1  0
 21 43  1  0
 24 44  1  0
 24 45  1  0
 24 46  1  0
 26 47  1  0
 27 48  1  0
 28 49  1  0
 30 50  1  0
 32 51  1  0
M  END
> <Uni-Dock RESULT> 
ENERGY=   -4.413  LOWER_BOUND=    5.090  UPPER_BOUND=    7.022
INTER + INTRA:          -4.413
INTER:                  -4.413
INTRA:                   0.000
UNBOUND:                 0.000

$$$$

     RDKit          3D

 51 55  0  0  0  0  0  0  0  0999 V2000
   50.8160    1.3945   17.1872 O   0  0  0  0  0  0  0  0  0  0  0  0
   52.1105    0.9203   17.5858 C   0  0  0  0  0  0  0  0  0  0  0  0
   52.9047    1.8688   18.3096 O   0  0  0  0  0  0  0  0  0  0  0  0
   52.0418    2.9173   18.3479 C   0  0  0  0  0  0  0  0  0  0  0  0
   50.8544    2.6492   17.7091 C   0  0  0  0  0  0  0  0  0  0  0  0
   51.9467   -0.1832   18.3565 F   0  0  0  0  0  0  0  0  0  0  0  0
   52.7898    0.5460   16.4741 F   0  0  0  0  0  0  0  0  0  0  0  0
   49.8422    3.5841   17.6258 C   0  0  0  0  0  0  0  0  0  0  0  0
   52.2805    4.1357   18.9400 C   0  0  0  0  0  0  0  0  0  0  0  0
   51.2675    5.0978   18.8703 C   0  0  0  0  0  0  0  0  0  0  0  0
   50.0308    4.8476   18.2188 C   0  0  0  0  0  0  0  0  0  0  0  0
   48.9647    5.9410   18.1513 C   0  0  0  0  0  0  0  0  0  0  0  0
   48.2525    6.2830   19.4598 C   0  0  0  0  0  0  0  0  0  0  0  0
   47.4988    5.5768   18.3800 C   0  0  0  0  0  0  0  0  0  0  0  0
   49.2638    7.0931   17.2111 C   0  0  0  0  0  0  0  0  0  0  0  0
   49.7460    8.1161   17.6720 O   0  0  0  0  0  0  0  0  0  0  0  0
   48.9616    6.7928   15.9031 N   0  0  0  0  0  0  0  0  0  0  0  0
   49.1033    7.6638   14.8181 C   0  0  0  0  0  0  0  0  0  0  0  0
   49.4420    8.9472   15.0076 N   0  0  0  0  0  0  0  0  0  0  0  0
   48.8645    7.1478   13.5519 C   0  0  0  0  0  0  0  0  0  0  0  0
   48.9920    7.9845   12.4457 C   0  0  0  0  0  0  0  0  0  0  0  0
   49.3390    9.3259   12.6227 C   0  0  0  0  0  0  0  0  0  0  0  0
   49.5651    9.7646   13.9316 C   0  0  0  0  0  0  0  0  0  0  0  0
   49.4709   10.2286   11.4318 C   0  0  0  0  0  0  0  0  0  0  0  0
   49.9200   11.1474   14.2742 C   0  0  0  0  0  0  0  0  0  0  0  0
   51.5002   13.0025   14.2801 C   0  0  0  0  0  0  0  0  0  0  0  0
   51.1762   11.6846   13.9487 C   0  0  0  0  0  0  0  0  0  0  0  0
   49.0014   11.9616   14.9576 C   0  0  0  0  0  0  0  0  0  0  0  0
   49.3191   13.2850   15.2896 C   0  0  0  0  0  0  0  0  0  0  0  0
   50.5723   13.8040   14.9465 C   0  0  0  0  0  0  0  0  0  0  0  0
   48.2947   14.0961   15.9914 C   0  0  0  0  0  0  0  0  0  0  0  0
   48.7370   15.3202   16.3324 O   0  0  0  0  0  0  0  0  0  0  0  0
   47.1576   13.7454   16.2475 O   0  0  0  0  0  0  0  0  0  0  0  0
   48.9191    3.3370   17.1119 H   0  0  0  0  0  0  0  0  0  0  0  0
   53.2202    4.3483   19.4393 H   0  0  0  0  0  0  0  0  0  0  0  0
   51.4389    6.0770   19.3218 H   0  0  0  0  0  0  0  0  0  0  0  0
   48.5082    5.7241   20.3525 H   0  0  0  0  0  0  0  0  0  0  0  0
   48.0213    7.3272   19.6539 H   0  0  0  0  0  0  0  0  0  0  0  0
   47.2240    4.5435   18.5624 H   0  0  0  0  0  0  0  0  0  0  0  0
   46.7345    6.1455   17.8601 H   0  0  0  0  0  0  0  0  0  0  0  0
   48.6513    5.8551   15.7071 H   0  0  0  0  0  0  0  0  0  0  0  0
   48.5890    6.1095   13.4064 H   0  0  0  0  0  0  0  0  0  0  0  0
   48.8122    7.5860   11.4507 H   0  0  0  0  0  0  0  0  0  0  0  0
   49.0001    9.7869   10.5457 H   0  0  0  0  0  0  0  0  0  0  0  0
   48.9728   11.1874   11.6082 H   0  0  0  0  0  0  0  0  0  0  0  0
   50.5268   10.4015   11.2022 H   0  0  0  0  0  0  0  0  0  0  0  0
   52.4798   13.4006   14.0261 H   0  0  0  0  0  0  0  0  0  0  0  0
   51.9181   11.0660   13.4462 H   0  0  0  0  0  0  0  0  0  0  0  0
   48.0322   11.5507   15.2394 H   0  0  0  0  0  0  0  0  0  0  0  0
   50.8368   14.8273   15.1999 H   0  0  0  0  0  0  0  0  0  0  0  0
   47.9661   15.7216   16.7875 H   0  0  0  0  0  0  0  0  0  0  0  0
  1  2  1  0
  1  5  1  0
  2  3  1  0
  3  4  1  0
  2  6  1  0
  2  7  1  0
  8  5  1  0
  5  4  2  0
  4  9  1  0
  8 11  2  0
  9 10  2  0
 10 11  1  0
 11 12  1  0
 12 13  1  0
 13 14  1  0
 14 12  1  0
 12 15  1  0
 15 16  2  0
 15 17  1  0
 17 18  1  0
 19 18  2  0
 18 20  1  0
 19 23  1  0
 20 21  2  0
 21 22  1  0
 22 23  2  0
 22 24  1  0
 23 25  1  0
 27 25  1  0
 25 28  2  0
 26 27  2  0
 26 30  1  0
 28 29  1  0
 29 30  2  0
 29 31  1  0
 31 32  1  0
 31 33  2  0
  8 34  1  0
  9 35  1  0
 10 36  1  0
 13 37  1  0
 13 38  1  0
 14 39  1  0
 14 40  1  0
 17 41  1  0
 20 42  1  0
 21 43  1  0
 24 44  1  0
 24 45  1  0
 24 46  1  0
 26 47  1  0
 27 48  1  0
 28 49  1  0
 30 50  1  0
 32 51  1  0
M  END
> <Uni-Dock RESULT> 
ENERGY=   -4.405  LOWER_BOUND=    4.526  UPPER_BOUND=    6.983
INTER + INTRA:          -4.405
INTER:                  -4.405
INTRA:                   0.000
UNBOUND:                 0.000

$$$$
