
     RDKit          3D

 51 55  0  0  0  0  0  0  0  0999 V2000
   45.7961    3.6862   12.7559 O   0  0  0  0  0  0  0  0  0  0  0  0
   44.4980    3.6733   12.1441 C   0  0  0  0  0  0  0  0  0  0  0  0
   43.9330    4.9674   11.8986 O   0  0  0  0  0  0  0  0  0  0  0  0
   44.9371    5.7546   12.3647 C   0  0  0  0  0  0  0  0  0  0  0  0
   45.9964    5.0274   12.8534 C   0  0  0  0  0  0  0  0  0  0  0  0
   44.5840    3.0089   10.9651 F   0  0  0  0  0  0  0  0  0  0  0  0
   43.6545    2.9776   12.9453 F   0  0  0  0  0  0  0  0  0  0  0  0
   47.1178    5.6346   13.3820 C   0  0  0  0  0  0  0  0  0  0  0  0
   44.9429    7.1300   12.3767 C   0  0  0  0  0  0  0  0  0  0  0  0
   46.0705    7.7672   12.9053 C   0  0  0  0  0  0  0  0  0  0  0  0
   47.1795    7.0414   13.4150 C   0  0  0  0  0  0  0  0  0  0  0  0
   48.3784    7.7856   14.0024 C   0  0  0  0  0  0  0  0  0  0  0  0
   49.2712    8.5332   13.0121 C   0  0  0  0  0  0  0  0  0  0  0  0
   49.7925    7.3039   13.6829 C   0  0  0  0  0  0  0  0  0  0  0  0
   48.1480    8.4427   15.3500 C   0  0  0  0  0  0  0  0  0  0  0  0
   47.8717    9.6318   15.3831 O   0  0  0  0  0  0  0  0  0  0  0  0
   48.2589    7.5517   16.3923 N   0  0  0  0  0  0  0  0  0  0  0  0
   48.1268    7.8695   17.7477 C   0  0  0  0  0  0  0  0  0  0  0  0
   47.9997    9.1438   18.1449 N   0  0  0  0  0  0  0  0  0  0  0  0
   48.1489    6.8180   18.6535 C   0  0  0  0  0  0  0  0  0  0  0  0
   48.0234    7.0938   20.0130 C   0  0  0  0  0  0  0  0  0  0  0  0
   47.8952    8.4152   20.4471 C   0  0  0  0  0  0  0  0  0  0  0  0
   47.8791    9.4151   19.4689 C   0  0  0  0  0  0  0  0  0  0  0  0
   47.7658    8.7130   21.9118 C   0  0  0  0  0  0  0  0  0  0  0  0
   47.7671   10.8469   19.7736 C   0  0  0  0  0  0  0  0  0  0  0  0
   46.4815   12.7656   20.5508 C   0  0  0  0  0  0  0  0  0  0  0  0
   46.5737   11.4014   20.2643 C   0  0  0  0  0  0  0  0  0  0  0  0
   48.8627   11.7001   19.5605 C   0  0  0  0  0  0  0  0  0  0  0  0
   48.7776   13.0683   19.8491 C   0  0  0  0  0  0  0  0  0  0  0  0
   47.5825   13.5985   20.3474 C   0  0  0  0  0  0  0  0  0  0  0  0
   49.9788   13.9081   19.6217 C   0  0  0  0  0  0  0  0  0  0  0  0
   49.7578   15.2148   19.8535 O   0  0  0  0  0  0  0  0  0  0  0  0
   51.0744   13.5087   19.2728 O   0  0  0  0  0  0  0  0  0  0  0  0
   47.9338    5.0277   13.7599 H   0  0  0  0  0  0  0  0  0  0  0  0
   44.1040    7.7032   11.9957 H   0  0  0  0  0  0  0  0  0  0  0  0
   46.0926    8.8583   12.9373 H   0  0  0  0  0  0  0  0  0  0  0  0
   49.0364    8.4768   11.9555 H   0  0  0  0  0  0  0  0  0  0  0  0
   49.6705    9.4972   13.3164 H   0  0  0  0  0  0  0  0  0  0  0  0
   49.9335    6.4242   13.0642 H   0  0  0  0  0  0  0  0  0  0  0  0
   50.5695    7.4414   14.4281 H   0  0  0  0  0  0  0  0  0  0  0  0
   48.4073    6.5842   16.1555 H   0  0  0  0  0  0  0  0  0  0  0  0
   48.2540    5.7902   18.3252 H   0  0  0  0  0  0  0  0  0  0  0  0
   48.0341    6.2751   20.7276 H   0  0  0  0  0  0  0  0  0  0  0  0
   48.0682    7.8520   22.5193 H   0  0  0  0  0  0  0  0  0  0  0  0
   48.4133    9.5465   22.2022 H   0  0  0  0  0  0  0  0  0  0  0  0
   46.7272    8.9528   22.1596 H   0  0  0  0  0  0  0  0  0  0  0  0
   45.5478   13.1796   20.9242 H   0  0  0  0  0  0  0  0  0  0  0  0
   45.6999   10.7683   20.4099 H   0  0  0  0  0  0  0  0  0  0  0  0
   49.7873   11.2889   19.1561 H   0  0  0  0  0  0  0  0  0  0  0  0
   47.4978   14.6584   20.5730 H   0  0  0  0  0  0  0  0  0  0  0  0
   50.6236   15.6306   19.6534 H   0  0  0  0  0  0  0  0  0  0  0  0
  1  2  1  0
  1  5  1  0
  2  3  1  0
  3  4  1  0
  2  6  1  0
  2  7  1  0
  8  5  1  0
  5  4  2  0
  4  9  1  0
  8 11  2  0
  9 10  2  0
 10 11  1  0
 11 12  1  0
 12 13  1  0
 13 14  1  0
 14 12  1  0
 12 15  1  0
 15 16  2  0
 15 17  1  0
 17 18  1  0
 19 18  2  0
 18 20  1  0
 19 23  1  0
 20 21  2  0
 21 22  1  0
 22 23  2  0
 22 24  1  0
 23 25  1  0
 27 25  1  0
 25 28  2  0
 26 27  2  0
 26 30  1  0
 28 29  1  0
 29 30  2  0
 29 31  1  0
 31 32  1  0
 31 33  2  0
  8 34  1  0
  9 35  1  0
 10 36  1  0
 13 37  1  0
 13 38  1  0
 14 39  1  0
 14 40  1  0
 17 41  1  0
 20 42  1  0
 21 43  1  0
 24 44  1  0
 24 45  1  0
 24 46  1  0
 26 47  1  0
 27 48  1  0
 28 49  1  0
 30 50  1  0
 32 51  1  0
M  END
> <Uni-Dock RESULT> 
ENERGY=   -5.710  LOWER_BOUND=    0.000  UPPER_BOUND=    0.000
INTER + INTRA:          -5.710
INTER:                  -5.710
INTRA:                   0.000
UNBOUND:                 0.000

$$$$

     RDKit          3D

 51 55  0  0  0  0  0  0  0  0999 V2000
   44.9746    5.1011   12.4800 O   0  0  0  0  0  0  0  0  0  0  0  0
   43.7609    5.4359   11.7913 C   0  0  0  0  0  0  0  0  0  0  0  0
   43.5715    6.8353   11.5468 O   0  0  0  0  0  0  0  0  0  0  0  0
   44.7143    7.3263   12.0930 C   0  0  0  0  0  0  0  0  0  0  0  0
   45.5122    6.3413   12.6249 C   0  0  0  0  0  0  0  0  0  0  0  0
   43.7462    4.7840   10.6024 F   0  0  0  0  0  0  0  0  0  0  0  0
   42.7146    4.9786   12.5218 F   0  0  0  0  0  0  0  0  0  0  0  0
   46.7168    6.6272   13.2357 C   0  0  0  0  0  0  0  0  0  0  0  0
   45.0791    8.6516   12.1418 C   0  0  0  0  0  0  0  0  0  0  0  0
   46.2974    8.9646   12.7538 C   0  0  0  0  0  0  0  0  0  0  0  0
   47.1423    7.9678   13.3097 C   0  0  0  0  0  0  0  0  0  0  0  0
   48.4535    8.3648   13.9875 C   0  0  0  0  0  0  0  0  0  0  0  0
   49.5731    8.8610   13.0727 C   0  0  0  0  0  0  0  0  0  0  0  0
   49.7098    7.5314   13.7407 C   0  0  0  0  0  0  0  0  0  0  0  0
   48.3162    9.0461   15.3358 C   0  0  0  0  0  0  0  0  0  0  0  0
   48.3593   10.2656   15.3837 O   0  0  0  0  0  0  0  0  0  0  0  0
   48.1222    8.1470   16.3588 N   0  0  0  0  0  0  0  0  0  0  0  0
   47.9904    8.4751   17.7118 C   0  0  0  0  0  0  0  0  0  0  0  0
   48.1758    9.7340   18.1343 N   0  0  0  0  0  0  0  0  0  0  0  0
   47.6776    7.4458   18.5891 C   0  0  0  0  0  0  0  0  0  0  0  0
   47.5409    7.7316   19.9454 C   0  0  0  0  0  0  0  0  0  0  0  0
   47.7351    9.0359   20.4059 C   0  0  0  0  0  0  0  0  0  0  0  0
   48.0448   10.0143   19.4555 C   0  0  0  0  0  0  0  0  0  0  0  0
   47.5935    9.3427   21.8676 C   0  0  0  0  0  0  0  0  0  0  0  0
   48.2920   11.4221   19.7908 C   0  0  0  0  0  0  0  0  0  0  0  0
   47.5058   13.6037   20.5401 C   0  0  0  0  0  0  0  0  0  0  0  0
   47.2561   12.2661   20.2235 C   0  0  0  0  0  0  0  0  0  0  0  0
   49.5841   11.9594   19.6664 C   0  0  0  0  0  0  0  0  0  0  0  0
   49.8417   13.2989   19.9856 C   0  0  0  0  0  0  0  0  0  0  0  0
   48.7973   14.1198   20.4252 C   0  0  0  0  0  0  0  0  0  0  0  0
   51.2329   13.7955   19.8530 C   0  0  0  0  0  0  0  0  0  0  0  0
   51.3471   15.1120   20.1058 O   0  0  0  0  0  0  0  0  0  0  0  0
   52.2060   13.1256   19.5600 O   0  0  0  0  0  0  0  0  0  0  0  0
   47.3192    5.8233   13.6457 H   0  0  0  0  0  0  0  0  0  0  0  0
   44.4460    9.4289   11.7265 H   0  0  0  0  0  0  0  0  0  0  0  0
   46.6022   10.0112   12.8160 H   0  0  0  0  0  0  0  0  0  0  0  0
   49.4008    8.8788   12.0027 H   0  0  0  0  0  0  0  0  0  0  0  0
   50.1902    9.6831   13.4258 H   0  0  0  0  0  0  0  0  0  0  0  0
   49.6554    6.6517   13.1085 H   0  0  0  0  0  0  0  0  0  0  0  0
   50.4458    7.4525   14.5345 H   0  0  0  0  0  0  0  0  0  0  0  0
   48.0273    7.1769   16.1058 H   0  0  0  0  0  0  0  0  0  0  0  0
   47.5311    6.4298   18.2405 H   0  0  0  0  0  0  0  0  0  0  0  0
   47.2905    6.9318   20.6374 H   0  0  0  0  0  0  0  0  0  0  0  0
   47.6200    8.4266   22.4692 H   0  0  0  0  0  0  0  0  0  0  0  0
   48.4164    9.9738   22.2184 H   0  0  0  0  0  0  0  0  0  0  0  0
   46.6401    9.8447   22.0590 H   0  0  0  0  0  0  0  0  0  0  0  0
   46.6909   14.2448   20.8677 H   0  0  0  0  0  0  0  0  0  0  0  0
   46.2395   11.8836   20.2996 H   0  0  0  0  0  0  0  0  0  0  0  0
   50.3931   11.3235   19.3075 H   0  0  0  0  0  0  0  0  0  0  0  0
   48.9786   15.1623   20.6734 H   0  0  0  0  0  0  0  0  0  0  0  0
   52.3026   15.2875   19.9690 H   0  0  0  0  0  0  0  0  0  0  0  0
  1  2  1  0
  1  5  1  0
  2  3  1  0
  3  4  1  0
  2  6  1  0
  2  7  1  0
  8  5  1  0
  5  4  2  0
  4  9  1  0
  8 11  2  0
  9 10  2  0
 10 11  1  0
 11 12  1  0
 12 13  1  0
 13 14  1  0
 14 12  1  0
 12 15  1  0
 15 16  2  0
 15 17  1  0
 17 18  1  0
 19 18  2  0
 18 20  1  0
 19 23  1  0
 20 21  2  0
 21 22  1  0
 22 23  2  0
 22 24  1  0
 23 25  1  0
 27 25  1  0
 25 28  2  0
 26 27  2  0
 26 30  1  0
 28 29  1  0
 29 30  2  0
 29 31  1  0
 31 32  1  0
 31 33  2  0
  8 34  1  0
  9 35  1  0
 10 36  1  0
 13 37  1  0
 13 38  1  0
 14 39  1  0
 14 40  1  0
 17 41  1  0
 20 42  1  0
 21 43  1  0
 24 44  1  0
 24 45  1  0
 24 46  1  0
 26 47  1  0
 27 48  1  0
 28 49  1  0
 30 50  1  0
 32 51  1  0
M  END
> <Uni-Dock RESULT> 
ENERGY=   -5.586  LOWER_BOUND=    1.063  UPPER_BOUND=    1.206
INTER + INTRA:          -5.586
INTER:                  -5.586
INTRA:                   0.000
UNBOUND:                 0.000

$$$$

     RDKit          3D

 51 55  0  0  0  0  0  0  0  0999 V2000
   44.1820   10.7810   11.9921 O   0  0  0  0  0  0  0  0  0  0  0  0
   43.0530   10.3727   11.2058 C   0  0  0  0  0  0  0  0  0  0  0  0
   43.0722    9.0020   10.7876 O   0  0  0  0  0  0  0  0  0  0  0  0
   44.2356    8.5976   11.3607 C   0  0  0  0  0  0  0  0  0  0  0  0
   44.8680    9.6084   12.0448 C   0  0  0  0  0  0  0  0  0  0  0  0
   41.9251   10.5884   11.9269 F   0  0  0  0  0  0  0  0  0  0  0  0
   42.9916   11.1605   10.1044 F   0  0  0  0  0  0  0  0  0  0  0  0
   46.0700    9.4107   12.6942 C   0  0  0  0  0  0  0  0  0  0  0  0
   44.7709    7.3325   11.2905 C   0  0  0  0  0  0  0  0  0  0  0  0
   45.9874    7.1082   11.9437 C   0  0  0  0  0  0  0  0  0  0  0  0
   46.6616    8.1330   12.6591 C   0  0  0  0  0  0  0  0  0  0  0  0
   48.0002    7.8417   13.3370 C   0  0  0  0  0  0  0  0  0  0  0  0
   47.9586    6.9479   14.5764 C   0  0  0  0  0  0  0  0  0  0  0  0
   48.2736    8.4003   14.7324 C   0  0  0  0  0  0  0  0  0  0  0  0
   49.1846    7.6685   12.4054 C   0  0  0  0  0  0  0  0  0  0  0  0
   49.5249    6.5379   12.0933 O   0  0  0  0  0  0  0  0  0  0  0  0
   49.7127    8.8728   12.0012 N   0  0  0  0  0  0  0  0  0  0  0  0
   50.8233    9.0312   11.1662 C   0  0  0  0  0  0  0  0  0  0  0  0
   51.5539    7.9728   10.7871 N   0  0  0  0  0  0  0  0  0  0  0  0
   51.1397   10.3220   10.7655 C   0  0  0  0  0  0  0  0  0  0  0  0
   52.2408   10.5217    9.9362 C   0  0  0  0  0  0  0  0  0  0  0  0
   53.0174    9.4325    9.5345 C   0  0  0  0  0  0  0  0  0  0  0  0
   52.6280    8.1653    9.9806 C   0  0  0  0  0  0  0  0  0  0  0  0
   54.2068    9.6482    8.6458 C   0  0  0  0  0  0  0  0  0  0  0  0
   53.3540    6.9315    9.6547 C   0  0  0  0  0  0  0  0  0  0  0  0
   54.0477    5.2260    8.0582 C   0  0  0  0  0  0  0  0  0  0  0  0
   53.3517    6.4005    8.3544 C   0  0  0  0  0  0  0  0  0  0  0  0
   54.0591    6.2437   10.6564 C   0  0  0  0  0  0  0  0  0  0  0  0
   54.7618    5.0673   10.3650 C   0  0  0  0  0  0  0  0  0  0  0  0
   54.7554    4.5612    9.0605 C   0  0  0  0  0  0  0  0  0  0  0  0
   55.5033    4.4038   11.4648 C   0  0  0  0  0  0  0  0  0  0  0  0
   56.0707    3.2427   11.0902 O   0  0  0  0  0  0  0  0  0  0  0  0
   55.6263    4.8253   12.6000 O   0  0  0  0  0  0  0  0  0  0  0  0
   46.5405   10.2332   13.2228 H   0  0  0  0  0  0  0  0  0  0  0  0
   44.2738    6.5366   10.7457 H   0  0  0  0  0  0  0  0  0  0  0  0
   46.4384    6.1153   11.8912 H   0  0  0  0  0  0  0  0  0  0  0  0
   46.9972    6.5937   14.9300 H   0  0  0  0  0  0  0  0  0  0  0  0
   48.7615    6.2274   14.7097 H   0  0  0  0  0  0  0  0  0  0  0  0
   47.5275    9.0192   15.2191 H   0  0  0  0  0  0  0  0  0  0  0  0
   49.2938    8.6571   14.9991 H   0  0  0  0  0  0  0  0  0  0  0  0
   49.2344    9.7072   12.2995 H   0  0  0  0  0  0  0  0  0  0  0  0
   50.5456   11.1733   11.0777 H   0  0  0  0  0  0  0  0  0  0  0  0
   52.4911   11.5289    9.6137 H   0  0  0  0  0  0  0  0  0  0  0  0
   54.5033   10.7035    8.6299 H   0  0  0  0  0  0  0  0  0  0  0  0
   55.0731    9.0829    9.0043 H   0  0  0  0  0  0  0  0  0  0  0  0
   53.9729    9.3478    7.6199 H   0  0  0  0  0  0  0  0  0  0  0  0
   54.0302    4.8254    7.0474 H   0  0  0  0  0  0  0  0  0  0  0  0
   52.7884    6.8969    7.5658 H   0  0  0  0  0  0  0  0  0  0  0  0
   54.0490    6.6296   11.6755 H   0  0  0  0  0  0  0  0  0  0  0  0
   55.2919    3.6478    8.8178 H   0  0  0  0  0  0  0  0  0  0  0  0
   56.5049    2.9268   11.9113 H   0  0  0  0  0  0  0  0  0  0  0  0
  1  2  1  0
  1  5  1  0
  2  3  1  0
  3  4  1  0
  2  6  1  0
  2  7  1  0
  8  5  1  0
  5  4  2  0
  4  9  1  0
  8 11  2  0
  9 10  2  0
 10 11  1  0
 11 12  1  0
 12 13  1  0
 13 14  1  0
 14 12  1  0
 12 15  1  0
 15 16  2  0
 15 17  1  0
 17 18  1  0
 19 18  2  0
 18 20  1  0
 19 23  1  0
 20 21  2  0
 21 22  1  0
 22 23  2  0
 22 24  1  0
 23 25  1  0
 27 25  1  0
 25 28  2  0
 26 27  2  0
 26 30  1  0
 28 29  1  0
 29 30  2  0
 29 31  1  0
 31 32  1  0
 31 33  2  0
  8 34  1  0
  9 35  1  0
 10 36  1  0
 13 37  1  0
 13 38  1  0
 14 39  1  0
 14 40  1  0
 17 41  1  0
 20 42  1  0
 21 43  1  0
 24 44  1  0
 24 45  1  0
 24 46  1  0
 26 47  1  0
 27 48  1  0
 28 49  1  0
 30 50  1  0
 32 51  1  0
M  END
> <Uni-Dock RESULT> 
ENERGY=   -5.498  LOWER_BOUND=    5.496  UPPER_BOUND=    9.537
INTER + INTRA:          -5.498
INTER:                  -5.498
INTRA:                   0.000
UNBOUND:                 0.000

$$$$

     RDKit          3D

 51 55  0  0  0  0  0  0  0  0999 V2000
   46.6826    9.9182   20.4131 O   0  0  0  0  0  0  0  0  0  0  0  0
   46.8129   11.2628   19.9285 C   0  0  0  0  0  0  0  0  0  0  0  0
   47.5055   11.3905   18.6803 O   0  0  0  0  0  0  0  0  0  0  0  0
   47.7703   10.0832   18.4234 C   0  0  0  0  0  0  0  0  0  0  0  0
   47.3040    9.2453   19.4084 C   0  0  0  0  0  0  0  0  0  0  0  0
   45.5725   11.7930   19.7904 F   0  0  0  0  0  0  0  0  0  0  0  0
   47.4682   11.9928   20.8639 F   0  0  0  0  0  0  0  0  0  0  0  0
   47.4760    7.8770   19.3457 C   0  0  0  0  0  0  0  0  0  0  0  0
   48.4330    9.5972   17.3205 C   0  0  0  0  0  0  0  0  0  0  0  0
   48.6165    8.2131   17.2343 C   0  0  0  0  0  0  0  0  0  0  0  0
   48.1438    7.3241   18.2357 C   0  0  0  0  0  0  0  0  0  0  0  0
   48.3898    5.8212   18.1050 C   0  0  0  0  0  0  0  0  0  0  0  0
   47.5948    5.0899   17.0234 C   0  0  0  0  0  0  0  0  0  0  0  0
   47.2721    4.8426   18.4613 C   0  0  0  0  0  0  0  0  0  0  0  0
   49.8193    5.3672   18.3312 C   0  0  0  0  0  0  0  0  0  0  0  0
   50.5383    5.1879   17.3604 O   0  0  0  0  0  0  0  0  0  0  0  0
   50.1246    5.2463   19.6671 N   0  0  0  0  0  0  0  0  0  0  0  0
   51.3530    4.8207   20.1824 C   0  0  0  0  0  0  0  0  0  0  0  0
   52.3172    4.3643   19.3701 N   0  0  0  0  0  0  0  0  0  0  0  0
   51.5201    4.8773   21.5592 C   0  0  0  0  0  0  0  0  0  0  0  0
   52.7285    4.4591   22.1114 C   0  0  0  0  0  0  0  0  0  0  0  0
   53.7434    3.9757   21.2824 C   0  0  0  0  0  0  0  0  0  0  0  0
   53.4946    3.9547   19.9061 C   0  0  0  0  0  0  0  0  0  0  0  0
   55.0429    3.5199   21.8776 C   0  0  0  0  0  0  0  0  0  0  0  0
   54.4577    3.4598   18.9147 C   0  0  0  0  0  0  0  0  0  0  0  0
   56.5455    3.6808   17.6774 C   0  0  0  0  0  0  0  0  0  0  0  0
   55.6373    4.1639   18.6226 C   0  0  0  0  0  0  0  0  0  0  0  0
   54.2029    2.2653   18.2204 C   0  0  0  0  0  0  0  0  0  0  0  0
   55.1112    1.7738   17.2739 C   0  0  0  0  0  0  0  0  0  0  0  0
   56.2857    2.4854   17.0058 C   0  0  0  0  0  0  0  0  0  0  0  0
   54.7908    0.4954   16.5937 C   0  0  0  0  0  0  0  0  0  0  0  0
   55.6896    0.1633   15.6491 O   0  0  0  0  0  0  0  0  0  0  0  0
   53.8364   -0.2214   16.8321 O   0  0  0  0  0  0  0  0  0  0  0  0
   47.0955    7.2473   20.1432 H   0  0  0  0  0  0  0  0  0  0  0  0
   48.8056   10.2598   16.5461 H   0  0  0  0  0  0  0  0  0  0  0  0
   49.1511    7.8049   16.3743 H   0  0  0  0  0  0  0  0  0  0  0  0
   46.8834    5.6532   16.4307 H   0  0  0  0  0  0  0  0  0  0  0  0
   48.1000    4.3063   16.4646 H   0  0  0  0  0  0  0  0  0  0  0  0
   46.3237    5.2205   18.8280 H   0  0  0  0  0  0  0  0  0  0  0  0
   47.5401    3.8721   18.8663 H   0  0  0  0  0  0  0  0  0  0  0  0
   49.4173    5.5264   20.3269 H   0  0  0  0  0  0  0  0  0  0  0  0
   50.7353    5.2457   22.2100 H   0  0  0  0  0  0  0  0  0  0  0  0
   52.8686    4.5061   23.1881 H   0  0  0  0  0  0  0  0  0  0  0  0
   54.9488    3.3581   22.9578 H   0  0  0  0  0  0  0  0  0  0  0  0
   55.3616    2.5670   21.4430 H   0  0  0  0  0  0  0  0  0  0  0  0
   55.8192    4.2739   21.7156 H   0  0  0  0  0  0  0  0  0  0  0  0
   57.4511    4.2418   17.4590 H   0  0  0  0  0  0  0  0  0  0  0  0
   55.8450    5.1079   19.1239 H   0  0  0  0  0  0  0  0  0  0  0  0
   53.2795    1.7211   18.4177 H   0  0  0  0  0  0  0  0  0  0  0  0
   56.9995    2.1206   16.2718 H   0  0  0  0  0  0  0  0  0  0  0  0
   55.3411   -0.6809   15.2909 H   0  0  0  0  0  0  0  0  0  0  0  0
  1  2  1  0
  1  5  1  0
  2  3  1  0
  3  4  1  0
  2  6  1  0
  2  7  1  0
  8  5  1  0
  5  4  2  0
  4  9  1  0
  8 11  2  0
  9 10  2  0
 10 11  1  0
 11 12  1  0
 12 13  1  0
 13 14  1  0
 14 12  1  0
 12 15  1  0
 15 16  2  0
 15 17  1  0
 17 18  1  0
 19 18  2  0
 18 20  1  0
 19 23  1  0
 20 21  2  0
 21 22  1  0
 22 23  2  0
 22 24  1  0
 23 25  1  0
 27 25  1  0
 25 28  2  0
 26 27  2  0
 26 30  1  0
 28 29  1  0
 29 30  2  0
 29 31  1  0
 31 32  1  0
 31 33  2  0
  8 34  1  0
  9 35  1  0
 10 36  1  0
 13 37  1  0
 13 38  1  0
 14 39  1  0
 14 40  1  0
 17 41  1  0
 20 42  1  0
 21 43  1  0
 24 44  1  0
 24 45  1  0
 24 46  1  0
 26 47  1  0
 27 48  1  0
 28 49  1  0
 30 50  1  0
 32 51  1  0
M  END
> <Uni-Dock RESULT> 
ENERGY=   -4.919  LOWER_BOUND=    6.385  UPPER_BOUND=    9.539
INTER + INTRA:          -4.919
INTER:                  -4.919
INTRA:                   0.000
UNBOUND:                 0.000

$$$$

     RDKit          3D

 51 55  0  0  0  0  0  0  0  0999 V2000
   51.4232    9.6955   22.2049 O   0  0  0  0  0  0  0  0  0  0  0  0
   50.8200   10.7781   22.9286 C   0  0  0  0  0  0  0  0  0  0  0  0
   49.3878   10.8090   22.8864 O   0  0  0  0  0  0  0  0  0  0  0  0
   49.1509    9.7046   22.1318 C   0  0  0  0  0  0  0  0  0  0  0  0
   50.3073    9.0713   21.7428 C   0  0  0  0  0  0  0  0  0  0  0  0
   51.2123   10.7015   24.2244 F   0  0  0  0  0  0  0  0  0  0  0  0
   51.2932   11.9446   22.4259 F   0  0  0  0  0  0  0  0  0  0  0  0
   50.2900    7.9324   20.9629 C   0  0  0  0  0  0  0  0  0  0  0  0
   47.9131    9.2315   21.7629 C   0  0  0  0  0  0  0  0  0  0  0  0
   47.8711    8.0766   20.9746 C   0  0  0  0  0  0  0  0  0  0  0  0
   49.0493    7.4011   20.5599 C   0  0  0  0  0  0  0  0  0  0  0  0
   48.9495    6.1552   19.6800 C   0  0  0  0  0  0  0  0  0  0  0  0
   48.4096    4.8896   20.3458 C   0  0  0  0  0  0  0  0  0  0  0  0
   49.8535    4.9576   19.9671 C   0  0  0  0  0  0  0  0  0  0  0  0
   48.5436    6.3993   18.2390 C   0  0  0  0  0  0  0  0  0  0  0  0
   47.3720    6.2534   17.9270 O   0  0  0  0  0  0  0  0  0  0  0  0
   49.6027    6.8002   17.4580 N   0  0  0  0  0  0  0  0  0  0  0  0
   49.5420    7.0711   16.0873 C   0  0  0  0  0  0  0  0  0  0  0  0
   48.4239    6.8282   15.3883 N   0  0  0  0  0  0  0  0  0  0  0  0
   50.6848    7.5826   15.4881 C   0  0  0  0  0  0  0  0  0  0  0  0
   50.6653    7.8626   14.1238 C   0  0  0  0  0  0  0  0  0  0  0  0
   49.5117    7.6117   13.3772 C   0  0  0  0  0  0  0  0  0  0  0  0
   48.4032    7.0985   14.0588 C   0  0  0  0  0  0  0  0  0  0  0  0
   49.4925    7.9079   11.9066 C   0  0  0  0  0  0  0  0  0  0  0  0
   47.1297    6.7703   13.4061 C   0  0  0  0  0  0  0  0  0  0  0  0
   45.0695    7.4456   12.2935 C   0  0  0  0  0  0  0  0  0  0  0  0
   46.2782    7.7725   12.9132 C   0  0  0  0  0  0  0  0  0  0  0  0
   46.7293    5.4298   13.2774 C   0  0  0  0  0  0  0  0  0  0  0  0
   45.5202    5.0954   12.6540 C   0  0  0  0  0  0  0  0  0  0  0  0
   44.6915    6.1090   12.1601 C   0  0  0  0  0  0  0  0  0  0  0  0
   45.1689    3.6597   12.5316 C   0  0  0  0  0  0  0  0  0  0  0  0
   43.9523    3.4606   11.9925 O   0  0  0  0  0  0  0  0  0  0  0  0
   45.8722    2.7215   12.8581 O   0  0  0  0  0  0  0  0  0  0  0  0
   51.2234    7.4608   20.6739 H   0  0  0  0  0  0  0  0  0  0  0  0
   47.0009    9.7351   22.0658 H   0  0  0  0  0  0  0  0  0  0  0  0
   46.9004    7.6895   20.6585 H   0  0  0  0  0  0  0  0  0  0  0  0
   48.1565    4.9237   21.3991 H   0  0  0  0  0  0  0  0  0  0  0  0
   47.7516    4.2506   19.7626 H   0  0  0  0  0  0  0  0  0  0  0  0
   50.5753    5.0108   20.7751 H   0  0  0  0  0  0  0  0  0  0  0  0
   50.1745    4.3374   19.1364 H   0  0  0  0  0  0  0  0  0  0  0  0
   50.4844    6.9491   17.9211 H   0  0  0  0  0  0  0  0  0  0  0  0
   51.5859    7.7747   16.0592 H   0  0  0  0  0  0  0  0  0  0  0  0
   51.5545    8.2687   13.6489 H   0  0  0  0  0  0  0  0  0  0  0  0
   50.5082    8.0394   11.5156 H   0  0  0  0  0  0  0  0  0  0  0  0
   49.0432    7.0824   11.3452 H   0  0  0  0  0  0  0  0  0  0  0  0
   48.9342    8.8289   11.7127 H   0  0  0  0  0  0  0  0  0  0  0  0
   44.4192    8.2345   11.9230 H   0  0  0  0  0  0  0  0  0  0  0  0
   46.5497    8.8207   13.0270 H   0  0  0  0  0  0  0  0  0  0  0  0
   47.3675    4.6424   13.6778 H   0  0  0  0  0  0  0  0  0  0  0  0
   43.7482    5.8676   11.6772 H   0  0  0  0  0  0  0  0  0  0  0  0
   43.8629    2.4836   11.9883 H   0  0  0  0  0  0  0  0  0  0  0  0
  1  2  1  0
  1  5  1  0
  2  3  1  0
  3  4  1  0
  2  6  1  0
  2  7  1  0
  8  5  1  0
  5  4  2  0
  4  9  1  0
  8 11  2  0
  9 10  2  0
 10 11  1  0
 11 12  1  0
 12 13  1  0
 13 14  1  0
 14 12  1  0
 12 15  1  0
 15 16  2  0
 15 17  1  0
 17 18  1  0
 19 18  2  0
 18 20  1  0
 19 23  1  0
 20 21  2  0
 21 22  1  0
 22 23  2  0
 22 24  1  0
 23 25  1  0
 27 25  1  0
 25 28  2  0
 26 27  2  0
 26 30  1  0
 28 29  1  0
 29 30  2  0
 29 31  1  0
 31 32  1  0
 31 33  2  0
  8 34  1  0
  9 35  1  0
 10 36  1  0
 13 37  1  0
 13 38  1  0
 14 39  1  0
 14 40  1  0
 17 41  1  0
 20 42  1  0
 21 43  1  0
 24 44  1  0
 24 45  1  0
 24 46  1  0
 26 47  1  0
 27 48  1  0
 28 49  1  0
 30 50  1  0
 32 51  1  0
M  END
> <Uni-Dock RESULT> 
ENERGY=   -4.800  LOWER_BOUND=    4.557  UPPER_BOUND=    9.861
INTER + INTRA:          -4.800
INTER:                  -4.800
INTRA:                   0.000
UNBOUND:                 0.000

$$$$

     RDKit          3D

 51 55  0  0  0  0  0  0  0  0999 V2000
   50.2957   13.3948   21.2298 O   0  0  0  0  0  0  0  0  0  0  0  0
   49.5071   14.5778   21.4251 C   0  0  0  0  0  0  0  0  0  0  0  0
   48.1094   14.4248   21.1475 O   0  0  0  0  0  0  0  0  0  0  0  0
   48.0815   13.1124   20.7977 C   0  0  0  0  0  0  0  0  0  0  0  0
   49.3240   12.5261   20.8430 C   0  0  0  0  0  0  0  0  0  0  0  0
   49.6501   14.9836   22.7111 F   0  0  0  0  0  0  0  0  0  0  0  0
   50.0017   15.5575   20.6294 F   0  0  0  0  0  0  0  0  0  0  0  0
   49.5181   11.1988   20.5169 C   0  0  0  0  0  0  0  0  0  0  0  0
   46.9644   12.4018   20.4250 C   0  0  0  0  0  0  0  0  0  0  0  0
   47.1367   11.0539   20.0927 C   0  0  0  0  0  0  0  0  0  0  0  0
   48.4078   10.4221   20.1325 C   0  0  0  0  0  0  0  0  0  0  0  0
   48.5459    8.9518   19.7381 C   0  0  0  0  0  0  0  0  0  0  0  0
   47.9605    7.9258   20.7083 C   0  0  0  0  0  0  0  0  0  0  0  0
   49.4440    8.0328   20.5645 C   0  0  0  0  0  0  0  0  0  0  0  0
   48.4079    8.6529   18.2574 C   0  0  0  0  0  0  0  0  0  0  0  0
   47.3265    8.2751   17.8337 O   0  0  0  0  0  0  0  0  0  0  0  0
   49.5720    8.8922   17.5647 N   0  0  0  0  0  0  0  0  0  0  0  0
   49.7574    8.6824   16.1945 C   0  0  0  0  0  0  0  0  0  0  0  0
   48.8074    8.0913   15.4557 N   0  0  0  0  0  0  0  0  0  0  0  0
   50.9630    9.0956   15.6444 C   0  0  0  0  0  0  0  0  0  0  0  0
   51.1872    8.9012   14.2835 C   0  0  0  0  0  0  0  0  0  0  0  0
   50.2119    8.2826   13.4979 C   0  0  0  0  0  0  0  0  0  0  0  0
   49.0244    7.8993   14.1301 C   0  0  0  0  0  0  0  0  0  0  0  0
   50.4555    8.0680   12.0332 C   0  0  0  0  0  0  0  0  0  0  0  0
   47.9180    7.2255   13.4391 C   0  0  0  0  0  0  0  0  0  0  0  0
   46.0720    7.2454   11.8484 C   0  0  0  0  0  0  0  0  0  0  0  0
   47.1212    7.8992   12.4990 C   0  0  0  0  0  0  0  0  0  0  0  0
   47.6242    5.8815   13.7237 C   0  0  0  0  0  0  0  0  0  0  0  0
   46.5757    5.2193   13.0721 C   0  0  0  0  0  0  0  0  0  0  0  0
   45.8008    5.9060   12.1309 C   0  0  0  0  0  0  0  0  0  0  0  0
   46.3341    3.7940   13.4036 C   0  0  0  0  0  0  0  0  0  0  0  0
   45.2548    3.2856   12.7815 O   0  0  0  0  0  0  0  0  0  0  0  0
   47.0136    3.1073   14.1440 O   0  0  0  0  0  0  0  0  0  0  0  0
   50.5140   10.7709   20.5628 H   0  0  0  0  0  0  0  0  0  0  0  0
   45.9848   12.8668   20.3843 H   0  0  0  0  0  0  0  0  0  0  0  0
   46.2666   10.4726   19.7813 H   0  0  0  0  0  0  0  0  0  0  0  0
   47.5107    8.2787   21.6292 H   0  0  0  0  0  0  0  0  0  0  0  0
   47.4615    7.0566   20.2877 H   0  0  0  0  0  0  0  0  0  0  0  0
   49.9953    8.4362   21.4071 H   0  0  0  0  0  0  0  0  0  0  0  0
   49.9506    7.2137   20.0644 H   0  0  0  0  0  0  0  0  0  0  0  0
   50.3402    9.2892   18.0808 H   0  0  0  0  0  0  0  0  0  0  0  0
   51.7274    9.5711   16.2484 H   0  0  0  0  0  0  0  0  0  0  0  0
   52.1264    9.2274   13.8447 H   0  0  0  0  0  0  0  0  0  0  0  0
   51.5181    8.1801   11.7877 H   0  0  0  0  0  0  0  0  0  0  0  0
   50.1674    7.0560   11.7309 H   0  0  0  0  0  0  0  0  0  0  0  0
   49.8940    8.7997   11.4443 H   0  0  0  0  0  0  0  0  0  0  0  0
   45.4611    7.7839   11.1277 H   0  0  0  0  0  0  0  0  0  0  0  0
   47.3077    8.9498   12.2820 H   0  0  0  0  0  0  0  0  0  0  0  0
   48.2175    5.3529   14.4695 H   0  0  0  0  0  0  0  0  0  0  0  0
   44.9811    5.4088   11.6189 H   0  0  0  0  0  0  0  0  0  0  0  0
   45.2221    2.3595   13.1039 H   0  0  0  0  0  0  0  0  0  0  0  0
  1  2  1  0
  1  5  1  0
  2  3  1  0
  3  4  1  0
  2  6  1  0
  2  7  1  0
  8  5  1  0
  5  4  2  0
  4  9  1  0
  8 11  2  0
  9 10  2  0
 10 11  1  0
 11 12  1  0
 12 13  1  0
 13 14  1  0
 14 12  1  0
 12 15  1  0
 15 16  2  0
 15 17  1  0
 17 18  1  0
 19 18  2  0
 18 20  1  0
 19 23  1  0
 20 21  2  0
 21 22  1  0
 22 23  2  0
 22 24  1  0
 23 25  1  0
 27 25  1  0
 25 28  2  0
 26 27  2  0
 26 30  1  0
 28 29  1  0
 29 30  2  0
 29 31  1  0
 31 32  1  0
 31 33  2  0
  8 34  1  0
  9 35  1  0
 10 36  1  0
 13 37  1  0
 13 38  1  0
 14 39  1  0
 14 40  1  0
 17 41  1  0
 20 42  1  0
 21 43  1  0
 24 44  1  0
 24 45  1  0
 24 46  1  0
 26 47  1  0
 27 48  1  0
 28 49  1  0
 30 50  1  0
 32 51  1  0
M  END
> <Uni-Dock RESULT> 
ENERGY=   -4.715  LOWER_BOUND=    4.267  UPPER_BOUND=    9.919
INTER + INTRA:          -4.715
INTER:                  -4.715
INTRA:                   0.000
UNBOUND:                 0.000

$$$$

     RDKit          3D

 51 55  0  0  0  0  0  0  0  0999 V2000
   47.1929   11.0748   21.3752 O   0  0  0  0  0  0  0  0  0  0  0  0
   47.2653   12.3013   20.6335 C   0  0  0  0  0  0  0  0  0  0  0  0
   47.6200   12.1523   19.2529 O   0  0  0  0  0  0  0  0  0  0  0  0
   47.7406   10.8009   19.1857 C   0  0  0  0  0  0  0  0  0  0  0  0
   47.4991   10.1873   20.3919 C   0  0  0  0  0  0  0  0  0  0  0  0
   46.0608   12.9201   20.7055 F   0  0  0  0  0  0  0  0  0  0  0  0
   48.1764   13.1085   21.2299 F   0  0  0  0  0  0  0  0  0  0  0  0
   47.5767    8.8174   20.5434 C   0  0  0  0  0  0  0  0  0  0  0  0
   48.0714   10.0766   18.0641 C   0  0  0  0  0  0  0  0  0  0  0  0
   48.1532    8.6861   18.1935 C   0  0  0  0  0  0  0  0  0  0  0  0
   47.9071    8.0257   19.4263 C   0  0  0  0  0  0  0  0  0  0  0  0
   48.0314    6.5052   19.5199 C   0  0  0  0  0  0  0  0  0  0  0  0
   46.9480    5.6862   18.8185 C   0  0  0  0  0  0  0  0  0  0  0  0
   46.9925    5.7132   20.3119 C   0  0  0  0  0  0  0  0  0  0  0  0
   49.4451    5.9573   19.4717 C   0  0  0  0  0  0  0  0  0  0  0  0
   49.8802    5.5503   18.4056 O   0  0  0  0  0  0  0  0  0  0  0  0
   50.0762    6.0301   20.6918 N   0  0  0  0  0  0  0  0  0  0  0  0
   51.3714    5.5776   20.9625 C   0  0  0  0  0  0  0  0  0  0  0  0
   52.0694    4.9009   20.0390 N   0  0  0  0  0  0  0  0  0  0  0  0
   51.8891    5.8448   22.2224 C   0  0  0  0  0  0  0  0  0  0  0  0
   53.1749    5.4077   22.5318 C   0  0  0  0  0  0  0  0  0  0  0  0
   53.9160    4.6967   21.5850 C   0  0  0  0  0  0  0  0  0  0  0  0
   53.3215    4.4726   20.3388 C   0  0  0  0  0  0  0  0  0  0  0  0
   55.2988    4.2209   21.9201 C   0  0  0  0  0  0  0  0  0  0  0  0
   53.9703    3.7286   19.2521 C   0  0  0  0  0  0  0  0  0  0  0  0
   55.6792    3.5364   17.5255 C   0  0  0  0  0  0  0  0  0  0  0  0
   55.0710    4.2558   18.5570 C   0  0  0  0  0  0  0  0  0  0  0  0
   53.4831    2.4663   18.8739 C   0  0  0  0  0  0  0  0  0  0  0  0
   54.0907    1.7385   17.8426 C   0  0  0  0  0  0  0  0  0  0  0  0
   55.1930    2.2776   17.1702 C   0  0  0  0  0  0  0  0  0  0  0  0
   53.5394    0.4026   17.5092 C   0  0  0  0  0  0  0  0  0  0  0  0
   54.1468   -0.1676   16.4527 O   0  0  0  0  0  0  0  0  0  0  0  0
   52.6417   -0.1680   18.1008 O   0  0  0  0  0  0  0  0  0  0  0  0
   47.3809    8.3687   21.5116 H   0  0  0  0  0  0  0  0  0  0  0  0
   48.2672   10.5621   17.1137 H   0  0  0  0  0  0  0  0  0  0  0  0
   48.4267    8.0909   17.3200 H   0  0  0  0  0  0  0  0  0  0  0  0
   46.1390    6.2104   18.3229 H   0  0  0  0  0  0  0  0  0  0  0  0
   47.2507    4.7753   18.3085 H   0  0  0  0  0  0  0  0  0  0  0  0
   46.1914    6.2375   20.8217 H   0  0  0  0  0  0  0  0  0  0  0  0
   47.3039    4.8016   20.8118 H   0  0  0  0  0  0  0  0  0  0  0  0
   49.5778    6.4833   21.4403 H   0  0  0  0  0  0  0  0  0  0  0  0
   51.3182    6.3908   22.9648 H   0  0  0  0  0  0  0  0  0  0  0  0
   53.5890    5.6184   23.5143 H   0  0  0  0  0  0  0  0  0  0  0  0
   55.4767    4.2503   23.0015 H   0  0  0  0  0  0  0  0  0  0  0  0
   55.4444    3.1827   21.6049 H   0  0  0  0  0  0  0  0  0  0  0  0
   56.0462    4.8582   21.4376 H   0  0  0  0  0  0  0  0  0  0  0  0
   56.5267    3.9623   16.9936 H   0  0  0  0  0  0  0  0  0  0  0  0
   55.4499    5.2449   18.8094 H   0  0  0  0  0  0  0  0  0  0  0  0
   52.6139    2.0553   19.3869 H   0  0  0  0  0  0  0  0  0  0  0  0
   55.6741    1.7282   16.3652 H   0  0  0  0  0  0  0  0  0  0  0  0
   53.6739   -1.0213   16.3524 H   0  0  0  0  0  0  0  0  0  0  0  0
  1  2  1  0
  1  5  1  0
  2  3  1  0
  3  4  1  0
  2  6  1  0
  2  7  1  0
  8  5  1  0
  5  4  2  0
  4  9  1  0
  8 11  2  0
  9 10  2  0
 10 11  1  0
 11 12  1  0
 12 13  1  0
 13 14  1  0
 14 12  1  0
 12 15  1  0
 15 16  2  0
 15 17  1  0
 17 18  1  0
 19 18  2  0
 18 20  1  0
 19 23  1  0
 20 21  2  0
 21 22  1  0
 22 23  2  0
 22 24  1  0
 23 25  1  0
 27 25  1  0
 25 28  2  0
 26 27  2  0
 26 30  1  0
 28 29  1  0
 29 30  2  0
 29 31  1  0
 31 32  1  0
 31 33  2  0
  8 34  1  0
  9 35  1  0
 10 36  1  0
 13 37  1  0
 13 38  1  0
 14 39  1  0
 14 40  1  0
 17 41  1  0
 20 42  1  0
 21 43  1  0
 24 44  1  0
 24 45  1  0
 24 46  1  0
 26 47  1  0
 27 48  1  0
 28 49  1  0
 30 50  1  0
 32 51  1  0
M  END
> <Uni-Dock RESULT> 
ENERGY=   -4.521  LOWER_BOUND=    6.299  UPPER_BOUND=    9.816
INTER + INTRA:          -4.521
INTER:                  -4.521
INTRA:                   0.000
UNBOUND:                 0.000

$$$$

     RDKit          3D

 51 55  0  0  0  0  0  0  0  0999 V2000
   53.7116    5.0802    9.1090 O   0  0  0  0  0  0  0  0  0  0  0  0
   54.0303    4.8992    7.7215 C   0  0  0  0  0  0  0  0  0  0  0  0
   53.9829    6.0931    6.9301 O   0  0  0  0  0  0  0  0  0  0  0  0
   53.6442    6.9961    7.8868 C   0  0  0  0  0  0  0  0  0  0  0  0
   53.4885    6.4212    9.1257 C   0  0  0  0  0  0  0  0  0  0  0  0
   55.2755    4.3701    7.6309 F   0  0  0  0  0  0  0  0  0  0  0  0
   53.1637    3.9980    7.1977 F   0  0  0  0  0  0  0  0  0  0  0  0
   53.1371    7.1622   10.2362 C   0  0  0  0  0  0  0  0  0  0  0  0
   53.4583    8.3449    7.6916 C   0  0  0  0  0  0  0  0  0  0  0  0
   53.1044    9.1163    8.8036 C   0  0  0  0  0  0  0  0  0  0  0  0
   52.9387    8.5495   10.0950 C   0  0  0  0  0  0  0  0  0  0  0  0
   52.5293    9.4328   11.2733 C   0  0  0  0  0  0  0  0  0  0  0  0
   53.5829   10.4106   11.7932 C   0  0  0  0  0  0  0  0  0  0  0  0
   53.2006    9.2338   12.6311 C   0  0  0  0  0  0  0  0  0  0  0  0
   51.0909    9.9144   11.2648 C   0  0  0  0  0  0  0  0  0  0  0  0
   50.8485   11.0299   10.8308 O   0  0  0  0  0  0  0  0  0  0  0  0
   50.2184    8.9645   11.7434 N   0  0  0  0  0  0  0  0  0  0  0  0
   48.8366    9.1297   11.8816 C   0  0  0  0  0  0  0  0  0  0  0  0
   48.2622   10.3212   11.6623 N   0  0  0  0  0  0  0  0  0  0  0  0
   48.0980    8.0195   12.2670 C   0  0  0  0  0  0  0  0  0  0  0  0
   46.7190    8.1443   12.4187 C   0  0  0  0  0  0  0  0  0  0  0  0
   46.1026    9.3784   12.1998 C   0  0  0  0  0  0  0  0  0  0  0  0
   46.9193   10.4455   11.8111 C   0  0  0  0  0  0  0  0  0  0  0  0
   44.6181    9.5143   12.3686 C   0  0  0  0  0  0  0  0  0  0  0  0
   46.4176   11.8026   11.5618 C   0  0  0  0  0  0  0  0  0  0  0  0
   45.1467   13.3913   10.2203 C   0  0  0  0  0  0  0  0  0  0  0  0
   45.6180   12.0955   10.4449 C   0  0  0  0  0  0  0  0  0  0  0  0
   46.7479   12.8481   12.4401 C   0  0  0  0  0  0  0  0  0  0  0  0
   46.2756   14.1488   12.2224 C   0  0  0  0  0  0  0  0  0  0  0  0
   45.4714   14.4169   11.1092 C   0  0  0  0  0  0  0  0  0  0  0  0
   46.6439   15.2006   13.2011 C   0  0  0  0  0  0  0  0  0  0  0  0
   46.2056   16.4229   12.8485 O   0  0  0  0  0  0  0  0  0  0  0  0
   47.2655   15.0301   14.2336 O   0  0  0  0  0  0  0  0  0  0  0  0
   53.0217    6.6734   11.1979 H   0  0  0  0  0  0  0  0  0  0  0  0
   53.5761    8.7970    6.7121 H   0  0  0  0  0  0  0  0  0  0  0  0
   52.9388   10.1873    8.6708 H   0  0  0  0  0  0  0  0  0  0  0  0
   54.5639   10.4113   11.3324 H   0  0  0  0  0  0  0  0  0  0  0  0
   53.2499   11.3972   12.1048 H   0  0  0  0  0  0  0  0  0  0  0  0
   53.9422    8.4519   12.7543 H   0  0  0  0  0  0  0  0  0  0  0  0
   52.6262    9.4349   13.5297 H   0  0  0  0  0  0  0  0  0  0  0  0
   50.6028    8.0630   11.9748 H   0  0  0  0  0  0  0  0  0  0  0  0
   48.5695    7.0596   12.4446 H   0  0  0  0  0  0  0  0  0  0  0  0
   46.1334    7.2779   12.7146 H   0  0  0  0  0  0  0  0  0  0  0  0
   44.2036    8.6667   12.9269 H   0  0  0  0  0  0  0  0  0  0  0  0
   44.3679   10.4171   12.9350 H   0  0  0  0  0  0  0  0  0  0  0  0
   44.1268    9.5475   11.3914 H   0  0  0  0  0  0  0  0  0  0  0  0
   44.5338   13.6019    9.3471 H   0  0  0  0  0  0  0  0  0  0  0  0
   45.3721   11.3104    9.7317 H   0  0  0  0  0  0  0  0  0  0  0  0
   47.3885   12.6414   13.2972 H   0  0  0  0  0  0  0  0  0  0  0  0
   45.0996   15.4211   10.9230 H   0  0  0  0  0  0  0  0  0  0  0  0
   46.5303   16.9985   13.5736 H   0  0  0  0  0  0  0  0  0  0  0  0
  1  2  1  0
  1  5  1  0
  2  3  1  0
  3  4  1  0
  2  6  1  0
  2  7  1  0
  8  5  1  0
  5  4  2  0
  4  9  1  0
  8 11  2  0
  9 10  2  0
 10 11  1  0
 11 12  1  0
 12 13  1  0
 13 14  1  0
 14 12  1  0
 12 15  1  0
 15 16  2  0
 15 17  1  0
 17 18  1  0
 19 18  2  0
 18 20  1  0
 19 23  1  0
 20 21  2  0
 21 22  1  0
 22 23  2  0
 22 24  1  0
 23 25  1  0
 27 25  1  0
 25 28  2  0
 26 27  2  0
 26 30  1  0
 28 29  1  0
 29 30  2  0
 29 31  1  0
 31 32  1  0
 31 33  2  0
  8 34  1  0
  9 35  1  0
 10 36  1  0
 13 37  1  0
 13 38  1  0
 14 39  1  0
 14 40  1  0
 17 41  1  0
 20 42  1  0
 21 43  1  0
 24 44  1  0
 24 45  1  0
 24 46  1  0
 26 47  1  0
 27 48  1  0
 28 49  1  0
 30 50  1  0
 32 51  1  0
M  END
> <Uni-Dock RESULT> 
ENERGY=   -4.502  LOWER_BOUND=    6.469  UPPER_BOUND=    8.196
INTER + INTRA:          -4.502
INTER:                  -4.502
INTRA:                   0.000
UNBOUND:                 0.000

$$$$

     RDKit          3D

 51 55  0  0  0  0  0  0  0  0999 V2000
   39.3469   11.8220   14.2879 O   0  0  0  0  0  0  0  0  0  0  0  0
   38.9990   12.7175   15.3540 C   0  0  0  0  0  0  0  0  0  0  0  0
   39.7304   13.9500   15.3705 O   0  0  0  0  0  0  0  0  0  0  0  0
   40.5129   13.7737   14.2742 C   0  0  0  0  0  0  0  0  0  0  0  0
   40.2966   12.5638   13.6585 C   0  0  0  0  0  0  0  0  0  0  0  0
   37.6761   13.0016   15.2637 F   0  0  0  0  0  0  0  0  0  0  0  0
   39.2009   12.0786   16.5323 F   0  0  0  0  0  0  0  0  0  0  0  0
   40.9949   12.1827   12.5304 C   0  0  0  0  0  0  0  0  0  0  0  0
   41.4391   14.6696   13.7932 C   0  0  0  0  0  0  0  0  0  0  0  0
   42.1570   14.3058   12.6490 C   0  0  0  0  0  0  0  0  0  0  0  0
   41.9528   13.0637   11.9917 C   0  0  0  0  0  0  0  0  0  0  0  0
   42.7794   12.7046   10.7572 C   0  0  0  0  0  0  0  0  0  0  0  0
   42.4680   13.4794    9.4768 C   0  0  0  0  0  0  0  0  0  0  0  0
   42.0982   12.0343    9.5653 C   0  0  0  0  0  0  0  0  0  0  0  0
   44.2347   12.3646   11.0169 C   0  0  0  0  0  0  0  0  0  0  0  0
   45.0768   13.2356   10.8630 O   0  0  0  0  0  0  0  0  0  0  0  0
   44.4012   11.0661   11.4396 N   0  0  0  0  0  0  0  0  0  0  0  0
   45.6273   10.4590   11.7288 C   0  0  0  0  0  0  0  0  0  0  0  0
   46.7826   11.0939   11.4839 N   0  0  0  0  0  0  0  0  0  0  0  0
   45.5935    9.1772   12.2605 C   0  0  0  0  0  0  0  0  0  0  0  0
   46.7940    8.5372   12.5592 C   0  0  0  0  0  0  0  0  0  0  0  0
   48.0081    9.1799   12.3065 C   0  0  0  0  0  0  0  0  0  0  0  0
   47.9534   10.4716   11.7723 C   0  0  0  0  0  0  0  0  0  0  0  0
   49.3014    8.4884   12.6228 C   0  0  0  0  0  0  0  0  0  0  0  0
   49.1440   11.2635   11.4398 C   0  0  0  0  0  0  0  0  0  0  0  0
   51.1115   12.5363   12.1088 C   0  0  0  0  0  0  0  0  0  0  0  0
   49.9811   11.7851   12.4397 C   0  0  0  0  0  0  0  0  0  0  0  0
   49.4603   11.5299   10.0971 C   0  0  0  0  0  0  0  0  0  0  0  0
   50.5942   12.2796    9.7587 C   0  0  0  0  0  0  0  0  0  0  0  0
   51.4209   12.7809   10.7702 C   0  0  0  0  0  0  0  0  0  0  0  0
   50.8817   12.5047    8.3212 C   0  0  0  0  0  0  0  0  0  0  0  0
   51.9446   13.3039    8.1168 O   0  0  0  0  0  0  0  0  0  0  0  0
   50.2616   12.0331    7.3860 O   0  0  0  0  0  0  0  0  0  0  0  0
   40.7982   11.2189   12.0727 H   0  0  0  0  0  0  0  0  0  0  0  0
   41.6131   15.6222   14.2830 H   0  0  0  0  0  0  0  0  0  0  0  0
   42.9069   14.9952   12.2561 H   0  0  0  0  0  0  0  0  0  0  0  0
   41.6694   14.2120    9.4937 H   0  0  0  0  0  0  0  0  0  0  0  0
   43.3016   13.7618    8.8391 H   0  0  0  0  0  0  0  0  0  0  0  0
   41.0412   11.7957    9.6148 H   0  0  0  0  0  0  0  0  0  0  0  0
   42.6733   11.3409    8.9600 H   0  0  0  0  0  0  0  0  0  0  0  0
   43.5674   10.5221   11.5913 H   0  0  0  0  0  0  0  0  0  0  0  0
   44.6556    8.6692   12.4541 H   0  0  0  0  0  0  0  0  0  0  0  0
   46.7752    7.5359   12.9811 H   0  0  0  0  0  0  0  0  0  0  0  0
   49.1497    7.4128   12.7704 H   0  0  0  0  0  0  0  0  0  0  0  0
   50.0160    8.5959   11.8005 H   0  0  0  0  0  0  0  0  0  0  0  0
   49.7353    8.8972   13.5405 H   0  0  0  0  0  0  0  0  0  0  0  0
   51.7455   12.9379   12.8958 H   0  0  0  0  0  0  0  0  0  0  0  0
   49.7426   11.6194   13.4891 H   0  0  0  0  0  0  0  0  0  0  0  0
   48.8061   11.1535    9.3110 H   0  0  0  0  0  0  0  0  0  0  0  0
   52.3025   13.3678   10.5257 H   0  0  0  0  0  0  0  0  0  0  0  0
   51.9985   13.3645    7.1391 H   0  0  0  0  0  0  0  0  0  0  0  0
  1  2  1  0
  1  5  1  0
  2  3  1  0
  3  4  1  0
  2  6  1  0
  2  7  1  0
  8  5  1  0
  5  4  2  0
  4  9  1  0
  8 11  2  0
  9 10  2  0
 10 11  1  0
 11 12  1  0
 12 13  1  0
 13 14  1  0
 14 12  1  0
 12 15  1  0
 15 16  2  0
 15 17  1  0
 17 18  1  0
 19 18  2  0
 18 20  1  0
 19 23  1  0
 20 21  2  0
 21 22  1  0
 22 23  2  0
 22 24  1  0
 23 25  1  0
 27 25  1  0
 25 28  2  0
 26 27  2  0
 26 30  1  0
 28 29  1  0
 29 30  2  0
 29 31  1  0
 31 32  1  0
 31 33  2  0
  8 34  1  0
  9 35  1  0
 10 36  1  0
 13 37  1  0
 13 38  1  0
 14 39  1  0
 14 40  1  0
 17 41  1  0
 20 42  1  0
 21 43  1  0
 24 44  1  0
 24 45  1  0
 24 46  1  0
 26 47  1  0
 27 48  1  0
 28 49  1  0
 30 50  1  0
 32 51  1  0
M  END
> <Uni-Dock RESULT> 
ENERGY=   -4.453  LOWER_BOUND=    7.006  UPPER_BOUND=    9.303
INTER + INTRA:          -4.453
INTER:                  -4.453
INTRA:                   0.000
UNBOUND:                 0.000

$$$$
