
     RDKit          3D

 51 55  0  0  0  0  0  0  0  0999 V2000
   46.7699    4.1650    6.7172 O   0  0  0  0  0  0  0  0  0  0  0  0
   47.0083    2.8811    6.1256 C   0  0  0  0  0  0  0  0  0  0  0  0
   46.5013    1.7671    6.8747 O   0  0  0  0  0  0  0  0  0  0  0  0
   45.9529    2.4242    7.9302 C   0  0  0  0  0  0  0  0  0  0  0  0
   46.1048    3.7871    7.8411 C   0  0  0  0  0  0  0  0  0  0  0  0
   48.3450    2.7192    5.9661 F   0  0  0  0  0  0  0  0  0  0  0  0
   46.4438    2.8620    4.8928 F   0  0  0  0  0  0  0  0  0  0  0  0
   45.6187    4.6361    8.8140 C   0  0  0  0  0  0  0  0  0  0  0  0
   45.3088    1.8384    8.9954 C   0  0  0  0  0  0  0  0  0  0  0  0
   44.8074    2.6813    9.9944 C   0  0  0  0  0  0  0  0  0  0  0  0
   44.9453    4.0919    9.9259 C   0  0  0  0  0  0  0  0  0  0  0  0
   44.4082    5.0069   11.0257 C   0  0  0  0  0  0  0  0  0  0  0  0
   43.2457    5.9259   10.6482 C   0  0  0  0  0  0  0  0  0  0  0  0
   42.9984    4.7741   11.5676 C   0  0  0  0  0  0  0  0  0  0  0  0
   45.4462    5.5725   11.9758 C   0  0  0  0  0  0  0  0  0  0  0  0
   45.9009    6.6845   11.7550 O   0  0  0  0  0  0  0  0  0  0  0  0
   45.7587    4.6970   12.9907 N   0  0  0  0  0  0  0  0  0  0  0  0
   46.6619    4.9487   14.0286 C   0  0  0  0  0  0  0  0  0  0  0  0
   47.2426    6.1501   14.1559 N   0  0  0  0  0  0  0  0  0  0  0  0
   46.9183    3.9142   14.9163 C   0  0  0  0  0  0  0  0  0  0  0  0
   47.8276    4.1233   15.9492 C   0  0  0  0  0  0  0  0  0  0  0  0
   48.4641    5.3616   16.0825 C   0  0  0  0  0  0  0  0  0  0  0  0
   48.1167    6.3682   15.1728 C   0  0  0  0  0  0  0  0  0  0  0  0
   49.4630    5.5558   17.1855 C   0  0  0  0  0  0  0  0  0  0  0  0
   48.6548    7.7408   15.2016 C   0  0  0  0  0  0  0  0  0  0  0  0
   49.7518    9.5949   14.0462 C   0  0  0  0  0  0  0  0  0  0  0  0
   49.2399    8.2954   14.0490 C   0  0  0  0  0  0  0  0  0  0  0  0
   48.5687    8.5484   16.3491 C   0  0  0  0  0  0  0  0  0  0  0  0
   49.0833    9.8535   16.3544 C   0  0  0  0  0  0  0  0  0  0  0  0
   49.6790   10.3719   15.2000 C   0  0  0  0  0  0  0  0  0  0  0  0
   49.0119   10.7196   17.5556 C   0  0  0  0  0  0  0  0  0  0  0  0
   48.4575   10.1022   18.6145 O   0  0  0  0  0  0  0  0  0  0  0  0
   49.4064   11.8683   17.6338 O   0  0  0  0  0  0  0  0  0  0  0  0
   45.7606    5.7108    8.7274 H   0  0  0  0  0  0  0  0  0  0  0  0
   45.1930    0.7618    9.0576 H   0  0  0  0  0  0  0  0  0  0  0  0
   44.2932    2.2323   10.8420 H   0  0  0  0  0  0  0  0  0  0  0  0
   42.8440    5.8724    9.6426 H   0  0  0  0  0  0  0  0  0  0  0  0
   43.2375    6.9285   11.0645 H   0  0  0  0  0  0  0  0  0  0  0  0
   42.4054    3.9533   11.1813 H   0  0  0  0  0  0  0  0  0  0  0  0
   42.7958    5.0070   12.6079 H   0  0  0  0  0  0  0  0  0  0  0  0
   45.3246    3.7885   12.9645 H   0  0  0  0  0  0  0  0  0  0  0  0
   46.4389    2.9472   14.8147 H   0  0  0  0  0  0  0  0  0  0  0  0
   48.0456    3.3126   16.6405 H   0  0  0  0  0  0  0  0  0  0  0  0
   49.8621    4.5940   17.5266 H   0  0  0  0  0  0  0  0  0  0  0  0
   50.3207    6.1446   16.8447 H   0  0  0  0  0  0  0  0  0  0  0  0
   48.9945    6.0498   18.0417 H   0  0  0  0  0  0  0  0  0  0  0  0
   50.1946   10.0002   13.1400 H   0  0  0  0  0  0  0  0  0  0  0  0
   49.2813    7.7064   13.1325 H   0  0  0  0  0  0  0  0  0  0  0  0
   48.0771    8.1618   17.2387 H   0  0  0  0  0  0  0  0  0  0  0  0
   50.0747   11.3855   15.1916 H   0  0  0  0  0  0  0  0  0  0  0  0
   48.4717   10.7888   19.3140 H   0  0  0  0  0  0  0  0  0  0  0  0
  1  2  1  0
  1  5  1  0
  2  3  1  0
  3  4  1  0
  2  6  1  0
  2  7  1  0
  8  5  1  0
  5  4  2  0
  4  9  1  0
  8 11  2  0
  9 10  2  0
 10 11  1  0
 11 12  1  0
 12 13  1  0
 13 14  1  0
 14 12  1  0
 12 15  1  0
 15 16  2  0
 15 17  1  0
 17 18  1  0
 19 18  2  0
 18 20  1  0
 19 23  1  0
 20 21  2  0
 21 22  1  0
 22 23  2  0
 22 24  1  0
 23 25  1  0
 27 25  1  0
 25 28  2  0
 26 27  2  0
 26 30  1  0
 28 29  1  0
 29 30  2  0
 29 31  1  0
 31 32  1  0
 31 33  2  0
  8 34  1  0
  9 35  1  0
 10 36  1  0
 13 37  1  0
 13 38  1  0
 14 39  1  0
 14 40  1  0
 17 41  1  0
 20 42  1  0
 21 43  1  0
 24 44  1  0
 24 45  1  0
 24 46  1  0
 26 47  1  0
 27 48  1  0
 28 49  1  0
 30 50  1  0
 32 51  1  0
M  END
> <Uni-Dock RESULT> 
ENERGY=   -7.316  LOWER_BOUND=    0.000  UPPER_BOUND=    0.000
INTER + INTRA:          -7.316
INTER:                  -7.316
INTRA:                   0.000
UNBOUND:                 0.000

$$$$

     RDKit          3D

 51 55  0  0  0  0  0  0  0  0999 V2000
   44.4135    5.4784   12.1393 O   0  0  0  0  0  0  0  0  0  0  0  0
   43.2934    6.0640   11.4628 C   0  0  0  0  0  0  0  0  0  0  0  0
   43.3744    7.4848   11.2781 O   0  0  0  0  0  0  0  0  0  0  0  0
   44.5760    7.7294   11.8637 C   0  0  0  0  0  0  0  0  0  0  0  0
   45.1673    6.5895   12.3530 C   0  0  0  0  0  0  0  0  0  0  0  0
   42.1684    5.7855   12.1665 F   0  0  0  0  0  0  0  0  0  0  0  0
   43.1699    5.4792   10.2456 F   0  0  0  0  0  0  0  0  0  0  0  0
   46.3927    6.6227   12.9861 C   0  0  0  0  0  0  0  0  0  0  0  0
   45.1769    8.9613   11.9818 C   0  0  0  0  0  0  0  0  0  0  0  0
   46.4212    9.0183   12.6209 C   0  0  0  0  0  0  0  0  0  0  0  0
   47.0573    7.8569   13.1310 C   0  0  0  0  0  0  0  0  0  0  0  0
   48.4093    7.9261   13.8399 C   0  0  0  0  0  0  0  0  0  0  0  0
   49.5910    7.2619   13.1320 C   0  0  0  0  0  0  0  0  0  0  0  0
   49.5354    8.7526   13.2200 C   0  0  0  0  0  0  0  0  0  0  0  0
   48.3659    7.8121   15.3515 C   0  0  0  0  0  0  0  0  0  0  0  0
   48.5457    6.7179   15.8638 O   0  0  0  0  0  0  0  0  0  0  0  0
   48.0946    9.0167   15.9594 N   0  0  0  0  0  0  0  0  0  0  0  0
   48.0158    9.2283   17.3397 C   0  0  0  0  0  0  0  0  0  0  0  0
   48.3002    8.2420   18.2019 N   0  0  0  0  0  0  0  0  0  0  0  0
   47.6450   10.4932   17.7714 C   0  0  0  0  0  0  0  0  0  0  0  0
   47.5366   10.7332   19.1382 C   0  0  0  0  0  0  0  0  0  0  0  0
   47.8031    9.7092   20.0528 C   0  0  0  0  0  0  0  0  0  0  0  0
   48.2155    8.4737   19.5379 C   0  0  0  0  0  0  0  0  0  0  0  0
   47.6514    9.9814   21.5208 C   0  0  0  0  0  0  0  0  0  0  0  0
   48.5819    7.3068   20.3616 C   0  0  0  0  0  0  0  0  0  0  0  0
   48.3023    4.9378   20.8958 C   0  0  0  0  0  0  0  0  0  0  0  0
   47.9699    6.0610   20.1349 C   0  0  0  0  0  0  0  0  0  0  0  0
   49.5688    7.3829   21.3599 C   0  0  0  0  0  0  0  0  0  0  0  0
   49.9057    6.2596   22.1299 C   0  0  0  0  0  0  0  0  0  0  0  0
   49.2656    5.0381   21.8969 C   0  0  0  0  0  0  0  0  0  0  0  0
   50.9365    6.3190   23.1940 C   0  0  0  0  0  0  0  0  0  0  0  0
   51.4525    7.5508   23.3555 O   0  0  0  0  0  0  0  0  0  0  0  0
   51.3066    5.3873   23.8843 O   0  0  0  0  0  0  0  0  0  0  0  0
   46.8360    5.7090   13.3751 H   0  0  0  0  0  0  0  0  0  0  0  0
   44.7032    9.8560   11.5925 H   0  0  0  0  0  0  0  0  0  0  0  0
   46.9099    9.9856   12.7194 H   0  0  0  0  0  0  0  0  0  0  0  0
   49.4272    6.8006   12.1647 H   0  0  0  0  0  0  0  0  0  0  0  0
   50.3172    6.7364   13.7445 H   0  0  0  0  0  0  0  0  0  0  0  0
   49.3565    9.2946   12.2986 H   0  0  0  0  0  0  0  0  0  0  0  0
   50.2496    9.2358   13.8787 H   0  0  0  0  0  0  0  0  0  0  0  0
   47.9055    9.8028   15.3587 H   0  0  0  0  0  0  0  0  0  0  0  0
   47.4251   11.2903   17.0704 H   0  0  0  0  0  0  0  0  0  0  0  0
   47.2318   11.7180   19.4845 H   0  0  0  0  0  0  0  0  0  0  0  0
   46.9848   10.8336   21.6944 H   0  0  0  0  0  0  0  0  0  0  0  0
   47.2043    9.1269   22.0385 H   0  0  0  0  0  0  0  0  0  0  0  0
   48.6221   10.2155   21.9675 H   0  0  0  0  0  0  0  0  0  0  0  0
   47.8168    3.9859   20.6962 H   0  0  0  0  0  0  0  0  0  0  0  0
   47.2319    5.9633   19.3384 H   0  0  0  0  0  0  0  0  0  0  0  0
   50.0928    8.3218   21.5226 H   0  0  0  0  0  0  0  0  0  0  0  0
   49.5247    4.1592   22.4838 H   0  0  0  0  0  0  0  0  0  0  0  0
   52.1111    7.4318   24.0717 H   0  0  0  0  0  0  0  0  0  0  0  0
  1  2  1  0
  1  5  1  0
  2  3  1  0
  3  4  1  0
  2  6  1  0
  2  7  1  0
  8  5  1  0
  5  4  2  0
  4  9  1  0
  8 11  2  0
  9 10  2  0
 10 11  1  0
 11 12  1  0
 12 13  1  0
 13 14  1  0
 14 12  1  0
 12 15  1  0
 15 16  2  0
 15 17  1  0
 17 18  1  0
 19 18  2  0
 18 20  1  0
 19 23  1  0
 20 21  2  0
 21 22  1  0
 22 23  2  0
 22 24  1  0
 23 25  1  0
 27 25  1  0
 25 28  2  0
 26 27  2  0
 26 30  1  0
 28 29  1  0
 29 30  2  0
 29 31  1  0
 31 32  1  0
 31 33  2  0
  8 34  1  0
  9 35  1  0
 10 36  1  0
 13 37  1  0
 13 38  1  0
 14 39  1  0
 14 40  1  0
 17 41  1  0
 20 42  1  0
 21 43  1  0
 24 44  1  0
 24 45  1  0
 24 46  1  0
 26 47  1  0
 27 48  1  0
 28 49  1  0
 30 50  1  0
 32 51  1  0
M  END
> <Uni-Dock RESULT> 
ENERGY=   -5.948  LOWER_BOUND=    3.999  UPPER_BOUND=    6.668
INTER + INTRA:          -5.948
INTER:                  -5.948
INTRA:                   0.000
UNBOUND:                 0.000

$$$$

     RDKit          3D

 51 55  0  0  0  0  0  0  0  0999 V2000
   51.5322    0.8306   17.3915 O   0  0  0  0  0  0  0  0  0  0  0  0
   52.9212    0.5085   17.5411 C   0  0  0  0  0  0  0  0  0  0  0  0
   53.7432    1.5845   18.0162 O   0  0  0  0  0  0  0  0  0  0  0  0
   52.8038    2.5578   18.1463 C   0  0  0  0  0  0  0  0  0  0  0  0
   51.5469    2.1298   17.7918 C   0  0  0  0  0  0  0  0  0  0  0  0
   53.4020    0.0974   16.3418 F   0  0  0  0  0  0  0  0  0  0  0  0
   53.0330   -0.5308   18.4049 F   0  0  0  0  0  0  0  0  0  0  0  0
   50.4521    2.9673   17.8516 C   0  0  0  0  0  0  0  0  0  0  0  0
   53.0329    3.8438   18.5777 C   0  0  0  0  0  0  0  0  0  0  0  0
   51.9359    4.7109   18.6461 C   0  0  0  0  0  0  0  0  0  0  0  0
   50.6264    4.2948   18.2915 C   0  0  0  0  0  0  0  0  0  0  0  0
   49.4345    5.2489   18.3549 C   0  0  0  0  0  0  0  0  0  0  0  0
   48.3621    4.9401   19.4004 C   0  0  0  0  0  0  0  0  0  0  0  0
   49.2478    6.1286   19.5905 C   0  0  0  0  0  0  0  0  0  0  0  0
   48.9543    5.7909   17.0223 C   0  0  0  0  0  0  0  0  0  0  0  0
   48.0287    5.2280   16.4581 O   0  0  0  0  0  0  0  0  0  0  0  0
   49.6827    6.8829   16.6086 N   0  0  0  0  0  0  0  0  0  0  0  0
   49.4579    7.6093   15.4347 C   0  0  0  0  0  0  0  0  0  0  0  0
   48.4128    7.3282   14.6439 N   0  0  0  0  0  0  0  0  0  0  0  0
   50.3489    8.6292   15.1349 C   0  0  0  0  0  0  0  0  0  0  0  0
   50.1672    9.3593   13.9638 C   0  0  0  0  0  0  0  0  0  0  0  0
   49.0980    9.0631   13.1122 C   0  0  0  0  0  0  0  0  0  0  0  0
   48.2174    8.0489   13.5088 C   0  0  0  0  0  0  0  0  0  0  0  0
   48.9380    9.8431   11.8401 C   0  0  0  0  0  0  0  0  0  0  0  0
   47.0161    7.6448   12.7551 C   0  0  0  0  0  0  0  0  0  0  0  0
   45.6879    5.8845   11.7000 C   0  0  0  0  0  0  0  0  0  0  0  0
   46.8194    6.2961   12.4081 C   0  0  0  0  0  0  0  0  0  0  0  0
   46.0189    8.5685   12.3963 C   0  0  0  0  0  0  0  0  0  0  0  0
   44.8813    8.1627   11.6826 C   0  0  0  0  0  0  0  0  0  0  0  0
   44.7219    6.8181   11.3322 C   0  0  0  0  0  0  0  0  0  0  0  0
   43.8217    9.1208   11.2856 C   0  0  0  0  0  0  0  0  0  0  0  0
   44.1022   10.3882   11.6390 O   0  0  0  0  0  0  0  0  0  0  0  0
   42.7943    8.8464   10.6936 O   0  0  0  0  0  0  0  0  0  0  0  0
   49.4688    2.6096   17.5554 H   0  0  0  0  0  0  0  0  0  0  0  0
   54.0282    4.1732   18.8558 H   0  0  0  0  0  0  0  0  0  0  0  0
   52.1014    5.7307   18.9881 H   0  0  0  0  0  0  0  0  0  0  0  0
   48.5026    4.0880   20.0557 H   0  0  0  0  0  0  0  0  0  0  0  0
   47.3251    5.1089   19.1266 H   0  0  0  0  0  0  0  0  0  0  0  0
   49.9714    6.0804   20.3959 H   0  0  0  0  0  0  0  0  0  0  0  0
   48.7947    7.1071   19.4691 H   0  0  0  0  0  0  0  0  0  0  0  0
   50.4618    7.1607   17.1833 H   0  0  0  0  0  0  0  0  0  0  0  0
   51.1873    8.8590   15.7825 H   0  0  0  0  0  0  0  0  0  0  0  0
   50.8699   10.1507   13.7138 H   0  0  0  0  0  0  0  0  0  0  0  0
   49.8881   10.2965   11.5363 H   0  0  0  0  0  0  0  0  0  0  0  0
   48.6248    9.1959   11.0147 H   0  0  0  0  0  0  0  0  0  0  0  0
   48.2081   10.6467   11.9748 H   0  0  0  0  0  0  0  0  0  0  0  0
   45.5589    4.8348   11.4487 H   0  0  0  0  0  0  0  0  0  0  0  0
   47.5560    5.5517   12.7111 H   0  0  0  0  0  0  0  0  0  0  0  0
   46.1221    9.6090   12.6951 H   0  0  0  0  0  0  0  0  0  0  0  0
   43.8398    6.4920   10.7849 H   0  0  0  0  0  0  0  0  0  0  0  0
   43.3228   10.8923   11.3236 H   0  0  0  0  0  0  0  0  0  0  0  0
  1  2  1  0
  1  5  1  0
  2  3  1  0
  3  4  1  0
  2  6  1  0
  2  7  1  0
  8  5  1  0
  5  4  2  0
  4  9  1  0
  8 11  2  0
  9 10  2  0
 10 11  1  0
 11 12  1  0
 12 13  1  0
 13 14  1  0
 14 12  1  0
 12 15  1  0
 15 16  2  0
 15 17  1  0
 17 18  1  0
 19 18  2  0
 18 20  1  0
 19 23  1  0
 20 21  2  0
 21 22  1  0
 22 23  2  0
 22 24  1  0
 23 25  1  0
 27 25  1  0
 25 28  2  0
 26 27  2  0
 26 30  1  0
 28 29  1  0
 29 30  2  0
 29 31  1  0
 31 32  1  0
 31 33  2  0
  8 34  1  0
  9 35  1  0
 10 36  1  0
 13 37  1  0
 13 38  1  0
 14 39  1  0
 14 40  1  0
 17 41  1  0
 20 42  1  0
 21 43  1  0
 24 44  1  0
 24 45  1  0
 24 46  1  0
 26 47  1  0
 27 48  1  0
 28 49  1  0
 30 50  1  0
 32 51  1  0
M  END
> <Uni-Dock RESULT> 
ENERGY=   -5.700  LOWER_BOUND=    4.867  UPPER_BOUND=    8.904
INTER + INTRA:          -5.700
INTER:                  -5.700
INTRA:                   0.000
UNBOUND:                 0.000

$$$$

     RDKit          3D

 51 55  0  0  0  0  0  0  0  0999 V2000
   46.8139   12.6244    6.4980 O   0  0  0  0  0  0  0  0  0  0  0  0
   46.2649   12.3619    5.2000 C   0  0  0  0  0  0  0  0  0  0  0  0
   44.9682   11.7473    5.2053 O   0  0  0  0  0  0  0  0  0  0  0  0
   44.7595   11.6515    6.5447 C   0  0  0  0  0  0  0  0  0  0  0  0
   45.8079   12.1503    7.2800 C   0  0  0  0  0  0  0  0  0  0  0  0
   47.1198   11.5560    4.5232 F   0  0  0  0  0  0  0  0  0  0  0  0
   46.1822   13.5328    4.5210 F   0  0  0  0  0  0  0  0  0  0  0  0
   45.7932   12.1453    8.6596 C   0  0  0  0  0  0  0  0  0  0  0  0
   43.6428   11.1213    7.1485 C   0  0  0  0  0  0  0  0  0  0  0  0
   43.6066   11.1062    8.5479 C   0  0  0  0  0  0  0  0  0  0  0  0
   44.6722   11.6190    9.3323 C   0  0  0  0  0  0  0  0  0  0  0  0
   44.6340   11.5879   10.8596 C   0  0  0  0  0  0  0  0  0  0  0  0
   44.5499   12.9383   11.5724 C   0  0  0  0  0  0  0  0  0  0  0  0
   43.3629   12.0306   11.5833 C   0  0  0  0  0  0  0  0  0  0  0  0
   45.4860   10.5195   11.5172 C   0  0  0  0  0  0  0  0  0  0  0  0
   46.6082   10.8150   11.8986 O   0  0  0  0  0  0  0  0  0  0  0  0
   44.8471    9.3017   11.5729 N   0  0  0  0  0  0  0  0  0  0  0  0
   45.3713    8.1370   12.1429 C   0  0  0  0  0  0  0  0  0  0  0  0
   46.5506    8.1561   12.7800 N   0  0  0  0  0  0  0  0  0  0  0  0
   44.6194    6.9769   12.0298 C   0  0  0  0  0  0  0  0  0  0  0  0
   45.1204    5.7948   12.5676 C   0  0  0  0  0  0  0  0  0  0  0  0
   46.3614    5.7891   13.2126 C   0  0  0  0  0  0  0  0  0  0  0  0
   47.0375    7.0105   13.3245 C   0  0  0  0  0  0  0  0  0  0  0  0
   46.8961    4.4977   13.7590 C   0  0  0  0  0  0  0  0  0  0  0  0
   48.3284    7.1896   14.0142 C   0  0  0  0  0  0  0  0  0  0  0  0
   50.6377    7.9911   13.9814 C   0  0  0  0  0  0  0  0  0  0  0  0
   49.4059    7.8031   13.3503 C   0  0  0  0  0  0  0  0  0  0  0  0
   48.5166    6.7984   15.3514 C   0  0  0  0  0  0  0  0  0  0  0  0
   49.7518    6.9814   15.9907 C   0  0  0  0  0  0  0  0  0  0  0  0
   50.8127    7.5752   15.2992 C   0  0  0  0  0  0  0  0  0  0  0  0
   49.9757    6.5681   17.3969 C   0  0  0  0  0  0  0  0  0  0  0  0
   48.9012    5.9728   17.9454 O   0  0  0  0  0  0  0  0  0  0  0  0
   51.0036    6.7174   18.0314 O   0  0  0  0  0  0  0  0  0  0  0  0
   46.6394   12.5354    9.2203 H   0  0  0  0  0  0  0  0  0  0  0  0
   42.8197   10.7300    6.5604 H   0  0  0  0  0  0  0  0  0  0  0  0
   42.7285   10.6922    9.0396 H   0  0  0  0  0  0  0  0  0  0  0  0
   44.4974   13.8412   10.9746 H   0  0  0  0  0  0  0  0  0  0  0  0
   45.1133   13.0607   12.4923 H   0  0  0  0  0  0  0  0  0  0  0  0
   42.4994   12.3412   11.0066 H   0  0  0  0  0  0  0  0  0  0  0  0
   43.1103   11.5587   12.5272 H   0  0  0  0  0  0  0  0  0  0  0  0
   43.9407    9.2375   11.1384 H   0  0  0  0  0  0  0  0  0  0  0  0
   43.6618    6.9685   11.5218 H   0  0  0  0  0  0  0  0  0  0  0  0
   44.5440    4.8778   12.4700 H   0  0  0  0  0  0  0  0  0  0  0  0
   46.4335    3.6393   13.2591 H   0  0  0  0  0  0  0  0  0  0  0  0
   47.9742    4.4116   13.5901 H   0  0  0  0  0  0  0  0  0  0  0  0
   46.6840    4.4197   14.8294 H   0  0  0  0  0  0  0  0  0  0  0  0
   51.4522    8.4723   13.4461 H   0  0  0  0  0  0  0  0  0  0  0  0
   49.2746    8.1550   12.3268 H   0  0  0  0  0  0  0  0  0  0  0  0
   47.6853    6.3666   15.9036 H   0  0  0  0  0  0  0  0  0  0  0  0
   51.7726    7.7282   15.7883 H   0  0  0  0  0  0  0  0  0  0  0  0
   49.1932    5.7684   18.8586 H   0  0  0  0  0  0  0  0  0  0  0  0
  1  2  1  0
  1  5  1  0
  2  3  1  0
  3  4  1  0
  2  6  1  0
  2  7  1  0
  8  5  1  0
  5  4  2  0
  4  9  1  0
  8 11  2  0
  9 10  2  0
 10 11  1  0
 11 12  1  0
 12 13  1  0
 13 14  1  0
 14 12  1  0
 12 15  1  0
 15 16  2  0
 15 17  1  0
 17 18  1  0
 19 18  2  0
 18 20  1  0
 19 23  1  0
 20 21  2  0
 21 22  1  0
 22 23  2  0
 22 24  1  0
 23 25  1  0
 27 25  1  0
 25 28  2  0
 26 27  2  0
 26 30  1  0
 28 29  1  0
 29 30  2  0
 29 31  1  0
 31 32  1  0
 31 33  2  0
  8 34  1  0
  9 35  1  0
 10 36  1  0
 13 37  1  0
 13 38  1  0
 14 39  1  0
 14 40  1  0
 17 41  1  0
 20 42  1  0
 21 43  1  0
 24 44  1  0
 24 45  1  0
 24 46  1  0
 26 47  1  0
 27 48  1  0
 28 49  1  0
 30 50  1  0
 32 51  1  0
M  END
> <Uni-Dock RESULT> 
ENERGY=   -5.345  LOWER_BOUND=    5.246  UPPER_BOUND=    6.309
INTER + INTRA:          -5.345
INTER:                  -5.345
INTRA:                   0.000
UNBOUND:                 0.000

$$$$

     RDKit          3D

 51 55  0  0  0  0  0  0  0  0999 V2000
   49.4781   12.8951   19.9882 O   0  0  0  0  0  0  0  0  0  0  0  0
   48.5710   13.8736   19.4640 C   0  0  0  0  0  0  0  0  0  0  0  0
   47.1906   13.4814   19.4681 O   0  0  0  0  0  0  0  0  0  0  0  0
   47.3009   12.2404   20.0107 C   0  0  0  0  0  0  0  0  0  0  0  0
   48.6007   11.9068   20.3070 C   0  0  0  0  0  0  0  0  0  0  0  0
   48.9326   14.1603   18.1891 F   0  0  0  0  0  0  0  0  0  0  0  0
   48.6960   15.0117   20.1906 F   0  0  0  0  0  0  0  0  0  0  0  0
   48.9273   10.6878   20.8646 C   0  0  0  0  0  0  0  0  0  0  0  0
   46.2603   11.3743   20.2549 C   0  0  0  0  0  0  0  0  0  0  0  0
   46.5690   10.1315   20.8206 C   0  0  0  0  0  0  0  0  0  0  0  0
   47.9011    9.7624   21.1415 C   0  0  0  0  0  0  0  0  0  0  0  0
   48.2345    8.3993   21.7463 C   0  0  0  0  0  0  0  0  0  0  0  0
   48.7596    8.3948   23.1826 C   0  0  0  0  0  0  0  0  0  0  0  0
   47.3887    7.8695   22.9036 C   0  0  0  0  0  0  0  0  0  0  0  0
   48.8413    7.3876   20.7933 C   0  0  0  0  0  0  0  0  0  0  0  0
   50.0569    7.2766   20.7499 O   0  0  0  0  0  0  0  0  0  0  0  0
   47.8860    6.7207   20.0605 N   0  0  0  0  0  0  0  0  0  0  0  0
   48.1404    5.7159   19.1215 C   0  0  0  0  0  0  0  0  0  0  0  0
   49.3846    5.2550   18.9303 N   0  0  0  0  0  0  0  0  0  0  0  0
   47.0580    5.2158   18.4128 C   0  0  0  0  0  0  0  0  0  0  0  0
   47.2776    4.2294   17.4556 C   0  0  0  0  0  0  0  0  0  0  0  0
   48.5725    3.7549   17.2228 C   0  0  0  0  0  0  0  0  0  0  0  0
   49.6045    4.2787   18.0116 C   0  0  0  0  0  0  0  0  0  0  0  0
   48.7907    2.7124   16.1655 C   0  0  0  0  0  0  0  0  0  0  0  0
   51.0145    3.8548   17.9299 C   0  0  0  0  0  0  0  0  0  0  0  0
   53.3746    4.4370   17.6710 C   0  0  0  0  0  0  0  0  0  0  0  0
   52.0305    4.8097   17.7457 C   0  0  0  0  0  0  0  0  0  0  0  0
   51.3948    2.5088   18.0714 C   0  0  0  0  0  0  0  0  0  0  0  0
   52.7425    2.1268   17.9946 C   0  0  0  0  0  0  0  0  0  0  0  0
   53.7303    3.0955   17.7896 C   0  0  0  0  0  0  0  0  0  0  0  0
   53.1656    0.7124   18.1316 C   0  0  0  0  0  0  0  0  0  0  0  0
   52.1294   -0.1321   18.2831 O   0  0  0  0  0  0  0  0  0  0  0  0
   54.3115    0.3029   18.1066 O   0  0  0  0  0  0  0  0  0  0  0  0
   49.9644   10.4415   21.0802 H   0  0  0  0  0  0  0  0  0  0  0  0
   45.2373   11.6459   20.0182 H   0  0  0  0  0  0  0  0  0  0  0  0
   45.7558    9.4369   21.0219 H   0  0  0  0  0  0  0  0  0  0  0  0
   48.8480    9.3386   23.7085 H   0  0  0  0  0  0  0  0  0  0  0  0
   49.5422    7.6852   23.4329 H   0  0  0  0  0  0  0  0  0  0  0  0
   46.5527    8.4554   23.2674 H   0  0  0  0  0  0  0  0  0  0  0  0
   47.2424    6.7980   22.9933 H   0  0  0  0  0  0  0  0  0  0  0  0
   46.9278    7.0032   20.1887 H   0  0  0  0  0  0  0  0  0  0  0  0
   46.0522    5.5851   18.5777 H   0  0  0  0  0  0  0  0  0  0  0  0
   46.4364    3.8427   16.8851 H   0  0  0  0  0  0  0  0  0  0  0  0
   47.9726    2.7164   15.4365 H   0  0  0  0  0  0  0  0  0  0  0  0
   49.7094    2.9048   15.6024 H   0  0  0  0  0  0  0  0  0  0  0  0
   48.8369    1.7165   16.6158 H   0  0  0  0  0  0  0  0  0  0  0  0
   54.1399    5.1965   17.5327 H   0  0  0  0  0  0  0  0  0  0  0  0
   51.7676    5.8655   17.6757 H   0  0  0  0  0  0  0  0  0  0  0  0
   50.6338    1.7561   18.2639 H   0  0  0  0  0  0  0  0  0  0  0  0
   54.7790    2.8105   17.7356 H   0  0  0  0  0  0  0  0  0  0  0  0
   52.5587   -1.0093   18.3674 H   0  0  0  0  0  0  0  0  0  0  0  0
  1  2  1  0
  1  5  1  0
  2  3  1  0
  3  4  1  0
  2  6  1  0
  2  7  1  0
  8  5  1  0
  5  4  2  0
  4  9  1  0
  8 11  2  0
  9 10  2  0
 10 11  1  0
 11 12  1  0
 12 13  1  0
 13 14  1  0
 14 12  1  0
 12 15  1  0
 15 16  2  0
 15 17  1  0
 17 18  1  0
 19 18  2  0
 18 20  1  0
 19 23  1  0
 20 21  2  0
 21 22  1  0
 22 23  2  0
 22 24  1  0
 23 25  1  0
 27 25  1  0
 25 28  2  0
 26 27  2  0
 26 30  1  0
 28 29  1  0
 29 30  2  0
 29 31  1  0
 31 32  1  0
 31 33  2  0
  8 34  1  0
  9 35  1  0
 10 36  1  0
 13 37  1  0
 13 38  1  0
 14 39  1  0
 14 40  1  0
 17 41  1  0
 20 42  1  0
 21 43  1  0
 24 44  1  0
 24 45  1  0
 24 46  1  0
 26 47  1  0
 27 48  1  0
 28 49  1  0
 30 50  1  0
 32 51  1  0
M  END
> <Uni-Dock RESULT> 
ENERGY=   -5.312  LOWER_BOUND=    7.860  UPPER_BOUND=   11.417
INTER + INTRA:          -5.312
INTER:                  -5.312
INTRA:                   0.000
UNBOUND:                 0.000

$$$$

     RDKit          3D

 51 55  0  0  0  0  0  0  0  0999 V2000
   48.7486    8.0756   13.3026 O   0  0  0  0  0  0  0  0  0  0  0  0
   48.1616    7.7461   12.0368 C   0  0  0  0  0  0  0  0  0  0  0  0
   47.4398    6.5061   12.0100 O   0  0  0  0  0  0  0  0  0  0  0  0
   47.6130    6.1059   13.2970 C   0  0  0  0  0  0  0  0  0  0  0  0
   48.3564    6.9977   14.0323 C   0  0  0  0  0  0  0  0  0  0  0  0
   49.1446    7.6916   11.1046 F   0  0  0  0  0  0  0  0  0  0  0  0
   47.3147    8.7435   11.6806 F   0  0  0  0  0  0  0  0  0  0  0  0
   48.6471    6.7759   15.3627 C   0  0  0  0  0  0  0  0  0  0  0  0
   47.1223    4.9464   13.8514 C   0  0  0  0  0  0  0  0  0  0  0  0
   47.4053    4.7011   15.2004 C   0  0  0  0  0  0  0  0  0  0  0  0
   48.1658    5.6066   15.9849 C   0  0  0  0  0  0  0  0  0  0  0  0
   48.4836    5.3279   17.4534 C   0  0  0  0  0  0  0  0  0  0  0  0
   47.8414    6.2576   18.4838 C   0  0  0  0  0  0  0  0  0  0  0  0
   47.3682    4.8441   18.3793 C   0  0  0  0  0  0  0  0  0  0  0  0
   49.8961    4.8580   17.7429 C   0  0  0  0  0  0  0  0  0  0  0  0
   50.7322    5.6823   18.0796 O   0  0  0  0  0  0  0  0  0  0  0  0
   50.0459    3.5030   17.5536 N   0  0  0  0  0  0  0  0  0  0  0  0
   51.2247    2.7807   17.7651 C   0  0  0  0  0  0  0  0  0  0  0  0
   52.3120    3.3767   18.2745 N   0  0  0  0  0  0  0  0  0  0  0  0
   51.2147    1.4328   17.4380 C   0  0  0  0  0  0  0  0  0  0  0  0
   52.3771    0.6881   17.6164 C   0  0  0  0  0  0  0  0  0  0  0  0
   53.5297    1.2984   18.1214 C   0  0  0  0  0  0  0  0  0  0  0  0
   53.4447    2.6522   18.4697 C   0  0  0  0  0  0  0  0  0  0  0  0
   54.7803    0.4837   18.2779 C   0  0  0  0  0  0  0  0  0  0  0  0
   54.5479    3.4331   19.0592 C   0  0  0  0  0  0  0  0  0  0  0  0
   55.9864    5.4091   19.0118 C   0  0  0  0  0  0  0  0  0  0  0  0
   54.9488    4.6462   18.4711 C   0  0  0  0  0  0  0  0  0  0  0  0
   55.2029    3.0236   20.2338 C   0  0  0  0  0  0  0  0  0  0  0  0
   56.2478    3.7832   20.7808 C   0  0  0  0  0  0  0  0  0  0  0  0
   56.6397    4.9752   20.1629 C   0  0  0  0  0  0  0  0  0  0  0  0
   56.9587    3.3660   22.0132 C   0  0  0  0  0  0  0  0  0  0  0  0
   56.5254    2.1867   22.4942 O   0  0  0  0  0  0  0  0  0  0  0  0
   57.8520    3.9801   22.5665 O   0  0  0  0  0  0  0  0  0  0  0  0
   49.2467    7.4906   15.9215 H   0  0  0  0  0  0  0  0  0  0  0  0
   46.5361    4.2482   13.2638 H   0  0  0  0  0  0  0  0  0  0  0  0
   47.0215    3.7891   15.6534 H   0  0  0  0  0  0  0  0  0  0  0  0
   47.1814    7.0445   18.1365 H   0  0  0  0  0  0  0  0  0  0  0  0
   48.4336    6.5401   19.3488 H   0  0  0  0  0  0  0  0  0  0  0  0
   46.3729    4.6855   17.9807 H   0  0  0  0  0  0  0  0  0  0  0  0
   47.6227    4.1761   19.1958 H   0  0  0  0  0  0  0  0  0  0  0  0
   49.2489    2.9967   17.2030 H   0  0  0  0  0  0  0  0  0  0  0  0
   50.3300    0.9531   17.0351 H   0  0  0  0  0  0  0  0  0  0  0  0
   52.3820   -0.3658   17.3482 H   0  0  0  0  0  0  0  0  0  0  0  0
   54.7587   -0.3966   17.6257 H   0  0  0  0  0  0  0  0  0  0  0  0
   55.6669    1.0593   17.9933 H   0  0  0  0  0  0  0  0  0  0  0  0
   54.8827    0.1367   19.3102 H   0  0  0  0  0  0  0  0  0  0  0  0
   56.2727    6.3453   18.5394 H   0  0  0  0  0  0  0  0  0  0  0  0
   54.4295    5.0092   17.5839 H   0  0  0  0  0  0  0  0  0  0  0  0
   54.8799    2.1149   20.7364 H   0  0  0  0  0  0  0  0  0  0  0  0
   57.4442    5.5753   20.5832 H   0  0  0  0  0  0  0  0  0  0  0  0
   57.0718    2.0514   23.2967 H   0  0  0  0  0  0  0  0  0  0  0  0
  1  2  1  0
  1  5  1  0
  2  3  1  0
  3  4  1  0
  2  6  1  0
  2  7  1  0
  8  5  1  0
  5  4  2  0
  4  9  1  0
  8 11  2  0
  9 10  2  0
 10 11  1  0
 11 12  1  0
 12 13  1  0
 13 14  1  0
 14 12  1  0
 12 15  1  0
 15 16  2  0
 15 17  1  0
 17 18  1  0
 19 18  2  0
 18 20  1  0
 19 23  1  0
 20 21  2  0
 21 22  1  0
 22 23  2  0
 22 24  1  0
 23 25  1  0
 27 25  1  0
 25 28  2  0
 26 27  2  0
 26 30  1  0
 28 29  1  0
 29 30  2  0
 29 31  1  0
 31 32  1  0
 31 33  2  0
  8 34  1  0
  9 35  1  0
 10 36  1  0
 13 37  1  0
 13 38  1  0
 14 39  1  0
 14 40  1  0
 17 41  1  0
 20 42  1  0
 21 43  1  0
 24 44  1  0
 24 45  1  0
 24 46  1  0
 26 47  1  0
 27 48  1  0
 28 49  1  0
 30 50  1  0
 32 51  1  0
M  END
> <Uni-Dock RESULT> 
ENERGY=   -5.175  LOWER_BOUND=    5.763  UPPER_BOUND=    8.187
INTER + INTRA:          -5.175
INTER:                  -5.175
INTRA:                   0.000
UNBOUND:                 0.000

$$$$

     RDKit          3D

 51 55  0  0  0  0  0  0  0  0999 V2000
   43.3725    9.3010   11.3948 O   0  0  0  0  0  0  0  0  0  0  0  0
   42.5851   10.4063   10.9329 C   0  0  0  0  0  0  0  0  0  0  0  0
   43.2808   11.6599   10.8713 O   0  0  0  0  0  0  0  0  0  0  0  0
   44.5066   11.2698   11.3095 C   0  0  0  0  0  0  0  0  0  0  0  0
   44.5595    9.9291   11.6067 C   0  0  0  0  0  0  0  0  0  0  0  0
   41.5150   10.5485   11.7532 F   0  0  0  0  0  0  0  0  0  0  0  0
   42.1156   10.1147    9.6946 F   0  0  0  0  0  0  0  0  0  0  0  0
   45.7152    9.3339   12.0689 C   0  0  0  0  0  0  0  0  0  0  0  0
   45.6042   12.0856   11.4590 C   0  0  0  0  0  0  0  0  0  0  0  0
   46.7878   11.5024   11.9267 C   0  0  0  0  0  0  0  0  0  0  0  0
   46.8727   10.1202   12.2365 C   0  0  0  0  0  0  0  0  0  0  0  0
   48.1633    9.4909   12.7596 C   0  0  0  0  0  0  0  0  0  0  0  0
   48.8600    8.4870   11.8402 C   0  0  0  0  0  0  0  0  0  0  0  0
   49.4873    9.8233   12.0726 C   0  0  0  0  0  0  0  0  0  0  0  0
   48.1937    9.1923   14.2462 C   0  0  0  0  0  0  0  0  0  0  0  0
   47.9028    8.0684   14.6259 O   0  0  0  0  0  0  0  0  0  0  0  0
   48.5419   10.2940   14.9941 N   0  0  0  0  0  0  0  0  0  0  0  0
   48.6767   10.3187   16.3860 C   0  0  0  0  0  0  0  0  0  0  0  0
   48.5553    9.1950   17.1067 N   0  0  0  0  0  0  0  0  0  0  0  0
   48.9494   11.5425   16.9791 C   0  0  0  0  0  0  0  0  0  0  0  0
   49.0696   11.6075   18.3643 C   0  0  0  0  0  0  0  0  0  0  0  0
   48.9195   10.4505   19.1357 C   0  0  0  0  0  0  0  0  0  0  0  0
   48.6904    9.2467   18.4576 C   0  0  0  0  0  0  0  0  0  0  0  0
   49.0236   10.5485   20.6296 C   0  0  0  0  0  0  0  0  0  0  0  0
   48.5577    7.9322   19.1126 C   0  0  0  0  0  0  0  0  0  0  0  0
   47.2869    5.8726   19.4579 C   0  0  0  0  0  0  0  0  0  0  0  0
   47.4353    7.1244   18.8563 C   0  0  0  0  0  0  0  0  0  0  0  0
   49.5495    7.4268   19.9713 C   0  0  0  0  0  0  0  0  0  0  0  0
   49.4059    6.1717   20.5814 C   0  0  0  0  0  0  0  0  0  0  0  0
   48.2689    5.3986   20.3247 C   0  0  0  0  0  0  0  0  0  0  0  0
   50.4344    5.6229   21.4974 C   0  0  0  0  0  0  0  0  0  0  0  0
   51.4599    6.4694   21.7011 O   0  0  0  0  0  0  0  0  0  0  0  0
   50.4001    4.5350   22.0421 O   0  0  0  0  0  0  0  0  0  0  0  0
   45.7302    8.2732   12.3082 H   0  0  0  0  0  0  0  0  0  0  0  0
   45.5537   13.1427   11.2217 H   0  0  0  0  0  0  0  0  0  0  0  0
   47.6652   12.1349   12.0475 H   0  0  0  0  0  0  0  0  0  0  0  0
   48.4300    8.2869   10.8654 H   0  0  0  0  0  0  0  0  0  0  0  0
   49.3189    7.6159   12.2977 H   0  0  0  0  0  0  0  0  0  0  0  0
   49.4983   10.5146   11.2380 H   0  0  0  0  0  0  0  0  0  0  0  0
   50.3923    9.8471   12.6708 H   0  0  0  0  0  0  0  0  0  0  0  0
   48.6790   11.1608   14.4999 H   0  0  0  0  0  0  0  0  0  0  0  0
   49.0561   12.4470   16.3911 H   0  0  0  0  0  0  0  0  0  0  0  0
   49.2684   12.5658   18.8383 H   0  0  0  0  0  0  0  0  0  0  0  0
   48.8272   11.5714   20.9699 H   0  0  0  0  0  0  0  0  0  0  0  0
   48.2830    9.9100   21.1216 H   0  0  0  0  0  0  0  0  0  0  0  0
   50.0281   10.2695   20.9609 H   0  0  0  0  0  0  0  0  0  0  0  0
   46.4114    5.2669   19.2384 H   0  0  0  0  0  0  0  0  0  0  0  0
   46.6713    7.4732   18.1611 H   0  0  0  0  0  0  0  0  0  0  0  0
   50.4505    8.0094   20.1480 H   0  0  0  0  0  0  0  0  0  0  0  0
   48.1513    4.4208   20.7873 H   0  0  0  0  0  0  0  0  0  0  0  0
   52.0495    5.9741   22.3077 H   0  0  0  0  0  0  0  0  0  0  0  0
  1  2  1  0
  1  5  1  0
  2  3  1  0
  3  4  1  0
  2  6  1  0
  2  7  1  0
  8  5  1  0
  5  4  2  0
  4  9  1  0
  8 11  2  0
  9 10  2  0
 10 11  1  0
 11 12  1  0
 12 13  1  0
 13 14  1  0
 14 12  1  0
 12 15  1  0
 15 16  2  0
 15 17  1  0
 17 18  1  0
 19 18  2  0
 18 20  1  0
 19 23  1  0
 20 21  2  0
 21 22  1  0
 22 23  2  0
 22 24  1  0
 23 25  1  0
 27 25  1  0
 25 28  2  0
 26 27  2  0
 26 30  1  0
 28 29  1  0
 29 30  2  0
 29 31  1  0
 31 32  1  0
 31 33  2  0
  8 34  1  0
  9 35  1  0
 10 36  1  0
 13 37  1  0
 13 38  1  0
 14 39  1  0
 14 40  1  0
 17 41  1  0
 20 42  1  0
 21 43  1  0
 24 44  1  0
 24 45  1  0
 24 46  1  0
 26 47  1  0
 27 48  1  0
 28 49  1  0
 30 50  1  0
 32 51  1  0
M  END
> <Uni-Dock RESULT> 
ENERGY=   -4.622  LOWER_BOUND=    5.539  UPPER_BOUND=    7.363
INTER + INTRA:          -4.622
INTER:                  -4.622
INTRA:                   0.000
UNBOUND:                 0.000

$$$$
