
     RDKit          3D

 51 55  0  0  0  0  0  0  0  0999 V2000
   51.4984    5.3017   22.0898 O   0  0  0  0  0  0  0  0  0  0  0  0
   51.0217    5.5362   23.4232 C   0  0  0  0  0  0  0  0  0  0  0  0
   49.5932    5.6052   23.5499 O   0  0  0  0  0  0  0  0  0  0  0  0
   49.2321    5.4134   22.2534 C   0  0  0  0  0  0  0  0  0  0  0  0
   50.3143    5.2393   21.4228 C   0  0  0  0  0  0  0  0  0  0  0  0
   51.4776    4.5419   24.2250 F   0  0  0  0  0  0  0  0  0  0  0  0
   51.5504    6.7016   23.8727 F   0  0  0  0  0  0  0  0  0  0  0  0
   50.1629    5.0249   20.0670 C   0  0  0  0  0  0  0  0  0  0  0  0
   47.9423    5.3838   21.7744 C   0  0  0  0  0  0  0  0  0  0  0  0
   47.7644    5.1640   20.4035 C   0  0  0  0  0  0  0  0  0  0  0  0
   48.8633    4.9782   19.5225 C   0  0  0  0  0  0  0  0  0  0  0  0
   48.6481    4.7540   18.0185 C   0  0  0  0  0  0  0  0  0  0  0  0
   49.1295    3.4007   17.4763 C   0  0  0  0  0  0  0  0  0  0  0  0
   47.6606    3.6597   17.5994 C   0  0  0  0  0  0  0  0  0  0  0  0
   48.7580    5.9612   17.0821 C   0  0  0  0  0  0  0  0  0  0  0  0
   48.9980    5.7792   15.8926 O   0  0  0  0  0  0  0  0  0  0  0  0
   48.5376    7.1781   17.6786 N   0  0  0  0  0  0  0  0  0  0  0  0
   48.5755    8.4466   17.1013 C   0  0  0  0  0  0  0  0  0  0  0  0
   48.3433    9.4347   17.9888 N   0  0  0  0  0  0  0  0  0  0  0  0
   48.8311    8.6945   15.7643 C   0  0  0  0  0  0  0  0  0  0  0  0
   48.8371   10.0146   15.3199 C   0  0  0  0  0  0  0  0  0  0  0  0
   48.5897   11.0607   16.2144 C   0  0  0  0  0  0  0  0  0  0  0  0
   48.3722   10.7240   17.5563 C   0  0  0  0  0  0  0  0  0  0  0  0
   48.5876   12.4738   15.7094 C   0  0  0  0  0  0  0  0  0  0  0  0
   48.1587   11.7071   18.6318 C   0  0  0  0  0  0  0  0  0  0  0  0
   46.7866   12.5635   20.4620 C   0  0  0  0  0  0  0  0  0  0  0  0
   46.9957   11.6568   19.4199 C   0  0  0  0  0  0  0  0  0  0  0  0
   49.1210   12.6865   18.9338 C   0  0  0  0  0  0  0  0  0  0  0  0
   48.9159   13.6004   19.9777 C   0  0  0  0  0  0  0  0  0  0  0  0
   47.7448   13.5346   20.7410 C   0  0  0  0  0  0  0  0  0  0  0  0
   49.9140   14.6421   20.3155 C   0  0  0  0  0  0  0  0  0  0  0  0
   50.9548   14.6620   19.4637 O   0  0  0  0  0  0  0  0  0  0  0  0
   49.8398   15.4265   21.2424 O   0  0  0  0  0  0  0  0  0  0  0  0
   51.0358    4.8906   19.4334 H   0  0  0  0  0  0  0  0  0  0  0  0
   47.0930    5.5219   22.4370 H   0  0  0  0  0  0  0  0  0  0  0  0
   46.7494    5.1324   20.0078 H   0  0  0  0  0  0  0  0  0  0  0  0
   49.5743    2.6860   18.1606 H   0  0  0  0  0  0  0  0  0  0  0  0
   49.5580    3.3649   16.4792 H   0  0  0  0  0  0  0  0  0  0  0  0
   47.1193    3.1078   18.3598 H   0  0  0  0  0  0  0  0  0  0  0  0
   47.0975    3.8020   16.6821 H   0  0  0  0  0  0  0  0  0  0  0  0
   48.3433    7.2241   18.6695 H   0  0  0  0  0  0  0  0  0  0  0  0
   49.0226    7.9011   15.0520 H   0  0  0  0  0  0  0  0  0  0  0  0
   49.0323   10.2164   14.2682 H   0  0  0  0  0  0  0  0  0  0  0  0
   48.4169   12.5036   14.6270 H   0  0  0  0  0  0  0  0  0  0  0  0
   49.5484   12.9544   15.9146 H   0  0  0  0  0  0  0  0  0  0  0  0
   47.7805   13.0549   16.1674 H   0  0  0  0  0  0  0  0  0  0  0  0
   45.8816   12.5037   21.0618 H   0  0  0  0  0  0  0  0  0  0  0  0
   46.2454   10.8919   19.2234 H   0  0  0  0  0  0  0  0  0  0  0  0
   50.0458   12.7203   18.3613 H   0  0  0  0  0  0  0  0  0  0  0  0
   47.5797   14.2342   21.5583 H   0  0  0  0  0  0  0  0  0  0  0  0
   51.5204   15.3903   19.7986 H   0  0  0  0  0  0  0  0  0  0  0  0
  1  2  1  0
  1  5  1  0
  2  3  1  0
  3  4  1  0
  2  6  1  0
  2  7  1  0
  8  5  1  0
  5  4  2  0
  4  9  1  0
  8 11  2  0
  9 10  2  0
 10 11  1  0
 11 12  1  0
 12 13  1  0
 13 14  1  0
 14 12  1  0
 12 15  1  0
 15 16  2  0
 15 17  1  0
 17 18  1  0
 19 18  2  0
 18 20  1  0
 19 23  1  0
 20 21  2  0
 21 22  1  0
 22 23  2  0
 22 24  1  0
 23 25  1  0
 27 25  1  0
 25 28  2  0
 26 27  2  0
 26 30  1  0
 28 29  1  0
 29 30  2  0
 29 31  1  0
 31 32  1  0
 31 33  2  0
  8 34  1  0
  9 35  1  0
 10 36  1  0
 13 37  1  0
 13 38  1  0
 14 39  1  0
 14 40  1  0
 17 41  1  0
 20 42  1  0
 21 43  1  0
 24 44  1  0
 24 45  1  0
 24 46  1  0
 26 47  1  0
 27 48  1  0
 28 49  1  0
 30 50  1  0
 32 51  1  0
M  END
> <Uni-Dock RESULT> 
ENERGY=   -5.064  LOWER_BOUND=    0.000  UPPER_BOUND=    0.000
INTER + INTRA:          -5.064
INTER:                  -5.064
INTRA:                   0.000
UNBOUND:                 0.000

$$$$

     RDKit          3D

 51 55  0  0  0  0  0  0  0  0999 V2000
   49.0696    4.0042   17.6274 O   0  0  0  0  0  0  0  0  0  0  0  0
   48.5475    2.9594   16.7931 C   0  0  0  0  0  0  0  0  0  0  0  0
   49.4527    1.8717   16.5504 O   0  0  0  0  0  0  0  0  0  0  0  0
   50.5320    2.3014   17.2567 C   0  0  0  0  0  0  0  0  0  0  0  0
   50.3148    3.5128   17.8705 C   0  0  0  0  0  0  0  0  0  0  0  0
   47.4257    2.4647   17.3732 F   0  0  0  0  0  0  0  0  0  0  0  0
   48.1904    3.4966   15.5999 F   0  0  0  0  0  0  0  0  0  0  0  0
   51.2855    4.1215   18.6412 C   0  0  0  0  0  0  0  0  0  0  0  0
   51.7296    1.6347   17.3789 C   0  0  0  0  0  0  0  0  0  0  0  0
   52.7273    2.2310   18.1588 C   0  0  0  0  0  0  0  0  0  0  0  0
   52.5300    3.4799   18.8066 C   0  0  0  0  0  0  0  0  0  0  0  0
   53.6427    4.1257   19.6453 C   0  0  0  0  0  0  0  0  0  0  0  0
   53.3247    4.3096   21.1360 C   0  0  0  0  0  0  0  0  0  0  0  0
   54.3105    3.2627   20.7212 C   0  0  0  0  0  0  0  0  0  0  0  0
   54.5273    5.1866   18.9832 C   0  0  0  0  0  0  0  0  0  0  0  0
   55.1265    5.9937   19.6869 O   0  0  0  0  0  0  0  0  0  0  0  0
   54.5941    5.1117   17.6139 N   0  0  0  0  0  0  0  0  0  0  0  0
   55.2990    5.9315   16.7337 C   0  0  0  0  0  0  0  0  0  0  0  0
   55.1146    5.5955   15.4410 N   0  0  0  0  0  0  0  0  0  0  0  0
   56.1025    6.9901   17.1182 C   0  0  0  0  0  0  0  0  0  0  0  0
   56.7523    7.7273   16.1310 C   0  0  0  0  0  0  0  0  0  0  0  0
   56.5890    7.3969   14.7820 C   0  0  0  0  0  0  0  0  0  0  0  0
   55.7326    6.3311   14.4782 C   0  0  0  0  0  0  0  0  0  0  0  0
   57.3103    8.1969   13.7374 C   0  0  0  0  0  0  0  0  0  0  0  0
   55.4058    5.8966   13.1096 C   0  0  0  0  0  0  0  0  0  0  0  0
   55.3203    4.1322   11.4228 C   0  0  0  0  0  0  0  0  0  0  0  0
   55.6475    4.5712   12.7080 C   0  0  0  0  0  0  0  0  0  0  0  0
   54.8045    6.7689   12.1855 C   0  0  0  0  0  0  0  0  0  0  0  0
   54.4753    6.3342   10.8933 C   0  0  0  0  0  0  0  0  0  0  0  0
   54.7352    5.0120   10.5158 C   0  0  0  0  0  0  0  0  0  0  0  0
   53.8417    7.2338    9.9009 C   0  0  0  0  0  0  0  0  0  0  0  0
   53.7186    8.4969   10.3467 O   0  0  0  0  0  0  0  0  0  0  0  0
   53.4686    6.9167    8.7873 O   0  0  0  0  0  0  0  0  0  0  0  0
   51.0871    5.0795   19.1150 H   0  0  0  0  0  0  0  0  0  0  0  0
   51.8932    0.6782   16.8912 H   0  0  0  0  0  0  0  0  0  0  0  0
   53.6804    1.7144   18.2708 H   0  0  0  0  0  0  0  0  0  0  0  0
   52.3650    3.9759   21.5161 H   0  0  0  0  0  0  0  0  0  0  0  0
   53.7032    5.1932   21.6413 H   0  0  0  0  0  0  0  0  0  0  0  0
   54.0141    2.2260   20.8356 H   0  0  0  0  0  0  0  0  0  0  0  0
   55.3576    3.4426   20.9450 H   0  0  0  0  0  0  0  0  0  0  0  0
   54.0629    4.4056   17.1228 H   0  0  0  0  0  0  0  0  0  0  0  0
   56.2469    7.2635   18.1565 H   0  0  0  0  0  0  0  0  0  0  0  0
   57.3901    8.5583   16.4268 H   0  0  0  0  0  0  0  0  0  0  0  0
   58.1727    8.7186   14.1684 H   0  0  0  0  0  0  0  0  0  0  0  0
   56.6435    8.9465   13.3019 H   0  0  0  0  0  0  0  0  0  0  0  0
   57.7024    7.5495   12.9461 H   0  0  0  0  0  0  0  0  0  0  0  0
   55.5121    3.1013   11.1348 H   0  0  0  0  0  0  0  0  0  0  0  0
   56.0895    3.8679   13.4128 H   0  0  0  0  0  0  0  0  0  0  0  0
   54.5738    7.7888   12.4866 H   0  0  0  0  0  0  0  0  0  0  0  0
   54.4763    4.6628    9.5180 H   0  0  0  0  0  0  0  0  0  0  0  0
   53.2984    8.9718    9.5982 H   0  0  0  0  0  0  0  0  0  0  0  0
  1  2  1  0
  1  5  1  0
  2  3  1  0
  3  4  1  0
  2  6  1  0
  2  7  1  0
  8  5  1  0
  5  4  2  0
  4  9  1  0
  8 11  2  0
  9 10  2  0
 10 11  1  0
 11 12  1  0
 12 13  1  0
 13 14  1  0
 14 12  1  0
 12 15  1  0
 15 16  2  0
 15 17  1  0
 17 18  1  0
 19 18  2  0
 18 20  1  0
 19 23  1  0
 20 21  2  0
 21 22  1  0
 22 23  2  0
 22 24  1  0
 23 25  1  0
 27 25  1  0
 25 28  2  0
 26 27  2  0
 26 30  1  0
 28 29  1  0
 29 30  2  0
 29 31  1  0
 31 32  1  0
 31 33  2  0
  8 34  1  0
  9 35  1  0
 10 36  1  0
 13 37  1  0
 13 38  1  0
 14 39  1  0
 14 40  1  0
 17 41  1  0
 20 42  1  0
 21 43  1  0
 24 44  1  0
 24 45  1  0
 24 46  1  0
 26 47  1  0
 27 48  1  0
 28 49  1  0
 30 50  1  0
 32 51  1  0
M  END
> <Uni-Dock RESULT> 
ENERGY=   -5.032  LOWER_BOUND=    6.880  UPPER_BOUND=    9.177
INTER + INTRA:          -5.032
INTER:                  -5.032
INTRA:                   0.000
UNBOUND:                 0.000

$$$$

     RDKit          3D

 51 55  0  0  0  0  0  0  0  0999 V2000
   45.0563   11.8410    6.8778 O   0  0  0  0  0  0  0  0  0  0  0  0
   43.7204   11.6645    6.3833 C   0  0  0  0  0  0  0  0  0  0  0  0
   42.6906   11.7605    7.3792 O   0  0  0  0  0  0  0  0  0  0  0  0
   43.4507   11.9911    8.4826 C   0  0  0  0  0  0  0  0  0  0  0  0
   44.7955   12.0384    8.1984 C   0  0  0  0  0  0  0  0  0  0  0  0
   43.4864   12.6007    5.4303 F   0  0  0  0  0  0  0  0  0  0  0  0
   43.6355   10.4465    5.7925 F   0  0  0  0  0  0  0  0  0  0  0  0
   45.7384   12.2672    9.1811 C   0  0  0  0  0  0  0  0  0  0  0  0
   42.9766   12.1683    9.7622 C   0  0  0  0  0  0  0  0  0  0  0  0
   43.9141   12.4055   10.7743 C   0  0  0  0  0  0  0  0  0  0  0  0
   45.3087   12.4626   10.5096 C   0  0  0  0  0  0  0  0  0  0  0  0
   46.3230   12.7082   11.6363 C   0  0  0  0  0  0  0  0  0  0  0  0
   47.1490   13.9964   11.5130 C   0  0  0  0  0  0  0  0  0  0  0  0
   46.0812   13.9084   12.5580 C   0  0  0  0  0  0  0  0  0  0  0  0
   47.0103   11.4952   12.2708 C   0  0  0  0  0  0  0  0  0  0  0  0
   48.0795   11.6470   12.8534 O   0  0  0  0  0  0  0  0  0  0  0  0
   46.3233   10.3125   12.1508 N   0  0  0  0  0  0  0  0  0  0  0  0
   46.6877    9.0474   12.6095 C   0  0  0  0  0  0  0  0  0  0  0  0
   45.7905    8.0936   12.2882 N   0  0  0  0  0  0  0  0  0  0  0  0
   47.8457    8.7701   13.3141 C   0  0  0  0  0  0  0  0  0  0  0  0
   48.0850    7.4575   13.7143 C   0  0  0  0  0  0  0  0  0  0  0  0
   47.1682    6.4479   13.4048 C   0  0  0  0  0  0  0  0  0  0  0  0
   46.0379    6.8091   12.6608 C   0  0  0  0  0  0  0  0  0  0  0  0
   47.4409    5.0439   13.8587 C   0  0  0  0  0  0  0  0  0  0  0  0
   45.0111    5.8584   12.2019 C   0  0  0  0  0  0  0  0  0  0  0  0
   42.6701    5.1677   12.1084 C   0  0  0  0  0  0  0  0  0  0  0  0
   43.6630    6.0430   12.5553 C   0  0  0  0  0  0  0  0  0  0  0  0
   45.3338    4.7751   11.3660 C   0  0  0  0  0  0  0  0  0  0  0  0
   44.3415    3.8921   10.9155 C   0  0  0  0  0  0  0  0  0  0  0  0
   43.0081    4.0932   11.2898 C   0  0  0  0  0  0  0  0  0  0  0  0
   44.6556    2.7429   10.0346 C   0  0  0  0  0  0  0  0  0  0  0  0
   45.9747    2.6023    9.8121 O   0  0  0  0  0  0  0  0  0  0  0  0
   43.8469    1.9733    9.5512 O   0  0  0  0  0  0  0  0  0  0  0  0
   46.7951   12.2994    8.9286 H   0  0  0  0  0  0  0  0  0  0  0  0
   41.9130   12.1297    9.9783 H   0  0  0  0  0  0  0  0  0  0  0  0
   43.5559   12.5532   11.7929 H   0  0  0  0  0  0  0  0  0  0  0  0
   46.9753   14.6560   10.6693 H   0  0  0  0  0  0  0  0  0  0  0  0
   48.1841   13.9815   11.8406 H   0  0  0  0  0  0  0  0  0  0  0  0
   45.1966   14.5198   12.4192 H   0  0  0  0  0  0  0  0  0  0  0  0
   46.3978   13.8307   13.5936 H   0  0  0  0  0  0  0  0  0  0  0  0
   45.4444   10.2904   11.6521 H   0  0  0  0  0  0  0  0  0  0  0  0
   48.5692    9.5353   13.5681 H   0  0  0  0  0  0  0  0  0  0  0  0
   48.9916    7.2333   14.2734 H   0  0  0  0  0  0  0  0  0  0  0  0
   48.1460    5.0326   14.6980 H   0  0  0  0  0  0  0  0  0  0  0  0
   47.8738    4.4561   13.0443 H   0  0  0  0  0  0  0  0  0  0  0  0
   46.5256    4.5601   14.2153 H   0  0  0  0  0  0  0  0  0  0  0  0
   41.6329    5.3320   12.3904 H   0  0  0  0  0  0  0  0  0  0  0  0
   43.3822    6.8891   13.1815 H   0  0  0  0  0  0  0  0  0  0  0  0
   46.3652    4.6344   11.0490 H   0  0  0  0  0  0  0  0  0  0  0  0
   42.2297    3.4181   10.9391 H   0  0  0  0  0  0  0  0  0  0  0  0
   46.0337    1.8142    9.2309 H   0  0  0  0  0  0  0  0  0  0  0  0
  1  2  1  0
  1  5  1  0
  2  3  1  0
  3  4  1  0
  2  6  1  0
  2  7  1  0
  8  5  1  0
  5  4  2  0
  4  9  1  0
  8 11  2  0
  9 10  2  0
 10 11  1  0
 11 12  1  0
 12 13  1  0
 13 14  1  0
 14 12  1  0
 12 15  1  0
 15 16  2  0
 15 17  1  0
 17 18  1  0
 19 18  2  0
 18 20  1  0
 19 23  1  0
 20 21  2  0
 21 22  1  0
 22 23  2  0
 22 24  1  0
 23 25  1  0
 27 25  1  0
 25 28  2  0
 26 27  2  0
 26 30  1  0
 28 29  1  0
 29 30  2  0
 29 31  1  0
 31 32  1  0
 31 33  2  0
  8 34  1  0
  9 35  1  0
 10 36  1  0
 13 37  1  0
 13 38  1  0
 14 39  1  0
 14 40  1  0
 17 41  1  0
 20 42  1  0
 21 43  1  0
 24 44  1  0
 24 45  1  0
 24 46  1  0
 26 47  1  0
 27 48  1  0
 28 49  1  0
 30 50  1  0
 32 51  1  0
M  END
> <Uni-Dock RESULT> 
ENERGY=   -4.921  LOWER_BOUND=    8.490  UPPER_BOUND=   13.099
INTER + INTRA:          -4.921
INTER:                  -4.921
INTRA:                   0.000
UNBOUND:                 0.000

$$$$

     RDKit          3D

 51 55  0  0  0  0  0  0  0  0999 V2000
   47.8386    5.7356   15.5098 O   0  0  0  0  0  0  0  0  0  0  0  0
   47.3410    4.6764   14.6788 C   0  0  0  0  0  0  0  0  0  0  0  0
   47.1021    3.4357   15.3608 O   0  0  0  0  0  0  0  0  0  0  0  0
   47.4790    3.7828   16.6201 C   0  0  0  0  0  0  0  0  0  0  0  0
   47.8965    5.0903   16.7062 C   0  0  0  0  0  0  0  0  0  0  0  0
   46.1801    5.0849   14.1088 F   0  0  0  0  0  0  0  0  0  0  0  0
   48.2327    4.4542   13.6812 F   0  0  0  0  0  0  0  0  0  0  0  0
   48.3166    5.6421   17.9003 C   0  0  0  0  0  0  0  0  0  0  0  0
   47.4600    2.9571   17.7208 C   0  0  0  0  0  0  0  0  0  0  0  0
   47.8780    3.4960   18.9432 C   0  0  0  0  0  0  0  0  0  0  0  0
   48.3116    4.8437   19.0623 C   0  0  0  0  0  0  0  0  0  0  0  0
   48.7816    5.4121   20.4094 C   0  0  0  0  0  0  0  0  0  0  0  0
   47.9394    6.5672   20.9695 C   0  0  0  0  0  0  0  0  0  0  0  0
   47.8605    5.2212   21.6191 C   0  0  0  0  0  0  0  0  0  0  0  0
   50.2852    5.4380   20.7010 C   0  0  0  0  0  0  0  0  0  0  0  0
   50.7216    6.2220   21.5379 O   0  0  0  0  0  0  0  0  0  0  0  0
   51.0273    4.5242   19.9943 N   0  0  0  0  0  0  0  0  0  0  0  0
   52.4046    4.3112   20.0310 C   0  0  0  0  0  0  0  0  0  0  0  0
   52.8105    3.3503   19.1766 N   0  0  0  0  0  0  0  0  0  0  0  0
   53.2859    5.0042   20.8417 C   0  0  0  0  0  0  0  0  0  0  0  0
   54.6409    4.6874   20.7782 C   0  0  0  0  0  0  0  0  0  0  0  0
   55.0913    3.6885   19.9094 C   0  0  0  0  0  0  0  0  0  0  0  0
   54.1369    3.0588   19.1006 C   0  0  0  0  0  0  0  0  0  0  0  0
   56.5537    3.3551   19.8687 C   0  0  0  0  0  0  0  0  0  0  0  0
   54.4539    2.0332   18.0924 C   0  0  0  0  0  0  0  0  0  0  0  0
   54.1147   -0.2115   17.1912 C   0  0  0  0  0  0  0  0  0  0  0  0
   53.8478    0.7662   18.1528 C   0  0  0  0  0  0  0  0  0  0  0  0
   55.3255    2.2996   17.0221 C   0  0  0  0  0  0  0  0  0  0  0  0
   55.5986    1.3214   16.0546 C   0  0  0  0  0  0  0  0  0  0  0  0
   54.9891    0.0648   16.1434 C   0  0  0  0  0  0  0  0  0  0  0  0
   56.5137    1.5769   14.9177 C   0  0  0  0  0  0  0  0  0  0  0  0
   57.1025    2.7844   14.9841 O   0  0  0  0  0  0  0  0  0  0  0  0
   56.7507    0.8066   14.0064 O   0  0  0  0  0  0  0  0  0  0  0  0
   48.6417    6.6786   17.9399 H   0  0  0  0  0  0  0  0  0  0  0  0
   47.1286    1.9257   17.6446 H   0  0  0  0  0  0  0  0  0  0  0  0
   47.8646    2.8578   19.8265 H   0  0  0  0  0  0  0  0  0  0  0  0
   47.0743    6.9088   20.4111 H   0  0  0  0  0  0  0  0  0  0  0  0
   48.4449    7.3632   21.5080 H   0  0  0  0  0  0  0  0  0  0  0  0
   46.9358    4.6664   21.5052 H   0  0  0  0  0  0  0  0  0  0  0  0
   48.3170    5.1087   22.5977 H   0  0  0  0  0  0  0  0  0  0  0  0
   50.5729    3.9169   19.3262 H   0  0  0  0  0  0  0  0  0  0  0  0
   52.9608    5.7798   21.5246 H   0  0  0  0  0  0  0  0  0  0  0  0
   55.3390    5.2252   21.4171 H   0  0  0  0  0  0  0  0  0  0  0  0
   57.0554    3.6768   20.7888 H   0  0  0  0  0  0  0  0  0  0  0  0
   57.0370    3.8572   19.0258 H   0  0  0  0  0  0  0  0  0  0  0  0
   56.7097    2.2741   19.7914 H   0  0  0  0  0  0  0  0  0  0  0  0
   53.6313   -1.1835   17.2549 H   0  0  0  0  0  0  0  0  0  0  0  0
   53.1489    0.5421   18.9578 H   0  0  0  0  0  0  0  0  0  0  0  0
   55.7770    3.2858   16.9342 H   0  0  0  0  0  0  0  0  0  0  0  0
   55.1884   -0.6984   15.3933 H   0  0  0  0  0  0  0  0  0  0  0  0
   57.6741    2.8128   14.1872 H   0  0  0  0  0  0  0  0  0  0  0  0
  1  2  1  0
  1  5  1  0
  2  3  1  0
  3  4  1  0
  2  6  1  0
  2  7  1  0
  8  5  1  0
  5  4  2  0
  4  9  1  0
  8 11  2  0
  9 10  2  0
 10 11  1  0
 11 12  1  0
 12 13  1  0
 13 14  1  0
 14 12  1  0
 12 15  1  0
 15 16  2  0
 15 17  1  0
 17 18  1  0
 19 18  2  0
 18 20  1  0
 19 23  1  0
 20 21  2  0
 21 22  1  0
 22 23  2  0
 22 24  1  0
 23 25  1  0
 27 25  1  0
 25 28  2  0
 26 27  2  0
 26 30  1  0
 28 29  1  0
 29 30  2  0
 29 31  1  0
 31 32  1  0
 31 33  2  0
  8 34  1  0
  9 35  1  0
 10 36  1  0
 13 37  1  0
 13 38  1  0
 14 39  1  0
 14 40  1  0
 17 41  1  0
 20 42  1  0
 21 43  1  0
 24 44  1  0
 24 45  1  0
 24 46  1  0
 26 47  1  0
 27 48  1  0
 28 49  1  0
 30 50  1  0
 32 51  1  0
M  END
> <Uni-Dock RESULT> 
ENERGY=   -4.806  LOWER_BOUND=    5.377  UPPER_BOUND=    9.870
INTER + INTRA:          -4.806
INTER:                  -4.806
INTRA:                   0.000
UNBOUND:                 0.000

$$$$

     RDKit          3D

 51 55  0  0  0  0  0  0  0  0999 V2000
   44.9070   14.4935   13.3015 O   0  0  0  0  0  0  0  0  0  0  0  0
   46.1011   15.2873   13.2368 C   0  0  0  0  0  0  0  0  0  0  0  0
   46.9688   14.9834   12.1339 O   0  0  0  0  0  0  0  0  0  0  0  0
   46.2623   13.9806   11.5478 C   0  0  0  0  0  0  0  0  0  0  0  0
   45.0895   13.7023   12.2099 C   0  0  0  0  0  0  0  0  0  0  0  0
   45.7462   16.5939   13.1581 F   0  0  0  0  0  0  0  0  0  0  0  0
   46.7954   15.1188   14.3897 F   0  0  0  0  0  0  0  0  0  0  0  0
   44.2238   12.7191   11.7729 C   0  0  0  0  0  0  0  0  0  0  0  0
   46.6332   13.2917   10.4157 C   0  0  0  0  0  0  0  0  0  0  0  0
   45.7691   12.2930    9.9518 C   0  0  0  0  0  0  0  0  0  0  0  0
   44.5501   11.9859   10.6137 C   0  0  0  0  0  0  0  0  0  0  0  0
   43.6227   10.8755   10.0983 C   0  0  0  0  0  0  0  0  0  0  0  0
   42.2293   11.3349    9.6459 C   0  0  0  0  0  0  0  0  0  0  0  0
   43.2303   10.9108    8.6173 C   0  0  0  0  0  0  0  0  0  0  0  0
   43.7277    9.4876   10.7378 C   0  0  0  0  0  0  0  0  0  0  0  0
   42.7761    8.7168   10.6604 O   0  0  0  0  0  0  0  0  0  0  0  0
   44.9347    9.2144   11.3325 N   0  0  0  0  0  0  0  0  0  0  0  0
   45.3306    8.0558   11.9993 C   0  0  0  0  0  0  0  0  0  0  0  0
   46.5813    8.1371   12.4963 N   0  0  0  0  0  0  0  0  0  0  0  0
   44.5407    6.9308   12.1570 C   0  0  0  0  0  0  0  0  0  0  0  0
   45.0644    5.8393   12.8461 C   0  0  0  0  0  0  0  0  0  0  0  0
   46.3622    5.8896   13.3646 C   0  0  0  0  0  0  0  0  0  0  0  0
   47.0816    7.0782   13.1881 C   0  0  0  0  0  0  0  0  0  0  0  0
   46.9095    4.6962   14.0910 C   0  0  0  0  0  0  0  0  0  0  0  0
   48.4326    7.3149   13.7242 C   0  0  0  0  0  0  0  0  0  0  0  0
   50.7700    7.9202   13.3551 C   0  0  0  0  0  0  0  0  0  0  0  0
   49.4873    7.6656   12.8634 C   0  0  0  0  0  0  0  0  0  0  0  0
   48.6986    7.2459   15.1029 C   0  0  0  0  0  0  0  0  0  0  0  0
   49.9847    7.4989   15.6021 C   0  0  0  0  0  0  0  0  0  0  0  0
   51.0193    7.8368   14.7225 C   0  0  0  0  0  0  0  0  0  0  0  0
   50.2909    7.4321   17.0503 C   0  0  0  0  0  0  0  0  0  0  0  0
   49.2438    7.0173   17.7856 O   0  0  0  0  0  0  0  0  0  0  0  0
   51.3598    7.6995   17.5659 O   0  0  0  0  0  0  0  0  0  0  0  0
   43.3034   12.5198   12.3156 H   0  0  0  0  0  0  0  0  0  0  0  0
   47.5610   13.5178    9.8984 H   0  0  0  0  0  0  0  0  0  0  0  0
   46.0446   11.7408    9.0536 H   0  0  0  0  0  0  0  0  0  0  0  0
   41.9777   12.3888    9.6998 H   0  0  0  0  0  0  0  0  0  0  0  0
   41.3826   10.6810    9.8319 H   0  0  0  0  0  0  0  0  0  0  0  0
   43.6401   11.6810    7.9735 H   0  0  0  0  0  0  0  0  0  0  0  0
   43.0593    9.9661    8.1103 H   0  0  0  0  0  0  0  0  0  0  0  0
   45.6609    9.9175   11.3416 H   0  0  0  0  0  0  0  0  0  0  0  0
   43.5340    6.8671   11.7622 H   0  0  0  0  0  0  0  0  0  0  0  0
   44.4502    4.9491   12.9693 H   0  0  0  0  0  0  0  0  0  0  0  0
   46.3654    3.7852   13.8154 H   0  0  0  0  0  0  0  0  0  0  0  0
   46.8179    4.8317   15.1724 H   0  0  0  0  0  0  0  0  0  0  0  0
   47.9586    4.5226   13.8297 H   0  0  0  0  0  0  0  0  0  0  0  0
   51.5701    8.1941   12.6716 H   0  0  0  0  0  0  0  0  0  0  0  0
   49.3025    7.7506   11.7932 H   0  0  0  0  0  0  0  0  0  0  0  0
   47.8889    7.0131   15.7916 H   0  0  0  0  0  0  0  0  0  0  0  0
   52.0189    8.0426   15.1007 H   0  0  0  0  0  0  0  0  0  0  0  0
   49.5867    7.0145   18.7048 H   0  0  0  0  0  0  0  0  0  0  0  0
  1  2  1  0
  1  5  1  0
  2  3  1  0
  3  4  1  0
  2  6  1  0
  2  7  1  0
  8  5  1  0
  5  4  2  0
  4  9  1  0
  8 11  2  0
  9 10  2  0
 10 11  1  0
 11 12  1  0
 12 13  1  0
 13 14  1  0
 14 12  1  0
 12 15  1  0
 15 16  2  0
 15 17  1  0
 17 18  1  0
 19 18  2  0
 18 20  1  0
 19 23  1  0
 20 21  2  0
 21 22  1  0
 22 23  2  0
 22 24  1  0
 23 25  1  0
 27 25  1  0
 25 28  2  0
 26 27  2  0
 26 30  1  0
 28 29  1  0
 29 30  2  0
 29 31  1  0
 31 32  1  0
 31 33  2  0
  8 34  1  0
  9 35  1  0
 10 36  1  0
 13 37  1  0
 13 38  1  0
 14 39  1  0
 14 40  1  0
 17 41  1  0
 20 42  1  0
 21 43  1  0
 24 44  1  0
 24 45  1  0
 24 46  1  0
 26 47  1  0
 27 48  1  0
 28 49  1  0
 30 50  1  0
 32 51  1  0
M  END
> <Uni-Dock RESULT> 
ENERGY=   -4.782  LOWER_BOUND=    6.544  UPPER_BOUND=   10.603
INTER + INTRA:          -4.782
INTER:                  -4.782
INTRA:                   0.000
UNBOUND:                 0.000

$$$$

     RDKit          3D

 51 55  0  0  0  0  0  0  0  0999 V2000
   46.5636    4.7983   18.0438 O   0  0  0  0  0  0  0  0  0  0  0  0
   47.4506    3.9193   17.3363 C   0  0  0  0  0  0  0  0  0  0  0  0
   48.8474    4.1523   17.5736 O   0  0  0  0  0  0  0  0  0  0  0  0
   48.7682    5.2003   18.4360 C   0  0  0  0  0  0  0  0  0  0  0  0
   47.4704    5.5674   18.7050 C   0  0  0  0  0  0  0  0  0  0  0  0
   47.1616    2.6415   17.6873 F   0  0  0  0  0  0  0  0  0  0  0  0
   47.2134    4.0439   16.0067 F   0  0  0  0  0  0  0  0  0  0  0  0
   47.1723    6.6082   19.5622 C   0  0  0  0  0  0  0  0  0  0  0  0
   49.8364    5.8533   19.0072 C   0  0  0  0  0  0  0  0  0  0  0  0
   49.5581    6.9094   19.8827 C   0  0  0  0  0  0  0  0  0  0  0  0
   48.2278    7.3085   20.1813 C   0  0  0  0  0  0  0  0  0  0  0  0
   47.9432    8.4803   21.1324 C   0  0  0  0  0  0  0  0  0  0  0  0
   47.1771    8.1208   22.4135 C   0  0  0  0  0  0  0  0  0  0  0  0
   48.6311    8.4645   22.5017 C   0  0  0  0  0  0  0  0  0  0  0  0
   47.6785    9.8608   20.5238 C   0  0  0  0  0  0  0  0  0  0  0  0
   47.0651   10.6984   21.1781 O   0  0  0  0  0  0  0  0  0  0  0  0
   48.2001   10.0491   19.2678 N   0  0  0  0  0  0  0  0  0  0  0  0
   48.1207   11.1798   18.4562 C   0  0  0  0  0  0  0  0  0  0  0  0
   48.7190   11.0108   17.2597 N   0  0  0  0  0  0  0  0  0  0  0  0
   47.4929   12.3603   18.8120 C   0  0  0  0  0  0  0  0  0  0  0  0
   47.4901   13.4150   17.9020 C   0  0  0  0  0  0  0  0  0  0  0  0
   48.1111   13.2736   16.6571 C   0  0  0  0  0  0  0  0  0  0  0  0
   48.6952   12.0347   16.3647 C   0  0  0  0  0  0  0  0  0  0  0  0
   48.1073   14.4285   15.6990 C   0  0  0  0  0  0  0  0  0  0  0  0
   49.3332   11.7036   15.0794 C   0  0  0  0  0  0  0  0  0  0  0  0
   51.2860   10.9274   13.8344 C   0  0  0  0  0  0  0  0  0  0  0  0
   50.6705   11.2717   15.0403 C   0  0  0  0  0  0  0  0  0  0  0  0
   48.6208   11.7615   13.8688 C   0  0  0  0  0  0  0  0  0  0  0  0
   49.2340   11.4186   12.6549 C   0  0  0  0  0  0  0  0  0  0  0  0
   50.5695   11.0008   12.6427 C   0  0  0  0  0  0  0  0  0  0  0  0
   48.5054   11.4719   11.3658 C   0  0  0  0  0  0  0  0  0  0  0  0
   47.2608   11.9664   11.4909 O   0  0  0  0  0  0  0  0  0  0  0  0
   48.9448   11.1306   10.2840 O   0  0  0  0  0  0  0  0  0  0  0  0
   46.1374    6.8775   19.7570 H   0  0  0  0  0  0  0  0  0  0  0  0
   50.8583    5.5571   18.7898 H   0  0  0  0  0  0  0  0  0  0  0  0
   50.3920    7.4345   20.3482 H   0  0  0  0  0  0  0  0  0  0  0  0
   46.8919    7.0884   22.5858 H   0  0  0  0  0  0  0  0  0  0  0  0
   46.4605    8.8358   22.8064 H   0  0  0  0  0  0  0  0  0  0  0  0
   49.3188    7.6625   22.7457 H   0  0  0  0  0  0  0  0  0  0  0  0
   48.8953    9.4160   22.9530 H   0  0  0  0  0  0  0  0  0  0  0  0
   48.6944    9.2950   18.8109 H   0  0  0  0  0  0  0  0  0  0  0  0
   47.0077   12.4948   19.7712 H   0  0  0  0  0  0  0  0  0  0  0  0
   47.0024   14.3484   18.1776 H   0  0  0  0  0  0  0  0  0  0  0  0
   47.9377   15.3749   16.2257 H   0  0  0  0  0  0  0  0  0  0  0  0
   47.3135   14.3067   14.9566 H   0  0  0  0  0  0  0  0  0  0  0  0
   49.0733   14.5236   15.1923 H   0  0  0  0  0  0  0  0  0  0  0  0
   52.3203   10.5917   13.8279 H   0  0  0  0  0  0  0  0  0  0  0  0
   51.2378   11.1937   15.9671 H   0  0  0  0  0  0  0  0  0  0  0  0
   47.5736   12.0570   13.8796 H   0  0  0  0  0  0  0  0  0  0  0  0
   51.0520   10.7251   11.7068 H   0  0  0  0  0  0  0  0  0  0  0  0
   46.9068   11.9500   10.5761 H   0  0  0  0  0  0  0  0  0  0  0  0
  1  2  1  0
  1  5  1  0
  2  3  1  0
  3  4  1  0
  2  6  1  0
  2  7  1  0
  8  5  1  0
  5  4  2  0
  4  9  1  0
  8 11  2  0
  9 10  2  0
 10 11  1  0
 11 12  1  0
 12 13  1  0
 13 14  1  0
 14 12  1  0
 12 15  1  0
 15 16  2  0
 15 17  1  0
 17 18  1  0
 19 18  2  0
 18 20  1  0
 19 23  1  0
 20 21  2  0
 21 22  1  0
 22 23  2  0
 22 24  1  0
 23 25  1  0
 27 25  1  0
 25 28  2  0
 26 27  2  0
 26 30  1  0
 28 29  1  0
 29 30  2  0
 29 31  1  0
 31 32  1  0
 31 33  2  0
  8 34  1  0
  9 35  1  0
 10 36  1  0
 13 37  1  0
 13 38  1  0
 14 39  1  0
 14 40  1  0
 17 41  1  0
 20 42  1  0
 21 43  1  0
 24 44  1  0
 24 45  1  0
 24 46  1  0
 26 47  1  0
 27 48  1  0
 28 49  1  0
 30 50  1  0
 32 51  1  0
M  END
> <Uni-Dock RESULT> 
ENERGY=   -4.617  LOWER_BOUND=    3.665  UPPER_BOUND=    6.113
INTER + INTRA:          -4.617
INTER:                  -4.617
INTRA:                   0.000
UNBOUND:                 0.000

$$$$

     RDKit          3D

 51 55  0  0  0  0  0  0  0  0999 V2000
   47.2670    6.4893   21.2618 O   0  0  0  0  0  0  0  0  0  0  0  0
   47.6880    7.8093   21.6368 C   0  0  0  0  0  0  0  0  0  0  0  0
   48.4001    8.5278   20.6178 O   0  0  0  0  0  0  0  0  0  0  0  0
   48.3989    7.5960   19.6279 C   0  0  0  0  0  0  0  0  0  0  0  0
   47.7538    6.4374   19.9925 C   0  0  0  0  0  0  0  0  0  0  0  0
   46.5921    8.5286   21.9848 F   0  0  0  0  0  0  0  0  0  0  0  0
   48.4826    7.7150   22.7320 F   0  0  0  0  0  0  0  0  0  0  0  0
   47.6372    5.3673   19.1274 C   0  0  0  0  0  0  0  0  0  0  0  0
   48.9624    7.7470   18.3816 C   0  0  0  0  0  0  0  0  0  0  0  0
   48.8531    6.6765   17.4863 C   0  0  0  0  0  0  0  0  0  0  0  0
   48.1901    5.4692   17.8345 C   0  0  0  0  0  0  0  0  0  0  0  0
   48.0944    4.2998   16.8436 C   0  0  0  0  0  0  0  0  0  0  0  0
   46.6725    3.9139   16.4117 C   0  0  0  0  0  0  0  0  0  0  0  0
   47.5721    4.6051   15.4356 C   0  0  0  0  0  0  0  0  0  0  0  0
   49.1224    3.1695   16.9538 C   0  0  0  0  0  0  0  0  0  0  0  0
   48.8555    2.0668   16.4865 O   0  0  0  0  0  0  0  0  0  0  0  0
   50.3037    3.5190   17.5602 N   0  0  0  0  0  0  0  0  0  0  0  0
   51.4176    2.7201   17.8145 C   0  0  0  0  0  0  0  0  0  0  0  0
   52.3995    3.3788   18.4624 N   0  0  0  0  0  0  0  0  0  0  0  0
   51.5269    1.3875   17.4589 C   0  0  0  0  0  0  0  0  0  0  0  0
   52.7008    0.7070   17.7740 C   0  0  0  0  0  0  0  0  0  0  0  0
   53.7412    1.3658   18.4366 C   0  0  0  0  0  0  0  0  0  0  0  0
   53.5356    2.7057   18.7886 C   0  0  0  0  0  0  0  0  0  0  0  0
   55.0018    0.6157   18.7529 C   0  0  0  0  0  0  0  0  0  0  0  0
   54.5037    3.5214   19.5409 C   0  0  0  0  0  0  0  0  0  0  0  0
   55.8845    5.5290   19.7120 C   0  0  0  0  0  0  0  0  0  0  0  0
   54.9862    4.7275   19.0032 C   0  0  0  0  0  0  0  0  0  0  0  0
   54.9357    3.1502   20.8262 C   0  0  0  0  0  0  0  0  0  0  0  0
   55.8386    3.9500   21.5418 C   0  0  0  0  0  0  0  0  0  0  0  0
   56.3110    5.1413   20.9796 C   0  0  0  0  0  0  0  0  0  0  0  0
   56.3095    3.5806   22.8973 C   0  0  0  0  0  0  0  0  0  0  0  0
   55.8560    2.3790   23.2969 O   0  0  0  0  0  0  0  0  0  0  0  0
   57.0380    4.2495   23.6057 O   0  0  0  0  0  0  0  0  0  0  0  0
   47.1222    4.4632   19.4416 H   0  0  0  0  0  0  0  0  0  0  0  0
   49.4699    8.6653   18.1013 H   0  0  0  0  0  0  0  0  0  0  0  0
   49.2891    6.7808   16.4929 H   0  0  0  0  0  0  0  0  0  0  0  0
   45.8310    4.4740   16.8055 H   0  0  0  0  0  0  0  0  0  0  0  0
   46.4491    2.8648   16.2431 H   0  0  0  0  0  0  0  0  0  0  0  0
   47.3248    5.6259   15.1665 H   0  0  0  0  0  0  0  0  0  0  0  0
   47.9590    4.0189   14.6077 H   0  0  0  0  0  0  0  0  0  0  0  0
   50.4293    4.4583   17.9117 H   0  0  0  0  0  0  0  0  0  0  0  0
   50.7361    0.8566   16.9428 H   0  0  0  0  0  0  0  0  0  0  0  0
   52.7954   -0.3402   17.4925 H   0  0  0  0  0  0  0  0  0  0  0  0
   55.1103   -0.2611   18.1039 H   0  0  0  0  0  0  0  0  0  0  0  0
   54.9909    0.2701   19.7905 H   0  0  0  0  0  0  0  0  0  0  0  0
   55.8852    1.2398   18.5824 H   0  0  0  0  0  0  0  0  0  0  0  0
   56.2415    6.4602   19.2788 H   0  0  0  0  0  0  0  0  0  0  0  0
   54.6481    5.0511   18.0195 H   0  0  0  0  0  0  0  0  0  0  0  0
   54.5464    2.2398   21.2777 H   0  0  0  0  0  0  0  0  0  0  0  0
   57.0058    5.7728   21.5301 H   0  0  0  0  0  0  0  0  0  0  0  0
   56.2451    2.2646   24.1902 H   0  0  0  0  0  0  0  0  0  0  0  0
  1  2  1  0
  1  5  1  0
  2  3  1  0
  3  4  1  0
  2  6  1  0
  2  7  1  0
  8  5  1  0
  5  4  2  0
  4  9  1  0
  8 11  2  0
  9 10  2  0
 10 11  1  0
 11 12  1  0
 12 13  1  0
 13 14  1  0
 14 12  1  0
 12 15  1  0
 15 16  2  0
 15 17  1  0
 17 18  1  0
 19 18  2  0
 18 20  1  0
 19 23  1  0
 20 21  2  0
 21 22  1  0
 22 23  2  0
 22 24  1  0
 23 25  1  0
 27 25  1  0
 25 28  2  0
 26 27  2  0
 26 30  1  0
 28 29  1  0
 29 30  2  0
 29 31  1  0
 31 32  1  0
 31 33  2  0
  8 34  1  0
  9 35  1  0
 10 36  1  0
 13 37  1  0
 13 38  1  0
 14 39  1  0
 14 40  1  0
 17 41  1  0
 20 42  1  0
 21 43  1  0
 24 44  1  0
 24 45  1  0
 24 46  1  0
 26 47  1  0
 27 48  1  0
 28 49  1  0
 30 50  1  0
 32 51  1  0
M  END
> <Uni-Dock RESULT> 
ENERGY=   -4.540  LOWER_BOUND=    4.161  UPPER_BOUND=    8.196
INTER + INTRA:          -4.540
INTER:                  -4.540
INTRA:                   0.000
UNBOUND:                 0.000

$$$$

     RDKit          3D

 51 55  0  0  0  0  0  0  0  0999 V2000
   53.9522    6.6293    8.4087 O   0  0  0  0  0  0  0  0  0  0  0  0
   53.1596    7.0711    7.2966 C   0  0  0  0  0  0  0  0  0  0  0  0
   52.5882    8.3799    7.4450 O   0  0  0  0  0  0  0  0  0  0  0  0
   53.0557    8.7024    8.6801 C   0  0  0  0  0  0  0  0  0  0  0  0
   53.8324    7.7086    9.2282 C   0  0  0  0  0  0  0  0  0  0  0  0
   53.9355    7.0636    6.1843 F   0  0  0  0  0  0  0  0  0  0  0  0
   52.1539    6.1820    7.1021 F   0  0  0  0  0  0  0  0  0  0  0  0
   54.4078    7.8409   10.4765 C   0  0  0  0  0  0  0  0  0  0  0  0
   52.8117    9.8798    9.3495 C   0  0  0  0  0  0  0  0  0  0  0  0
   53.3881   10.0379   10.6152 C   0  0  0  0  0  0  0  0  0  0  0  0
   54.1969    9.0296   11.2048 C   0  0  0  0  0  0  0  0  0  0  0  0
   54.8076    9.2152   12.6016 C   0  0  0  0  0  0  0  0  0  0  0  0
   56.3419    9.2297   12.6556 C   0  0  0  0  0  0  0  0  0  0  0  0
   55.5897   10.5061   12.8671 C   0  0  0  0  0  0  0  0  0  0  0  0
   54.0716    8.6109   13.8014 C   0  0  0  0  0  0  0  0  0  0  0  0
   54.6937    8.3787   14.8332 O   0  0  0  0  0  0  0  0  0  0  0  0
   52.7269    8.4077   13.6127 N   0  0  0  0  0  0  0  0  0  0  0  0
   51.7977    7.8706   14.5025 C   0  0  0  0  0  0  0  0  0  0  0  0
   50.5589    7.7808   13.9777 N   0  0  0  0  0  0  0  0  0  0  0  0
   52.0902    7.4571   15.7900 C   0  0  0  0  0  0  0  0  0  0  0  0
   51.0619    6.9392   16.5742 C   0  0  0  0  0  0  0  0  0  0  0  0
   49.7645    6.8427   16.0615 C   0  0  0  0  0  0  0  0  0  0  0  0
   49.5618    7.2539   14.7381 C   0  0  0  0  0  0  0  0  0  0  0  0
   48.6705    6.2945   16.9299 C   0  0  0  0  0  0  0  0  0  0  0  0
   48.2734    7.1605   14.0309 C   0  0  0  0  0  0  0  0  0  0  0  0
   46.4747    8.2374   12.7775 C   0  0  0  0  0  0  0  0  0  0  0  0
   47.6831    8.3089   13.4750 C   0  0  0  0  0  0  0  0  0  0  0  0
   47.6228    5.9277   13.8487 C   0  0  0  0  0  0  0  0  0  0  0  0
   46.4087    5.8500   13.1507 C   0  0  0  0  0  0  0  0  0  0  0  0
   45.8375    7.0100   12.6154 C   0  0  0  0  0  0  0  0  0  0  0  0
   45.7030    4.5633   12.9457 C   0  0  0  0  0  0  0  0  0  0  0  0
   46.3006    3.5355   13.5747 O   0  0  0  0  0  0  0  0  0  0  0  0
   44.6846    4.4040   12.2997 O   0  0  0  0  0  0  0  0  0  0  0  0
   55.0172    7.0393   10.8859 H   0  0  0  0  0  0  0  0  0  0  0  0
   52.1974   10.6599    8.9096 H   0  0  0  0  0  0  0  0  0  0  0  0
   53.2096   10.9662   11.1574 H   0  0  0  0  0  0  0  0  0  0  0  0
   56.9036    9.1225   11.7337 H   0  0  0  0  0  0  0  0  0  0  0  0
   56.8343    8.7812   13.5133 H   0  0  0  0  0  0  0  0  0  0  0  0
   55.6582   11.2594   12.0902 H   0  0  0  0  0  0  0  0  0  0  0  0
   55.5723   10.9179   13.8715 H   0  0  0  0  0  0  0  0  0  0  0  0
   52.3045    8.6345   12.7229 H   0  0  0  0  0  0  0  0  0  0  0  0
   53.0863    7.5244   16.2103 H   0  0  0  0  0  0  0  0  0  0  0  0
   51.2841    6.6167   17.5898 H   0  0  0  0  0  0  0  0  0  0  0  0
   48.9350    6.3727   17.9909 H   0  0  0  0  0  0  0  0  0  0  0  0
   48.4935    5.2396   16.7015 H   0  0  0  0  0  0  0  0  0  0  0  0
   47.7421    6.8600   16.7986 H   0  0  0  0  0  0  0  0  0  0  0  0
   46.0381    9.1377   12.3519 H   0  0  0  0  0  0  0  0  0  0  0  0
   48.1791    9.2731   13.5800 H   0  0  0  0  0  0  0  0  0  0  0  0
   48.0802    5.0203   14.2378 H   0  0  0  0  0  0  0  0  0  0  0  0
   44.8997    6.9590   12.0654 H   0  0  0  0  0  0  0  0  0  0  0  0
   45.7321    2.7650   13.3611 H   0  0  0  0  0  0  0  0  0  0  0  0
  1  2  1  0
  1  5  1  0
  2  3  1  0
  3  4  1  0
  2  6  1  0
  2  7  1  0
  8  5  1  0
  5  4  2  0
  4  9  1  0
  8 11  2  0
  9 10  2  0
 10 11  1  0
 11 12  1  0
 12 13  1  0
 13 14  1  0
 14 12  1  0
 12 15  1  0
 15 16  2  0
 15 17  1  0
 17 18  1  0
 19 18  2  0
 18 20  1  0
 19 23  1  0
 20 21  2  0
 21 22  1  0
 22 23  2  0
 22 24  1  0
 23 25  1  0
 27 25  1  0
 25 28  2  0
 26 27  2  0
 26 30  1  0
 28 29  1  0
 29 30  2  0
 29 31  1  0
 31 32  1  0
 31 33  2  0
  8 34  1  0
  9 35  1  0
 10 36  1  0
 13 37  1  0
 13 38  1  0
 14 39  1  0
 14 40  1  0
 17 41  1  0
 20 42  1  0
 21 43  1  0
 24 44  1  0
 24 45  1  0
 24 46  1  0
 26 47  1  0
 27 48  1  0
 28 49  1  0
 30 50  1  0
 32 51  1  0
M  END
> <Uni-Dock RESULT> 
ENERGY=   -4.529  LOWER_BOUND=    7.126  UPPER_BOUND=   10.960
INTER + INTRA:          -4.529
INTER:                  -4.529
INTRA:                   0.000
UNBOUND:                 0.000

$$$$

     RDKit          3D

 51 55  0  0  0  0  0  0  0  0999 V2000
   46.4186    5.9084   12.1111 O   0  0  0  0  0  0  0  0  0  0  0  0
   45.0890    6.3659   12.3989 C   0  0  0  0  0  0  0  0  0  0  0  0
   44.9951    7.7474   12.7786 O   0  0  0  0  0  0  0  0  0  0  0  0
   46.3071    8.0983   12.7169 C   0  0  0  0  0  0  0  0  0  0  0  0
   47.1169    7.0541   12.3362 C   0  0  0  0  0  0  0  0  0  0  0  0
   44.3179    6.1677   11.3010 F   0  0  0  0  0  0  0  0  0  0  0  0
   44.5786    5.6084   13.4017 F   0  0  0  0  0  0  0  0  0  0  0  0
   48.4838    7.2036   12.2082 C   0  0  0  0  0  0  0  0  0  0  0  0
   46.8188    9.3461   12.9909 C   0  0  0  0  0  0  0  0  0  0  0  0
   48.2016    9.5222   12.8640 C   0  0  0  0  0  0  0  0  0  0  0  0
   49.0619    8.4626   12.4698 C   0  0  0  0  0  0  0  0  0  0  0  0
   50.5788    8.6715   12.3515 C   0  0  0  0  0  0  0  0  0  0  0  0
   51.1644    8.4827   10.9449 C   0  0  0  0  0  0  0  0  0  0  0  0
   51.0673    9.8615   11.5188 C   0  0  0  0  0  0  0  0  0  0  0  0
   51.4615    8.2666   13.5362 C   0  0  0  0  0  0  0  0  0  0  0  0
   52.6511    8.0331   13.3470 O   0  0  0  0  0  0  0  0  0  0  0  0
   50.8208    8.2329   14.7501 N   0  0  0  0  0  0  0  0  0  0  0  0
   51.3439    7.8966   15.9979 C   0  0  0  0  0  0  0  0  0  0  0  0
   50.4223    7.9346   16.9814 N   0  0  0  0  0  0  0  0  0  0  0  0
   52.6627    7.5481   16.2294 C   0  0  0  0  0  0  0  0  0  0  0  0
   53.0518    7.2360   17.5300 C   0  0  0  0  0  0  0  0  0  0  0  0
   52.1213    7.2763   18.5730 C   0  0  0  0  0  0  0  0  0  0  0  0
   50.8003    7.6075   18.2464 C   0  0  0  0  0  0  0  0  0  0  0  0
   52.5672    6.9496   19.9681 C   0  0  0  0  0  0  0  0  0  0  0  0
   49.6906    7.6346   19.2142 C   0  0  0  0  0  0  0  0  0  0  0  0
   47.8613    8.8444   20.2894 C   0  0  0  0  0  0  0  0  0  0  0  0
   48.9345    8.8058   19.3958 C   0  0  0  0  0  0  0  0  0  0  0  0
   49.3245    6.4906   19.9447 C   0  0  0  0  0  0  0  0  0  0  0  0
   48.2491    6.5238   20.8444 C   0  0  0  0  0  0  0  0  0  0  0  0
   47.5185    7.7054   21.0134 C   0  0  0  0  0  0  0  0  0  0  0  0
   47.8437    5.3323   21.6263 C   0  0  0  0  0  0  0  0  0  0  0  0
   48.6678    4.2848   21.4445 O   0  0  0  0  0  0  0  0  0  0  0  0
   46.8873    5.2624   22.3749 O   0  0  0  0  0  0  0  0  0  0  0  0
   49.1005    6.3611   11.9057 H   0  0  0  0  0  0  0  0  0  0  0  0
   46.1724   10.1657   13.2908 H   0  0  0  0  0  0  0  0  0  0  0  0
   48.6235   10.5053   13.0720 H   0  0  0  0  0  0  0  0  0  0  0  0
   50.4995    8.2297   10.1259 H   0  0  0  0  0  0  0  0  0  0  0  0
   52.1511    8.0396   10.8497 H   0  0  0  0  0  0  0  0  0  0  0  0
   50.3442   10.5364   11.0745 H   0  0  0  0  0  0  0  0  0  0  0  0
   51.9917   10.3483   11.8143 H   0  0  0  0  0  0  0  0  0  0  0  0
   49.8340    8.4452   14.8034 H   0  0  0  0  0  0  0  0  0  0  0  0
   53.4022    7.5127   15.4386 H   0  0  0  0  0  0  0  0  0  0  0  0
   54.0891    6.9660   17.7199 H   0  0  0  0  0  0  0  0  0  0  0  0
   53.6514    7.0732   20.0727 H   0  0  0  0  0  0  0  0  0  0  0  0
   52.3185    5.9139   20.2162 H   0  0  0  0  0  0  0  0  0  0  0  0
   52.1058    7.6235   20.6974 H   0  0  0  0  0  0  0  0  0  0  0  0
   47.2872    9.7598   20.4109 H   0  0  0  0  0  0  0  0  0  0  0  0
   49.1812    9.6994   18.8236 H   0  0  0  0  0  0  0  0  0  0  0  0
   49.8719    5.5625   19.7925 H   0  0  0  0  0  0  0  0  0  0  0  0
   46.6774    7.7392   21.7033 H   0  0  0  0  0  0  0  0  0  0  0  0
   48.2891    3.5840   22.0171 H   0  0  0  0  0  0  0  0  0  0  0  0
  1  2  1  0
  1  5  1  0
  2  3  1  0
  3  4  1  0
  2  6  1  0
  2  7  1  0
  8  5  1  0
  5  4  2  0
  4  9  1  0
  8 11  2  0
  9 10  2  0
 10 11  1  0
 11 12  1  0
 12 13  1  0
 13 14  1  0
 14 12  1  0
 12 15  1  0
 15 16  2  0
 15 17  1  0
 17 18  1  0
 19 18  2  0
 18 20  1  0
 19 23  1  0
 20 21  2  0
 21 22  1  0
 22 23  2  0
 22 24  1  0
 23 25  1  0
 27 25  1  0
 25 28  2  0
 26 27  2  0
 26 30  1  0
 28 29  1  0
 29 30  2  0
 29 31  1  0
 31 32  1  0
 31 33  2  0
  8 34  1  0
  9 35  1  0
 10 36  1  0
 13 37  1  0
 13 38  1  0
 14 39  1  0
 14 40  1  0
 17 41  1  0
 20 42  1  0
 21 43  1  0
 24 44  1  0
 24 45  1  0
 24 46  1  0
 26 47  1  0
 27 48  1  0
 28 49  1  0
 30 50  1  0
 32 51  1  0
M  END
> <Uni-Dock RESULT> 
ENERGY=   -4.474  LOWER_BOUND=    5.032  UPPER_BOUND=    8.267
INTER + INTRA:          -4.474
INTER:                  -4.474
INTRA:                   0.000
UNBOUND:                 0.000

$$$$
