
     RDKit          3D

 51 55  0  0  0  0  0  0  0  0999 V2000
   50.5784   11.8154   11.2462 O   0  0  0  0  0  0  0  0  0  0  0  0
   51.8204   11.7463   10.5328 C   0  0  0  0  0  0  0  0  0  0  0  0
   52.3351   10.4209   10.3420 O   0  0  0  0  0  0  0  0  0  0  0  0
   51.3631    9.7004   10.9608 C   0  0  0  0  0  0  0  0  0  0  0  0
   50.3642   10.4923   11.4745 C   0  0  0  0  0  0  0  0  0  0  0  0
   52.7457   12.4754   11.2041 F   0  0  0  0  0  0  0  0  0  0  0  0
   51.6511   12.3210    9.3162 F   0  0  0  0  0  0  0  0  0  0  0  0
   49.2836    9.9553   12.1438 C   0  0  0  0  0  0  0  0  0  0  0  0
   51.3357    8.3311   11.0902 C   0  0  0  0  0  0  0  0  0  0  0  0
   50.2479    7.7646   11.7650 C   0  0  0  0  0  0  0  0  0  0  0  0
   49.1995    8.5574   12.2995 C   0  0  0  0  0  0  0  0  0  0  0  0
   48.0255    7.9282   13.0470 C   0  0  0  0  0  0  0  0  0  0  0  0
   46.6331    8.1251   12.4470 C   0  0  0  0  0  0  0  0  0  0  0  0
   47.2691    6.7740   12.3900 C   0  0  0  0  0  0  0  0  0  0  0  0
   48.1284    7.9428   14.5563 C   0  0  0  0  0  0  0  0  0  0  0  0
   47.6338    8.8688   15.1836 O   0  0  0  0  0  0  0  0  0  0  0  0
   48.8060    6.8621   15.0556 N   0  0  0  0  0  0  0  0  0  0  0  0
   49.1003    6.5628   16.3832 C   0  0  0  0  0  0  0  0  0  0  0  0
   49.7911    5.4137   16.5267 N   0  0  0  0  0  0  0  0  0  0  0  0
   48.7352    7.3511   17.4593 C   0  0  0  0  0  0  0  0  0  0  0  0
   49.0907    6.9369   18.7406 C   0  0  0  0  0  0  0  0  0  0  0  0
   49.7991    5.7458   18.9237 C   0  0  0  0  0  0  0  0  0  0  0  0
   50.1484    5.0208   17.7784 C   0  0  0  0  0  0  0  0  0  0  0  0
   50.1696    5.3105   20.3109 C   0  0  0  0  0  0  0  0  0  0  0  0
   50.9218    3.7700   17.8067 C   0  0  0  0  0  0  0  0  0  0  0  0
   51.0742    1.3768   17.3539 C   0  0  0  0  0  0  0  0  0  0  0  0
   50.3534    2.5726   17.3389 C   0  0  0  0  0  0  0  0  0  0  0  0
   52.2476    3.7402   18.2723 C   0  0  0  0  0  0  0  0  0  0  0  0
   52.9760    2.5424   18.2907 C   0  0  0  0  0  0  0  0  0  0  0  0
   52.3832    1.3609   17.8319 C   0  0  0  0  0  0  0  0  0  0  0  0
   54.3738    2.4809   18.7812 C   0  0  0  0  0  0  0  0  0  0  0  0
   54.8217    3.6657   19.2328 O   0  0  0  0  0  0  0  0  0  0  0  0
   55.0798    1.4898   18.8013 O   0  0  0  0  0  0  0  0  0  0  0  0
   48.5122   10.6037   12.5509 H   0  0  0  0  0  0  0  0  0  0  0  0
   52.1295    7.7124   10.6859 H   0  0  0  0  0  0  0  0  0  0  0  0
   50.2135    6.6822   11.8787 H   0  0  0  0  0  0  0  0  0  0  0  0
   45.8024    8.2738   13.1294 H   0  0  0  0  0  0  0  0  0  0  0  0
   46.5365    8.6807   11.5208 H   0  0  0  0  0  0  0  0  0  0  0  0
   47.5893    6.4160   11.4179 H   0  0  0  0  0  0  0  0  0  0  0  0
   46.8482    5.9988   13.0216 H   0  0  0  0  0  0  0  0  0  0  0  0
   49.1724    6.1747   14.4135 H   0  0  0  0  0  0  0  0  0  0  0  0
   48.1841    8.2761   17.3400 H   0  0  0  0  0  0  0  0  0  0  0  0
   48.8052    7.5503   19.5923 H   0  0  0  0  0  0  0  0  0  0  0  0
   49.5587    5.8237   21.0618 H   0  0  0  0  0  0  0  0  0  0  0  0
   51.2196    5.5418   20.5144 H   0  0  0  0  0  0  0  0  0  0  0  0
   49.9981    4.2378   20.4458 H   0  0  0  0  0  0  0  0  0  0  0  0
   50.6157    0.4608   16.9891 H   0  0  0  0  0  0  0  0  0  0  0  0
   49.3342    2.5751   16.9549 H   0  0  0  0  0  0  0  0  0  0  0  0
   52.7149    4.6635   18.6094 H   0  0  0  0  0  0  0  0  0  0  0  0
   52.9417    0.4267   17.8398 H   0  0  0  0  0  0  0  0  0  0  0  0
   55.7416    3.4767   19.5141 H   0  0  0  0  0  0  0  0  0  0  0  0
  1  2  1  0
  1  5  1  0
  2  3  1  0
  3  4  1  0
  2  6  1  0
  2  7  1  0
  8  5  1  0
  5  4  2  0
  4  9  1  0
  8 11  2  0
  9 10  2  0
 10 11  1  0
 11 12  1  0
 12 13  1  0
 13 14  1  0
 14 12  1  0
 12 15  1  0
 15 16  2  0
 15 17  1  0
 17 18  1  0
 19 18  2  0
 18 20  1  0
 19 23  1  0
 20 21  2  0
 21 22  1  0
 22 23  2  0
 22 24  1  0
 23 25  1  0
 27 25  1  0
 25 28  2  0
 26 27  2  0
 26 30  1  0
 28 29  1  0
 29 30  2  0
 29 31  1  0
 31 32  1  0
 31 33  2  0
  8 34  1  0
  9 35  1  0
 10 36  1  0
 13 37  1  0
 13 38  1  0
 14 39  1  0
 14 40  1  0
 17 41  1  0
 20 42  1  0
 21 43  1  0
 24 44  1  0
 24 45  1  0
 24 46  1  0
 26 47  1  0
 27 48  1  0
 28 49  1  0
 30 50  1  0
 32 51  1  0
M  END
> <Uni-Dock RESULT> 
ENERGY=   -5.373  LOWER_BOUND=    0.000  UPPER_BOUND=    0.000
INTER + INTRA:          -5.373
INTER:                  -5.373
INTRA:                   0.000
UNBOUND:                 0.000

$$$$

     RDKit          3D

 51 55  0  0  0  0  0  0  0  0999 V2000
   51.7023    0.7182   17.0642 O   0  0  0  0  0  0  0  0  0  0  0  0
   53.0080    0.7769   17.6540 C   0  0  0  0  0  0  0  0  0  0  0  0
   53.3074    2.0010   18.3393 O   0  0  0  0  0  0  0  0  0  0  0  0
   52.1415    2.6711   18.1430 C   0  0  0  0  0  0  0  0  0  0  0  0
   51.2287    1.9424   17.4187 C   0  0  0  0  0  0  0  0  0  0  0  0
   53.9316    0.5919   16.6787 F   0  0  0  0  0  0  0  0  0  0  0  0
   53.1304   -0.2488   18.5328 F   0  0  0  0  0  0  0  0  0  0  0  0
   49.9813    2.4440   17.1083 C   0  0  0  0  0  0  0  0  0  0  0  0
   51.8568    3.9393   18.5935 C   0  0  0  0  0  0  0  0  0  0  0  0
   50.5964    4.4679   18.2908 C   0  0  0  0  0  0  0  0  0  0  0  0
   49.6324    3.7356   17.5507 C   0  0  0  0  0  0  0  0  0  0  0  0
   48.2660    4.3294   17.2139 C   0  0  0  0  0  0  0  0  0  0  0  0
   47.0382    3.6110   17.7741 C   0  0  0  0  0  0  0  0  0  0  0  0
   47.4306    4.9372   18.3401 C   0  0  0  0  0  0  0  0  0  0  0  0
   48.1367    4.9278   15.8303 C   0  0  0  0  0  0  0  0  0  0  0  0
   47.7201    4.2351   14.9125 O   0  0  0  0  0  0  0  0  0  0  0  0
   48.5310    6.2385   15.7766 N   0  0  0  0  0  0  0  0  0  0  0  0
   48.5610    7.0889   14.6746 C   0  0  0  0  0  0  0  0  0  0  0  0
   49.0110    8.3249   14.9712 N   0  0  0  0  0  0  0  0  0  0  0  0
   48.1775    6.7232   13.3971 C   0  0  0  0  0  0  0  0  0  0  0  0
   48.2542    7.6718   12.3803 C   0  0  0  0  0  0  0  0  0  0  0  0
   48.7080    8.9646   12.6572 C   0  0  0  0  0  0  0  0  0  0  0  0
   49.0977    9.2434   13.9724 C   0  0  0  0  0  0  0  0  0  0  0  0
   48.7793    9.9768   11.5519 C   0  0  0  0  0  0  0  0  0  0  0  0
   49.6281   10.5437   14.4099 C   0  0  0  0  0  0  0  0  0  0  0  0
   49.4297   12.5399   15.7998 C   0  0  0  0  0  0  0  0  0  0  0  0
   48.9388   11.3055   15.3692 C   0  0  0  0  0  0  0  0  0  0  0  0
   50.8409   11.0455   13.9072 C   0  0  0  0  0  0  0  0  0  0  0  0
   51.3382   12.2846   14.3350 C   0  0  0  0  0  0  0  0  0  0  0  0
   50.6266   13.0304   15.2812 C   0  0  0  0  0  0  0  0  0  0  0  0
   52.6117   12.8404   13.8178 C   0  0  0  0  0  0  0  0  0  0  0  0
   53.1840   12.0568   12.8868 O   0  0  0  0  0  0  0  0  0  0  0  0
   53.1229   13.8905   14.1602 O   0  0  0  0  0  0  0  0  0  0  0  0
   49.2811    1.8524   16.5244 H   0  0  0  0  0  0  0  0  0  0  0  0
   52.5835    4.5105   19.1611 H   0  0  0  0  0  0  0  0  0  0  0  0
   50.3572    5.4720   18.6374 H   0  0  0  0  0  0  0  0  0  0  0  0
   46.1511    3.5602   17.1509 H   0  0  0  0  0  0  0  0  0  0  0  0
   47.1833    2.7319   18.3921 H   0  0  0  0  0  0  0  0  0  0  0  0
   47.8293    4.9491   19.3484 H   0  0  0  0  0  0  0  0  0  0  0  0
   46.7893    5.7832   18.1165 H   0  0  0  0  0  0  0  0  0  0  0  0
   48.8665    6.6836   16.6183 H   0  0  0  0  0  0  0  0  0  0  0  0
   47.8207    5.7278   13.1614 H   0  0  0  0  0  0  0  0  0  0  0  0
   47.9523    7.3924   11.3734 H   0  0  0  0  0  0  0  0  0  0  0  0
   48.1589    9.6756   10.7006 H   0  0  0  0  0  0  0  0  0  0  0  0
   49.8096   10.0819   11.1985 H   0  0  0  0  0  0  0  0  0  0  0  0
   48.4052   10.9502   11.8848 H   0  0  0  0  0  0  0  0  0  0  0  0
   48.8805   13.1147   16.5415 H   0  0  0  0  0  0  0  0  0  0  0  0
   48.0070   10.9278   15.7877 H   0  0  0  0  0  0  0  0  0  0  0  0
   51.4042   10.4552   13.1870 H   0  0  0  0  0  0  0  0  0  0  0  0
   51.0062   13.9922   15.6214 H   0  0  0  0  0  0  0  0  0  0  0  0
   54.0026   12.5392   12.6456 H   0  0  0  0  0  0  0  0  0  0  0  0
  1  2  1  0
  1  5  1  0
  2  3  1  0
  3  4  1  0
  2  6  1  0
  2  7  1  0
  8  5  1  0
  5  4  2  0
  4  9  1  0
  8 11  2  0
  9 10  2  0
 10 11  1  0
 11 12  1  0
 12 13  1  0
 13 14  1  0
 14 12  1  0
 12 15  1  0
 15 16  2  0
 15 17  1  0
 17 18  1  0
 19 18  2  0
 18 20  1  0
 19 23  1  0
 20 21  2  0
 21 22  1  0
 22 23  2  0
 22 24  1  0
 23 25  1  0
 27 25  1  0
 25 28  2  0
 26 27  2  0
 26 30  1  0
 28 29  1  0
 29 30  2  0
 29 31  1  0
 31 32  1  0
 31 33  2  0
  8 34  1  0
  9 35  1  0
 10 36  1  0
 13 37  1  0
 13 38  1  0
 14 39  1  0
 14 40  1  0
 17 41  1  0
 20 42  1  0
 21 43  1  0
 24 44  1  0
 24 45  1  0
 24 46  1  0
 26 47  1  0
 27 48  1  0
 28 49  1  0
 30 50  1  0
 32 51  1  0
M  END
> <Uni-Dock RESULT> 
ENERGY=   -5.106  LOWER_BOUND=    4.227  UPPER_BOUND=    9.209
INTER + INTRA:          -5.106
INTER:                  -5.106
INTRA:                   0.000
UNBOUND:                 0.000

$$$$

     RDKit          3D

 51 55  0  0  0  0  0  0  0  0999 V2000
   43.8687    7.0880   11.9604 O   0  0  0  0  0  0  0  0  0  0  0  0
   43.4331    5.7472   11.6978 C   0  0  0  0  0  0  0  0  0  0  0  0
   44.3645    4.7239   12.0760 O   0  0  0  0  0  0  0  0  0  0  0  0
   45.3684    5.4927   12.5740 C   0  0  0  0  0  0  0  0  0  0  0  0
   45.0871    6.8363   12.5089 C   0  0  0  0  0  0  0  0  0  0  0  0
   43.1767    5.6281   10.3717 F   0  0  0  0  0  0  0  0  0  0  0  0
   42.2687    5.5349   12.3599 F   0  0  0  0  0  0  0  0  0  0  0  0
   45.9784    7.7875   12.9616 C   0  0  0  0  0  0  0  0  0  0  0  0
   46.5551    5.0291   13.0928 C   0  0  0  0  0  0  0  0  0  0  0  0
   47.4740    5.9767   13.5588 C   0  0  0  0  0  0  0  0  0  0  0  0
   47.2071    7.3695   13.5102 C   0  0  0  0  0  0  0  0  0  0  0  0
   48.2243    8.3943   14.0082 C   0  0  0  0  0  0  0  0  0  0  0  0
   47.8003    9.2838   15.1771 C   0  0  0  0  0  0  0  0  0  0  0  0
   48.8231    8.2180   15.4032 C   0  0  0  0  0  0  0  0  0  0  0  0
   49.0857    9.0321   12.9403 C   0  0  0  0  0  0  0  0  0  0  0  0
   48.7309   10.0866   12.4326 O   0  0  0  0  0  0  0  0  0  0  0  0
   50.2109    8.3043   12.6570 N   0  0  0  0  0  0  0  0  0  0  0  0
   51.2091    8.5806   11.7263 C   0  0  0  0  0  0  0  0  0  0  0  0
   52.1816    7.6471   11.6995 N   0  0  0  0  0  0  0  0  0  0  0  0
   51.2196    9.6904   10.9011 C   0  0  0  0  0  0  0  0  0  0  0  0
   52.2801    9.8510   10.0127 C   0  0  0  0  0  0  0  0  0  0  0  0
   53.3087    8.9055    9.9669 C   0  0  0  0  0  0  0  0  0  0  0  0
   53.2075    7.8007   10.8204 C   0  0  0  0  0  0  0  0  0  0  0  0
   54.4471    9.0959    9.0082 C   0  0  0  0  0  0  0  0  0  0  0  0
   54.1904    6.7072   10.8626 C   0  0  0  0  0  0  0  0  0  0  0  0
   55.8566    5.4188   12.0952 C   0  0  0  0  0  0  0  0  0  0  0  0
   54.9229    6.4553   12.0355 C   0  0  0  0  0  0  0  0  0  0  0  0
   54.4047    5.8732    9.7517 C   0  0  0  0  0  0  0  0  0  0  0  0
   55.3415    4.8316    9.8054 C   0  0  0  0  0  0  0  0  0  0  0  0
   56.0680    4.6095   10.9805 C   0  0  0  0  0  0  0  0  0  0  0  0
   55.5917    3.9401    8.6474 C   0  0  0  0  0  0  0  0  0  0  0  0
   54.8673    4.2741    7.5648 O   0  0  0  0  0  0  0  0  0  0  0  0
   56.3634    2.9993    8.6250 O   0  0  0  0  0  0  0  0  0  0  0  0
   45.7373    8.8448   12.8888 H   0  0  0  0  0  0  0  0  0  0  0  0
   46.7724    3.9673   13.1372 H   0  0  0  0  0  0  0  0  0  0  0  0
   48.4195    5.6257   13.9692 H   0  0  0  0  0  0  0  0  0  0  0  0
   48.1282   10.3183   15.1731 H   0  0  0  0  0  0  0  0  0  0  0  0
   46.8163    9.1439   15.6107 H   0  0  0  0  0  0  0  0  0  0  0  0
   48.5272    7.3643   16.0027 H   0  0  0  0  0  0  0  0  0  0  0  0
   49.8451    8.5378   15.5771 H   0  0  0  0  0  0  0  0  0  0  0  0
   50.3714    7.4387   13.1512 H   0  0  0  0  0  0  0  0  0  0  0  0
   50.4342   10.4362   10.9221 H   0  0  0  0  0  0  0  0  0  0  0  0
   52.2967   10.7224    9.3620 H   0  0  0  0  0  0  0  0  0  0  0  0
   54.5061   10.1354    8.6674 H   0  0  0  0  0  0  0  0  0  0  0  0
   54.3140    8.4590    8.1285 H   0  0  0  0  0  0  0  0  0  0  0  0
   55.4056    8.8664    9.4849 H   0  0  0  0  0  0  0  0  0  0  0  0
   56.4144    5.2414   13.0115 H   0  0  0  0  0  0  0  0  0  0  0  0
   54.7594    7.0760   12.9154 H   0  0  0  0  0  0  0  0  0  0  0  0
   53.8243    6.0335    8.8452 H   0  0  0  0  0  0  0  0  0  0  0  0
   56.7955    3.8015   11.0325 H   0  0  0  0  0  0  0  0  0  0  0  0
   55.1282    3.6086    6.8939 H   0  0  0  0  0  0  0  0  0  0  0  0
  1  2  1  0
  1  5  1  0
  2  3  1  0
  3  4  1  0
  2  6  1  0
  2  7  1  0
  8  5  1  0
  5  4  2  0
  4  9  1  0
  8 11  2  0
  9 10  2  0
 10 11  1  0
 11 12  1  0
 12 13  1  0
 13 14  1  0
 14 12  1  0
 12 15  1  0
 15 16  2  0
 15 17  1  0
 17 18  1  0
 19 18  2  0
 18 20  1  0
 19 23  1  0
 20 21  2  0
 21 22  1  0
 22 23  2  0
 22 24  1  0
 23 25  1  0
 27 25  1  0
 25 28  2  0
 26 27  2  0
 26 30  1  0
 28 29  1  0
 29 30  2  0
 29 31  1  0
 31 32  1  0
 31 33  2  0
  8 34  1  0
  9 35  1  0
 10 36  1  0
 13 37  1  0
 13 38  1  0
 14 39  1  0
 14 40  1  0
 17 41  1  0
 20 42  1  0
 21 43  1  0
 24 44  1  0
 24 45  1  0
 24 46  1  0
 26 47  1  0
 27 48  1  0
 28 49  1  0
 30 50  1  0
 32 51  1  0
M  END
> <Uni-Dock RESULT> 
ENERGY=   -4.896  LOWER_BOUND=    5.450  UPPER_BOUND=    7.990
INTER + INTRA:          -4.896
INTER:                  -4.896
INTRA:                   0.000
UNBOUND:                 0.000

$$$$

     RDKit          3D

 51 55  0  0  0  0  0  0  0  0999 V2000
   49.9489   11.4768   22.2510 O   0  0  0  0  0  0  0  0  0  0  0  0
   48.8227   12.2740   22.6414 C   0  0  0  0  0  0  0  0  0  0  0  0
   47.5464   11.7526   22.2449 O   0  0  0  0  0  0  0  0  0  0  0  0
   47.9434   10.6197   21.6079 C   0  0  0  0  0  0  0  0  0  0  0  0
   49.3087   10.4622   21.6113 C   0  0  0  0  0  0  0  0  0  0  0  0
   48.9657   13.5135   22.1106 F   0  0  0  0  0  0  0  0  0  0  0  0
   48.8336   12.4036   23.9913 F   0  0  0  0  0  0  0  0  0  0  0  0
   49.9158    9.3764   21.0143 C   0  0  0  0  0  0  0  0  0  0  0  0
   47.1135    9.7020   21.0066 C   0  0  0  0  0  0  0  0  0  0  0  0
   47.7082    8.5918   20.3953 C   0  0  0  0  0  0  0  0  0  0  0  0
   49.1141    8.4005   20.3895 C   0  0  0  0  0  0  0  0  0  0  0  0
   49.7517    7.1925   19.7061 C   0  0  0  0  0  0  0  0  0  0  0  0
   50.5458    6.2314   20.5911 C   0  0  0  0  0  0  0  0  0  0  0  0
   49.2266    5.7967   20.0399 C   0  0  0  0  0  0  0  0  0  0  0  0
   50.2846    7.4368   18.3112 C   0  0  0  0  0  0  0  0  0  0  0  0
   51.4565    7.7530   18.1624 O   0  0  0  0  0  0  0  0  0  0  0  0
   49.3332    7.2710   17.3398 N   0  0  0  0  0  0  0  0  0  0  0  0
   49.4655    7.4287   15.9627 C   0  0  0  0  0  0  0  0  0  0  0  0
   48.3218    7.1898   15.2898 N   0  0  0  0  0  0  0  0  0  0  0  0
   50.6388    7.7962   15.3295 C   0  0  0  0  0  0  0  0  0  0  0  0
   50.6382    7.9178   13.9421 C   0  0  0  0  0  0  0  0  0  0  0  0
   49.4709    7.6682   13.2146 C   0  0  0  0  0  0  0  0  0  0  0  0
   48.3223    7.3238   13.9367 C   0  0  0  0  0  0  0  0  0  0  0  0
   49.4881    7.7980   11.7199 C   0  0  0  0  0  0  0  0  0  0  0  0
   47.0134    7.0663   13.3169 C   0  0  0  0  0  0  0  0  0  0  0  0
   45.1684    5.5391   12.8486 C   0  0  0  0  0  0  0  0  0  0  0  0
   46.4125    5.8004   13.4265 C   0  0  0  0  0  0  0  0  0  0  0  0
   46.3196    8.0753   12.6272 C   0  0  0  0  0  0  0  0  0  0  0  0
   45.0707    7.8187   12.0440 C   0  0  0  0  0  0  0  0  0  0  0  0
   44.4993    6.5462   12.1556 C   0  0  0  0  0  0  0  0  0  0  0  0
   44.3192    8.8624   11.3064 C   0  0  0  0  0  0  0  0  0  0  0  0
   44.9835   10.0291   11.2302 O   0  0  0  0  0  0  0  0  0  0  0  0
   43.2210    8.7269   10.7997 O   0  0  0  0  0  0  0  0  0  0  0  0
   50.9984    9.2803   21.0207 H   0  0  0  0  0  0  0  0  0  0  0  0
   46.0370    9.8347   21.0040 H   0  0  0  0  0  0  0  0  0  0  0  0
   47.0649    7.8582   19.9120 H   0  0  0  0  0  0  0  0  0  0  0  0
   51.4465    5.7880   20.1788 H   0  0  0  0  0  0  0  0  0  0  0  0
   50.6107    6.4325   21.6547 H   0  0  0  0  0  0  0  0  0  0  0  0
   48.4051    5.6931   20.7400 H   0  0  0  0  0  0  0  0  0  0  0  0
   49.2367    5.0361   19.2664 H   0  0  0  0  0  0  0  0  0  0  0  0
   48.3948    7.0170   17.6119 H   0  0  0  0  0  0  0  0  0  0  0  0
   51.5548    7.9918   15.8737 H   0  0  0  0  0  0  0  0  0  0  0  0
   51.5577    8.2043   13.4366 H   0  0  0  0  0  0  0  0  0  0  0  0
   50.5127    7.7667   11.3330 H   0  0  0  0  0  0  0  0  0  0  0  0
   49.0412    8.7493   11.4156 H   0  0  0  0  0  0  0  0  0  0  0  0
   48.9480    6.9717   11.2468 H   0  0  0  0  0  0  0  0  0  0  0  0
   44.7212    4.5525   12.9433 H   0  0  0  0  0  0  0  0  0  0  0  0
   46.9223    5.0084   13.9734 H   0  0  0  0  0  0  0  0  0  0  0  0
   46.7550    9.0703   12.5588 H   0  0  0  0  0  0  0  0  0  0  0  0
   43.5289    6.3383   11.7085 H   0  0  0  0  0  0  0  0  0  0  0  0
   44.3753   10.6127   10.7297 H   0  0  0  0  0  0  0  0  0  0  0  0
  1  2  1  0
  1  5  1  0
  2  3  1  0
  3  4  1  0
  2  6  1  0
  2  7  1  0
  8  5  1  0
  5  4  2  0
  4  9  1  0
  8 11  2  0
  9 10  2  0
 10 11  1  0
 11 12  1  0
 12 13  1  0
 13 14  1  0
 14 12  1  0
 12 15  1  0
 15 16  2  0
 15 17  1  0
 17 18  1  0
 19 18  2  0
 18 20  1  0
 19 23  1  0
 20 21  2  0
 21 22  1  0
 22 23  2  0
 22 24  1  0
 23 25  1  0
 27 25  1  0
 25 28  2  0
 26 27  2  0
 26 30  1  0
 28 29  1  0
 29 30  2  0
 29 31  1  0
 31 32  1  0
 31 33  2  0
  8 34  1  0
  9 35  1  0
 10 36  1  0
 13 37  1  0
 13 38  1  0
 14 39  1  0
 14 40  1  0
 17 41  1  0
 20 42  1  0
 21 43  1  0
 24 44  1  0
 24 45  1  0
 24 46  1  0
 26 47  1  0
 27 48  1  0
 28 49  1  0
 30 50  1  0
 32 51  1  0
M  END
> <Uni-Dock RESULT> 
ENERGY=   -4.837  LOWER_BOUND=    4.734  UPPER_BOUND=    9.466
INTER + INTRA:          -4.837
INTER:                  -4.837
INTRA:                   0.000
UNBOUND:                 0.000

$$$$

     RDKit          3D

 51 55  0  0  0  0  0  0  0  0999 V2000
   56.7497    6.9204    8.0614 O   0  0  0  0  0  0  0  0  0  0  0  0
   56.5494    5.9467    7.0279 C   0  0  0  0  0  0  0  0  0  0  0  0
   55.2040    5.8516    6.5394 O   0  0  0  0  0  0  0  0  0  0  0  0
   54.6070    6.7984    7.3101 C   0  0  0  0  0  0  0  0  0  0  0  0
   55.4851    7.4065    8.1750 C   0  0  0  0  0  0  0  0  0  0  0  0
   56.9234    4.7320    7.5002 F   0  0  0  0  0  0  0  0  0  0  0  0
   57.3644    6.2491    5.9870 F   0  0  0  0  0  0  0  0  0  0  0  0
   55.0779    8.3956    9.0467 C   0  0  0  0  0  0  0  0  0  0  0  0
   53.2764    7.1452    7.2719 C   0  0  0  0  0  0  0  0  0  0  0  0
   52.8415    8.1474    8.1472 C   0  0  0  0  0  0  0  0  0  0  0  0
   53.7271    8.7966    9.0458 C   0  0  0  0  0  0  0  0  0  0  0  0
   53.2371    9.8782   10.0065 C   0  0  0  0  0  0  0  0  0  0  0  0
   53.8380   11.2749    9.8464 C   0  0  0  0  0  0  0  0  0  0  0  0
   52.4168   11.0407    9.4485 C   0  0  0  0  0  0  0  0  0  0  0  0
   52.9465    9.4160   11.4175 C   0  0  0  0  0  0  0  0  0  0  0  0
   53.8232    9.4904   12.2669 O   0  0  0  0  0  0  0  0  0  0  0  0
   51.6714    8.9399   11.5713 N   0  0  0  0  0  0  0  0  0  0  0  0
   51.0727    8.4230   12.7172 C   0  0  0  0  0  0  0  0  0  0  0  0
   49.7957    8.0375   12.5199 N   0  0  0  0  0  0  0  0  0  0  0  0
   51.7055    8.3038   13.9411 C   0  0  0  0  0  0  0  0  0  0  0  0
   50.9922    7.7703   15.0117 C   0  0  0  0  0  0  0  0  0  0  0  0
   49.6638    7.3696   14.8420 C   0  0  0  0  0  0  0  0  0  0  0  0
   49.1079    7.5038   13.5644 C   0  0  0  0  0  0  0  0  0  0  0  0
   48.9072    6.8020   16.0067 C   0  0  0  0  0  0  0  0  0  0  0  0
   47.7372    7.0948   13.2219 C   0  0  0  0  0  0  0  0  0  0  0  0
   45.4954    7.6763   12.4525 C   0  0  0  0  0  0  0  0  0  0  0  0
   46.7996    8.0471   12.7864 C   0  0  0  0  0  0  0  0  0  0  0  0
   47.3360    5.7497   13.2931 C   0  0  0  0  0  0  0  0  0  0  0  0
   46.0276    5.3715   12.9601 C   0  0  0  0  0  0  0  0  0  0  0  0
   45.1088    6.3404   12.5420 C   0  0  0  0  0  0  0  0  0  0  0  0
   45.5758    3.9612   13.0312 C   0  0  0  0  0  0  0  0  0  0  0  0
   46.5304    3.1288   13.4832 O   0  0  0  0  0  0  0  0  0  0  0  0
   44.4700    3.5504   12.7316 O   0  0  0  0  0  0  0  0  0  0  0  0
   55.7894    8.8534    9.7291 H   0  0  0  0  0  0  0  0  0  0  0  0
   52.5880    6.6582    6.5896 H   0  0  0  0  0  0  0  0  0  0  0  0
   51.7902    8.4307    8.1314 H   0  0  0  0  0  0  0  0  0  0  0  0
   54.0319   11.8506   10.7458 H   0  0  0  0  0  0  0  0  0  0  0  0
   54.5647   11.4446    9.0596 H   0  0  0  0  0  0  0  0  0  0  0  0
   52.1866   11.0662    8.3892 H   0  0  0  0  0  0  0  0  0  0  0  0
   51.6463   11.4826   10.0713 H   0  0  0  0  0  0  0  0  0  0  0  0
   51.0538    8.9278   10.7728 H   0  0  0  0  0  0  0  0  0  0  0  0
   52.7331    8.6104   14.0950 H   0  0  0  0  0  0  0  0  0  0  0  0
   51.4822    7.6755   15.9781 H   0  0  0  0  0  0  0  0  0  0  0  0
   49.3901    7.0618   16.9552 H   0  0  0  0  0  0  0  0  0  0  0  0
   48.8646    5.7108   15.9372 H   0  0  0  0  0  0  0  0  0  0  0  0
   47.8907    7.2061   16.0504 H   0  0  0  0  0  0  0  0  0  0  0  0
   44.7846    8.4287   12.1194 H   0  0  0  0  0  0  0  0  0  0  0  0
   47.0935    9.0927   12.7042 H   0  0  0  0  0  0  0  0  0  0  0  0
   48.0572    4.9939   13.5983 H   0  0  0  0  0  0  0  0  0  0  0  0
   44.0916    6.0560   12.2789 H   0  0  0  0  0  0  0  0  0  0  0  0
   46.0983    2.2489   13.4721 H   0  0  0  0  0  0  0  0  0  0  0  0
  1  2  1  0
  1  5  1  0
  2  3  1  0
  3  4  1  0
  2  6  1  0
  2  7  1  0
  8  5  1  0
  5  4  2  0
  4  9  1  0
  8 11  2  0
  9 10  2  0
 10 11  1  0
 11 12  1  0
 12 13  1  0
 13 14  1  0
 14 12  1  0
 12 15  1  0
 15 16  2  0
 15 17  1  0
 17 18  1  0
 19 18  2  0
 18 20  1  0
 19 23  1  0
 20 21  2  0
 21 22  1  0
 22 23  2  0
 22 24  1  0
 23 25  1  0
 27 25  1  0
 25 28  2  0
 26 27  2  0
 26 30  1  0
 28 29  1  0
 29 30  2  0
 29 31  1  0
 31 32  1  0
 31 33  2  0
  8 34  1  0
  9 35  1  0
 10 36  1  0
 13 37  1  0
 13 38  1  0
 14 39  1  0
 14 40  1  0
 17 41  1  0
 20 42  1  0
 21 43  1  0
 24 44  1  0
 24 45  1  0
 24 46  1  0
 26 47  1  0
 27 48  1  0
 28 49  1  0
 30 50  1  0
 32 51  1  0
M  END
> <Uni-Dock RESULT> 
ENERGY=   -4.831  LOWER_BOUND=    4.817  UPPER_BOUND=    7.351
INTER + INTRA:          -4.831
INTER:                  -4.831
INTRA:                   0.000
UNBOUND:                 0.000

$$$$

     RDKit          3D

 51 55  0  0  0  0  0  0  0  0999 V2000
   45.4952    4.2780    9.2726 O   0  0  0  0  0  0  0  0  0  0  0  0
   44.6953    3.1241    9.5642 C   0  0  0  0  0  0  0  0  0  0  0  0
   43.9823    3.1813   10.8077 O   0  0  0  0  0  0  0  0  0  0  0  0
   44.3784    4.4040   11.2493 C   0  0  0  0  0  0  0  0  0  0  0  0
   45.2379    5.0280   10.3771 C   0  0  0  0  0  0  0  0  0  0  0  0
   45.4999    2.0329    9.5785 F   0  0  0  0  0  0  0  0  0  0  0  0
   43.7979    2.9572    8.5613 F   0  0  0  0  0  0  0  0  0  0  0  0
   45.7584    6.2785   10.6405 C   0  0  0  0  0  0  0  0  0  0  0  0
   43.9953    4.9956   12.4307 C   0  0  0  0  0  0  0  0  0  0  0  0
   44.5107    6.2651   12.7179 C   0  0  0  0  0  0  0  0  0  0  0  0
   45.3943    6.9352   11.8328 C   0  0  0  0  0  0  0  0  0  0  0  0
   45.9617    8.3139   12.1647 C   0  0  0  0  0  0  0  0  0  0  0  0
   45.6080    9.4587   11.2151 C   0  0  0  0  0  0  0  0  0  0  0  0
   44.9981    9.4254   12.5789 C   0  0  0  0  0  0  0  0  0  0  0  0
   47.3536    8.3223   12.7578 C   0  0  0  0  0  0  0  0  0  0  0  0
   48.3210    8.4407   12.0191 O   0  0  0  0  0  0  0  0  0  0  0  0
   47.3541    8.1809   14.1203 N   0  0  0  0  0  0  0  0  0  0  0  0
   48.4443    8.1298   14.9849 C   0  0  0  0  0  0  0  0  0  0  0  0
   48.0892    7.9788   16.2769 N   0  0  0  0  0  0  0  0  0  0  0  0
   49.7641    8.2184   14.5812 C   0  0  0  0  0  0  0  0  0  0  0  0
   50.7635    8.1550   15.5490 C   0  0  0  0  0  0  0  0  0  0  0  0
   50.4279    8.0079   16.8980 C   0  0  0  0  0  0  0  0  0  0  0  0
   49.0689    7.9029   17.2167 C   0  0  0  0  0  0  0  0  0  0  0  0
   51.5160    7.9470   17.9293 C   0  0  0  0  0  0  0  0  0  0  0  0
   48.5622    7.7098   18.5841 C   0  0  0  0  0  0  0  0  0  0  0  0
   47.2462    8.5128   20.4759 C   0  0  0  0  0  0  0  0  0  0  0  0
   47.7402    8.6814   19.1807 C   0  0  0  0  0  0  0  0  0  0  0  0
   48.8595    6.5480   19.3169 C   0  0  0  0  0  0  0  0  0  0  0  0
   48.3673    6.3736   20.6181 C   0  0  0  0  0  0  0  0  0  0  0  0
   47.5618    7.3616   21.1951 C   0  0  0  0  0  0  0  0  0  0  0  0
   48.6694    5.1609   21.4159 C   0  0  0  0  0  0  0  0  0  0  0  0
   49.4829    4.3031   20.7750 O   0  0  0  0  0  0  0  0  0  0  0  0
   48.2570    4.9229   22.5359 O   0  0  0  0  0  0  0  0  0  0  0  0
   46.4453    6.7462    9.9400 H   0  0  0  0  0  0  0  0  0  0  0  0
   43.3199    4.4956   13.1165 H   0  0  0  0  0  0  0  0  0  0  0  0
   44.2197    6.7451   13.6509 H   0  0  0  0  0  0  0  0  0  0  0  0
   46.3706   10.2035   11.0111 H   0  0  0  0  0  0  0  0  0  0  0  0
   44.9653    9.2543   10.3660 H   0  0  0  0  0  0  0  0  0  0  0  0
   43.9374    9.2100   12.6440 H   0  0  0  0  0  0  0  0  0  0  0  0
   45.3349   10.1695   13.2930 H   0  0  0  0  0  0  0  0  0  0  0  0
   46.4727    8.0811   14.6024 H   0  0  0  0  0  0  0  0  0  0  0  0
   50.0459    8.3351   13.5417 H   0  0  0  0  0  0  0  0  0  0  0  0
   51.8037    8.2263   15.2396 H   0  0  0  0  0  0  0  0  0  0  0  0
   52.4562    8.3481   17.5348 H   0  0  0  0  0  0  0  0  0  0  0  0
   51.6927    6.9113   18.2350 H   0  0  0  0  0  0  0  0  0  0  0  0
   51.2607    8.5494   18.8069 H   0  0  0  0  0  0  0  0  0  0  0  0
   46.6132    9.2771   20.9202 H   0  0  0  0  0  0  0  0  0  0  0  0
   47.4799    9.5809   18.6245 H   0  0  0  0  0  0  0  0  0  0  0  0
   49.4688    5.7708   18.8597 H   0  0  0  0  0  0  0  0  0  0  0  0
   47.1728    7.2338   22.2037 H   0  0  0  0  0  0  0  0  0  0  0  0
   49.5884    3.5626   21.4087 H   0  0  0  0  0  0  0  0  0  0  0  0
  1  2  1  0
  1  5  1  0
  2  3  1  0
  3  4  1  0
  2  6  1  0
  2  7  1  0
  8  5  1  0
  5  4  2  0
  4  9  1  0
  8 11  2  0
  9 10  2  0
 10 11  1  0
 11 12  1  0
 12 13  1  0
 13 14  1  0
 14 12  1  0
 12 15  1  0
 15 16  2  0
 15 17  1  0
 17 18  1  0
 19 18  2  0
 18 20  1  0
 19 23  1  0
 20 21  2  0
 21 22  1  0
 22 23  2  0
 22 24  1  0
 23 25  1  0
 27 25  1  0
 25 28  2  0
 26 27  2  0
 26 30  1  0
 28 29  1  0
 29 30  2  0
 29 31  1  0
 31 32  1  0
 31 33  2  0
  8 34  1  0
  9 35  1  0
 10 36  1  0
 13 37  1  0
 13 38  1  0
 14 39  1  0
 14 40  1  0
 17 41  1  0
 20 42  1  0
 21 43  1  0
 24 44  1  0
 24 45  1  0
 24 46  1  0
 26 47  1  0
 27 48  1  0
 28 49  1  0
 30 50  1  0
 32 51  1  0
M  END
> <Uni-Dock RESULT> 
ENERGY=   -4.804  LOWER_BOUND=    4.817  UPPER_BOUND=    6.681
INTER + INTRA:          -4.804
INTER:                  -4.804
INTRA:                   0.000
UNBOUND:                 0.000

$$$$

     RDKit          3D

 51 55  0  0  0  0  0  0  0  0999 V2000
   46.8349   12.6903   11.9011 O   0  0  0  0  0  0  0  0  0  0  0  0
   46.7297   13.8504   12.7375 C   0  0  0  0  0  0  0  0  0  0  0  0
   47.5904   13.8483   13.8851 O   0  0  0  0  0  0  0  0  0  0  0  0
   48.2141   12.6538   13.7086 C   0  0  0  0  0  0  0  0  0  0  0  0
   47.7854   11.9954   12.5810 C   0  0  0  0  0  0  0  0  0  0  0  0
   45.4466   13.9628   13.1612 F   0  0  0  0  0  0  0  0  0  0  0  0
   47.0112   14.9469   11.9908 F   0  0  0  0  0  0  0  0  0  0  0  0
   48.2932   10.7635   12.2222 C   0  0  0  0  0  0  0  0  0  0  0  0
   49.1709   12.1156   14.5375 C   0  0  0  0  0  0  0  0  0  0  0  0
   49.7007   10.8667   14.1922 C   0  0  0  0  0  0  0  0  0  0  0  0
   49.2816   10.1677   13.0307 C   0  0  0  0  0  0  0  0  0  0  0  0
   49.8566    8.7987   12.6729 C   0  0  0  0  0  0  0  0  0  0  0  0
   50.6163    8.6873   11.3508 C   0  0  0  0  0  0  0  0  0  0  0  0
   51.3745    8.6252   12.6370 C   0  0  0  0  0  0  0  0  0  0  0  0
   49.0146    7.6096   13.0806 C   0  0  0  0  0  0  0  0  0  0  0  0
   48.2131    7.1397   12.2853 O   0  0  0  0  0  0  0  0  0  0  0  0
   49.2651    7.1920   14.3609 N   0  0  0  0  0  0  0  0  0  0  0  0
   48.6688    6.1480   15.0632 C   0  0  0  0  0  0  0  0  0  0  0  0
   49.1499    6.0088   16.3151 N   0  0  0  0  0  0  0  0  0  0  0  0
   47.6799    5.3284   14.5504 C   0  0  0  0  0  0  0  0  0  0  0  0
   47.1666    4.3167   15.3582 C   0  0  0  0  0  0  0  0  0  0  0  0
   47.6506    4.1405   16.6578 C   0  0  0  0  0  0  0  0  0  0  0  0
   48.6355    5.0288   17.1050 C   0  0  0  0  0  0  0  0  0  0  0  0
   47.0913    3.0423   17.5135 C   0  0  0  0  0  0  0  0  0  0  0  0
   49.2168    4.9929   18.4558 C   0  0  0  0  0  0  0  0  0  0  0  0
   51.1580    4.7070   19.9068 C   0  0  0  0  0  0  0  0  0  0  0  0
   50.5881    4.7403   18.6324 C   0  0  0  0  0  0  0  0  0  0  0  0
   48.4318    5.2342   19.5964 C   0  0  0  0  0  0  0  0  0  0  0  0
   48.9981    5.2011   20.8785 C   0  0  0  0  0  0  0  0  0  0  0  0
   50.3635    4.9342   21.0290 C   0  0  0  0  0  0  0  0  0  0  0  0
   48.1931    5.4466   22.0991 C   0  0  0  0  0  0  0  0  0  0  0  0
   46.8908    5.6511   21.8336 O   0  0  0  0  0  0  0  0  0  0  0  0
   48.6152    5.4646   23.2404 O   0  0  0  0  0  0  0  0  0  0  0  0
   47.9296   10.2578   11.3316 H   0  0  0  0  0  0  0  0  0  0  0  0
   49.5016   12.6389   15.4282 H   0  0  0  0  0  0  0  0  0  0  0  0
   50.4565   10.4257   14.8403 H   0  0  0  0  0  0  0  0  0  0  0  0
   50.5038    7.7737   10.7758 H   0  0  0  0  0  0  0  0  0  0  0  0
   50.7296    9.5736   10.7364 H   0  0  0  0  0  0  0  0  0  0  0  0
   52.0101    9.4692   12.8805 H   0  0  0  0  0  0  0  0  0  0  0  0
   51.7975    7.6670   12.9196 H   0  0  0  0  0  0  0  0  0  0  0  0
   49.9526    7.6857   14.9111 H   0  0  0  0  0  0  0  0  0  0  0  0
   47.2925    5.4460   13.5456 H   0  0  0  0  0  0  0  0  0  0  0  0
   46.3903    3.6665   14.9613 H   0  0  0  0  0  0  0  0  0  0  0  0
   46.5801    2.2888   16.9041 H   0  0  0  0  0  0  0  0  0  0  0  0
   46.3674    3.4474   18.2271 H   0  0  0  0  0  0  0  0  0  0  0  0
   47.8873    2.5213   18.0552 H   0  0  0  0  0  0  0  0  0  0  0  0
   52.2207    4.5081   20.0222 H   0  0  0  0  0  0  0  0  0  0  0  0
   51.2202    4.5700   17.7619 H   0  0  0  0  0  0  0  0  0  0  0  0
   47.3744    5.4623   19.4771 H   0  0  0  0  0  0  0  0  0  0  0  0
   50.8126    4.9092   22.0201 H   0  0  0  0  0  0  0  0  0  0  0  0
   46.4925    5.8014   22.7167 H   0  0  0  0  0  0  0  0  0  0  0  0
  1  2  1  0
  1  5  1  0
  2  3  1  0
  3  4  1  0
  2  6  1  0
  2  7  1  0
  8  5  1  0
  5  4  2  0
  4  9  1  0
  8 11  2  0
  9 10  2  0
 10 11  1  0
 11 12  1  0
 12 13  1  0
 13 14  1  0
 14 12  1  0
 12 15  1  0
 15 16  2  0
 15 17  1  0
 17 18  1  0
 19 18  2  0
 18 20  1  0
 19 23  1  0
 20 21  2  0
 21 22  1  0
 22 23  2  0
 22 24  1  0
 23 25  1  0
 27 25  1  0
 25 28  2  0
 26 27  2  0
 26 30  1  0
 28 29  1  0
 29 30  2  0
 29 31  1  0
 31 32  1  0
 31 33  2  0
  8 34  1  0
  9 35  1  0
 10 36  1  0
 13 37  1  0
 13 38  1  0
 14 39  1  0
 14 40  1  0
 17 41  1  0
 20 42  1  0
 21 43  1  0
 24 44  1  0
 24 45  1  0
 24 46  1  0
 26 47  1  0
 27 48  1  0
 28 49  1  0
 30 50  1  0
 32 51  1  0
M  END
> <Uni-Dock RESULT> 
ENERGY=   -4.790  LOWER_BOUND=    3.424  UPPER_BOUND=    4.692
INTER + INTRA:          -4.790
INTER:                  -4.790
INTRA:                   0.000
UNBOUND:                 0.000

$$$$

     RDKit          3D

 51 55  0  0  0  0  0  0  0  0999 V2000
   48.3501   14.4615    7.2117 O   0  0  0  0  0  0  0  0  0  0  0  0
   48.0652   14.2245    5.8264 C   0  0  0  0  0  0  0  0  0  0  0  0
   46.8970   13.4303    5.5767 O   0  0  0  0  0  0  0  0  0  0  0  0
   46.4916   13.2014    6.8535 C   0  0  0  0  0  0  0  0  0  0  0  0
   47.3168   13.7876    7.7831 C   0  0  0  0  0  0  0  0  0  0  0  0
   49.1340   13.6076    5.2647 F   0  0  0  0  0  0  0  0  0  0  0  0
   47.9119   15.4212    5.2071 F   0  0  0  0  0  0  0  0  0  0  0  0
   47.0812   13.6731    9.1379 C   0  0  0  0  0  0  0  0  0  0  0  0
   45.3892   12.4689    7.2284 C   0  0  0  0  0  0  0  0  0  0  0  0
   45.1305   12.3403    8.5982 C   0  0  0  0  0  0  0  0  0  0  0  0
   45.9616   12.9403    9.5794 C   0  0  0  0  0  0  0  0  0  0  0  0
   45.6771   12.7800   11.0715 C   0  0  0  0  0  0  0  0  0  0  0  0
   45.3807   14.0536   11.8638 C   0  0  0  0  0  0  0  0  0  0  0  0
   44.2729   13.0888   11.5897 C   0  0  0  0  0  0  0  0  0  0  0  0
   46.4748   11.7053   11.7771 C   0  0  0  0  0  0  0  0  0  0  0  0
   47.5289   11.9998   12.3226 O   0  0  0  0  0  0  0  0  0  0  0  0
   45.8869   10.4702   11.7050 N   0  0  0  0  0  0  0  0  0  0  0  0
   46.3456    9.2617   12.2223 C   0  0  0  0  0  0  0  0  0  0  0  0
   45.5186    8.2279   11.9666 N   0  0  0  0  0  0  0  0  0  0  0  0
   47.5272    9.1133   12.9256 C   0  0  0  0  0  0  0  0  0  0  0  0
   47.8713    7.8469   13.3920 C   0  0  0  0  0  0  0  0  0  0  0  0
   47.0308    6.7562   13.1512 C   0  0  0  0  0  0  0  0  0  0  0  0
   45.8659    6.9908   12.4114 C   0  0  0  0  0  0  0  0  0  0  0  0
   47.4130    5.3994   13.6652 C   0  0  0  0  0  0  0  0  0  0  0  0
   44.9025    5.9403   12.0480 C   0  0  0  0  0  0  0  0  0  0  0  0
   42.6503    5.0100   12.1811 C   0  0  0  0  0  0  0  0  0  0  0  0
   43.5796    5.9958   12.5196 C   0  0  0  0  0  0  0  0  0  0  0  0
   45.2649    4.8755   11.2053 C   0  0  0  0  0  0  0  0  0  0  0  0
   44.3366    3.8823   10.8628 C   0  0  0  0  0  0  0  0  0  0  0  0
   43.0290    3.9527   11.3560 C   0  0  0  0  0  0  0  0  0  0  0  0
   44.6927    2.7453    9.9804 C   0  0  0  0  0  0  0  0  0  0  0  0
   45.9831    2.7616    9.6024 O   0  0  0  0  0  0  0  0  0  0  0  0
   43.9386    1.8629    9.6144 O   0  0  0  0  0  0  0  0  0  0  0  0
   47.7551   14.1365    9.8537 H   0  0  0  0  0  0  0  0  0  0  0  0
   44.7445   12.0054    6.4895 H   0  0  0  0  0  0  0  0  0  0  0  0
   44.2636   11.7606    8.9111 H   0  0  0  0  0  0  0  0  0  0  0  0
   45.7637   14.1222   12.8769 H   0  0  0  0  0  0  0  0  0  0  0  0
   45.3681   15.0036   11.3412 H   0  0  0  0  0  0  0  0  0  0  0  0
   43.5058   13.3989   10.8888 H   0  0  0  0  0  0  0  0  0  0  0  0
   43.8894   12.5197   12.4299 H   0  0  0  0  0  0  0  0  0  0  0  0
   45.0137   10.3719   11.2079 H   0  0  0  0  0  0  0  0  0  0  0  0
   48.1915    9.9453   13.1254 H   0  0  0  0  0  0  0  0  0  0  0  0
   48.7979    7.7225   13.9479 H   0  0  0  0  0  0  0  0  0  0  0  0
   48.1660    5.4754   14.4574 H   0  0  0  0  0  0  0  0  0  0  0  0
   47.8321    4.7911   12.8580 H   0  0  0  0  0  0  0  0  0  0  0  0
   46.5496    4.8859   14.1004 H   0  0  0  0  0  0  0  0  0  0  0  0
   41.6321    5.0703   12.5578 H   0  0  0  0  0  0  0  0  0  0  0  0
   43.2704    6.8224   13.1580 H   0  0  0  0  0  0  0  0  0  0  0  0
   46.2761    4.8327   10.8054 H   0  0  0  0  0  0  0  0  0  0  0  0
   42.3005    3.1878   11.0934 H   0  0  0  0  0  0  0  0  0  0  0  0
   46.0697    1.9698    9.0307 H   0  0  0  0  0  0  0  0  0  0  0  0
  1  2  1  0
  1  5  1  0
  2  3  1  0
  3  4  1  0
  2  6  1  0
  2  7  1  0
  8  5  1  0
  5  4  2  0
  4  9  1  0
  8 11  2  0
  9 10  2  0
 10 11  1  0
 11 12  1  0
 12 13  1  0
 13 14  1  0
 14 12  1  0
 12 15  1  0
 15 16  2  0
 15 17  1  0
 17 18  1  0
 19 18  2  0
 18 20  1  0
 19 23  1  0
 20 21  2  0
 21 22  1  0
 22 23  2  0
 22 24  1  0
 23 25  1  0
 27 25  1  0
 25 28  2  0
 26 27  2  0
 26 30  1  0
 28 29  1  0
 29 30  2  0
 29 31  1  0
 31 32  1  0
 31 33  2  0
  8 34  1  0
  9 35  1  0
 10 36  1  0
 13 37  1  0
 13 38  1  0
 14 39  1  0
 14 40  1  0
 17 41  1  0
 20 42  1  0
 21 43  1  0
 24 44  1  0
 24 45  1  0
 24 46  1  0
 26 47  1  0
 27 48  1  0
 28 49  1  0
 30 50  1  0
 32 51  1  0
M  END
> <Uni-Dock RESULT> 
ENERGY=   -4.459  LOWER_BOUND=    5.933  UPPER_BOUND=    8.087
INTER + INTRA:          -4.459
INTER:                  -4.459
INTRA:                   0.000
UNBOUND:                 0.000

$$$$

     RDKit          3D

 51 55  0  0  0  0  0  0  0  0999 V2000
   44.5879    7.1746   11.3836 O   0  0  0  0  0  0  0  0  0  0  0  0
   44.0664    5.8539   11.5839 C   0  0  0  0  0  0  0  0  0  0  0  0
   44.8876    4.9952   12.3878 O   0  0  0  0  0  0  0  0  0  0  0  0
   45.9139    5.8423   12.6632 C   0  0  0  0  0  0  0  0  0  0  0  0
   45.7440    7.0812   12.0931 C   0  0  0  0  0  0  0  0  0  0  0  0
   43.8894    5.2708   10.3727 F   0  0  0  0  0  0  0  0  0  0  0  0
   42.8480    5.9561   12.1705 F   0  0  0  0  0  0  0  0  0  0  0  0
   46.6756    8.0869   12.2505 C   0  0  0  0  0  0  0  0  0  0  0  0
   47.0237    5.5427   13.4188 C   0  0  0  0  0  0  0  0  0  0  0  0
   47.9816    6.5487   13.5924 C   0  0  0  0  0  0  0  0  0  0  0  0
   47.8288    7.8385   13.0211 C   0  0  0  0  0  0  0  0  0  0  0  0
   48.8885    8.9229   13.2054 C   0  0  0  0  0  0  0  0  0  0  0  0
   48.4597   10.1981   13.9318 C   0  0  0  0  0  0  0  0  0  0  0  0
   49.3784    9.2398   14.6180 C   0  0  0  0  0  0  0  0  0  0  0  0
   49.8658    9.0828   12.0615 C   0  0  0  0  0  0  0  0  0  0  0  0
   49.6293    9.8946   11.1780 O   0  0  0  0  0  0  0  0  0  0  0  0
   50.9465    8.2472   12.1621 N   0  0  0  0  0  0  0  0  0  0  0  0
   52.0224    8.1146   11.2882 C   0  0  0  0  0  0  0  0  0  0  0  0
   52.9182    7.1892   11.6874 N   0  0  0  0  0  0  0  0  0  0  0  0
   52.1745    8.8436   10.1229 C   0  0  0  0  0  0  0  0  0  0  0  0
   53.3005    8.6158    9.3356 C   0  0  0  0  0  0  0  0  0  0  0  0
   54.2523    7.6696    9.7265 C   0  0  0  0  0  0  0  0  0  0  0  0
   54.0086    6.9599   10.9081 C   0  0  0  0  0  0  0  0  0  0  0  0
   55.4628    7.4398    8.8702 C   0  0  0  0  0  0  0  0  0  0  0  0
   54.8975    5.9105   11.4299 C   0  0  0  0  0  0  0  0  0  0  0  0
   56.3725    5.0817   13.1886 C   0  0  0  0  0  0  0  0  0  0  0  0
   55.5292    6.0693   12.6755 C   0  0  0  0  0  0  0  0  0  0  0  0
   55.1182    4.7186   10.7186 C   0  0  0  0  0  0  0  0  0  0  0  0
   55.9647    3.7239   11.2282 C   0  0  0  0  0  0  0  0  0  0  0  0
   56.5925    3.9115   12.4646 C   0  0  0  0  0  0  0  0  0  0  0  0
   56.2197    2.4596   10.4970 C   0  0  0  0  0  0  0  0  0  0  0  0
   55.5966    2.4098    9.3064 O   0  0  0  0  0  0  0  0  0  0  0  0
   56.9148    1.5390   10.8849 O   0  0  0  0  0  0  0  0  0  0  0  0
   46.5237    9.0548   11.7801 H   0  0  0  0  0  0  0  0  0  0  0  0
   47.1534    4.5614   13.8624 H   0  0  0  0  0  0  0  0  0  0  0  0
   48.8675    6.3259   14.1850 H   0  0  0  0  0  0  0  0  0  0  0  0
   48.8675   11.1420   13.5846 H   0  0  0  0  0  0  0  0  0  0  0  0
   47.4414   10.2751   14.2963 H   0  0  0  0  0  0  0  0  0  0  0  0
   48.9775    8.6802   15.4557 H   0  0  0  0  0  0  0  0  0  0  0  0
   50.4087    9.5503   14.7560 H   0  0  0  0  0  0  0  0  0  0  0  0
   51.0056    7.6156   12.9474 H   0  0  0  0  0  0  0  0  0  0  0  0
   51.4504    9.5832    9.8029 H   0  0  0  0  0  0  0  0  0  0  0  0
   53.4283    9.1869    8.4188 H   0  0  0  0  0  0  0  0  0  0  0  0
   55.6257    8.2784    8.1843 H   0  0  0  0  0  0  0  0  0  0  0  0
   55.3382    6.5327    8.2711 H   0  0  0  0  0  0  0  0  0  0  0  0
   56.3668    7.3536    9.4817 H   0  0  0  0  0  0  0  0  0  0  0  0
   56.8531    5.2245   14.1535 H   0  0  0  0  0  0  0  0  0  0  0  0
   55.3574    6.9760   13.2540 H   0  0  0  0  0  0  0  0  0  0  0  0
   54.6132    4.5647    9.7669 H   0  0  0  0  0  0  0  0  0  0  0  0
   57.2492    3.1437   12.8696 H   0  0  0  0  0  0  0  0  0  0  0  0
   55.8479    1.5330    8.9470 H   0  0  0  0  0  0  0  0  0  0  0  0
  1  2  1  0
  1  5  1  0
  2  3  1  0
  3  4  1  0
  2  6  1  0
  2  7  1  0
  8  5  1  0
  5  4  2  0
  4  9  1  0
  8 11  2  0
  9 10  2  0
 10 11  1  0
 11 12  1  0
 12 13  1  0
 13 14  1  0
 14 12  1  0
 12 15  1  0
 15 16  2  0
 15 17  1  0
 17 18  1  0
 19 18  2  0
 18 20  1  0
 19 23  1  0
 20 21  2  0
 21 22  1  0
 22 23  2  0
 22 24  1  0
 23 25  1  0
 27 25  1  0
 25 28  2  0
 26 27  2  0
 26 30  1  0
 28 29  1  0
 29 30  2  0
 29 31  1  0
 31 32  1  0
 31 33  2  0
  8 34  1  0
  9 35  1  0
 10 36  1  0
 13 37  1  0
 13 38  1  0
 14 39  1  0
 14 40  1  0
 17 41  1  0
 20 42  1  0
 21 43  1  0
 24 44  1  0
 24 45  1  0
 24 46  1  0
 26 47  1  0
 27 48  1  0
 28 49  1  0
 30 50  1  0
 32 51  1  0
M  END
> <Uni-Dock RESULT> 
ENERGY=   -4.399  LOWER_BOUND=    5.321  UPPER_BOUND=    7.580
INTER + INTRA:          -4.399
INTER:                  -4.399
INTRA:                   0.000
UNBOUND:                 0.000

$$$$
