
     RDKit          3D

 51 55  0  0  0  0  0  0  0  0999 V2000
   54.4286    9.6000    6.4789 O   0  0  0  0  0  0  0  0  0  0  0  0
   54.5064    8.6341    5.4220 C   0  0  0  0  0  0  0  0  0  0  0  0
   54.1401    7.2984    5.7955 O   0  0  0  0  0  0  0  0  0  0  0  0
   53.8426    7.4946    7.1070 C   0  0  0  0  0  0  0  0  0  0  0  0
   54.0067    8.8024    7.4961 C   0  0  0  0  0  0  0  0  0  0  0  0
   53.6987    9.0351    4.4095 F   0  0  0  0  0  0  0  0  0  0  0  0
   55.7769    8.6149    4.9484 F   0  0  0  0  0  0  0  0  0  0  0  0
   53.7551    9.2124    8.7894 C   0  0  0  0  0  0  0  0  0  0  0  0
   53.4170    6.5284    7.9888 C   0  0  0  0  0  0  0  0  0  0  0  0
   53.1564    6.9218    9.3067 C   0  0  0  0  0  0  0  0  0  0  0  0
   53.3237    8.2635    9.7374 C   0  0  0  0  0  0  0  0  0  0  0  0
   53.0216    8.6831   11.1747 C   0  0  0  0  0  0  0  0  0  0  0  0
   54.1852    9.2390   11.9960 C   0  0  0  0  0  0  0  0  0  0  0  0
   53.6432    7.8847   12.3199 C   0  0  0  0  0  0  0  0  0  0  0  0
   51.6635    9.3101   11.4006 C   0  0  0  0  0  0  0  0  0  0  0  0
   51.5467   10.5264   11.3475 O   0  0  0  0  0  0  0  0  0  0  0  0
   50.6820    8.3857   11.6419 N   0  0  0  0  0  0  0  0  0  0  0  0
   49.3263    8.6027   11.8733 C   0  0  0  0  0  0  0  0  0  0  0  0
   48.6335    7.4631   12.0719 N   0  0  0  0  0  0  0  0  0  0  0  0
   48.7296    9.8501   11.8967 C   0  0  0  0  0  0  0  0  0  0  0  0
   47.3607    9.9303   12.1408 C   0  0  0  0  0  0  0  0  0  0  0  0
   46.6159    8.7678   12.3592 C   0  0  0  0  0  0  0  0  0  0  0  0
   47.2949    7.5454   12.2956 C   0  0  0  0  0  0  0  0  0  0  0  0
   45.1431    8.8714   12.6260 C   0  0  0  0  0  0  0  0  0  0  0  0
   46.6433    6.2382   12.4692 C   0  0  0  0  0  0  0  0  0  0  0  0
   46.4019    4.1539   13.7155 C   0  0  0  0  0  0  0  0  0  0  0  0
   47.0067    5.3999   13.5373 C   0  0  0  0  0  0  0  0  0  0  0  0
   45.6674    5.7818   11.5668 C   0  0  0  0  0  0  0  0  0  0  0  0
   45.0560    4.5322   11.7409 C   0  0  0  0  0  0  0  0  0  0  0  0
   45.4255    3.7216   12.8200 C   0  0  0  0  0  0  0  0  0  0  0  0
   44.0197    4.0283   10.8080 C   0  0  0  0  0  0  0  0  0  0  0  0
   43.7191    4.9079    9.8363 O   0  0  0  0  0  0  0  0  0  0  0  0
   43.4650    2.9469   10.8745 O   0  0  0  0  0  0  0  0  0  0  0  0
   53.8813   10.2549    9.0695 H   0  0  0  0  0  0  0  0  0  0  0  0
   53.2857    5.4988    7.6738 H   0  0  0  0  0  0  0  0  0  0  0  0
   52.8155    6.1693   10.0159 H   0  0  0  0  0  0  0  0  0  0  0  0
   55.1669    9.2976   11.5393 H   0  0  0  0  0  0  0  0  0  0  0  0
   53.9784   10.0533   12.6831 H   0  0  0  0  0  0  0  0  0  0  0  0
   53.0870    7.7798   13.2456 H   0  0  0  0  0  0  0  0  0  0  0  0
   54.2705    7.0304   12.0910 H   0  0  0  0  0  0  0  0  0  0  0  0
   50.9232    7.4054   11.6453 H   0  0  0  0  0  0  0  0  0  0  0  0
   49.2884   10.7635   11.7324 H   0  0  0  0  0  0  0  0  0  0  0  0
   46.8845   10.9080   12.1628 H   0  0  0  0  0  0  0  0  0  0  0  0
   44.8688    9.8854   12.9371 H   0  0  0  0  0  0  0  0  0  0  0  0
   44.5752    8.6302   11.7223 H   0  0  0  0  0  0  0  0  0  0  0  0
   44.8420    8.2011   13.4375 H   0  0  0  0  0  0  0  0  0  0  0  0
   46.6957    3.5211   14.5492 H   0  0  0  0  0  0  0  0  0  0  0  0
   47.7748    5.7239   14.2382 H   0  0  0  0  0  0  0  0  0  0  0  0
   45.3954    6.4040   10.7163 H   0  0  0  0  0  0  0  0  0  0  0  0
   44.9582    2.7488   12.9619 H   0  0  0  0  0  0  0  0  0  0  0  0
   43.0375    4.4456    9.3046 H   0  0  0  0  0  0  0  0  0  0  0  0
  1  2  1  0
  1  5  1  0
  2  3  1  0
  3  4  1  0
  2  6  1  0
  2  7  1  0
  8  5  1  0
  5  4  2  0
  4  9  1  0
  8 11  2  0
  9 10  2  0
 10 11  1  0
 11 12  1  0
 12 13  1  0
 13 14  1  0
 14 12  1  0
 12 15  1  0
 15 16  2  0
 15 17  1  0
 17 18  1  0
 19 18  2  0
 18 20  1  0
 19 23  1  0
 20 21  2  0
 21 22  1  0
 22 23  2  0
 22 24  1  0
 23 25  1  0
 27 25  1  0
 25 28  2  0
 26 27  2  0
 26 30  1  0
 28 29  1  0
 29 30  2  0
 29 31  1  0
 31 32  1  0
 31 33  2  0
  8 34  1  0
  9 35  1  0
 10 36  1  0
 13 37  1  0
 13 38  1  0
 14 39  1  0
 14 40  1  0
 17 41  1  0
 20 42  1  0
 21 43  1  0
 24 44  1  0
 24 45  1  0
 24 46  1  0
 26 47  1  0
 27 48  1  0
 28 49  1  0
 30 50  1  0
 32 51  1  0
M  END
> <Uni-Dock RESULT> 
ENERGY=   -5.843  LOWER_BOUND=    0.000  UPPER_BOUND=    0.000
INTER + INTRA:          -5.843
INTER:                  -5.843
INTRA:                   0.000
UNBOUND:                 0.000

$$$$

     RDKit          3D

 51 55  0  0  0  0  0  0  0  0999 V2000
   53.9130    2.0454   18.4345 O   0  0  0  0  0  0  0  0  0  0  0  0
   55.1488    2.7062   18.1312 C   0  0  0  0  0  0  0  0  0  0  0  0
   55.0136    4.0537   17.6583 O   0  0  0  0  0  0  0  0  0  0  0  0
   53.6606    4.1779   17.6867 C   0  0  0  0  0  0  0  0  0  0  0  0
   53.0344    3.0367   18.1274 C   0  0  0  0  0  0  0  0  0  0  0  0
   55.9188    2.7165   19.2472 F   0  0  0  0  0  0  0  0  0  0  0  0
   55.8039    1.9837   17.1891 F   0  0  0  0  0  0  0  0  0  0  0  0
   51.6609    2.9562   18.2319 C   0  0  0  0  0  0  0  0  0  0  0  0
   52.9477    5.2986   17.3289 C   0  0  0  0  0  0  0  0  0  0  0  0
   51.5525    5.2391   17.4264 C   0  0  0  0  0  0  0  0  0  0  0  0
   50.8796    4.0720   17.8718 C   0  0  0  0  0  0  0  0  0  0  0  0
   49.3573    4.0246   17.9880 C   0  0  0  0  0  0  0  0  0  0  0  0
   48.6246    3.0053   17.1154 C   0  0  0  0  0  0  0  0  0  0  0  0
   48.5144    4.4595   16.7897 C   0  0  0  0  0  0  0  0  0  0  0  0
   48.8000    4.2654   19.3737 C   0  0  0  0  0  0  0  0  0  0  0  0
   48.5771    3.3115   20.1060 O   0  0  0  0  0  0  0  0  0  0  0  0
   48.6120    5.5937   19.6503 N   0  0  0  0  0  0  0  0  0  0  0  0
   48.1361    6.1750   20.8226 C   0  0  0  0  0  0  0  0  0  0  0  0
   48.0787    7.5207   20.7615 N   0  0  0  0  0  0  0  0  0  0  0  0
   47.7597    5.4643   21.9477 C   0  0  0  0  0  0  0  0  0  0  0  0
   47.2984    6.1679   23.0577 C   0  0  0  0  0  0  0  0  0  0  0  0
   47.2188    7.5630   23.0229 C   0  0  0  0  0  0  0  0  0  0  0  0
   47.6412    8.2040   21.8525 C   0  0  0  0  0  0  0  0  0  0  0  0
   46.7147    8.3060   24.2250 C   0  0  0  0  0  0  0  0  0  0  0  0
   47.6496    9.6644   21.6775 C   0  0  0  0  0  0  0  0  0  0  0  0
   46.8484   11.6503   20.5070 C   0  0  0  0  0  0  0  0  0  0  0  0
   46.8502   10.2660   20.6902 C   0  0  0  0  0  0  0  0  0  0  0  0
   48.4683   10.4909   22.4662 C   0  0  0  0  0  0  0  0  0  0  0  0
   48.4701   11.8815   22.2874 C   0  0  0  0  0  0  0  0  0  0  0  0
   47.6553   12.4576   21.3066 C   0  0  0  0  0  0  0  0  0  0  0  0
   49.3190   12.7775   23.1089 C   0  0  0  0  0  0  0  0  0  0  0  0
   50.0261   12.1165   24.0424 O   0  0  0  0  0  0  0  0  0  0  0  0
   49.3980   13.9868   22.9957 O   0  0  0  0  0  0  0  0  0  0  0  0
   51.1900    2.0461   18.5943 H   0  0  0  0  0  0  0  0  0  0  0  0
   53.4487    6.1974   16.9857 H   0  0  0  0  0  0  0  0  0  0  0  0
   50.9743    6.1194   17.1500 H   0  0  0  0  0  0  0  0  0  0  0  0
   49.2030    2.3771   16.4470 H   0  0  0  0  0  0  0  0  0  0  0  0
   47.7580    2.5058   17.5368 H   0  0  0  0  0  0  0  0  0  0  0  0
   47.5579    4.9386   16.9703 H   0  0  0  0  0  0  0  0  0  0  0  0
   49.0111    4.8064   15.8904 H   0  0  0  0  0  0  0  0  0  0  0  0
   48.8520    6.2785   18.9484 H   0  0  0  0  0  0  0  0  0  0  0  0
   47.8112    4.3833   21.9951 H   0  0  0  0  0  0  0  0  0  0  0  0
   46.9985    5.6159   23.9458 H   0  0  0  0  0  0  0  0  0  0  0  0
   46.1588    7.6412   24.8953 H   0  0  0  0  0  0  0  0  0  0  0  0
   47.5514    8.7305   24.7880 H   0  0  0  0  0  0  0  0  0  0  0  0
   46.0264    9.1058   23.9333 H   0  0  0  0  0  0  0  0  0  0  0  0
   46.2215   12.0963   19.7390 H   0  0  0  0  0  0  0  0  0  0  0  0
   46.2224    9.6439   20.0538 H   0  0  0  0  0  0  0  0  0  0  0  0
   49.1169   10.0402   23.2149 H   0  0  0  0  0  0  0  0  0  0  0  0
   47.6519   13.5360   21.1588 H   0  0  0  0  0  0  0  0  0  0  0  0
   50.5330   12.8227   24.4957 H   0  0  0  0  0  0  0  0  0  0  0  0
  1  2  1  0
  1  5  1  0
  2  3  1  0
  3  4  1  0
  2  6  1  0
  2  7  1  0
  8  5  1  0
  5  4  2  0
  4  9  1  0
  8 11  2  0
  9 10  2  0
 10 11  1  0
 11 12  1  0
 12 13  1  0
 13 14  1  0
 14 12  1  0
 12 15  1  0
 15 16  2  0
 15 17  1  0
 17 18  1  0
 19 18  2  0
 18 20  1  0
 19 23  1  0
 20 21  2  0
 21 22  1  0
 22 23  2  0
 22 24  1  0
 23 25  1  0
 27 25  1  0
 25 28  2  0
 26 27  2  0
 26 30  1  0
 28 29  1  0
 29 30  2  0
 29 31  1  0
 31 32  1  0
 31 33  2  0
  8 34  1  0
  9 35  1  0
 10 36  1  0
 13 37  1  0
 13 38  1  0
 14 39  1  0
 14 40  1  0
 17 41  1  0
 20 42  1  0
 21 43  1  0
 24 44  1  0
 24 45  1  0
 24 46  1  0
 26 47  1  0
 27 48  1  0
 28 49  1  0
 30 50  1  0
 32 51  1  0
M  END
> <Uni-Dock RESULT> 
ENERGY=   -5.825  LOWER_BOUND=    9.231  UPPER_BOUND=   11.778
INTER + INTRA:          -5.825
INTER:                  -5.825
INTRA:                   0.000
UNBOUND:                 0.000

$$$$

     RDKit          3D

 51 55  0  0  0  0  0  0  0  0999 V2000
   53.5511    2.6656   18.0976 O   0  0  0  0  0  0  0  0  0  0  0  0
   53.7449    1.3224   17.6346 C   0  0  0  0  0  0  0  0  0  0  0  0
   52.5544    0.6601   17.1855 O   0  0  0  0  0  0  0  0  0  0  0  0
   51.6435    1.6466   17.3952 C   0  0  0  0  0  0  0  0  0  0  0  0
   52.2093    2.7866   17.9139 C   0  0  0  0  0  0  0  0  0  0  0  0
   54.6383    1.3413   16.6147 F   0  0  0  0  0  0  0  0  0  0  0  0
   54.2886    0.5939   18.6409 F   0  0  0  0  0  0  0  0  0  0  0  0
   51.4556    3.9069   18.1980 C   0  0  0  0  0  0  0  0  0  0  0  0
   50.2958    1.5668   17.1316 C   0  0  0  0  0  0  0  0  0  0  0  0
   49.5115    2.6917   17.4129 C   0  0  0  0  0  0  0  0  0  0  0  0
   50.0680    3.8791   17.9548 C   0  0  0  0  0  0  0  0  0  0  0  0
   49.2040    5.1052   18.2434 C   0  0  0  0  0  0  0  0  0  0  0  0
   49.1206    5.5706   19.6973 C   0  0  0  0  0  0  0  0  0  0  0  0
   47.9281    4.9286   19.0658 C   0  0  0  0  0  0  0  0  0  0  0  0
   49.2210    6.1814   17.1802 C   0  0  0  0  0  0  0  0  0  0  0  0
   50.0180    7.1044   17.2721 O   0  0  0  0  0  0  0  0  0  0  0  0
   48.2961    5.9706   16.1921 N   0  0  0  0  0  0  0  0  0  0  0  0
   48.0480    6.7417   15.0597 C   0  0  0  0  0  0  0  0  0  0  0  0
   47.0635    6.2437   14.2847 N   0  0  0  0  0  0  0  0  0  0  0  0
   48.7322    7.9004   14.7407 C   0  0  0  0  0  0  0  0  0  0  0  0
   48.3853    8.5809   13.5760 C   0  0  0  0  0  0  0  0  0  0  0  0
   47.3630    8.0951   12.7557 C   0  0  0  0  0  0  0  0  0  0  0  0
   46.7379    6.9036   13.1414 C   0  0  0  0  0  0  0  0  0  0  0  0
   46.9976    8.8426   11.5071 C   0  0  0  0  0  0  0  0  0  0  0  0
   45.6718    6.2514   12.3658 C   0  0  0  0  0  0  0  0  0  0  0  0
   43.3651    5.4727   12.1967 C   0  0  0  0  0  0  0  0  0  0  0  0
   44.3883    6.0930   12.9165 C   0  0  0  0  0  0  0  0  0  0  0  0
   45.9091    5.7489   11.0750 C   0  0  0  0  0  0  0  0  0  0  0  0
   44.8855    5.1259   10.3470 C   0  0  0  0  0  0  0  0  0  0  0  0
   43.6125    4.9922   10.9121 C   0  0  0  0  0  0  0  0  0  0  0  0
   45.1062    4.5920    8.9815 C   0  0  0  0  0  0  0  0  0  0  0  0
   46.3530    4.8133    8.5290 O   0  0  0  0  0  0  0  0  0  0  0  0
   44.2800    4.0149    8.2991 O   0  0  0  0  0  0  0  0  0  0  0  0
   51.9285    4.8005   18.5970 H   0  0  0  0  0  0  0  0  0  0  0  0
   49.8566    0.6652   16.7183 H   0  0  0  0  0  0  0  0  0  0  0  0
   48.4435    2.6453   17.2065 H   0  0  0  0  0  0  0  0  0  0  0  0
   49.6559    5.0119   20.4569 H   0  0  0  0  0  0  0  0  0  0  0  0
   49.0889    6.6387   19.8876 H   0  0  0  0  0  0  0  0  0  0  0  0
   47.0760    5.5649   18.8509 H   0  0  0  0  0  0  0  0  0  0  0  0
   47.6543    3.9386   19.4131 H   0  0  0  0  0  0  0  0  0  0  0  0
   47.7064    5.1526   16.2403 H   0  0  0  0  0  0  0  0  0  0  0  0
   49.5259    8.2955   15.3634 H   0  0  0  0  0  0  0  0  0  0  0  0
   48.9175    9.4941   13.3194 H   0  0  0  0  0  0  0  0  0  0  0  0
   47.3663    9.8736   11.5422 H   0  0  0  0  0  0  0  0  0  0  0  0
   47.4368    8.3564   10.6308 H   0  0  0  0  0  0  0  0  0  0  0  0
   45.9110    8.9011   11.3872 H   0  0  0  0  0  0  0  0  0  0  0  0
   42.3786    5.3616   12.6398 H   0  0  0  0  0  0  0  0  0  0  0  0
   44.1862    6.4569   13.9230 H   0  0  0  0  0  0  0  0  0  0  0  0
   46.9049    5.8350   10.6443 H   0  0  0  0  0  0  0  0  0  0  0  0
   42.8122    4.5078   10.3556 H   0  0  0  0  0  0  0  0  0  0  0  0
   46.3530    4.4099    7.6356 H   0  0  0  0  0  0  0  0  0  0  0  0
  1  2  1  0
  1  5  1  0
  2  3  1  0
  3  4  1  0
  2  6  1  0
  2  7  1  0
  8  5  1  0
  5  4  2  0
  4  9  1  0
  8 11  2  0
  9 10  2  0
 10 11  1  0
 11 12  1  0
 12 13  1  0
 13 14  1  0
 14 12  1  0
 12 15  1  0
 15 16  2  0
 15 17  1  0
 17 18  1  0
 19 18  2  0
 18 20  1  0
 19 23  1  0
 20 21  2  0
 21 22  1  0
 22 23  2  0
 22 24  1  0
 23 25  1  0
 27 25  1  0
 25 28  2  0
 26 27  2  0
 26 30  1  0
 28 29  1  0
 29 30  2  0
 29 31  1  0
 31 32  1  0
 31 33  2  0
  8 34  1  0
  9 35  1  0
 10 36  1  0
 13 37  1  0
 13 38  1  0
 14 39  1  0
 14 40  1  0
 17 41  1  0
 20 42  1  0
 21 43  1  0
 24 44  1  0
 24 45  1  0
 24 46  1  0
 26 47  1  0
 27 48  1  0
 28 49  1  0
 30 50  1  0
 32 51  1  0
M  END
> <Uni-Dock RESULT> 
ENERGY=   -5.702  LOWER_BOUND=    6.116  UPPER_BOUND=    8.257
INTER + INTRA:          -5.702
INTER:                  -5.702
INTRA:                   0.000
UNBOUND:                 0.000

$$$$

     RDKit          3D

 51 55  0  0  0  0  0  0  0  0999 V2000
   43.9212    6.7858   11.4975 O   0  0  0  0  0  0  0  0  0  0  0  0
   43.2265    5.5343   11.5830 C   0  0  0  0  0  0  0  0  0  0  0  0
   43.9051    4.5163   12.3320 O   0  0  0  0  0  0  0  0  0  0  0  0
   45.0261    5.1960   12.6901 C   0  0  0  0  0  0  0  0  0  0  0  0
   45.0360    6.4858   12.2158 C   0  0  0  0  0  0  0  0  0  0  0  0
   42.0142    5.7507   12.1504 F   0  0  0  0  0  0  0  0  0  0  0  0
   43.0133    5.0730   10.3258 F   0  0  0  0  0  0  0  0  0  0  0  0
   46.0853    7.3451   12.4702 C   0  0  0  0  0  0  0  0  0  0  0  0
   46.0628    4.6977   13.4445 C   0  0  0  0  0  0  0  0  0  0  0  0
   47.1384    5.5519   13.7144 C   0  0  0  0  0  0  0  0  0  0  0  0
   47.1780    6.8858   13.2319 C   0  0  0  0  0  0  0  0  0  0  0  0
   48.3506    7.8128   13.5459 C   0  0  0  0  0  0  0  0  0  0  0  0
   49.1652    8.3299   12.3600 C   0  0  0  0  0  0  0  0  0  0  0  0
   49.7714    7.3182   13.2774 C   0  0  0  0  0  0  0  0  0  0  0  0
   48.1370    8.7693   14.6984 C   0  0  0  0  0  0  0  0  0  0  0  0
   47.7087    9.8930   14.4754 O   0  0  0  0  0  0  0  0  0  0  0  0
   48.4611    8.2237   15.9123 N   0  0  0  0  0  0  0  0  0  0  0  0
   48.3736    8.8057   17.1741 C   0  0  0  0  0  0  0  0  0  0  0  0
   48.7722    7.9835   18.1657 N   0  0  0  0  0  0  0  0  0  0  0  0
   47.9227   10.0917   17.4096 C   0  0  0  0  0  0  0  0  0  0  0  0
   47.8850   10.5554   18.7224 C   0  0  0  0  0  0  0  0  0  0  0  0
   48.2997    9.7305   19.7719 C   0  0  0  0  0  0  0  0  0  0  0  0
   48.7201    8.4356   19.4469 C   0  0  0  0  0  0  0  0  0  0  0  0
   48.2580   10.2468   21.1801 C   0  0  0  0  0  0  0  0  0  0  0  0
   49.1519    7.4422   20.4420 C   0  0  0  0  0  0  0  0  0  0  0  0
   50.8923    5.9977   21.3584 C   0  0  0  0  0  0  0  0  0  0  0  0
   50.4661    6.9440   20.4242 C   0  0  0  0  0  0  0  0  0  0  0  0
   48.2652    6.9471   21.4136 C   0  0  0  0  0  0  0  0  0  0  0  0
   48.6876    5.9976   22.3546 C   0  0  0  0  0  0  0  0  0  0  0  0
   50.0051    5.5270   22.3245 C   0  0  0  0  0  0  0  0  0  0  0  0
   47.7755    5.4625   23.3939 C   0  0  0  0  0  0  0  0  0  0  0  0
   46.5509    6.0162   23.3497 O   0  0  0  0  0  0  0  0  0  0  0  0
   48.0575    4.6189   24.2247 O   0  0  0  0  0  0  0  0  0  0  0  0
   46.0642    8.3644   12.0937 H   0  0  0  0  0  0  0  0  0  0  0  0
   46.0465    3.6799   13.8191 H   0  0  0  0  0  0  0  0  0  0  0  0
   47.9652    5.1733   14.3132 H   0  0  0  0  0  0  0  0  0  0  0  0
   48.8936    8.0109   11.3599 H   0  0  0  0  0  0  0  0  0  0  0  0
   49.5343    9.3497   12.4035 H   0  0  0  0  0  0  0  0  0  0  0  0
   50.5727    7.6533   13.9277 H   0  0  0  0  0  0  0  0  0  0  0  0
   49.9192    6.3178   12.8862 H   0  0  0  0  0  0  0  0  0  0  0  0
   48.7955    7.2718   15.9473 H   0  0  0  0  0  0  0  0  0  0  0  0
   47.5990   10.7482   16.6110 H   0  0  0  0  0  0  0  0  0  0  0  0
   47.5335   11.5665   18.9155 H   0  0  0  0  0  0  0  0  0  0  0  0
   48.2033   11.3409   21.1979 H   0  0  0  0  0  0  0  0  0  0  0  0
   47.3794    9.8562   21.7023 H   0  0  0  0  0  0  0  0  0  0  0  0
   49.1637    9.9683   21.7284 H   0  0  0  0  0  0  0  0  0  0  0  0
   51.9137    5.6263   21.3289 H   0  0  0  0  0  0  0  0  0  0  0  0
   51.1655    7.2984   19.6683 H   0  0  0  0  0  0  0  0  0  0  0  0
   47.2351    7.2984   21.4234 H   0  0  0  0  0  0  0  0  0  0  0  0
   50.3414    4.7880   23.0494 H   0  0  0  0  0  0  0  0  0  0  0  0
   46.0664    5.5713   24.0766 H   0  0  0  0  0  0  0  0  0  0  0  0
  1  2  1  0
  1  5  1  0
  2  3  1  0
  3  4  1  0
  2  6  1  0
  2  7  1  0
  8  5  1  0
  5  4  2  0
  4  9  1  0
  8 11  2  0
  9 10  2  0
 10 11  1  0
 11 12  1  0
 12 13  1  0
 13 14  1  0
 14 12  1  0
 12 15  1  0
 15 16  2  0
 15 17  1  0
 17 18  1  0
 19 18  2  0
 18 20  1  0
 19 23  1  0
 20 21  2  0
 21 22  1  0
 22 23  2  0
 22 24  1  0
 23 25  1  0
 27 25  1  0
 25 28  2  0
 26 27  2  0
 26 30  1  0
 28 29  1  0
 29 30  2  0
 29 31  1  0
 31 32  1  0
 31 33  2  0
  8 34  1  0
  9 35  1  0
 10 36  1  0
 13 37  1  0
 13 38  1  0
 14 39  1  0
 14 40  1  0
 17 41  1  0
 20 42  1  0
 21 43  1  0
 24 44  1  0
 24 45  1  0
 24 46  1  0
 26 47  1  0
 27 48  1  0
 28 49  1  0
 30 50  1  0
 32 51  1  0
M  END
> <Uni-Dock RESULT> 
ENERGY=   -5.620  LOWER_BOUND=    7.122  UPPER_BOUND=    9.523
INTER + INTRA:          -5.620
INTER:                  -5.620
INTRA:                   0.000
UNBOUND:                 0.000

$$$$

     RDKit          3D

 51 55  0  0  0  0  0  0  0  0999 V2000
   49.8057   12.5057   22.0191 O   0  0  0  0  0  0  0  0  0  0  0  0
   48.9996   11.8480   23.0059 C   0  0  0  0  0  0  0  0  0  0  0  0
   47.7192   11.3998   22.5397 O   0  0  0  0  0  0  0  0  0  0  0  0
   47.7835   11.8104   21.2458 C   0  0  0  0  0  0  0  0  0  0  0  0
   48.9690   12.4394   20.9494 C   0  0  0  0  0  0  0  0  0  0  0  0
   49.6842   10.7779   23.4800 F   0  0  0  0  0  0  0  0  0  0  0  0
   48.8055   12.7010   24.0420 F   0  0  0  0  0  0  0  0  0  0  0  0
   49.2348   12.9305   19.6876 C   0  0  0  0  0  0  0  0  0  0  0  0
   46.8026   11.6378   20.2971 C   0  0  0  0  0  0  0  0  0  0  0  0
   47.0506   12.1291   19.0099 C   0  0  0  0  0  0  0  0  0  0  0  0
   48.2625   12.7882   18.6779 C   0  0  0  0  0  0  0  0  0  0  0  0
   48.5273   13.3065   17.2657 C   0  0  0  0  0  0  0  0  0  0  0  0
   48.7317   14.8131   17.1048 C   0  0  0  0  0  0  0  0  0  0  0  0
   47.4734   14.1878   16.5962 C   0  0  0  0  0  0  0  0  0  0  0  0
   49.3634   12.4045   16.3846 C   0  0  0  0  0  0  0  0  0  0  0  0
   50.5749   12.5649   16.3382 O   0  0  0  0  0  0  0  0  0  0  0  0
   48.6179   11.4671   15.7199 N   0  0  0  0  0  0  0  0  0  0  0  0
   49.0543   10.4739   14.8472 C   0  0  0  0  0  0  0  0  0  0  0  0
   48.0509    9.7116   14.3676 N   0  0  0  0  0  0  0  0  0  0  0  0
   50.3767   10.2694   14.4980 C   0  0  0  0  0  0  0  0  0  0  0  0
   50.6809    9.2389   13.6118 C   0  0  0  0  0  0  0  0  0  0  0  0
   49.6623    8.4363   13.0901 C   0  0  0  0  0  0  0  0  0  0  0  0
   48.3542    8.6978   13.5140 C   0  0  0  0  0  0  0  0  0  0  0  0
   50.0059    7.3336   12.1324 C   0  0  0  0  0  0  0  0  0  0  0  0
   47.1835    7.9195   13.0812 C   0  0  0  0  0  0  0  0  0  0  0  0
   45.0301    7.8135   11.9378 C   0  0  0  0  0  0  0  0  0  0  0  0
   46.1508    8.5355   12.3534 C   0  0  0  0  0  0  0  0  0  0  0  0
   47.0514    6.5575   13.4018 C   0  0  0  0  0  0  0  0  0  0  0  0
   45.9290    5.8272   12.9866 C   0  0  0  0  0  0  0  0  0  0  0  0
   44.9205    6.4600   12.2515 C   0  0  0  0  0  0  0  0  0  0  0  0
   45.7665    4.3884   13.3056 C   0  0  0  0  0  0  0  0  0  0  0  0
   46.8140    3.8809   13.9789 O   0  0  0  0  0  0  0  0  0  0  0  0
   44.8118    3.6949   13.0070 O   0  0  0  0  0  0  0  0  0  0  0  0
   50.1849   13.4139   19.4752 H   0  0  0  0  0  0  0  0  0  0  0  0
   45.8709   11.1368   20.5369 H   0  0  0  0  0  0  0  0  0  0  0  0
   46.2851   11.9971   18.2469 H   0  0  0  0  0  0  0  0  0  0  0  0
   48.6657   15.4466   17.9823 H   0  0  0  0  0  0  0  0  0  0  0  0
   49.4665   15.1514   16.3812 H   0  0  0  0  0  0  0  0  0  0  0  0
   47.3482   14.1263   15.5202 H   0  0  0  0  0  0  0  0  0  0  0  0
   46.5559   14.4136   17.1280 H   0  0  0  0  0  0  0  0  0  0  0  0
   47.6189   11.4445   15.8638 H   0  0  0  0  0  0  0  0  0  0  0  0
   51.1810   10.8810   14.8886 H   0  0  0  0  0  0  0  0  0  0  0  0
   51.7185    9.0730   13.3307 H   0  0  0  0  0  0  0  0  0  0  0  0
   51.0000    7.4841   11.6973 H   0  0  0  0  0  0  0  0  0  0  0  0
   50.0055    6.3685   12.6479 H   0  0  0  0  0  0  0  0  0  0  0  0
   49.2985    7.3029   11.2973 H   0  0  0  0  0  0  0  0  0  0  0  0
   44.2430    8.3080   11.3740 H   0  0  0  0  0  0  0  0  0  0  0  0
   46.2219    9.5947   12.1102 H   0  0  0  0  0  0  0  0  0  0  0  0
   47.8264    6.0712   13.9911 H   0  0  0  0  0  0  0  0  0  0  0  0
   44.0442    5.9019   11.9269 H   0  0  0  0  0  0  0  0  0  0  0  0
   46.5685    2.9425   14.1213 H   0  0  0  0  0  0  0  0  0  0  0  0
  1  2  1  0
  1  5  1  0
  2  3  1  0
  3  4  1  0
  2  6  1  0
  2  7  1  0
  8  5  1  0
  5  4  2  0
  4  9  1  0
  8 11  2  0
  9 10  2  0
 10 11  1  0
 11 12  1  0
 12 13  1  0
 13 14  1  0
 14 12  1  0
 12 15  1  0
 15 16  2  0
 15 17  1  0
 17 18  1  0
 19 18  2  0
 18 20  1  0
 19 23  1  0
 20 21  2  0
 21 22  1  0
 22 23  2  0
 22 24  1  0
 23 25  1  0
 27 25  1  0
 25 28  2  0
 26 27  2  0
 26 30  1  0
 28 29  1  0
 29 30  2  0
 29 31  1  0
 31 32  1  0
 31 33  2  0
  8 34  1  0
  9 35  1  0
 10 36  1  0
 13 37  1  0
 13 38  1  0
 14 39  1  0
 14 40  1  0
 17 41  1  0
 20 42  1  0
 21 43  1  0
 24 44  1  0
 24 45  1  0
 24 46  1  0
 26 47  1  0
 27 48  1  0
 28 49  1  0
 30 50  1  0
 32 51  1  0
M  END
> <Uni-Dock RESULT> 
ENERGY=   -5.249  LOWER_BOUND=    7.585  UPPER_BOUND=   10.225
INTER + INTRA:          -5.249
INTER:                  -5.249
INTRA:                   0.000
UNBOUND:                 0.000

$$$$

     RDKit          3D

 51 55  0  0  0  0  0  0  0  0999 V2000
   50.3181   14.6387   20.3545 O   0  0  0  0  0  0  0  0  0  0  0  0
   49.6844   14.1161   21.5298 C   0  0  0  0  0  0  0  0  0  0  0  0
   48.4145   13.4886   21.3035 O   0  0  0  0  0  0  0  0  0  0  0  0
   48.3076   13.6530   19.9587 C   0  0  0  0  0  0  0  0  0  0  0  0
   49.3891   14.3070   19.4188 C   0  0  0  0  0  0  0  0  0  0  0  0
   50.5159   13.2115   22.1032 F   0  0  0  0  0  0  0  0  0  0  0  0
   49.5115   15.1302   22.4132 F   0  0  0  0  0  0  0  0  0  0  0  0
   49.4769   14.5722   18.0675 C   0  0  0  0  0  0  0  0  0  0  0  0
   47.2584   13.2284   19.1770 C   0  0  0  0  0  0  0  0  0  0  0  0
   47.3260   13.4876   17.8030 C   0  0  0  0  0  0  0  0  0  0  0  0
   48.4271   14.1666   17.2198 C   0  0  0  0  0  0  0  0  0  0  0  0
   48.4962   14.4301   15.7169 C   0  0  0  0  0  0  0  0  0  0  0  0
   48.5329   15.8911   15.2680 C   0  0  0  0  0  0  0  0  0  0  0  0
   47.2982   15.0840   15.0291 C   0  0  0  0  0  0  0  0  0  0  0  0
   49.3250   13.4479   14.9186 C   0  0  0  0  0  0  0  0  0  0  0  0
   50.5039   13.6920   14.7032 O   0  0  0  0  0  0  0  0  0  0  0  0
   48.6133   12.3465   14.5228 N   0  0  0  0  0  0  0  0  0  0  0  0
   49.0563   11.2449   13.7956 C   0  0  0  0  0  0  0  0  0  0  0  0
   48.0905   10.3292   13.5797 N   0  0  0  0  0  0  0  0  0  0  0  0
   50.3508   11.0838   13.3362 C   0  0  0  0  0  0  0  0  0  0  0  0
   50.6652    9.9327   12.6179 C   0  0  0  0  0  0  0  0  0  0  0  0
   49.6842    8.9685   12.3698 C   0  0  0  0  0  0  0  0  0  0  0  0
   48.4057    9.2005   12.8904 C   0  0  0  0  0  0  0  0  0  0  0  0
   50.0376    7.7364   11.5899 C   0  0  0  0  0  0  0  0  0  0  0  0
   47.2805    8.2647   12.7426 C   0  0  0  0  0  0  0  0  0  0  0  0
   45.0445    7.7761   11.8958 C   0  0  0  0  0  0  0  0  0  0  0  0
   46.1240    8.6496   12.0426 C   0  0  0  0  0  0  0  0  0  0  0  0
   47.3171    6.9809   13.3134 C   0  0  0  0  0  0  0  0  0  0  0  0
   46.2367    6.0992   13.1687 C   0  0  0  0  0  0  0  0  0  0  0  0
   45.1017    6.5012   12.4557 C   0  0  0  0  0  0  0  0  0  0  0  0
   46.2505    4.7375   13.7551 C   0  0  0  0  0  0  0  0  0  0  0  0
   47.4055    4.4498   14.3808 O   0  0  0  0  0  0  0  0  0  0  0  0
   45.3443    3.9271   13.6981 O   0  0  0  0  0  0  0  0  0  0  0  0
   50.3482   15.0807   17.6630 H   0  0  0  0  0  0  0  0  0  0  0  0
   46.4098   12.7092   19.6092 H   0  0  0  0  0  0  0  0  0  0  0  0
   46.5048   13.1548   17.1703 H   0  0  0  0  0  0  0  0  0  0  0  0
   48.4927   16.6707   16.0205 H   0  0  0  0  0  0  0  0  0  0  0  0
   49.1542   16.1448   14.4149 H   0  0  0  0  0  0  0  0  0  0  0  0
   47.0724   14.8120   14.0034 H   0  0  0  0  0  0  0  0  0  0  0  0
   46.4209   15.3322   15.6159 H   0  0  0  0  0  0  0  0  0  0  0  0
   47.6410   12.2723   14.7841 H   0  0  0  0  0  0  0  0  0  0  0  0
   51.1255   11.8195   13.5153 H   0  0  0  0  0  0  0  0  0  0  0  0
   51.6807    9.7997   12.2515 H   0  0  0  0  0  0  0  0  0  0  0  0
   50.9632    7.8809   11.0219 H   0  0  0  0  0  0  0  0  0  0  0  0
   50.1847    6.8882   12.2652 H   0  0  0  0  0  0  0  0  0  0  0  0
   49.2566    7.4938   10.8621 H   0  0  0  0  0  0  0  0  0  0  0  0
   44.1596    8.0923   11.3490 H   0  0  0  0  0  0  0  0  0  0  0  0
   46.0649    9.6467   11.6084 H   0  0  0  0  0  0  0  0  0  0  0  0
   48.1917    6.6766   13.8851 H   0  0  0  0  0  0  0  0  0  0  0  0
   44.2570    5.8245   12.3402 H   0  0  0  0  0  0  0  0  0  0  0  0
   47.2698    3.5383   14.7154 H   0  0  0  0  0  0  0  0  0  0  0  0
  1  2  1  0
  1  5  1  0
  2  3  1  0
  3  4  1  0
  2  6  1  0
  2  7  1  0
  8  5  1  0
  5  4  2  0
  4  9  1  0
  8 11  2  0
  9 10  2  0
 10 11  1  0
 11 12  1  0
 12 13  1  0
 13 14  1  0
 14 12  1  0
 12 15  1  0
 15 16  2  0
 15 17  1  0
 17 18  1  0
 19 18  2  0
 18 20  1  0
 19 23  1  0
 20 21  2  0
 21 22  1  0
 22 23  2  0
 22 24  1  0
 23 25  1  0
 27 25  1  0
 25 28  2  0
 26 27  2  0
 26 30  1  0
 28 29  1  0
 29 30  2  0
 29 31  1  0
 31 32  1  0
 31 33  2  0
  8 34  1  0
  9 35  1  0
 10 36  1  0
 13 37  1  0
 13 38  1  0
 14 39  1  0
 14 40  1  0
 17 41  1  0
 20 42  1  0
 21 43  1  0
 24 44  1  0
 24 45  1  0
 24 46  1  0
 26 47  1  0
 27 48  1  0
 28 49  1  0
 30 50  1  0
 32 51  1  0
M  END
> <Uni-Dock RESULT> 
ENERGY=   -5.039  LOWER_BOUND=    7.131  UPPER_BOUND=    9.790
INTER + INTRA:          -5.039
INTER:                  -5.039
INTRA:                   0.000
UNBOUND:                 0.000

$$$$

     RDKit          3D

 51 55  0  0  0  0  0  0  0  0999 V2000
   39.8389   14.1000   13.5626 O   0  0  0  0  0  0  0  0  0  0  0  0
   38.4715   13.6716   13.6171 C   0  0  0  0  0  0  0  0  0  0  0  0
   38.1301   12.6218   12.7010 O   0  0  0  0  0  0  0  0  0  0  0  0
   39.3332   12.4367   12.0969 C   0  0  0  0  0  0  0  0  0  0  0  0
   40.3048   13.2768   12.5859 C   0  0  0  0  0  0  0  0  0  0  0  0
   38.2006   13.2493   14.8767 F   0  0  0  0  0  0  0  0  0  0  0  0
   37.6750   14.7393   13.3635 F   0  0  0  0  0  0  0  0  0  0  0  0
   41.5984   13.2476   12.1067 C   0  0  0  0  0  0  0  0  0  0  0  0
   39.6035   11.5226   11.1051 C   0  0  0  0  0  0  0  0  0  0  0  0
   40.9095   11.4761   10.6034 C   0  0  0  0  0  0  0  0  0  0  0  0
   41.9305   12.3360   11.0850 C   0  0  0  0  0  0  0  0  0  0  0  0
   43.3555   12.2651   10.5398 C   0  0  0  0  0  0  0  0  0  0  0  0
   43.8976   13.5151    9.8462 C   0  0  0  0  0  0  0  0  0  0  0  0
   43.5672   12.3098    9.0269 C   0  0  0  0  0  0  0  0  0  0  0  0
   44.3341   11.4650   11.3710 C   0  0  0  0  0  0  0  0  0  0  0  0
   45.0139   12.0347   12.2130 O   0  0  0  0  0  0  0  0  0  0  0  0
   44.3294   10.1302   11.0636 N   0  0  0  0  0  0  0  0  0  0  0  0
   45.0818    9.1075   11.6350 C   0  0  0  0  0  0  0  0  0  0  0  0
   44.8273    7.8978   11.0966 N   0  0  0  0  0  0  0  0  0  0  0  0
   45.9983    9.2905   12.6544 C   0  0  0  0  0  0  0  0  0  0  0  0
   46.6882    8.1815   13.1382 C   0  0  0  0  0  0  0  0  0  0  0  0
   46.4533    6.9151   12.5951 C   0  0  0  0  0  0  0  0  0  0  0  0
   45.4927    6.8160   11.5818 C   0  0  0  0  0  0  0  0  0  0  0  0
   47.2085    5.7312   13.1236 C   0  0  0  0  0  0  0  0  0  0  0  0
   45.1116    5.5499   10.9374 C   0  0  0  0  0  0  0  0  0  0  0  0
   44.9702    4.1658    8.9325 C   0  0  0  0  0  0  0  0  0  0  0  0
   45.3293    5.3594    9.5619 C   0  0  0  0  0  0  0  0  0  0  0  0
   44.5006    4.5140   11.6646 C   0  0  0  0  0  0  0  0  0  0  0  0
   44.1386    3.3130   11.0383 C   0  0  0  0  0  0  0  0  0  0  0  0
   44.3781    3.1424    9.6703 C   0  0  0  0  0  0  0  0  0  0  0  0
   43.4983    2.2017   11.7820 C   0  0  0  0  0  0  0  0  0  0  0  0
   43.3557    2.4640   13.0931 O   0  0  0  0  0  0  0  0  0  0  0  0
   43.1299    1.1437   11.3061 O   0  0  0  0  0  0  0  0  0  0  0  0
   42.3517   13.9144   12.5180 H   0  0  0  0  0  0  0  0  0  0  0  0
   38.8328   10.8598   10.7267 H   0  0  0  0  0  0  0  0  0  0  0  0
   41.1401   10.7556    9.8204 H   0  0  0  0  0  0  0  0  0  0  0  0
   43.2545   14.3833    9.7551 H   0  0  0  0  0  0  0  0  0  0  0  0
   44.9434   13.7649    9.9943 H   0  0  0  0  0  0  0  0  0  0  0  0
   44.3966   11.7565    8.5991 H   0  0  0  0  0  0  0  0  0  0  0  0
   42.7048   12.3745    8.3729 H   0  0  0  0  0  0  0  0  0  0  0  0
   43.7022    9.7953   10.3468 H   0  0  0  0  0  0  0  0  0  0  0  0
   46.1972   10.2631   13.0879 H   0  0  0  0  0  0  0  0  0  0  0  0
   47.4122    8.3176   13.9385 H   0  0  0  0  0  0  0  0  0  0  0  0
   48.1039    6.0464   13.6705 H   0  0  0  0  0  0  0  0  0  0  0  0
   46.5799    5.1544   13.8087 H   0  0  0  0  0  0  0  0  0  0  0  0
   47.5492    5.0855   12.3078 H   0  0  0  0  0  0  0  0  0  0  0  0
   45.1488    4.0374    7.8678 H   0  0  0  0  0  0  0  0  0  0  0  0
   45.7834    6.1557    8.9738 H   0  0  0  0  0  0  0  0  0  0  0  0
   44.2961    4.6554   12.7242 H   0  0  0  0  0  0  0  0  0  0  0  0
   44.0982    2.2146    9.1748 H   0  0  0  0  0  0  0  0  0  0  0  0
   42.9232    1.6587   13.4474 H   0  0  0  0  0  0  0  0  0  0  0  0
  1  2  1  0
  1  5  1  0
  2  3  1  0
  3  4  1  0
  2  6  1  0
  2  7  1  0
  8  5  1  0
  5  4  2  0
  4  9  1  0
  8 11  2  0
  9 10  2  0
 10 11  1  0
 11 12  1  0
 12 13  1  0
 13 14  1  0
 14 12  1  0
 12 15  1  0
 15 16  2  0
 15 17  1  0
 17 18  1  0
 19 18  2  0
 18 20  1  0
 19 23  1  0
 20 21  2  0
 21 22  1  0
 22 23  2  0
 22 24  1  0
 23 25  1  0
 27 25  1  0
 25 28  2  0
 26 27  2  0
 26 30  1  0
 28 29  1  0
 29 30  2  0
 29 31  1  0
 31 32  1  0
 31 33  2  0
  8 34  1  0
  9 35  1  0
 10 36  1  0
 13 37  1  0
 13 38  1  0
 14 39  1  0
 14 40  1  0
 17 41  1  0
 20 42  1  0
 21 43  1  0
 24 44  1  0
 24 45  1  0
 24 46  1  0
 26 47  1  0
 27 48  1  0
 28 49  1  0
 30 50  1  0
 32 51  1  0
M  END
> <Uni-Dock RESULT> 
ENERGY=   -5.024  LOWER_BOUND=    7.628  UPPER_BOUND=   10.529
INTER + INTRA:          -5.024
INTER:                  -5.024
INTRA:                   0.000
UNBOUND:                 0.000

$$$$

     RDKit          3D

 51 55  0  0  0  0  0  0  0  0999 V2000
   39.3882   16.0447   15.0562 O   0  0  0  0  0  0  0  0  0  0  0  0
   39.1054   15.7929   16.4392 C   0  0  0  0  0  0  0  0  0  0  0  0
   39.2258   14.4211   16.8409 O   0  0  0  0  0  0  0  0  0  0  0  0
   39.5875   13.8606   15.6569 C   0  0  0  0  0  0  0  0  0  0  0  0
   39.6796   14.7828   14.6420 C   0  0  0  0  0  0  0  0  0  0  0  0
   39.9481   16.5389   17.1955 F   0  0  0  0  0  0  0  0  0  0  0  0
   37.8420   16.2089   16.7034 F   0  0  0  0  0  0  0  0  0  0  0  0
   40.0355   14.4183   13.3597 C   0  0  0  0  0  0  0  0  0  0  0  0
   39.8476   12.5267   15.4442 C   0  0  0  0  0  0  0  0  0  0  0  0
   40.2099   12.1342   14.1503 C   0  0  0  0  0  0  0  0  0  0  0  0
   40.3062   13.0636   13.0824 C   0  0  0  0  0  0  0  0  0  0  0  0
   40.7171   12.6250   11.6782 C   0  0  0  0  0  0  0  0  0  0  0  0
   39.6985   12.8359   10.5578 C   0  0  0  0  0  0  0  0  0  0  0  0
   39.9867   11.4484   11.0321 C   0  0  0  0  0  0  0  0  0  0  0  0
   42.1736   12.8365   11.3276 C   0  0  0  0  0  0  0  0  0  0  0  0
   42.5134   13.8704   10.7698 O   0  0  0  0  0  0  0  0  0  0  0  0
   42.9714   11.7894   11.7062 N   0  0  0  0  0  0  0  0  0  0  0  0
   44.3492   11.6534   11.5585 C   0  0  0  0  0  0  0  0  0  0  0  0
   44.8224   10.4899   12.0486 N   0  0  0  0  0  0  0  0  0  0  0  0
   45.1681   12.6036   10.9762 C   0  0  0  0  0  0  0  0  0  0  0  0
   46.5337   12.3439   10.8887 C   0  0  0  0  0  0  0  0  0  0  0  0
   47.0542   11.1432   11.3797 C   0  0  0  0  0  0  0  0  0  0  0  0
   46.1580   10.2470   11.9738 C   0  0  0  0  0  0  0  0  0  0  0  0
   48.5268   10.8761   11.2731 C   0  0  0  0  0  0  0  0  0  0  0  0
   46.5589    8.9613   12.5654 C   0  0  0  0  0  0  0  0  0  0  0  0
   46.4391    6.5240   12.5870 C   0  0  0  0  0  0  0  0  0  0  0  0
   46.0727    7.7535   12.0358 C   0  0  0  0  0  0  0  0  0  0  0  0
   47.4099    8.9039   13.6825 C   0  0  0  0  0  0  0  0  0  0  0  0
   47.7819    7.6723   14.2397 C   0  0  0  0  0  0  0  0  0  0  0  0
   47.2951    6.4830   13.6860 C   0  0  0  0  0  0  0  0  0  0  0  0
   48.6826    7.5819   15.4140 C   0  0  0  0  0  0  0  0  0  0  0  0
   49.1173    8.7835   15.8329 O   0  0  0  0  0  0  0  0  0  0  0  0
   49.0277    6.5562   15.9710 O   0  0  0  0  0  0  0  0  0  0  0  0
   40.1127   15.1683   12.5769 H   0  0  0  0  0  0  0  0  0  0  0  0
   39.7769   11.8049   16.2508 H   0  0  0  0  0  0  0  0  0  0  0  0
   40.4223   11.0822   13.9667 H   0  0  0  0  0  0  0  0  0  0  0  0
   38.7337   13.2663   10.8022 H   0  0  0  0  0  0  0  0  0  0  0  0
   40.0704   13.1334    9.5826 H   0  0  0  0  0  0  0  0  0  0  0  0
   40.5366   10.7974   10.3606 H   0  0  0  0  0  0  0  0  0  0  0  0
   39.2057   10.9404   11.5868 H   0  0  0  0  0  0  0  0  0  0  0  0
   42.5520   10.9981   12.1720 H   0  0  0  0  0  0  0  0  0  0  0  0
   44.7853   13.5394   10.5874 H   0  0  0  0  0  0  0  0  0  0  0  0
   47.1841   13.0856   10.4302 H   0  0  0  0  0  0  0  0  0  0  0  0
   48.9929   11.5274   10.5255 H   0  0  0  0  0  0  0  0  0  0  0  0
   49.0170   11.0601   12.2339 H   0  0  0  0  0  0  0  0  0  0  0  0
   48.7180    9.8460   10.9558 H   0  0  0  0  0  0  0  0  0  0  0  0
   46.0536    5.6008   12.1614 H   0  0  0  0  0  0  0  0  0  0  0  0
   45.3962    7.7740   11.1825 H   0  0  0  0  0  0  0  0  0  0  0  0
   47.7716    9.8300   14.1251 H   0  0  0  0  0  0  0  0  0  0  0  0
   47.5765    5.5223   14.1132 H   0  0  0  0  0  0  0  0  0  0  0  0
   49.6873    8.5713   16.6017 H   0  0  0  0  0  0  0  0  0  0  0  0
  1  2  1  0
  1  5  1  0
  2  3  1  0
  3  4  1  0
  2  6  1  0
  2  7  1  0
  8  5  1  0
  5  4  2  0
  4  9  1  0
  8 11  2  0
  9 10  2  0
 10 11  1  0
 11 12  1  0
 12 13  1  0
 13 14  1  0
 14 12  1  0
 12 15  1  0
 15 16  2  0
 15 17  1  0
 17 18  1  0
 19 18  2  0
 18 20  1  0
 19 23  1  0
 20 21  2  0
 21 22  1  0
 22 23  2  0
 22 24  1  0
 23 25  1  0
 27 25  1  0
 25 28  2  0
 26 27  2  0
 26 30  1  0
 28 29  1  0
 29 30  2  0
 29 31  1  0
 31 32  1  0
 31 33  2  0
  8 34  1  0
  9 35  1  0
 10 36  1  0
 13 37  1  0
 13 38  1  0
 14 39  1  0
 14 40  1  0
 17 41  1  0
 20 42  1  0
 21 43  1  0
 24 44  1  0
 24 45  1  0
 24 46  1  0
 26 47  1  0
 27 48  1  0
 28 49  1  0
 30 50  1  0
 32 51  1  0
M  END
> <Uni-Dock RESULT> 
ENERGY=   -4.739  LOWER_BOUND=    7.869  UPPER_BOUND=   12.156
INTER + INTRA:          -4.739
INTER:                  -4.739
INTRA:                   0.000
UNBOUND:                 0.000

$$$$

     RDKit          3D

 51 55  0  0  0  0  0  0  0  0999 V2000
   43.8817   11.2151    5.6134 O   0  0  0  0  0  0  0  0  0  0  0  0
   44.8371   12.0794    4.9839 C   0  0  0  0  0  0  0  0  0  0  0  0
   45.6274   12.8660    5.8864 O   0  0  0  0  0  0  0  0  0  0  0  0
   45.1151   12.4471    7.0734 C   0  0  0  0  0  0  0  0  0  0  0  0
   44.1225   11.5092    6.9189 C   0  0  0  0  0  0  0  0  0  0  0  0
   45.6709   11.3239    4.2274 F   0  0  0  0  0  0  0  0  0  0  0  0
   44.1750   12.9184    4.1493 F   0  0  0  0  0  0  0  0  0  0  0  0
   43.4730   10.9540    8.0023 C   0  0  0  0  0  0  0  0  0  0  0  0
   45.5116   12.8782    8.3180 C   0  0  0  0  0  0  0  0  0  0  0  0
   44.8656   12.3288    9.4317 C   0  0  0  0  0  0  0  0  0  0  0  0
   43.8333   11.3640    9.3013 C   0  0  0  0  0  0  0  0  0  0  0  0
   43.1463   10.7609   10.5250 C   0  0  0  0  0  0  0  0  0  0  0  0
   41.6445   11.0066   10.6710 C   0  0  0  0  0  0  0  0  0  0  0  0
   42.5919   11.7008   11.5949 C   0  0  0  0  0  0  0  0  0  0  0  0
   43.6647    9.4095   10.9656 C   0  0  0  0  0  0  0  0  0  0  0  0
   43.1271    8.3940   10.5469 O   0  0  0  0  0  0  0  0  0  0  0  0
   44.7328    9.4995   11.8183 N   0  0  0  0  0  0  0  0  0  0  0  0
   45.4642    8.4682   12.4015 C   0  0  0  0  0  0  0  0  0  0  0  0
   46.4631    8.9086   13.1928 N   0  0  0  0  0  0  0  0  0  0  0  0
   45.2123    7.1234   12.1998 C   0  0  0  0  0  0  0  0  0  0  0  0
   46.0195    6.1894   12.8448 C   0  0  0  0  0  0  0  0  0  0  0  0
   47.0579    6.6139   13.6787 C   0  0  0  0  0  0  0  0  0  0  0  0
   47.2575    7.9932   13.8090 C   0  0  0  0  0  0  0  0  0  0  0  0
   47.9153    5.5954   14.3705 C   0  0  0  0  0  0  0  0  0  0  0  0
   48.3280    8.5914   14.6213 C   0  0  0  0  0  0  0  0  0  0  0  0
   49.0159    9.9848   16.5029 C   0  0  0  0  0  0  0  0  0  0  0  0
   48.0130    9.4054   15.7230 C   0  0  0  0  0  0  0  0  0  0  0  0
   49.6832    8.3906   14.3076 C   0  0  0  0  0  0  0  0  0  0  0  0
   50.6946    8.9690   15.0874 C   0  0  0  0  0  0  0  0  0  0  0  0
   50.3554    9.7647   16.1874 C   0  0  0  0  0  0  0  0  0  0  0  0
   52.1318    8.7692   14.7831 C   0  0  0  0  0  0  0  0  0  0  0  0
   52.3352    7.9565   13.7314 O   0  0  0  0  0  0  0  0  0  0  0  0
   53.0648    9.2589   15.3925 O   0  0  0  0  0  0  0  0  0  0  0  0
   42.6992   10.2052    7.8543 H   0  0  0  0  0  0  0  0  0  0  0  0
   46.2986   13.6159    8.4327 H   0  0  0  0  0  0  0  0  0  0  0  0
   45.1706   12.6574   10.4239 H   0  0  0  0  0  0  0  0  0  0  0  0
   41.1367   11.6033    9.9214 H   0  0  0  0  0  0  0  0  0  0  0  0
   41.0346   10.2021   11.0695 H   0  0  0  0  0  0  0  0  0  0  0  0
   42.6032   11.3777   12.6305 H   0  0  0  0  0  0  0  0  0  0  0  0
   42.7106   12.7716   11.4726 H   0  0  0  0  0  0  0  0  0  0  0  0
   45.0810   10.4125   12.0720 H   0  0  0  0  0  0  0  0  0  0  0  0
   44.4116    6.7729   11.5598 H   0  0  0  0  0  0  0  0  0  0  0  0
   45.8264    5.1298   12.6928 H   0  0  0  0  0  0  0  0  0  0  0  0
   47.4243    4.6162   14.3932 H   0  0  0  0  0  0  0  0  0  0  0  0
   48.8693    5.4827   13.8467 H   0  0  0  0  0  0  0  0  0  0  0  0
   48.1005    5.8786   15.4117 H   0  0  0  0  0  0  0  0  0  0  0  0
   48.7515   10.6098   17.3523 H   0  0  0  0  0  0  0  0  0  0  0  0
   46.9695    9.5913   15.9736 H   0  0  0  0  0  0  0  0  0  0  0  0
   49.9458    7.7884   13.4399 H   0  0  0  0  0  0  0  0  0  0  0  0
   51.1336   10.2200   16.7972 H   0  0  0  0  0  0  0  0  0  0  0  0
   53.3114    7.9219   13.6475 H   0  0  0  0  0  0  0  0  0  0  0  0
  1  2  1  0
  1  5  1  0
  2  3  1  0
  3  4  1  0
  2  6  1  0
  2  7  1  0
  8  5  1  0
  5  4  2  0
  4  9  1  0
  8 11  2  0
  9 10  2  0
 10 11  1  0
 11 12  1  0
 12 13  1  0
 13 14  1  0
 14 12  1  0
 12 15  1  0
 15 16  2  0
 15 17  1  0
 17 18  1  0
 19 18  2  0
 18 20  1  0
 19 23  1  0
 20 21  2  0
 21 22  1  0
 22 23  2  0
 22 24  1  0
 23 25  1  0
 27 25  1  0
 25 28  2  0
 26 27  2  0
 26 30  1  0
 28 29  1  0
 29 30  2  0
 29 31  1  0
 31 32  1  0
 31 33  2  0
  8 34  1  0
  9 35  1  0
 10 36  1  0
 13 37  1  0
 13 38  1  0
 14 39  1  0
 14 40  1  0
 17 41  1  0
 20 42  1  0
 21 43  1  0
 24 44  1  0
 24 45  1  0
 24 46  1  0
 26 47  1  0
 27 48  1  0
 28 49  1  0
 30 50  1  0
 32 51  1  0
M  END
> <Uni-Dock RESULT> 
ENERGY=   -4.699  LOWER_BOUND=    5.111  UPPER_BOUND=    8.591
INTER + INTRA:          -4.699
INTER:                  -4.699
INTRA:                   0.000
UNBOUND:                 0.000

$$$$
