
     RDKit          3D

 51 55  0  0  0  0  0  0  0  0999 V2000
   46.8275    4.2394    6.9016 O   0  0  0  0  0  0  0  0  0  0  0  0
   47.0235    2.9929    6.2186 C   0  0  0  0  0  0  0  0  0  0  0  0
   46.4279    1.8545    6.8556 O   0  0  0  0  0  0  0  0  0  0  0  0
   45.8676    2.4567    7.9372 C   0  0  0  0  0  0  0  0  0  0  0  0
   46.0939    3.8124    7.9639 C   0  0  0  0  0  0  0  0  0  0  0  0
   46.5125    3.1033    4.9675 F   0  0  0  0  0  0  0  0  0  0  0  0
   48.3558    2.7723    6.0980 F   0  0  0  0  0  0  0  0  0  0  0  0
   45.6114    4.6129    8.9800 C   0  0  0  0  0  0  0  0  0  0  0  0
   45.1482    1.8281    8.9263 C   0  0  0  0  0  0  0  0  0  0  0  0
   44.6486    2.6203    9.9660 C   0  0  0  0  0  0  0  0  0  0  0  0
   44.8611    4.0228   10.0154 C   0  0  0  0  0  0  0  0  0  0  0  0
   44.3100    4.8484   11.1762 C   0  0  0  0  0  0  0  0  0  0  0  0
   42.7895    4.9141   11.3204 C   0  0  0  0  0  0  0  0  0  0  0  0
   43.5340    6.1283   10.8678 C   0  0  0  0  0  0  0  0  0  0  0  0
   45.1173    4.7976   12.4548 C   0  0  0  0  0  0  0  0  0  0  0  0
   44.8361    3.9699   13.3103 O   0  0  0  0  0  0  0  0  0  0  0  0
   46.1197    5.7305   12.4908 N   0  0  0  0  0  0  0  0  0  0  0  0
   47.0566    5.9559   13.4957 C   0  0  0  0  0  0  0  0  0  0  0  0
   47.9114    6.9580   13.2082 N   0  0  0  0  0  0  0  0  0  0  0  0
   47.1247    5.2348   14.6740 C   0  0  0  0  0  0  0  0  0  0  0  0
   48.1124    5.5615   15.5999 C   0  0  0  0  0  0  0  0  0  0  0  0
   49.0089    6.6007   15.3348 C   0  0  0  0  0  0  0  0  0  0  0  0
   48.8828    7.2640   14.1087 C   0  0  0  0  0  0  0  0  0  0  0  0
   50.0644    6.9441   16.3443 C   0  0  0  0  0  0  0  0  0  0  0  0
   49.7709    8.3524   13.6729 C   0  0  0  0  0  0  0  0  0  0  0  0
   50.0840   10.6843   13.0250 C   0  0  0  0  0  0  0  0  0  0  0  0
   49.2565    9.6402   13.4436 C   0  0  0  0  0  0  0  0  0  0  0  0
   51.1410    8.1330   13.4490 C   0  0  0  0  0  0  0  0  0  0  0  0
   51.9768    9.1774   13.0295 C   0  0  0  0  0  0  0  0  0  0  0  0
   51.4432   10.4540   12.8208 C   0  0  0  0  0  0  0  0  0  0  0  0
   53.4261    8.9757   12.7907 C   0  0  0  0  0  0  0  0  0  0  0  0
   53.8305    7.7216   13.0597 O   0  0  0  0  0  0  0  0  0  0  0  0
   54.2095    9.8216   12.4012 O   0  0  0  0  0  0  0  0  0  0  0  0
   45.8119    5.6797    8.9714 H   0  0  0  0  0  0  0  0  0  0  0  0
   44.9768    0.7573    8.9059 H   0  0  0  0  0  0  0  0  0  0  0  0
   44.0845    2.1426   10.7678 H   0  0  0  0  0  0  0  0  0  0  0  0
   42.3736    4.9107   12.3228 H   0  0  0  0  0  0  0  0  0  0  0  0
   42.1728    4.3962   10.5943 H   0  0  0  0  0  0  0  0  0  0  0  0
   43.6005    6.9593   11.5620 H   0  0  0  0  0  0  0  0  0  0  0  0
   43.4049    6.4347    9.8358 H   0  0  0  0  0  0  0  0  0  0  0  0
   46.2437    6.3468   11.7006 H   0  0  0  0  0  0  0  0  0  0  0  0
   46.4387    4.4274   14.9002 H   0  0  0  0  0  0  0  0  0  0  0  0
   48.1713    5.0002   16.5297 H   0  0  0  0  0  0  0  0  0  0  0  0
   49.8134    6.5392   17.3309 H   0  0  0  0  0  0  0  0  0  0  0  0
   50.1570    8.0284   16.4635 H   0  0  0  0  0  0  0  0  0  0  0  0
   51.0292    6.5252   16.0429 H   0  0  0  0  0  0  0  0  0  0  0  0
   49.6669   11.6738   12.8543 H   0  0  0  0  0  0  0  0  0  0  0  0
   48.1941    9.8293   13.5909 H   0  0  0  0  0  0  0  0  0  0  0  0
   51.5509    7.1349   13.5913 H   0  0  0  0  0  0  0  0  0  0  0  0
   52.0836   11.2704   12.4921 H   0  0  0  0  0  0  0  0  0  0  0  0
   54.7886    7.7353   12.8530 H   0  0  0  0  0  0  0  0  0  0  0  0
  1  2  1  0
  1  5  1  0
  2  3  1  0
  3  4  1  0
  2  6  1  0
  2  7  1  0
  8  5  1  0
  5  4  2  0
  4  9  1  0
  8 11  2  0
  9 10  2  0
 10 11  1  0
 11 12  1  0
 12 13  1  0
 13 14  1  0
 14 12  1  0
 12 15  1  0
 15 16  2  0
 15 17  1  0
 17 18  1  0
 19 18  2  0
 18 20  1  0
 19 23  1  0
 20 21  2  0
 21 22  1  0
 22 23  2  0
 22 24  1  0
 23 25  1  0
 27 25  1  0
 25 28  2  0
 26 27  2  0
 26 30  1  0
 28 29  1  0
 29 30  2  0
 29 31  1  0
 31 32  1  0
 31 33  2  0
  8 34  1  0
  9 35  1  0
 10 36  1  0
 13 37  1  0
 13 38  1  0
 14 39  1  0
 14 40  1  0
 17 41  1  0
 20 42  1  0
 21 43  1  0
 24 44  1  0
 24 45  1  0
 24 46  1  0
 26 47  1  0
 27 48  1  0
 28 49  1  0
 30 50  1  0
 32 51  1  0
M  END
> <Uni-Dock RESULT> 
ENERGY=   -7.011  LOWER_BOUND=    0.000  UPPER_BOUND=    0.000
INTER + INTRA:          -7.011
INTER:                  -7.011
INTRA:                   0.000
UNBOUND:                 0.000

$$$$

     RDKit          3D

 51 55  0  0  0  0  0  0  0  0999 V2000
   53.6186    6.2886   16.7352 O   0  0  0  0  0  0  0  0  0  0  0  0
   54.9251    5.7094   16.8614 C   0  0  0  0  0  0  0  0  0  0  0  0
   54.9478    4.3808   17.4007 O   0  0  0  0  0  0  0  0  0  0  0  0
   53.6171    4.1812   17.5900 C   0  0  0  0  0  0  0  0  0  0  0  0
   52.8607    5.2650   17.2116 C   0  0  0  0  0  0  0  0  0  0  0  0
   55.5059    5.6875   15.6363 F   0  0  0  0  0  0  0  0  0  0  0  0
   55.6769    6.5107   17.6559 F   0  0  0  0  0  0  0  0  0  0  0  0
   51.4847    5.2694   17.3236 C   0  0  0  0  0  0  0  0  0  0  0  0
   53.0382    3.0440   18.1026 C   0  0  0  0  0  0  0  0  0  0  0  0
   51.6443    3.0259   18.2242 C   0  0  0  0  0  0  0  0  0  0  0  0
   50.8383    4.1277   17.8352 C   0  0  0  0  0  0  0  0  0  0  0  0
   49.3207    4.0716   17.9980 C   0  0  0  0  0  0  0  0  0  0  0  0
   48.5720    3.0280   17.1689 C   0  0  0  0  0  0  0  0  0  0  0  0
   48.4371    4.4743   16.8179 C   0  0  0  0  0  0  0  0  0  0  0  0
   48.8037    4.3352   19.3952 C   0  0  0  0  0  0  0  0  0  0  0  0
   48.6135    3.3941   20.1529 O   0  0  0  0  0  0  0  0  0  0  0  0
   48.6109    5.6671   19.6508 N   0  0  0  0  0  0  0  0  0  0  0  0
   48.1637    6.2673   20.8248 C   0  0  0  0  0  0  0  0  0  0  0  0
   48.0900    7.6106   20.7385 N   0  0  0  0  0  0  0  0  0  0  0  0
   47.8283    5.5760   21.9749 C   0  0  0  0  0  0  0  0  0  0  0  0
   47.3933    6.2975   23.0839 C   0  0  0  0  0  0  0  0  0  0  0  0
   47.2985    7.6908   23.0236 C   0  0  0  0  0  0  0  0  0  0  0  0
   47.6786    8.3118   21.8282 C   0  0  0  0  0  0  0  0  0  0  0  0
   46.8236    8.4537   24.2250 C   0  0  0  0  0  0  0  0  0  0  0  0
   47.6666    9.7683   21.6237 C   0  0  0  0  0  0  0  0  0  0  0  0
   46.8083   11.7226   20.4406 C   0  0  0  0  0  0  0  0  0  0  0  0
   46.8292   10.3423   20.6517 C   0  0  0  0  0  0  0  0  0  0  0  0
   48.5032   10.6179   22.3677 C   0  0  0  0  0  0  0  0  0  0  0  0
   48.4861   12.0044   22.1608 C   0  0  0  0  0  0  0  0  0  0  0  0
   47.6338   12.5531   21.1962 C   0  0  0  0  0  0  0  0  0  0  0  0
   49.3539   12.9245   22.9346 C   0  0  0  0  0  0  0  0  0  0  0  0
   50.0994   12.2889   23.8557 O   0  0  0  0  0  0  0  0  0  0  0  0
   49.4166   14.1319   22.7954 O   0  0  0  0  0  0  0  0  0  0  0  0
   50.9188    6.1439   17.0183 H   0  0  0  0  0  0  0  0  0  0  0  0
   53.6380    2.1930   18.4064 H   0  0  0  0  0  0  0  0  0  0  0  0
   51.1632    2.1394   18.6386 H   0  0  0  0  0  0  0  0  0  0  0  0
   47.7236    2.5291   17.6262 H   0  0  0  0  0  0  0  0  0  0  0  0
   49.1364    2.3924   16.4958 H   0  0  0  0  0  0  0  0  0  0  0  0
   47.4822    4.9485   17.0186 H   0  0  0  0  0  0  0  0  0  0  0  0
   48.9018    4.8080   15.8968 H   0  0  0  0  0  0  0  0  0  0  0  0
   48.8228    6.3401   18.9284 H   0  0  0  0  0  0  0  0  0  0  0  0
   47.8925    4.4967   22.0422 H   0  0  0  0  0  0  0  0  0  0  0  0
   47.1261    5.7610   23.9915 H   0  0  0  0  0  0  0  0  0  0  0  0
   46.2976    7.7970   24.9268 H   0  0  0  0  0  0  0  0  0  0  0  0
   46.1165    9.2388   23.9384 H   0  0  0  0  0  0  0  0  0  0  0  0
   47.6724    8.9000   24.7518 H   0  0  0  0  0  0  0  0  0  0  0  0
   46.1524   12.1473   19.6846 H   0  0  0  0  0  0  0  0  0  0  0  0
   46.1869    9.7018   20.0489 H   0  0  0  0  0  0  0  0  0  0  0  0
   49.1810   10.1882   23.1028 H   0  0  0  0  0  0  0  0  0  0  0  0
   47.6158   13.6281   21.0263 H   0  0  0  0  0  0  0  0  0  0  0  0
   50.6165   13.0082   24.2752 H   0  0  0  0  0  0  0  0  0  0  0  0
  1  2  1  0
  1  5  1  0
  2  3  1  0
  3  4  1  0
  2  6  1  0
  2  7  1  0
  8  5  1  0
  5  4  2  0
  4  9  1  0
  8 11  2  0
  9 10  2  0
 10 11  1  0
 11 12  1  0
 12 13  1  0
 13 14  1  0
 14 12  1  0
 12 15  1  0
 15 16  2  0
 15 17  1  0
 17 18  1  0
 19 18  2  0
 18 20  1  0
 19 23  1  0
 20 21  2  0
 21 22  1  0
 22 23  2  0
 22 24  1  0
 23 25  1  0
 27 25  1  0
 25 28  2  0
 26 27  2  0
 26 30  1  0
 28 29  1  0
 29 30  2  0
 29 31  1  0
 31 32  1  0
 31 33  2  0
  8 34  1  0
  9 35  1  0
 10 36  1  0
 13 37  1  0
 13 38  1  0
 14 39  1  0
 14 40  1  0
 17 41  1  0
 20 42  1  0
 21 43  1  0
 24 44  1  0
 24 45  1  0
 24 46  1  0
 26 47  1  0
 27 48  1  0
 28 49  1  0
 30 50  1  0
 32 51  1  0
M  END
> <Uni-Dock RESULT> 
ENERGY=   -5.813  LOWER_BOUND=    7.679  UPPER_BOUND=   10.158
INTER + INTRA:          -5.813
INTER:                  -5.813
INTRA:                   0.000
UNBOUND:                 0.000

$$$$

     RDKit          3D

 51 55  0  0  0  0  0  0  0  0999 V2000
   48.3112    8.7195   21.0023 O   0  0  0  0  0  0  0  0  0  0  0  0
   47.5405    8.6482   22.2103 C   0  0  0  0  0  0  0  0  0  0  0  0
   47.1756    7.3223   22.6169 O   0  0  0  0  0  0  0  0  0  0  0  0
   47.7531    6.6030   21.6192 C   0  0  0  0  0  0  0  0  0  0  0  0
   48.3992    7.3964   20.7011 C   0  0  0  0  0  0  0  0  0  0  0  0
   48.2529    9.2250   23.2095 F   0  0  0  0  0  0  0  0  0  0  0  0
   46.4084    9.3754   22.0429 F   0  0  0  0  0  0  0  0  0  0  0  0
   49.0509    6.8638   19.6068 C   0  0  0  0  0  0  0  0  0  0  0  0
   47.7222    5.2342   21.4914 C   0  0  0  0  0  0  0  0  0  0  0  0
   48.3772    4.6722   20.3898 C   0  0  0  0  0  0  0  0  0  0  0  0
   49.0578    5.4666   19.4304 C   0  0  0  0  0  0  0  0  0  0  0  0
   49.7482    4.8134   18.2348 C   0  0  0  0  0  0  0  0  0  0  0  0
   50.9256    3.8857   18.5352 C   0  0  0  0  0  0  0  0  0  0  0  0
   51.1850    5.2148   17.9032 C   0  0  0  0  0  0  0  0  0  0  0  0
   48.8392    4.4178   17.0919 C   0  0  0  0  0  0  0  0  0  0  0  0
   48.3780    3.2855   17.0555 O   0  0  0  0  0  0  0  0  0  0  0  0
   48.6308    5.4351   16.1986 N   0  0  0  0  0  0  0  0  0  0  0  0
   47.8457    5.4300   15.0488 C   0  0  0  0  0  0  0  0  0  0  0  0
   47.8581    6.6081   14.3934 N   0  0  0  0  0  0  0  0  0  0  0  0
   47.1161    4.3409   14.6078 C   0  0  0  0  0  0  0  0  0  0  0  0
   46.3699    4.4670   13.4387 C   0  0  0  0  0  0  0  0  0  0  0  0
   46.3682    5.6730   12.7320 C   0  0  0  0  0  0  0  0  0  0  0  0
   47.1168    6.7311   13.2605 C   0  0  0  0  0  0  0  0  0  0  0  0
   45.5632    5.7919   11.4715 C   0  0  0  0  0  0  0  0  0  0  0  0
   47.1862    8.0679   12.6511 C   0  0  0  0  0  0  0  0  0  0  0  0
   48.4964    9.8399   11.6029 C   0  0  0  0  0  0  0  0  0  0  0  0
   48.4110    8.5711   12.1798 C   0  0  0  0  0  0  0  0  0  0  0  0
   46.0468    8.8843   12.5477 C   0  0  0  0  0  0  0  0  0  0  0  0
   46.1262   10.1587   11.9687 C   0  0  0  0  0  0  0  0  0  0  0  0
   47.3548   10.6319   11.4948 C   0  0  0  0  0  0  0  0  0  0  0  0
   44.9398   11.0389   11.8420 C   0  0  0  0  0  0  0  0  0  0  0  0
   43.8119   10.4642   12.2958 O   0  0  0  0  0  0  0  0  0  0  0  0
   44.9325   12.1640   11.3783 O   0  0  0  0  0  0  0  0  0  0  0  0
   49.5482    7.5201   18.8995 H   0  0  0  0  0  0  0  0  0  0  0  0
   47.2061    4.6112   22.2138 H   0  0  0  0  0  0  0  0  0  0  0  0
   48.3570    3.5896   20.2610 H   0  0  0  0  0  0  0  0  0  0  0  0
   51.0397    2.9956   17.9248 H   0  0  0  0  0  0  0  0  0  0  0  0
   51.2304    3.7453   19.5662 H   0  0  0  0  0  0  0  0  0  0  0  0
   51.4993    5.2196   16.8648 H   0  0  0  0  0  0  0  0  0  0  0  0
   51.6794    5.9657   18.5093 H   0  0  0  0  0  0  0  0  0  0  0  0
   49.0706    6.3291   16.3631 H   0  0  0  0  0  0  0  0  0  0  0  0
   47.1052    3.3968   15.1390 H   0  0  0  0  0  0  0  0  0  0  0  0
   45.7948    3.6145   13.0845 H   0  0  0  0  0  0  0  0  0  0  0  0
   45.3096    4.8043   11.0707 H   0  0  0  0  0  0  0  0  0  0  0  0
   46.1280    6.3126   10.6915 H   0  0  0  0  0  0  0  0  0  0  0  0
   44.6290    6.3272   11.6663 H   0  0  0  0  0  0  0  0  0  0  0  0
   49.4532   10.2105   11.2431 H   0  0  0  0  0  0  0  0  0  0  0  0
   49.3113    7.9646   12.2678 H   0  0  0  0  0  0  0  0  0  0  0  0
   45.0960    8.5239   12.9356 H   0  0  0  0  0  0  0  0  0  0  0  0
   47.4269   11.6212   11.0466 H   0  0  0  0  0  0  0  0  0  0  0  0
   43.1269   11.1517   12.1576 H   0  0  0  0  0  0  0  0  0  0  0  0
  1  2  1  0
  1  5  1  0
  2  3  1  0
  3  4  1  0
  2  6  1  0
  2  7  1  0
  8  5  1  0
  5  4  2  0
  4  9  1  0
  8 11  2  0
  9 10  2  0
 10 11  1  0
 11 12  1  0
 12 13  1  0
 13 14  1  0
 14 12  1  0
 12 15  1  0
 15 16  2  0
 15 17  1  0
 17 18  1  0
 19 18  2  0
 18 20  1  0
 19 23  1  0
 20 21  2  0
 21 22  1  0
 22 23  2  0
 22 24  1  0
 23 25  1  0
 27 25  1  0
 25 28  2  0
 26 27  2  0
 26 30  1  0
 28 29  1  0
 29 30  2  0
 29 31  1  0
 31 32  1  0
 31 33  2  0
  8 34  1  0
  9 35  1  0
 10 36  1  0
 13 37  1  0
 13 38  1  0
 14 39  1  0
 14 40  1  0
 17 41  1  0
 20 42  1  0
 21 43  1  0
 24 44  1  0
 24 45  1  0
 24 46  1  0
 26 47  1  0
 27 48  1  0
 28 49  1  0
 30 50  1  0
 32 51  1  0
M  END
> <Uni-Dock RESULT> 
ENERGY=   -5.609  LOWER_BOUND=    6.226  UPPER_BOUND=    9.906
INTER + INTRA:          -5.609
INTER:                  -5.609
INTRA:                   0.000
UNBOUND:                 0.000

$$$$

     RDKit          3D

 51 55  0  0  0  0  0  0  0  0999 V2000
   46.5266    8.9195   21.7297 O   0  0  0  0  0  0  0  0  0  0  0  0
   47.1580    8.4926   22.9452 C   0  0  0  0  0  0  0  0  0  0  0  0
   48.4456    9.0730   23.1936 O   0  0  0  0  0  0  0  0  0  0  0  0
   48.5643    9.8615   22.0933 C   0  0  0  0  0  0  0  0  0  0  0  0
   47.4737    9.7752   21.2608 C   0  0  0  0  0  0  0  0  0  0  0  0
   46.3407    8.7960   23.9837 F   0  0  0  0  0  0  0  0  0  0  0  0
   47.2918    7.1437   22.9108 F   0  0  0  0  0  0  0  0  0  0  0  0
   47.3938   10.4956   20.0858 C   0  0  0  0  0  0  0  0  0  0  0  0
   49.6346   10.6715   21.7947 C   0  0  0  0  0  0  0  0  0  0  0  0
   49.5748   11.4119   20.6087 C   0  0  0  0  0  0  0  0  0  0  0  0
   48.4587   11.3473   19.7341 C   0  0  0  0  0  0  0  0  0  0  0  0
   48.4401   12.1617   18.4421 C   0  0  0  0  0  0  0  0  0  0  0  0
   48.4435   13.6840   18.5814 C   0  0  0  0  0  0  0  0  0  0  0  0
   47.2023   12.9956   18.1138 C   0  0  0  0  0  0  0  0  0  0  0  0
   49.2295   11.5778   17.2909 C   0  0  0  0  0  0  0  0  0  0  0  0
   50.3934   11.9163   17.1279 O   0  0  0  0  0  0  0  0  0  0  0  0
   48.5033   10.6906   16.5412 N   0  0  0  0  0  0  0  0  0  0  0  0
   48.9116    9.9607   15.4281 C   0  0  0  0  0  0  0  0  0  0  0  0
   47.9407    9.1711   14.9269 N   0  0  0  0  0  0  0  0  0  0  0  0
   50.1796   10.0206   14.8789 C   0  0  0  0  0  0  0  0  0  0  0  0
   50.4605    9.2375   13.7619 C   0  0  0  0  0  0  0  0  0  0  0  0
   49.4727    8.4143   13.2138 C   0  0  0  0  0  0  0  0  0  0  0  0
   48.2236    8.3976   13.8453 C   0  0  0  0  0  0  0  0  0  0  0  0
   49.7890    7.5802   12.0075 C   0  0  0  0  0  0  0  0  0  0  0  0
   47.0974    7.5589   13.4077 C   0  0  0  0  0  0  0  0  0  0  0  0
   44.8219    7.3694   12.5465 C   0  0  0  0  0  0  0  0  0  0  0  0
   45.9030    8.1501   12.9612 C   0  0  0  0  0  0  0  0  0  0  0  0
   47.1716    6.1560   13.4482 C   0  0  0  0  0  0  0  0  0  0  0  0
   46.0898    5.3670   13.0325 C   0  0  0  0  0  0  0  0  0  0  0  0
   44.9160    5.9794   12.5795 C   0  0  0  0  0  0  0  0  0  0  0  0
   46.1423    3.8855   13.0597 C   0  0  0  0  0  0  0  0  0  0  0  0
   47.3300    3.4122   13.4765 O   0  0  0  0  0  0  0  0  0  0  0  0
   45.2394    3.1338   12.7425 O   0  0  0  0  0  0  0  0  0  0  0  0
   46.5190   10.4007   19.4502 H   0  0  0  0  0  0  0  0  0  0  0  0
   50.4966   10.7327   22.4502 H   0  0  0  0  0  0  0  0  0  0  0  0
   50.4166   12.0528   20.3449 H   0  0  0  0  0  0  0  0  0  0  0  0
   49.0149   14.2590   17.8598 H   0  0  0  0  0  0  0  0  0  0  0  0
   48.4401   14.1179   19.5751 H   0  0  0  0  0  0  0  0  0  0  0  0
   46.9218   13.1266   17.0740 H   0  0  0  0  0  0  0  0  0  0  0  0
   46.3567   12.9798   18.7922 H   0  0  0  0  0  0  0  0  0  0  0  0
   47.5472   10.4968   16.8019 H   0  0  0  0  0  0  0  0  0  0  0  0
   50.9588   10.6533   15.2865 H   0  0  0  0  0  0  0  0  0  0  0  0
   51.4547    9.2804   13.3232 H   0  0  0  0  0  0  0  0  0  0  0  0
   50.6827    7.9518   11.4942 H   0  0  0  0  0  0  0  0  0  0  0  0
   48.9714    7.6141   11.2802 H   0  0  0  0  0  0  0  0  0  0  0  0
   49.9751    6.5427   12.3009 H   0  0  0  0  0  0  0  0  0  0  0  0
   43.9069    7.8460   12.2033 H   0  0  0  0  0  0  0  0  0  0  0  0
   45.8149    9.2354   12.9402 H   0  0  0  0  0  0  0  0  0  0  0  0
   48.0771    5.6808   13.8205 H   0  0  0  0  0  0  0  0  0  0  0  0
   44.0698    5.3752   12.2577 H   0  0  0  0  0  0  0  0  0  0  0  0
   47.2163    2.4390   13.4504 H   0  0  0  0  0  0  0  0  0  0  0  0
  1  2  1  0
  1  5  1  0
  2  3  1  0
  3  4  1  0
  2  6  1  0
  2  7  1  0
  8  5  1  0
  5  4  2  0
  4  9  1  0
  8 11  2  0
  9 10  2  0
 10 11  1  0
 11 12  1  0
 12 13  1  0
 13 14  1  0
 14 12  1  0
 12 15  1  0
 15 16  2  0
 15 17  1  0
 17 18  1  0
 19 18  2  0
 18 20  1  0
 19 23  1  0
 20 21  2  0
 21 22  1  0
 22 23  2  0
 22 24  1  0
 23 25  1  0
 27 25  1  0
 25 28  2  0
 26 27  2  0
 26 30  1  0
 28 29  1  0
 29 30  2  0
 29 31  1  0
 31 32  1  0
 31 33  2  0
  8 34  1  0
  9 35  1  0
 10 36  1  0
 13 37  1  0
 13 38  1  0
 14 39  1  0
 14 40  1  0
 17 41  1  0
 20 42  1  0
 21 43  1  0
 24 44  1  0
 24 45  1  0
 24 46  1  0
 26 47  1  0
 27 48  1  0
 28 49  1  0
 30 50  1  0
 32 51  1  0
M  END
> <Uni-Dock RESULT> 
ENERGY=   -5.370  LOWER_BOUND=    6.579  UPPER_BOUND=   11.094
INTER + INTRA:          -5.370
INTER:                  -5.370
INTRA:                   0.000
UNBOUND:                 0.000

$$$$

     RDKit          3D

 51 55  0  0  0  0  0  0  0  0999 V2000
   45.0521    4.0321   13.3977 O   0  0  0  0  0  0  0  0  0  0  0  0
   43.7130    3.9821   12.8852 C   0  0  0  0  0  0  0  0  0  0  0  0
   43.2721    5.1783   12.2286 O   0  0  0  0  0  0  0  0  0  0  0  0
   44.3873    5.9435   12.3603 C   0  0  0  0  0  0  0  0  0  0  0  0
   45.3998    5.2926   13.0244 C   0  0  0  0  0  0  0  0  0  0  0  0
   43.6265    2.9518   12.0080 F   0  0  0  0  0  0  0  0  0  0  0  0
   42.8681    3.7168   13.9120 F   0  0  0  0  0  0  0  0  0  0  0  0
   46.6189    5.8938   13.2655 C   0  0  0  0  0  0  0  0  0  0  0  0
   44.5387    7.2316   11.9032 C   0  0  0  0  0  0  0  0  0  0  0  0
   45.7670    7.8605   12.1357 C   0  0  0  0  0  0  0  0  0  0  0  0
   46.8318    7.2101   12.8124 C   0  0  0  0  0  0  0  0  0  0  0  0
   48.1519    7.9382   13.0578 C   0  0  0  0  0  0  0  0  0  0  0  0
   48.9659    8.3330   11.8256 C   0  0  0  0  0  0  0  0  0  0  0  0
   49.4603    7.2314   12.7060 C   0  0  0  0  0  0  0  0  0  0  0  0
   48.1574    8.9060   14.2208 C   0  0  0  0  0  0  0  0  0  0  0  0
   47.8962   10.0844   14.0229 O   0  0  0  0  0  0  0  0  0  0  0  0
   48.4634    8.3057   15.4135 N   0  0  0  0  0  0  0  0  0  0  0  0
   48.5433    8.8834   16.6778 C   0  0  0  0  0  0  0  0  0  0  0  0
   48.8674    8.0009   17.6441 N   0  0  0  0  0  0  0  0  0  0  0  0
   48.3131   10.2219   16.9392 C   0  0  0  0  0  0  0  0  0  0  0  0
   48.4258   10.6743   18.2515 C   0  0  0  0  0  0  0  0  0  0  0  0
   48.7682    9.7857   19.2748 C   0  0  0  0  0  0  0  0  0  0  0  0
   48.9623    8.4442   18.9258 C   0  0  0  0  0  0  0  0  0  0  0  0
   48.8906   10.2890   20.6829 C   0  0  0  0  0  0  0  0  0  0  0  0
   49.2922    7.3870   19.8937 C   0  0  0  0  0  0  0  0  0  0  0  0
   50.8386    5.6834   20.7071 C   0  0  0  0  0  0  0  0  0  0  0  0
   50.5109    6.6931   19.7999 C   0  0  0  0  0  0  0  0  0  0  0  0
   48.3963    7.0245   20.9141 C   0  0  0  0  0  0  0  0  0  0  0  0
   48.7201    6.0121   21.8284 C   0  0  0  0  0  0  0  0  0  0  0  0
   49.9455    5.3451   21.7220 C   0  0  0  0  0  0  0  0  0  0  0  0
   47.7965    5.6129   22.9174 C   0  0  0  0  0  0  0  0  0  0  0  0
   46.6702    6.3472   22.9430 O   0  0  0  0  0  0  0  0  0  0  0  0
   47.9924    4.7290   23.7306 O   0  0  0  0  0  0  0  0  0  0  0  0
   47.3953    5.3516   13.7961 H   0  0  0  0  0  0  0  0  0  0  0  0
   43.7359    7.7449   11.3853 H   0  0  0  0  0  0  0  0  0  0  0  0
   45.9070    8.8860   11.7924 H   0  0  0  0  0  0  0  0  0  0  0  0
   49.4914    9.2824   11.8465 H   0  0  0  0  0  0  0  0  0  0  0  0
   48.5894    8.0685   10.8437 H   0  0  0  0  0  0  0  0  0  0  0  0
   50.3403    7.4320   13.3081 H   0  0  0  0  0  0  0  0  0  0  0  0
   49.4283    6.2237   12.3072 H   0  0  0  0  0  0  0  0  0  0  0  0
   48.6469    7.3129   15.4292 H   0  0  0  0  0  0  0  0  0  0  0  0
   48.0488   10.9276   16.1609 H   0  0  0  0  0  0  0  0  0  0  0  0
   48.2481   11.7258   18.4650 H   0  0  0  0  0  0  0  0  0  0  0  0
   49.0049   11.3784   20.7039 H   0  0  0  0  0  0  0  0  0  0  0  0
   49.7744    9.8703   21.1751 H   0  0  0  0  0  0  0  0  0  0  0  0
   47.9955   10.0324   21.2574 H   0  0  0  0  0  0  0  0  0  0  0  0
   51.7870    5.1593   20.6183 H   0  0  0  0  0  0  0  0  0  0  0  0
   51.2123    6.9427   19.0050 H   0  0  0  0  0  0  0  0  0  0  0  0
   47.4347    7.5294   20.9831 H   0  0  0  0  0  0  0  0  0  0  0  0
   50.2044    4.5556   22.4252 H   0  0  0  0  0  0  0  0  0  0  0  0
   46.1638    5.9728   23.6941 H   0  0  0  0  0  0  0  0  0  0  0  0
  1  2  1  0
  1  5  1  0
  2  3  1  0
  3  4  1  0
  2  6  1  0
  2  7  1  0
  8  5  1  0
  5  4  2  0
  4  9  1  0
  8 11  2  0
  9 10  2  0
 10 11  1  0
 11 12  1  0
 12 13  1  0
 13 14  1  0
 14 12  1  0
 12 15  1  0
 15 16  2  0
 15 17  1  0
 17 18  1  0
 19 18  2  0
 18 20  1  0
 19 23  1  0
 20 21  2  0
 21 22  1  0
 22 23  2  0
 22 24  1  0
 23 25  1  0
 27 25  1  0
 25 28  2  0
 26 27  2  0
 26 30  1  0
 28 29  1  0
 29 30  2  0
 29 31  1  0
 31 32  1  0
 31 33  2  0
  8 34  1  0
  9 35  1  0
 10 36  1  0
 13 37  1  0
 13 38  1  0
 14 39  1  0
 14 40  1  0
 17 41  1  0
 20 42  1  0
 21 43  1  0
 24 44  1  0
 24 45  1  0
 24 46  1  0
 26 47  1  0
 27 48  1  0
 28 49  1  0
 30 50  1  0
 32 51  1  0
M  END
> <Uni-Dock RESULT> 
ENERGY=   -5.206  LOWER_BOUND=    4.797  UPPER_BOUND=    7.420
INTER + INTRA:          -5.206
INTER:                  -5.206
INTRA:                   0.000
UNBOUND:                 0.000

$$$$

     RDKit          3D

 51 55  0  0  0  0  0  0  0  0999 V2000
   54.1805    5.2397    9.0815 O   0  0  0  0  0  0  0  0  0  0  0  0
   54.8550    5.4818    7.8386 C   0  0  0  0  0  0  0  0  0  0  0  0
   55.2111    6.8505    7.6009 O   0  0  0  0  0  0  0  0  0  0  0  0
   54.7329    7.4189    8.7387 C   0  0  0  0  0  0  0  0  0  0  0  0
   54.1473    6.5039    9.5811 C   0  0  0  0  0  0  0  0  0  0  0  0
   55.9839    4.7312    7.8088 F   0  0  0  0  0  0  0  0  0  0  0  0
   54.0574    5.0610    6.8261 F   0  0  0  0  0  0  0  0  0  0  0  0
   53.5963    6.8747   10.7915 C   0  0  0  0  0  0  0  0  0  0  0  0
   54.7974    8.7543    9.0604 C   0  0  0  0  0  0  0  0  0  0  0  0
   54.2459    9.1527   10.2832 C   0  0  0  0  0  0  0  0  0  0  0  0
   53.6413    8.2289   11.1752 C   0  0  0  0  0  0  0  0  0  0  0  0
   53.0386    8.7082   12.4943 C   0  0  0  0  0  0  0  0  0  0  0  0
   54.0007    9.3100   13.5186 C   0  0  0  0  0  0  0  0  0  0  0  0
   53.3985    7.9678   13.7817 C   0  0  0  0  0  0  0  0  0  0  0  0
   51.6648    9.3345   12.3950 C   0  0  0  0  0  0  0  0  0  0  0  0
   51.5652   10.5462   12.2614 O   0  0  0  0  0  0  0  0  0  0  0  0
   50.6524    8.4143   12.4636 N   0  0  0  0  0  0  0  0  0  0  0  0
   49.2790    8.6316   12.3910 C   0  0  0  0  0  0  0  0  0  0  0  0
   48.5571    7.4973   12.4904 N   0  0  0  0  0  0  0  0  0  0  0  0
   48.6939    9.8743   12.2291 C   0  0  0  0  0  0  0  0  0  0  0  0
   47.3047    9.9551   12.1717 C   0  0  0  0  0  0  0  0  0  0  0  0
   46.5278    8.7981   12.2797 C   0  0  0  0  0  0  0  0  0  0  0  0
   47.2020    7.5795   12.4194 C   0  0  0  0  0  0  0  0  0  0  0  0
   45.0322    8.9019   12.2208 C   0  0  0  0  0  0  0  0  0  0  0  0
   46.5255    6.2766   12.5105 C   0  0  0  0  0  0  0  0  0  0  0  0
   46.0162    4.2509   13.7725 C   0  0  0  0  0  0  0  0  0  0  0  0
   46.6475    5.4923   13.6704 C   0  0  0  0  0  0  0  0  0  0  0  0
   45.7670    5.7703   11.4410 C   0  0  0  0  0  0  0  0  0  0  0  0
   45.1303    4.5250   11.5379 C   0  0  0  0  0  0  0  0  0  0  0  0
   45.2561    3.7689   12.7086 C   0  0  0  0  0  0  0  0  0  0  0  0
   44.3200    3.9689   10.4277 C   0  0  0  0  0  0  0  0  0  0  0  0
   44.2401    4.7987    9.3725 O   0  0  0  0  0  0  0  0  0  0  0  0
   43.7609    2.8880   10.4245 O   0  0  0  0  0  0  0  0  0  0  0  0
   53.1386    6.1262   11.4307 H   0  0  0  0  0  0  0  0  0  0  0  0
   55.2543    9.4749    8.3908 H   0  0  0  0  0  0  0  0  0  0  0  0
   54.2750   10.2083   10.5552 H   0  0  0  0  0  0  0  0  0  0  0  0
   53.6537   10.1530   14.1075 H   0  0  0  0  0  0  0  0  0  0  0  0
   55.0574    9.3547   13.2797 H   0  0  0  0  0  0  0  0  0  0  0  0
   52.6565    7.9009   14.5704 H   0  0  0  0  0  0  0  0  0  0  0  0
   54.0581    7.1086   13.7329 H   0  0  0  0  0  0  0  0  0  0  0  0
   50.8849    7.4368   12.5636 H   0  0  0  0  0  0  0  0  0  0  0  0
   49.2771   10.7834   12.1456 H   0  0  0  0  0  0  0  0  0  0  0  0
   46.8369   10.9290   12.0463 H   0  0  0  0  0  0  0  0  0  0  0  0
   44.6999    9.9275   12.4159 H   0  0  0  0  0  0  0  0  0  0  0  0
   44.5636    8.2692   12.9815 H   0  0  0  0  0  0  0  0  0  0  0  0
   44.6698    8.6123   11.2299 H   0  0  0  0  0  0  0  0  0  0  0  0
   46.1219    3.6599   14.6790 H   0  0  0  0  0  0  0  0  0  0  0  0
   47.2468    5.8549   14.5044 H   0  0  0  0  0  0  0  0  0  0  0  0
   45.6871    6.3496   10.5231 H   0  0  0  0  0  0  0  0  0  0  0  0
   44.7680    2.7996   12.7919 H   0  0  0  0  0  0  0  0  0  0  0  0
   43.6914    4.3049    8.7275 H   0  0  0  0  0  0  0  0  0  0  0  0
  1  2  1  0
  1  5  1  0
  2  3  1  0
  3  4  1  0
  2  6  1  0
  2  7  1  0
  8  5  1  0
  5  4  2  0
  4  9  1  0
  8 11  2  0
  9 10  2  0
 10 11  1  0
 11 12  1  0
 12 13  1  0
 13 14  1  0
 14 12  1  0
 12 15  1  0
 15 16  2  0
 15 17  1  0
 17 18  1  0
 19 18  2  0
 18 20  1  0
 19 23  1  0
 20 21  2  0
 21 22  1  0
 22 23  2  0
 22 24  1  0
 23 25  1  0
 27 25  1  0
 25 28  2  0
 26 27  2  0
 26 30  1  0
 28 29  1  0
 29 30  2  0
 29 31  1  0
 31 32  1  0
 31 33  2  0
  8 34  1  0
  9 35  1  0
 10 36  1  0
 13 37  1  0
 13 38  1  0
 14 39  1  0
 14 40  1  0
 17 41  1  0
 20 42  1  0
 21 43  1  0
 24 44  1  0
 24 45  1  0
 24 46  1  0
 26 47  1  0
 27 48  1  0
 28 49  1  0
 30 50  1  0
 32 51  1  0
M  END
> <Uni-Dock RESULT> 
ENERGY=   -4.890  LOWER_BOUND=    3.298  UPPER_BOUND=    8.448
INTER + INTRA:          -4.890
INTER:                  -4.890
INTRA:                   0.000
UNBOUND:                 0.000

$$$$

     RDKit          3D

 51 55  0  0  0  0  0  0  0  0999 V2000
   49.2350   10.3341   21.7041 O   0  0  0  0  0  0  0  0  0  0  0  0
   48.4452   10.7091   22.8417 C   0  0  0  0  0  0  0  0  0  0  0  0
   47.9925    9.6148   23.6504 O   0  0  0  0  0  0  0  0  0  0  0  0
   48.5370    8.5752   22.9654 C   0  0  0  0  0  0  0  0  0  0  0  0
   49.2438    8.9832   21.8591 C   0  0  0  0  0  0  0  0  0  0  0  0
   49.1791   11.5442   23.6181 F   0  0  0  0  0  0  0  0  0  0  0  0
   47.3634   11.4008   22.4064 F   0  0  0  0  0  0  0  0  0  0  0  0
   49.8753    8.0834   21.0239 C   0  0  0  0  0  0  0  0  0  0  0  0
   48.4220    7.2451   23.2950 C   0  0  0  0  0  0  0  0  0  0  0  0
   49.0550    6.3152   22.4628 C   0  0  0  0  0  0  0  0  0  0  0  0
   49.7968    6.7085   21.3184 C   0  0  0  0  0  0  0  0  0  0  0  0
   50.4608    5.6595   20.4286 C   0  0  0  0  0  0  0  0  0  0  0  0
   51.5735    4.8205   21.0571 C   0  0  0  0  0  0  0  0  0  0  0  0
   51.9242    5.8491   20.0313 C   0  0  0  0  0  0  0  0  0  0  0  0
   49.5440    4.9582   19.4505 C   0  0  0  0  0  0  0  0  0  0  0  0
   49.0132    3.9049   19.7740 O   0  0  0  0  0  0  0  0  0  0  0  0
   49.4117    5.6323   18.2653 N   0  0  0  0  0  0  0  0  0  0  0  0
   48.6433    5.2898   17.1559 C   0  0  0  0  0  0  0  0  0  0  0  0
   48.7383    6.1819   16.1497 N   0  0  0  0  0  0  0  0  0  0  0  0
   47.8527    4.1578   17.0746 C   0  0  0  0  0  0  0  0  0  0  0  0
   47.1315    3.9304   15.9051 C   0  0  0  0  0  0  0  0  0  0  0  0
   47.2149    4.8326   14.8407 C   0  0  0  0  0  0  0  0  0  0  0  0
   48.0213    5.9633   15.0155 C   0  0  0  0  0  0  0  0  0  0  0  0
   46.4358    4.5714   13.5854 C   0  0  0  0  0  0  0  0  0  0  0  0
   48.1825    7.0170   14.0021 C   0  0  0  0  0  0  0  0  0  0  0  0
   49.6152    8.2674   12.4725 C   0  0  0  0  0  0  0  0  0  0  0  0
   49.4427    7.2678   13.4324 C   0  0  0  0  0  0  0  0  0  0  0  0
   47.0981    7.8143   13.5974 C   0  0  0  0  0  0  0  0  0  0  0  0
   47.2650    8.8187   12.6337 C   0  0  0  0  0  0  0  0  0  0  0  0
   48.5271    9.0402   12.0715 C   0  0  0  0  0  0  0  0  0  0  0  0
   46.1380    9.6709   12.1844 C   0  0  0  0  0  0  0  0  0  0  0  0
   44.9703    9.3416   12.7645 O   0  0  0  0  0  0  0  0  0  0  0  0
   46.2075   10.5777   11.3757 O   0  0  0  0  0  0  0  0  0  0  0  0
   50.4221    8.4403   20.1568 H   0  0  0  0  0  0  0  0  0  0  0  0
   47.8582    6.9258   24.1648 H   0  0  0  0  0  0  0  0  0  0  0  0
   48.9686    5.2538   22.6975 H   0  0  0  0  0  0  0  0  0  0  0  0
   51.6396    3.7737   20.7784 H   0  0  0  0  0  0  0  0  0  0  0  0
   51.8551    5.0129   22.0864 H   0  0  0  0  0  0  0  0  0  0  0  0
   52.2520    5.4926   19.0605 H   0  0  0  0  0  0  0  0  0  0  0  0
   52.4566    6.7300   20.3721 H   0  0  0  0  0  0  0  0  0  0  0  0
   49.9046    6.5047   18.1404 H   0  0  0  0  0  0  0  0  0  0  0  0
   47.7755    3.4449   17.8867 H   0  0  0  0  0  0  0  0  0  0  0  0
   46.5089    3.0416   15.8328 H   0  0  0  0  0  0  0  0  0  0  0  0
   46.1261    3.5223   13.5244 H   0  0  0  0  0  0  0  0  0  0  0  0
   47.0425    4.7727   12.6966 H   0  0  0  0  0  0  0  0  0  0  0  0
   45.5345    5.1914   13.5616 H   0  0  0  0  0  0  0  0  0  0  0  0
   50.5981    8.4449   12.0429 H   0  0  0  0  0  0  0  0  0  0  0  0
   50.3020    6.6763   13.7453 H   0  0  0  0  0  0  0  0  0  0  0  0
   46.1215    7.6553   14.0506 H   0  0  0  0  0  0  0  0  0  0  0  0
   48.6671    9.8198   11.3249 H   0  0  0  0  0  0  0  0  0  0  0  0
   44.3317    9.9811   12.3846 H   0  0  0  0  0  0  0  0  0  0  0  0
  1  2  1  0
  1  5  1  0
  2  3  1  0
  3  4  1  0
  2  6  1  0
  2  7  1  0
  8  5  1  0
  5  4  2  0
  4  9  1  0
  8 11  2  0
  9 10  2  0
 10 11  1  0
 11 12  1  0
 12 13  1  0
 13 14  1  0
 14 12  1  0
 12 15  1  0
 15 16  2  0
 15 17  1  0
 17 18  1  0
 19 18  2  0
 18 20  1  0
 19 23  1  0
 20 21  2  0
 21 22  1  0
 22 23  2  0
 22 24  1  0
 23 25  1  0
 27 25  1  0
 25 28  2  0
 26 27  2  0
 26 30  1  0
 28 29  1  0
 29 30  2  0
 29 31  1  0
 31 32  1  0
 31 33  2  0
  8 34  1  0
  9 35  1  0
 10 36  1  0
 13 37  1  0
 13 38  1  0
 14 39  1  0
 14 40  1  0
 17 41  1  0
 20 42  1  0
 21 43  1  0
 24 44  1  0
 24 45  1  0
 24 46  1  0
 26 47  1  0
 27 48  1  0
 28 49  1  0
 30 50  1  0
 32 51  1  0
M  END
> <Uni-Dock RESULT> 
ENERGY=   -4.868  LOWER_BOUND=    6.862  UPPER_BOUND=   10.936
INTER + INTRA:          -4.868
INTER:                  -4.868
INTRA:                   0.000
UNBOUND:                 0.000

$$$$

     RDKit          3D

 51 55  0  0  0  0  0  0  0  0999 V2000
   46.4945   12.7748   19.5569 O   0  0  0  0  0  0  0  0  0  0  0  0
   47.1264   12.8971   20.8392 C   0  0  0  0  0  0  0  0  0  0  0  0
   48.3986   13.5587   20.8254 O   0  0  0  0  0  0  0  0  0  0  0  0
   48.5076   13.8312   19.4986 C   0  0  0  0  0  0  0  0  0  0  0  0
   47.4254   13.3862   18.7769 C   0  0  0  0  0  0  0  0  0  0  0  0
   46.2947   13.5791   21.6649 F   0  0  0  0  0  0  0  0  0  0  0  0
   47.2909   11.6557   21.3590 F   0  0  0  0  0  0  0  0  0  0  0  0
   47.3380   13.5613   17.4102 C   0  0  0  0  0  0  0  0  0  0  0  0
   49.5615   14.4734   18.8922 C   0  0  0  0  0  0  0  0  0  0  0  0
   49.4937   14.6626   17.5074 C   0  0  0  0  0  0  0  0  0  0  0  0
   48.3859   14.2198   16.7384 C   0  0  0  0  0  0  0  0  0  0  0  0
   48.3585   14.4342   15.2264 C   0  0  0  0  0  0  0  0  0  0  0  0
   48.3264   15.8801   14.7311 C   0  0  0  0  0  0  0  0  0  0  0  0
   47.1046   15.0314   14.5889 C   0  0  0  0  0  0  0  0  0  0  0  0
   49.1693   13.4496   14.4126 C   0  0  0  0  0  0  0  0  0  0  0  0
   50.3265   13.7193   14.1225 O   0  0  0  0  0  0  0  0  0  0  0  0
   48.4690   12.3166   14.0929 N   0  0  0  0  0  0  0  0  0  0  0  0
   48.9020   11.2053   13.3745 C   0  0  0  0  0  0  0  0  0  0  0  0
   47.9529   10.2570   13.2424 N   0  0  0  0  0  0  0  0  0  0  0  0
   50.1723   11.0654   12.8456 C   0  0  0  0  0  0  0  0  0  0  0  0
   50.4791    9.9011   12.1457 C   0  0  0  0  0  0  0  0  0  0  0  0
   49.5143    8.9026   11.9846 C   0  0  0  0  0  0  0  0  0  0  0  0
   48.2613    9.1159   12.5707 C   0  0  0  0  0  0  0  0  0  0  0  0
   49.8583    7.6560   11.2239 C   0  0  0  0  0  0  0  0  0  0  0  0
   47.1576    8.1452   12.5171 C   0  0  0  0  0  0  0  0  0  0  0  0
   44.8934    7.5664   11.8144 C   0  0  0  0  0  0  0  0  0  0  0  0
   45.9534    8.4737   11.8709 C   0  0  0  0  0  0  0  0  0  0  0  0
   47.2632    6.8836   13.1274 C   0  0  0  0  0  0  0  0  0  0  0  0
   46.2026    5.9682   13.0734 C   0  0  0  0  0  0  0  0  0  0  0  0
   45.0187    6.3140   12.4125 C   0  0  0  0  0  0  0  0  0  0  0  0
   46.2884    4.6290   13.7037 C   0  0  0  0  0  0  0  0  0  0  0  0
   47.4834    4.3957   14.2746 O   0  0  0  0  0  0  0  0  0  0  0  0
   45.4051    3.7921   13.7238 O   0  0  0  0  0  0  0  0  0  0  0  0
   46.4703   13.1942   16.8711 H   0  0  0  0  0  0  0  0  0  0  0  0
   50.4170   14.8176   19.4633 H   0  0  0  0  0  0  0  0  0  0  0  0
   50.3228   15.1595   17.0025 H   0  0  0  0  0  0  0  0  0  0  0  0
   48.8900   16.1232   13.8361 H   0  0  0  0  0  0  0  0  0  0  0  0
   48.3058   16.6820   15.4606 H   0  0  0  0  0  0  0  0  0  0  0  0
   46.8289   14.7193   13.5871 H   0  0  0  0  0  0  0  0  0  0  0  0
   46.2546   15.2743   15.2167 H   0  0  0  0  0  0  0  0  0  0  0  0
   47.5157   12.2236   14.4124 H   0  0  0  0  0  0  0  0  0  0  0  0
   50.9340   11.8277   12.9570 H   0  0  0  0  0  0  0  0  0  0  0  0
   51.4753    9.7844   11.7253 H   0  0  0  0  0  0  0  0  0  0  0  0
   50.7472    7.8063   10.6013 H   0  0  0  0  0  0  0  0  0  0  0  0
   49.0456    7.3703   10.5483 H   0  0  0  0  0  0  0  0  0  0  0  0
   50.0657    6.8337   11.9154 H   0  0  0  0  0  0  0  0  0  0  0  0
   43.9704    7.8392   11.3085 H   0  0  0  0  0  0  0  0  0  0  0  0
   45.8409    9.4532   11.4082 H   0  0  0  0  0  0  0  0  0  0  0  0
   48.1764    6.6237   13.6593 H   0  0  0  0  0  0  0  0  0  0  0  0
   44.1887    5.6112   12.3679 H   0  0  0  0  0  0  0  0  0  0  0  0
   47.3920    3.4944   14.6490 H   0  0  0  0  0  0  0  0  0  0  0  0
  1  2  1  0
  1  5  1  0
  2  3  1  0
  3  4  1  0
  2  6  1  0
  2  7  1  0
  8  5  1  0
  5  4  2  0
  4  9  1  0
  8 11  2  0
  9 10  2  0
 10 11  1  0
 11 12  1  0
 12 13  1  0
 13 14  1  0
 14 12  1  0
 12 15  1  0
 15 16  2  0
 15 17  1  0
 17 18  1  0
 19 18  2  0
 18 20  1  0
 19 23  1  0
 20 21  2  0
 21 22  1  0
 22 23  2  0
 22 24  1  0
 23 25  1  0
 27 25  1  0
 25 28  2  0
 26 27  2  0
 26 30  1  0
 28 29  1  0
 29 30  2  0
 29 31  1  0
 31 32  1  0
 31 33  2  0
  8 34  1  0
  9 35  1  0
 10 36  1  0
 13 37  1  0
 13 38  1  0
 14 39  1  0
 14 40  1  0
 17 41  1  0
 20 42  1  0
 21 43  1  0
 24 44  1  0
 24 45  1  0
 24 46  1  0
 26 47  1  0
 27 48  1  0
 28 49  1  0
 30 50  1  0
 32 51  1  0
M  END
> <Uni-Dock RESULT> 
ENERGY=   -4.804  LOWER_BOUND=    6.624  UPPER_BOUND=   11.203
INTER + INTRA:          -4.804
INTER:                  -4.804
INTRA:                   0.000
UNBOUND:                 0.000

$$$$

     RDKit          3D

 51 55  0  0  0  0  0  0  0  0999 V2000
   46.6753   13.5373    7.8155 O   0  0  0  0  0  0  0  0  0  0  0  0
   46.8333   13.5212    6.3896 C   0  0  0  0  0  0  0  0  0  0  0  0
   45.9307   12.6528    5.6913 O   0  0  0  0  0  0  0  0  0  0  0  0
   45.2266   12.1528    6.7404 C   0  0  0  0  0  0  0  0  0  0  0  0
   45.6489   12.6553    7.9483 C   0  0  0  0  0  0  0  0  0  0  0  0
   46.6641   14.7835    5.9241 F   0  0  0  0  0  0  0  0  0  0  0  0
   48.1038   13.1459    6.1008 F   0  0  0  0  0  0  0  0  0  0  0  0
   45.0662   12.2752    9.1407 C   0  0  0  0  0  0  0  0  0  0  0  0
   44.1999   11.2414    6.6601 C   0  0  0  0  0  0  0  0  0  0  0  0
   43.5938   10.8424    7.8566 C   0  0  0  0  0  0  0  0  0  0  0  0
   44.0048   11.3499    9.1168 C   0  0  0  0  0  0  0  0  0  0  0  0
   43.3253   10.8770   10.4003 C   0  0  0  0  0  0  0  0  0  0  0  0
   41.8447   11.2186   10.5679 C   0  0  0  0  0  0  0  0  0  0  0  0
   42.8571   11.9200   11.4143 C   0  0  0  0  0  0  0  0  0  0  0  0
   43.7809    9.5322   10.9230 C   0  0  0  0  0  0  0  0  0  0  0  0
   43.1751    8.5225   10.5922 O   0  0  0  0  0  0  0  0  0  0  0  0
   44.8780    9.6202   11.7385 N   0  0  0  0  0  0  0  0  0  0  0  0
   45.5672    8.5921   12.3761 C   0  0  0  0  0  0  0  0  0  0  0  0
   46.6121    9.0286   13.1077 N   0  0  0  0  0  0  0  0  0  0  0  0
   45.2344    7.2531   12.2790 C   0  0  0  0  0  0  0  0  0  0  0  0
   46.0072    6.3220   12.9685 C   0  0  0  0  0  0  0  0  0  0  0  0
   47.0924    6.7435   13.7421 C   0  0  0  0  0  0  0  0  0  0  0  0
   47.3722    8.1147   13.7674 C   0  0  0  0  0  0  0  0  0  0  0  0
   47.9125    5.7289   14.4830 C   0  0  0  0  0  0  0  0  0  0  0  0
   48.4984    8.7058   14.5062 C   0  0  0  0  0  0  0  0  0  0  0  0
   49.3199   10.1842   16.2655 C   0  0  0  0  0  0  0  0  0  0  0  0
   48.2628    9.6097   15.5564 C   0  0  0  0  0  0  0  0  0  0  0  0
   49.8302    8.4083   14.1697 C   0  0  0  0  0  0  0  0  0  0  0  0
   50.8955    8.9814   14.8784 C   0  0  0  0  0  0  0  0  0  0  0  0
   50.6348    9.8683   15.9288 C   0  0  0  0  0  0  0  0  0  0  0  0
   52.3096    8.6815   14.5485 C   0  0  0  0  0  0  0  0  0  0  0  0
   52.4354    7.7900   13.5496 O   0  0  0  0  0  0  0  0  0  0  0  0
   53.2863    9.1575   15.0965 O   0  0  0  0  0  0  0  0  0  0  0  0
   45.4271   12.6895   10.0768 H   0  0  0  0  0  0  0  0  0  0  0  0
   43.8732   10.8417    5.7062 H   0  0  0  0  0  0  0  0  0  0  0  0
   42.7849   10.1121    7.8192 H   0  0  0  0  0  0  0  0  0  0  0  0
   41.2032   10.4811   11.0395 H   0  0  0  0  0  0  0  0  0  0  0  0
   41.3489   11.7896    9.7908 H   0  0  0  0  0  0  0  0  0  0  0  0
   42.8827   11.6703   12.4698 H   0  0  0  0  0  0  0  0  0  0  0  0
   43.0312   12.9711   11.2131 H   0  0  0  0  0  0  0  0  0  0  0  0
   45.2845   10.5273   11.9165 H   0  0  0  0  0  0  0  0  0  0  0  0
   44.3965    6.9053   11.6870 H   0  0  0  0  0  0  0  0  0  0  0  0
   45.7508    5.2673   12.8986 H   0  0  0  0  0  0  0  0  0  0  0  0
   47.3700    4.7827   14.5867 H   0  0  0  0  0  0  0  0  0  0  0  0
   48.1420    6.0727   15.4968 H   0  0  0  0  0  0  0  0  0  0  0  0
   48.8438    5.5269   13.9453 H   0  0  0  0  0  0  0  0  0  0  0  0
   49.1166   10.8803   17.0755 H   0  0  0  0  0  0  0  0  0  0  0  0
   47.2394    9.8711   15.8219 H   0  0  0  0  0  0  0  0  0  0  0  0
   50.0322    7.7348   13.3390 H   0  0  0  0  0  0  0  0  0  0  0  0
   51.4553   10.3206   16.4827 H   0  0  0  0  0  0  0  0  0  0  0  0
   53.4051    7.6975   13.4393 H   0  0  0  0  0  0  0  0  0  0  0  0
  1  2  1  0
  1  5  1  0
  2  3  1  0
  3  4  1  0
  2  6  1  0
  2  7  1  0
  8  5  1  0
  5  4  2  0
  4  9  1  0
  8 11  2  0
  9 10  2  0
 10 11  1  0
 11 12  1  0
 12 13  1  0
 13 14  1  0
 14 12  1  0
 12 15  1  0
 15 16  2  0
 15 17  1  0
 17 18  1  0
 19 18  2  0
 18 20  1  0
 19 23  1  0
 20 21  2  0
 21 22  1  0
 22 23  2  0
 22 24  1  0
 23 25  1  0
 27 25  1  0
 25 28  2  0
 26 27  2  0
 26 30  1  0
 28 29  1  0
 29 30  2  0
 29 31  1  0
 31 32  1  0
 31 33  2  0
  8 34  1  0
  9 35  1  0
 10 36  1  0
 13 37  1  0
 13 38  1  0
 14 39  1  0
 14 40  1  0
 17 41  1  0
 20 42  1  0
 21 43  1  0
 24 44  1  0
 24 45  1  0
 24 46  1  0
 26 47  1  0
 27 48  1  0
 28 49  1  0
 30 50  1  0
 32 51  1  0
M  END
> <Uni-Dock RESULT> 
ENERGY=   -4.618  LOWER_BOUND=    5.316  UPPER_BOUND=    6.321
INTER + INTRA:          -4.618
INTER:                  -4.618
INTRA:                   0.000
UNBOUND:                 0.000

$$$$
