
     RDKit          3D

 51 55  0  0  0  0  0  0  0  0999 V2000
   54.5312    9.5712    6.4957 O   0  0  0  0  0  0  0  0  0  0  0  0
   54.5943    8.6180    5.4263 C   0  0  0  0  0  0  0  0  0  0  0  0
   54.2002    7.2849    5.7806 O   0  0  0  0  0  0  0  0  0  0  0  0
   53.9016    7.4696    7.0935 C   0  0  0  0  0  0  0  0  0  0  0  0
   54.0900    8.7686    7.5007 C   0  0  0  0  0  0  0  0  0  0  0  0
   55.8663    8.5798    4.9578 F   0  0  0  0  0  0  0  0  0  0  0  0
   53.7992    9.0484    4.4158 F   0  0  0  0  0  0  0  0  0  0  0  0
   53.8421    9.1660    8.7986 C   0  0  0  0  0  0  0  0  0  0  0  0
   53.4537    6.5003    7.9608 C   0  0  0  0  0  0  0  0  0  0  0  0
   53.1964    6.8811    9.2831 C   0  0  0  0  0  0  0  0  0  0  0  0
   53.3890    8.2132    9.7324 C   0  0  0  0  0  0  0  0  0  0  0  0
   53.0910    8.6192   11.1744 C   0  0  0  0  0  0  0  0  0  0  0  0
   54.2624    9.1429   12.0057 C   0  0  0  0  0  0  0  0  0  0  0  0
   53.6951    7.7944   12.3103 C   0  0  0  0  0  0  0  0  0  0  0  0
   51.7441    9.2686   11.4053 C   0  0  0  0  0  0  0  0  0  0  0  0
   51.6495   10.4872   11.3627 O   0  0  0  0  0  0  0  0  0  0  0  0
   50.7463    8.3598   11.6392 N   0  0  0  0  0  0  0  0  0  0  0  0
   49.3946    8.5992   11.8721 C   0  0  0  0  0  0  0  0  0  0  0  0
   48.6827    7.4709   12.0678 N   0  0  0  0  0  0  0  0  0  0  0  0
   48.8192    9.8564   11.8996 C   0  0  0  0  0  0  0  0  0  0  0  0
   47.4523    9.9590   12.1449 C   0  0  0  0  0  0  0  0  0  0  0  0
   46.6878    8.8086   12.3607 C   0  0  0  0  0  0  0  0  0  0  0  0
   47.3453    7.5747   12.2920 C   0  0  0  0  0  0  0  0  0  0  0  0
   45.2173    8.9390   12.6300 C   0  0  0  0  0  0  0  0  0  0  0  0
   46.6731    6.2769   12.4622 C   0  0  0  0  0  0  0  0  0  0  0  0
   46.4227    4.1771   13.6814 C   0  0  0  0  0  0  0  0  0  0  0  0
   47.0464    5.4147   13.5073 C   0  0  0  0  0  0  0  0  0  0  0  0
   45.6670    5.8509   11.5792 C   0  0  0  0  0  0  0  0  0  0  0  0
   45.0362    4.6099   11.7486 C   0  0  0  0  0  0  0  0  0  0  0  0
   45.4157    3.7752   12.8051 C   0  0  0  0  0  0  0  0  0  0  0  0
   43.9750    4.2276   10.7866 C   0  0  0  0  0  0  0  0  0  0  0  0
   43.4733    3.0021   11.0200 O   0  0  0  0  0  0  0  0  0  0  0  0
   43.5652    4.9139    9.8689 O   0  0  0  0  0  0  0  0  0  0  0  0
   53.9879   10.2020    9.0932 H   0  0  0  0  0  0  0  0  0  0  0  0
   53.3028    5.4779    7.6316 H   0  0  0  0  0  0  0  0  0  0  0  0
   52.8379    6.1261    9.9809 H   0  0  0  0  0  0  0  0  0  0  0  0
   55.2462    9.1896   11.5519 H   0  0  0  0  0  0  0  0  0  0  0  0
   54.0688    9.9517   12.7030 H   0  0  0  0  0  0  0  0  0  0  0  0
   54.3073    6.9319   12.0712 H   0  0  0  0  0  0  0  0  0  0  0  0
   53.1349    7.6872   13.2333 H   0  0  0  0  0  0  0  0  0  0  0  0
   50.9702    7.3755   11.6368 H   0  0  0  0  0  0  0  0  0  0  0  0
   49.3932   10.7607   11.7367 H   0  0  0  0  0  0  0  0  0  0  0  0
   46.9925   10.9444   12.1697 H   0  0  0  0  0  0  0  0  0  0  0  0
   44.9650    9.9540   12.9564 H   0  0  0  0  0  0  0  0  0  0  0  0
   44.9022    8.2640   13.4322 H   0  0  0  0  0  0  0  0  0  0  0  0
   44.6441    8.7233   11.7234 H   0  0  0  0  0  0  0  0  0  0  0  0
   46.7258    3.5269   14.4985 H   0  0  0  0  0  0  0  0  0  0  0  0
   47.8375    5.7134   14.1939 H   0  0  0  0  0  0  0  0  0  0  0  0
   45.3793    6.4862   10.7421 H   0  0  0  0  0  0  0  0  0  0  0  0
   44.9381    2.8093   12.9506 H   0  0  0  0  0  0  0  0  0  0  0  0
   42.7994    2.8868   10.3174 H   0  0  0  0  0  0  0  0  0  0  0  0
  1  2  1  0
  1  5  1  0
  2  3  1  0
  3  4  1  0
  2  6  1  0
  2  7  1  0
  8  5  1  0
  5  4  2  0
  4  9  1  0
  8 11  2  0
  9 10  2  0
 10 11  1  0
 11 12  1  0
 12 13  1  0
 13 14  1  0
 14 12  1  0
 12 15  1  0
 15 16  2  0
 15 17  1  0
 17 18  1  0
 19 18  2  0
 18 20  1  0
 19 23  1  0
 20 21  2  0
 21 22  1  0
 22 23  2  0
 22 24  1  0
 23 25  1  0
 27 25  1  0
 25 28  2  0
 26 27  2  0
 26 30  1  0
 28 29  1  0
 29 30  2  0
 29 31  1  0
 31 32  1  0
 31 33  2  0
  8 34  1  0
  9 35  1  0
 10 36  1  0
 13 37  1  0
 13 38  1  0
 14 39  1  0
 14 40  1  0
 17 41  1  0
 20 42  1  0
 21 43  1  0
 24 44  1  0
 24 45  1  0
 24 46  1  0
 26 47  1  0
 27 48  1  0
 28 49  1  0
 30 50  1  0
 32 51  1  0
M  END
> <Uni-Dock RESULT> 
ENERGY=   -5.890  LOWER_BOUND=    0.000  UPPER_BOUND=    0.000
INTER + INTRA:          -5.890
INTER:                  -5.890
INTRA:                   0.000
UNBOUND:                 0.000

$$$$

     RDKit          3D

 51 55  0  0  0  0  0  0  0  0999 V2000
   53.6416    2.6609   18.1506 O   0  0  0  0  0  0  0  0  0  0  0  0
   53.8459    1.3217   17.6804 C   0  0  0  0  0  0  0  0  0  0  0  0
   52.6625    0.6568   17.2162 O   0  0  0  0  0  0  0  0  0  0  0  0
   51.7452    1.6375   17.4247 C   0  0  0  0  0  0  0  0  0  0  0  0
   52.3008    2.7766   17.9564 C   0  0  0  0  0  0  0  0  0  0  0  0
   54.3837    0.5890   18.6868 F   0  0  0  0  0  0  0  0  0  0  0  0
   54.7485    1.3515   16.6689 F   0  0  0  0  0  0  0  0  0  0  0  0
   51.5391    3.8910   18.2420 C   0  0  0  0  0  0  0  0  0  0  0  0
   50.4002    1.5530   17.1489 C   0  0  0  0  0  0  0  0  0  0  0  0
   49.6079    2.6720   17.4316 C   0  0  0  0  0  0  0  0  0  0  0  0
   50.1538    3.8581   17.9870 C   0  0  0  0  0  0  0  0  0  0  0  0
   49.2810    5.0774   18.2777 C   0  0  0  0  0  0  0  0  0  0  0  0
   49.1852    5.5328   19.7341 C   0  0  0  0  0  0  0  0  0  0  0  0
   48.0005    4.8883   19.0902 C   0  0  0  0  0  0  0  0  0  0  0  0
   49.3000    6.1611   17.2221 C   0  0  0  0  0  0  0  0  0  0  0  0
   50.0954    7.0847   17.3235 O   0  0  0  0  0  0  0  0  0  0  0  0
   48.3785    5.9560   16.2296 N   0  0  0  0  0  0  0  0  0  0  0  0
   48.1332    6.7347   15.1018 C   0  0  0  0  0  0  0  0  0  0  0  0
   47.1472    6.2443   14.3235 N   0  0  0  0  0  0  0  0  0  0  0  0
   48.8210    7.8931   14.7899 C   0  0  0  0  0  0  0  0  0  0  0  0
   48.4763    8.5814   13.6294 C   0  0  0  0  0  0  0  0  0  0  0  0
   47.4525    8.1040   12.8059 C   0  0  0  0  0  0  0  0  0  0  0  0
   46.8240    6.9114   13.1833 C   0  0  0  0  0  0  0  0  0  0  0  0
   47.0904    8.8624   11.5627 C   0  0  0  0  0  0  0  0  0  0  0  0
   45.7556    6.2656   12.4046 C   0  0  0  0  0  0  0  0  0  0  0  0
   43.4562    5.4621   12.2439 C   0  0  0  0  0  0  0  0  0  0  0  0
   44.4812    6.0772   12.9664 C   0  0  0  0  0  0  0  0  0  0  0  0
   45.9801    5.7973   11.0994 C   0  0  0  0  0  0  0  0  0  0  0  0
   44.9552    5.1794   10.3682 C   0  0  0  0  0  0  0  0  0  0  0  0
   43.6909    5.0159   10.9442 C   0  0  0  0  0  0  0  0  0  0  0  0
   45.2579    4.7184    8.9920 C   0  0  0  0  0  0  0  0  0  0  0  0
   44.2163    4.1035    8.4047 O   0  0  0  0  0  0  0  0  0  0  0  0
   46.3181    4.8592    8.4112 O   0  0  0  0  0  0  0  0  0  0  0  0
   52.0041    4.7840   18.6514 H   0  0  0  0  0  0  0  0  0  0  0  0
   49.9689    0.6525   16.7251 H   0  0  0  0  0  0  0  0  0  0  0  0
   48.5420    2.6220   17.2155 H   0  0  0  0  0  0  0  0  0  0  0  0
   49.7185    4.9720   20.4936 H   0  0  0  0  0  0  0  0  0  0  0  0
   49.1464    6.5993   19.9312 H   0  0  0  0  0  0  0  0  0  0  0  0
   47.7301    3.8944   19.4290 H   0  0  0  0  0  0  0  0  0  0  0  0
   47.1462    5.5211   18.8738 H   0  0  0  0  0  0  0  0  0  0  0  0
   47.7881    5.1382   16.2713 H   0  0  0  0  0  0  0  0  0  0  0  0
   49.6162    8.2816   15.4147 H   0  0  0  0  0  0  0  0  0  0  0  0
   49.0116    9.4943   13.3780 H   0  0  0  0  0  0  0  0  0  0  0  0
   47.4524    9.8954   11.6119 H   0  0  0  0  0  0  0  0  0  0  0  0
   46.0044    8.9162   11.4361 H   0  0  0  0  0  0  0  0  0  0  0  0
   47.5387    8.3888   10.6842 H   0  0  0  0  0  0  0  0  0  0  0  0
   42.4771    5.3288   12.6974 H   0  0  0  0  0  0  0  0  0  0  0  0
   44.2872    6.4139   13.9840 H   0  0  0  0  0  0  0  0  0  0  0  0
   46.9672    5.9028   10.6507 H   0  0  0  0  0  0  0  0  0  0  0  0
   42.8853    4.5381   10.3921 H   0  0  0  0  0  0  0  0  0  0  0  0
   44.5589    3.8549    7.5205 H   0  0  0  0  0  0  0  0  0  0  0  0
  1  2  1  0
  1  5  1  0
  2  3  1  0
  3  4  1  0
  2  6  1  0
  2  7  1  0
  8  5  1  0
  5  4  2  0
  4  9  1  0
  8 11  2  0
  9 10  2  0
 10 11  1  0
 11 12  1  0
 12 13  1  0
 13 14  1  0
 14 12  1  0
 12 15  1  0
 15 16  2  0
 15 17  1  0
 17 18  1  0
 19 18  2  0
 18 20  1  0
 19 23  1  0
 20 21  2  0
 21 22  1  0
 22 23  2  0
 22 24  1  0
 23 25  1  0
 27 25  1  0
 25 28  2  0
 26 27  2  0
 26 30  1  0
 28 29  1  0
 29 30  2  0
 29 31  1  0
 31 32  1  0
 31 33  2  0
  8 34  1  0
  9 35  1  0
 10 36  1  0
 13 37  1  0
 13 38  1  0
 14 39  1  0
 14 40  1  0
 17 41  1  0
 20 42  1  0
 21 43  1  0
 24 44  1  0
 24 45  1  0
 24 46  1  0
 26 47  1  0
 27 48  1  0
 28 49  1  0
 30 50  1  0
 32 51  1  0
M  END
> <Uni-Dock RESULT> 
ENERGY=   -5.871  LOWER_BOUND=    6.148  UPPER_BOUND=    8.271
INTER + INTRA:          -5.871
INTER:                  -5.871
INTRA:                   0.000
UNBOUND:                 0.000

$$$$

     RDKit          3D

 51 55  0  0  0  0  0  0  0  0999 V2000
   44.0220    6.8620   11.4608 O   0  0  0  0  0  0  0  0  0  0  0  0
   43.3206    5.6130   11.5256 C   0  0  0  0  0  0  0  0  0  0  0  0
   43.9835    4.5856   12.2760 O   0  0  0  0  0  0  0  0  0  0  0  0
   45.1022    5.2572   12.6558 C   0  0  0  0  0  0  0  0  0  0  0  0
   45.1251    6.5508   12.1924 C   0  0  0  0  0  0  0  0  0  0  0  0
   43.1243    5.1630   10.2615 F   0  0  0  0  0  0  0  0  0  0  0  0
   42.1008    5.8301   12.0763 F   0  0  0  0  0  0  0  0  0  0  0  0
   46.1746    7.4028   12.4687 C   0  0  0  0  0  0  0  0  0  0  0  0
   46.1255    4.7477   13.4211 C   0  0  0  0  0  0  0  0  0  0  0  0
   47.2014    5.5945   13.7131 C   0  0  0  0  0  0  0  0  0  0  0  0
   47.2543    6.9319   13.2419 C   0  0  0  0  0  0  0  0  0  0  0  0
   48.4272    7.8503   13.5795 C   0  0  0  0  0  0  0  0  0  0  0  0
   49.2593    8.3745   12.4089 C   0  0  0  0  0  0  0  0  0  0  0  0
   49.8489    7.3512   13.3245 C   0  0  0  0  0  0  0  0  0  0  0  0
   48.2028    8.7977   14.7376 C   0  0  0  0  0  0  0  0  0  0  0  0
   47.7776    9.9235   14.5191 O   0  0  0  0  0  0  0  0  0  0  0  0
   48.5154    8.2423   15.9501 N   0  0  0  0  0  0  0  0  0  0  0  0
   48.4158    8.8142   17.2156 C   0  0  0  0  0  0  0  0  0  0  0  0
   48.8108    7.9861   18.2038 N   0  0  0  0  0  0  0  0  0  0  0  0
   47.9574   10.0963   17.4576 C   0  0  0  0  0  0  0  0  0  0  0  0
   47.9082   10.5495   18.7734 C   0  0  0  0  0  0  0  0  0  0  0  0
   48.3191    9.7186   19.8198 C   0  0  0  0  0  0  0  0  0  0  0  0
   48.7468    8.4275   19.4886 C   0  0  0  0  0  0  0  0  0  0  0  0
   48.2651   10.2265   21.2308 C   0  0  0  0  0  0  0  0  0  0  0  0
   49.1763    7.4270   20.4783 C   0  0  0  0  0  0  0  0  0  0  0  0
   50.9063    5.9559   21.3736 C   0  0  0  0  0  0  0  0  0  0  0  0
   50.4825    6.9096   20.4452 C   0  0  0  0  0  0  0  0  0  0  0  0
   48.2962    6.9418   21.4598 C   0  0  0  0  0  0  0  0  0  0  0  0
   48.7153    5.9849   22.3954 C   0  0  0  0  0  0  0  0  0  0  0  0
   50.0251    5.4954   22.3507 C   0  0  0  0  0  0  0  0  0  0  0  0
   47.7380    5.5245   23.4108 C   0  0  0  0  0  0  0  0  0  0  0  0
   48.2357    4.5771   24.2249 O   0  0  0  0  0  0  0  0  0  0  0  0
   46.5975    5.9303   23.5364 O   0  0  0  0  0  0  0  0  0  0  0  0
   46.1638    8.4252   12.1003 H   0  0  0  0  0  0  0  0  0  0  0  0
   46.0990    3.7271   13.7874 H   0  0  0  0  0  0  0  0  0  0  0  0
   48.0175    5.2071   14.3208 H   0  0  0  0  0  0  0  0  0  0  0  0
   48.9988    8.0660   11.4025 H   0  0  0  0  0  0  0  0  0  0  0  0
   49.6324    9.3920   12.4665 H   0  0  0  0  0  0  0  0  0  0  0  0
   49.9967    6.3537   12.9259 H   0  0  0  0  0  0  0  0  0  0  0  0
   50.6435    7.6762   13.9880 H   0  0  0  0  0  0  0  0  0  0  0  0
   48.8511    7.2908   15.9806 H   0  0  0  0  0  0  0  0  0  0  0  0
   47.6359   10.7572   16.6617 H   0  0  0  0  0  0  0  0  0  0  0  0
   47.5503   11.5574   18.9718 H   0  0  0  0  0  0  0  0  0  0  0  0
   48.2182   11.3209   21.2542 H   0  0  0  0  0  0  0  0  0  0  0  0
   49.1627    9.9390   21.7878 H   0  0  0  0  0  0  0  0  0  0  0  0
   47.3779    9.8393   21.7407 H   0  0  0  0  0  0  0  0  0  0  0  0
   51.9223    5.5712   21.3310 H   0  0  0  0  0  0  0  0  0  0  0  0
   51.1783    7.2551   19.6817 H   0  0  0  0  0  0  0  0  0  0  0  0
   47.2687    7.3030   21.4893 H   0  0  0  0  0  0  0  0  0  0  0  0
   50.3664    4.7525   23.0675 H   0  0  0  0  0  0  0  0  0  0  0  0
   47.4909    4.3713   24.8280 H   0  0  0  0  0  0  0  0  0  0  0  0
  1  2  1  0
  1  5  1  0
  2  3  1  0
  3  4  1  0
  2  6  1  0
  2  7  1  0
  8  5  1  0
  5  4  2  0
  4  9  1  0
  8 11  2  0
  9 10  2  0
 10 11  1  0
 11 12  1  0
 12 13  1  0
 13 14  1  0
 14 12  1  0
 12 15  1  0
 15 16  2  0
 15 17  1  0
 17 18  1  0
 19 18  2  0
 18 20  1  0
 19 23  1  0
 20 21  2  0
 21 22  1  0
 22 23  2  0
 22 24  1  0
 23 25  1  0
 27 25  1  0
 25 28  2  0
 26 27  2  0
 26 30  1  0
 28 29  1  0
 29 30  2  0
 29 31  1  0
 31 32  1  0
 31 33  2  0
  8 34  1  0
  9 35  1  0
 10 36  1  0
 13 37  1  0
 13 38  1  0
 14 39  1  0
 14 40  1  0
 17 41  1  0
 20 42  1  0
 21 43  1  0
 24 44  1  0
 24 45  1  0
 24 46  1  0
 26 47  1  0
 27 48  1  0
 28 49  1  0
 30 50  1  0
 32 51  1  0
M  END
> <Uni-Dock RESULT> 
ENERGY=   -5.624  LOWER_BOUND=    7.130  UPPER_BOUND=    9.522
INTER + INTRA:          -5.624
INTER:                  -5.624
INTRA:                   0.000
UNBOUND:                 0.000

$$$$

     RDKit          3D

 51 55  0  0  0  0  0  0  0  0999 V2000
   50.2855   14.5982   20.3603 O   0  0  0  0  0  0  0  0  0  0  0  0
   49.6599   14.0779   21.5411 C   0  0  0  0  0  0  0  0  0  0  0  0
   48.3945   13.4383   21.3230 O   0  0  0  0  0  0  0  0  0  0  0  0
   48.2818   13.5936   19.9776 C   0  0  0  0  0  0  0  0  0  0  0  0
   49.3559   14.2533   19.4299 C   0  0  0  0  0  0  0  0  0  0  0  0
   49.4810   15.0964   22.4184 F   0  0  0  0  0  0  0  0  0  0  0  0
   50.5008   13.1843   22.1180 F   0  0  0  0  0  0  0  0  0  0  0  0
   49.4368   14.5113   18.0769 C   0  0  0  0  0  0  0  0  0  0  0  0
   47.2335   13.1555   19.2021 C   0  0  0  0  0  0  0  0  0  0  0  0
   47.2942   13.4073   17.8264 C   0  0  0  0  0  0  0  0  0  0  0  0
   48.3873   14.0921   17.2353 C   0  0  0  0  0  0  0  0  0  0  0  0
   48.4484   14.3481   15.7307 C   0  0  0  0  0  0  0  0  0  0  0  0
   48.4736   15.8069   15.2739 C   0  0  0  0  0  0  0  0  0  0  0  0
   47.2432   14.9903   15.0446 C   0  0  0  0  0  0  0  0  0  0  0  0
   49.2812   13.3675   14.9345 C   0  0  0  0  0  0  0  0  0  0  0  0
   50.4589   13.6166   14.7179 O   0  0  0  0  0  0  0  0  0  0  0  0
   48.5740   12.2624   14.5412 N   0  0  0  0  0  0  0  0  0  0  0  0
   49.0216   11.1610   13.8165 C   0  0  0  0  0  0  0  0  0  0  0  0
   48.0578   10.2437   13.5972 N   0  0  0  0  0  0  0  0  0  0  0  0
   50.3180   11.0014   13.3624 C   0  0  0  0  0  0  0  0  0  0  0  0
   50.6367    9.8505   12.6461 C   0  0  0  0  0  0  0  0  0  0  0  0
   49.6579    8.8847   12.3942 C   0  0  0  0  0  0  0  0  0  0  0  0
   48.3770    9.1143   12.9103 C   0  0  0  0  0  0  0  0  0  0  0  0
   50.0182    7.6539   11.6149 C   0  0  0  0  0  0  0  0  0  0  0  0
   47.2523    8.1777   12.7592 C   0  0  0  0  0  0  0  0  0  0  0  0
   45.0053    7.6983   11.9349 C   0  0  0  0  0  0  0  0  0  0  0  0
   46.0847    8.5722   12.0839 C   0  0  0  0  0  0  0  0  0  0  0  0
   47.2980    6.8832   13.3028 C   0  0  0  0  0  0  0  0  0  0  0  0
   46.2181    6.0005   13.1564 C   0  0  0  0  0  0  0  0  0  0  0  0
   45.0720    6.4117   12.4677 C   0  0  0  0  0  0  0  0  0  0  0  0
   46.3375    4.6453   13.7457 C   0  0  0  0  0  0  0  0  0  0  0  0
   45.2281    3.9035   13.5821 O   0  0  0  0  0  0  0  0  0  0  0  0
   47.3135    4.2038   14.3234 O   0  0  0  0  0  0  0  0  0  0  0  0
   50.3023   15.0246   17.6663 H   0  0  0  0  0  0  0  0  0  0  0  0
   46.3909   12.6314   19.6403 H   0  0  0  0  0  0  0  0  0  0  0  0
   46.4737   13.0635   17.1985 H   0  0  0  0  0  0  0  0  0  0  0  0
   48.4313   16.5902   16.0226 H   0  0  0  0  0  0  0  0  0  0  0  0
   49.0897   16.0602   14.4171 H   0  0  0  0  0  0  0  0  0  0  0  0
   46.3667   15.2357   15.6339 H   0  0  0  0  0  0  0  0  0  0  0  0
   47.0148   14.7114   14.0213 H   0  0  0  0  0  0  0  0  0  0  0  0
   47.6015   12.1856   14.8009 H   0  0  0  0  0  0  0  0  0  0  0  0
   51.0912   11.7379   13.5449 H   0  0  0  0  0  0  0  0  0  0  0  0
   51.6539    9.7184   12.2842 H   0  0  0  0  0  0  0  0  0  0  0  0
   50.9393    7.8062   11.0415 H   0  0  0  0  0  0  0  0  0  0  0  0
   49.2361    7.4026   10.8913 H   0  0  0  0  0  0  0  0  0  0  0  0
   50.1770    6.8086   12.2911 H   0  0  0  0  0  0  0  0  0  0  0  0
   44.1125    8.0237   11.4065 H   0  0  0  0  0  0  0  0  0  0  0  0
   46.0166    9.5775   11.6702 H   0  0  0  0  0  0  0  0  0  0  0  0
   48.1788    6.5618   13.8578 H   0  0  0  0  0  0  0  0  0  0  0  0
   44.2251    5.7408   12.3457 H   0  0  0  0  0  0  0  0  0  0  0  0
   45.4483    3.0532   14.0174 H   0  0  0  0  0  0  0  0  0  0  0  0
  1  2  1  0
  1  5  1  0
  2  3  1  0
  3  4  1  0
  2  6  1  0
  2  7  1  0
  8  5  1  0
  5  4  2  0
  4  9  1  0
  8 11  2  0
  9 10  2  0
 10 11  1  0
 11 12  1  0
 12 13  1  0
 13 14  1  0
 14 12  1  0
 12 15  1  0
 15 16  2  0
 15 17  1  0
 17 18  1  0
 19 18  2  0
 18 20  1  0
 19 23  1  0
 20 21  2  0
 21 22  1  0
 22 23  2  0
 22 24  1  0
 23 25  1  0
 27 25  1  0
 25 28  2  0
 26 27  2  0
 26 30  1  0
 28 29  1  0
 29 30  2  0
 29 31  1  0
 31 32  1  0
 31 33  2  0
  8 34  1  0
  9 35  1  0
 10 36  1  0
 13 37  1  0
 13 38  1  0
 14 39  1  0
 14 40  1  0
 17 41  1  0
 20 42  1  0
 21 43  1  0
 24 44  1  0
 24 45  1  0
 24 46  1  0
 26 47  1  0
 27 48  1  0
 28 49  1  0
 30 50  1  0
 32 51  1  0
M  END
> <Uni-Dock RESULT> 
ENERGY=   -5.197  LOWER_BOUND=    7.103  UPPER_BOUND=    9.802
INTER + INTRA:          -5.197
INTER:                  -5.197
INTRA:                   0.000
UNBOUND:                 0.000

$$$$

     RDKit          3D

 51 55  0  0  0  0  0  0  0  0999 V2000
   39.3023   16.0712   15.1858 O   0  0  0  0  0  0  0  0  0  0  0  0
   39.0220   15.7945   16.5646 C   0  0  0  0  0  0  0  0  0  0  0  0
   39.1398   14.4151   16.9405 O   0  0  0  0  0  0  0  0  0  0  0  0
   39.4968   13.8758   15.7452 C   0  0  0  0  0  0  0  0  0  0  0  0
   39.5888   14.8164   14.7474 C   0  0  0  0  0  0  0  0  0  0  0  0
   37.7602   16.2085   16.8393 F   0  0  0  0  0  0  0  0  0  0  0  0
   39.8681   16.5243   17.3328 F   0  0  0  0  0  0  0  0  0  0  0  0
   39.9398   14.4748   13.4575 C   0  0  0  0  0  0  0  0  0  0  0  0
   39.7526   12.5454   15.5071 C   0  0  0  0  0  0  0  0  0  0  0  0
   40.1099   12.1759   14.2049 C   0  0  0  0  0  0  0  0  0  0  0  0
   40.2056   13.1248   13.1542 C   0  0  0  0  0  0  0  0  0  0  0  0
   40.6102   12.7110   11.7407 C   0  0  0  0  0  0  0  0  0  0  0  0
   39.5893   12.9479   10.6275 C   0  0  0  0  0  0  0  0  0  0  0  0
   39.8723   11.5503   11.0746 C   0  0  0  0  0  0  0  0  0  0  0  0
   42.0666   12.9231   11.3895 C   0  0  0  0  0  0  0  0  0  0  0  0
   42.4097   13.9685   10.8553 O   0  0  0  0  0  0  0  0  0  0  0  0
   42.8600   11.8627   11.7391 N   0  0  0  0  0  0  0  0  0  0  0  0
   44.2365   11.7230   11.5829 C   0  0  0  0  0  0  0  0  0  0  0  0
   44.7041   10.5424   12.0367 N   0  0  0  0  0  0  0  0  0  0  0  0
   45.0593   12.6851   11.0264 C   0  0  0  0  0  0  0  0  0  0  0  0
   46.4226   12.4198   10.9265 C   0  0  0  0  0  0  0  0  0  0  0  0
   46.9376   11.2016   11.3796 C   0  0  0  0  0  0  0  0  0  0  0  0
   46.0384   10.2936   11.9510 C   0  0  0  0  0  0  0  0  0  0  0  0
   48.4085   10.9307   11.2578 C   0  0  0  0  0  0  0  0  0  0  0  0
   46.4317    8.9877   12.5033 C   0  0  0  0  0  0  0  0  0  0  0  0
   46.2683    6.5523   12.4758 C   0  0  0  0  0  0  0  0  0  0  0  0
   45.9099    7.8006   11.9615 C   0  0  0  0  0  0  0  0  0  0  0  0
   47.3100    8.8878   13.5950 C   0  0  0  0  0  0  0  0  0  0  0  0
   47.6745    7.6378   14.1159 C   0  0  0  0  0  0  0  0  0  0  0  0
   47.1526    6.4695   13.5504 C   0  0  0  0  0  0  0  0  0  0  0  0
   48.6142    7.6047   15.2622 C   0  0  0  0  0  0  0  0  0  0  0  0
   48.8568    6.3584   15.7046 O   0  0  0  0  0  0  0  0  0  0  0  0
   49.1380    8.5728   15.7814 O   0  0  0  0  0  0  0  0  0  0  0  0
   40.0169   15.2390   12.6885 H   0  0  0  0  0  0  0  0  0  0  0  0
   39.6826   11.8089   16.3002 H   0  0  0  0  0  0  0  0  0  0  0  0
   40.3191   11.1270   14.0012 H   0  0  0  0  0  0  0  0  0  0  0  0
   38.6273   13.3782   10.8831 H   0  0  0  0  0  0  0  0  0  0  0  0
   39.9598   13.2623    9.6571 H   0  0  0  0  0  0  0  0  0  0  0  0
   39.0906   11.0356   11.6221 H   0  0  0  0  0  0  0  0  0  0  0  0
   40.4170   10.9094   10.3892 H   0  0  0  0  0  0  0  0  0  0  0  0
   42.4378   11.0615   12.1851 H   0  0  0  0  0  0  0  0  0  0  0  0
   44.6810   13.6347   10.6675 H   0  0  0  0  0  0  0  0  0  0  0  0
   47.0762   13.1709   10.4885 H   0  0  0  0  0  0  0  0  0  0  0  0
   48.8715   11.5937   10.5186 H   0  0  0  0  0  0  0  0  0  0  0  0
   48.5939    9.9061   10.9199 H   0  0  0  0  0  0  0  0  0  0  0  0
   48.9063   11.0955   12.2181 H   0  0  0  0  0  0  0  0  0  0  0  0
   45.8543    5.6465   12.0396 H   0  0  0  0  0  0  0  0  0  0  0  0
   45.2117    7.8519   11.1271 H   0  0  0  0  0  0  0  0  0  0  0  0
   47.7054    9.7933   14.0540 H   0  0  0  0  0  0  0  0  0  0  0  0
   47.4236    5.4922   13.9423 H   0  0  0  0  0  0  0  0  0  0  0  0
   49.4780    6.4913   16.4512 H   0  0  0  0  0  0  0  0  0  0  0  0
  1  2  1  0
  1  5  1  0
  2  3  1  0
  3  4  1  0
  2  6  1  0
  2  7  1  0
  8  5  1  0
  5  4  2  0
  4  9  1  0
  8 11  2  0
  9 10  2  0
 10 11  1  0
 11 12  1  0
 12 13  1  0
 13 14  1  0
 14 12  1  0
 12 15  1  0
 15 16  2  0
 15 17  1  0
 17 18  1  0
 19 18  2  0
 18 20  1  0
 19 23  1  0
 20 21  2  0
 21 22  1  0
 22 23  2  0
 22 24  1  0
 23 25  1  0
 27 25  1  0
 25 28  2  0
 26 27  2  0
 26 30  1  0
 28 29  1  0
 29 30  2  0
 29 31  1  0
 31 32  1  0
 31 33  2  0
  8 34  1  0
  9 35  1  0
 10 36  1  0
 13 37  1  0
 13 38  1  0
 14 39  1  0
 14 40  1  0
 17 41  1  0
 20 42  1  0
 21 43  1  0
 24 44  1  0
 24 45  1  0
 24 46  1  0
 26 47  1  0
 27 48  1  0
 28 49  1  0
 30 50  1  0
 32 51  1  0
M  END
> <Uni-Dock RESULT> 
ENERGY=   -4.809  LOWER_BOUND=    7.955  UPPER_BOUND=   12.281
INTER + INTRA:          -4.809
INTER:                  -4.809
INTRA:                   0.000
UNBOUND:                 0.000

$$$$

     RDKit          3D

 51 55  0  0  0  0  0  0  0  0999 V2000
   48.8664   12.0073   19.9271 O   0  0  0  0  0  0  0  0  0  0  0  0
   48.0571   13.0199   20.5401 C   0  0  0  0  0  0  0  0  0  0  0  0
   47.3930   13.9006   19.6228 O   0  0  0  0  0  0  0  0  0  0  0  0
   47.8310   13.3853   18.4440 C   0  0  0  0  0  0  0  0  0  0  0  0
   48.6689   12.3096   18.6162 C   0  0  0  0  0  0  0  0  0  0  0  0
   48.8433   13.7638   21.3571 F   0  0  0  0  0  0  0  0  0  0  0  0
   47.1205   12.4162   21.3126 F   0  0  0  0  0  0  0  0  0  0  0  0
   49.2221   11.6410   17.5435 C   0  0  0  0  0  0  0  0  0  0  0  0
   47.5005   13.8479   17.1914 C   0  0  0  0  0  0  0  0  0  0  0  0
   48.0512   13.1849   16.0883 C   0  0  0  0  0  0  0  0  0  0  0  0
   48.9245   12.0765   16.2370 C   0  0  0  0  0  0  0  0  0  0  0  0
   49.5076   11.3526   15.0249 C   0  0  0  0  0  0  0  0  0  0  0  0
   51.0291   11.3614   14.8753 C   0  0  0  0  0  0  0  0  0  0  0  0
   50.1977   12.1764   13.9384 C   0  0  0  0  0  0  0  0  0  0  0  0
   48.7867   10.0890   14.6094 C   0  0  0  0  0  0  0  0  0  0  0  0
   49.1598    9.0114   15.0517 O   0  0  0  0  0  0  0  0  0  0  0  0
   47.7474   10.3254   13.7491 N   0  0  0  0  0  0  0  0  0  0  0  0
   46.8661    9.4079   13.1835 C   0  0  0  0  0  0  0  0  0  0  0  0
   45.9534    9.9804   12.3726 N   0  0  0  0  0  0  0  0  0  0  0  0
   46.9019    8.0457   13.4190 C   0  0  0  0  0  0  0  0  0  0  0  0
   45.9615    7.2350   12.7884 C   0  0  0  0  0  0  0  0  0  0  0  0
   45.0076    7.7967   11.9346 C   0  0  0  0  0  0  0  0  0  0  0  0
   45.0274    9.1868   11.7707 C   0  0  0  0  0  0  0  0  0  0  0  0
   44.0062    6.9067   11.2588 C   0  0  0  0  0  0  0  0  0  0  0  0
   44.0696    9.9275   10.9346 C   0  0  0  0  0  0  0  0  0  0  0  0
   43.6249   11.3951    9.0354 C   0  0  0  0  0  0  0  0  0  0  0  0
   44.5189   10.6820    9.8373 C   0  0  0  0  0  0  0  0  0  0  0  0
   42.6940    9.9265   11.2192 C   0  0  0  0  0  0  0  0  0  0  0  0
   41.7907   10.6397   10.4177 C   0  0  0  0  0  0  0  0  0  0  0  0
   42.2608   11.3721    9.3225 C   0  0  0  0  0  0  0  0  0  0  0  0
   40.3513   10.5866   10.7688 C   0  0  0  0  0  0  0  0  0  0  0  0
   39.5869   11.3411    9.9599 O   0  0  0  0  0  0  0  0  0  0  0  0
   39.8641    9.9432   11.6797 O   0  0  0  0  0  0  0  0  0  0  0  0
   49.8728   10.7857   17.7057 H   0  0  0  0  0  0  0  0  0  0  0  0
   46.8349   14.6947   17.0626 H   0  0  0  0  0  0  0  0  0  0  0  0
   47.7963   13.5370   15.0900 H   0  0  0  0  0  0  0  0  0  0  0  0
   51.6243   11.8864   15.6142 H   0  0  0  0  0  0  0  0  0  0  0  0
   51.5069   10.4655   14.4921 H   0  0  0  0  0  0  0  0  0  0  0  0
   50.2454   13.2548   14.0412 H   0  0  0  0  0  0  0  0  0  0  0  0
   50.1344   11.8404   12.9087 H   0  0  0  0  0  0  0  0  0  0  0  0
   47.5471   11.2755   13.4729 H   0  0  0  0  0  0  0  0  0  0  0  0
   47.6333    7.5895   14.0752 H   0  0  0  0  0  0  0  0  0  0  0  0
   45.9841    6.1623   12.9673 H   0  0  0  0  0  0  0  0  0  0  0  0
   44.3451    5.8649   11.2537 H   0  0  0  0  0  0  0  0  0  0  0  0
   43.8649    7.1958   10.2124 H   0  0  0  0  0  0  0  0  0  0  0  0
   43.0466    6.9473   11.7828 H   0  0  0  0  0  0  0  0  0  0  0  0
   43.9942   11.9702    8.1899 H   0  0  0  0  0  0  0  0  0  0  0  0
   45.5831   10.7148    9.6072 H   0  0  0  0  0  0  0  0  0  0  0  0
   42.3219    9.3750   12.0819 H   0  0  0  0  0  0  0  0  0  0  0  0
   41.5748   11.9317    8.6913 H   0  0  0  0  0  0  0  0  0  0  0  0
   38.6796   11.2134   10.3084 H   0  0  0  0  0  0  0  0  0  0  0  0
  1  2  1  0
  1  5  1  0
  2  3  1  0
  3  4  1  0
  2  6  1  0
  2  7  1  0
  8  5  1  0
  5  4  2  0
  4  9  1  0
  8 11  2  0
  9 10  2  0
 10 11  1  0
 11 12  1  0
 12 13  1  0
 13 14  1  0
 14 12  1  0
 12 15  1  0
 15 16  2  0
 15 17  1  0
 17 18  1  0
 19 18  2  0
 18 20  1  0
 19 23  1  0
 20 21  2  0
 21 22  1  0
 22 23  2  0
 22 24  1  0
 23 25  1  0
 27 25  1  0
 25 28  2  0
 26 27  2  0
 26 30  1  0
 28 29  1  0
 29 30  2  0
 29 31  1  0
 31 32  1  0
 31 33  2  0
  8 34  1  0
  9 35  1  0
 10 36  1  0
 13 37  1  0
 13 38  1  0
 14 39  1  0
 14 40  1  0
 17 41  1  0
 20 42  1  0
 21 43  1  0
 24 44  1  0
 24 45  1  0
 24 46  1  0
 26 47  1  0
 27 48  1  0
 28 49  1  0
 30 50  1  0
 32 51  1  0
M  END
> <Uni-Dock RESULT> 
ENERGY=   -4.736  LOWER_BOUND=    7.149  UPPER_BOUND=    9.554
INTER + INTRA:          -4.736
INTER:                  -4.736
INTRA:                   0.000
UNBOUND:                 0.000

$$$$

     RDKit          3D

 51 55  0  0  0  0  0  0  0  0999 V2000
   52.4499    3.3812   19.1047 O   0  0  0  0  0  0  0  0  0  0  0  0
   53.8615    3.5785   18.9470 C   0  0  0  0  0  0  0  0  0  0  0  0
   54.2275    4.6580   18.0760 O   0  0  0  0  0  0  0  0  0  0  0  0
   52.9931    5.0984   17.7166 C   0  0  0  0  0  0  0  0  0  0  0  0
   51.9824    4.3728   18.3004 C   0  0  0  0  0  0  0  0  0  0  0  0
   54.4053    2.4337   18.4645 F   0  0  0  0  0  0  0  0  0  0  0  0
   54.4053    3.8064   20.1680 F   0  0  0  0  0  0  0  0  0  0  0  0
   50.6533    4.6602   18.0662 C   0  0  0  0  0  0  0  0  0  0  0  0
   52.7290    6.1500   16.8701 C   0  0  0  0  0  0  0  0  0  0  0  0
   51.3871    6.4589   16.6176 C   0  0  0  0  0  0  0  0  0  0  0  0
   50.3239    5.7223   17.2010 C   0  0  0  0  0  0  0  0  0  0  0  0
   48.8637    6.0784   16.9287 C   0  0  0  0  0  0  0  0  0  0  0  0
   48.0047    5.0152   16.2436 C   0  0  0  0  0  0  0  0  0  0  0  0
   48.4033    6.2364   15.4800 C   0  0  0  0  0  0  0  0  0  0  0  0
   48.1897    6.9254   17.9857 C   0  0  0  0  0  0  0  0  0  0  0  0
   47.5720    6.3795   18.8892 O   0  0  0  0  0  0  0  0  0  0  0  0
   48.3719    8.2688   17.7897 N   0  0  0  0  0  0  0  0  0  0  0  0
   47.9124    9.3274   18.5686 C   0  0  0  0  0  0  0  0  0  0  0  0
   48.2717   10.5346   18.0871 N   0  0  0  0  0  0  0  0  0  0  0  0
   47.1666    9.1788   19.7237 C   0  0  0  0  0  0  0  0  0  0  0  0
   46.7674   10.3220   20.4113 C   0  0  0  0  0  0  0  0  0  0  0  0
   47.1160   11.5885   19.9333 C   0  0  0  0  0  0  0  0  0  0  0  0
   47.8926   11.6478   18.7700 C   0  0  0  0  0  0  0  0  0  0  0  0
   46.6714   12.8094   20.6840 C   0  0  0  0  0  0  0  0  0  0  0  0
   48.3670   12.9019   18.1641 C   0  0  0  0  0  0  0  0  0  0  0  0
   48.4237   14.4360   16.2662 C   0  0  0  0  0  0  0  0  0  0  0  0
   47.9795   13.2520   16.8593 C   0  0  0  0  0  0  0  0  0  0  0  0
   49.2346   13.7664   18.8520 C   0  0  0  0  0  0  0  0  0  0  0  0
   49.6839   14.9571   18.2626 C   0  0  0  0  0  0  0  0  0  0  0  0
   49.2729   15.2906   16.9677 C   0  0  0  0  0  0  0  0  0  0  0  0
   50.5895   15.8285   19.0491 C   0  0  0  0  0  0  0  0  0  0  0  0
   50.9897   16.9172   18.3691 O   0  0  0  0  0  0  0  0  0  0  0  0
   50.9588   15.6253   20.1908 O   0  0  0  0  0  0  0  0  0  0  0  0
   49.8722    4.0788   18.5491 H   0  0  0  0  0  0  0  0  0  0  0  0
   53.5315    6.7214   16.4163 H   0  0  0  0  0  0  0  0  0  0  0  0
   51.1617    7.2909   15.9525 H   0  0  0  0  0  0  0  0  0  0  0  0
   48.4621    4.0715   15.9675 H   0  0  0  0  0  0  0  0  0  0  0  0
   46.9700    4.9193   16.5565 H   0  0  0  0  0  0  0  0  0  0  0  0
   49.1225    6.1090   14.6787 H   0  0  0  0  0  0  0  0  0  0  0  0
   47.6253    6.9584   15.2550 H   0  0  0  0  0  0  0  0  0  0  0  0
   48.9167    8.5785   16.9983 H   0  0  0  0  0  0  0  0  0  0  0  0
   46.8840    8.2071   20.1106 H   0  0  0  0  0  0  0  0  0  0  0  0
   46.1792   10.2135   21.3198 H   0  0  0  0  0  0  0  0  0  0  0  0
   45.8344   12.5781   21.3521 H   0  0  0  0  0  0  0  0  0  0  0  0
   46.3201   13.5874   19.9986 H   0  0  0  0  0  0  0  0  0  0  0  0
   47.4916   13.2009   21.2932 H   0  0  0  0  0  0  0  0  0  0  0  0
   48.1093   14.6883   15.2564 H   0  0  0  0  0  0  0  0  0  0  0  0
   47.3229   12.5890   16.2974 H   0  0  0  0  0  0  0  0  0  0  0  0
   49.5754   13.5045   19.8531 H   0  0  0  0  0  0  0  0  0  0  0  0
   49.6123   16.2091   16.4952 H   0  0  0  0  0  0  0  0  0  0  0  0
   51.5746   17.3863   19.0006 H   0  0  0  0  0  0  0  0  0  0  0  0
  1  2  1  0
  1  5  1  0
  2  3  1  0
  3  4  1  0
  2  6  1  0
  2  7  1  0
  8  5  1  0
  5  4  2  0
  4  9  1  0
  8 11  2  0
  9 10  2  0
 10 11  1  0
 11 12  1  0
 12 13  1  0
 13 14  1  0
 14 12  1  0
 12 15  1  0
 15 16  2  0
 15 17  1  0
 17 18  1  0
 19 18  2  0
 18 20  1  0
 19 23  1  0
 20 21  2  0
 21 22  1  0
 22 23  2  0
 22 24  1  0
 23 25  1  0
 27 25  1  0
 25 28  2  0
 26 27  2  0
 26 30  1  0
 28 29  1  0
 29 30  2  0
 29 31  1  0
 31 32  1  0
 31 33  2  0
  8 34  1  0
  9 35  1  0
 10 36  1  0
 13 37  1  0
 13 38  1  0
 14 39  1  0
 14 40  1  0
 17 41  1  0
 20 42  1  0
 21 43  1  0
 24 44  1  0
 24 45  1  0
 24 46  1  0
 26 47  1  0
 27 48  1  0
 28 49  1  0
 30 50  1  0
 32 51  1  0
M  END
> <Uni-Dock RESULT> 
ENERGY=   -4.674  LOWER_BOUND=    8.049  UPPER_BOUND=   11.025
INTER + INTRA:          -4.674
INTER:                  -4.674
INTRA:                   0.000
UNBOUND:                 0.000

$$$$

     RDKit          3D

 51 55  0  0  0  0  0  0  0  0999 V2000
   44.3436    5.4759   12.1446 O   0  0  0  0  0  0  0  0  0  0  0  0
   43.2015    5.9414   11.4131 C   0  0  0  0  0  0  0  0  0  0  0  0
   43.1894    7.3504   11.1438 O   0  0  0  0  0  0  0  0  0  0  0  0
   44.3568    7.7130   11.7375 C   0  0  0  0  0  0  0  0  0  0  0  0
   45.0130    6.6481   12.3070 C   0  0  0  0  0  0  0  0  0  0  0  0
   42.0838    5.6283   12.1143 F   0  0  0  0  0  0  0  0  0  0  0  0
   43.1434    5.2765   10.2329 F   0  0  0  0  0  0  0  0  0  0  0  0
   46.2188    6.8030   12.9596 C   0  0  0  0  0  0  0  0  0  0  0  0
   44.8717    8.9875   11.7883 C   0  0  0  0  0  0  0  0  0  0  0  0
   46.0941    9.1681   12.4463 C   0  0  0  0  0  0  0  0  0  0  0  0
   46.7896    8.0881   13.0491 C   0  0  0  0  0  0  0  0  0  0  0  0
   48.1298    8.2959   13.7519 C   0  0  0  0  0  0  0  0  0  0  0  0
   48.1910    7.9674   15.2438 C   0  0  0  0  0  0  0  0  0  0  0  0
   48.2441    9.3955   14.8069 C   0  0  0  0  0  0  0  0  0  0  0  0
   49.3566    7.9696   12.9287 C   0  0  0  0  0  0  0  0  0  0  0  0
   49.8416    6.8485   12.9918 O   0  0  0  0  0  0  0  0  0  0  0  0
   49.7881    9.0263   12.1715 N   0  0  0  0  0  0  0  0  0  0  0  0
   50.8655    9.0774   11.2910 C   0  0  0  0  0  0  0  0  0  0  0  0
   51.0134   10.2824   10.7042 N   0  0  0  0  0  0  0  0  0  0  0  0
   51.7074    8.0126   11.0269 C   0  0  0  0  0  0  0  0  0  0  0  0
   52.7514    8.1961   10.1239 C   0  0  0  0  0  0  0  0  0  0  0  0
   52.9373    9.4359    9.5054 C   0  0  0  0  0  0  0  0  0  0  0  0
   52.0252   10.4528    9.8115 C   0  0  0  0  0  0  0  0  0  0  0  0
   54.0717    9.6169    8.5399 C   0  0  0  0  0  0  0  0  0  0  0  0
   52.0675   11.7983    9.2174 C   0  0  0  0  0  0  0  0  0  0  0  0
   52.2834   14.2148    9.4862 C   0  0  0  0  0  0  0  0  0  0  0  0
   52.2454   12.9296   10.0320 C   0  0  0  0  0  0  0  0  0  0  0  0
   51.9059   11.9953    7.8360 C   0  0  0  0  0  0  0  0  0  0  0  0
   51.9438   13.2828    7.2813 C   0  0  0  0  0  0  0  0  0  0  0  0
   52.1361   14.3924    8.1113 C   0  0  0  0  0  0  0  0  0  0  0  0
   51.7771   13.4176    5.8144 C   0  0  0  0  0  0  0  0  0  0  0  0
   51.7865   14.6973    5.4017 O   0  0  0  0  0  0  0  0  0  0  0  0
   51.6444   12.5002    5.0257 O   0  0  0  0  0  0  0  0  0  0  0  0
   46.7239    5.9432   13.3918 H   0  0  0  0  0  0  0  0  0  0  0  0
   44.3508    9.8227   11.3328 H   0  0  0  0  0  0  0  0  0  0  0  0
   46.5166   10.1705   12.4919 H   0  0  0  0  0  0  0  0  0  0  0  0
   47.2914    7.6211   15.7404 H   0  0  0  0  0  0  0  0  0  0  0  0
   49.0990    7.5127   15.6269 H   0  0  0  0  0  0  0  0  0  0  0  0
   47.3801   10.0140   15.0232 H   0  0  0  0  0  0  0  0  0  0  0  0
   49.1898    9.9154   14.9194 H   0  0  0  0  0  0  0  0  0  0  0  0
   49.2806    9.8979   12.2132 H   0  0  0  0  0  0  0  0  0  0  0  0
   51.5825    7.0442   11.4962 H   0  0  0  0  0  0  0  0  0  0  0  0
   53.4189    7.3638    9.9120 H   0  0  0  0  0  0  0  0  0  0  0  0
   54.8341    8.8423    8.6781 H   0  0  0  0  0  0  0  0  0  0  0  0
   54.5705   10.5791    8.6939 H   0  0  0  0  0  0  0  0  0  0  0  0
   53.7082    9.5533    7.5099 H   0  0  0  0  0  0  0  0  0  0  0  0
   52.4246   15.0759   10.1349 H   0  0  0  0  0  0  0  0  0  0  0  0
   52.3535   12.8052   11.1087 H   0  0  0  0  0  0  0  0  0  0  0  0
   51.7358   11.1384    7.1850 H   0  0  0  0  0  0  0  0  0  0  0  0
   52.1670   15.3977    7.6984 H   0  0  0  0  0  0  0  0  0  0  0  0
   51.6645   14.6316    4.4312 H   0  0  0  0  0  0  0  0  0  0  0  0
  1  2  1  0
  1  5  1  0
  2  3  1  0
  3  4  1  0
  2  6  1  0
  2  7  1  0
  8  5  1  0
  5  4  2  0
  4  9  1  0
  8 11  2  0
  9 10  2  0
 10 11  1  0
 11 12  1  0
 12 13  1  0
 13 14  1  0
 14 12  1  0
 12 15  1  0
 15 16  2  0
 15 17  1  0
 17 18  1  0
 19 18  2  0
 18 20  1  0
 19 23  1  0
 20 21  2  0
 21 22  1  0
 22 23  2  0
 22 24  1  0
 23 25  1  0
 27 25  1  0
 25 28  2  0
 26 27  2  0
 26 30  1  0
 28 29  1  0
 29 30  2  0
 29 31  1  0
 31 32  1  0
 31 33  2  0
  8 34  1  0
  9 35  1  0
 10 36  1  0
 13 37  1  0
 13 38  1  0
 14 39  1  0
 14 40  1  0
 17 41  1  0
 20 42  1  0
 21 43  1  0
 24 44  1  0
 24 45  1  0
 24 46  1  0
 26 47  1  0
 27 48  1  0
 28 49  1  0
 30 50  1  0
 32 51  1  0
M  END
> <Uni-Dock RESULT> 
ENERGY=   -4.634  LOWER_BOUND=    4.459  UPPER_BOUND=    9.669
INTER + INTRA:          -4.634
INTER:                  -4.634
INTRA:                   0.000
UNBOUND:                 0.000

$$$$

     RDKit          3D

 51 55  0  0  0  0  0  0  0  0999 V2000
   52.0456    7.6952   10.5800 O   0  0  0  0  0  0  0  0  0  0  0  0
   52.7920    8.8294   10.1188 C   0  0  0  0  0  0  0  0  0  0  0  0
   52.2590   10.1030   10.5085 O   0  0  0  0  0  0  0  0  0  0  0  0
   51.1713    9.6961   11.2143 C   0  0  0  0  0  0  0  0  0  0  0  0
   51.0491    8.3278   11.2549 C   0  0  0  0  0  0  0  0  0  0  0  0
   52.8512    8.7844    8.7647 F   0  0  0  0  0  0  0  0  0  0  0  0
   54.0608    8.7316   10.5870 F   0  0  0  0  0  0  0  0  0  0  0  0
   50.0115    7.7109   11.9232 C   0  0  0  0  0  0  0  0  0  0  0  0
   50.2647   10.5194   11.8408 C   0  0  0  0  0  0  0  0  0  0  0  0
   49.2031    9.9149   12.5245 C   0  0  0  0  0  0  0  0  0  0  0  0
   49.0486    8.5053   12.5767 C   0  0  0  0  0  0  0  0  0  0  0  0
   47.8937    7.8575   13.3380 C   0  0  0  0  0  0  0  0  0  0  0  0
   46.9104    7.0152   12.5249 C   0  0  0  0  0  0  0  0  0  0  0  0
   46.4696    8.3383   13.0620 C   0  0  0  0  0  0  0  0  0  0  0  0
   48.2222    7.3698   14.7320 C   0  0  0  0  0  0  0  0  0  0  0  0
   48.5796    6.2115   14.8946 O   0  0  0  0  0  0  0  0  0  0  0  0
   48.0759    8.3417   15.6861 N   0  0  0  0  0  0  0  0  0  0  0  0
   48.3062    8.2514   17.0562 C   0  0  0  0  0  0  0  0  0  0  0  0
   48.0605    9.4038   17.7119 N   0  0  0  0  0  0  0  0  0  0  0  0
   48.7461    7.1086   17.6989 C   0  0  0  0  0  0  0  0  0  0  0  0
   48.9365    7.1505   19.0777 C   0  0  0  0  0  0  0  0  0  0  0  0
   48.6821    8.3274   19.7879 C   0  0  0  0  0  0  0  0  0  0  0  0
   48.2623    9.4445   19.0562 C   0  0  0  0  0  0  0  0  0  0  0  0
   48.8868    8.3518   21.2743 C   0  0  0  0  0  0  0  0  0  0  0  0
   47.9886   10.7607   19.6543 C   0  0  0  0  0  0  0  0  0  0  0  0
   46.4291   12.5791   20.1236 C   0  0  0  0  0  0  0  0  0  0  0  0
   46.7061   11.3287   19.5659 C   0  0  0  0  0  0  0  0  0  0  0  0
   48.9956   11.4958   20.3016 C   0  0  0  0  0  0  0  0  0  0  0  0
   48.7241   12.7514   20.8642 C   0  0  0  0  0  0  0  0  0  0  0  0
   47.4359   13.2895   20.7755 C   0  0  0  0  0  0  0  0  0  0  0  0
   49.8308   13.4681   21.5421 C   0  0  0  0  0  0  0  0  0  0  0  0
   49.4665   14.6774   22.0035 O   0  0  0  0  0  0  0  0  0  0  0  0
   50.9636   13.0493   21.6923 O   0  0  0  0  0  0  0  0  0  0  0  0
   49.9433    6.6265   11.9504 H   0  0  0  0  0  0  0  0  0  0  0  0
   50.3697   11.5985   11.8086 H   0  0  0  0  0  0  0  0  0  0  0  0
   48.4791   10.5530   13.0285 H   0  0  0  0  0  0  0  0  0  0  0  0
   47.0592    6.9254   11.4545 H   0  0  0  0  0  0  0  0  0  0  0  0
   46.5122    6.1157   12.9833 H   0  0  0  0  0  0  0  0  0  0  0  0
   46.3095    9.1370   12.3463 H   0  0  0  0  0  0  0  0  0  0  0  0
   45.7492    8.3309   13.8733 H   0  0  0  0  0  0  0  0  0  0  0  0
   47.7789    9.2642   15.4035 H   0  0  0  0  0  0  0  0  0  0  0  0
   48.9475    6.1859   17.1683 H   0  0  0  0  0  0  0  0  0  0  0  0
   49.2809    6.2553   19.5907 H   0  0  0  0  0  0  0  0  0  0  0  0
   48.8988    7.3370   21.6871 H   0  0  0  0  0  0  0  0  0  0  0  0
   48.0725    8.8849   21.7755 H   0  0  0  0  0  0  0  0  0  0  0  0
   49.8413    8.8274   21.5190 H   0  0  0  0  0  0  0  0  0  0  0  0
   45.4290   12.9985   20.0456 H   0  0  0  0  0  0  0  0  0  0  0  0
   45.9128   10.7875   19.0521 H   0  0  0  0  0  0  0  0  0  0  0  0
   50.0063   11.0928   20.3577 H   0  0  0  0  0  0  0  0  0  0  0  0
   47.2082   14.2621   21.2051 H   0  0  0  0  0  0  0  0  0  0  0  0
   50.2847   15.0278   22.4143 H   0  0  0  0  0  0  0  0  0  0  0  0
  1  2  1  0
  1  5  1  0
  2  3  1  0
  3  4  1  0
  2  6  1  0
  2  7  1  0
  8  5  1  0
  5  4  2  0
  4  9  1  0
  8 11  2  0
  9 10  2  0
 10 11  1  0
 11 12  1  0
 12 13  1  0
 13 14  1  0
 14 12  1  0
 12 15  1  0
 15 16  2  0
 15 17  1  0
 17 18  1  0
 19 18  2  0
 18 20  1  0
 19 23  1  0
 20 21  2  0
 21 22  1  0
 22 23  2  0
 22 24  1  0
 23 25  1  0
 27 25  1  0
 25 28  2  0
 26 27  2  0
 26 30  1  0
 28 29  1  0
 29 30  2  0
 29 31  1  0
 31 32  1  0
 31 33  2  0
  8 34  1  0
  9 35  1  0
 10 36  1  0
 13 37  1  0
 13 38  1  0
 14 39  1  0
 14 40  1  0
 17 41  1  0
 20 42  1  0
 21 43  1  0
 24 44  1  0
 24 45  1  0
 24 46  1  0
 26 47  1  0
 27 48  1  0
 28 49  1  0
 30 50  1  0
 32 51  1  0
M  END
> <Uni-Dock RESULT> 
ENERGY=   -4.416  LOWER_BOUND=    6.051  UPPER_BOUND=    8.553
INTER + INTRA:          -4.416
INTER:                  -4.416
INTRA:                   0.000
UNBOUND:                 0.000

$$$$
