
     RDKit          3D

 51 55  0  0  0  0  0  0  0  0999 V2000
   46.6136    4.1814    6.4993 O   0  0  0  0  0  0  0  0  0  0  0  0
   46.9175    2.9133    5.9004 C   0  0  0  0  0  0  0  0  0  0  0  0
   46.5638    1.7713    6.6926 O   0  0  0  0  0  0  0  0  0  0  0  0
   46.0479    2.3922    7.7855 C   0  0  0  0  0  0  0  0  0  0  0  0
   46.0762    3.7624    7.6768 C   0  0  0  0  0  0  0  0  0  0  0  0
   46.2705    2.8329    4.7114 F   0  0  0  0  0  0  0  0  0  0  0  0
   48.2488    2.8672    5.6462 F   0  0  0  0  0  0  0  0  0  0  0  0
   45.6004    4.5854    8.6788 C   0  0  0  0  0  0  0  0  0  0  0  0
   45.5410    1.7703    8.9024 C   0  0  0  0  0  0  0  0  0  0  0  0
   45.0517    2.5849    9.9299 C   0  0  0  0  0  0  0  0  0  0  0  0
   45.0654    4.0018    9.8431 C   0  0  0  0  0  0  0  0  0  0  0  0
   44.5341    4.8473   10.9998 C   0  0  0  0  0  0  0  0  0  0  0  0
   43.0264    4.7915   11.2527 C   0  0  0  0  0  0  0  0  0  0  0  0
   43.6298    6.0424   10.7006 C   0  0  0  0  0  0  0  0  0  0  0  0
   45.4311    4.9317   12.2198 C   0  0  0  0  0  0  0  0  0  0  0  0
   45.2071    4.1941   13.1674 O   0  0  0  0  0  0  0  0  0  0  0  0
   46.4392    5.8551   12.0643 N   0  0  0  0  0  0  0  0  0  0  0  0
   47.3998    6.1746   13.0294 C   0  0  0  0  0  0  0  0  0  0  0  0
   47.3170    5.6739   14.2707 N   0  0  0  0  0  0  0  0  0  0  0  0
   48.4222    7.0329   12.6530 C   0  0  0  0  0  0  0  0  0  0  0  0
   49.4101    7.3497   13.5808 C   0  0  0  0  0  0  0  0  0  0  0  0
   49.3589    6.8121   14.8712 C   0  0  0  0  0  0  0  0  0  0  0  0
   48.2641    5.9980   15.1901 C   0  0  0  0  0  0  0  0  0  0  0  0
   50.4562    7.1445   15.8396 C   0  0  0  0  0  0  0  0  0  0  0  0
   48.0204    5.4026   16.5178 C   0  0  0  0  0  0  0  0  0  0  0  0
   47.5093    3.4362   17.8806 C   0  0  0  0  0  0  0  0  0  0  0  0
   47.7504    4.0270   16.6371 C   0  0  0  0  0  0  0  0  0  0  0  0
   48.0069    6.1777   17.6913 C   0  0  0  0  0  0  0  0  0  0  0  0
   47.7697    5.5914   18.9438 C   0  0  0  0  0  0  0  0  0  0  0  0
   47.5240    4.2170   19.0343 C   0  0  0  0  0  0  0  0  0  0  0  0
   47.7671    6.3880   20.1947 C   0  0  0  0  0  0  0  0  0  0  0  0
   48.0832    7.6801   19.9923 O   0  0  0  0  0  0  0  0  0  0  0  0
   47.5292    5.9663   21.3112 O   0  0  0  0  0  0  0  0  0  0  0  0
   45.6376    5.6627    8.5569 H   0  0  0  0  0  0  0  0  0  0  0  0
   45.5224    0.6898    8.9882 H   0  0  0  0  0  0  0  0  0  0  0  0
   44.6515    2.1161   10.8300 H   0  0  0  0  0  0  0  0  0  0  0  0
   42.6861    4.7932   12.2839 H   0  0  0  0  0  0  0  0  0  0  0  0
   42.4105    4.1883   10.5953 H   0  0  0  0  0  0  0  0  0  0  0  0
   43.6757    6.9041   11.3578 H   0  0  0  0  0  0  0  0  0  0  0  0
   43.3952    6.2916    9.6720 H   0  0  0  0  0  0  0  0  0  0  0  0
   46.5157    6.3061   11.1676 H   0  0  0  0  0  0  0  0  0  0  0  0
   48.4797    7.4424   11.6506 H   0  0  0  0  0  0  0  0  0  0  0  0
   50.2267    8.0049   13.2878 H   0  0  0  0  0  0  0  0  0  0  0  0
   51.3863    7.3801   15.3085 H   0  0  0  0  0  0  0  0  0  0  0  0
   50.1798    8.0134   16.4451 H   0  0  0  0  0  0  0  0  0  0  0  0
   50.6832    6.2972   16.4944 H   0  0  0  0  0  0  0  0  0  0  0  0
   47.3014    2.3706   17.9419 H   0  0  0  0  0  0  0  0  0  0  0  0
   47.7131    3.4082   15.7391 H   0  0  0  0  0  0  0  0  0  0  0  0
   48.1652    7.2518   17.6238 H   0  0  0  0  0  0  0  0  0  0  0  0
   47.3323    3.7531   20.0005 H   0  0  0  0  0  0  0  0  0  0  0  0
   48.0413    8.0715   20.8910 H   0  0  0  0  0  0  0  0  0  0  0  0
  1  2  1  0
  1  5  1  0
  2  3  1  0
  3  4  1  0
  2  6  1  0
  2  7  1  0
  8  5  1  0
  5  4  2  0
  4  9  1  0
  8 11  2  0
  9 10  2  0
 10 11  1  0
 11 12  1  0
 12 13  1  0
 13 14  1  0
 14 12  1  0
 12 15  1  0
 15 16  2  0
 15 17  1  0
 17 18  1  0
 19 18  2  0
 18 20  1  0
 19 23  1  0
 20 21  2  0
 21 22  1  0
 22 23  2  0
 22 24  1  0
 23 25  1  0
 27 25  1  0
 25 28  2  0
 26 27  2  0
 26 30  1  0
 28 29  1  0
 29 30  2  0
 29 31  1  0
 31 32  1  0
 31 33  2  0
  8 34  1  0
  9 35  1  0
 10 36  1  0
 13 37  1  0
 13 38  1  0
 14 39  1  0
 14 40  1  0
 17 41  1  0
 20 42  1  0
 21 43  1  0
 24 44  1  0
 24 45  1  0
 24 46  1  0
 26 47  1  0
 27 48  1  0
 28 49  1  0
 30 50  1  0
 32 51  1  0
M  END
> <Uni-Dock RESULT> 
ENERGY=   -7.446  LOWER_BOUND=    0.000  UPPER_BOUND=    0.000
INTER + INTRA:          -7.446
INTER:                  -7.446
INTRA:                   0.000
UNBOUND:                 0.000

$$$$

     RDKit          3D

 51 55  0  0  0  0  0  0  0  0999 V2000
   51.5516    0.8468   17.8136 O   0  0  0  0  0  0  0  0  0  0  0  0
   52.9781    0.7655   17.6813 C   0  0  0  0  0  0  0  0  0  0  0  0
   53.6502    2.0300   17.6032 O   0  0  0  0  0  0  0  0  0  0  0  0
   52.5849    2.8695   17.6838 C   0  0  0  0  0  0  0  0  0  0  0  0
   51.3912    2.1977   17.8029 C   0  0  0  0  0  0  0  0  0  0  0  0
   53.4701    0.0783   18.7417 F   0  0  0  0  0  0  0  0  0  0  0  0
   53.2651    0.0538   16.5632 F   0  0  0  0  0  0  0  0  0  0  0  0
   50.1844    2.8626   17.8981 C   0  0  0  0  0  0  0  0  0  0  0  0
   52.6364    4.2433   17.6544 C   0  0  0  0  0  0  0  0  0  0  0  0
   51.4252    4.9380   17.7511 C   0  0  0  0  0  0  0  0  0  0  0  0
   50.1788    4.2705   17.8783 C   0  0  0  0  0  0  0  0  0  0  0  0
   48.8822    5.0746   17.9641 C   0  0  0  0  0  0  0  0  0  0  0  0
   48.6693    5.8969   19.2363 C   0  0  0  0  0  0  0  0  0  0  0  0
   47.8265    4.6857   18.9985 C   0  0  0  0  0  0  0  0  0  0  0  0
   48.4003    5.6874   16.6632 C   0  0  0  0  0  0  0  0  0  0  0  0
   48.6561    6.8598   16.4343 O   0  0  0  0  0  0  0  0  0  0  0  0
   47.7345    4.7792   15.8727 N   0  0  0  0  0  0  0  0  0  0  0  0
   47.1510    5.0600   14.6330 C   0  0  0  0  0  0  0  0  0  0  0  0
   47.0866    6.3190   14.1754 N   0  0  0  0  0  0  0  0  0  0  0  0
   46.6362    3.9922   13.9130 C   0  0  0  0  0  0  0  0  0  0  0  0
   46.0733    4.2329   12.6631 C   0  0  0  0  0  0  0  0  0  0  0  0
   46.0256    5.5351   12.1542 C   0  0  0  0  0  0  0  0  0  0  0  0
   46.5163    6.5658   12.9667 C   0  0  0  0  0  0  0  0  0  0  0  0
   45.4436    5.7597   10.7893 C   0  0  0  0  0  0  0  0  0  0  0  0
   46.4852    7.9982   12.6145 C   0  0  0  0  0  0  0  0  0  0  0  0
   47.6534   10.1361   12.3910 C   0  0  0  0  0  0  0  0  0  0  0  0
   47.6537    8.7757   12.7115 C   0  0  0  0  0  0  0  0  0  0  0  0
   45.3004    8.6422   12.2153 C   0  0  0  0  0  0  0  0  0  0  0  0
   45.2927   10.0065   11.8879 C   0  0  0  0  0  0  0  0  0  0  0  0
   46.4745   10.7504   11.9743 C   0  0  0  0  0  0  0  0  0  0  0  0
   44.0577   10.7007   11.4493 C   0  0  0  0  0  0  0  0  0  0  0  0
   43.0037    9.8719   11.3372 O   0  0  0  0  0  0  0  0  0  0  0  0
   43.9566   11.8853   11.1891 O   0  0  0  0  0  0  0  0  0  0  0  0
   49.2625    2.2988   17.9927 H   0  0  0  0  0  0  0  0  0  0  0  0
   53.5780    4.7717   17.5569 H   0  0  0  0  0  0  0  0  0  0  0  0
   51.4383    6.0284   17.7222 H   0  0  0  0  0  0  0  0  0  0  0  0
   48.2088    6.8751   19.1352 H   0  0  0  0  0  0  0  0  0  0  0  0
   49.4201    5.8513   20.0171 H   0  0  0  0  0  0  0  0  0  0  0  0
   46.7813    4.8471   18.7578 H   0  0  0  0  0  0  0  0  0  0  0  0
   47.9978    3.8307   19.6424 H   0  0  0  0  0  0  0  0  0  0  0  0
   47.7018    3.8260   16.1947 H   0  0  0  0  0  0  0  0  0  0  0  0
   46.6825    2.9772   14.2915 H   0  0  0  0  0  0  0  0  0  0  0  0
   45.6865    3.3990   12.0827 H   0  0  0  0  0  0  0  0  0  0  0  0
   45.5465    4.8610   10.1692 H   0  0  0  0  0  0  0  0  0  0  0  0
   44.3789    6.0022   10.8641 H   0  0  0  0  0  0  0  0  0  0  0  0
   45.9666    6.5608   10.2573 H   0  0  0  0  0  0  0  0  0  0  0  0
   48.5715   10.7123   12.4774 H   0  0  0  0  0  0  0  0  0  0  0  0
   48.5787    8.3122   13.0587 H   0  0  0  0  0  0  0  0  0  0  0  0
   44.3719    8.0767   12.1772 H   0  0  0  0  0  0  0  0  0  0  0  0
   46.4781   11.8112   11.7289 H   0  0  0  0  0  0  0  0  0  0  0  0
   42.2761   10.4618   11.0453 H   0  0  0  0  0  0  0  0  0  0  0  0
  1  2  1  0
  1  5  1  0
  2  3  1  0
  3  4  1  0
  2  6  1  0
  2  7  1  0
  8  5  1  0
  5  4  2  0
  4  9  1  0
  8 11  2  0
  9 10  2  0
 10 11  1  0
 11 12  1  0
 12 13  1  0
 13 14  1  0
 14 12  1  0
 12 15  1  0
 15 16  2  0
 15 17  1  0
 17 18  1  0
 19 18  2  0
 18 20  1  0
 19 23  1  0
 20 21  2  0
 21 22  1  0
 22 23  2  0
 22 24  1  0
 23 25  1  0
 27 25  1  0
 25 28  2  0
 26 27  2  0
 26 30  1  0
 28 29  1  0
 29 30  2  0
 29 31  1  0
 31 32  1  0
 31 33  2  0
  8 34  1  0
  9 35  1  0
 10 36  1  0
 13 37  1  0
 13 38  1  0
 14 39  1  0
 14 40  1  0
 17 41  1  0
 20 42  1  0
 21 43  1  0
 24 44  1  0
 24 45  1  0
 24 46  1  0
 26 47  1  0
 27 48  1  0
 28 49  1  0
 30 50  1  0
 32 51  1  0
M  END
> <Uni-Dock RESULT> 
ENERGY=   -6.161  LOWER_BOUND=    5.009  UPPER_BOUND=    9.211
INTER + INTRA:          -6.161
INTER:                  -6.161
INTRA:                   0.000
UNBOUND:                 0.000

$$$$

     RDKit          3D

 51 55  0  0  0  0  0  0  0  0999 V2000
   45.8937    3.9087   12.7709 O   0  0  0  0  0  0  0  0  0  0  0  0
   44.6268    3.9549   12.0986 C   0  0  0  0  0  0  0  0  0  0  0  0
   44.1274    5.2746   11.8421 O   0  0  0  0  0  0  0  0  0  0  0  0
   45.1268    6.0160   12.3875 C   0  0  0  0  0  0  0  0  0  0  0  0
   46.1313    5.2403   12.9163 C   0  0  0  0  0  0  0  0  0  0  0  0
   44.7422    3.2983   10.9178 F   0  0  0  0  0  0  0  0  0  0  0  0
   43.7174    3.2874   12.8513 F   0  0  0  0  0  0  0  0  0  0  0  0
   47.2424    5.7952   13.5206 C   0  0  0  0  0  0  0  0  0  0  0  0
   45.1796    7.3893   12.4334 C   0  0  0  0  0  0  0  0  0  0  0  0
   46.2976    7.9734   13.0399 C   0  0  0  0  0  0  0  0  0  0  0  0
   47.3508    7.1972   13.5909 C   0  0  0  0  0  0  0  0  0  0  0  0
   48.5428    7.8830   14.2572 C   0  0  0  0  0  0  0  0  0  0  0  0
   49.4840    8.6649   13.3391 C   0  0  0  0  0  0  0  0  0  0  0  0
   49.9568    7.3880   13.9552 C   0  0  0  0  0  0  0  0  0  0  0  0
   48.2812    8.4700   15.6310 C   0  0  0  0  0  0  0  0  0  0  0  0
   48.0383    9.6635   15.7248 O   0  0  0  0  0  0  0  0  0  0  0  0
   48.3286    7.5183   16.6235 N   0  0  0  0  0  0  0  0  0  0  0  0
   48.1582    7.7647   17.9897 C   0  0  0  0  0  0  0  0  0  0  0  0
   48.0636    9.0196   18.4531 N   0  0  0  0  0  0  0  0  0  0  0  0
   48.1055    6.6663   18.8350 C   0  0  0  0  0  0  0  0  0  0  0  0
   47.9090    6.8748   20.1970 C   0  0  0  0  0  0  0  0  0  0  0  0
   47.7760    8.1750   20.6957 C   0  0  0  0  0  0  0  0  0  0  0  0
   47.8964    9.2328   19.7849 C   0  0  0  0  0  0  0  0  0  0  0  0
   47.5311    8.3673   22.1638 C   0  0  0  0  0  0  0  0  0  0  0  0
   47.8459   10.6619   20.1482 C   0  0  0  0  0  0  0  0  0  0  0  0
   46.9248   12.8972   19.7734 C   0  0  0  0  0  0  0  0  0  0  0  0
   46.9894   11.5376   19.4561 C   0  0  0  0  0  0  0  0  0  0  0  0
   48.6661   11.2051   21.1532 C   0  0  0  0  0  0  0  0  0  0  0  0
   48.6042   12.5681   21.4805 C   0  0  0  0  0  0  0  0  0  0  0  0
   47.7281   13.4115   20.7888 C   0  0  0  0  0  0  0  0  0  0  0  0
   49.4487   13.1574   22.5477 C   0  0  0  0  0  0  0  0  0  0  0  0
   50.1974   12.2409   23.1879 O   0  0  0  0  0  0  0  0  0  0  0  0
   49.4868   14.3321   22.8633 O   0  0  0  0  0  0  0  0  0  0  0  0
   48.0160    5.1512   13.9253 H   0  0  0  0  0  0  0  0  0  0  0  0
   44.3853    7.9997   12.0191 H   0  0  0  0  0  0  0  0  0  0  0  0
   46.3597    9.0611   13.0962 H   0  0  0  0  0  0  0  0  0  0  0  0
   49.8916    9.6002   13.7108 H   0  0  0  0  0  0  0  0  0  0  0  0
   49.2828    8.6741   12.2738 H   0  0  0  0  0  0  0  0  0  0  0  0
   50.7084    7.4604   14.7340 H   0  0  0  0  0  0  0  0  0  0  0  0
   50.0973    6.5421   13.2921 H   0  0  0  0  0  0  0  0  0  0  0  0
   48.4547    6.5613   16.3377 H   0  0  0  0  0  0  0  0  0  0  0  0
   48.1917    5.6539   18.4565 H   0  0  0  0  0  0  0  0  0  0  0  0
   47.8453    6.0186   20.8639 H   0  0  0  0  0  0  0  0  0  0  0  0
   47.0326    7.4902   22.5937 H   0  0  0  0  0  0  0  0  0  0  0  0
   48.4783    8.5142   22.6921 H   0  0  0  0  0  0  0  0  0  0  0  0
   46.8694    9.2189   22.3516 H   0  0  0  0  0  0  0  0  0  0  0  0
   46.2545   13.5505   19.2198 H   0  0  0  0  0  0  0  0  0  0  0  0
   46.3716   11.1522   18.6432 H   0  0  0  0  0  0  0  0  0  0  0  0
   49.3723   10.5608   21.6724 H   0  0  0  0  0  0  0  0  0  0  0  0
   47.6769   14.4720   21.0303 H   0  0  0  0  0  0  0  0  0  0  0  0
   50.6913   12.7688   23.8513 H   0  0  0  0  0  0  0  0  0  0  0  0
  1  2  1  0
  1  5  1  0
  2  3  1  0
  3  4  1  0
  2  6  1  0
  2  7  1  0
  8  5  1  0
  5  4  2  0
  4  9  1  0
  8 11  2  0
  9 10  2  0
 10 11  1  0
 11 12  1  0
 12 13  1  0
 13 14  1  0
 14 12  1  0
 12 15  1  0
 15 16  2  0
 15 17  1  0
 17 18  1  0
 19 18  2  0
 18 20  1  0
 19 23  1  0
 20 21  2  0
 21 22  1  0
 22 23  2  0
 22 24  1  0
 23 25  1  0
 27 25  1  0
 25 28  2  0
 26 27  2  0
 26 30  1  0
 28 29  1  0
 29 30  2  0
 29 31  1  0
 31 32  1  0
 31 33  2  0
  8 34  1  0
  9 35  1  0
 10 36  1  0
 13 37  1  0
 13 38  1  0
 14 39  1  0
 14 40  1  0
 17 41  1  0
 20 42  1  0
 21 43  1  0
 24 44  1  0
 24 45  1  0
 24 46  1  0
 26 47  1  0
 27 48  1  0
 28 49  1  0
 30 50  1  0
 32 51  1  0
M  END
> <Uni-Dock RESULT> 
ENERGY=   -5.794  LOWER_BOUND=    4.177  UPPER_BOUND=    6.766
INTER + INTRA:          -5.794
INTER:                  -5.794
INTRA:                   0.000
UNBOUND:                 0.000

$$$$

     RDKit          3D

 51 55  0  0  0  0  0  0  0  0999 V2000
   45.8636    5.1019   11.7745 O   0  0  0  0  0  0  0  0  0  0  0  0
   44.5939    5.2813   11.1306 C   0  0  0  0  0  0  0  0  0  0  0  0
   44.0786    6.6190   11.1742 O   0  0  0  0  0  0  0  0  0  0  0  0
   45.0716    7.2325   11.8696 C   0  0  0  0  0  0  0  0  0  0  0  0
   46.0867    6.3707   12.2118 C   0  0  0  0  0  0  0  0  0  0  0  0
   44.7123    4.9047    9.8333 F   0  0  0  0  0  0  0  0  0  0  0  0
   43.6948    4.4526   11.7172 F   0  0  0  0  0  0  0  0  0  0  0  0
   47.1936    6.7906   12.9231 C   0  0  0  0  0  0  0  0  0  0  0  0
   45.1090    8.5618   12.2194 C   0  0  0  0  0  0  0  0  0  0  0  0
   46.2225    9.0098   12.9393 C   0  0  0  0  0  0  0  0  0  0  0  0
   47.2865    8.1432   13.3030 C   0  0  0  0  0  0  0  0  0  0  0  0
   48.4730    8.6779   14.1037 C   0  0  0  0  0  0  0  0  0  0  0  0
   49.4019    9.6553   13.3812 C   0  0  0  0  0  0  0  0  0  0  0  0
   49.8915    8.2791   13.6978 C   0  0  0  0  0  0  0  0  0  0  0  0
   48.2099    8.9419   15.5739 C   0  0  0  0  0  0  0  0  0  0  0  0
   47.9538   10.0818   15.9307 O   0  0  0  0  0  0  0  0  0  0  0  0
   48.2717    7.7942   16.3301 N   0  0  0  0  0  0  0  0  0  0  0  0
   48.1036    7.7289   17.7171 C   0  0  0  0  0  0  0  0  0  0  0  0
   47.9965    8.8484   18.4478 N   0  0  0  0  0  0  0  0  0  0  0  0
   48.0664    6.4697   18.2973 C   0  0  0  0  0  0  0  0  0  0  0  0
   47.8726    6.3681   19.6718 C   0  0  0  0  0  0  0  0  0  0  0  0
   47.7267    7.5234   20.4470 C   0  0  0  0  0  0  0  0  0  0  0  0
   47.8318    8.7585   19.7939 C   0  0  0  0  0  0  0  0  0  0  0  0
   47.4850    7.3819   21.9214 C   0  0  0  0  0  0  0  0  0  0  0  0
   47.7664   10.0705   20.4656 C   0  0  0  0  0  0  0  0  0  0  0  0
   46.8187   12.3221   20.5977 C   0  0  0  0  0  0  0  0  0  0  0  0
   46.8975   11.0678   19.9862 C   0  0  0  0  0  0  0  0  0  0  0  0
   48.5842   10.3865   21.5653 C   0  0  0  0  0  0  0  0  0  0  0  0
   48.5081   11.6420   22.1872 C   0  0  0  0  0  0  0  0  0  0  0  0
   47.6199   12.6075   21.7011 C   0  0  0  0  0  0  0  0  0  0  0  0
   49.3498   11.9894   23.3577 C   0  0  0  0  0  0  0  0  0  0  0  0
   50.1111   10.9626   23.7776 O   0  0  0  0  0  0  0  0  0  0  0  0
   49.3757   13.0651   23.9264 O   0  0  0  0  0  0  0  0  0  0  0  0
   47.9759    6.0821   13.1738 H   0  0  0  0  0  0  0  0  0  0  0  0
   44.3063    9.2395   11.9519 H   0  0  0  0  0  0  0  0  0  0  0  0
   46.2725   10.0585   13.2358 H   0  0  0  0  0  0  0  0  0  0  0  0
   49.8004   10.4895   13.9510 H   0  0  0  0  0  0  0  0  0  0  0  0
   49.1968    9.8985   12.3449 H   0  0  0  0  0  0  0  0  0  0  0  0
   50.6450    8.1856   14.4724 H   0  0  0  0  0  0  0  0  0  0  0  0
   50.0391    7.6034   12.8632 H   0  0  0  0  0  0  0  0  0  0  0  0
   48.4076    6.9262   15.8387 H   0  0  0  0  0  0  0  0  0  0  0  0
   48.1627    5.5678   17.7033 H   0  0  0  0  0  0  0  0  0  0  0  0
   47.8210    5.3845   20.1319 H   0  0  0  0  0  0  0  0  0  0  0  0
   46.9981    6.4253   22.1463 H   0  0  0  0  0  0  0  0  0  0  0  0
   48.4325    7.4190   22.4682 H   0  0  0  0  0  0  0  0  0  0  0  0
   46.8145    8.1626   22.2944 H   0  0  0  0  0  0  0  0  0  0  0  0
   46.1391   13.0741   20.2038 H   0  0  0  0  0  0  0  0  0  0  0  0
   46.2812   10.8653   19.1086 H   0  0  0  0  0  0  0  0  0  0  0  0
   49.2995    9.6514   21.9276 H   0  0  0  0  0  0  0  0  0  0  0  0
   47.5577   13.5872   22.1723 H   0  0  0  0  0  0  0  0  0  0  0  0
   50.6015   11.3358   24.5411 H   0  0  0  0  0  0  0  0  0  0  0  0
  1  2  1  0
  1  5  1  0
  2  3  1  0
  3  4  1  0
  2  6  1  0
  2  7  1  0
  8  5  1  0
  5  4  2  0
  4  9  1  0
  8 11  2  0
  9 10  2  0
 10 11  1  0
 11 12  1  0
 12 13  1  0
 13 14  1  0
 14 12  1  0
 12 15  1  0
 15 16  2  0
 15 17  1  0
 17 18  1  0
 19 18  2  0
 18 20  1  0
 19 23  1  0
 20 21  2  0
 21 22  1  0
 22 23  2  0
 22 24  1  0
 23 25  1  0
 27 25  1  0
 25 28  2  0
 26 27  2  0
 26 30  1  0
 28 29  1  0
 29 30  2  0
 29 31  1  0
 31 32  1  0
 31 33  2  0
  8 34  1  0
  9 35  1  0
 10 36  1  0
 13 37  1  0
 13 38  1  0
 14 39  1  0
 14 40  1  0
 17 41  1  0
 20 42  1  0
 21 43  1  0
 24 44  1  0
 24 45  1  0
 24 46  1  0
 26 47  1  0
 27 48  1  0
 28 49  1  0
 30 50  1  0
 32 51  1  0
M  END
> <Uni-Dock RESULT> 
ENERGY=   -5.657  LOWER_BOUND=    3.930  UPPER_BOUND=    6.587
INTER + INTRA:          -5.657
INTER:                  -5.657
INTRA:                   0.000
UNBOUND:                 0.000

$$$$

     RDKit          3D

 51 55  0  0  0  0  0  0  0  0999 V2000
   44.6693    4.5815   13.3366 O   0  0  0  0  0  0  0  0  0  0  0  0
   43.3850    4.6509   12.7004 C   0  0  0  0  0  0  0  0  0  0  0  0
   43.1630    5.8306   11.9156 O   0  0  0  0  0  0  0  0  0  0  0  0
   44.3473    6.4685   12.1074 C   0  0  0  0  0  0  0  0  0  0  0  0
   45.2041    5.7594   12.9156 C   0  0  0  0  0  0  0  0  0  0  0  0
   43.2417    3.5653   11.9006 F   0  0  0  0  0  0  0  0  0  0  0  0
   42.4276    4.5830   13.6586 F   0  0  0  0  0  0  0  0  0  0  0  0
   46.4617    6.2300   13.2390 C   0  0  0  0  0  0  0  0  0  0  0  0
   44.7022    7.6869   11.5777 C   0  0  0  0  0  0  0  0  0  0  0  0
   45.9730    8.1826   11.8910 C   0  0  0  0  0  0  0  0  0  0  0  0
   46.8792    7.4704   12.7199 C   0  0  0  0  0  0  0  0  0  0  0  0
   48.2498    8.0625   13.0455 C   0  0  0  0  0  0  0  0  0  0  0  0
   49.2472    8.1569   11.8895 C   0  0  0  0  0  0  0  0  0  0  0  0
   49.4867    7.1670   12.9833 C   0  0  0  0  0  0  0  0  0  0  0  0
   48.2541    9.1996   14.0491 C   0  0  0  0  0  0  0  0  0  0  0  0
   48.2872   10.3489   13.6365 O   0  0  0  0  0  0  0  0  0  0  0  0
   48.1871    8.7505   15.3479 N   0  0  0  0  0  0  0  0  0  0  0  0
   48.2050    9.5622   16.4868 C   0  0  0  0  0  0  0  0  0  0  0  0
   48.4306   10.8803   16.3853 N   0  0  0  0  0  0  0  0  0  0  0  0
   47.9948    8.9478   17.7123 C   0  0  0  0  0  0  0  0  0  0  0  0
   47.9787    9.7305   18.8630 C   0  0  0  0  0  0  0  0  0  0  0  0
   48.1802   11.1120   18.7746 C   0  0  0  0  0  0  0  0  0  0  0  0
   48.4412   11.6481   17.5068 C   0  0  0  0  0  0  0  0  0  0  0  0
   48.1237   11.9350   20.0283 C   0  0  0  0  0  0  0  0  0  0  0  0
   48.7381   13.0688   17.2419 C   0  0  0  0  0  0  0  0  0  0  0  0
   48.2949   15.1090   15.9667 C   0  0  0  0  0  0  0  0  0  0  0  0
   48.0312   13.7649   16.2443 C   0  0  0  0  0  0  0  0  0  0  0  0
   49.7487   13.7606   17.9333 C   0  0  0  0  0  0  0  0  0  0  0  0
   50.0167   15.1112   17.6633 C   0  0  0  0  0  0  0  0  0  0  0  0
   49.2838   15.7836   16.6793 C   0  0  0  0  0  0  0  0  0  0  0  0
   51.0668   15.8632   18.3921 C   0  0  0  0  0  0  0  0  0  0  0  0
   51.6551   15.1357   19.3590 O   0  0  0  0  0  0  0  0  0  0  0  0
   51.3898   17.0191   18.1903 O   0  0  0  0  0  0  0  0  0  0  0  0
   47.1112    5.6417   13.8785 H   0  0  0  0  0  0  0  0  0  0  0  0
   44.0243    8.2466   10.9434 H   0  0  0  0  0  0  0  0  0  0  0  0
   46.2757    9.1508   11.4898 H   0  0  0  0  0  0  0  0  0  0  0  0
   49.8823    9.0363   11.8399 H   0  0  0  0  0  0  0  0  0  0  0  0
   48.9526    7.7811   10.9161 H   0  0  0  0  0  0  0  0  0  0  0  0
   50.3065    7.3679   13.6646 H   0  0  0  0  0  0  0  0  0  0  0  0
   49.3758    6.1181   12.7331 H   0  0  0  0  0  0  0  0  0  0  0  0
   48.0738    7.7599   15.4869 H   0  0  0  0  0  0  0  0  0  0  0  0
   47.8219    7.8802   17.7899 H   0  0  0  0  0  0  0  0  0  0  0  0
   47.7936    9.2602   19.8255 H   0  0  0  0  0  0  0  0  0  0  0  0
   47.4892   11.4534   20.7822 H   0  0  0  0  0  0  0  0  0  0  0  0
   49.1261   12.0536   20.4518 H   0  0  0  0  0  0  0  0  0  0  0  0
   47.6845   12.9201   19.8417 H   0  0  0  0  0  0  0  0  0  0  0  0
   47.7337   15.6207   15.1884 H   0  0  0  0  0  0  0  0  0  0  0  0
   47.2700   13.2420   15.6629 H   0  0  0  0  0  0  0  0  0  0  0  0
   50.3436   13.2345   18.6767 H   0  0  0  0  0  0  0  0  0  0  0  0
   49.4882   16.8298   16.4573 H   0  0  0  0  0  0  0  0  0  0  0  0
   52.3129   15.7531   19.7446 H   0  0  0  0  0  0  0  0  0  0  0  0
  1  2  1  0
  1  5  1  0
  2  3  1  0
  3  4  1  0
  2  6  1  0
  2  7  1  0
  8  5  1  0
  5  4  2  0
  4  9  1  0
  8 11  2  0
  9 10  2  0
 10 11  1  0
 11 12  1  0
 12 13  1  0
 13 14  1  0
 14 12  1  0
 12 15  1  0
 15 16  2  0
 15 17  1  0
 17 18  1  0
 19 18  2  0
 18 20  1  0
 19 23  1  0
 20 21  2  0
 21 22  1  0
 22 23  2  0
 22 24  1  0
 23 25  1  0
 27 25  1  0
 25 28  2  0
 26 27  2  0
 26 30  1  0
 28 29  1  0
 29 30  2  0
 29 31  1  0
 31 32  1  0
 31 33  2  0
  8 34  1  0
  9 35  1  0
 10 36  1  0
 13 37  1  0
 13 38  1  0
 14 39  1  0
 14 40  1  0
 17 41  1  0
 20 42  1  0
 21 43  1  0
 24 44  1  0
 24 45  1  0
 24 46  1  0
 26 47  1  0
 27 48  1  0
 28 49  1  0
 30 50  1  0
 32 51  1  0
M  END
> <Uni-Dock RESULT> 
ENERGY=   -5.561  LOWER_BOUND=    5.524  UPPER_BOUND=    7.591
INTER + INTRA:          -5.561
INTER:                  -5.561
INTRA:                   0.000
UNBOUND:                 0.000

$$$$

     RDKit          3D

 51 55  0  0  0  0  0  0  0  0999 V2000
   46.4609    4.3102   14.5431 O   0  0  0  0  0  0  0  0  0  0  0  0
   45.7795    4.2687   13.2809 C   0  0  0  0  0  0  0  0  0  0  0  0
   46.2045    5.2573   12.3327 O   0  0  0  0  0  0  0  0  0  0  0  0
   47.1529    5.8964   13.0663 C   0  0  0  0  0  0  0  0  0  0  0  0
   47.2991    5.3590   14.3233 C   0  0  0  0  0  0  0  0  0  0  0  0
   45.9586    3.0402   12.7355 F   0  0  0  0  0  0  0  0  0  0  0  0
   44.4516    4.4278   13.5051 F   0  0  0  0  0  0  0  0  0  0  0  0
   48.2099    5.8614   15.2318 C   0  0  0  0  0  0  0  0  0  0  0  0
   47.9109    6.9652   12.6491 C   0  0  0  0  0  0  0  0  0  0  0  0
   48.8418    7.4897   13.5531 C   0  0  0  0  0  0  0  0  0  0  0  0
   49.0162    6.9527   14.8557 C   0  0  0  0  0  0  0  0  0  0  0  0
   50.0351    7.5719   15.8115 C   0  0  0  0  0  0  0  0  0  0  0  0
   51.5105    7.3954   15.4478 C   0  0  0  0  0  0  0  0  0  0  0  0
   50.9533    6.6581   16.6223 C   0  0  0  0  0  0  0  0  0  0  0  0
   49.6357    8.8973   16.4312 C   0  0  0  0  0  0  0  0  0  0  0  0
   50.0557    9.9305   15.9330 O   0  0  0  0  0  0  0  0  0  0  0  0
   48.7895    8.7384   17.5044 N   0  0  0  0  0  0  0  0  0  0  0  0
   48.2796    9.7747   18.2933 C   0  0  0  0  0  0  0  0  0  0  0  0
   48.7059   11.0354   18.1276 N   0  0  0  0  0  0  0  0  0  0  0  0
   47.3344    9.4417   19.2521 C   0  0  0  0  0  0  0  0  0  0  0  0
   46.7860   10.4530   20.0355 C   0  0  0  0  0  0  0  0  0  0  0  0
   47.1943   11.7789   19.8560 C   0  0  0  0  0  0  0  0  0  0  0  0
   48.1936   12.0252   18.9054 C   0  0  0  0  0  0  0  0  0  0  0  0
   46.5608   12.8524   20.6918 C   0  0  0  0  0  0  0  0  0  0  0  0
   48.7842   13.3497   18.6335 C   0  0  0  0  0  0  0  0  0  0  0  0
   49.4246   15.0781   17.0250 C   0  0  0  0  0  0  0  0  0  0  0  0
   48.8647   13.8305   17.3138 C   0  0  0  0  0  0  0  0  0  0  0  0
   49.3183   14.1522   19.6576 C   0  0  0  0  0  0  0  0  0  0  0  0
   49.8783   15.4075   19.3763 C   0  0  0  0  0  0  0  0  0  0  0  0
   49.9266   15.8688   18.0563 C   0  0  0  0  0  0  0  0  0  0  0  0
   50.4321   16.2760   20.4432 C   0  0  0  0  0  0  0  0  0  0  0  0
   50.2676   15.7604   21.6751 O   0  0  0  0  0  0  0  0  0  0  0  0
   50.9714   17.3547   20.2800 O   0  0  0  0  0  0  0  0  0  0  0  0
   48.2986    5.4103   16.2144 H   0  0  0  0  0  0  0  0  0  0  0  0
   47.7922    7.3902   11.6589 H   0  0  0  0  0  0  0  0  0  0  0  0
   49.4499    8.3429   13.2493 H   0  0  0  0  0  0  0  0  0  0  0  0
   52.1801    8.2302   15.6317 H   0  0  0  0  0  0  0  0  0  0  0  0
   51.7631    6.8261   14.5605 H   0  0  0  0  0  0  0  0  0  0  0  0
   51.2683    6.9830   17.6081 H   0  0  0  0  0  0  0  0  0  0  0  0
   50.8557    5.5825   16.5292 H   0  0  0  0  0  0  0  0  0  0  0  0
   48.4798    7.8032   17.7116 H   0  0  0  0  0  0  0  0  0  0  0  0
   46.9997    8.4194   19.3883 H   0  0  0  0  0  0  0  0  0  0  0  0
   46.0291   10.2038   20.7749 H   0  0  0  0  0  0  0  0  0  0  0  0
   45.5527   12.5570   21.0066 H   0  0  0  0  0  0  0  0  0  0  0  0
   47.1578   13.0379   21.5903 H   0  0  0  0  0  0  0  0  0  0  0  0
   46.4456   13.7837   20.1282 H   0  0  0  0  0  0  0  0  0  0  0  0
   49.4751   15.4228   15.9949 H   0  0  0  0  0  0  0  0  0  0  0  0
   48.4962   13.2113   16.4942 H   0  0  0  0  0  0  0  0  0  0  0  0
   49.3128   13.7851   20.6816 H   0  0  0  0  0  0  0  0  0  0  0  0
   50.3650   16.8386   17.8263 H   0  0  0  0  0  0  0  0  0  0  0  0
   50.6749   16.4321   22.2629 H   0  0  0  0  0  0  0  0  0  0  0  0
  1  2  1  0
  1  5  1  0
  2  3  1  0
  3  4  1  0
  2  6  1  0
  2  7  1  0
  8  5  1  0
  5  4  2  0
  4  9  1  0
  8 11  2  0
  9 10  2  0
 10 11  1  0
 11 12  1  0
 12 13  1  0
 13 14  1  0
 14 12  1  0
 12 15  1  0
 15 16  2  0
 15 17  1  0
 17 18  1  0
 19 18  2  0
 18 20  1  0
 19 23  1  0
 20 21  2  0
 21 22  1  0
 22 23  2  0
 22 24  1  0
 23 25  1  0
 27 25  1  0
 25 28  2  0
 26 27  2  0
 26 30  1  0
 28 29  1  0
 29 30  2  0
 29 31  1  0
 31 32  1  0
 31 33  2  0
  8 34  1  0
  9 35  1  0
 10 36  1  0
 13 37  1  0
 13 38  1  0
 14 39  1  0
 14 40  1  0
 17 41  1  0
 20 42  1  0
 21 43  1  0
 24 44  1  0
 24 45  1  0
 24 46  1  0
 26 47  1  0
 27 48  1  0
 28 49  1  0
 30 50  1  0
 32 51  1  0
M  END
> <Uni-Dock RESULT> 
ENERGY=   -5.137  LOWER_BOUND=    5.672  UPPER_BOUND=    8.373
INTER + INTRA:          -5.137
INTER:                  -5.137
INTRA:                   0.000
UNBOUND:                 0.000

$$$$

     RDKit          3D

 51 55  0  0  0  0  0  0  0  0999 V2000
   39.3150   11.7137   13.7346 O   0  0  0  0  0  0  0  0  0  0  0  0
   38.9571   12.7485   14.6621 C   0  0  0  0  0  0  0  0  0  0  0  0
   39.7892   13.9157   14.6149 O   0  0  0  0  0  0  0  0  0  0  0  0
   40.6598   13.5463   13.6393 C   0  0  0  0  0  0  0  0  0  0  0  0
   40.3913   12.2943   13.1386 C   0  0  0  0  0  0  0  0  0  0  0  0
   37.6758   13.1199   14.4190 F   0  0  0  0  0  0  0  0  0  0  0  0
   39.0038   12.2351   15.9164 F   0  0  0  0  0  0  0  0  0  0  0  0
   41.1575   11.7267   12.1394 C   0  0  0  0  0  0  0  0  0  0  0  0
   41.7090   14.2993   13.1670 C   0  0  0  0  0  0  0  0  0  0  0  0
   42.4981   13.7444   12.1530 C   0  0  0  0  0  0  0  0  0  0  0  0
   42.2419   12.4558   11.6150 C   0  0  0  0  0  0  0  0  0  0  0  0
   43.1432   11.8878   10.5196 C   0  0  0  0  0  0  0  0  0  0  0  0
   43.0698   12.5679    9.1513 C   0  0  0  0  0  0  0  0  0  0  0  0
   42.5106   11.1916    9.3151 C   0  0  0  0  0  0  0  0  0  0  0  0
   44.5080   11.4067   10.9736 C   0  0  0  0  0  0  0  0  0  0  0  0
   45.4687   12.1492   10.8391 O   0  0  0  0  0  0  0  0  0  0  0  0
   44.4608   10.1483   11.5278 N   0  0  0  0  0  0  0  0  0  0  0  0
   45.5634    9.4328   12.0061 C   0  0  0  0  0  0  0  0  0  0  0  0
   46.8097    9.8946   11.8276 N   0  0  0  0  0  0  0  0  0  0  0  0
   45.3133    8.2322   12.6538 C   0  0  0  0  0  0  0  0  0  0  0  0
   46.3860    7.5086   13.1665 C   0  0  0  0  0  0  0  0  0  0  0  0
   47.6913    7.9895   13.0186 C   0  0  0  0  0  0  0  0  0  0  0  0
   47.8645    9.1818   12.3035 C   0  0  0  0  0  0  0  0  0  0  0  0
   48.8249    7.2048   13.6114 C   0  0  0  0  0  0  0  0  0  0  0  0
   49.1716    9.7953   12.0002 C   0  0  0  0  0  0  0  0  0  0  0  0
   50.6242   11.7638   12.0055 C   0  0  0  0  0  0  0  0  0  0  0  0
   49.3988   11.1537   12.2875 C   0  0  0  0  0  0  0  0  0  0  0  0
   50.2095    9.0726   11.3851 C   0  0  0  0  0  0  0  0  0  0  0  0
   51.4439    9.6769   11.1024 C   0  0  0  0  0  0  0  0  0  0  0  0
   51.6483   11.0245   11.4179 C   0  0  0  0  0  0  0  0  0  0  0  0
   52.5566    8.9283   10.4691 C   0  0  0  0  0  0  0  0  0  0  0  0
   52.2692    7.6281   10.2765 O   0  0  0  0  0  0  0  0  0  0  0  0
   53.6388    9.3866   10.1531 O   0  0  0  0  0  0  0  0  0  0  0  0
   40.9144   10.7369   11.7679 H   0  0  0  0  0  0  0  0  0  0  0  0
   41.9217   15.2849   13.5651 H   0  0  0  0  0  0  0  0  0  0  0  0
   43.3415   14.3183   11.7665 H   0  0  0  0  0  0  0  0  0  0  0  0
   43.9950   12.6872    8.5955 H   0  0  0  0  0  0  0  0  0  0  0  0
   42.3747   13.3886    9.0149 H   0  0  0  0  0  0  0  0  0  0  0  0
   43.0506   10.3766    8.8452 H   0  0  0  0  0  0  0  0  0  0  0  0
   41.4329   11.0869    9.2627 H   0  0  0  0  0  0  0  0  0  0  0  0
   43.5531    9.7267   11.6353 H   0  0  0  0  0  0  0  0  0  0  0  0
   44.3043    7.8586   12.7875 H   0  0  0  0  0  0  0  0  0  0  0  0
   46.1974    6.5770   13.6942 H   0  0  0  0  0  0  0  0  0  0  0  0
   48.4821    6.6109   14.4672 H   0  0  0  0  0  0  0  0  0  0  0  0
   49.2445    6.5201   12.8675 H   0  0  0  0  0  0  0  0  0  0  0  0
   49.6129    7.8631   13.9909 H   0  0  0  0  0  0  0  0  0  0  0  0
   50.7703   12.8162   12.2370 H   0  0  0  0  0  0  0  0  0  0  0  0
   48.5973   11.7501   12.7267 H   0  0  0  0  0  0  0  0  0  0  0  0
   50.0456    8.0335   11.1081 H   0  0  0  0  0  0  0  0  0  0  0  0
   52.6002   11.5048   11.1968 H   0  0  0  0  0  0  0  0  0  0  0  0
   53.0822    7.2712    9.8592 H   0  0  0  0  0  0  0  0  0  0  0  0
  1  2  1  0
  1  5  1  0
  2  3  1  0
  3  4  1  0
  2  6  1  0
  2  7  1  0
  8  5  1  0
  5  4  2  0
  4  9  1  0
  8 11  2  0
  9 10  2  0
 10 11  1  0
 11 12  1  0
 12 13  1  0
 13 14  1  0
 14 12  1  0
 12 15  1  0
 15 16  2  0
 15 17  1  0
 17 18  1  0
 19 18  2  0
 18 20  1  0
 19 23  1  0
 20 21  2  0
 21 22  1  0
 22 23  2  0
 22 24  1  0
 23 25  1  0
 27 25  1  0
 25 28  2  0
 26 27  2  0
 26 30  1  0
 28 29  1  0
 29 30  2  0
 29 31  1  0
 31 32  1  0
 31 33  2  0
  8 34  1  0
  9 35  1  0
 10 36  1  0
 13 37  1  0
 13 38  1  0
 14 39  1  0
 14 40  1  0
 17 41  1  0
 20 42  1  0
 21 43  1  0
 24 44  1  0
 24 45  1  0
 24 46  1  0
 26 47  1  0
 27 48  1  0
 28 49  1  0
 30 50  1  0
 32 51  1  0
M  END
> <Uni-Dock RESULT> 
ENERGY=   -4.569  LOWER_BOUND=    7.262  UPPER_BOUND=   10.000
INTER + INTRA:          -4.569
INTER:                  -4.569
INTRA:                   0.000
UNBOUND:                 0.000

$$$$

     RDKit          3D

 51 55  0  0  0  0  0  0  0  0999 V2000
   45.5902   14.1608    6.8620 O   0  0  0  0  0  0  0  0  0  0  0  0
   45.4712   13.8461    5.4670 C   0  0  0  0  0  0  0  0  0  0  0  0
   44.7848   12.6197    5.1813 O   0  0  0  0  0  0  0  0  0  0  0  0
   44.5044   12.2056    6.4446 C   0  0  0  0  0  0  0  0  0  0  0  0
   44.9624   13.0809    7.4009 C   0  0  0  0  0  0  0  0  0  0  0  0
   44.8175   14.8620    4.8510 F   0  0  0  0  0  0  0  0  0  0  0  0
   46.7167   13.7782    4.9350 F   0  0  0  0  0  0  0  0  0  0  0  0
   44.7827   12.8488    8.7505 C   0  0  0  0  0  0  0  0  0  0  0  0
   43.8408   11.0508    6.7864 C   0  0  0  0  0  0  0  0  0  0  0  0
   43.6460   10.7960    8.1487 C   0  0  0  0  0  0  0  0  0  0  0  0
   44.1050   11.6836    9.1572 C   0  0  0  0  0  0  0  0  0  0  0  0
   43.8817   11.3519   10.6320 C   0  0  0  0  0  0  0  0  0  0  0  0
   42.4366   11.3939   11.1321 C   0  0  0  0  0  0  0  0  0  0  0  0
   43.3972   12.4472   11.5812 C   0  0  0  0  0  0  0  0  0  0  0  0
   44.7742   10.2680   11.2055 C   0  0  0  0  0  0  0  0  0  0  0  0
   44.3405    9.1288   11.2845 O   0  0  0  0  0  0  0  0  0  0  0  0
   46.0202   10.7425   11.5450 N   0  0  0  0  0  0  0  0  0  0  0  0
   47.0442    9.9858   12.1239 C   0  0  0  0  0  0  0  0  0  0  0  0
   46.8227    8.7249   12.5231 N   0  0  0  0  0  0  0  0  0  0  0  0
   48.2806   10.5955   12.2768 C   0  0  0  0  0  0  0  0  0  0  0  0
   49.3291    9.8618   12.8239 C   0  0  0  0  0  0  0  0  0  0  0  0
   49.1265    8.5347   13.2171 C   0  0  0  0  0  0  0  0  0  0  0  0
   47.8347    8.0095   13.0811 C   0  0  0  0  0  0  0  0  0  0  0  0
   50.2842    7.7578   13.7724 C   0  0  0  0  0  0  0  0  0  0  0  0
   47.4317    6.6544   13.5031 C   0  0  0  0  0  0  0  0  0  0  0  0
   46.3428    4.5258   12.9851 C   0  0  0  0  0  0  0  0  0  0  0  0
   46.7429    5.8118   12.6115 C   0  0  0  0  0  0  0  0  0  0  0  0
   47.6776    6.1741   14.8018 C   0  0  0  0  0  0  0  0  0  0  0  0
   47.2827    4.8828   15.1832 C   0  0  0  0  0  0  0  0  0  0  0  0
   46.6171    4.0593   14.2688 C   0  0  0  0  0  0  0  0  0  0  0  0
   47.5468    4.3514   16.5423 C   0  0  0  0  0  0  0  0  0  0  0  0
   48.2520    5.2031   17.3089 O   0  0  0  0  0  0  0  0  0  0  0  0
   47.2015    3.2636   16.9650 O   0  0  0  0  0  0  0  0  0  0  0  0
   45.1565   13.5632    9.4764 H   0  0  0  0  0  0  0  0  0  0  0  0
   43.4832   10.3598    6.0315 H   0  0  0  0  0  0  0  0  0  0  0  0
   43.1293    9.8825    8.4464 H   0  0  0  0  0  0  0  0  0  0  0  0
   42.1267   10.6380   11.8475 H   0  0  0  0  0  0  0  0  0  0  0  0
   41.6540   11.6789   10.4382 H   0  0  0  0  0  0  0  0  0  0  0  0
   43.7206   12.4162   12.6161 H   0  0  0  0  0  0  0  0  0  0  0  0
   43.2407   13.4514   11.2041 H   0  0  0  0  0  0  0  0  0  0  0  0
   46.2243   11.7022   11.3196 H   0  0  0  0  0  0  0  0  0  0  0  0
   48.4521   11.6184   11.9608 H   0  0  0  0  0  0  0  0  0  0  0  0
   50.3071   10.3251   12.9279 H   0  0  0  0  0  0  0  0  0  0  0  0
   51.2347    8.1464   13.3872 H   0  0  0  0  0  0  0  0  0  0  0  0
   50.3035    7.8309   14.8643 H   0  0  0  0  0  0  0  0  0  0  0  0
   50.2402    6.7053   13.4750 H   0  0  0  0  0  0  0  0  0  0  0  0
   45.8100    3.8976   12.2751 H   0  0  0  0  0  0  0  0  0  0  0  0
   46.5013    6.1733   11.6106 H   0  0  0  0  0  0  0  0  0  0  0  0
   48.1660    6.8212   15.5271 H   0  0  0  0  0  0  0  0  0  0  0  0
   46.3004    3.0580   14.5565 H   0  0  0  0  0  0  0  0  0  0  0  0
   48.3466    4.7239   18.1598 H   0  0  0  0  0  0  0  0  0  0  0  0
  1  2  1  0
  1  5  1  0
  2  3  1  0
  3  4  1  0
  2  6  1  0
  2  7  1  0
  8  5  1  0
  5  4  2  0
  4  9  1  0
  8 11  2  0
  9 10  2  0
 10 11  1  0
 11 12  1  0
 12 13  1  0
 13 14  1  0
 14 12  1  0
 12 15  1  0
 15 16  2  0
 15 17  1  0
 17 18  1  0
 19 18  2  0
 18 20  1  0
 19 23  1  0
 20 21  2  0
 21 22  1  0
 22 23  2  0
 22 24  1  0
 23 25  1  0
 27 25  1  0
 25 28  2  0
 26 27  2  0
 26 30  1  0
 28 29  1  0
 29 30  2  0
 29 31  1  0
 31 32  1  0
 31 33  2  0
  8 34  1  0
  9 35  1  0
 10 36  1  0
 13 37  1  0
 13 38  1  0
 14 39  1  0
 14 40  1  0
 17 41  1  0
 20 42  1  0
 21 43  1  0
 24 44  1  0
 24 45  1  0
 24 46  1  0
 26 47  1  0
 27 48  1  0
 28 49  1  0
 30 50  1  0
 32 51  1  0
M  END
> <Uni-Dock RESULT> 
ENERGY=   -4.529  LOWER_BOUND=    5.696  UPPER_BOUND=    6.829
INTER + INTRA:          -4.529
INTER:                  -4.529
INTRA:                   0.000
UNBOUND:                 0.000

$$$$
