
     RDKit          3D

 51 55  0  0  0  0  0  0  0  0999 V2000
   48.1346    5.3083   19.8264 O   0  0  0  0  0  0  0  0  0  0  0  0
   47.8012    5.7343   21.1553 C   0  0  0  0  0  0  0  0  0  0  0  0
   47.9981    7.1318   21.4093 O   0  0  0  0  0  0  0  0  0  0  0  0
   48.4603    7.5288   20.1946 C   0  0  0  0  0  0  0  0  0  0  0  0
   48.5385    6.4929   19.2942 C   0  0  0  0  0  0  0  0  0  0  0  0
   48.5518    5.0261   22.0348 F   0  0  0  0  0  0  0  0  0  0  0  0
   46.5006    5.4317   21.3908 F   0  0  0  0  0  0  0  0  0  0  0  0
   48.9825    6.6821   18.0008 C   0  0  0  0  0  0  0  0  0  0  0  0
   48.8202    8.8103   19.8495 C   0  0  0  0  0  0  0  0  0  0  0  0
   49.2741    9.0253   18.5433 C   0  0  0  0  0  0  0  0  0  0  0  0
   49.3714    7.9733   17.5953 C   0  0  0  0  0  0  0  0  0  0  0  0
   49.8582    8.2545   16.1752 C   0  0  0  0  0  0  0  0  0  0  0  0
   50.9394    7.3569   15.5749 C   0  0  0  0  0  0  0  0  0  0  0  0
   51.3001    8.7376   16.0187 C   0  0  0  0  0  0  0  0  0  0  0  0
   48.8307    8.8516   15.2388 C   0  0  0  0  0  0  0  0  0  0  0  0
   48.7586   10.0670   15.1219 O   0  0  0  0  0  0  0  0  0  0  0  0
   48.0636    7.9043   14.6141 N   0  0  0  0  0  0  0  0  0  0  0  0
   47.0297    8.0922   13.7007 C   0  0  0  0  0  0  0  0  0  0  0  0
   46.4741    6.9367   13.2841 N   0  0  0  0  0  0  0  0  0  0  0  0
   46.6031    9.3281   13.2496 C   0  0  0  0  0  0  0  0  0  0  0  0
   45.5526    9.3786   12.3367 C   0  0  0  0  0  0  0  0  0  0  0  0
   44.9472    8.1987   11.8947 C   0  0  0  0  0  0  0  0  0  0  0  0
   45.4571    6.9900   12.3831 C   0  0  0  0  0  0  0  0  0  0  0  0
   43.8103    8.2711   10.9182 C   0  0  0  0  0  0  0  0  0  0  0  0
   44.9491    5.6675   11.9870 C   0  0  0  0  0  0  0  0  0  0  0  0
   43.8975    3.5488   12.5882 C   0  0  0  0  0  0  0  0  0  0  0  0
   44.3811    4.8094   12.9443 C   0  0  0  0  0  0  0  0  0  0  0  0
   45.0399    5.2160   10.6592 C   0  0  0  0  0  0  0  0  0  0  0  0
   44.5554    3.9516   10.2952 C   0  0  0  0  0  0  0  0  0  0  0  0
   43.9818    3.1212   11.2643 C   0  0  0  0  0  0  0  0  0  0  0  0
   44.6329    3.4525    8.9013 C   0  0  0  0  0  0  0  0  0  0  0  0
   45.1645    4.3507    8.0533 O   0  0  0  0  0  0  0  0  0  0  0  0
   44.2632    2.3601    8.5129 O   0  0  0  0  0  0  0  0  0  0  0  0
   49.0287    5.8421   17.3150 H   0  0  0  0  0  0  0  0  0  0  0  0
   48.7516    9.6269   20.5600 H   0  0  0  0  0  0  0  0  0  0  0  0
   49.5547   10.0353   18.2428 H   0  0  0  0  0  0  0  0  0  0  0  0
   51.3272    6.5296   16.1588 H   0  0  0  0  0  0  0  0  0  0  0  0
   50.9246    7.1647   14.5071 H   0  0  0  0  0  0  0  0  0  0  0  0
   51.9155    8.8415   16.9054 H   0  0  0  0  0  0  0  0  0  0  0  0
   51.5064    9.4839   15.2583 H   0  0  0  0  0  0  0  0  0  0  0  0
   48.2260    6.9291   14.8196 H   0  0  0  0  0  0  0  0  0  0  0  0
   47.0547   10.2545   13.5831 H   0  0  0  0  0  0  0  0  0  0  0  0
   45.2085   10.3471   11.9806 H   0  0  0  0  0  0  0  0  0  0  0  0
   43.3676    9.2730   10.9019 H   0  0  0  0  0  0  0  0  0  0  0  0
   44.1616    8.0407    9.9079 H   0  0  0  0  0  0  0  0  0  0  0  0
   43.0093    7.5779   11.1945 H   0  0  0  0  0  0  0  0  0  0  0  0
   43.4602    2.9008   13.3438 H   0  0  0  0  0  0  0  0  0  0  0  0
   44.3181    5.1293   13.9837 H   0  0  0  0  0  0  0  0  0  0  0  0
   45.5050    5.8536    9.9099 H   0  0  0  0  0  0  0  0  0  0  0  0
   43.6054    2.1369   10.9922 H   0  0  0  0  0  0  0  0  0  0  0  0
   45.1554    3.8891    7.1884 H   0  0  0  0  0  0  0  0  0  0  0  0
  1  2  1  0
  1  5  1  0
  2  3  1  0
  3  4  1  0
  2  6  1  0
  2  7  1  0
  8  5  1  0
  5  4  2  0
  4  9  1  0
  8 11  2  0
  9 10  2  0
 10 11  1  0
 11 12  1  0
 12 13  1  0
 13 14  1  0
 14 12  1  0
 12 15  1  0
 15 16  2  0
 15 17  1  0
 17 18  1  0
 19 18  2  0
 18 20  1  0
 19 23  1  0
 20 21  2  0
 21 22  1  0
 22 23  2  0
 22 24  1  0
 23 25  1  0
 27 25  1  0
 25 28  2  0
 26 27  2  0
 26 30  1  0
 28 29  1  0
 29 30  2  0
 29 31  1  0
 31 32  1  0
 31 33  2  0
  8 34  1  0
  9 35  1  0
 10 36  1  0
 13 37  1  0
 13 38  1  0
 14 39  1  0
 14 40  1  0
 17 41  1  0
 20 42  1  0
 21 43  1  0
 24 44  1  0
 24 45  1  0
 24 46  1  0
 26 47  1  0
 27 48  1  0
 28 49  1  0
 30 50  1  0
 32 51  1  0
M  END
> <Uni-Dock RESULT> 
ENERGY=   -5.934  LOWER_BOUND=    0.000  UPPER_BOUND=    0.000
INTER + INTRA:          -5.934
INTER:                  -5.934
INTRA:                   0.000
UNBOUND:                 0.000

$$$$

     RDKit          3D

 51 55  0  0  0  0  0  0  0  0999 V2000
   53.5621    6.1032   17.5379 O   0  0  0  0  0  0  0  0  0  0  0  0
   54.7638    5.3209   17.4853 C   0  0  0  0  0  0  0  0  0  0  0  0
   54.5693    3.9055   17.6078 O   0  0  0  0  0  0  0  0  0  0  0  0
   53.2172    3.8640   17.7368 C   0  0  0  0  0  0  0  0  0  0  0  0
   52.6438    5.1128   17.6975 C   0  0  0  0  0  0  0  0  0  0  0  0
   55.5876    5.7309   18.4811 F   0  0  0  0  0  0  0  0  0  0  0  0
   55.3887    5.5707   16.3083 F   0  0  0  0  0  0  0  0  0  0  0  0
   51.2797    5.2934   17.8095 C   0  0  0  0  0  0  0  0  0  0  0  0
   52.4572    2.7281   17.8885 C   0  0  0  0  0  0  0  0  0  0  0  0
   51.0717    2.8874   18.0047 C   0  0  0  0  0  0  0  0  0  0  0  0
   50.4537    4.1649   17.9742 C   0  0  0  0  0  0  0  0  0  0  0  0
   48.9361    4.2928   18.0898 C   0  0  0  0  0  0  0  0  0  0  0  0
   48.3542    5.3018   19.0790 C   0  0  0  0  0  0  0  0  0  0  0  0
   48.3001    3.8446   19.4057 C   0  0  0  0  0  0  0  0  0  0  0  0
   48.1585    4.0114   16.8228 C   0  0  0  0  0  0  0  0  0  0  0  0
   47.7361    2.8824   16.6152 O   0  0  0  0  0  0  0  0  0  0  0  0
   48.0274    5.1141   16.0210 N   0  0  0  0  0  0  0  0  0  0  0  0
   47.3845    5.2181   14.7904 C   0  0  0  0  0  0  0  0  0  0  0  0
   47.4510    6.4561   14.2607 N   0  0  0  0  0  0  0  0  0  0  0  0
   46.7341    4.1730   14.1599 C   0  0  0  0  0  0  0  0  0  0  0  0
   46.1334    4.4087   12.9258 C   0  0  0  0  0  0  0  0  0  0  0  0
   46.1953    5.6783   12.3442 C   0  0  0  0  0  0  0  0  0  0  0  0
   46.8521    6.6850   13.0616 C   0  0  0  0  0  0  0  0  0  0  0  0
   45.5509    5.9133   11.0097 C   0  0  0  0  0  0  0  0  0  0  0  0
   46.9714    8.0759   12.5980 C   0  0  0  0  0  0  0  0  0  0  0  0
   48.3700    9.9549   11.9124 C   0  0  0  0  0  0  0  0  0  0  0  0
   48.2366    8.6351   12.3486 C   0  0  0  0  0  0  0  0  0  0  0  0
   45.8381    8.8875   12.4183 C   0  0  0  0  0  0  0  0  0  0  0  0
   45.9656   10.2131   11.9795 C   0  0  0  0  0  0  0  0  0  0  0  0
   47.2355   10.7424   11.7251 C   0  0  0  0  0  0  0  0  0  0  0  0
   44.7872   11.0895   11.7760 C   0  0  0  0  0  0  0  0  0  0  0  0
   43.6217   10.4613   12.0118 O   0  0  0  0  0  0  0  0  0  0  0  0
   44.8163   12.2550   11.4271 O   0  0  0  0  0  0  0  0  0  0  0  0
   50.8601    6.2937   17.7712 H   0  0  0  0  0  0  0  0  0  0  0  0
   52.9117    1.7437   17.9129 H   0  0  0  0  0  0  0  0  0  0  0  0
   50.4469    2.0004   18.1146 H   0  0  0  0  0  0  0  0  0  0  0  0
   49.0262    5.9184   19.6656 H   0  0  0  0  0  0  0  0  0  0  0  0
   47.4181    5.7926   18.8339 H   0  0  0  0  0  0  0  0  0  0  0  0
   48.9426    3.4776   20.1983 H   0  0  0  0  0  0  0  0  0  0  0  0
   47.3384    3.3436   19.3607 H   0  0  0  0  0  0  0  0  0  0  0  0
   48.4442    5.9857   16.3148 H   0  0  0  0  0  0  0  0  0  0  0  0
   46.6788    3.1804   14.5904 H   0  0  0  0  0  0  0  0  0  0  0  0
   45.6237    3.5906   12.4216 H   0  0  0  0  0  0  0  0  0  0  0  0
   45.3724    4.9677   10.4860 H   0  0  0  0  0  0  0  0  0  0  0  0
   44.5875    6.4164   11.1360 H   0  0  0  0  0  0  0  0  0  0  0  0
   46.1962    6.5148   10.3614 H   0  0  0  0  0  0  0  0  0  0  0  0
   49.3579   10.3678   11.7236 H   0  0  0  0  0  0  0  0  0  0  0  0
   49.1309    8.0318   12.5002 H   0  0  0  0  0  0  0  0  0  0  0  0
   44.8521    8.4820   12.6364 H   0  0  0  0  0  0  0  0  0  0  0  0
   47.3449   11.7712   11.3869 H   0  0  0  0  0  0  0  0  0  0  0  0
   42.9462   11.1517   11.8439 H   0  0  0  0  0  0  0  0  0  0  0  0
  1  2  1  0
  1  5  1  0
  2  3  1  0
  3  4  1  0
  2  6  1  0
  2  7  1  0
  8  5  1  0
  5  4  2  0
  4  9  1  0
  8 11  2  0
  9 10  2  0
 10 11  1  0
 11 12  1  0
 12 13  1  0
 13 14  1  0
 14 12  1  0
 12 15  1  0
 15 16  2  0
 15 17  1  0
 17 18  1  0
 19 18  2  0
 18 20  1  0
 19 23  1  0
 20 21  2  0
 21 22  1  0
 22 23  2  0
 22 24  1  0
 23 25  1  0
 27 25  1  0
 25 28  2  0
 26 27  2  0
 26 30  1  0
 28 29  1  0
 29 30  2  0
 29 31  1  0
 31 32  1  0
 31 33  2  0
  8 34  1  0
  9 35  1  0
 10 36  1  0
 13 37  1  0
 13 38  1  0
 14 39  1  0
 14 40  1  0
 17 41  1  0
 20 42  1  0
 21 43  1  0
 24 44  1  0
 24 45  1  0
 24 46  1  0
 26 47  1  0
 27 48  1  0
 28 49  1  0
 30 50  1  0
 32 51  1  0
M  END
> <Uni-Dock RESULT> 
ENERGY=   -5.693  LOWER_BOUND=    4.027  UPPER_BOUND=    6.124
INTER + INTRA:          -5.693
INTER:                  -5.693
INTRA:                   0.000
UNBOUND:                 0.000

$$$$

     RDKit          3D

 51 55  0  0  0  0  0  0  0  0999 V2000
   44.8030   10.7003   12.0664 O   0  0  0  0  0  0  0  0  0  0  0  0
   43.6575   10.2538   11.3266 C   0  0  0  0  0  0  0  0  0  0  0  0
   43.6290    8.8476   11.0472 O   0  0  0  0  0  0  0  0  0  0  0  0
   44.7910    8.4664   11.6397 C   0  0  0  0  0  0  0  0  0  0  0  0
   45.4592    9.5189   12.2191 C   0  0  0  0  0  0  0  0  0  0  0  0
   43.6154   10.9281   10.1509 F   0  0  0  0  0  0  0  0  0  0  0  0
   42.5412   10.5781   12.0245 F   0  0  0  0  0  0  0  0  0  0  0  0
   46.6613    9.3475   12.8758 C   0  0  0  0  0  0  0  0  0  0  0  0
   45.2882    7.1852   11.6875 C   0  0  0  0  0  0  0  0  0  0  0  0
   46.5062    6.9881   12.3477 C   0  0  0  0  0  0  0  0  0  0  0  0
   47.2206    8.0572   12.9487 C   0  0  0  0  0  0  0  0  0  0  0  0
   48.5400    7.7956   13.6724 C   0  0  0  0  0  0  0  0  0  0  0  0
   49.7432    8.6830   13.3563 C   0  0  0  0  0  0  0  0  0  0  0  0
   49.7067    7.2864   12.8259 C   0  0  0  0  0  0  0  0  0  0  0  0
   48.4169    7.2393   15.0740 C   0  0  0  0  0  0  0  0  0  0  0  0
   48.4417    6.0283   15.2441 O   0  0  0  0  0  0  0  0  0  0  0  0
   48.2762    8.2148   16.0250 N   0  0  0  0  0  0  0  0  0  0  0  0
   48.1333    8.0671   17.4021 C   0  0  0  0  0  0  0  0  0  0  0  0
   48.0076    9.2422   18.0509 N   0  0  0  0  0  0  0  0  0  0  0  0
   48.1233    6.8499   18.0586 C   0  0  0  0  0  0  0  0  0  0  0  0
   47.9680    6.8399   19.4425 C   0  0  0  0  0  0  0  0  0  0  0  0
   47.8229    8.0409   20.1430 C   0  0  0  0  0  0  0  0  0  0  0  0
   47.8689    9.2284   19.4034 C   0  0  0  0  0  0  0  0  0  0  0  0
   47.6470    8.0121   21.6328 C   0  0  0  0  0  0  0  0  0  0  0  0
   47.7646   10.5690   20.0000 C   0  0  0  0  0  0  0  0  0  0  0  0
   46.5859   12.6960   20.2075 C   0  0  0  0  0  0  0  0  0  0  0  0
   46.6994   11.4186   19.6550 C   0  0  0  0  0  0  0  0  0  0  0  0
   48.7307   11.0460   20.9024 C   0  0  0  0  0  0  0  0  0  0  0  0
   48.6218   12.3273   21.4612 C   0  0  0  0  0  0  0  0  0  0  0  0
   47.5446   13.1491   21.1120 C   0  0  0  0  0  0  0  0  0  0  0  0
   49.6230   12.8535   22.4197 C   0  0  0  0  0  0  0  0  0  0  0  0
   50.5873   11.9623   22.7102 O   0  0  0  0  0  0  0  0  0  0  0  0
   49.6150   13.9611   22.9239 O   0  0  0  0  0  0  0  0  0  0  0  0
   47.1605   10.2004   13.3247 H   0  0  0  0  0  0  0  0  0  0  0  0
   44.7558    6.3557   11.2349 H   0  0  0  0  0  0  0  0  0  0  0  0
   46.9151    5.9790   12.4083 H   0  0  0  0  0  0  0  0  0  0  0  0
   49.6342    9.4899   12.6402 H   0  0  0  0  0  0  0  0  0  0  0  0
   50.4553    8.8976   14.1463 H   0  0  0  0  0  0  0  0  0  0  0  0
   49.5593    7.1515   11.7602 H   0  0  0  0  0  0  0  0  0  0  0  0
   50.3725    6.5519   13.2676 H   0  0  0  0  0  0  0  0  0  0  0  0
   48.2577    9.1821   15.7355 H   0  0  0  0  0  0  0  0  0  0  0  0
   48.2290    5.9077   17.5347 H   0  0  0  0  0  0  0  0  0  0  0  0
   47.9548    5.8863   19.9657 H   0  0  0  0  0  0  0  0  0  0  0  0
   47.3311    7.0200   21.9736 H   0  0  0  0  0  0  0  0  0  0  0  0
   48.5897    8.2561   22.1318 H   0  0  0  0  0  0  0  0  0  0  0  0
   46.8711    8.7157   21.9513 H   0  0  0  0  0  0  0  0  0  0  0  0
   45.7532   13.3370   19.9285 H   0  0  0  0  0  0  0  0  0  0  0  0
   45.9490   11.0786   18.9422 H   0  0  0  0  0  0  0  0  0  0  0  0
   49.5796   10.4146   21.1576 H   0  0  0  0  0  0  0  0  0  0  0  0
   47.4528   14.1463   21.5383 H   0  0  0  0  0  0  0  0  0  0  0  0
   51.1666   12.4418   23.3393 H   0  0  0  0  0  0  0  0  0  0  0  0
  1  2  1  0
  1  5  1  0
  2  3  1  0
  3  4  1  0
  2  6  1  0
  2  7  1  0
  8  5  1  0
  5  4  2  0
  4  9  1  0
  8 11  2  0
  9 10  2  0
 10 11  1  0
 11 12  1  0
 12 13  1  0
 13 14  1  0
 14 12  1  0
 12 15  1  0
 15 16  2  0
 15 17  1  0
 17 18  1  0
 19 18  2  0
 18 20  1  0
 19 23  1  0
 20 21  2  0
 21 22  1  0
 22 23  2  0
 22 24  1  0
 23 25  1  0
 27 25  1  0
 25 28  2  0
 26 27  2  0
 26 30  1  0
 28 29  1  0
 29 30  2  0
 29 31  1  0
 31 32  1  0
 31 33  2  0
  8 34  1  0
  9 35  1  0
 10 36  1  0
 13 37  1  0
 13 38  1  0
 14 39  1  0
 14 40  1  0
 17 41  1  0
 20 42  1  0
 21 43  1  0
 24 44  1  0
 24 45  1  0
 24 46  1  0
 26 47  1  0
 27 48  1  0
 28 49  1  0
 30 50  1  0
 32 51  1  0
M  END
> <Uni-Dock RESULT> 
ENERGY=   -5.593  LOWER_BOUND=    4.272  UPPER_BOUND=   10.133
INTER + INTRA:          -5.593
INTER:                  -5.593
INTRA:                   0.000
UNBOUND:                 0.000

$$$$

     RDKit          3D

 51 55  0  0  0  0  0  0  0  0999 V2000
   52.7555    4.0129   19.1112 O   0  0  0  0  0  0  0  0  0  0  0  0
   53.6941    2.9339   18.9954 C   0  0  0  0  0  0  0  0  0  0  0  0
   53.2318    1.8099   18.2343 O   0  0  0  0  0  0  0  0  0  0  0  0
   51.9894    2.2472   17.8999 C   0  0  0  0  0  0  0  0  0  0  0  0
   51.7177    3.4993   18.3981 C   0  0  0  0  0  0  0  0  0  0  0  0
   54.0155    2.5079   20.2419 F   0  0  0  0  0  0  0  0  0  0  0  0
   54.8267    3.4084   18.4203 F   0  0  0  0  0  0  0  0  0  0  0  0
   50.5099    4.1285   18.1719 C   0  0  0  0  0  0  0  0  0  0  0  0
   51.0685    1.5575   17.1468 C   0  0  0  0  0  0  0  0  0  0  0  0
   49.8366    2.1760   16.9053 C   0  0  0  0  0  0  0  0  0  0  0  0
   49.5268    3.4647   17.4130 C   0  0  0  0  0  0  0  0  0  0  0  0
   48.1751    4.1096   17.1133 C   0  0  0  0  0  0  0  0  0  0  0  0
   47.3775    4.7199   18.2651 C   0  0  0  0  0  0  0  0  0  0  0  0
   46.9352    3.4178   17.6802 C   0  0  0  0  0  0  0  0  0  0  0  0
   48.0415    4.7405   15.7447 C   0  0  0  0  0  0  0  0  0  0  0  0
   47.5824    4.0821   14.8218 O   0  0  0  0  0  0  0  0  0  0  0  0
   48.4846    6.0361   15.7087 N   0  0  0  0  0  0  0  0  0  0  0  0
   48.5154    6.9105   14.6257 C   0  0  0  0  0  0  0  0  0  0  0  0
   49.0263    8.1192   14.9349 N   0  0  0  0  0  0  0  0  0  0  0  0
   48.0689    6.5944   13.3555 C   0  0  0  0  0  0  0  0  0  0  0  0
   48.1600    7.5606   12.3567 C   0  0  0  0  0  0  0  0  0  0  0  0
   48.6963    8.8195   12.6426 C   0  0  0  0  0  0  0  0  0  0  0  0
   49.1017    9.0639   13.9599 C   0  0  0  0  0  0  0  0  0  0  0  0
   48.7961    9.8462   11.5529 C   0  0  0  0  0  0  0  0  0  0  0  0
   49.6532   10.3469   14.4221 C   0  0  0  0  0  0  0  0  0  0  0  0
   51.5017   11.6233   15.3763 C   0  0  0  0  0  0  0  0  0  0  0  0
   50.9624   10.4155   14.9288 C   0  0  0  0  0  0  0  0  0  0  0  0
   48.8871   11.5249   14.3965 C   0  0  0  0  0  0  0  0  0  0  0  0
   49.4232   12.7408   14.8435 C   0  0  0  0  0  0  0  0  0  0  0  0
   50.7340   12.7857   15.3310 C   0  0  0  0  0  0  0  0  0  0  0  0
   48.6398   13.9994   14.8225 C   0  0  0  0  0  0  0  0  0  0  0  0
   47.4120   13.8420   14.2967 O   0  0  0  0  0  0  0  0  0  0  0  0
   49.0220   15.0847   15.2186 O   0  0  0  0  0  0  0  0  0  0  0  0
   50.3299    5.1189   18.5779 H   0  0  0  0  0  0  0  0  0  0  0  0
   51.2880    0.5723   16.7496 H   0  0  0  0  0  0  0  0  0  0  0  0
   49.0943    1.6532   16.3013 H   0  0  0  0  0  0  0  0  0  0  0  0
   47.7918    4.6999   19.2670 H   0  0  0  0  0  0  0  0  0  0  0  0
   46.7596    5.5899   18.0686 H   0  0  0  0  0  0  0  0  0  0  0  0
   47.0638    2.5225   18.2782 H   0  0  0  0  0  0  0  0  0  0  0  0
   46.0365    3.4070   17.0719 H   0  0  0  0  0  0  0  0  0  0  0  0
   48.8557    6.4504   16.5514 H   0  0  0  0  0  0  0  0  0  0  0  0
   47.6549    5.6236   13.1114 H   0  0  0  0  0  0  0  0  0  0  0  0
   47.8149    7.3181   11.3541 H   0  0  0  0  0  0  0  0  0  0  0  0
   48.7267    9.3798   10.5640 H   0  0  0  0  0  0  0  0  0  0  0  0
   47.9839   10.5740   11.6407 H   0  0  0  0  0  0  0  0  0  0  0  0
   49.7591   10.3657   11.5886 H   0  0  0  0  0  0  0  0  0  0  0  0
   52.5173   11.6551   15.7632 H   0  0  0  0  0  0  0  0  0  0  0  0
   51.5687    9.5117   14.9773 H   0  0  0  0  0  0  0  0  0  0  0  0
   47.8607   11.4855   14.0369 H   0  0  0  0  0  0  0  0  0  0  0  0
   51.1581   13.7242   15.6829 H   0  0  0  0  0  0  0  0  0  0  0  0
   47.0182   14.7381   14.3510 H   0  0  0  0  0  0  0  0  0  0  0  0
  1  2  1  0
  1  5  1  0
  2  3  1  0
  3  4  1  0
  2  6  1  0
  2  7  1  0
  8  5  1  0
  5  4  2  0
  4  9  1  0
  8 11  2  0
  9 10  2  0
 10 11  1  0
 11 12  1  0
 12 13  1  0
 13 14  1  0
 14 12  1  0
 12 15  1  0
 15 16  2  0
 15 17  1  0
 17 18  1  0
 19 18  2  0
 18 20  1  0
 19 23  1  0
 20 21  2  0
 21 22  1  0
 22 23  2  0
 22 24  1  0
 23 25  1  0
 27 25  1  0
 25 28  2  0
 26 27  2  0
 26 30  1  0
 28 29  1  0
 29 30  2  0
 29 31  1  0
 31 32  1  0
 31 33  2  0
  8 34  1  0
  9 35  1  0
 10 36  1  0
 13 37  1  0
 13 38  1  0
 14 39  1  0
 14 40  1  0
 17 41  1  0
 20 42  1  0
 21 43  1  0
 24 44  1  0
 24 45  1  0
 24 46  1  0
 26 47  1  0
 27 48  1  0
 28 49  1  0
 30 50  1  0
 32 51  1  0
M  END
> <Uni-Dock RESULT> 
ENERGY=   -4.976  LOWER_BOUND=    4.405  UPPER_BOUND=    7.496
INTER + INTRA:          -4.976
INTER:                  -4.976
INTRA:                   0.000
UNBOUND:                 0.000

$$$$

     RDKit          3D

 51 55  0  0  0  0  0  0  0  0999 V2000
   55.1603    5.7119   14.0204 O   0  0  0  0  0  0  0  0  0  0  0  0
   56.1192    6.1277   15.0035 C   0  0  0  0  0  0  0  0  0  0  0  0
   56.4886    7.5118   14.9398 O   0  0  0  0  0  0  0  0  0  0  0  0
   55.7244    7.9113   13.8896 C   0  0  0  0  0  0  0  0  0  0  0  0
   54.9691    6.8888   13.3662 C   0  0  0  0  0  0  0  0  0  0  0  0
   57.2379    5.3755   14.8578 F   0  0  0  0  0  0  0  0  0  0  0  0
   55.6118    5.8723   16.2346 F   0  0  0  0  0  0  0  0  0  0  0  0
   54.1213    7.0826   12.2940 C   0  0  0  0  0  0  0  0  0  0  0  0
   55.6710    9.1834   13.3703 C   0  0  0  0  0  0  0  0  0  0  0  0
   54.8185    9.4029   12.2824 C   0  0  0  0  0  0  0  0  0  0  0  0
   54.0327    8.3644   11.7177 C   0  0  0  0  0  0  0  0  0  0  0  0
   53.1040    8.6507   10.5395 C   0  0  0  0  0  0  0  0  0  0  0  0
   53.1434    7.7219    9.3267 C   0  0  0  0  0  0  0  0  0  0  0  0
   53.7601    9.0795    9.2269 C   0  0  0  0  0  0  0  0  0  0  0  0
   51.7853    9.3037   10.8910 C   0  0  0  0  0  0  0  0  0  0  0  0
   51.6913   10.5228   10.8601 O   0  0  0  0  0  0  0  0  0  0  0  0
   50.8140    8.3982   11.2266 N   0  0  0  0  0  0  0  0  0  0  0  0
   49.4967    8.6422   11.6056 C   0  0  0  0  0  0  0  0  0  0  0  0
   48.8067    7.5167   11.8791 N   0  0  0  0  0  0  0  0  0  0  0  0
   48.9317    9.9015   11.6945 C   0  0  0  0  0  0  0  0  0  0  0  0
   47.6010   10.0089   12.0911 C   0  0  0  0  0  0  0  0  0  0  0  0
   46.8622    8.8615   12.3937 C   0  0  0  0  0  0  0  0  0  0  0  0
   47.5042    7.6255   12.2537 C   0  0  0  0  0  0  0  0  0  0  0  0
   45.4324    8.9952   12.8286 C   0  0  0  0  0  0  0  0  0  0  0  0
   46.8511    6.3310   12.5020 C   0  0  0  0  0  0  0  0  0  0  0  0
   46.7210    4.2451   13.7623 C   0  0  0  0  0  0  0  0  0  0  0  0
   47.3251    5.4794   13.5148 C   0  0  0  0  0  0  0  0  0  0  0  0
   45.7625    5.8992   11.7250 C   0  0  0  0  0  0  0  0  0  0  0  0
   45.1511    4.6613   11.9693 C   0  0  0  0  0  0  0  0  0  0  0  0
   45.6331    3.8374   12.9923 C   0  0  0  0  0  0  0  0  0  0  0  0
   43.9980    4.1835   11.1692 C   0  0  0  0  0  0  0  0  0  0  0  0
   43.5982    5.0747   10.2448 O   0  0  0  0  0  0  0  0  0  0  0  0
   43.4335    3.1134   11.2994 O   0  0  0  0  0  0  0  0  0  0  0  0
   53.5370    6.2535   11.9078 H   0  0  0  0  0  0  0  0  0  0  0  0
   56.2633    9.9897   13.7893 H   0  0  0  0  0  0  0  0  0  0  0  0
   54.7508   10.4061   11.8604 H   0  0  0  0  0  0  0  0  0  0  0  0
   53.8143    6.8701    9.3319 H   0  0  0  0  0  0  0  0  0  0  0  0
   52.2272    7.5489    8.7719 H   0  0  0  0  0  0  0  0  0  0  0  0
   54.8415    9.1439    9.1799 H   0  0  0  0  0  0  0  0  0  0  0  0
   53.2550    9.8301    8.6277 H   0  0  0  0  0  0  0  0  0  0  0  0
   51.0397    7.4139   11.2229 H   0  0  0  0  0  0  0  0  0  0  0  0
   49.4877   10.8036   11.4698 H   0  0  0  0  0  0  0  0  0  0  0  0
   47.1508   10.9961   12.1677 H   0  0  0  0  0  0  0  0  0  0  0  0
   45.2175   10.0139   13.1696 H   0  0  0  0  0  0  0  0  0  0  0  0
   44.7590    8.7687   11.9964 H   0  0  0  0  0  0  0  0  0  0  0  0
   45.2127    8.3294   13.6693 H   0  0  0  0  0  0  0  0  0  0  0  0
   47.1021    3.6018   14.5517 H   0  0  0  0  0  0  0  0  0  0  0  0
   48.1803    5.7836   14.1170 H   0  0  0  0  0  0  0  0  0  0  0  0
   45.4012    6.5309   10.9158 H   0  0  0  0  0  0  0  0  0  0  0  0
   45.1671    2.8735   13.1879 H   0  0  0  0  0  0  0  0  0  0  0  0
   42.8467    4.6288    9.8003 H   0  0  0  0  0  0  0  0  0  0  0  0
  1  2  1  0
  1  5  1  0
  2  3  1  0
  3  4  1  0
  2  6  1  0
  2  7  1  0
  8  5  1  0
  5  4  2  0
  4  9  1  0
  8 11  2  0
  9 10  2  0
 10 11  1  0
 11 12  1  0
 12 13  1  0
 13 14  1  0
 14 12  1  0
 12 15  1  0
 15 16  2  0
 15 17  1  0
 17 18  1  0
 19 18  2  0
 18 20  1  0
 19 23  1  0
 20 21  2  0
 21 22  1  0
 22 23  2  0
 22 24  1  0
 23 25  1  0
 27 25  1  0
 25 28  2  0
 26 27  2  0
 26 30  1  0
 28 29  1  0
 29 30  2  0
 29 31  1  0
 31 32  1  0
 31 33  2  0
  8 34  1  0
  9 35  1  0
 10 36  1  0
 13 37  1  0
 13 38  1  0
 14 39  1  0
 14 40  1  0
 17 41  1  0
 20 42  1  0
 21 43  1  0
 24 44  1  0
 24 45  1  0
 24 46  1  0
 26 47  1  0
 27 48  1  0
 28 49  1  0
 30 50  1  0
 32 51  1  0
M  END
> <Uni-Dock RESULT> 
ENERGY=   -4.849  LOWER_BOUND=    5.045  UPPER_BOUND=    6.286
INTER + INTRA:          -4.849
INTER:                  -4.849
INTRA:                   0.000
UNBOUND:                 0.000

$$$$

     RDKit          3D

 51 55  0  0  0  0  0  0  0  0999 V2000
   45.6122    4.8646   11.0697 O   0  0  0  0  0  0  0  0  0  0  0  0
   44.2597    5.0682   10.6360 C   0  0  0  0  0  0  0  0  0  0  0  0
   43.6956    6.3375   10.9921 O   0  0  0  0  0  0  0  0  0  0  0  0
   44.7488    6.8863   11.6524 C   0  0  0  0  0  0  0  0  0  0  0  0
   45.8387    6.0496   11.6973 C   0  0  0  0  0  0  0  0  0  0  0  0
   43.4863    4.0886   11.1657 F   0  0  0  0  0  0  0  0  0  0  0  0
   44.2163    4.9395    9.2869 F   0  0  0  0  0  0  0  0  0  0  0  0
   47.0148    6.4158   12.3207 C   0  0  0  0  0  0  0  0  0  0  0  0
   44.7769    8.1352   12.2270 C   0  0  0  0  0  0  0  0  0  0  0  0
   45.9590    8.5274   12.8653 C   0  0  0  0  0  0  0  0  0  0  0  0
   47.0968    7.6815   12.9326 C   0  0  0  0  0  0  0  0  0  0  0  0
   48.3724    8.1548   13.6266 C   0  0  0  0  0  0  0  0  0  0  0  0
   49.0477    7.2304   14.6388 C   0  0  0  0  0  0  0  0  0  0  0  0
   48.2873    8.4195   15.1298 C   0  0  0  0  0  0  0  0  0  0  0  0
   49.2507    9.0830   12.8166 C   0  0  0  0  0  0  0  0  0  0  0  0
   49.1110   10.2929   12.9292 O   0  0  0  0  0  0  0  0  0  0  0  0
   50.1320    8.4143   12.0090 N   0  0  0  0  0  0  0  0  0  0  0  0
   51.0761    8.9434   11.1330 C   0  0  0  0  0  0  0  0  0  0  0  0
   51.7800    7.9981   10.4784 N   0  0  0  0  0  0  0  0  0  0  0  0
   51.2900   10.2963   10.9417 C   0  0  0  0  0  0  0  0  0  0  0  0
   52.2644   10.6952   10.0302 C   0  0  0  0  0  0  0  0  0  0  0  0
   53.0028    9.7394    9.3265 C   0  0  0  0  0  0  0  0  0  0  0  0
   52.7392    8.3919    9.5988 C   0  0  0  0  0  0  0  0  0  0  0  0
   54.0425   10.1859    8.3411 C   0  0  0  0  0  0  0  0  0  0  0  0
   53.4544    7.2735    8.9652 C   0  0  0  0  0  0  0  0  0  0  0  0
   53.4207    5.2763    7.5629 C   0  0  0  0  0  0  0  0  0  0  0  0
   52.7598    6.3468    8.1688 C   0  0  0  0  0  0  0  0  0  0  0  0
   54.8338    7.0841    9.1568 C   0  0  0  0  0  0  0  0  0  0  0  0
   55.5032    6.0117    8.5503 C   0  0  0  0  0  0  0  0  0  0  0  0
   54.7917    5.1104    7.7509 C   0  0  0  0  0  0  0  0  0  0  0  0
   56.9582    5.7915    8.7306 C   0  0  0  0  0  0  0  0  0  0  0  0
   57.5413    6.7414    9.4831 O   0  0  0  0  0  0  0  0  0  0  0  0
   57.6040    4.8717    8.2638 O   0  0  0  0  0  0  0  0  0  0  0  0
   47.8571    5.7315   12.3347 H   0  0  0  0  0  0  0  0  0  0  0  0
   43.9176    8.7957   12.1847 H   0  0  0  0  0  0  0  0  0  0  0  0
   46.0091    9.5179   13.3187 H   0  0  0  0  0  0  0  0  0  0  0  0
   48.6209    6.2526   14.8322 H   0  0  0  0  0  0  0  0  0  0  0  0
   50.1285    7.2576   14.7304 H   0  0  0  0  0  0  0  0  0  0  0  0
   47.3456    8.2456   15.6385 H   0  0  0  0  0  0  0  0  0  0  0  0
   48.8479    9.2578   15.5308 H   0  0  0  0  0  0  0  0  0  0  0  0
   50.1257    7.4045   12.0075 H   0  0  0  0  0  0  0  0  0  0  0  0
   50.7255   11.0533   11.4727 H   0  0  0  0  0  0  0  0  0  0  0  0
   52.4355   11.7575    9.8710 H   0  0  0  0  0  0  0  0  0  0  0  0
   53.8852   11.2295    8.0473 H   0  0  0  0  0  0  0  0  0  0  0  0
   55.0417   10.1056    8.7799 H   0  0  0  0  0  0  0  0  0  0  0  0
   53.9965    9.5907    7.4234 H   0  0  0  0  0  0  0  0  0  0  0  0
   52.8651    4.5714    6.9492 H   0  0  0  0  0  0  0  0  0  0  0  0
   51.6865    6.4612    8.0220 H   0  0  0  0  0  0  0  0  0  0  0  0
   55.3828    7.7733    9.7955 H   0  0  0  0  0  0  0  0  0  0  0  0
   55.3018    4.2732    7.2782 H   0  0  0  0  0  0  0  0  0  0  0  0
   58.4819    6.4671    9.5176 H   0  0  0  0  0  0  0  0  0  0  0  0
  1  2  1  0
  1  5  1  0
  2  3  1  0
  3  4  1  0
  2  6  1  0
  2  7  1  0
  8  5  1  0
  5  4  2  0
  4  9  1  0
  8 11  2  0
  9 10  2  0
 10 11  1  0
 11 12  1  0
 12 13  1  0
 13 14  1  0
 14 12  1  0
 12 15  1  0
 15 16  2  0
 15 17  1  0
 17 18  1  0
 19 18  2  0
 18 20  1  0
 19 23  1  0
 20 21  2  0
 21 22  1  0
 22 23  2  0
 22 24  1  0
 23 25  1  0
 27 25  1  0
 25 28  2  0
 26 27  2  0
 26 30  1  0
 28 29  1  0
 29 30  2  0
 29 31  1  0
 31 32  1  0
 31 33  2  0
  8 34  1  0
  9 35  1  0
 10 36  1  0
 13 37  1  0
 13 38  1  0
 14 39  1  0
 14 40  1  0
 17 41  1  0
 20 42  1  0
 21 43  1  0
 24 44  1  0
 24 45  1  0
 24 46  1  0
 26 47  1  0
 27 48  1  0
 28 49  1  0
 30 50  1  0
 32 51  1  0
M  END
> <Uni-Dock RESULT> 
ENERGY=   -4.775  LOWER_BOUND=    6.409  UPPER_BOUND=    8.819
INTER + INTRA:          -4.775
INTER:                  -4.775
INTRA:                   0.000
UNBOUND:                 0.000

$$$$

     RDKit          3D

 51 55  0  0  0  0  0  0  0  0999 V2000
   39.9664   13.9596   15.5702 O   0  0  0  0  0  0  0  0  0  0  0  0
   39.0216   13.1675   14.8363 C   0  0  0  0  0  0  0  0  0  0  0  0
   39.2657   13.0890   13.4254 O   0  0  0  0  0  0  0  0  0  0  0  0
   40.3825   13.8580   13.3367 C   0  0  0  0  0  0  0  0  0  0  0  0
   40.7815   14.3536   14.5553 C   0  0  0  0  0  0  0  0  0  0  0  0
   37.7835   13.6846   15.0317 F   0  0  0  0  0  0  0  0  0  0  0  0
   39.0254   11.9111   15.3458 F   0  0  0  0  0  0  0  0  0  0  0  0
   41.8958   15.1579   14.6868 C   0  0  0  0  0  0  0  0  0  0  0  0
   41.0777   14.1385   12.1838 C   0  0  0  0  0  0  0  0  0  0  0  0
   42.2106   14.9527   12.2933 C   0  0  0  0  0  0  0  0  0  0  0  0
   42.6413   15.4834   13.5373 C   0  0  0  0  0  0  0  0  0  0  0  0
   43.8923   16.3562   13.6143 C   0  0  0  0  0  0  0  0  0  0  0  0
   43.8226   17.6798   14.3747 C   0  0  0  0  0  0  0  0  0  0  0  0
   43.8496   17.6967   12.8807 C   0  0  0  0  0  0  0  0  0  0  0  0
   45.2095   15.6119   13.6042 C   0  0  0  0  0  0  0  0  0  0  0  0
   45.7847   15.4227   12.5415 O   0  0  0  0  0  0  0  0  0  0  0  0
   45.6076   15.2145   14.8531 N   0  0  0  0  0  0  0  0  0  0  0  0
   46.7535   14.5103   15.2131 C   0  0  0  0  0  0  0  0  0  0  0  0
   46.8350   14.2723   16.5376 N   0  0  0  0  0  0  0  0  0  0  0  0
   47.7240   14.0920   14.3209 C   0  0  0  0  0  0  0  0  0  0  0  0
   48.8224   13.3900   14.8109 C   0  0  0  0  0  0  0  0  0  0  0  0
   48.9300   13.1165   16.1776 C   0  0  0  0  0  0  0  0  0  0  0  0
   47.9154   13.5976   17.0134 C   0  0  0  0  0  0  0  0  0  0  0  0
   50.1151   12.3508   16.6880 C   0  0  0  0  0  0  0  0  0  0  0  0
   47.9044   13.4196   18.4736 C   0  0  0  0  0  0  0  0  0  0  0  0
   46.8425   12.5176   20.4774 C   0  0  0  0  0  0  0  0  0  0  0  0
   46.8723   12.6934   19.0924 C   0  0  0  0  0  0  0  0  0  0  0  0
   48.8996   13.9869   19.2878 C   0  0  0  0  0  0  0  0  0  0  0  0
   48.8757   13.8131   20.6788 C   0  0  0  0  0  0  0  0  0  0  0  0
   47.8448   13.0743   21.2698 C   0  0  0  0  0  0  0  0  0  0  0  0
   49.9156   14.3952   21.5608 C   0  0  0  0  0  0  0  0  0  0  0  0
   50.8741   15.0471   20.8791 O   0  0  0  0  0  0  0  0  0  0  0  0
   49.9487   14.3145   22.7747 O   0  0  0  0  0  0  0  0  0  0  0  0
   42.1841   15.5294   15.6650 H   0  0  0  0  0  0  0  0  0  0  0  0
   40.7643   13.7410   11.2246 H   0  0  0  0  0  0  0  0  0  0  0  0
   42.7847   15.1799   11.3945 H   0  0  0  0  0  0  0  0  0  0  0  0
   42.8953   17.9659   14.8586 H   0  0  0  0  0  0  0  0  0  0  0  0
   44.7086   18.0312   14.8931 H   0  0  0  0  0  0  0  0  0  0  0  0
   42.9415   17.9783   12.3594 H   0  0  0  0  0  0  0  0  0  0  0  0
   44.7550   18.0351   12.3873 H   0  0  0  0  0  0  0  0  0  0  0  0
   45.0200   15.4289   15.6458 H   0  0  0  0  0  0  0  0  0  0  0  0
   47.6576   14.2887   13.2577 H   0  0  0  0  0  0  0  0  0  0  0  0
   49.5877   13.0539   14.1149 H   0  0  0  0  0  0  0  0  0  0  0  0
   50.6141   11.8095   15.8768 H   0  0  0  0  0  0  0  0  0  0  0  0
   50.8436   13.0326   17.1371 H   0  0  0  0  0  0  0  0  0  0  0  0
   49.8114   11.6013   17.4259 H   0  0  0  0  0  0  0  0  0  0  0  0
   46.0360   11.9509   20.9363 H   0  0  0  0  0  0  0  0  0  0  0  0
   46.0787   12.2613   18.4840 H   0  0  0  0  0  0  0  0  0  0  0  0
   49.6896   14.5789   18.8298 H   0  0  0  0  0  0  0  0  0  0  0  0
   47.8159   12.9362   22.3490 H   0  0  0  0  0  0  0  0  0  0  0  0
   51.4771   15.3744   21.5794 H   0  0  0  0  0  0  0  0  0  0  0  0
  1  2  1  0
  1  5  1  0
  2  3  1  0
  3  4  1  0
  2  6  1  0
  2  7  1  0
  8  5  1  0
  5  4  2  0
  4  9  1  0
  8 11  2  0
  9 10  2  0
 10 11  1  0
 11 12  1  0
 12 13  1  0
 13 14  1  0
 14 12  1  0
 12 15  1  0
 15 16  2  0
 15 17  1  0
 17 18  1  0
 19 18  2  0
 18 20  1  0
 19 23  1  0
 20 21  2  0
 21 22  1  0
 22 23  2  0
 22 24  1  0
 23 25  1  0
 27 25  1  0
 25 28  2  0
 26 27  2  0
 26 30  1  0
 28 29  1  0
 29 30  2  0
 29 31  1  0
 31 32  1  0
 31 33  2  0
  8 34  1  0
  9 35  1  0
 10 36  1  0
 13 37  1  0
 13 38  1  0
 14 39  1  0
 14 40  1  0
 17 41  1  0
 20 42  1  0
 21 43  1  0
 24 44  1  0
 24 45  1  0
 24 46  1  0
 26 47  1  0
 27 48  1  0
 28 49  1  0
 30 50  1  0
 32 51  1  0
M  END
> <Uni-Dock RESULT> 
ENERGY=   -4.532  LOWER_BOUND=    8.215  UPPER_BOUND=   11.850
INTER + INTRA:          -4.532
INTER:                  -4.532
INTRA:                   0.000
UNBOUND:                 0.000

$$$$

     RDKit          3D

 51 55  0  0  0  0  0  0  0  0999 V2000
   52.7562    5.8461    7.6229 O   0  0  0  0  0  0  0  0  0  0  0  0
   53.9654    5.1349    7.9242 C   0  0  0  0  0  0  0  0  0  0  0  0
   55.1736    5.8139    7.5561 O   0  0  0  0  0  0  0  0  0  0  0  0
   54.6521    6.9507    7.0248 C   0  0  0  0  0  0  0  0  0  0  0  0
   53.2780    6.9698    7.0621 C   0  0  0  0  0  0  0  0  0  0  0  0
   53.9311    3.9390    7.2860 F   0  0  0  0  0  0  0  0  0  0  0  0
   53.9982    4.8868    9.2567 F   0  0  0  0  0  0  0  0  0  0  0  0
   52.5494    8.0359    6.5736 C   0  0  0  0  0  0  0  0  0  0  0  0
   55.3719    7.9977    6.4987 C   0  0  0  0  0  0  0  0  0  0  0  0
   54.6538    9.0891    5.9970 C   0  0  0  0  0  0  0  0  0  0  0  0
   53.2352    9.1324    6.0165 C   0  0  0  0  0  0  0  0  0  0  0  0
   52.4911   10.3499    5.4717 C   0  0  0  0  0  0  0  0  0  0  0  0
   51.3302   10.1317    4.5021 C   0  0  0  0  0  0  0  0  0  0  0  0
   52.6342   10.6392    3.9774 C   0  0  0  0  0  0  0  0  0  0  0  0
   52.4278   11.5449    6.3974 C   0  0  0  0  0  0  0  0  0  0  0  0
   53.2814   12.4167    6.3124 O   0  0  0  0  0  0  0  0  0  0  0  0
   51.3708   11.4911    7.2668 N   0  0  0  0  0  0  0  0  0  0  0  0
   51.0123   12.4080    8.2513 C   0  0  0  0  0  0  0  0  0  0  0  0
   49.9134   12.0421    8.9414 N   0  0  0  0  0  0  0  0  0  0  0  0
   51.6959   13.5823    8.5091 C   0  0  0  0  0  0  0  0  0  0  0  0
   51.2348   14.4127    9.5276 C   0  0  0  0  0  0  0  0  0  0  0  0
   50.1053   14.0554   10.2696 C   0  0  0  0  0  0  0  0  0  0  0  0
   49.4592   12.8621    9.9264 C   0  0  0  0  0  0  0  0  0  0  0  0
   49.6271   14.9567   11.3697 C   0  0  0  0  0  0  0  0  0  0  0  0
   48.2427   12.3693   10.5908 C   0  0  0  0  0  0  0  0  0  0  0  0
   47.1113   10.6589   11.9138 C   0  0  0  0  0  0  0  0  0  0  0  0
   48.2571   11.1450   11.2809 C   0  0  0  0  0  0  0  0  0  0  0  0
   47.0355   13.0867   10.5334 C   0  0  0  0  0  0  0  0  0  0  0  0
   45.8819   12.6043   11.1677 C   0  0  0  0  0  0  0  0  0  0  0  0
   45.9254   11.3891   11.8600 C   0  0  0  0  0  0  0  0  0  0  0  0
   44.5970   13.3430   11.1283 C   0  0  0  0  0  0  0  0  0  0  0  0
   44.6868   14.5130   10.4713 O   0  0  0  0  0  0  0  0  0  0  0  0
   43.5484   12.9780   11.6265 O   0  0  0  0  0  0  0  0  0  0  0  0
   51.4652    8.0193    6.6218 H   0  0  0  0  0  0  0  0  0  0  0  0
   56.4561    7.9826    6.4763 H   0  0  0  0  0  0  0  0  0  0  0  0
   55.2030    9.9362    5.5849 H   0  0  0  0  0  0  0  0  0  0  0  0
   51.0457    9.1205    4.2334 H   0  0  0  0  0  0  0  0  0  0  0  0
   50.4967   10.8261    4.5214 H   0  0  0  0  0  0  0  0  0  0  0  0
   53.2328    9.9692    3.3704 H   0  0  0  0  0  0  0  0  0  0  0  0
   52.6928   11.6766    3.6639 H   0  0  0  0  0  0  0  0  0  0  0  0
   50.7491   10.6961    7.2334 H   0  0  0  0  0  0  0  0  0  0  0  0
   52.5761   13.8755    7.9498 H   0  0  0  0  0  0  0  0  0  0  0  0
   51.7697   15.3359    9.7392 H   0  0  0  0  0  0  0  0  0  0  0  0
   50.4150   15.6512   11.6813 H   0  0  0  0  0  0  0  0  0  0  0  0
   48.7704   15.5477   11.0318 H   0  0  0  0  0  0  0  0  0  0  0  0
   49.3472   14.3801   12.2573 H   0  0  0  0  0  0  0  0  0  0  0  0
   47.1440    9.7101   12.4439 H   0  0  0  0  0  0  0  0  0  0  0  0
   49.1759   10.5613   11.3220 H   0  0  0  0  0  0  0  0  0  0  0  0
   46.9967   14.0213    9.9773 H   0  0  0  0  0  0  0  0  0  0  0  0
   45.0345   11.0049   12.3532 H   0  0  0  0  0  0  0  0  0  0  0  0
   43.7791   14.8799   10.5229 H   0  0  0  0  0  0  0  0  0  0  0  0
  1  2  1  0
  1  5  1  0
  2  3  1  0
  3  4  1  0
  2  6  1  0
  2  7  1  0
  8  5  1  0
  5  4  2  0
  4  9  1  0
  8 11  2  0
  9 10  2  0
 10 11  1  0
 11 12  1  0
 12 13  1  0
 13 14  1  0
 14 12  1  0
 12 15  1  0
 15 16  2  0
 15 17  1  0
 17 18  1  0
 19 18  2  0
 18 20  1  0
 19 23  1  0
 20 21  2  0
 21 22  1  0
 22 23  2  0
 22 24  1  0
 23 25  1  0
 27 25  1  0
 25 28  2  0
 26 27  2  0
 26 30  1  0
 28 29  1  0
 29 30  2  0
 29 31  1  0
 31 32  1  0
 31 33  2  0
  8 34  1  0
  9 35  1  0
 10 36  1  0
 13 37  1  0
 13 38  1  0
 14 39  1  0
 14 40  1  0
 17 41  1  0
 20 42  1  0
 21 43  1  0
 24 44  1  0
 24 45  1  0
 24 46  1  0
 26 47  1  0
 27 48  1  0
 28 49  1  0
 30 50  1  0
 32 51  1  0
M  END
> <Uni-Dock RESULT> 
ENERGY=   -4.329  LOWER_BOUND=    8.449  UPPER_BOUND=   11.057
INTER + INTRA:          -4.329
INTER:                  -4.329
INTRA:                   0.000
UNBOUND:                 0.000

$$$$

     RDKit          3D

 51 55  0  0  0  0  0  0  0  0999 V2000
   47.0169    5.1088   12.7036 O   0  0  0  0  0  0  0  0  0  0  0  0
   46.6061    4.4134   13.8895 C   0  0  0  0  0  0  0  0  0  0  0  0
   47.1582    4.9231   15.1108 O   0  0  0  0  0  0  0  0  0  0  0  0
   47.9121    5.9421   14.6210 C   0  0  0  0  0  0  0  0  0  0  0  0
   47.8326    6.0483   13.2527 C   0  0  0  0  0  0  0  0  0  0  0  0
   46.9590    3.1099   13.7675 F   0  0  0  0  0  0  0  0  0  0  0  0
   45.2537    4.4652   13.9722 F   0  0  0  0  0  0  0  0  0  0  0  0
   48.5217    7.0200   12.5549 C   0  0  0  0  0  0  0  0  0  0  0  0
   48.6836    6.8032   15.3656 C   0  0  0  0  0  0  0  0  0  0  0  0
   49.3916    7.7959   14.6788 C   0  0  0  0  0  0  0  0  0  0  0  0
   49.3333    7.9243   13.2664 C   0  0  0  0  0  0  0  0  0  0  0  0
   50.1106    9.0318   12.5578 C   0  0  0  0  0  0  0  0  0  0  0  0
   50.9661    8.6717   11.3439 C   0  0  0  0  0  0  0  0  0  0  0  0
   51.6358    8.9741   12.6451 C   0  0  0  0  0  0  0  0  0  0  0  0
   49.4741   10.4037   12.5958 C   0  0  0  0  0  0  0  0  0  0  0  0
   49.7814   11.1843   13.4859 O   0  0  0  0  0  0  0  0  0  0  0  0
   48.5787   10.6051   11.5791 N   0  0  0  0  0  0  0  0  0  0  0  0
   47.8125   11.7364   11.3117 C   0  0  0  0  0  0  0  0  0  0  0  0
   47.0205   11.5965   10.2296 N   0  0  0  0  0  0  0  0  0  0  0  0
   47.8477   12.8971   12.0629 C   0  0  0  0  0  0  0  0  0  0  0  0
   47.0255   13.9577   11.6906 C   0  0  0  0  0  0  0  0  0  0  0  0
   46.1838   13.8395   10.5808 C   0  0  0  0  0  0  0  0  0  0  0  0
   46.2288   12.6391    9.8622 C   0  0  0  0  0  0  0  0  0  0  0  0
   45.2973   14.9881   10.1986 C   0  0  0  0  0  0  0  0  0  0  0  0
   45.4295   12.3769    8.6554 C   0  0  0  0  0  0  0  0  0  0  0  0
   43.7190   11.0703    7.5050 C   0  0  0  0  0  0  0  0  0  0  0  0
   44.4839   11.3371    8.6424 C   0  0  0  0  0  0  0  0  0  0  0  0
   45.6041   13.1322    7.4831 C   0  0  0  0  0  0  0  0  0  0  0  0
   44.8385   12.8697    6.3382 C   0  0  0  0  0  0  0  0  0  0  0  0
   43.8939   11.8376    6.3548 C   0  0  0  0  0  0  0  0  0  0  0  0
   44.9978   13.6542    5.0903 C   0  0  0  0  0  0  0  0  0  0  0  0
   45.9026   14.6424    5.2062 O   0  0  0  0  0  0  0  0  0  0  0  0
   44.3947   13.4699    4.0495 O   0  0  0  0  0  0  0  0  0  0  0  0
   48.4336    7.0770   11.4746 H   0  0  0  0  0  0  0  0  0  0  0  0
   48.7395    6.7210   16.4456 H   0  0  0  0  0  0  0  0  0  0  0  0
   50.0015    8.4976   15.2487 H   0  0  0  0  0  0  0  0  0  0  0  0
   50.9918    7.6442   10.9984 H   0  0  0  0  0  0  0  0  0  0  0  0
   51.0739    9.4000   10.5469 H   0  0  0  0  0  0  0  0  0  0  0  0
   52.0979    8.1529   13.1816 H   0  0  0  0  0  0  0  0  0  0  0  0
   52.1752    9.9111   12.7394 H   0  0  0  0  0  0  0  0  0  0  0  0
   48.4119    9.8597   10.9186 H   0  0  0  0  0  0  0  0  0  0  0  0
   48.4884   13.0078   12.9293 H   0  0  0  0  0  0  0  0  0  0  0  0
   47.0443   14.8724   12.2790 H   0  0  0  0  0  0  0  0  0  0  0  0
   45.1764   15.6877   11.0330 H   0  0  0  0  0  0  0  0  0  0  0  0
   45.7291   15.5380    9.3569 H   0  0  0  0  0  0  0  0  0  0  0  0
   44.2942   14.6397    9.9326 H   0  0  0  0  0  0  0  0  0  0  0  0
   42.9916   10.2622    7.5162 H   0  0  0  0  0  0  0  0  0  0  0  0
   44.3449   10.7249    9.5327 H   0  0  0  0  0  0  0  0  0  0  0  0
   46.3535   13.9210    7.4640 H   0  0  0  0  0  0  0  0  0  0  0  0
   43.2967   11.6244    5.4701 H   0  0  0  0  0  0  0  0  0  0  0  0
   45.9031   15.0635    4.3207 H   0  0  0  0  0  0  0  0  0  0  0  0
  1  2  1  0
  1  5  1  0
  2  3  1  0
  3  4  1  0
  2  6  1  0
  2  7  1  0
  8  5  1  0
  5  4  2  0
  4  9  1  0
  8 11  2  0
  9 10  2  0
 10 11  1  0
 11 12  1  0
 12 13  1  0
 13 14  1  0
 14 12  1  0
 12 15  1  0
 15 16  2  0
 15 17  1  0
 17 18  1  0
 19 18  2  0
 18 20  1  0
 19 23  1  0
 20 21  2  0
 21 22  1  0
 22 23  2  0
 22 24  1  0
 23 25  1  0
 27 25  1  0
 25 28  2  0
 26 27  2  0
 26 30  1  0
 28 29  1  0
 29 30  2  0
 29 31  1  0
 31 32  1  0
 31 33  2  0
  8 34  1  0
  9 35  1  0
 10 36  1  0
 13 37  1  0
 13 38  1  0
 14 39  1  0
 14 40  1  0
 17 41  1  0
 20 42  1  0
 21 43  1  0
 24 44  1  0
 24 45  1  0
 24 46  1  0
 26 47  1  0
 27 48  1  0
 28 49  1  0
 30 50  1  0
 32 51  1  0
M  END
> <Uni-Dock RESULT> 
ENERGY=   -4.253  LOWER_BOUND=    5.173  UPPER_BOUND=    6.918
INTER + INTRA:          -4.253
INTER:                  -4.253
INTRA:                   0.000
UNBOUND:                 0.000

$$$$
