
     RDKit          3D

 51 55  0  0  0  0  0  0  0  0999 V2000
   54.5084    9.5909    6.4850 O   0  0  0  0  0  0  0  0  0  0  0  0
   54.5719    8.6386    5.4148 C   0  0  0  0  0  0  0  0  0  0  0  0
   54.1819    7.3043    5.7690 O   0  0  0  0  0  0  0  0  0  0  0  0
   53.8855    7.4873    7.0826 C   0  0  0  0  0  0  0  0  0  0  0  0
   54.0714    8.7865    7.4903 C   0  0  0  0  0  0  0  0  0  0  0  0
   55.8430    8.6040    4.9437 F   0  0  0  0  0  0  0  0  0  0  0  0
   53.7736    9.0676    4.4062 F   0  0  0  0  0  0  0  0  0  0  0  0
   53.8250    9.1824    8.7889 C   0  0  0  0  0  0  0  0  0  0  0  0
   53.4419    6.5163    7.9501 C   0  0  0  0  0  0  0  0  0  0  0  0
   53.1863    6.8955    9.2732 C   0  0  0  0  0  0  0  0  0  0  0  0
   53.3762    8.2278    9.7230 C   0  0  0  0  0  0  0  0  0  0  0  0
   53.0801    8.6320   11.1659 C   0  0  0  0  0  0  0  0  0  0  0  0
   54.2518    9.1583   11.9952 C   0  0  0  0  0  0  0  0  0  0  0  0
   53.6886    7.8080   12.3000 C   0  0  0  0  0  0  0  0  0  0  0  0
   51.7319    9.2777   11.3999 C   0  0  0  0  0  0  0  0  0  0  0  0
   51.6341   10.4961   11.3583 O   0  0  0  0  0  0  0  0  0  0  0  0
   50.7369    8.3662   11.6352 N   0  0  0  0  0  0  0  0  0  0  0  0
   49.3851    8.6019   11.8709 C   0  0  0  0  0  0  0  0  0  0  0  0
   48.6765    7.4715   12.0673 N   0  0  0  0  0  0  0  0  0  0  0  0
   48.8065    9.8576   11.9004 C   0  0  0  0  0  0  0  0  0  0  0  0
   47.4398    9.9563   12.1485 C   0  0  0  0  0  0  0  0  0  0  0  0
   46.6788    8.8038   12.3651 C   0  0  0  0  0  0  0  0  0  0  0  0
   47.3394    7.5717   12.2943 C   0  0  0  0  0  0  0  0  0  0  0  0
   45.2085    8.9301   12.6375 C   0  0  0  0  0  0  0  0  0  0  0  0
   46.6709    6.2721   12.4649 C   0  0  0  0  0  0  0  0  0  0  0  0
   46.4285    4.1707   13.6832 C   0  0  0  0  0  0  0  0  0  0  0  0
   47.0486    5.4101   13.5087 C   0  0  0  0  0  0  0  0  0  0  0  0
   45.6642    5.8440   11.5836 C   0  0  0  0  0  0  0  0  0  0  0  0
   45.0370    4.6012   11.7535 C   0  0  0  0  0  0  0  0  0  0  0  0
   45.4208    3.7668   12.8087 C   0  0  0  0  0  0  0  0  0  0  0  0
   43.9748    4.2167   10.7933 C   0  0  0  0  0  0  0  0  0  0  0  0
   43.4769    2.9898   11.0269 O   0  0  0  0  0  0  0  0  0  0  0  0
   43.5614    4.9026    9.8769 O   0  0  0  0  0  0  0  0  0  0  0  0
   53.9686   10.2185    9.0840 H   0  0  0  0  0  0  0  0  0  0  0  0
   53.2930    5.4936    7.6206 H   0  0  0  0  0  0  0  0  0  0  0  0
   52.8312    6.1391    9.9712 H   0  0  0  0  0  0  0  0  0  0  0  0
   55.2345    9.2079   11.5394 H   0  0  0  0  0  0  0  0  0  0  0  0
   54.0574    9.9661   12.6934 H   0  0  0  0  0  0  0  0  0  0  0  0
   54.3026    6.9473   12.0591 H   0  0  0  0  0  0  0  0  0  0  0  0
   53.1306    7.6988   13.2241 H   0  0  0  0  0  0  0  0  0  0  0  0
   50.9635    7.3824   11.6317 H   0  0  0  0  0  0  0  0  0  0  0  0
   49.3778   10.7634   11.7370 H   0  0  0  0  0  0  0  0  0  0  0  0
   46.9775   10.9406   12.1749 H   0  0  0  0  0  0  0  0  0  0  0  0
   44.9541    9.9442   12.9650 H   0  0  0  0  0  0  0  0  0  0  0  0
   44.8968    8.2538   13.4398 H   0  0  0  0  0  0  0  0  0  0  0  0
   44.6341    8.7136   11.7319 H   0  0  0  0  0  0  0  0  0  0  0  0
   46.7349    3.5208   14.4992 H   0  0  0  0  0  0  0  0  0  0  0  0
   47.8403    5.7104   14.1939 H   0  0  0  0  0  0  0  0  0  0  0  0
   45.3732    6.4790   10.7476 H   0  0  0  0  0  0  0  0  0  0  0  0
   44.9460    2.7996   12.9545 H   0  0  0  0  0  0  0  0  0  0  0  0
   42.8019    2.8732   10.3256 H   0  0  0  0  0  0  0  0  0  0  0  0
  1  2  1  0
  1  5  1  0
  2  3  1  0
  3  4  1  0
  2  6  1  0
  2  7  1  0
  8  5  1  0
  5  4  2  0
  4  9  1  0
  8 11  2  0
  9 10  2  0
 10 11  1  0
 11 12  1  0
 12 13  1  0
 13 14  1  0
 14 12  1  0
 12 15  1  0
 15 16  2  0
 15 17  1  0
 17 18  1  0
 19 18  2  0
 18 20  1  0
 19 23  1  0
 20 21  2  0
 21 22  1  0
 22 23  2  0
 22 24  1  0
 23 25  1  0
 27 25  1  0
 25 28  2  0
 26 27  2  0
 26 30  1  0
 28 29  1  0
 29 30  2  0
 29 31  1  0
 31 32  1  0
 31 33  2  0
  8 34  1  0
  9 35  1  0
 10 36  1  0
 13 37  1  0
 13 38  1  0
 14 39  1  0
 14 40  1  0
 17 41  1  0
 20 42  1  0
 21 43  1  0
 24 44  1  0
 24 45  1  0
 24 46  1  0
 26 47  1  0
 27 48  1  0
 28 49  1  0
 30 50  1  0
 32 51  1  0
M  END
> <Uni-Dock RESULT> 
ENERGY=   -5.892  LOWER_BOUND=    0.000  UPPER_BOUND=    0.000
INTER + INTRA:          -5.892
INTER:                  -5.892
INTRA:                   0.000
UNBOUND:                 0.000

$$$$

     RDKit          3D

 51 55  0  0  0  0  0  0  0  0999 V2000
   53.6508    2.6544   18.1469 O   0  0  0  0  0  0  0  0  0  0  0  0
   53.8537    1.3152   17.6761 C   0  0  0  0  0  0  0  0  0  0  0  0
   52.6693    0.6514   17.2128 O   0  0  0  0  0  0  0  0  0  0  0  0
   51.7529    1.6328   17.4226 C   0  0  0  0  0  0  0  0  0  0  0  0
   52.3100    2.7713   17.9540 C   0  0  0  0  0  0  0  0  0  0  0  0
   54.3918    0.5818   18.6818 F   0  0  0  0  0  0  0  0  0  0  0  0
   54.7553    1.3446   16.6638 F   0  0  0  0  0  0  0  0  0  0  0  0
   51.5494    3.8862   18.2407 C   0  0  0  0  0  0  0  0  0  0  0  0
   50.4076    1.5494   17.1480 C   0  0  0  0  0  0  0  0  0  0  0  0
   49.6165    2.6689   17.4318 C   0  0  0  0  0  0  0  0  0  0  0  0
   50.1638    3.8544   17.9871 C   0  0  0  0  0  0  0  0  0  0  0  0
   49.2923    5.0743   18.2790 C   0  0  0  0  0  0  0  0  0  0  0  0
   49.1981    5.5294   19.7355 C   0  0  0  0  0  0  0  0  0  0  0  0
   48.0124    4.8860   19.0926 C   0  0  0  0  0  0  0  0  0  0  0  0
   49.3111    6.1583   17.2236 C   0  0  0  0  0  0  0  0  0  0  0  0
   50.1073    7.0813   17.3246 O   0  0  0  0  0  0  0  0  0  0  0  0
   48.3885    5.9543   16.2320 N   0  0  0  0  0  0  0  0  0  0  0  0
   48.1427    6.7335   15.1046 C   0  0  0  0  0  0  0  0  0  0  0  0
   47.1556    6.2440   14.3272 N   0  0  0  0  0  0  0  0  0  0  0  0
   48.8311    7.8915   14.7924 C   0  0  0  0  0  0  0  0  0  0  0  0
   48.4858    8.5803   13.6325 C   0  0  0  0  0  0  0  0  0  0  0  0
   47.4609    8.1039   12.8098 C   0  0  0  0  0  0  0  0  0  0  0  0
   46.8319    6.9117   13.1875 C   0  0  0  0  0  0  0  0  0  0  0  0
   47.0982    8.8630   11.5672 C   0  0  0  0  0  0  0  0  0  0  0  0
   45.7621    6.2671   12.4096 C   0  0  0  0  0  0  0  0  0  0  0  0
   43.4620    5.4653   12.2508 C   0  0  0  0  0  0  0  0  0  0  0  0
   44.4882    6.0795   12.9726 C   0  0  0  0  0  0  0  0  0  0  0  0
   45.9850    5.7989   11.1040 C   0  0  0  0  0  0  0  0  0  0  0  0
   44.9590    5.1821   10.3736 C   0  0  0  0  0  0  0  0  0  0  0  0
   43.6951    5.0194   10.9508 C   0  0  0  0  0  0  0  0  0  0  0  0
   45.2600    4.7213    8.9970 C   0  0  0  0  0  0  0  0  0  0  0  0
   44.2174    4.1073    8.4105 O   0  0  0  0  0  0  0  0  0  0  0  0
   46.3198    4.8614    8.4152 O   0  0  0  0  0  0  0  0  0  0  0  0
   52.0155    4.7787   18.6500 H   0  0  0  0  0  0  0  0  0  0  0  0
   49.9752    0.6493   16.7243 H   0  0  0  0  0  0  0  0  0  0  0  0
   48.5503    2.6198   17.2167 H   0  0  0  0  0  0  0  0  0  0  0  0
   49.7318    4.9679   20.4944 H   0  0  0  0  0  0  0  0  0  0  0  0
   49.1604    6.5958   19.9330 H   0  0  0  0  0  0  0  0  0  0  0  0
   47.7415    3.8921   19.4313 H   0  0  0  0  0  0  0  0  0  0  0  0
   47.1584    5.5195   18.8772 H   0  0  0  0  0  0  0  0  0  0  0  0
   47.7975    5.1369   16.2739 H   0  0  0  0  0  0  0  0  0  0  0  0
   49.6272    8.2791   15.4166 H   0  0  0  0  0  0  0  0  0  0  0  0
   49.0216    9.4929   13.3808 H   0  0  0  0  0  0  0  0  0  0  0  0
   47.4610    9.8957   11.6163 H   0  0  0  0  0  0  0  0  0  0  0  0
   46.0121    8.9177   11.4417 H   0  0  0  0  0  0  0  0  0  0  0  0
   47.5453    8.3894   10.6881 H   0  0  0  0  0  0  0  0  0  0  0  0
   42.4832    5.3327   12.7052 H   0  0  0  0  0  0  0  0  0  0  0  0
   44.2954    6.4160   13.9904 H   0  0  0  0  0  0  0  0  0  0  0  0
   46.9718    5.9038   10.6544 H   0  0  0  0  0  0  0  0  0  0  0  0
   42.8886    4.5423   10.3993 H   0  0  0  0  0  0  0  0  0  0  0  0
   44.5589    3.8588    7.5259 H   0  0  0  0  0  0  0  0  0  0  0  0
  1  2  1  0
  1  5  1  0
  2  3  1  0
  3  4  1  0
  2  6  1  0
  2  7  1  0
  8  5  1  0
  5  4  2  0
  4  9  1  0
  8 11  2  0
  9 10  2  0
 10 11  1  0
 11 12  1  0
 12 13  1  0
 13 14  1  0
 14 12  1  0
 12 15  1  0
 15 16  2  0
 15 17  1  0
 17 18  1  0
 19 18  2  0
 18 20  1  0
 19 23  1  0
 20 21  2  0
 21 22  1  0
 22 23  2  0
 22 24  1  0
 23 25  1  0
 27 25  1  0
 25 28  2  0
 26 27  2  0
 26 30  1  0
 28 29  1  0
 29 30  2  0
 29 31  1  0
 31 32  1  0
 31 33  2  0
  8 34  1  0
  9 35  1  0
 10 36  1  0
 13 37  1  0
 13 38  1  0
 14 39  1  0
 14 40  1  0
 17 41  1  0
 20 42  1  0
 21 43  1  0
 24 44  1  0
 24 45  1  0
 24 46  1  0
 26 47  1  0
 27 48  1  0
 28 49  1  0
 30 50  1  0
 32 51  1  0
M  END
> <Uni-Dock RESULT> 
ENERGY=   -5.871  LOWER_BOUND=    6.153  UPPER_BOUND=    8.279
INTER + INTRA:          -5.871
INTER:                  -5.871
INTRA:                   0.000
UNBOUND:                 0.000

$$$$

     RDKit          3D

 51 55  0  0  0  0  0  0  0  0999 V2000
   53.8140    2.1504   18.3321 O   0  0  0  0  0  0  0  0  0  0  0  0
   55.0354    2.8096   17.9718 C   0  0  0  0  0  0  0  0  0  0  0  0
   54.8775    4.1466   17.4763 O   0  0  0  0  0  0  0  0  0  0  0  0
   53.5257    4.2658   17.5495 C   0  0  0  0  0  0  0  0  0  0  0  0
   52.9206    3.1314   18.0352 C   0  0  0  0  0  0  0  0  0  0  0  0
   55.6600    2.0703   17.0219 F   0  0  0  0  0  0  0  0  0  0  0  0
   55.8445    2.8457   19.0593 F   0  0  0  0  0  0  0  0  0  0  0  0
   51.5520    3.0475   18.1888 C   0  0  0  0  0  0  0  0  0  0  0  0
   52.7956    5.3760   17.1938 C   0  0  0  0  0  0  0  0  0  0  0  0
   51.4048    5.3127   17.3407 C   0  0  0  0  0  0  0  0  0  0  0  0
   50.7533    4.1523   17.8329 C   0  0  0  0  0  0  0  0  0  0  0  0
   49.2361    4.1009   18.0019 C   0  0  0  0  0  0  0  0  0  0  0  0
   48.4794    3.0588   17.1778 C   0  0  0  0  0  0  0  0  0  0  0  0
   48.3508    4.5049   16.8235 C   0  0  0  0  0  0  0  0  0  0  0  0
   48.7250    4.3696   19.4004 C   0  0  0  0  0  0  0  0  0  0  0  0
   48.5376    3.4313   20.1621 O   0  0  0  0  0  0  0  0  0  0  0  0
   48.5328    5.7023   19.6517 N   0  0  0  0  0  0  0  0  0  0  0  0
   48.0923    6.3070   20.8260 C   0  0  0  0  0  0  0  0  0  0  0  0
   48.0126    7.6498   20.7329 N   0  0  0  0  0  0  0  0  0  0  0  0
   47.7688    5.6206   21.9821 C   0  0  0  0  0  0  0  0  0  0  0  0
   47.3386    6.3462   23.0901 C   0  0  0  0  0  0  0  0  0  0  0  0
   47.2365    7.7388   23.0230 C   0  0  0  0  0  0  0  0  0  0  0  0
   47.6064    8.3557   21.8221 C   0  0  0  0  0  0  0  0  0  0  0  0
   46.7649    8.5035   24.2249 C   0  0  0  0  0  0  0  0  0  0  0  0
   47.5868    9.8113   21.6081 C   0  0  0  0  0  0  0  0  0  0  0  0
   46.7396   11.7516   20.3931 C   0  0  0  0  0  0  0  0  0  0  0  0
   46.7677   10.3726   20.6135 C   0  0  0  0  0  0  0  0  0  0  0  0
   48.3974   10.6745   22.3638 C   0  0  0  0  0  0  0  0  0  0  0  0
   48.3736   12.0601   22.1481 C   0  0  0  0  0  0  0  0  0  0  0  0
   47.5392   12.5962   21.1615 C   0  0  0  0  0  0  0  0  0  0  0  0
   49.2466   12.9139   22.9888 C   0  0  0  0  0  0  0  0  0  0  0  0
   49.1739   14.2168   22.6645 O   0  0  0  0  0  0  0  0  0  0  0  0
   49.9681   12.5260   23.8889 O   0  0  0  0  0  0  0  0  0  0  0  0
   51.0982    2.1433   18.5861 H   0  0  0  0  0  0  0  0  0  0  0  0
   53.2799    6.2697   16.8153 H   0  0  0  0  0  0  0  0  0  0  0  0
   50.8131    6.1848   17.0668 H   0  0  0  0  0  0  0  0  0  0  0  0
   49.0381    2.4184   16.5044 H   0  0  0  0  0  0  0  0  0  0  0  0
   47.6304    2.5651   17.6396 H   0  0  0  0  0  0  0  0  0  0  0  0
   48.8151    4.8338   15.9004 H   0  0  0  0  0  0  0  0  0  0  0  0
   47.3985    4.9839   17.0256 H   0  0  0  0  0  0  0  0  0  0  0  0
   48.7388    6.3722   18.9251 H   0  0  0  0  0  0  0  0  0  0  0  0
   47.8390    4.5420   22.0552 H   0  0  0  0  0  0  0  0  0  0  0  0
   47.0808    5.8135   24.0027 H   0  0  0  0  0  0  0  0  0  0  0  0
   46.2336    7.8490   24.9248 H   0  0  0  0  0  0  0  0  0  0  0  0
   46.0625    9.2930   23.9390 H   0  0  0  0  0  0  0  0  0  0  0  0
   47.6157    8.9437   24.7535 H   0  0  0  0  0  0  0  0  0  0  0  0
   46.0964   12.1645   19.6198 H   0  0  0  0  0  0  0  0  0  0  0  0
   46.1442    9.7228   20.0007 H   0  0  0  0  0  0  0  0  0  0  0  0
   49.0647   10.2634   23.1205 H   0  0  0  0  0  0  0  0  0  0  0  0
   47.5091   13.6679   20.9802 H   0  0  0  0  0  0  0  0  0  0  0  0
   49.7950   14.6487   23.2880 H   0  0  0  0  0  0  0  0  0  0  0  0
  1  2  1  0
  1  5  1  0
  2  3  1  0
  3  4  1  0
  2  6  1  0
  2  7  1  0
  8  5  1  0
  5  4  2  0
  4  9  1  0
  8 11  2  0
  9 10  2  0
 10 11  1  0
 11 12  1  0
 12 13  1  0
 13 14  1  0
 14 12  1  0
 12 15  1  0
 15 16  2  0
 15 17  1  0
 17 18  1  0
 19 18  2  0
 18 20  1  0
 19 23  1  0
 20 21  2  0
 21 22  1  0
 22 23  2  0
 22 24  1  0
 23 25  1  0
 27 25  1  0
 25 28  2  0
 26 27  2  0
 26 30  1  0
 28 29  1  0
 29 30  2  0
 29 31  1  0
 31 32  1  0
 31 33  2  0
  8 34  1  0
  9 35  1  0
 10 36  1  0
 13 37  1  0
 13 38  1  0
 14 39  1  0
 14 40  1  0
 17 41  1  0
 20 42  1  0
 21 43  1  0
 24 44  1  0
 24 45  1  0
 24 46  1  0
 26 47  1  0
 27 48  1  0
 28 49  1  0
 30 50  1  0
 32 51  1  0
M  END
> <Uni-Dock RESULT> 
ENERGY=   -5.785  LOWER_BOUND=    9.141  UPPER_BOUND=   11.709
INTER + INTRA:          -5.785
INTER:                  -5.785
INTRA:                   0.000
UNBOUND:                 0.000

$$$$

     RDKit          3D

 51 55  0  0  0  0  0  0  0  0999 V2000
   43.8499    6.6820   11.5110 O   0  0  0  0  0  0  0  0  0  0  0  0
   43.1651    5.4254   11.6018 C   0  0  0  0  0  0  0  0  0  0  0  0
   43.8532    4.4147   12.3520 O   0  0  0  0  0  0  0  0  0  0  0  0
   44.9700    5.1040   12.7050 C   0  0  0  0  0  0  0  0  0  0  0  0
   44.9691    6.3925   12.2268 C   0  0  0  0  0  0  0  0  0  0  0  0
   42.9526    4.9588   10.3464 F   0  0  0  0  0  0  0  0  0  0  0  0
   41.9523    5.6340   12.1711 F   0  0  0  0  0  0  0  0  0  0  0  0
   46.0127    7.2601   12.4754 C   0  0  0  0  0  0  0  0  0  0  0  0
   46.0125    4.6157   13.4580 C   0  0  0  0  0  0  0  0  0  0  0  0
   47.0827    5.4786   13.7220 C   0  0  0  0  0  0  0  0  0  0  0  0
   47.1112    6.8111   13.2350 C   0  0  0  0  0  0  0  0  0  0  0  0
   48.2783    7.7474   13.5420 C   0  0  0  0  0  0  0  0  0  0  0  0
   49.0838    8.2682   12.3514 C   0  0  0  0  0  0  0  0  0  0  0  0
   49.7015    7.2626   13.2681 C   0  0  0  0  0  0  0  0  0  0  0  0
   48.0623    8.7051   14.6931 C   0  0  0  0  0  0  0  0  0  0  0  0
   47.6196    9.8231   14.4695 O   0  0  0  0  0  0  0  0  0  0  0  0
   48.4024    8.1673   15.9061 N   0  0  0  0  0  0  0  0  0  0  0  0
   48.3176    8.7524   17.1667 C   0  0  0  0  0  0  0  0  0  0  0  0
   48.7395    7.9404   18.1572 N   0  0  0  0  0  0  0  0  0  0  0  0
   47.8477   10.0315   17.4023 C   0  0  0  0  0  0  0  0  0  0  0  0
   47.8155   10.4991   18.7136 C   0  0  0  0  0  0  0  0  0  0  0  0
   48.2545    9.6851   19.7620 C   0  0  0  0  0  0  0  0  0  0  0  0
   48.6922    8.3956   19.4378 C   0  0  0  0  0  0  0  0  0  0  0  0
   48.2185   10.2083   21.1680 C   0  0  0  0  0  0  0  0  0  0  0  0
   49.1508    7.4116   20.4311 C   0  0  0  0  0  0  0  0  0  0  0  0
   50.9138    5.9718   21.3127 C   0  0  0  0  0  0  0  0  0  0  0  0
   50.4625    6.9097   20.3812 C   0  0  0  0  0  0  0  0  0  0  0  0
   48.2937    6.9271   21.4331 C   0  0  0  0  0  0  0  0  0  0  0  0
   48.7405    5.9859   22.3719 C   0  0  0  0  0  0  0  0  0  0  0  0
   50.0552    5.5118   22.3100 C   0  0  0  0  0  0  0  0  0  0  0  0
   47.7865    5.5254   23.4091 C   0  0  0  0  0  0  0  0  0  0  0  0
   48.3097    4.5934   24.2250 O   0  0  0  0  0  0  0  0  0  0  0  0
   46.6434    5.9188   23.5499 O   0  0  0  0  0  0  0  0  0  0  0  0
   45.9831    8.2781   12.0958 H   0  0  0  0  0  0  0  0  0  0  0  0
   46.0047    3.5991   13.8362 H   0  0  0  0  0  0  0  0  0  0  0  0
   47.9138    5.1080   14.3198 H   0  0  0  0  0  0  0  0  0  0  0  0
   48.8099    7.9451   11.3531 H   0  0  0  0  0  0  0  0  0  0  0  0
   49.4453    9.2907   12.3911 H   0  0  0  0  0  0  0  0  0  0  0  0
   49.8546    6.2624   12.8781 H   0  0  0  0  0  0  0  0  0  0  0  0
   50.5033    7.6047   13.9140 H   0  0  0  0  0  0  0  0  0  0  0  0
   48.7502    7.2203   15.9415 H   0  0  0  0  0  0  0  0  0  0  0  0
   47.5045   10.6794   16.6047 H   0  0  0  0  0  0  0  0  0  0  0  0
   47.4487   11.5047   18.9069 H   0  0  0  0  0  0  0  0  0  0  0  0
   48.1585   11.3022   21.1799 H   0  0  0  0  0  0  0  0  0  0  0  0
   49.1289    9.9380   21.7125 H   0  0  0  0  0  0  0  0  0  0  0  0
   47.3449    9.8163   21.6973 H   0  0  0  0  0  0  0  0  0  0  0  0
   51.9336    5.5989   21.2568 H   0  0  0  0  0  0  0  0  0  0  0  0
   51.1409    7.2549   19.6020 H   0  0  0  0  0  0  0  0  0  0  0  0
   47.2625    7.2761   21.4762 H   0  0  0  0  0  0  0  0  0  0  0  0
   50.4179    4.7813   23.0290 H   0  0  0  0  0  0  0  0  0  0  0  0
   47.5778    4.3855   24.8432 H   0  0  0  0  0  0  0  0  0  0  0  0
  1  2  1  0
  1  5  1  0
  2  3  1  0
  3  4  1  0
  2  6  1  0
  2  7  1  0
  8  5  1  0
  5  4  2  0
  4  9  1  0
  8 11  2  0
  9 10  2  0
 10 11  1  0
 11 12  1  0
 12 13  1  0
 13 14  1  0
 14 12  1  0
 12 15  1  0
 15 16  2  0
 15 17  1  0
 17 18  1  0
 19 18  2  0
 18 20  1  0
 19 23  1  0
 20 21  2  0
 21 22  1  0
 22 23  2  0
 22 24  1  0
 23 25  1  0
 27 25  1  0
 25 28  2  0
 26 27  2  0
 26 30  1  0
 28 29  1  0
 29 30  2  0
 29 31  1  0
 31 32  1  0
 31 33  2  0
  8 34  1  0
  9 35  1  0
 10 36  1  0
 13 37  1  0
 13 38  1  0
 14 39  1  0
 14 40  1  0
 17 41  1  0
 20 42  1  0
 21 43  1  0
 24 44  1  0
 24 45  1  0
 24 46  1  0
 26 47  1  0
 27 48  1  0
 28 49  1  0
 30 50  1  0
 32 51  1  0
M  END
> <Uni-Dock RESULT> 
ENERGY=   -5.629  LOWER_BOUND=    7.131  UPPER_BOUND=    9.587
INTER + INTRA:          -5.629
INTER:                  -5.629
INTRA:                   0.000
UNBOUND:                 0.000

$$$$

     RDKit          3D

 51 55  0  0  0  0  0  0  0  0999 V2000
   50.2829   14.6328   20.3259 O   0  0  0  0  0  0  0  0  0  0  0  0
   49.6607   14.1150   21.5096 C   0  0  0  0  0  0  0  0  0  0  0  0
   48.3963   13.4718   21.2960 O   0  0  0  0  0  0  0  0  0  0  0  0
   48.2808   13.6223   19.9503 C   0  0  0  0  0  0  0  0  0  0  0  0
   49.3524   14.2826   19.3984 C   0  0  0  0  0  0  0  0  0  0  0  0
   49.4811   15.1361   22.3837 F   0  0  0  0  0  0  0  0  0  0  0  0
   50.5047   13.2253   22.0880 F   0  0  0  0  0  0  0  0  0  0  0  0
   49.4301   14.5362   18.0444 C   0  0  0  0  0  0  0  0  0  0  0  0
   47.2321   13.1792   19.1783 C   0  0  0  0  0  0  0  0  0  0  0  0
   47.2896   13.4264   17.8016 C   0  0  0  0  0  0  0  0  0  0  0  0
   48.3801   14.1118   17.2062 C   0  0  0  0  0  0  0  0  0  0  0  0
   48.4378   14.3628   15.7006 C   0  0  0  0  0  0  0  0  0  0  0  0
   48.4588   15.8201   15.2388 C   0  0  0  0  0  0  0  0  0  0  0  0
   47.2299   14.9999   15.0146 C   0  0  0  0  0  0  0  0  0  0  0  0
   49.2713   13.3814   14.9061 C   0  0  0  0  0  0  0  0  0  0  0  0
   50.4480   13.6324   14.6866 O   0  0  0  0  0  0  0  0  0  0  0  0
   48.5659   12.2733   14.5179 N   0  0  0  0  0  0  0  0  0  0  0  0
   49.0147   11.1705   13.7961 C   0  0  0  0  0  0  0  0  0  0  0  0
   48.0526   10.2503   13.5818 N   0  0  0  0  0  0  0  0  0  0  0  0
   50.3106   11.0123   13.3402 C   0  0  0  0  0  0  0  0  0  0  0  0
   50.6306    9.8598   12.6271 C   0  0  0  0  0  0  0  0  0  0  0  0
   49.6536    8.8909   12.3803 C   0  0  0  0  0  0  0  0  0  0  0  0
   48.3731    9.1193   12.8980 C   0  0  0  0  0  0  0  0  0  0  0  0
   50.0152    7.6583   11.6046 C   0  0  0  0  0  0  0  0  0  0  0  0
   47.2503    8.1797   12.7523 C   0  0  0  0  0  0  0  0  0  0  0  0
   45.0028    7.6923   11.9338 C   0  0  0  0  0  0  0  0  0  0  0  0
   46.0805    8.5692   12.0778 C   0  0  0  0  0  0  0  0  0  0  0  0
   47.2999    6.8871   13.3001 C   0  0  0  0  0  0  0  0  0  0  0  0
   46.2218    6.0014   13.1587 C   0  0  0  0  0  0  0  0  0  0  0  0
   45.0735    6.4077   12.4707 C   0  0  0  0  0  0  0  0  0  0  0  0
   46.3454    4.6486   13.7524 C   0  0  0  0  0  0  0  0  0  0  0  0
   45.2373    3.9037   13.5934 O   0  0  0  0  0  0  0  0  0  0  0  0
   47.3235    4.2112   14.3297 O   0  0  0  0  0  0  0  0  0  0  0  0
   50.2937   15.0501   17.6304 H   0  0  0  0  0  0  0  0  0  0  0  0
   46.3915   12.6547   19.6198 H   0  0  0  0  0  0  0  0  0  0  0  0
   46.4687   13.0787   17.1764 H   0  0  0  0  0  0  0  0  0  0  0  0
   48.4162   16.6058   15.9850 H   0  0  0  0  0  0  0  0  0  0  0  0
   49.0728   16.0719   14.3801 H   0  0  0  0  0  0  0  0  0  0  0  0
   46.3539   15.2453   15.6047 H   0  0  0  0  0  0  0  0  0  0  0  0
   47.0002   14.7171   13.9926 H   0  0  0  0  0  0  0  0  0  0  0  0
   47.5941   12.1952   14.7797 H   0  0  0  0  0  0  0  0  0  0  0  0
   51.0825   11.7512   13.5187 H   0  0  0  0  0  0  0  0  0  0  0  0
   51.6474    9.7287   12.2638 H   0  0  0  0  0  0  0  0  0  0  0  0
   50.9349    7.8107   11.0290 H   0  0  0  0  0  0  0  0  0  0  0  0
   49.2324    7.4028   10.8833 H   0  0  0  0  0  0  0  0  0  0  0  0
   50.1772    6.8157   12.2834 H   0  0  0  0  0  0  0  0  0  0  0  0
   44.1083    8.0139   11.4059 H   0  0  0  0  0  0  0  0  0  0  0  0
   46.0094    9.5729   11.6607 H   0  0  0  0  0  0  0  0  0  0  0  0
   48.1824    6.5696   13.8545 H   0  0  0  0  0  0  0  0  0  0  0  0
   44.2279    5.7345   12.3526 H   0  0  0  0  0  0  0  0  0  0  0  0
   45.4602    3.0554   14.0311 H   0  0  0  0  0  0  0  0  0  0  0  0
  1  2  1  0
  1  5  1  0
  2  3  1  0
  3  4  1  0
  2  6  1  0
  2  7  1  0
  8  5  1  0
  5  4  2  0
  4  9  1  0
  8 11  2  0
  9 10  2  0
 10 11  1  0
 11 12  1  0
 12 13  1  0
 13 14  1  0
 14 12  1  0
 12 15  1  0
 15 16  2  0
 15 17  1  0
 17 18  1  0
 19 18  2  0
 18 20  1  0
 19 23  1  0
 20 21  2  0
 21 22  1  0
 22 23  2  0
 22 24  1  0
 23 25  1  0
 27 25  1  0
 25 28  2  0
 26 27  2  0
 26 30  1  0
 28 29  1  0
 29 30  2  0
 29 31  1  0
 31 32  1  0
 31 33  2  0
  8 34  1  0
  9 35  1  0
 10 36  1  0
 13 37  1  0
 13 38  1  0
 14 39  1  0
 14 40  1  0
 17 41  1  0
 20 42  1  0
 21 43  1  0
 24 44  1  0
 24 45  1  0
 24 46  1  0
 26 47  1  0
 27 48  1  0
 28 49  1  0
 30 50  1  0
 32 51  1  0
M  END
> <Uni-Dock RESULT> 
ENERGY=   -5.200  LOWER_BOUND=    7.093  UPPER_BOUND=    9.793
INTER + INTRA:          -5.200
INTER:                  -5.200
INTRA:                   0.000
UNBOUND:                 0.000

$$$$

     RDKit          3D

 51 55  0  0  0  0  0  0  0  0999 V2000
   39.2801   16.0209   15.0677 O   0  0  0  0  0  0  0  0  0  0  0  0
   39.0133   15.7845   16.4566 C   0  0  0  0  0  0  0  0  0  0  0  0
   39.1547   14.4197   16.8756 O   0  0  0  0  0  0  0  0  0  0  0  0
   39.5119   13.8478   15.6956 C   0  0  0  0  0  0  0  0  0  0  0  0
   39.5828   14.7572   14.6676 C   0  0  0  0  0  0  0  0  0  0  0  0
   37.7472   16.1879   16.7270 F   0  0  0  0  0  0  0  0  0  0  0  0
   39.8532   16.5512   17.1950 F   0  0  0  0  0  0  0  0  0  0  0  0
   39.9304   14.3797   13.3868 C   0  0  0  0  0  0  0  0  0  0  0  0
   39.7865   12.5144   15.4984 C   0  0  0  0  0  0  0  0  0  0  0  0
   40.1406   12.1088   14.2062 C   0  0  0  0  0  0  0  0  0  0  0  0
   40.2147   13.0248   13.1250 C   0  0  0  0  0  0  0  0  0  0  0  0
   40.6162   12.5720   11.7226 C   0  0  0  0  0  0  0  0  0  0  0  0
   39.5843   12.7576   10.6098 C   0  0  0  0  0  0  0  0  0  0  0  0
   39.8917   11.3795   11.0993 C   0  0  0  0  0  0  0  0  0  0  0  0
   42.0667   12.7946   11.3544 C   0  0  0  0  0  0  0  0  0  0  0  0
   42.3902   13.8274   10.7846 O   0  0  0  0  0  0  0  0  0  0  0  0
   42.8787   11.7581   11.7320 N   0  0  0  0  0  0  0  0  0  0  0  0
   44.2560   11.6343   11.5704 C   0  0  0  0  0  0  0  0  0  0  0  0
   44.7447   10.4761   12.0584 N   0  0  0  0  0  0  0  0  0  0  0  0
   45.0602   12.5903   10.9776 C   0  0  0  0  0  0  0  0  0  0  0  0
   46.4268   12.3425   10.8764 C   0  0  0  0  0  0  0  0  0  0  0  0
   46.9634   11.1475   11.3645 C   0  0  0  0  0  0  0  0  0  0  0  0
   46.0820   10.2448   11.9712 C   0  0  0  0  0  0  0  0  0  0  0  0
   48.4374   10.8950   11.2410 C   0  0  0  0  0  0  0  0  0  0  0  0
   46.4990    8.9634   12.5621 C   0  0  0  0  0  0  0  0  0  0  0  0
   46.3727    6.5262   12.6138 C   0  0  0  0  0  0  0  0  0  0  0  0
   45.9918    7.7518   12.0624 C   0  0  0  0  0  0  0  0  0  0  0  0
   47.3861    8.9119   13.6502 C   0  0  0  0  0  0  0  0  0  0  0  0
   47.7731    7.6848   14.2081 C   0  0  0  0  0  0  0  0  0  0  0  0
   47.2654    6.4913   13.6841 C   0  0  0  0  0  0  0  0  0  0  0  0
   48.7209    7.7028   15.3481 C   0  0  0  0  0  0  0  0  0  0  0  0
   48.9855    6.4751   15.8284 O   0  0  0  0  0  0  0  0  0  0  0  0
   49.2332    8.6949   15.8323 O   0  0  0  0  0  0  0  0  0  0  0  0
   39.9906   15.1199   12.5932 H   0  0  0  0  0  0  0  0  0  0  0  0
   39.7331   11.8028   16.3152 H   0  0  0  0  0  0  0  0  0  0  0  0
   40.3645   11.0572   14.0347 H   0  0  0  0  0  0  0  0  0  0  0  0
   38.6176   13.1813   10.8583 H   0  0  0  0  0  0  0  0  0  0  0  0
   39.9435   13.0462    9.6272 H   0  0  0  0  0  0  0  0  0  0  0  0
   39.1216   10.8709   11.6686 H   0  0  0  0  0  0  0  0  0  0  0  0
   40.4416   10.7252   10.4309 H   0  0  0  0  0  0  0  0  0  0  0  0
   42.4718   10.9654   12.2065 H   0  0  0  0  0  0  0  0  0  0  0  0
   44.6651   13.5221   10.5912 H   0  0  0  0  0  0  0  0  0  0  0  0
   47.0659   13.0890   10.4100 H   0  0  0  0  0  0  0  0  0  0  0  0
   48.8852   11.5409   10.4776 H   0  0  0  0  0  0  0  0  0  0  0  0
   48.6362    9.8630   10.9347 H   0  0  0  0  0  0  0  0  0  0  0  0
   48.9390   11.0980   12.1919 H   0  0  0  0  0  0  0  0  0  0  0  0
   45.9698    5.6007   12.2098 H   0  0  0  0  0  0  0  0  0  0  0  0
   45.2873    7.7657   11.2318 H   0  0  0  0  0  0  0  0  0  0  0  0
   47.7706    9.8375   14.0771 H   0  0  0  0  0  0  0  0  0  0  0  0
   47.5539    5.5313   14.1051 H   0  0  0  0  0  0  0  0  0  0  0  0
   49.6095    6.6414   16.5660 H   0  0  0  0  0  0  0  0  0  0  0  0
  1  2  1  0
  1  5  1  0
  2  3  1  0
  3  4  1  0
  2  6  1  0
  2  7  1  0
  8  5  1  0
  5  4  2  0
  4  9  1  0
  8 11  2  0
  9 10  2  0
 10 11  1  0
 11 12  1  0
 12 13  1  0
 13 14  1  0
 14 12  1  0
 12 15  1  0
 15 16  2  0
 15 17  1  0
 17 18  1  0
 19 18  2  0
 18 20  1  0
 19 23  1  0
 20 21  2  0
 21 22  1  0
 22 23  2  0
 22 24  1  0
 23 25  1  0
 27 25  1  0
 25 28  2  0
 26 27  2  0
 26 30  1  0
 28 29  1  0
 29 30  2  0
 29 31  1  0
 31 32  1  0
 31 33  2  0
  8 34  1  0
  9 35  1  0
 10 36  1  0
 13 37  1  0
 13 38  1  0
 14 39  1  0
 14 40  1  0
 17 41  1  0
 20 42  1  0
 21 43  1  0
 24 44  1  0
 24 45  1  0
 24 46  1  0
 26 47  1  0
 27 48  1  0
 28 49  1  0
 30 50  1  0
 32 51  1  0
M  END
> <Uni-Dock RESULT> 
ENERGY=   -4.825  LOWER_BOUND=    7.905  UPPER_BOUND=   12.245
INTER + INTRA:          -4.825
INTER:                  -4.825
INTRA:                   0.000
UNBOUND:                 0.000

$$$$

     RDKit          3D

 51 55  0  0  0  0  0  0  0  0999 V2000
   48.9096   12.0483   19.8664 O   0  0  0  0  0  0  0  0  0  0  0  0
   48.1067   13.0657   20.4801 C   0  0  0  0  0  0  0  0  0  0  0  0
   47.4386   13.9436   19.5631 O   0  0  0  0  0  0  0  0  0  0  0  0
   47.8675   13.4218   18.3839 C   0  0  0  0  0  0  0  0  0  0  0  0
   48.7041   12.3449   18.5555 C   0  0  0  0  0  0  0  0  0  0  0  0
   48.9001   13.8115   21.2883 F   0  0  0  0  0  0  0  0  0  0  0  0
   47.1739   12.4677   21.2616 F   0  0  0  0  0  0  0  0  0  0  0  0
   49.2487   11.6701   17.4823 C   0  0  0  0  0  0  0  0  0  0  0  0
   47.5297   13.8794   17.1314 C   0  0  0  0  0  0  0  0  0  0  0  0
   48.0716   13.2100   16.0277 C   0  0  0  0  0  0  0  0  0  0  0  0
   48.9433   12.1002   16.1758 C   0  0  0  0  0  0  0  0  0  0  0  0
   49.5167   11.3694   14.9633 C   0  0  0  0  0  0  0  0  0  0  0  0
   51.0372   11.3739   14.8034 C   0  0  0  0  0  0  0  0  0  0  0  0
   50.2014   12.1865   13.8683 C   0  0  0  0  0  0  0  0  0  0  0  0
   48.7902   10.1055   14.5585 C   0  0  0  0  0  0  0  0  0  0  0  0
   49.1637    9.0291   15.0033 O   0  0  0  0  0  0  0  0  0  0  0  0
   47.7458   10.3403   13.7039 N   0  0  0  0  0  0  0  0  0  0  0  0
   46.8585    9.4222   13.1485 C   0  0  0  0  0  0  0  0  0  0  0  0
   45.9418    9.9931   12.3410 N   0  0  0  0  0  0  0  0  0  0  0  0
   46.8929    8.0610   13.3901 C   0  0  0  0  0  0  0  0  0  0  0  0
   45.9464    7.2496   12.7696 C   0  0  0  0  0  0  0  0  0  0  0  0
   44.9882    7.8096   11.9195 C   0  0  0  0  0  0  0  0  0  0  0  0
   45.0100    9.1988   11.7490 C   0  0  0  0  0  0  0  0  0  0  0  0
   43.9802    6.9188   11.2545 C   0  0  0  0  0  0  0  0  0  0  0  0
   44.0484    9.9378   10.9158 C   0  0  0  0  0  0  0  0  0  0  0  0
   43.5944   11.3976    9.0128 C   0  0  0  0  0  0  0  0  0  0  0  0
   44.4921   10.6861    9.8121 C   0  0  0  0  0  0  0  0  0  0  0  0
   42.6747    9.9413   11.2096 C   0  0  0  0  0  0  0  0  0  0  0  0
   41.7678   10.6529   10.4108 C   0  0  0  0  0  0  0  0  0  0  0  0
   42.2323   11.3791    9.3090 C   0  0  0  0  0  0  0  0  0  0  0  0
   40.3306   10.6047   10.7716 C   0  0  0  0  0  0  0  0  0  0  0  0
   39.5625   11.3572    9.9643 O   0  0  0  0  0  0  0  0  0  0  0  0
   39.8479    9.9667   11.6888 O   0  0  0  0  0  0  0  0  0  0  0  0
   49.8985   10.8141   17.6441 H   0  0  0  0  0  0  0  0  0  0  0  0
   46.8653   14.7270   17.0030 H   0  0  0  0  0  0  0  0  0  0  0  0
   47.8109   13.5579   15.0295 H   0  0  0  0  0  0  0  0  0  0  0  0
   51.6385   11.9009   15.5360 H   0  0  0  0  0  0  0  0  0  0  0  0
   51.5104   10.4751   14.4213 H   0  0  0  0  0  0  0  0  0  0  0  0
   50.2523   13.2652   13.9657 H   0  0  0  0  0  0  0  0  0  0  0  0
   50.1306   11.8459   12.8406 H   0  0  0  0  0  0  0  0  0  0  0  0
   47.5457   11.2896   13.4247 H   0  0  0  0  0  0  0  0  0  0  0  0
   47.6276    7.6062   14.0435 H   0  0  0  0  0  0  0  0  0  0  0  0
   45.9677    6.1777   12.9533 H   0  0  0  0  0  0  0  0  0  0  0  0
   44.3167    5.8761   11.2520 H   0  0  0  0  0  0  0  0  0  0  0  0
   43.8326    7.2033   10.2077 H   0  0  0  0  0  0  0  0  0  0  0  0
   43.0242    6.9640   11.7847 H   0  0  0  0  0  0  0  0  0  0  0  0
   43.9594   11.9679    8.1622 H   0  0  0  0  0  0  0  0  0  0  0  0
   45.5548   10.7154    9.5748 H   0  0  0  0  0  0  0  0  0  0  0  0
   42.3071    9.3947   12.0773 H   0  0  0  0  0  0  0  0  0  0  0  0
   41.5433   11.9373    8.6798 H   0  0  0  0  0  0  0  0  0  0  0  0
   38.6573   11.2333   10.3195 H   0  0  0  0  0  0  0  0  0  0  0  0
  1  2  1  0
  1  5  1  0
  2  3  1  0
  3  4  1  0
  2  6  1  0
  2  7  1  0
  8  5  1  0
  5  4  2  0
  4  9  1  0
  8 11  2  0
  9 10  2  0
 10 11  1  0
 11 12  1  0
 12 13  1  0
 13 14  1  0
 14 12  1  0
 12 15  1  0
 15 16  2  0
 15 17  1  0
 17 18  1  0
 19 18  2  0
 18 20  1  0
 19 23  1  0
 20 21  2  0
 21 22  1  0
 22 23  2  0
 22 24  1  0
 23 25  1  0
 27 25  1  0
 25 28  2  0
 26 27  2  0
 26 30  1  0
 28 29  1  0
 29 30  2  0
 29 31  1  0
 31 32  1  0
 31 33  2  0
  8 34  1  0
  9 35  1  0
 10 36  1  0
 13 37  1  0
 13 38  1  0
 14 39  1  0
 14 40  1  0
 17 41  1  0
 20 42  1  0
 21 43  1  0
 24 44  1  0
 24 45  1  0
 24 46  1  0
 26 47  1  0
 27 48  1  0
 28 49  1  0
 30 50  1  0
 32 51  1  0
M  END
> <Uni-Dock RESULT> 
ENERGY=   -4.736  LOWER_BOUND=    7.120  UPPER_BOUND=    9.528
INTER + INTRA:          -4.736
INTER:                  -4.736
INTRA:                   0.000
UNBOUND:                 0.000

$$$$

     RDKit          3D

 51 55  0  0  0  0  0  0  0  0999 V2000
   43.8448   11.1963    5.5992 O   0  0  0  0  0  0  0  0  0  0  0  0
   44.8020   12.0494    4.9572 C   0  0  0  0  0  0  0  0  0  0  0  0
   45.6093   12.8310    5.8491 O   0  0  0  0  0  0  0  0  0  0  0  0
   45.1048   12.4209    7.0425 C   0  0  0  0  0  0  0  0  0  0  0  0
   44.1015   11.4923    6.9012 C   0  0  0  0  0  0  0  0  0  0  0  0
   44.1393   12.8925    4.1271 F   0  0  0  0  0  0  0  0  0  0  0  0
   45.6204   11.2838    4.1940 F   0  0  0  0  0  0  0  0  0  0  0  0
   43.4573   10.9475    7.9929 C   0  0  0  0  0  0  0  0  0  0  0  0
   45.5183   12.8521    8.2816 C   0  0  0  0  0  0  0  0  0  0  0  0
   44.8777   12.3130    9.4036 C   0  0  0  0  0  0  0  0  0  0  0  0
   43.8344   11.3584    9.2868 C   0  0  0  0  0  0  0  0  0  0  0  0
   43.1531   10.7671   10.5193 C   0  0  0  0  0  0  0  0  0  0  0  0
   41.6548   11.0269   10.6776 C   0  0  0  0  0  0  0  0  0  0  0  0
   42.6167   11.7169   11.5897 C   0  0  0  0  0  0  0  0  0  0  0  0
   43.6629    9.4127   10.9610 C   0  0  0  0  0  0  0  0  0  0  0  0
   43.1153    8.4005   10.5470 O   0  0  0  0  0  0  0  0  0  0  0  0
   44.7351    9.4964   11.8093 N   0  0  0  0  0  0  0  0  0  0  0  0
   45.4609    8.4608   12.3917 C   0  0  0  0  0  0  0  0  0  0  0  0
   46.4624    8.8955   13.1833 N   0  0  0  0  0  0  0  0  0  0  0  0
   45.2018    7.1176   12.1894 C   0  0  0  0  0  0  0  0  0  0  0  0
   46.0039    6.1793   12.8339 C   0  0  0  0  0  0  0  0  0  0  0  0
   47.0446    6.5976   13.6683 C   0  0  0  0  0  0  0  0  0  0  0  0
   47.2527    7.9757   13.7987 C   0  0  0  0  0  0  0  0  0  0  0  0
   47.8945    5.5721   14.3596 C   0  0  0  0  0  0  0  0  0  0  0  0
   48.3263    8.5695   14.6111 C   0  0  0  0  0  0  0  0  0  0  0  0
   49.0222    9.9881   16.4717 C   0  0  0  0  0  0  0  0  0  0  0  0
   48.0163    9.4119   15.6924 C   0  0  0  0  0  0  0  0  0  0  0  0
   49.6807    8.3381   14.3186 C   0  0  0  0  0  0  0  0  0  0  0  0
   50.6956    8.9128   15.0973 C   0  0  0  0  0  0  0  0  0  0  0  0
   50.3614    9.7368   16.1773 C   0  0  0  0  0  0  0  0  0  0  0  0
   52.1037    8.6180   14.7393 C   0  0  0  0  0  0  0  0  0  0  0  0
   52.9885    9.2563   15.5252 O   0  0  0  0  0  0  0  0  0  0  0  0
   52.4710    7.8833   13.8413 O   0  0  0  0  0  0  0  0  0  0  0  0
   42.6746   10.2060    7.8552 H   0  0  0  0  0  0  0  0  0  0  0  0
   46.3138   13.5819    8.3861 H   0  0  0  0  0  0  0  0  0  0  0  0
   45.1961   12.6416   10.3916 H   0  0  0  0  0  0  0  0  0  0  0  0
   41.1458   11.6247    9.9297 H   0  0  0  0  0  0  0  0  0  0  0  0
   41.0414   10.2297   11.0851 H   0  0  0  0  0  0  0  0  0  0  0  0
   42.7441   12.7860   11.4612 H   0  0  0  0  0  0  0  0  0  0  0  0
   42.6345   11.3987   12.6268 H   0  0  0  0  0  0  0  0  0  0  0  0
   45.0900   10.4073   12.0613 H   0  0  0  0  0  0  0  0  0  0  0  0
   44.3996    6.7718   11.5487 H   0  0  0  0  0  0  0  0  0  0  0  0
   45.8054    5.1208   12.6811 H   0  0  0  0  0  0  0  0  0  0  0  0
   47.3908    4.5997   14.3917 H   0  0  0  0  0  0  0  0  0  0  0  0
   48.0910    5.8582   15.3978 H   0  0  0  0  0  0  0  0  0  0  0  0
   48.8428    5.4439   13.8291 H   0  0  0  0  0  0  0  0  0  0  0  0
   48.7595   10.6349   17.3052 H   0  0  0  0  0  0  0  0  0  0  0  0
   46.9739    9.6228   15.9279 H   0  0  0  0  0  0  0  0  0  0  0  0
   49.9497    7.7137   13.4673 H   0  0  0  0  0  0  0  0  0  0  0  0
   51.1354   10.1915   16.7908 H   0  0  0  0  0  0  0  0  0  0  0  0
   53.8595    8.9747   15.1746 H   0  0  0  0  0  0  0  0  0  0  0  0
  1  2  1  0
  1  5  1  0
  2  3  1  0
  3  4  1  0
  2  6  1  0
  2  7  1  0
  8  5  1  0
  5  4  2  0
  4  9  1  0
  8 11  2  0
  9 10  2  0
 10 11  1  0
 11 12  1  0
 12 13  1  0
 13 14  1  0
 14 12  1  0
 12 15  1  0
 15 16  2  0
 15 17  1  0
 17 18  1  0
 19 18  2  0
 18 20  1  0
 19 23  1  0
 20 21  2  0
 21 22  1  0
 22 23  2  0
 22 24  1  0
 23 25  1  0
 27 25  1  0
 25 28  2  0
 26 27  2  0
 26 30  1  0
 28 29  1  0
 29 30  2  0
 29 31  1  0
 31 32  1  0
 31 33  2  0
  8 34  1  0
  9 35  1  0
 10 36  1  0
 13 37  1  0
 13 38  1  0
 14 39  1  0
 14 40  1  0
 17 41  1  0
 20 42  1  0
 21 43  1  0
 24 44  1  0
 24 45  1  0
 24 46  1  0
 26 47  1  0
 27 48  1  0
 28 49  1  0
 30 50  1  0
 32 51  1  0
M  END
> <Uni-Dock RESULT> 
ENERGY=   -4.708  LOWER_BOUND=    5.125  UPPER_BOUND=    8.628
INTER + INTRA:          -4.708
INTER:                  -4.708
INTRA:                   0.000
UNBOUND:                 0.000

$$$$

     RDKit          3D

 51 55  0  0  0  0  0  0  0  0999 V2000
   52.4445    3.3770   19.1055 O   0  0  0  0  0  0  0  0  0  0  0  0
   53.8563    3.5734   18.9488 C   0  0  0  0  0  0  0  0  0  0  0  0
   54.2236    4.6530   18.0784 O   0  0  0  0  0  0  0  0  0  0  0  0
   52.9897    5.0944   17.7184 C   0  0  0  0  0  0  0  0  0  0  0  0
   51.9781    4.3692   18.3013 C   0  0  0  0  0  0  0  0  0  0  0  0
   54.3996    2.4285   18.4662 F   0  0  0  0  0  0  0  0  0  0  0  0
   54.3995    3.8005   20.1702 F   0  0  0  0  0  0  0  0  0  0  0  0
   50.6494    4.6576   18.0664 C   0  0  0  0  0  0  0  0  0  0  0  0
   52.7268    6.1465   16.8722 C   0  0  0  0  0  0  0  0  0  0  0  0
   51.3853    6.4564   16.6189 C   0  0  0  0  0  0  0  0  0  0  0  0
   50.3212    5.7203   17.2014 C   0  0  0  0  0  0  0  0  0  0  0  0
   48.8615    6.0774   16.9283 C   0  0  0  0  0  0  0  0  0  0  0  0
   48.0022    5.0150   16.2423 C   0  0  0  0  0  0  0  0  0  0  0  0
   48.4020    6.2363   15.4794 C   0  0  0  0  0  0  0  0  0  0  0  0
   48.1873    6.9245   17.9852 C   0  0  0  0  0  0  0  0  0  0  0  0
   47.5687    6.3786   18.8881 O   0  0  0  0  0  0  0  0  0  0  0  0
   48.3705    8.2678   17.7898 N   0  0  0  0  0  0  0  0  0  0  0  0
   47.9112    9.3264   18.5689 C   0  0  0  0  0  0  0  0  0  0  0  0
   48.2716   10.5335   18.0881 N   0  0  0  0  0  0  0  0  0  0  0  0
   47.1646    9.1778   19.7234 C   0  0  0  0  0  0  0  0  0  0  0  0
   46.7657   10.3210   20.4112 C   0  0  0  0  0  0  0  0  0  0  0  0
   47.1155   11.5875   19.9339 C   0  0  0  0  0  0  0  0  0  0  0  0
   47.8928   11.6468   18.7712 C   0  0  0  0  0  0  0  0  0  0  0  0
   46.6712   12.8084   20.6849 C   0  0  0  0  0  0  0  0  0  0  0  0
   48.3684   12.9008   18.1660 C   0  0  0  0  0  0  0  0  0  0  0  0
   48.4273   14.4356   16.2688 C   0  0  0  0  0  0  0  0  0  0  0  0
   47.9820   13.2516   16.8611 C   0  0  0  0  0  0  0  0  0  0  0  0
   49.2362   13.7644   18.8548 C   0  0  0  0  0  0  0  0  0  0  0  0
   49.6866   14.9550   18.2662 C   0  0  0  0  0  0  0  0  0  0  0  0
   49.2766   15.2893   16.9712 C   0  0  0  0  0  0  0  0  0  0  0  0
   50.5923   15.8255   19.0536 C   0  0  0  0  0  0  0  0  0  0  0  0
   50.9936   16.9143   18.3743 O   0  0  0  0  0  0  0  0  0  0  0  0
   50.9608   15.6216   20.1954 O   0  0  0  0  0  0  0  0  0  0  0  0
   49.8676    4.0765   18.5486 H   0  0  0  0  0  0  0  0  0  0  0  0
   53.5300    6.7175   16.4191 H   0  0  0  0  0  0  0  0  0  0  0  0
   51.1608    7.2888   15.9540 H   0  0  0  0  0  0  0  0  0  0  0  0
   48.4591    4.0712   15.9661 H   0  0  0  0  0  0  0  0  0  0  0  0
   46.9672    4.9197   16.5545 H   0  0  0  0  0  0  0  0  0  0  0  0
   49.1217    6.1087   14.6785 H   0  0  0  0  0  0  0  0  0  0  0  0
   47.6246    6.9588   15.2541 H   0  0  0  0  0  0  0  0  0  0  0  0
   48.9161    8.5775   16.9989 H   0  0  0  0  0  0  0  0  0  0  0  0
   46.8811    8.2062   20.1098 H   0  0  0  0  0  0  0  0  0  0  0  0
   46.1768   10.2126   21.3194 H   0  0  0  0  0  0  0  0  0  0  0  0
   45.8336   12.5774   21.3523 H   0  0  0  0  0  0  0  0  0  0  0  0
   46.3208   13.5868   19.9996 H   0  0  0  0  0  0  0  0  0  0  0  0
   47.4913   13.1991   21.2947 H   0  0  0  0  0  0  0  0  0  0  0  0
   48.1137   14.6884   15.2589 H   0  0  0  0  0  0  0  0  0  0  0  0
   47.3253   12.5892   16.2986 H   0  0  0  0  0  0  0  0  0  0  0  0
   49.5761   13.5019   19.8560 H   0  0  0  0  0  0  0  0  0  0  0  0
   49.6170   16.2078   16.4992 H   0  0  0  0  0  0  0  0  0  0  0  0
   51.5785   17.3827   19.0063 H   0  0  0  0  0  0  0  0  0  0  0  0
  1  2  1  0
  1  5  1  0
  2  3  1  0
  3  4  1  0
  2  6  1  0
  2  7  1  0
  8  5  1  0
  5  4  2  0
  4  9  1  0
  8 11  2  0
  9 10  2  0
 10 11  1  0
 11 12  1  0
 12 13  1  0
 13 14  1  0
 14 12  1  0
 12 15  1  0
 15 16  2  0
 15 17  1  0
 17 18  1  0
 19 18  2  0
 18 20  1  0
 19 23  1  0
 20 21  2  0
 21 22  1  0
 22 23  2  0
 22 24  1  0
 23 25  1  0
 27 25  1  0
 25 28  2  0
 26 27  2  0
 26 30  1  0
 28 29  1  0
 29 30  2  0
 29 31  1  0
 31 32  1  0
 31 33  2  0
  8 34  1  0
  9 35  1  0
 10 36  1  0
 13 37  1  0
 13 38  1  0
 14 39  1  0
 14 40  1  0
 17 41  1  0
 20 42  1  0
 21 43  1  0
 24 44  1  0
 24 45  1  0
 24 46  1  0
 26 47  1  0
 27 48  1  0
 28 49  1  0
 30 50  1  0
 32 51  1  0
M  END
> <Uni-Dock RESULT> 
ENERGY=   -4.679  LOWER_BOUND=    8.057  UPPER_BOUND=   11.033
INTER + INTRA:          -4.679
INTER:                  -4.679
INTRA:                   0.000
UNBOUND:                 0.000

$$$$
