
     RDKit          3D

 51 55  0  0  0  0  0  0  0  0999 V2000
   51.3428    5.2853   22.0899 O   0  0  0  0  0  0  0  0  0  0  0  0
   50.8580    5.5294   23.4187 C   0  0  0  0  0  0  0  0  0  0  0  0
   49.4300    5.6261   23.5319 O   0  0  0  0  0  0  0  0  0  0  0  0
   49.0776    5.4409   22.2320 C   0  0  0  0  0  0  0  0  0  0  0  0
   50.1640    5.2457   21.4117 C   0  0  0  0  0  0  0  0  0  0  0  0
   51.2870    4.5268   24.2249 F   0  0  0  0  0  0  0  0  0  0  0  0
   51.4049    6.6846   23.8730 F   0  0  0  0  0  0  0  0  0  0  0  0
   50.0214    5.0338   20.0546 C   0  0  0  0  0  0  0  0  0  0  0  0
   47.7921    5.4362   21.7408 C   0  0  0  0  0  0  0  0  0  0  0  0
   47.6229    5.2194   20.3683 C   0  0  0  0  0  0  0  0  0  0  0  0
   48.7263    5.0120   19.4978 C   0  0  0  0  0  0  0  0  0  0  0  0
   48.5212    4.7916   17.9918 C   0  0  0  0  0  0  0  0  0  0  0  0
   48.9814    3.4291   17.4544 C   0  0  0  0  0  0  0  0  0  0  0  0
   47.5167    3.7165   17.5635 C   0  0  0  0  0  0  0  0  0  0  0  0
   48.6633    5.9962   17.0563 C   0  0  0  0  0  0  0  0  0  0  0  0
   48.9110    5.8091   15.8692 O   0  0  0  0  0  0  0  0  0  0  0  0
   48.4608    7.2173   17.6505 N   0  0  0  0  0  0  0  0  0  0  0  0
   48.5288    8.4846   17.0735 C   0  0  0  0  0  0  0  0  0  0  0  0
   48.3074    9.4774   17.9586 N   0  0  0  0  0  0  0  0  0  0  0  0
   48.8018    8.7271   15.7390 C   0  0  0  0  0  0  0  0  0  0  0  0
   48.8376   10.0468   15.2945 C   0  0  0  0  0  0  0  0  0  0  0  0
   48.6020   11.0977   16.1864 C   0  0  0  0  0  0  0  0  0  0  0  0
   48.3652   10.7657   17.5262 C   0  0  0  0  0  0  0  0  0  0  0  0
   48.6321   12.5104   15.6813 C   0  0  0  0  0  0  0  0  0  0  0  0
   48.1607   11.7530   18.5996 C   0  0  0  0  0  0  0  0  0  0  0  0
   46.7881   12.6365   20.4165 C   0  0  0  0  0  0  0  0  0  0  0  0
   46.9894   11.7256   19.3766 C   0  0  0  0  0  0  0  0  0  0  0  0
   49.1388   12.7137   18.9105 C   0  0  0  0  0  0  0  0  0  0  0  0
   48.9415   13.6318   19.9524 C   0  0  0  0  0  0  0  0  0  0  0  0
   47.7621   13.5889   20.7045 C   0  0  0  0  0  0  0  0  0  0  0  0
   49.9563   14.6541   20.2994 C   0  0  0  0  0  0  0  0  0  0  0  0
   51.0054   14.6535   19.4576 O   0  0  0  0  0  0  0  0  0  0  0  0
   49.8886   15.4401   21.2255 O   0  0  0  0  0  0  0  0  0  0  0  0
   50.8975    4.8824   19.4293 H   0  0  0  0  0  0  0  0  0  0  0  0
   46.9393    5.5909   22.3953 H   0  0  0  0  0  0  0  0  0  0  0  0
   46.6114    5.2073   19.9629 H   0  0  0  0  0  0  0  0  0  0  0  0
   49.4058    2.7061   18.1430 H   0  0  0  0  0  0  0  0  0  0  0  0
   49.4186    3.3847   16.4615 H   0  0  0  0  0  0  0  0  0  0  0  0
   46.9576    3.1754   18.3188 H   0  0  0  0  0  0  0  0  0  0  0  0
   46.9652    3.8694   16.6409 H   0  0  0  0  0  0  0  0  0  0  0  0
   48.2581    7.2673   18.6395 H   0  0  0  0  0  0  0  0  0  0  0  0
   48.9847    7.9299   15.0286 H   0  0  0  0  0  0  0  0  0  0  0  0
   49.0467   10.2444   14.2447 H   0  0  0  0  0  0  0  0  0  0  0  0
   48.4723   12.5432   14.5972 H   0  0  0  0  0  0  0  0  0  0  0  0
   49.6000   12.9724   15.8954 H   0  0  0  0  0  0  0  0  0  0  0  0
   47.8320   13.1071   16.1315 H   0  0  0  0  0  0  0  0  0  0  0  0
   45.8764   12.5944   21.0077 H   0  0  0  0  0  0  0  0  0  0  0  0
   46.2264   10.9752   19.1730 H   0  0  0  0  0  0  0  0  0  0  0  0
   50.0695   12.7295   18.3468 H   0  0  0  0  0  0  0  0  0  0  0  0
   47.6030   14.2919   21.5200 H   0  0  0  0  0  0  0  0  0  0  0  0
   51.5818   15.3708   19.7977 H   0  0  0  0  0  0  0  0  0  0  0  0
  1  2  1  0
  1  5  1  0
  2  3  1  0
  3  4  1  0
  2  6  1  0
  2  7  1  0
  8  5  1  0
  5  4  2  0
  4  9  1  0
  8 11  2  0
  9 10  2  0
 10 11  1  0
 11 12  1  0
 12 13  1  0
 13 14  1  0
 14 12  1  0
 12 15  1  0
 15 16  2  0
 15 17  1  0
 17 18  1  0
 19 18  2  0
 18 20  1  0
 19 23  1  0
 20 21  2  0
 21 22  1  0
 22 23  2  0
 22 24  1  0
 23 25  1  0
 27 25  1  0
 25 28  2  0
 26 27  2  0
 26 30  1  0
 28 29  1  0
 29 30  2  0
 29 31  1  0
 31 32  1  0
 31 33  2  0
  8 34  1  0
  9 35  1  0
 10 36  1  0
 13 37  1  0
 13 38  1  0
 14 39  1  0
 14 40  1  0
 17 41  1  0
 20 42  1  0
 21 43  1  0
 24 44  1  0
 24 45  1  0
 24 46  1  0
 26 47  1  0
 27 48  1  0
 28 49  1  0
 30 50  1  0
 32 51  1  0
M  END
> <Uni-Dock RESULT> 
ENERGY=   -5.105  LOWER_BOUND=    0.000  UPPER_BOUND=    0.000
INTER + INTRA:          -5.105
INTER:                  -5.105
INTRA:                   0.000
UNBOUND:                 0.000

$$$$

     RDKit          3D

 51 55  0  0  0  0  0  0  0  0999 V2000
   49.0700    4.0039   17.6272 O   0  0  0  0  0  0  0  0  0  0  0  0
   48.5480    2.9591   16.7930 C   0  0  0  0  0  0  0  0  0  0  0  0
   49.4532    1.8713   16.5504 O   0  0  0  0  0  0  0  0  0  0  0  0
   50.5324    2.3010   17.2568 C   0  0  0  0  0  0  0  0  0  0  0  0
   50.3152    3.5125   17.8704 C   0  0  0  0  0  0  0  0  0  0  0  0
   47.4262    2.4645   17.3729 F   0  0  0  0  0  0  0  0  0  0  0  0
   48.1911    3.4961   15.5997 F   0  0  0  0  0  0  0  0  0  0  0  0
   51.2859    4.1213   18.6411 C   0  0  0  0  0  0  0  0  0  0  0  0
   51.7300    1.6343   17.3792 C   0  0  0  0  0  0  0  0  0  0  0  0
   52.7277    2.2307   18.1591 C   0  0  0  0  0  0  0  0  0  0  0  0
   52.5303    3.4797   18.8068 C   0  0  0  0  0  0  0  0  0  0  0  0
   53.6429    4.1256   19.6454 C   0  0  0  0  0  0  0  0  0  0  0  0
   53.3249    4.3097   21.1361 C   0  0  0  0  0  0  0  0  0  0  0  0
   54.3106    3.2627   20.7216 C   0  0  0  0  0  0  0  0  0  0  0  0
   54.5276    5.1864   18.9833 C   0  0  0  0  0  0  0  0  0  0  0  0
   55.1268    5.9936   19.6869 O   0  0  0  0  0  0  0  0  0  0  0  0
   54.5945    5.1112   17.6140 N   0  0  0  0  0  0  0  0  0  0  0  0
   55.2995    5.9309   16.7338 C   0  0  0  0  0  0  0  0  0  0  0  0
   55.1153    5.5947   15.4411 N   0  0  0  0  0  0  0  0  0  0  0  0
   56.1031    6.9896   17.1182 C   0  0  0  0  0  0  0  0  0  0  0  0
   56.7530    7.7267   16.1309 C   0  0  0  0  0  0  0  0  0  0  0  0
   56.5898    7.3960   14.7820 C   0  0  0  0  0  0  0  0  0  0  0  0
   55.7334    6.3303   14.4783 C   0  0  0  0  0  0  0  0  0  0  0  0
   57.3112    8.1959   13.7373 C   0  0  0  0  0  0  0  0  0  0  0  0
   55.4068    5.8956   13.1097 C   0  0  0  0  0  0  0  0  0  0  0  0
   55.3214    4.1309   11.4231 C   0  0  0  0  0  0  0  0  0  0  0  0
   55.6484    4.5701   12.7083 C   0  0  0  0  0  0  0  0  0  0  0  0
   54.8056    6.7678   12.1854 C   0  0  0  0  0  0  0  0  0  0  0  0
   54.4764    6.3329   10.8932 C   0  0  0  0  0  0  0  0  0  0  0  0
   54.7364    5.0105   10.5160 C   0  0  0  0  0  0  0  0  0  0  0  0
   53.8430    7.2323    9.9007 C   0  0  0  0  0  0  0  0  0  0  0  0
   53.7199    8.4955   10.3463 O   0  0  0  0  0  0  0  0  0  0  0  0
   53.4700    6.9151    8.7871 O   0  0  0  0  0  0  0  0  0  0  0  0
   51.0874    5.0793   19.1148 H   0  0  0  0  0  0  0  0  0  0  0  0
   51.8936    0.6777   16.8917 H   0  0  0  0  0  0  0  0  0  0  0  0
   53.6807    1.7141   18.2712 H   0  0  0  0  0  0  0  0  0  0  0  0
   52.3651    3.9761   21.5162 H   0  0  0  0  0  0  0  0  0  0  0  0
   53.7032    5.1933   21.6413 H   0  0  0  0  0  0  0  0  0  0  0  0
   54.0142    2.2260   20.8361 H   0  0  0  0  0  0  0  0  0  0  0  0
   55.3577    3.4426   20.9454 H   0  0  0  0  0  0  0  0  0  0  0  0
   54.0634    4.4052   17.1230 H   0  0  0  0  0  0  0  0  0  0  0  0
   56.2474    7.2631   18.1564 H   0  0  0  0  0  0  0  0  0  0  0  0
   57.3908    8.5577   16.4267 H   0  0  0  0  0  0  0  0  0  0  0  0
   58.1736    8.7176   14.1684 H   0  0  0  0  0  0  0  0  0  0  0  0
   56.6445    8.9454   13.3017 H   0  0  0  0  0  0  0  0  0  0  0  0
   57.7034    7.5484   12.9462 H   0  0  0  0  0  0  0  0  0  0  0  0
   55.5131    3.1000   11.1352 H   0  0  0  0  0  0  0  0  0  0  0  0
   56.0904    3.8668   13.4132 H   0  0  0  0  0  0  0  0  0  0  0  0
   54.5748    7.7877   12.4863 H   0  0  0  0  0  0  0  0  0  0  0  0
   54.4775    4.6613    9.5181 H   0  0  0  0  0  0  0  0  0  0  0  0
   53.2998    8.9703    9.5976 H   0  0  0  0  0  0  0  0  0  0  0  0
  1  2  1  0
  1  5  1  0
  2  3  1  0
  3  4  1  0
  2  6  1  0
  2  7  1  0
  8  5  1  0
  5  4  2  0
  4  9  1  0
  8 11  2  0
  9 10  2  0
 10 11  1  0
 11 12  1  0
 12 13  1  0
 13 14  1  0
 14 12  1  0
 12 15  1  0
 15 16  2  0
 15 17  1  0
 17 18  1  0
 19 18  2  0
 18 20  1  0
 19 23  1  0
 20 21  2  0
 21 22  1  0
 22 23  2  0
 22 24  1  0
 23 25  1  0
 27 25  1  0
 25 28  2  0
 26 27  2  0
 26 30  1  0
 28 29  1  0
 29 30  2  0
 29 31  1  0
 31 32  1  0
 31 33  2  0
  8 34  1  0
  9 35  1  0
 10 36  1  0
 13 37  1  0
 13 38  1  0
 14 39  1  0
 14 40  1  0
 17 41  1  0
 20 42  1  0
 21 43  1  0
 24 44  1  0
 24 45  1  0
 24 46  1  0
 26 47  1  0
 27 48  1  0
 28 49  1  0
 30 50  1  0
 32 51  1  0
M  END
> <Uni-Dock RESULT> 
ENERGY=   -5.033  LOWER_BOUND=    6.904  UPPER_BOUND=    9.194
INTER + INTRA:          -5.033
INTER:                  -5.033
INTRA:                   0.000
UNBOUND:                 0.000

$$$$

     RDKit          3D

 51 55  0  0  0  0  0  0  0  0999 V2000
   44.9118   14.4944   13.2986 O   0  0  0  0  0  0  0  0  0  0  0  0
   46.1062   15.2877   13.2331 C   0  0  0  0  0  0  0  0  0  0  0  0
   46.9735   14.9827   12.1302 O   0  0  0  0  0  0  0  0  0  0  0  0
   46.2665   13.9799   11.5448 C   0  0  0  0  0  0  0  0  0  0  0  0
   45.0937   13.7025   12.2074 C   0  0  0  0  0  0  0  0  0  0  0  0
   45.7519   16.5944   13.1537 F   0  0  0  0  0  0  0  0  0  0  0  0
   46.8007   15.1195   14.3860 F   0  0  0  0  0  0  0  0  0  0  0  0
   44.2274   12.7195   11.7711 C   0  0  0  0  0  0  0  0  0  0  0  0
   46.6368   13.2901   10.4131 C   0  0  0  0  0  0  0  0  0  0  0  0
   45.7721   12.2915    9.9500 C   0  0  0  0  0  0  0  0  0  0  0  0
   44.5531   11.9854   10.6123 C   0  0  0  0  0  0  0  0  0  0  0  0
   43.6251   10.8752   10.0978 C   0  0  0  0  0  0  0  0  0  0  0  0
   42.2318   11.3349    9.6455 C   0  0  0  0  0  0  0  0  0  0  0  0
   43.2323   10.9097    8.6169 C   0  0  0  0  0  0  0  0  0  0  0  0
   43.7296    9.4876   10.7381 C   0  0  0  0  0  0  0  0  0  0  0  0
   42.7776    8.7172   10.6615 O   0  0  0  0  0  0  0  0  0  0  0  0
   44.9366    9.2142   11.3327 N   0  0  0  0  0  0  0  0  0  0  0  0
   45.3321    8.0558   12.0001 C   0  0  0  0  0  0  0  0  0  0  0  0
   46.5830    8.1368   12.4968 N   0  0  0  0  0  0  0  0  0  0  0  0
   44.5417    6.9313   12.1587 C   0  0  0  0  0  0  0  0  0  0  0  0
   45.0650    5.8400   12.8483 C   0  0  0  0  0  0  0  0  0  0  0  0
   46.3630    5.8899   13.3664 C   0  0  0  0  0  0  0  0  0  0  0  0
   47.0829    7.0781   13.1891 C   0  0  0  0  0  0  0  0  0  0  0  0
   46.9099    4.6967   14.0935 C   0  0  0  0  0  0  0  0  0  0  0  0
   48.4342    7.3145   13.7247 C   0  0  0  0  0  0  0  0  0  0  0  0
   50.7717    7.9184   13.3547 C   0  0  0  0  0  0  0  0  0  0  0  0
   49.4888    7.6642   12.8635 C   0  0  0  0  0  0  0  0  0  0  0  0
   48.7004    7.2462   15.1034 C   0  0  0  0  0  0  0  0  0  0  0  0
   49.9867    7.4989   15.6022 C   0  0  0  0  0  0  0  0  0  0  0  0
   51.0213    7.8358   14.7221 C   0  0  0  0  0  0  0  0  0  0  0  0
   50.2933    7.4328   17.0503 C   0  0  0  0  0  0  0  0  0  0  0  0
   49.2461    7.0190   17.7861 O   0  0  0  0  0  0  0  0  0  0  0  0
   51.3624    7.7000   17.5655 O   0  0  0  0  0  0  0  0  0  0  0  0
   43.3070   12.5209   12.3142 H   0  0  0  0  0  0  0  0  0  0  0  0
   47.5645   13.5154    9.8955 H   0  0  0  0  0  0  0  0  0  0  0  0
   46.0471   11.7387    9.0520 H   0  0  0  0  0  0  0  0  0  0  0  0
   41.9807   12.3890    9.6989 H   0  0  0  0  0  0  0  0  0  0  0  0
   41.3848   10.6815    9.8321 H   0  0  0  0  0  0  0  0  0  0  0  0
   43.6423   11.6794    7.9726 H   0  0  0  0  0  0  0  0  0  0  0  0
   43.0608    9.9648    8.1105 H   0  0  0  0  0  0  0  0  0  0  0  0
   45.6631    9.9169   11.3413 H   0  0  0  0  0  0  0  0  0  0  0  0
   43.5349    6.8677   11.7641 H   0  0  0  0  0  0  0  0  0  0  0  0
   44.4505    4.9501   12.9722 H   0  0  0  0  0  0  0  0  0  0  0  0
   46.3654    3.7858   13.8186 H   0  0  0  0  0  0  0  0  0  0  0  0
   46.8187    4.8329   15.1748 H   0  0  0  0  0  0  0  0  0  0  0  0
   47.9589    4.5224   13.8320 H   0  0  0  0  0  0  0  0  0  0  0  0
   51.5718    8.1916   12.6709 H   0  0  0  0  0  0  0  0  0  0  0  0
   49.3038    7.7487   11.7933 H   0  0  0  0  0  0  0  0  0  0  0  0
   47.8908    7.0141   15.7924 H   0  0  0  0  0  0  0  0  0  0  0  0
   52.0211    8.0414   15.1000 H   0  0  0  0  0  0  0  0  0  0  0  0
   49.5893    7.0165   18.7052 H   0  0  0  0  0  0  0  0  0  0  0  0
  1  2  1  0
  1  5  1  0
  2  3  1  0
  3  4  1  0
  2  6  1  0
  2  7  1  0
  8  5  1  0
  5  4  2  0
  4  9  1  0
  8 11  2  0
  9 10  2  0
 10 11  1  0
 11 12  1  0
 12 13  1  0
 13 14  1  0
 14 12  1  0
 12 15  1  0
 15 16  2  0
 15 17  1  0
 17 18  1  0
 19 18  2  0
 18 20  1  0
 19 23  1  0
 20 21  2  0
 21 22  1  0
 22 23  2  0
 22 24  1  0
 23 25  1  0
 27 25  1  0
 25 28  2  0
 26 27  2  0
 26 30  1  0
 28 29  1  0
 29 30  2  0
 29 31  1  0
 31 32  1  0
 31 33  2  0
  8 34  1  0
  9 35  1  0
 10 36  1  0
 13 37  1  0
 13 38  1  0
 14 39  1  0
 14 40  1  0
 17 41  1  0
 20 42  1  0
 21 43  1  0
 24 44  1  0
 24 45  1  0
 24 46  1  0
 26 47  1  0
 27 48  1  0
 28 49  1  0
 30 50  1  0
 32 51  1  0
M  END
> <Uni-Dock RESULT> 
ENERGY=   -4.785  LOWER_BOUND=    6.527  UPPER_BOUND=   10.559
INTER + INTRA:          -4.785
INTER:                  -4.785
INTRA:                   0.000
UNBOUND:                 0.000

$$$$

     RDKit          3D

 51 55  0  0  0  0  0  0  0  0999 V2000
   46.5639    4.7991   18.0440 O   0  0  0  0  0  0  0  0  0  0  0  0
   47.4511    3.9199   17.3368 C   0  0  0  0  0  0  0  0  0  0  0  0
   48.8478    4.1531   17.5743 O   0  0  0  0  0  0  0  0  0  0  0  0
   48.7684    5.2011   18.4366 C   0  0  0  0  0  0  0  0  0  0  0  0
   47.4705    5.5682   18.7054 C   0  0  0  0  0  0  0  0  0  0  0  0
   47.1621    2.6422   17.6878 F   0  0  0  0  0  0  0  0  0  0  0  0
   47.2141    4.0444   16.0071 F   0  0  0  0  0  0  0  0  0  0  0  0
   47.1722    6.6091   19.5624 C   0  0  0  0  0  0  0  0  0  0  0  0
   49.8364    5.8542   19.0080 C   0  0  0  0  0  0  0  0  0  0  0  0
   49.5579    6.9104   19.8834 C   0  0  0  0  0  0  0  0  0  0  0  0
   48.2275    7.3095   20.1817 C   0  0  0  0  0  0  0  0  0  0  0  0
   47.9426    8.4814   21.1326 C   0  0  0  0  0  0  0  0  0  0  0  0
   47.1763    8.1220   22.4135 C   0  0  0  0  0  0  0  0  0  0  0  0
   48.6302    8.4658   22.5020 C   0  0  0  0  0  0  0  0  0  0  0  0
   47.6780    9.8619   20.5238 C   0  0  0  0  0  0  0  0  0  0  0  0
   47.0645   10.6994   21.1778 O   0  0  0  0  0  0  0  0  0  0  0  0
   48.1999   10.0500   19.2678 N   0  0  0  0  0  0  0  0  0  0  0  0
   48.1207   11.1807   18.4561 C   0  0  0  0  0  0  0  0  0  0  0  0
   48.7193   11.0115   17.2598 N   0  0  0  0  0  0  0  0  0  0  0  0
   47.4927   12.3612   18.8116 C   0  0  0  0  0  0  0  0  0  0  0  0
   47.4901   13.4158   17.9016 C   0  0  0  0  0  0  0  0  0  0  0  0
   48.1114   13.2742   16.6568 C   0  0  0  0  0  0  0  0  0  0  0  0
   48.6956   12.0353   16.3647 C   0  0  0  0  0  0  0  0  0  0  0  0
   48.1077   14.4290   15.6986 C   0  0  0  0  0  0  0  0  0  0  0  0
   49.3339   11.7041   15.0796 C   0  0  0  0  0  0  0  0  0  0  0  0
   51.2870   10.9279   13.8350 C   0  0  0  0  0  0  0  0  0  0  0  0
   50.6712   11.2722   15.0408 C   0  0  0  0  0  0  0  0  0  0  0  0
   48.6218   11.7619   13.8688 C   0  0  0  0  0  0  0  0  0  0  0  0
   49.2352   11.4189   12.6550 C   0  0  0  0  0  0  0  0  0  0  0  0
   50.5708   11.0011   12.6432 C   0  0  0  0  0  0  0  0  0  0  0  0
   48.5069   11.4720   11.3658 C   0  0  0  0  0  0  0  0  0  0  0  0
   47.2623   11.9665   11.4906 O   0  0  0  0  0  0  0  0  0  0  0  0
   48.9466   11.1306   10.2841 O   0  0  0  0  0  0  0  0  0  0  0  0
   46.1372    6.8783   19.7569 H   0  0  0  0  0  0  0  0  0  0  0  0
   50.8584    5.5580   18.7909 H   0  0  0  0  0  0  0  0  0  0  0  0
   50.3917    7.4356   20.3490 H   0  0  0  0  0  0  0  0  0  0  0  0
   46.8911    7.0896   22.5859 H   0  0  0  0  0  0  0  0  0  0  0  0
   46.4596    8.8370   22.8062 H   0  0  0  0  0  0  0  0  0  0  0  0
   49.3179    7.6638   22.7462 H   0  0  0  0  0  0  0  0  0  0  0  0
   48.8944    9.4173   22.9532 H   0  0  0  0  0  0  0  0  0  0  0  0
   48.6943    9.2959   18.8111 H   0  0  0  0  0  0  0  0  0  0  0  0
   47.0074   12.4957   19.7707 H   0  0  0  0  0  0  0  0  0  0  0  0
   47.0024   14.3491   18.1769 H   0  0  0  0  0  0  0  0  0  0  0  0
   47.9380   15.3755   16.2251 H   0  0  0  0  0  0  0  0  0  0  0  0
   47.3141   14.3071   14.9560 H   0  0  0  0  0  0  0  0  0  0  0  0
   49.0738   14.5241   15.1921 H   0  0  0  0  0  0  0  0  0  0  0  0
   52.3213   10.5922   13.8288 H   0  0  0  0  0  0  0  0  0  0  0  0
   51.2383   11.1944   15.9677 H   0  0  0  0  0  0  0  0  0  0  0  0
   47.5746   12.0573   13.8793 H   0  0  0  0  0  0  0  0  0  0  0  0
   51.0535   10.7254   11.7074 H   0  0  0  0  0  0  0  0  0  0  0  0
   46.9085   11.9500   10.5757 H   0  0  0  0  0  0  0  0  0  0  0  0
  1  2  1  0
  1  5  1  0
  2  3  1  0
  3  4  1  0
  2  6  1  0
  2  7  1  0
  8  5  1  0
  5  4  2  0
  4  9  1  0
  8 11  2  0
  9 10  2  0
 10 11  1  0
 11 12  1  0
 12 13  1  0
 13 14  1  0
 14 12  1  0
 12 15  1  0
 15 16  2  0
 15 17  1  0
 17 18  1  0
 19 18  2  0
 18 20  1  0
 19 23  1  0
 20 21  2  0
 21 22  1  0
 22 23  2  0
 22 24  1  0
 23 25  1  0
 27 25  1  0
 25 28  2  0
 26 27  2  0
 26 30  1  0
 28 29  1  0
 29 30  2  0
 29 31  1  0
 31 32  1  0
 31 33  2  0
  8 34  1  0
  9 35  1  0
 10 36  1  0
 13 37  1  0
 13 38  1  0
 14 39  1  0
 14 40  1  0
 17 41  1  0
 20 42  1  0
 21 43  1  0
 24 44  1  0
 24 45  1  0
 24 46  1  0
 26 47  1  0
 27 48  1  0
 28 49  1  0
 30 50  1  0
 32 51  1  0
M  END
> <Uni-Dock RESULT> 
ENERGY=   -4.615  LOWER_BOUND=    3.634  UPPER_BOUND=    6.083
INTER + INTRA:          -4.615
INTER:                  -4.615
INTRA:                   0.000
UNBOUND:                 0.000

$$$$

     RDKit          3D

 51 55  0  0  0  0  0  0  0  0999 V2000
   53.9574    6.6298    8.3952 O   0  0  0  0  0  0  0  0  0  0  0  0
   53.1631    7.0698    7.2837 C   0  0  0  0  0  0  0  0  0  0  0  0
   52.5925    8.3792    7.4304 O   0  0  0  0  0  0  0  0  0  0  0  0
   53.0624    8.7039    8.6641 C   0  0  0  0  0  0  0  0  0  0  0  0
   53.8395    7.7108    9.2128 C   0  0  0  0  0  0  0  0  0  0  0  0
   53.9371    7.0597    6.1700 F   0  0  0  0  0  0  0  0  0  0  0  0
   52.1566    6.1808    7.0927 F   0  0  0  0  0  0  0  0  0  0  0  0
   54.4172    7.8453   10.4599 C   0  0  0  0  0  0  0  0  0  0  0  0
   52.8201    9.8827    9.3316 C   0  0  0  0  0  0  0  0  0  0  0  0
   53.3988   10.0430   10.5960 C   0  0  0  0  0  0  0  0  0  0  0  0
   54.2082    9.0355   11.1861 C   0  0  0  0  0  0  0  0  0  0  0  0
   54.8214    9.2237   12.5815 C   0  0  0  0  0  0  0  0  0  0  0  0
   56.3558    9.2375   12.6328 C   0  0  0  0  0  0  0  0  0  0  0  0
   55.6045   10.5147   12.8430 C   0  0  0  0  0  0  0  0  0  0  0  0
   54.0873    8.6221   13.7838 C   0  0  0  0  0  0  0  0  0  0  0  0
   54.7110    8.3917   14.8150 O   0  0  0  0  0  0  0  0  0  0  0  0
   52.7421    8.4191   13.5979 N   0  0  0  0  0  0  0  0  0  0  0  0
   51.8142    7.8843   14.4904 C   0  0  0  0  0  0  0  0  0  0  0  0
   50.5745    7.7940   13.9679 N   0  0  0  0  0  0  0  0  0  0  0  0
   52.1087    7.4731   15.7782 C   0  0  0  0  0  0  0  0  0  0  0  0
   51.0816    6.9573   16.5652 C   0  0  0  0  0  0  0  0  0  0  0  0
   49.7832    6.8604   16.0549 C   0  0  0  0  0  0  0  0  0  0  0  0
   49.5784    7.2691   14.7311 C   0  0  0  0  0  0  0  0  0  0  0  0
   48.6905    6.3145   16.9264 C   0  0  0  0  0  0  0  0  0  0  0  0
   48.2888    7.1750   14.0263 C   0  0  0  0  0  0  0  0  0  0  0  0
   46.4884    8.2502   12.7739 C   0  0  0  0  0  0  0  0  0  0  0  0
   47.6980    8.3225   13.4692 C   0  0  0  0  0  0  0  0  0  0  0  0
   47.6372    5.9421   13.8478 C   0  0  0  0  0  0  0  0  0  0  0  0
   46.4219    5.8635   13.1521 C   0  0  0  0  0  0  0  0  0  0  0  0
   45.8503    7.0228   12.6154 C   0  0  0  0  0  0  0  0  0  0  0  0
   45.7152    4.5769   12.9508 C   0  0  0  0  0  0  0  0  0  0  0  0
   46.3134    3.5500   13.5808 O   0  0  0  0  0  0  0  0  0  0  0  0
   44.6956    4.4167   12.3070 O   0  0  0  0  0  0  0  0  0  0  0  0
   55.0270    7.0443   10.8698 H   0  0  0  0  0  0  0  0  0  0  0  0
   52.2055   10.6623    8.8912 H   0  0  0  0  0  0  0  0  0  0  0  0
   53.2217   10.9725   11.1366 H   0  0  0  0  0  0  0  0  0  0  0  0
   56.9158    9.1282   11.7101 H   0  0  0  0  0  0  0  0  0  0  0  0
   56.8495    8.7905   13.4905 H   0  0  0  0  0  0  0  0  0  0  0  0
   55.6721   11.2664   12.0646 H   0  0  0  0  0  0  0  0  0  0  0  0
   55.5892   10.9285   13.8466 H   0  0  0  0  0  0  0  0  0  0  0  0
   52.3182    8.6444   12.7084 H   0  0  0  0  0  0  0  0  0  0  0  0
   53.1057    7.5409   16.1966 H   0  0  0  0  0  0  0  0  0  0  0  0
   51.3054    6.6368   17.5811 H   0  0  0  0  0  0  0  0  0  0  0  0
   48.9569    6.3947   17.9867 H   0  0  0  0  0  0  0  0  0  0  0  0
   48.5126    5.2593   16.7004 H   0  0  0  0  0  0  0  0  0  0  0  0
   47.7622    6.8802   16.7956 H   0  0  0  0  0  0  0  0  0  0  0  0
   46.0514    9.1499   12.3474 H   0  0  0  0  0  0  0  0  0  0  0  0
   48.1947    9.2867   13.5714 H   0  0  0  0  0  0  0  0  0  0  0  0
   48.0949    5.0352   14.2379 H   0  0  0  0  0  0  0  0  0  0  0  0
   44.9115    6.9712   12.0672 H   0  0  0  0  0  0  0  0  0  0  0  0
   45.7441    2.7793   13.3697 H   0  0  0  0  0  0  0  0  0  0  0  0
  1  2  1  0
  1  5  1  0
  2  3  1  0
  3  4  1  0
  2  6  1  0
  2  7  1  0
  8  5  1  0
  5  4  2  0
  4  9  1  0
  8 11  2  0
  9 10  2  0
 10 11  1  0
 11 12  1  0
 12 13  1  0
 13 14  1  0
 14 12  1  0
 12 15  1  0
 15 16  2  0
 15 17  1  0
 17 18  1  0
 19 18  2  0
 18 20  1  0
 19 23  1  0
 20 21  2  0
 21 22  1  0
 22 23  2  0
 22 24  1  0
 23 25  1  0
 27 25  1  0
 25 28  2  0
 26 27  2  0
 26 30  1  0
 28 29  1  0
 29 30  2  0
 29 31  1  0
 31 32  1  0
 31 33  2  0
  8 34  1  0
  9 35  1  0
 10 36  1  0
 13 37  1  0
 13 38  1  0
 14 39  1  0
 14 40  1  0
 17 41  1  0
 20 42  1  0
 21 43  1  0
 24 44  1  0
 24 45  1  0
 24 46  1  0
 26 47  1  0
 27 48  1  0
 28 49  1  0
 30 50  1  0
 32 51  1  0
M  END
> <Uni-Dock RESULT> 
ENERGY=   -4.530  LOWER_BOUND=    7.133  UPPER_BOUND=   10.988
INTER + INTRA:          -4.530
INTER:                  -4.530
INTRA:                   0.000
UNBOUND:                 0.000

$$$$

     RDKit          3D

 51 55  0  0  0  0  0  0  0  0999 V2000
   46.4216    5.9158   12.1120 O   0  0  0  0  0  0  0  0  0  0  0  0
   45.0921    6.3739   12.3998 C   0  0  0  0  0  0  0  0  0  0  0  0
   44.9989    7.7552   12.7804 O   0  0  0  0  0  0  0  0  0  0  0  0
   46.3111    8.1054   12.7192 C   0  0  0  0  0  0  0  0  0  0  0  0
   47.1205    7.0610   12.3381 C   0  0  0  0  0  0  0  0  0  0  0  0
   44.3212    6.1769   11.3015 F   0  0  0  0  0  0  0  0  0  0  0  0
   44.5811    5.6160   13.4019 F   0  0  0  0  0  0  0  0  0  0  0  0
   48.4874    7.2098   12.2104 C   0  0  0  0  0  0  0  0  0  0  0  0
   46.8235    9.3527   12.9942 C   0  0  0  0  0  0  0  0  0  0  0  0
   48.2064    9.5281   12.8677 C   0  0  0  0  0  0  0  0  0  0  0  0
   49.0663    8.4682   12.4730 C   0  0  0  0  0  0  0  0  0  0  0  0
   50.5833    8.6763   12.3553 C   0  0  0  0  0  0  0  0  0  0  0  0
   51.1691    8.4882   10.9487 C   0  0  0  0  0  0  0  0  0  0  0  0
   51.0727    9.8666   11.5234 C   0  0  0  0  0  0  0  0  0  0  0  0
   51.4654    8.2702   13.5399 C   0  0  0  0  0  0  0  0  0  0  0  0
   52.6550    8.0361   13.3508 O   0  0  0  0  0  0  0  0  0  0  0  0
   50.8244    8.2360   14.7536 N   0  0  0  0  0  0  0  0  0  0  0  0
   51.3470    7.8987   16.0013 C   0  0  0  0  0  0  0  0  0  0  0  0
   50.4252    7.9366   16.9846 N   0  0  0  0  0  0  0  0  0  0  0  0
   52.6656    7.5493   16.2329 C   0  0  0  0  0  0  0  0  0  0  0  0
   53.0542    7.2361   17.5334 C   0  0  0  0  0  0  0  0  0  0  0  0
   52.1234    7.2762   18.5762 C   0  0  0  0  0  0  0  0  0  0  0  0
   50.8026    7.6084   18.2495 C   0  0  0  0  0  0  0  0  0  0  0  0
   52.5688    6.9484   19.9712 C   0  0  0  0  0  0  0  0  0  0  0  0
   49.6928    7.6355   19.2171 C   0  0  0  0  0  0  0  0  0  0  0  0
   47.8639    8.8456   20.2926 C   0  0  0  0  0  0  0  0  0  0  0  0
   48.9373    8.8070   19.3992 C   0  0  0  0  0  0  0  0  0  0  0  0
   49.3259    6.4912   19.9467 C   0  0  0  0  0  0  0  0  0  0  0  0
   48.2502    6.5245   20.8461 C   0  0  0  0  0  0  0  0  0  0  0  0
   47.5203    7.7064   21.0157 C   0  0  0  0  0  0  0  0  0  0  0  0
   47.8440    5.3327   21.6272 C   0  0  0  0  0  0  0  0  0  0  0  0
   48.6674    4.2849   21.4449 O   0  0  0  0  0  0  0  0  0  0  0  0
   46.8873    5.2629   22.3755 O   0  0  0  0  0  0  0  0  0  0  0  0
   49.1037    6.3671   11.9076 H   0  0  0  0  0  0  0  0  0  0  0  0
   46.1775   10.1724   13.2944 H   0  0  0  0  0  0  0  0  0  0  0  0
   48.6288   10.5108   13.0765 H   0  0  0  0  0  0  0  0  0  0  0  0
   50.5042    8.2361   10.1293 H   0  0  0  0  0  0  0  0  0  0  0  0
   52.1556    8.0445   10.8534 H   0  0  0  0  0  0  0  0  0  0  0  0
   50.3500   10.5422   11.0794 H   0  0  0  0  0  0  0  0  0  0  0  0
   51.9972   10.3527   11.8195 H   0  0  0  0  0  0  0  0  0  0  0  0
   49.8377    8.4489   14.8068 H   0  0  0  0  0  0  0  0  0  0  0  0
   53.4053    7.5139   15.4423 H   0  0  0  0  0  0  0  0  0  0  0  0
   54.0912    6.9654   17.7234 H   0  0  0  0  0  0  0  0  0  0  0  0
   53.6531    7.0713   20.0762 H   0  0  0  0  0  0  0  0  0  0  0  0
   52.3194    5.9126   20.2186 H   0  0  0  0  0  0  0  0  0  0  0  0
   52.1076    7.6220   20.7008 H   0  0  0  0  0  0  0  0  0  0  0  0
   47.2903    9.7614   20.4146 H   0  0  0  0  0  0  0  0  0  0  0  0
   49.1846    9.7008   18.8277 H   0  0  0  0  0  0  0  0  0  0  0  0
   49.8728    5.5630   19.7940 H   0  0  0  0  0  0  0  0  0  0  0  0
   46.6790    7.7402   21.7055 H   0  0  0  0  0  0  0  0  0  0  0  0
   48.2882    3.5839   22.0169 H   0  0  0  0  0  0  0  0  0  0  0  0
  1  2  1  0
  1  5  1  0
  2  3  1  0
  3  4  1  0
  2  6  1  0
  2  7  1  0
  8  5  1  0
  5  4  2  0
  4  9  1  0
  8 11  2  0
  9 10  2  0
 10 11  1  0
 11 12  1  0
 12 13  1  0
 13 14  1  0
 14 12  1  0
 12 15  1  0
 15 16  2  0
 15 17  1  0
 17 18  1  0
 19 18  2  0
 18 20  1  0
 19 23  1  0
 20 21  2  0
 21 22  1  0
 22 23  2  0
 22 24  1  0
 23 25  1  0
 27 25  1  0
 25 28  2  0
 26 27  2  0
 26 30  1  0
 28 29  1  0
 29 30  2  0
 29 31  1  0
 31 32  1  0
 31 33  2  0
  8 34  1  0
  9 35  1  0
 10 36  1  0
 13 37  1  0
 13 38  1  0
 14 39  1  0
 14 40  1  0
 17 41  1  0
 20 42  1  0
 21 43  1  0
 24 44  1  0
 24 45  1  0
 24 46  1  0
 26 47  1  0
 27 48  1  0
 28 49  1  0
 30 50  1  0
 32 51  1  0
M  END
> <Uni-Dock RESULT> 
ENERGY=   -4.473  LOWER_BOUND=    5.019  UPPER_BOUND=    8.250
INTER + INTRA:          -4.473
INTER:                  -4.473
INTRA:                   0.000
UNBOUND:                 0.000

$$$$

     RDKit          3D

 51 55  0  0  0  0  0  0  0  0999 V2000
   49.1486   12.6582   16.2870 O   0  0  0  0  0  0  0  0  0  0  0  0
   50.2040   13.1326   17.1361 C   0  0  0  0  0  0  0  0  0  0  0  0
   51.4635   12.4651   16.9638 O   0  0  0  0  0  0  0  0  0  0  0  0
   51.1270   11.5739   15.9938 C   0  0  0  0  0  0  0  0  0  0  0  0
   49.8117   11.6838   15.6074 C   0  0  0  0  0  0  0  0  0  0  0  0
   50.3829   14.4565   16.9026 F   0  0  0  0  0  0  0  0  0  0  0  0
   49.8158   12.9920   18.4281 F   0  0  0  0  0  0  0  0  0  0  0  0
   49.2712   10.8721   14.6297 C   0  0  0  0  0  0  0  0  0  0  0  0
   51.9713   10.6476   15.4257 C   0  0  0  0  0  0  0  0  0  0  0  0
   51.4462    9.8163   14.4295 C   0  0  0  0  0  0  0  0  0  0  0  0
   50.0926    9.9093   14.0083 C   0  0  0  0  0  0  0  0  0  0  0  0
   49.5307    8.9774   12.9246 C   0  0  0  0  0  0  0  0  0  0  0  0
   49.0477    9.6702   11.6425 C   0  0  0  0  0  0  0  0  0  0  0  0
   50.3108    8.8681   11.6101 C   0  0  0  0  0  0  0  0  0  0  0  0
   48.7734    7.7221   13.3686 C   0  0  0  0  0  0  0  0  0  0  0  0
   47.9840    7.1910   12.5937 O   0  0  0  0  0  0  0  0  0  0  0  0
   49.0849    7.2738   14.6284 N   0  0  0  0  0  0  0  0  0  0  0  0
   48.5646    6.1754   15.3115 C   0  0  0  0  0  0  0  0  0  0  0  0
   49.0706    6.0417   16.5541 N   0  0  0  0  0  0  0  0  0  0  0  0
   47.6214    5.3040   14.7963 C   0  0  0  0  0  0  0  0  0  0  0  0
   47.1888    4.2439   15.5896 C   0  0  0  0  0  0  0  0  0  0  0  0
   47.7026    4.0729   16.8790 C   0  0  0  0  0  0  0  0  0  0  0  0
   48.6296    5.0187   17.3345 C   0  0  0  0  0  0  0  0  0  0  0  0
   47.2317    2.9154   17.7096 C   0  0  0  0  0  0  0  0  0  0  0  0
   49.2177    5.0170   18.6847 C   0  0  0  0  0  0  0  0  0  0  0  0
   51.1914    4.9969   20.1234 C   0  0  0  0  0  0  0  0  0  0  0  0
   50.6128    4.9726   18.8521 C   0  0  0  0  0  0  0  0  0  0  0  0
   48.4156    5.1072   19.8357 C   0  0  0  0  0  0  0  0  0  0  0  0
   48.9907    5.1304   21.1147 C   0  0  0  0  0  0  0  0  0  0  0  0
   50.3822    5.0754   21.2538 C   0  0  0  0  0  0  0  0  0  0  0  0
   48.1676    5.2242   22.3431 C   0  0  0  0  0  0  0  0  0  0  0  0
   46.8472    5.1856   22.0896 O   0  0  0  0  0  0  0  0  0  0  0  0
   48.5912    5.3143   23.4799 O   0  0  0  0  0  0  0  0  0  0  0  0
   48.2281   10.9802   14.3436 H   0  0  0  0  0  0  0  0  0  0  0  0
   53.0089   10.5673   15.7363 H   0  0  0  0  0  0  0  0  0  0  0  0
   52.1022    9.0803   13.9650 H   0  0  0  0  0  0  0  0  0  0  0  0
   49.1333   10.7486   11.5609 H   0  0  0  0  0  0  0  0  0  0  0  0
   48.1768    9.2686   11.1332 H   0  0  0  0  0  0  0  0  0  0  0  0
   51.2426    9.4103   11.4944 H   0  0  0  0  0  0  0  0  0  0  0  0
   50.2904    7.9209   11.0798 H   0  0  0  0  0  0  0  0  0  0  0  0
   49.7536    7.7814   15.1913 H   0  0  0  0  0  0  0  0  0  0  0  0
   47.2109    5.4141   13.7998 H   0  0  0  0  0  0  0  0  0  0  0  0
   46.4508    3.5516   15.1886 H   0  0  0  0  0  0  0  0  0  0  0  0
   46.8120    2.1238   17.0778 H   0  0  0  0  0  0  0  0  0  0  0  0
   46.4556    3.2378   18.4095 H   0  0  0  0  0  0  0  0  0  0  0  0
   48.0616    2.4639   18.2631 H   0  0  0  0  0  0  0  0  0  0  0  0
   52.2732    4.9660   20.2295 H   0  0  0  0  0  0  0  0  0  0  0  0
   51.2585    4.9278   17.9757 H   0  0  0  0  0  0  0  0  0  0  0  0
   47.3352    5.1806   19.7288 H   0  0  0  0  0  0  0  0  0  0  0  0
   50.8385    5.1007   22.2416 H   0  0  0  0  0  0  0  0  0  0  0  0
   46.4341    5.2486   22.9773 H   0  0  0  0  0  0  0  0  0  0  0  0
  1  2  1  0
  1  5  1  0
  2  3  1  0
  3  4  1  0
  2  6  1  0
  2  7  1  0
  8  5  1  0
  5  4  2  0
  4  9  1  0
  8 11  2  0
  9 10  2  0
 10 11  1  0
 11 12  1  0
 12 13  1  0
 13 14  1  0
 14 12  1  0
 12 15  1  0
 15 16  2  0
 15 17  1  0
 17 18  1  0
 19 18  2  0
 18 20  1  0
 19 23  1  0
 20 21  2  0
 21 22  1  0
 22 23  2  0
 22 24  1  0
 23 25  1  0
 27 25  1  0
 25 28  2  0
 26 27  2  0
 26 30  1  0
 28 29  1  0
 29 30  2  0
 29 31  1  0
 31 32  1  0
 31 33  2  0
  8 34  1  0
  9 35  1  0
 10 36  1  0
 13 37  1  0
 13 38  1  0
 14 39  1  0
 14 40  1  0
 17 41  1  0
 20 42  1  0
 21 43  1  0
 24 44  1  0
 24 45  1  0
 24 46  1  0
 26 47  1  0
 27 48  1  0
 28 49  1  0
 30 50  1  0
 32 51  1  0
M  END
> <Uni-Dock RESULT> 
ENERGY=   -4.467  LOWER_BOUND=    3.461  UPPER_BOUND=    8.049
INTER + INTRA:          -4.467
INTER:                  -4.467
INTRA:                   0.000
UNBOUND:                 0.000

$$$$

     RDKit          3D

 51 55  0  0  0  0  0  0  0  0999 V2000
   47.5173    5.9357   21.8091 O   0  0  0  0  0  0  0  0  0  0  0  0
   47.9226    7.2292   22.2811 C   0  0  0  0  0  0  0  0  0  0  0  0
   48.5924    8.0444   21.3073 O   0  0  0  0  0  0  0  0  0  0  0  0
   48.5822    7.1973   20.2439 C   0  0  0  0  0  0  0  0  0  0  0  0
   47.9701    5.9989   20.5277 C   0  0  0  0  0  0  0  0  0  0  0  0
   46.8229    7.8934   22.7156 F   0  0  0  0  0  0  0  0  0  0  0  0
   48.7486    7.0624   23.3440 F   0  0  0  0  0  0  0  0  0  0  0  0
   47.8507    5.0014   19.5803 C   0  0  0  0  0  0  0  0  0  0  0  0
   49.1083    7.4626   19.0003 C   0  0  0  0  0  0  0  0  0  0  0  0
   48.9954    6.4673   18.0225 C   0  0  0  0  0  0  0  0  0  0  0  0
   48.3659    5.2213   18.2864 C   0  0  0  0  0  0  0  0  0  0  0  0
   48.2659    4.1356   17.2049 C   0  0  0  0  0  0  0  0  0  0  0  0
   46.8405    3.7558   16.7792 C   0  0  0  0  0  0  0  0  0  0  0  0
   47.6994    4.5443   15.8409 C   0  0  0  0  0  0  0  0  0  0  0  0
   49.3184    3.0227   17.1947 C   0  0  0  0  0  0  0  0  0  0  0  0
   49.0603    1.9566   16.6446 O   0  0  0  0  0  0  0  0  0  0  0  0
   50.5088    3.3466   17.7974 N   0  0  0  0  0  0  0  0  0  0  0  0
   51.6446    2.5539   17.9559 C   0  0  0  0  0  0  0  0  0  0  0  0
   52.6309    3.1782   18.6307 N   0  0  0  0  0  0  0  0  0  0  0  0
   51.7701    1.2577   17.4885 C   0  0  0  0  0  0  0  0  0  0  0  0
   52.9652    0.5793   17.7158 C   0  0  0  0  0  0  0  0  0  0  0  0
   54.0104    1.2037   18.4038 C   0  0  0  0  0  0  0  0  0  0  0  0
   53.7883    2.5053   18.8707 C   0  0  0  0  0  0  0  0  0  0  0  0
   55.2935    0.4577   18.6244 C   0  0  0  0  0  0  0  0  0  0  0  0
   54.7607    3.2772   19.6628 C   0  0  0  0  0  0  0  0  0  0  0  0
   56.1062    5.2933   19.9642 C   0  0  0  0  0  0  0  0  0  0  0  0
   55.2046    4.5336   19.2147 C   0  0  0  0  0  0  0  0  0  0  0  0
   55.2348    2.8109   20.9015 C   0  0  0  0  0  0  0  0  0  0  0  0
   56.1413    3.5685   21.6575 C   0  0  0  0  0  0  0  0  0  0  0  0
   56.5747    4.8120   21.1839 C   0  0  0  0  0  0  0  0  0  0  0  0
   56.6563    3.0992   22.9651 C   0  0  0  0  0  0  0  0  0  0  0  0
   56.2374    1.8593   23.2753 O   0  0  0  0  0  0  0  0  0  0  0  0
   57.3906    3.7232   23.7075 O   0  0  0  0  0  0  0  0  0  0  0  0
   47.3622    4.0635   19.8317 H   0  0  0  0  0  0  0  0  0  0  0  0
   49.5899    8.4116   18.7841 H   0  0  0  0  0  0  0  0  0  0  0  0
   49.4019    6.6623   17.0303 H   0  0  0  0  0  0  0  0  0  0  0  0
   45.9993    4.2632   17.2396 H   0  0  0  0  0  0  0  0  0  0  0  0
   46.6331    2.7195   16.5301 H   0  0  0  0  0  0  0  0  0  0  0  0
   47.4248    5.5782   15.6637 H   0  0  0  0  0  0  0  0  0  0  0  0
   48.0748    4.0368   14.9576 H   0  0  0  0  0  0  0  0  0  0  0  0
   50.6257    4.2563   18.2221 H   0  0  0  0  0  0  0  0  0  0  0  0
   50.9760    0.7540   16.9507 H   0  0  0  0  0  0  0  0  0  0  0  0
   53.0725   -0.4389   17.3463 H   0  0  0  0  0  0  0  0  0  0  0  0
   55.4013   -0.3602   17.9024 H   0  0  0  0  0  0  0  0  0  0  0  0
   55.3178    0.0277   19.6298 H   0  0  0  0  0  0  0  0  0  0  0  0
   56.1596    1.1127   18.4835 H   0  0  0  0  0  0  0  0  0  0  0  0
   56.4330    6.2646   19.6005 H   0  0  0  0  0  0  0  0  0  0  0  0
   54.8334    4.9297   18.2702 H   0  0  0  0  0  0  0  0  0  0  0  0
   54.8759    1.8583   21.2858 H   0  0  0  0  0  0  0  0  0  0  0  0
   57.2719    5.4110   21.7668 H   0  0  0  0  0  0  0  0  0  0  0  0
   56.6530    1.6802   24.1458 H   0  0  0  0  0  0  0  0  0  0  0  0
  1  2  1  0
  1  5  1  0
  2  3  1  0
  3  4  1  0
  2  6  1  0
  2  7  1  0
  8  5  1  0
  5  4  2  0
  4  9  1  0
  8 11  2  0
  9 10  2  0
 10 11  1  0
 11 12  1  0
 12 13  1  0
 13 14  1  0
 14 12  1  0
 12 15  1  0
 15 16  2  0
 15 17  1  0
 17 18  1  0
 19 18  2  0
 18 20  1  0
 19 23  1  0
 20 21  2  0
 21 22  1  0
 22 23  2  0
 22 24  1  0
 23 25  1  0
 27 25  1  0
 25 28  2  0
 26 27  2  0
 26 30  1  0
 28 29  1  0
 29 30  2  0
 29 31  1  0
 31 32  1  0
 31 33  2  0
  8 34  1  0
  9 35  1  0
 10 36  1  0
 13 37  1  0
 13 38  1  0
 14 39  1  0
 14 40  1  0
 17 41  1  0
 20 42  1  0
 21 43  1  0
 24 44  1  0
 24 45  1  0
 24 46  1  0
 26 47  1  0
 27 48  1  0
 28 49  1  0
 30 50  1  0
 32 51  1  0
M  END
> <Uni-Dock RESULT> 
ENERGY=   -4.368  LOWER_BOUND=    4.295  UPPER_BOUND=    8.365
INTER + INTRA:          -4.368
INTER:                  -4.368
INTRA:                   0.000
UNBOUND:                 0.000

$$$$

     RDKit          3D

 51 55  0  0  0  0  0  0  0  0999 V2000
   53.5693    5.5525    8.8398 O   0  0  0  0  0  0  0  0  0  0  0  0
   53.3132    6.2977    7.6402 C   0  0  0  0  0  0  0  0  0  0  0  0
   53.5857    7.7044    7.7337 O   0  0  0  0  0  0  0  0  0  0  0  0
   54.0036    7.7779    9.0253 C   0  0  0  0  0  0  0  0  0  0  0  0
   53.9960    6.5551    9.6546 C   0  0  0  0  0  0  0  0  0  0  0  0
   54.0687    5.7784    6.6407 F   0  0  0  0  0  0  0  0  0  0  0  0
   52.0109    6.1335    7.2987 F   0  0  0  0  0  0  0  0  0  0  0  0
   54.3903    6.4122   10.9703 C   0  0  0  0  0  0  0  0  0  0  0  0
   54.4039    8.9223    9.6764 C   0  0  0  0  0  0  0  0  0  0  0  0
   54.8117    8.8010   11.0099 C   0  0  0  0  0  0  0  0  0  0  0  0
   54.8169    7.5506   11.6843 C   0  0  0  0  0  0  0  0  0  0  0  0
   55.2528    7.4404   13.1528 C   0  0  0  0  0  0  0  0  0  0  0  0
   56.4968    6.5782   13.4101 C   0  0  0  0  0  0  0  0  0  0  0  0
   56.5968    8.0656   13.5416 C   0  0  0  0  0  0  0  0  0  0  0  0
   54.1676    7.4420   14.2338 C   0  0  0  0  0  0  0  0  0  0  0  0
   54.4156    6.9608   15.3349 O   0  0  0  0  0  0  0  0  0  0  0  0
   52.9844    8.0330   13.8649 N   0  0  0  0  0  0  0  0  0  0  0  0
   51.8181    8.1808   14.6143 C   0  0  0  0  0  0  0  0  0  0  0  0
   50.8257    8.7829   13.9283 N   0  0  0  0  0  0  0  0  0  0  0  0
   51.6648    7.7556   15.9220 C   0  0  0  0  0  0  0  0  0  0  0  0
   50.4418    7.9691   16.5538 C   0  0  0  0  0  0  0  0  0  0  0  0
   49.3967    8.6001   15.8719 C   0  0  0  0  0  0  0  0  0  0  0  0
   49.6256    8.9697   14.5405 C   0  0  0  0  0  0  0  0  0  0  0  0
   48.0931    8.8316   16.5780 C   0  0  0  0  0  0  0  0  0  0  0  0
   48.6126    9.5860   13.6672 C   0  0  0  0  0  0  0  0  0  0  0  0
   47.9240   11.4172   12.2048 C   0  0  0  0  0  0  0  0  0  0  0  0
   48.8608   10.8282   13.0575 C   0  0  0  0  0  0  0  0  0  0  0  0
   47.3985    8.9383   13.3792 C   0  0  0  0  0  0  0  0  0  0  0  0
   46.4535    9.5254   12.5251 C   0  0  0  0  0  0  0  0  0  0  0  0
   46.7215   10.7675   11.9386 C   0  0  0  0  0  0  0  0  0  0  0  0
   45.1666    8.8639   12.2063 C   0  0  0  0  0  0  0  0  0  0  0  0
   44.9849    7.7207   12.8914 O   0  0  0  0  0  0  0  0  0  0  0  0
   44.3270    9.2756   11.4283 O   0  0  0  0  0  0  0  0  0  0  0  0
   54.3742    5.4336   11.4432 H   0  0  0  0  0  0  0  0  0  0  0  0
   54.4073    9.8842    9.1723 H   0  0  0  0  0  0  0  0  0  0  0  0
   55.1369    9.6963   11.5394 H   0  0  0  0  0  0  0  0  0  0  0  0
   56.9989    6.1117   12.5692 H   0  0  0  0  0  0  0  0  0  0  0  0
   56.5361    5.9833   14.3177 H   0  0  0  0  0  0  0  0  0  0  0  0
   57.1774    8.5941   12.7937 H   0  0  0  0  0  0  0  0  0  0  0  0
   56.7008    8.4751   14.5418 H   0  0  0  0  0  0  0  0  0  0  0  0
   52.8782    8.4046   12.9310 H   0  0  0  0  0  0  0  0  0  0  0  0
   52.4602    7.2673   16.4718 H   0  0  0  0  0  0  0  0  0  0  0  0
   50.3161    7.6417   17.5843 H   0  0  0  0  0  0  0  0  0  0  0  0
   48.2267    8.8106   17.6659 H   0  0  0  0  0  0  0  0  0  0  0  0
   47.3702    8.0558   16.3102 H   0  0  0  0  0  0  0  0  0  0  0  0
   47.6823    9.8169   16.3344 H   0  0  0  0  0  0  0  0  0  0  0  0
   48.1386   12.3767   11.7405 H   0  0  0  0  0  0  0  0  0  0  0  0
   49.8044   11.3397   13.2439 H   0  0  0  0  0  0  0  0  0  0  0  0
   47.2010    7.9588   13.8101 H   0  0  0  0  0  0  0  0  0  0  0  0
   45.9981   11.2278   11.2683 H   0  0  0  0  0  0  0  0  0  0  0  0
   44.1069    7.4022   12.5911 H   0  0  0  0  0  0  0  0  0  0  0  0
  1  2  1  0
  1  5  1  0
  2  3  1  0
  3  4  1  0
  2  6  1  0
  2  7  1  0
  8  5  1  0
  5  4  2  0
  4  9  1  0
  8 11  2  0
  9 10  2  0
 10 11  1  0
 11 12  1  0
 12 13  1  0
 13 14  1  0
 14 12  1  0
 12 15  1  0
 15 16  2  0
 15 17  1  0
 17 18  1  0
 19 18  2  0
 18 20  1  0
 19 23  1  0
 20 21  2  0
 21 22  1  0
 22 23  2  0
 22 24  1  0
 23 25  1  0
 27 25  1  0
 25 28  2  0
 26 27  2  0
 26 30  1  0
 28 29  1  0
 29 30  2  0
 29 31  1  0
 31 32  1  0
 31 33  2  0
  8 34  1  0
  9 35  1  0
 10 36  1  0
 13 37  1  0
 13 38  1  0
 14 39  1  0
 14 40  1  0
 17 41  1  0
 20 42  1  0
 21 43  1  0
 24 44  1  0
 24 45  1  0
 24 46  1  0
 26 47  1  0
 27 48  1  0
 28 49  1  0
 30 50  1  0
 32 51  1  0
M  END
> <Uni-Dock RESULT> 
ENERGY=   -4.193  LOWER_BOUND=    7.187  UPPER_BOUND=   10.252
INTER + INTRA:          -4.193
INTER:                  -4.193
INTRA:                   0.000
UNBOUND:                 0.000

$$$$
