
     RDKit          3D

 51 55  0  0  0  0  0  0  0  0999 V2000
   48.0804    5.2805   19.8676 O   0  0  0  0  0  0  0  0  0  0  0  0
   47.7420    5.7124   21.1934 C   0  0  0  0  0  0  0  0  0  0  0  0
   47.9527    7.1080   21.4466 O   0  0  0  0  0  0  0  0  0  0  0  0
   48.4283    7.4978   20.2348 C   0  0  0  0  0  0  0  0  0  0  0  0
   48.5014    6.4596   19.3366 C   0  0  0  0  0  0  0  0  0  0  0  0
   48.4781    4.9973   22.0795 F   0  0  0  0  0  0  0  0  0  0  0  0
   46.4364    5.4248   21.4197 F   0  0  0  0  0  0  0  0  0  0  0  0
   48.9571    6.6417   18.0462 C   0  0  0  0  0  0  0  0  0  0  0  0
   48.8051    8.7746   19.8903 C   0  0  0  0  0  0  0  0  0  0  0  0
   49.2710    8.9824   18.5871 C   0  0  0  0  0  0  0  0  0  0  0  0
   49.3634    7.9278   17.6416 C   0  0  0  0  0  0  0  0  0  0  0  0
   49.8637    8.2012   16.2246 C   0  0  0  0  0  0  0  0  0  0  0  0
   50.9392    7.2905   15.6337 C   0  0  0  0  0  0  0  0  0  0  0  0
   51.3121    8.6677   16.0780 C   0  0  0  0  0  0  0  0  0  0  0  0
   48.8499    8.8082   15.2797 C   0  0  0  0  0  0  0  0  0  0  0  0
   48.7924   10.0241   15.1604 O   0  0  0  0  0  0  0  0  0  0  0  0
   48.0769    7.8685   14.6509 N   0  0  0  0  0  0  0  0  0  0  0  0
   47.0519    8.0665   13.7296 C   0  0  0  0  0  0  0  0  0  0  0  0
   46.4864    6.9166   13.3107 N   0  0  0  0  0  0  0  0  0  0  0  0
   46.6425    9.3063   13.2734 C   0  0  0  0  0  0  0  0  0  0  0  0
   45.5994    9.3672   12.3528 C   0  0  0  0  0  0  0  0  0  0  0  0
   44.9841    8.1934   11.9082 C   0  0  0  0  0  0  0  0  0  0  0  0
   45.4768    6.9799   12.4021 C   0  0  0  0  0  0  0  0  0  0  0  0
   43.8553    8.2769   10.9232 C   0  0  0  0  0  0  0  0  0  0  0  0
   44.9569    5.6625   12.0044 C   0  0  0  0  0  0  0  0  0  0  0  0
   43.8771    3.5567   12.6011 C   0  0  0  0  0  0  0  0  0  0  0  0
   44.3722    4.8124   12.9589 C   0  0  0  0  0  0  0  0  0  0  0  0
   45.0523    5.2078   10.6780 C   0  0  0  0  0  0  0  0  0  0  0  0
   44.5563    3.9484   10.3125 C   0  0  0  0  0  0  0  0  0  0  0  0
   43.9663    3.1260   11.2786 C   0  0  0  0  0  0  0  0  0  0  0  0
   44.6385    3.4460    8.9200 C   0  0  0  0  0  0  0  0  0  0  0  0
   45.1863    4.3369    8.0745 O   0  0  0  0  0  0  0  0  0  0  0  0
   44.2593    2.3572    8.5305 O   0  0  0  0  0  0  0  0  0  0  0  0
   48.9988    5.8001   17.3620 H   0  0  0  0  0  0  0  0  0  0  0  0
   48.7404    9.5931   20.5990 H   0  0  0  0  0  0  0  0  0  0  0  0
   49.5651    9.9886   18.2871 H   0  0  0  0  0  0  0  0  0  0  0  0
   51.3134    6.4599   16.2218 H   0  0  0  0  0  0  0  0  0  0  0  0
   50.9301    7.0967   14.5662 H   0  0  0  0  0  0  0  0  0  0  0  0
   51.9221    8.7663   16.9691 H   0  0  0  0  0  0  0  0  0  0  0  0
   51.5324    9.4105   15.3180 H   0  0  0  0  0  0  0  0  0  0  0  0
   48.2268    6.8919   14.8591 H   0  0  0  0  0  0  0  0  0  0  0  0
   47.1021   10.2282   13.6088 H   0  0  0  0  0  0  0  0  0  0  0  0
   45.2688   10.3388   11.9925 H   0  0  0  0  0  0  0  0  0  0  0  0
   43.4239    9.2837   10.9020 H   0  0  0  0  0  0  0  0  0  0  0  0
   44.2114    8.0409    9.9158 H   0  0  0  0  0  0  0  0  0  0  0  0
   43.0445    7.5932   11.1947 H   0  0  0  0  0  0  0  0  0  0  0  0
   43.4270    2.9149   13.3546 H   0  0  0  0  0  0  0  0  0  0  0  0
   44.3051    5.1347   13.9973 H   0  0  0  0  0  0  0  0  0  0  0  0
   45.5300    5.8389    9.9312 H   0  0  0  0  0  0  0  0  0  0  0  0
   43.5809    2.1456   11.0053 H   0  0  0  0  0  0  0  0  0  0  0  0
   45.1784    3.8740    7.2103 H   0  0  0  0  0  0  0  0  0  0  0  0
  1  2  1  0
  1  5  1  0
  2  3  1  0
  3  4  1  0
  2  6  1  0
  2  7  1  0
  8  5  1  0
  5  4  2  0
  4  9  1  0
  8 11  2  0
  9 10  2  0
 10 11  1  0
 11 12  1  0
 12 13  1  0
 13 14  1  0
 14 12  1  0
 12 15  1  0
 15 16  2  0
 15 17  1  0
 17 18  1  0
 19 18  2  0
 18 20  1  0
 19 23  1  0
 20 21  2  0
 21 22  1  0
 22 23  2  0
 22 24  1  0
 23 25  1  0
 27 25  1  0
 25 28  2  0
 26 27  2  0
 26 30  1  0
 28 29  1  0
 29 30  2  0
 29 31  1  0
 31 32  1  0
 31 33  2  0
  8 34  1  0
  9 35  1  0
 10 36  1  0
 13 37  1  0
 13 38  1  0
 14 39  1  0
 14 40  1  0
 17 41  1  0
 20 42  1  0
 21 43  1  0
 24 44  1  0
 24 45  1  0
 24 46  1  0
 26 47  1  0
 27 48  1  0
 28 49  1  0
 30 50  1  0
 32 51  1  0
M  END
> <Uni-Dock RESULT> 
ENERGY=   -5.940  LOWER_BOUND=    0.000  UPPER_BOUND=    0.000
INTER + INTRA:          -5.940
INTER:                  -5.940
INTRA:                   0.000
UNBOUND:                 0.000

$$$$

     RDKit          3D

 51 55  0  0  0  0  0  0  0  0999 V2000
   53.6156    5.8644   17.4954 O   0  0  0  0  0  0  0  0  0  0  0  0
   54.7919    5.0450   17.4363 C   0  0  0  0  0  0  0  0  0  0  0  0
   54.5545    3.6368   17.5663 O   0  0  0  0  0  0  0  0  0  0  0  0
   53.2029    3.6379   17.7063 C   0  0  0  0  0  0  0  0  0  0  0  0
   52.6683    4.9038   17.6664 C   0  0  0  0  0  0  0  0  0  0  0  0
   55.6362    5.4330   18.4237 F   0  0  0  0  0  0  0  0  0  0  0  0
   55.4147    5.2705   16.2532 F   0  0  0  0  0  0  0  0  0  0  0  0
   51.3114    5.1272   17.7887 C   0  0  0  0  0  0  0  0  0  0  0  0
   52.4092    2.5268   17.8688 C   0  0  0  0  0  0  0  0  0  0  0  0
   51.0303    2.7296   17.9955 C   0  0  0  0  0  0  0  0  0  0  0  0
   50.4521    4.0256   17.9647 C   0  0  0  0  0  0  0  0  0  0  0  0
   48.9402    4.2011   18.0920 C   0  0  0  0  0  0  0  0  0  0  0  0
   48.3981    5.2316   19.0817 C   0  0  0  0  0  0  0  0  0  0  0  0
   48.3014    3.7781   19.4149 C   0  0  0  0  0  0  0  0  0  0  0  0
   48.1439    3.9391   16.8326 C   0  0  0  0  0  0  0  0  0  0  0  0
   47.6850    2.8230   16.6331 O   0  0  0  0  0  0  0  0  0  0  0  0
   48.0406    5.0422   16.0272 N   0  0  0  0  0  0  0  0  0  0  0  0
   47.3912    5.1613   14.8015 C   0  0  0  0  0  0  0  0  0  0  0  0
   47.4918    6.3946   14.2661 N   0  0  0  0  0  0  0  0  0  0  0  0
   46.7035    4.1345   14.1806 C   0  0  0  0  0  0  0  0  0  0  0  0
   46.1002    4.3840   12.9504 C   0  0  0  0  0  0  0  0  0  0  0  0
   46.1968    5.6488   12.3631 C   0  0  0  0  0  0  0  0  0  0  0  0
   46.8905    6.6373   13.0709 C   0  0  0  0  0  0  0  0  0  0  0  0
   45.5492    5.8985   11.0328 C   0  0  0  0  0  0  0  0  0  0  0  0
   47.0492    8.0221   12.6006 C   0  0  0  0  0  0  0  0  0  0  0  0
   48.4999    9.8539   11.8959 C   0  0  0  0  0  0  0  0  0  0  0  0
   48.3291    8.5406   12.3387 C   0  0  0  0  0  0  0  0  0  0  0  0
   45.9402    8.8678   12.4266 C   0  0  0  0  0  0  0  0  0  0  0  0
   46.1052   10.1870   11.9814 C   0  0  0  0  0  0  0  0  0  0  0  0
   47.3889   10.6756   11.7145 C   0  0  0  0  0  0  0  0  0  0  0  0
   44.9530   11.0989   11.7837 C   0  0  0  0  0  0  0  0  0  0  0  0
   43.7706   10.5082   12.0315 O   0  0  0  0  0  0  0  0  0  0  0  0
   45.0156   12.2616   11.4297 O   0  0  0  0  0  0  0  0  0  0  0  0
   50.9228    6.1399   17.7496 H   0  0  0  0  0  0  0  0  0  0  0  0
   52.8330    1.5288   17.8936 H   0  0  0  0  0  0  0  0  0  0  0  0
   50.3792    1.8630   18.1142 H   0  0  0  0  0  0  0  0  0  0  0  0
   49.0937    5.8293   19.6602 H   0  0  0  0  0  0  0  0  0  0  0  0
   47.4757    5.7503   18.8421 H   0  0  0  0  0  0  0  0  0  0  0  0
   48.9387    3.3943   20.2038 H   0  0  0  0  0  0  0  0  0  0  0  0
   47.3243    3.3071   19.3798 H   0  0  0  0  0  0  0  0  0  0  0  0
   48.4867    5.9015   16.3141 H   0  0  0  0  0  0  0  0  0  0  0  0
   46.6209    3.1459   14.6156 H   0  0  0  0  0  0  0  0  0  0  0  0
   45.5612    3.5803   12.4538 H   0  0  0  0  0  0  0  0  0  0  0  0
   45.3370    4.9569   10.5145 H   0  0  0  0  0  0  0  0  0  0  0  0
   44.6029    6.4319   11.1647 H   0  0  0  0  0  0  0  0  0  0  0  0
   46.2075    6.4771   10.3769 H   0  0  0  0  0  0  0  0  0  0  0  0
   49.4986   10.2352   11.6974 H   0  0  0  0  0  0  0  0  0  0  0  0
   49.2054    7.9104   12.4855 H   0  0  0  0  0  0  0  0  0  0  0  0
   44.9439    8.4940   12.6543 H   0  0  0  0  0  0  0  0  0  0  0  0
   47.5275   11.6991   11.3712 H   0  0  0  0  0  0  0  0  0  0  0  0
   43.1155   11.2187   11.8662 H   0  0  0  0  0  0  0  0  0  0  0  0
  1  2  1  0
  1  5  1  0
  2  3  1  0
  3  4  1  0
  2  6  1  0
  2  7  1  0
  8  5  1  0
  5  4  2  0
  4  9  1  0
  8 11  2  0
  9 10  2  0
 10 11  1  0
 11 12  1  0
 12 13  1  0
 13 14  1  0
 14 12  1  0
 12 15  1  0
 15 16  2  0
 15 17  1  0
 17 18  1  0
 19 18  2  0
 18 20  1  0
 19 23  1  0
 20 21  2  0
 21 22  1  0
 22 23  2  0
 22 24  1  0
 23 25  1  0
 27 25  1  0
 25 28  2  0
 26 27  2  0
 26 30  1  0
 28 29  1  0
 29 30  2  0
 29 31  1  0
 31 32  1  0
 31 33  2  0
  8 34  1  0
  9 35  1  0
 10 36  1  0
 13 37  1  0
 13 38  1  0
 14 39  1  0
 14 40  1  0
 17 41  1  0
 20 42  1  0
 21 43  1  0
 24 44  1  0
 24 45  1  0
 24 46  1  0
 26 47  1  0
 27 48  1  0
 28 49  1  0
 30 50  1  0
 32 51  1  0
M  END
> <Uni-Dock RESULT> 
ENERGY=   -5.707  LOWER_BOUND=    4.052  UPPER_BOUND=    6.174
INTER + INTRA:          -5.707
INTER:                  -5.707
INTRA:                   0.000
UNBOUND:                 0.000

$$$$

     RDKit          3D

 51 55  0  0  0  0  0  0  0  0999 V2000
   44.8041   10.7005   12.0637 O   0  0  0  0  0  0  0  0  0  0  0  0
   43.6585   10.2539   11.3242 C   0  0  0  0  0  0  0  0  0  0  0  0
   43.6296    8.8475   11.0459 O   0  0  0  0  0  0  0  0  0  0  0  0
   44.7914    8.4664   11.6388 C   0  0  0  0  0  0  0  0  0  0  0  0
   45.4599    9.5191   12.2175 C   0  0  0  0  0  0  0  0  0  0  0  0
   43.6168   10.9272   10.1480 F   0  0  0  0  0  0  0  0  0  0  0  0
   42.5422   10.5791   12.0217 F   0  0  0  0  0  0  0  0  0  0  0  0
   46.6619    9.3478   12.8745 C   0  0  0  0  0  0  0  0  0  0  0  0
   45.2882    7.1850   11.6876 C   0  0  0  0  0  0  0  0  0  0  0  0
   46.5061    6.9880   12.3482 C   0  0  0  0  0  0  0  0  0  0  0  0
   47.2208    8.0574   12.9484 C   0  0  0  0  0  0  0  0  0  0  0  0
   48.5399    7.7958   13.6725 C   0  0  0  0  0  0  0  0  0  0  0  0
   49.7435    8.6826   13.3558 C   0  0  0  0  0  0  0  0  0  0  0  0
   49.7066    7.2856   12.8266 C   0  0  0  0  0  0  0  0  0  0  0  0
   48.4165    7.2406   15.0745 C   0  0  0  0  0  0  0  0  0  0  0  0
   48.4409    6.0298   15.2455 O   0  0  0  0  0  0  0  0  0  0  0  0
   48.2760    8.2170   16.0247 N   0  0  0  0  0  0  0  0  0  0  0  0
   48.1330    8.0704   17.4019 C   0  0  0  0  0  0  0  0  0  0  0  0
   48.0076    9.2461   18.0498 N   0  0  0  0  0  0  0  0  0  0  0  0
   48.1225    6.8537   18.0594 C   0  0  0  0  0  0  0  0  0  0  0  0
   47.9670    6.8448   19.4433 C   0  0  0  0  0  0  0  0  0  0  0  0
   47.8222    8.0464   20.1428 C   0  0  0  0  0  0  0  0  0  0  0  0
   47.8687    9.2334   19.4023 C   0  0  0  0  0  0  0  0  0  0  0  0
   47.6461    8.0188   21.6326 C   0  0  0  0  0  0  0  0  0  0  0  0
   47.7647   10.5744   19.9979 C   0  0  0  0  0  0  0  0  0  0  0  0
   46.5868   12.7020   20.2036 C   0  0  0  0  0  0  0  0  0  0  0  0
   46.6998   11.4241   19.6521 C   0  0  0  0  0  0  0  0  0  0  0  0
   48.7310   11.0518   20.9000 C   0  0  0  0  0  0  0  0  0  0  0  0
   48.6224   12.3336   21.4578 C   0  0  0  0  0  0  0  0  0  0  0  0
   47.5455   13.1554   21.1078 C   0  0  0  0  0  0  0  0  0  0  0  0
   49.6237   12.8602   22.4160 C   0  0  0  0  0  0  0  0  0  0  0  0
   50.5876   11.9689   22.7073 O   0  0  0  0  0  0  0  0  0  0  0  0
   49.6160   13.9682   22.9193 O   0  0  0  0  0  0  0  0  0  0  0  0
   47.1613   10.2008   13.3228 H   0  0  0  0  0  0  0  0  0  0  0  0
   44.7555    6.3553   11.2357 H   0  0  0  0  0  0  0  0  0  0  0  0
   46.9146    5.9788   12.4097 H   0  0  0  0  0  0  0  0  0  0  0  0
   49.6349    9.4890   12.6391 H   0  0  0  0  0  0  0  0  0  0  0  0
   50.4556    8.8975   14.1458 H   0  0  0  0  0  0  0  0  0  0  0  0
   49.5593    7.1499   11.7609 H   0  0  0  0  0  0  0  0  0  0  0  0
   50.3721    6.5512   13.2688 H   0  0  0  0  0  0  0  0  0  0  0  0
   48.2579    9.1840   15.7344 H   0  0  0  0  0  0  0  0  0  0  0  0
   48.2279    5.9110   17.5362 H   0  0  0  0  0  0  0  0  0  0  0  0
   47.9533    5.8916   19.9672 H   0  0  0  0  0  0  0  0  0  0  0  0
   47.3299    7.0271   21.9742 H   0  0  0  0  0  0  0  0  0  0  0  0
   48.5889    8.2629   22.1315 H   0  0  0  0  0  0  0  0  0  0  0  0
   46.8704    8.7229   21.9505 H   0  0  0  0  0  0  0  0  0  0  0  0
   45.7543   13.3431   19.9240 H   0  0  0  0  0  0  0  0  0  0  0  0
   45.9495   11.0838   18.9395 H   0  0  0  0  0  0  0  0  0  0  0  0
   49.5795   10.4203   21.1558 H   0  0  0  0  0  0  0  0  0  0  0  0
   47.4539   14.1531   21.5333 H   0  0  0  0  0  0  0  0  0  0  0  0
   51.1670   12.4487   23.3360 H   0  0  0  0  0  0  0  0  0  0  0  0
  1  2  1  0
  1  5  1  0
  2  3  1  0
  3  4  1  0
  2  6  1  0
  2  7  1  0
  8  5  1  0
  5  4  2  0
  4  9  1  0
  8 11  2  0
  9 10  2  0
 10 11  1  0
 11 12  1  0
 12 13  1  0
 13 14  1  0
 14 12  1  0
 12 15  1  0
 15 16  2  0
 15 17  1  0
 17 18  1  0
 19 18  2  0
 18 20  1  0
 19 23  1  0
 20 21  2  0
 21 22  1  0
 22 23  2  0
 22 24  1  0
 23 25  1  0
 27 25  1  0
 25 28  2  0
 26 27  2  0
 26 30  1  0
 28 29  1  0
 29 30  2  0
 29 31  1  0
 31 32  1  0
 31 33  2  0
  8 34  1  0
  9 35  1  0
 10 36  1  0
 13 37  1  0
 13 38  1  0
 14 39  1  0
 14 40  1  0
 17 41  1  0
 20 42  1  0
 21 43  1  0
 24 44  1  0
 24 45  1  0
 24 46  1  0
 26 47  1  0
 27 48  1  0
 28 49  1  0
 30 50  1  0
 32 51  1  0
M  END
> <Uni-Dock RESULT> 
ENERGY=   -5.597  LOWER_BOUND=    4.281  UPPER_BOUND=   10.133
INTER + INTRA:          -5.597
INTER:                  -5.597
INTRA:                   0.000
UNBOUND:                 0.000

$$$$

     RDKit          3D

 51 55  0  0  0  0  0  0  0  0999 V2000
   47.1654    4.6475    7.5279 O   0  0  0  0  0  0  0  0  0  0  0  0
   46.8369    3.5423    6.6737 C   0  0  0  0  0  0  0  0  0  0  0  0
   45.6727    2.8019    7.0643 O   0  0  0  0  0  0  0  0  0  0  0  0
   45.3154    3.4950    8.1772 C   0  0  0  0  0  0  0  0  0  0  0  0
   46.1635    4.5441    8.4417 C   0  0  0  0  0  0  0  0  0  0  0  0
   47.8954    2.6955    6.6401 F   0  0  0  0  0  0  0  0  0  0  0  0
   46.6483    4.0118    5.4158 F   0  0  0  0  0  0  0  0  0  0  0  0
   45.9779    5.3769    9.5270 C   0  0  0  0  0  0  0  0  0  0  0  0
   44.2347    3.2232    8.9829 C   0  0  0  0  0  0  0  0  0  0  0  0
   44.0274    4.0544   10.0895 C   0  0  0  0  0  0  0  0  0  0  0  0
   44.8908    5.1401   10.3902 C   0  0  0  0  0  0  0  0  0  0  0  0
   44.6196    6.0317   11.6003 C   0  0  0  0  0  0  0  0  0  0  0  0
   45.7682    6.3436   12.5587 C   0  0  0  0  0  0  0  0  0  0  0  0
   44.7089    5.3768   12.9787 C   0  0  0  0  0  0  0  0  0  0  0  0
   43.5484    7.0831   11.4099 C   0  0  0  0  0  0  0  0  0  0  0  0
   42.3949    6.8303   11.7283 O   0  0  0  0  0  0  0  0  0  0  0  0
   44.0309    8.2444   10.8669 N   0  0  0  0  0  0  0  0  0  0  0  0
   43.3340    9.4081   10.5530 C   0  0  0  0  0  0  0  0  0  0  0  0
   44.1170   10.3669   10.0189 N   0  0  0  0  0  0  0  0  0  0  0  0
   41.9787    9.5859   10.7632 C   0  0  0  0  0  0  0  0  0  0  0  0
   41.4009   10.7998   10.3998 C   0  0  0  0  0  0  0  0  0  0  0  0
   42.1835   11.8095    9.8323 C   0  0  0  0  0  0  0  0  0  0  0  0
   43.5512   11.5552    9.6773 C   0  0  0  0  0  0  0  0  0  0  0  0
   41.5437   13.1081    9.4376 C   0  0  0  0  0  0  0  0  0  0  0  0
   44.5078   12.5284    9.1278 C   0  0  0  0  0  0  0  0  0  0  0  0
   46.1241   13.1529    7.4091 C   0  0  0  0  0  0  0  0  0  0  0  0
   45.2089   12.2435    7.9435 C   0  0  0  0  0  0  0  0  0  0  0  0
   44.7668   13.7474    9.7776 C   0  0  0  0  0  0  0  0  0  0  0  0
   45.6838   14.6649    9.2455 C   0  0  0  0  0  0  0  0  0  0  0  0
   46.3593   14.3638    8.0578 C   0  0  0  0  0  0  0  0  0  0  0  0
   45.9719   15.9602    9.9067 C   0  0  0  0  0  0  0  0  0  0  0  0
   45.2356   16.1566   11.0148 O   0  0  0  0  0  0  0  0  0  0  0  0
   46.7724   16.7937    9.5253 O   0  0  0  0  0  0  0  0  0  0  0  0
   46.6652    6.1980    9.7044 H   0  0  0  0  0  0  0  0  0  0  0  0
   43.5636    2.3987    8.7683 H   0  0  0  0  0  0  0  0  0  0  0  0
   43.1704    3.8655   10.7369 H   0  0  0  0  0  0  0  0  0  0  0  0
   46.7545    5.9426   12.3538 H   0  0  0  0  0  0  0  0  0  0  0  0
   45.7868    7.3086   13.0544 H   0  0  0  0  0  0  0  0  0  0  0  0
   44.9752    4.3276   13.0425 H   0  0  0  0  0  0  0  0  0  0  0  0
   43.9990    5.6904   13.7374 H   0  0  0  0  0  0  0  0  0  0  0  0
   45.0124    8.3073   10.6380 H   0  0  0  0  0  0  0  0  0  0  0  0
   41.3532    8.8149   11.1967 H   0  0  0  0  0  0  0  0  0  0  0  0
   40.3347   10.9456   10.5580 H   0  0  0  0  0  0  0  0  0  0  0  0
   40.4572   13.0010    9.3470 H   0  0  0  0  0  0  0  0  0  0  0  0
   41.7456   13.8758   10.1907 H   0  0  0  0  0  0  0  0  0  0  0  0
   41.9087   13.4464    8.4625 H   0  0  0  0  0  0  0  0  0  0  0  0
   46.6550   12.9138    6.4908 H   0  0  0  0  0  0  0  0  0  0  0  0
   45.0399   11.2963    7.4326 H   0  0  0  0  0  0  0  0  0  0  0  0
   44.2569   13.9720   10.7124 H   0  0  0  0  0  0  0  0  0  0  0  0
   47.0750   15.0683    7.6383 H   0  0  0  0  0  0  0  0  0  0  0  0
   45.5310   17.0334   11.3391 H   0  0  0  0  0  0  0  0  0  0  0  0
  1  2  1  0
  1  5  1  0
  2  3  1  0
  3  4  1  0
  2  6  1  0
  2  7  1  0
  8  5  1  0
  5  4  2  0
  4  9  1  0
  8 11  2  0
  9 10  2  0
 10 11  1  0
 11 12  1  0
 12 13  1  0
 13 14  1  0
 14 12  1  0
 12 15  1  0
 15 16  2  0
 15 17  1  0
 17 18  1  0
 19 18  2  0
 18 20  1  0
 19 23  1  0
 20 21  2  0
 21 22  1  0
 22 23  2  0
 22 24  1  0
 23 25  1  0
 27 25  1  0
 25 28  2  0
 26 27  2  0
 26 30  1  0
 28 29  1  0
 29 30  2  0
 29 31  1  0
 31 32  1  0
 31 33  2  0
  8 34  1  0
  9 35  1  0
 10 36  1  0
 13 37  1  0
 13 38  1  0
 14 39  1  0
 14 40  1  0
 17 41  1  0
 20 42  1  0
 21 43  1  0
 24 44  1  0
 24 45  1  0
 24 46  1  0
 26 47  1  0
 27 48  1  0
 28 49  1  0
 30 50  1  0
 32 51  1  0
M  END
> <Uni-Dock RESULT> 
ENERGY=   -5.577  LOWER_BOUND=    6.508  UPPER_BOUND=   10.248
INTER + INTRA:          -5.577
INTER:                  -5.577
INTRA:                   0.000
UNBOUND:                 0.000

$$$$

     RDKit          3D

 51 55  0  0  0  0  0  0  0  0999 V2000
   55.1189    3.3328   11.6034 O   0  0  0  0  0  0  0  0  0  0  0  0
   56.3799    3.2690   12.2850 C   0  0  0  0  0  0  0  0  0  0  0  0
   57.1388    4.4856   12.2668 O   0  0  0  0  0  0  0  0  0  0  0  0
   56.2962    5.2780   11.5535 C   0  0  0  0  0  0  0  0  0  0  0  0
   55.1478    4.6235   11.1758 C   0  0  0  0  0  0  0  0  0  0  0  0
   57.1250    2.2874   11.7197 F   0  0  0  0  0  0  0  0  0  0  0  0
   56.1544    2.9199   13.5756 F   0  0  0  0  0  0  0  0  0  0  0  0
   54.1582    5.2492   10.4444 C   0  0  0  0  0  0  0  0  0  0  0  0
   56.5160    6.5942   11.2219 C   0  0  0  0  0  0  0  0  0  0  0  0
   55.5262    7.2485   10.4799 C   0  0  0  0  0  0  0  0  0  0  0  0
   54.3342    6.5954   10.0707 C   0  0  0  0  0  0  0  0  0  0  0  0
   53.2726    7.3512    9.2742 C   0  0  0  0  0  0  0  0  0  0  0  0
   52.7007    6.7077    8.0116 C   0  0  0  0  0  0  0  0  0  0  0  0
   53.6676    7.8397    7.8805 C   0  0  0  0  0  0  0  0  0  0  0  0
   52.3668    8.2525   10.0843 C   0  0  0  0  0  0  0  0  0  0  0  0
   52.6591    9.4323   10.2208 O   0  0  0  0  0  0  0  0  0  0  0  0
   51.2804    7.5951   10.5978 N   0  0  0  0  0  0  0  0  0  0  0  0
   50.2536    8.1053   11.3876 C   0  0  0  0  0  0  0  0  0  0  0  0
   49.3383    7.1771   11.7315 N   0  0  0  0  0  0  0  0  0  0  0  0
   50.1597    9.4263   11.7863 C   0  0  0  0  0  0  0  0  0  0  0  0
   49.0819    9.8079   12.5815 C   0  0  0  0  0  0  0  0  0  0  0  0
   48.1226    8.8665   12.9653 C   0  0  0  0  0  0  0  0  0  0  0  0
   48.2809    7.5568   12.4973 C   0  0  0  0  0  0  0  0  0  0  0  0
   46.9726    9.2920   13.8301 C   0  0  0  0  0  0  0  0  0  0  0  0
   47.3392    6.4644   12.7871 C   0  0  0  0  0  0  0  0  0  0  0  0
   46.8859    4.2834   13.7841 C   0  0  0  0  0  0  0  0  0  0  0  0
   47.7641    5.3322   13.5033 C   0  0  0  0  0  0  0  0  0  0  0  0
   46.0080    6.5070   12.3382 C   0  0  0  0  0  0  0  0  0  0  0  0
   45.1213    5.4575   12.6178 C   0  0  0  0  0  0  0  0  0  0  0  0
   45.5649    4.3470   13.3444 C   0  0  0  0  0  0  0  0  0  0  0  0
   43.7108    5.4788   12.1617 C   0  0  0  0  0  0  0  0  0  0  0  0
   43.3890    6.6107   11.5108 O   0  0  0  0  0  0  0  0  0  0  0  0
   42.8904    4.5974   12.3379 O   0  0  0  0  0  0  0  0  0  0  0  0
   53.2625    4.7032   10.1655 H   0  0  0  0  0  0  0  0  0  0  0  0
   57.4202    7.1100   11.5266 H   0  0  0  0  0  0  0  0  0  0  0  0
   55.6729    8.2959   10.2144 H   0  0  0  0  0  0  0  0  0  0  0  0
   53.0446    5.7231    7.7150 H   0  0  0  0  0  0  0  0  0  0  0  0
   51.6663    6.9031    7.7489 H   0  0  0  0  0  0  0  0  0  0  0  0
   54.6627    7.6175    7.5115 H   0  0  0  0  0  0  0  0  0  0  0  0
   53.2893    8.8028    7.5533 H   0  0  0  0  0  0  0  0  0  0  0  0
   51.1738    6.6078   10.4146 H   0  0  0  0  0  0  0  0  0  0  0  0
   50.8946   10.1706   11.5046 H   0  0  0  0  0  0  0  0  0  0  0  0
   49.0034   10.8442   12.9028 H   0  0  0  0  0  0  0  0  0  0  0  0
   47.1872   10.2415   14.3326 H   0  0  0  0  0  0  0  0  0  0  0  0
   46.0711    9.4267   13.2247 H   0  0  0  0  0  0  0  0  0  0  0  0
   46.7787    8.5564   14.6173 H   0  0  0  0  0  0  0  0  0  0  0  0
   47.2343    3.4169   14.3410 H   0  0  0  0  0  0  0  0  0  0  0  0
   48.7966    5.2673   13.8442 H   0  0  0  0  0  0  0  0  0  0  0  0
   45.6691    7.3611   11.7552 H   0  0  0  0  0  0  0  0  0  0  0  0
   44.8850    3.5261   13.5640 H   0  0  0  0  0  0  0  0  0  0  0  0
   42.4470    6.4825   11.2712 H   0  0  0  0  0  0  0  0  0  0  0  0
  1  2  1  0
  1  5  1  0
  2  3  1  0
  3  4  1  0
  2  6  1  0
  2  7  1  0
  8  5  1  0
  5  4  2  0
  4  9  1  0
  8 11  2  0
  9 10  2  0
 10 11  1  0
 11 12  1  0
 12 13  1  0
 13 14  1  0
 14 12  1  0
 12 15  1  0
 15 16  2  0
 15 17  1  0
 17 18  1  0
 19 18  2  0
 18 20  1  0
 19 23  1  0
 20 21  2  0
 21 22  1  0
 22 23  2  0
 22 24  1  0
 23 25  1  0
 27 25  1  0
 25 28  2  0
 26 27  2  0
 26 30  1  0
 28 29  1  0
 29 30  2  0
 29 31  1  0
 31 32  1  0
 31 33  2  0
  8 34  1  0
  9 35  1  0
 10 36  1  0
 13 37  1  0
 13 38  1  0
 14 39  1  0
 14 40  1  0
 17 41  1  0
 20 42  1  0
 21 43  1  0
 24 44  1  0
 24 45  1  0
 24 46  1  0
 26 47  1  0
 27 48  1  0
 28 49  1  0
 30 50  1  0
 32 51  1  0
M  END
> <Uni-Dock RESULT> 
ENERGY=   -5.446  LOWER_BOUND=    6.176  UPPER_BOUND=    7.757
INTER + INTRA:          -5.446
INTER:                  -5.446
INTRA:                   0.000
UNBOUND:                 0.000

$$$$

     RDKit          3D

 51 55  0  0  0  0  0  0  0  0999 V2000
   47.3607    7.0354   13.7422 O   0  0  0  0  0  0  0  0  0  0  0  0
   46.3774    6.4136   12.9025 C   0  0  0  0  0  0  0  0  0  0  0  0
   46.0787    5.0498   13.2296 O   0  0  0  0  0  0  0  0  0  0  0  0
   46.9127    4.8735   14.2879 C   0  0  0  0  0  0  0  0  0  0  0  0
   47.6420    6.0017   14.5799 C   0  0  0  0  0  0  0  0  0  0  0  0
   46.8138    6.4638   11.6197 F   0  0  0  0  0  0  0  0  0  0  0  0
   45.2319    7.1355   12.9736 F   0  0  0  0  0  0  0  0  0  0  0  0
   48.5482    6.0358   15.6209 C   0  0  0  0  0  0  0  0  0  0  0  0
   47.0488    3.7191   15.0225 C   0  0  0  0  0  0  0  0  0  0  0  0
   47.9625    3.7306   16.0824 C   0  0  0  0  0  0  0  0  0  0  0  0
   48.7334    4.8788   16.4019 C   0  0  0  0  0  0  0  0  0  0  0  0
   49.7090    4.8530   17.5768 C   0  0  0  0  0  0  0  0  0  0  0  0
   51.1328    5.3656   17.3646 C   0  0  0  0  0  0  0  0  0  0  0  0
   50.8952    3.8942   17.4730 C   0  0  0  0  0  0  0  0  0  0  0  0
   49.0880    5.0281   18.9453 C   0  0  0  0  0  0  0  0  0  0  0  0
   48.7685    4.0397   19.5911 O   0  0  0  0  0  0  0  0  0  0  0  0
   48.9460    6.3427   19.3027 N   0  0  0  0  0  0  0  0  0  0  0  0
   48.4134    6.8678   20.4771 C   0  0  0  0  0  0  0  0  0  0  0  0
   48.4141    8.2157   20.5030 N   0  0  0  0  0  0  0  0  0  0  0  0
   47.9318    6.1037   21.5245 C   0  0  0  0  0  0  0  0  0  0  0  0
   47.4197    6.7543   22.6443 C   0  0  0  0  0  0  0  0  0  0  0  0
   47.3950    8.1510   22.6965 C   0  0  0  0  0  0  0  0  0  0  0  0
   47.9249    8.8468   21.6035 C   0  0  0  0  0  0  0  0  0  0  0  0
   46.8312    8.8365   23.9063 C   0  0  0  0  0  0  0  0  0  0  0  0
   47.9999   10.3138   21.5253 C   0  0  0  0  0  0  0  0  0  0  0  0
   47.3688   12.3993   20.4258 C   0  0  0  0  0  0  0  0  0  0  0  0
   47.3061   11.0074   20.5188 C   0  0  0  0  0  0  0  0  0  0  0  0
   48.7806   11.0562   22.4279 C   0  0  0  0  0  0  0  0  0  0  0  0
   48.8467   12.4539   22.3402 C   0  0  0  0  0  0  0  0  0  0  0  0
   48.1360   13.1223   21.3374 C   0  0  0  0  0  0  0  0  0  0  0  0
   49.6574   13.2622   23.2824 C   0  0  0  0  0  0  0  0  0  0  0  0
   50.2612   12.5167   24.2249 O   0  0  0  0  0  0  0  0  0  0  0  0
   49.7893   14.4717   23.2543 O   0  0  0  0  0  0  0  0  0  0  0  0
   49.1052    6.9446   15.8255 H   0  0  0  0  0  0  0  0  0  0  0  0
   46.4676    2.8324   14.7938 H   0  0  0  0  0  0  0  0  0  0  0  0
   48.0798    2.8303   16.6864 H   0  0  0  0  0  0  0  0  0  0  0  0
   51.4183    5.7530   16.3929 H   0  0  0  0  0  0  0  0  0  0  0  0
   51.6416    5.8504   18.1913 H   0  0  0  0  0  0  0  0  0  0  0  0
   51.0054    3.2945   16.5763 H   0  0  0  0  0  0  0  0  0  0  0  0
   51.2192    3.3869   18.3760 H   0  0  0  0  0  0  0  0  0  0  0  0
   49.2428    7.0605   18.6575 H   0  0  0  0  0  0  0  0  0  0  0  0
   47.9367    5.0207   21.5023 H   0  0  0  0  0  0  0  0  0  0  0  0
   47.0350    6.1604   23.4703 H   0  0  0  0  0  0  0  0  0  0  0  0
   46.2028    8.1542   24.4892 H   0  0  0  0  0  0  0  0  0  0  0  0
   47.6391    9.1886   24.5549 H   0  0  0  0  0  0  0  0  0  0  0  0
   46.1965    9.6813   23.6201 H   0  0  0  0  0  0  0  0  0  0  0  0
   46.8232   12.9168   19.6405 H   0  0  0  0  0  0  0  0  0  0  0  0
   46.7105   10.4521   19.7952 H   0  0  0  0  0  0  0  0  0  0  0  0
   49.3498   10.5344   23.1947 H   0  0  0  0  0  0  0  0  0  0  0  0
   48.1832   14.2069   21.2594 H   0  0  0  0  0  0  0  0  0  0  0  0
   50.7536   13.1730   24.7616 H   0  0  0  0  0  0  0  0  0  0  0  0
  1  2  1  0
  1  5  1  0
  2  3  1  0
  3  4  1  0
  2  6  1  0
  2  7  1  0
  8  5  1  0
  5  4  2  0
  4  9  1  0
  8 11  2  0
  9 10  2  0
 10 11  1  0
 11 12  1  0
 12 13  1  0
 13 14  1  0
 14 12  1  0
 12 15  1  0
 15 16  2  0
 15 17  1  0
 17 18  1  0
 19 18  2  0
 18 20  1  0
 19 23  1  0
 20 21  2  0
 21 22  1  0
 22 23  2  0
 22 24  1  0
 23 25  1  0
 27 25  1  0
 25 28  2  0
 26 27  2  0
 26 30  1  0
 28 29  1  0
 29 30  2  0
 29 31  1  0
 31 32  1  0
 31 33  2  0
  8 34  1  0
  9 35  1  0
 10 36  1  0
 13 37  1  0
 13 38  1  0
 14 39  1  0
 14 40  1  0
 17 41  1  0
 20 42  1  0
 21 43  1  0
 24 44  1  0
 24 45  1  0
 24 46  1  0
 26 47  1  0
 27 48  1  0
 28 49  1  0
 30 50  1  0
 32 51  1  0
M  END
> <Uni-Dock RESULT> 
ENERGY=   -5.299  LOWER_BOUND=    4.276  UPPER_BOUND=   10.288
INTER + INTRA:          -5.299
INTER:                  -5.299
INTRA:                   0.000
UNBOUND:                 0.000

$$$$

     RDKit          3D

 51 55  0  0  0  0  0  0  0  0999 V2000
   52.7555    4.0130   19.1112 O   0  0  0  0  0  0  0  0  0  0  0  0
   53.6941    2.9339   18.9953 C   0  0  0  0  0  0  0  0  0  0  0  0
   53.2317    1.8100   18.2343 O   0  0  0  0  0  0  0  0  0  0  0  0
   51.9894    2.2473   17.8998 C   0  0  0  0  0  0  0  0  0  0  0  0
   51.7176    3.4994   18.3981 C   0  0  0  0  0  0  0  0  0  0  0  0
   54.0155    2.5080   20.2418 F   0  0  0  0  0  0  0  0  0  0  0  0
   54.8266    3.4084   18.4203 F   0  0  0  0  0  0  0  0  0  0  0  0
   50.5098    4.1286   18.1719 C   0  0  0  0  0  0  0  0  0  0  0  0
   51.0685    1.5575   17.1467 C   0  0  0  0  0  0  0  0  0  0  0  0
   49.8365    2.1760   16.9053 C   0  0  0  0  0  0  0  0  0  0  0  0
   49.5267    3.4648   17.4130 C   0  0  0  0  0  0  0  0  0  0  0  0
   48.1750    4.1097   17.1133 C   0  0  0  0  0  0  0  0  0  0  0  0
   47.3775    4.7200   18.2651 C   0  0  0  0  0  0  0  0  0  0  0  0
   46.9352    3.4180   17.6801 C   0  0  0  0  0  0  0  0  0  0  0  0
   48.0415    4.7406   15.7447 C   0  0  0  0  0  0  0  0  0  0  0  0
   47.5823    4.0823   14.8217 O   0  0  0  0  0  0  0  0  0  0  0  0
   48.4845    6.0362   15.7086 N   0  0  0  0  0  0  0  0  0  0  0  0
   48.5154    6.9106   14.6257 C   0  0  0  0  0  0  0  0  0  0  0  0
   49.0263    8.1194   14.9349 N   0  0  0  0  0  0  0  0  0  0  0  0
   48.0688    6.5945   13.3555 C   0  0  0  0  0  0  0  0  0  0  0  0
   48.1600    7.5608   12.3567 C   0  0  0  0  0  0  0  0  0  0  0  0
   48.6963    8.8196   12.6425 C   0  0  0  0  0  0  0  0  0  0  0  0
   49.1017    9.0640   13.9599 C   0  0  0  0  0  0  0  0  0  0  0  0
   48.7961    9.8463   11.5529 C   0  0  0  0  0  0  0  0  0  0  0  0
   49.6533   10.3470   14.4220 C   0  0  0  0  0  0  0  0  0  0  0  0
   51.5017   11.6234   15.3762 C   0  0  0  0  0  0  0  0  0  0  0  0
   50.9625   10.4155   14.9288 C   0  0  0  0  0  0  0  0  0  0  0  0
   48.8871   11.5250   14.3965 C   0  0  0  0  0  0  0  0  0  0  0  0
   49.4233   12.7409   14.8435 C   0  0  0  0  0  0  0  0  0  0  0  0
   50.7340   12.7857   15.3310 C   0  0  0  0  0  0  0  0  0  0  0  0
   48.6399   13.9995   14.8224 C   0  0  0  0  0  0  0  0  0  0  0  0
   47.4121   13.8421   14.2967 O   0  0  0  0  0  0  0  0  0  0  0  0
   49.0221   15.0848   15.2186 O   0  0  0  0  0  0  0  0  0  0  0  0
   50.3299    5.1190   18.5778 H   0  0  0  0  0  0  0  0  0  0  0  0
   51.2879    0.5724   16.7496 H   0  0  0  0  0  0  0  0  0  0  0  0
   49.0942    1.6533   16.3012 H   0  0  0  0  0  0  0  0  0  0  0  0
   47.7917    4.7000   19.2670 H   0  0  0  0  0  0  0  0  0  0  0  0
   46.7596    5.5900   18.0686 H   0  0  0  0  0  0  0  0  0  0  0  0
   47.0638    2.5227   18.2782 H   0  0  0  0  0  0  0  0  0  0  0  0
   46.0364    3.4072   17.0719 H   0  0  0  0  0  0  0  0  0  0  0  0
   48.8557    6.4505   16.5514 H   0  0  0  0  0  0  0  0  0  0  0  0
   47.6548    5.6237   13.1113 H   0  0  0  0  0  0  0  0  0  0  0  0
   47.8149    7.3183   11.3541 H   0  0  0  0  0  0  0  0  0  0  0  0
   48.7267    9.3799   10.5640 H   0  0  0  0  0  0  0  0  0  0  0  0
   47.9839   10.5741   11.6406 H   0  0  0  0  0  0  0  0  0  0  0  0
   49.7591   10.3658   11.5885 H   0  0  0  0  0  0  0  0  0  0  0  0
   52.5173   11.6552   15.7632 H   0  0  0  0  0  0  0  0  0  0  0  0
   51.5687    9.5118   14.9773 H   0  0  0  0  0  0  0  0  0  0  0  0
   47.8608   11.4857   14.0368 H   0  0  0  0  0  0  0  0  0  0  0  0
   51.1582   13.7243   15.6829 H   0  0  0  0  0  0  0  0  0  0  0  0
   47.0183   14.7383   14.3510 H   0  0  0  0  0  0  0  0  0  0  0  0
  1  2  1  0
  1  5  1  0
  2  3  1  0
  3  4  1  0
  2  6  1  0
  2  7  1  0
  8  5  1  0
  5  4  2  0
  4  9  1  0
  8 11  2  0
  9 10  2  0
 10 11  1  0
 11 12  1  0
 12 13  1  0
 13 14  1  0
 14 12  1  0
 12 15  1  0
 15 16  2  0
 15 17  1  0
 17 18  1  0
 19 18  2  0
 18 20  1  0
 19 23  1  0
 20 21  2  0
 21 22  1  0
 22 23  2  0
 22 24  1  0
 23 25  1  0
 27 25  1  0
 25 28  2  0
 26 27  2  0
 26 30  1  0
 28 29  1  0
 29 30  2  0
 29 31  1  0
 31 32  1  0
 31 33  2  0
  8 34  1  0
  9 35  1  0
 10 36  1  0
 13 37  1  0
 13 38  1  0
 14 39  1  0
 14 40  1  0
 17 41  1  0
 20 42  1  0
 21 43  1  0
 24 44  1  0
 24 45  1  0
 24 46  1  0
 26 47  1  0
 27 48  1  0
 28 49  1  0
 30 50  1  0
 32 51  1  0
M  END
> <Uni-Dock RESULT> 
ENERGY=   -4.976  LOWER_BOUND=    4.411  UPPER_BOUND=    7.491
INTER + INTRA:          -4.976
INTER:                  -4.976
INTRA:                   0.000
UNBOUND:                 0.000

$$$$

     RDKit          3D

 51 55  0  0  0  0  0  0  0  0999 V2000
   45.6123    4.8646   11.0696 O   0  0  0  0  0  0  0  0  0  0  0  0
   44.2598    5.0683   10.6358 C   0  0  0  0  0  0  0  0  0  0  0  0
   43.6956    6.3376   10.9919 O   0  0  0  0  0  0  0  0  0  0  0  0
   44.7489    6.8863   11.6523 C   0  0  0  0  0  0  0  0  0  0  0  0
   45.8388    6.0497   11.6971 C   0  0  0  0  0  0  0  0  0  0  0  0
   43.4864    4.0886   11.1655 F   0  0  0  0  0  0  0  0  0  0  0  0
   44.2164    4.9396    9.2868 F   0  0  0  0  0  0  0  0  0  0  0  0
   47.0148    6.4159   12.3206 C   0  0  0  0  0  0  0  0  0  0  0  0
   44.7769    8.1353   12.2269 C   0  0  0  0  0  0  0  0  0  0  0  0
   45.9590    8.5275   12.8652 C   0  0  0  0  0  0  0  0  0  0  0  0
   47.0968    7.6816   12.9325 C   0  0  0  0  0  0  0  0  0  0  0  0
   48.3724    8.1549   13.6265 C   0  0  0  0  0  0  0  0  0  0  0  0
   49.0478    7.2305   14.6387 C   0  0  0  0  0  0  0  0  0  0  0  0
   48.2873    8.4196   15.1297 C   0  0  0  0  0  0  0  0  0  0  0  0
   49.2507    9.0831   12.8165 C   0  0  0  0  0  0  0  0  0  0  0  0
   49.1110   10.2930   12.9291 O   0  0  0  0  0  0  0  0  0  0  0  0
   50.1321    8.4144   12.0090 N   0  0  0  0  0  0  0  0  0  0  0  0
   51.0761    8.9435   11.1330 C   0  0  0  0  0  0  0  0  0  0  0  0
   51.7800    7.9983   10.4783 N   0  0  0  0  0  0  0  0  0  0  0  0
   51.2900   10.2965   10.9417 C   0  0  0  0  0  0  0  0  0  0  0  0
   52.2644   10.6953   10.0302 C   0  0  0  0  0  0  0  0  0  0  0  0
   53.0029    9.7396    9.3264 C   0  0  0  0  0  0  0  0  0  0  0  0
   52.7392    8.3921    9.5987 C   0  0  0  0  0  0  0  0  0  0  0  0
   54.0426   10.1860    8.3410 C   0  0  0  0  0  0  0  0  0  0  0  0
   53.4545    7.2736    8.9651 C   0  0  0  0  0  0  0  0  0  0  0  0
   53.4208    5.2764    7.5628 C   0  0  0  0  0  0  0  0  0  0  0  0
   52.7599    6.3469    8.1687 C   0  0  0  0  0  0  0  0  0  0  0  0
   54.8339    7.0843    9.1568 C   0  0  0  0  0  0  0  0  0  0  0  0
   55.5032    6.0119    8.5503 C   0  0  0  0  0  0  0  0  0  0  0  0
   54.7918    5.1105    7.7509 C   0  0  0  0  0  0  0  0  0  0  0  0
   56.9583    5.7917    8.7306 C   0  0  0  0  0  0  0  0  0  0  0  0
   57.5414    6.7415    9.4831 O   0  0  0  0  0  0  0  0  0  0  0  0
   57.6041    4.8719    8.2638 O   0  0  0  0  0  0  0  0  0  0  0  0
   47.8572    5.7316   12.3346 H   0  0  0  0  0  0  0  0  0  0  0  0
   43.9177    8.7958   12.1846 H   0  0  0  0  0  0  0  0  0  0  0  0
   46.0091    9.5179   13.3186 H   0  0  0  0  0  0  0  0  0  0  0  0
   48.6209    6.2527   14.8321 H   0  0  0  0  0  0  0  0  0  0  0  0
   50.1285    7.2577   14.7303 H   0  0  0  0  0  0  0  0  0  0  0  0
   47.3457    8.2457   15.6385 H   0  0  0  0  0  0  0  0  0  0  0  0
   48.8479    9.2579   15.5307 H   0  0  0  0  0  0  0  0  0  0  0  0
   50.1257    7.4046   12.0074 H   0  0  0  0  0  0  0  0  0  0  0  0
   50.7256   11.0535   11.4726 H   0  0  0  0  0  0  0  0  0  0  0  0
   52.4356   11.7577    9.8710 H   0  0  0  0  0  0  0  0  0  0  0  0
   53.8853   11.2297    8.0473 H   0  0  0  0  0  0  0  0  0  0  0  0
   55.0417   10.1058    8.7798 H   0  0  0  0  0  0  0  0  0  0  0  0
   53.9966    9.5908    7.4234 H   0  0  0  0  0  0  0  0  0  0  0  0
   52.8652    4.5715    6.9491 H   0  0  0  0  0  0  0  0  0  0  0  0
   51.6866    6.4614    8.0220 H   0  0  0  0  0  0  0  0  0  0  0  0
   55.3829    7.7734    9.7955 H   0  0  0  0  0  0  0  0  0  0  0  0
   55.3020    4.2734    7.2781 H   0  0  0  0  0  0  0  0  0  0  0  0
   58.4820    6.4673    9.5176 H   0  0  0  0  0  0  0  0  0  0  0  0
  1  2  1  0
  1  5  1  0
  2  3  1  0
  3  4  1  0
  2  6  1  0
  2  7  1  0
  8  5  1  0
  5  4  2  0
  4  9  1  0
  8 11  2  0
  9 10  2  0
 10 11  1  0
 11 12  1  0
 12 13  1  0
 13 14  1  0
 14 12  1  0
 12 15  1  0
 15 16  2  0
 15 17  1  0
 17 18  1  0
 19 18  2  0
 18 20  1  0
 19 23  1  0
 20 21  2  0
 21 22  1  0
 22 23  2  0
 22 24  1  0
 23 25  1  0
 27 25  1  0
 25 28  2  0
 26 27  2  0
 26 30  1  0
 28 29  1  0
 29 30  2  0
 29 31  1  0
 31 32  1  0
 31 33  2  0
  8 34  1  0
  9 35  1  0
 10 36  1  0
 13 37  1  0
 13 38  1  0
 14 39  1  0
 14 40  1  0
 17 41  1  0
 20 42  1  0
 21 43  1  0
 24 44  1  0
 24 45  1  0
 24 46  1  0
 26 47  1  0
 27 48  1  0
 28 49  1  0
 30 50  1  0
 32 51  1  0
M  END
> <Uni-Dock RESULT> 
ENERGY=   -4.775  LOWER_BOUND=    6.431  UPPER_BOUND=    8.825
INTER + INTRA:          -4.775
INTER:                  -4.775
INTRA:                   0.000
UNBOUND:                 0.000

$$$$

     RDKit          3D

 51 55  0  0  0  0  0  0  0  0999 V2000
   45.2667   12.2621    5.7457 O   0  0  0  0  0  0  0  0  0  0  0  0
   46.1764   13.0597    4.9743 C   0  0  0  0  0  0  0  0  0  0  0  0
   46.9098   14.0366    5.7254 O   0  0  0  0  0  0  0  0  0  0  0  0
   46.4114   13.8013    6.9675 C   0  0  0  0  0  0  0  0  0  0  0  0
   45.4772   12.7929    6.9800 C   0  0  0  0  0  0  0  0  0  0  0  0
   45.4737   13.6983    4.0063 F   0  0  0  0  0  0  0  0  0  0  0  0
   47.0599   12.2338    4.3615 F   0  0  0  0  0  0  0  0  0  0  0  0
   44.8485   12.3948    8.1429 C   0  0  0  0  0  0  0  0  0  0  0  0
   46.7689   14.4648    8.1177 C   0  0  0  0  0  0  0  0  0  0  0  0
   46.1437   14.0782    9.3085 C   0  0  0  0  0  0  0  0  0  0  0  0
   45.1710   13.0453    9.3495 C   0  0  0  0  0  0  0  0  0  0  0  0
   44.5236   12.6447   10.6735 C   0  0  0  0  0  0  0  0  0  0  0  0
   43.0027   12.5128   10.7408 C   0  0  0  0  0  0  0  0  0  0  0  0
   43.6614   13.6970   11.3709 C   0  0  0  0  0  0  0  0  0  0  0  0
   45.3542   11.7431   11.5602 C   0  0  0  0  0  0  0  0  0  0  0  0
   46.0715   12.2390   12.4179 O   0  0  0  0  0  0  0  0  0  0  0  0
   45.1963   10.4143   11.2678 N   0  0  0  0  0  0  0  0  0  0  0  0
   45.8036    9.3168   11.8721 C   0  0  0  0  0  0  0  0  0  0  0  0
   45.4304    8.1399   11.3306 N   0  0  0  0  0  0  0  0  0  0  0  0
   46.6973    9.4017   12.9241 C   0  0  0  0  0  0  0  0  0  0  0  0
   47.2384    8.2251   13.4362 C   0  0  0  0  0  0  0  0  0  0  0  0
   46.8809    6.9896   12.8886 C   0  0  0  0  0  0  0  0  0  0  0  0
   45.9513    6.9928   11.8420 C   0  0  0  0  0  0  0  0  0  0  0  0
   47.4802    5.7319   13.4457 C   0  0  0  0  0  0  0  0  0  0  0  0
   45.4524    5.7740   11.1865 C   0  0  0  0  0  0  0  0  0  0  0  0
   45.2164    4.4094    9.1769 C   0  0  0  0  0  0  0  0  0  0  0  0
   45.6859    5.5579    9.8175 C   0  0  0  0  0  0  0  0  0  0  0  0
   44.7120    4.8123   11.8952 C   0  0  0  0  0  0  0  0  0  0  0  0
   44.2388    3.6566   11.2578 C   0  0  0  0  0  0  0  0  0  0  0  0
   44.4960    3.4580    9.8969 C   0  0  0  0  0  0  0  0  0  0  0  0
   43.4605    2.6232   11.9821 C   0  0  0  0  0  0  0  0  0  0  0  0
   43.3117    2.9018   13.2893 O   0  0  0  0  0  0  0  0  0  0  0  0
   42.9917    1.6112   11.4954 O   0  0  0  0  0  0  0  0  0  0  0  0
   44.1177   11.5928    8.1171 H   0  0  0  0  0  0  0  0  0  0  0  0
   47.5109   15.2558    8.1059 H   0  0  0  0  0  0  0  0  0  0  0  0
   46.4189   14.5823   10.2355 H   0  0  0  0  0  0  0  0  0  0  0  0
   42.4145   12.6880    9.8468 H   0  0  0  0  0  0  0  0  0  0  0  0
   42.5721   11.7703   11.4045 H   0  0  0  0  0  0  0  0  0  0  0  0
   43.5305   14.6632   10.8966 H   0  0  0  0  0  0  0  0  0  0  0  0
   43.6985   13.7478   12.4543 H   0  0  0  0  0  0  0  0  0  0  0  0
   44.5763   10.1485   10.5164 H   0  0  0  0  0  0  0  0  0  0  0  0
   46.9918   10.3488   13.3598 H   0  0  0  0  0  0  0  0  0  0  0  0
   47.9453    8.2839   14.2608 H   0  0  0  0  0  0  0  0  0  0  0  0
   48.3865    5.9484   14.0219 H   0  0  0  0  0  0  0  0  0  0  0  0
   46.7683    5.2337   14.1108 H   0  0  0  0  0  0  0  0  0  0  0  0
   47.7736    5.0468   12.6438 H   0  0  0  0  0  0  0  0  0  0  0  0
   45.4092    4.2606    8.1173 H   0  0  0  0  0  0  0  0  0  0  0  0
   46.2401    6.2989    9.2426 H   0  0  0  0  0  0  0  0  0  0  0  0
   44.4943    4.9771   12.9486 H   0  0  0  0  0  0  0  0  0  0  0  0
   44.1305    2.5655    9.3925 H   0  0  0  0  0  0  0  0  0  0  0  0
   42.7848    2.1485   13.6300 H   0  0  0  0  0  0  0  0  0  0  0  0
  1  2  1  0
  1  5  1  0
  2  3  1  0
  3  4  1  0
  2  6  1  0
  2  7  1  0
  8  5  1  0
  5  4  2  0
  4  9  1  0
  8 11  2  0
  9 10  2  0
 10 11  1  0
 11 12  1  0
 12 13  1  0
 13 14  1  0
 14 12  1  0
 12 15  1  0
 15 16  2  0
 15 17  1  0
 17 18  1  0
 19 18  2  0
 18 20  1  0
 19 23  1  0
 20 21  2  0
 21 22  1  0
 22 23  2  0
 22 24  1  0
 23 25  1  0
 27 25  1  0
 25 28  2  0
 26 27  2  0
 26 30  1  0
 28 29  1  0
 29 30  2  0
 29 31  1  0
 31 32  1  0
 31 33  2  0
  8 34  1  0
  9 35  1  0
 10 36  1  0
 13 37  1  0
 13 38  1  0
 14 39  1  0
 14 40  1  0
 17 41  1  0
 20 42  1  0
 21 43  1  0
 24 44  1  0
 24 45  1  0
 24 46  1  0
 26 47  1  0
 27 48  1  0
 28 49  1  0
 30 50  1  0
 32 51  1  0
M  END
> <Uni-Dock RESULT> 
ENERGY=   -4.758  LOWER_BOUND=    6.313  UPPER_BOUND=    9.722
INTER + INTRA:          -4.758
INTER:                  -4.758
INTRA:                   0.000
UNBOUND:                 0.000

$$$$
