
     RDKit          3D

 51 55  0  0  0  0  0  0  0  0999 V2000
   50.5482   11.8045   11.2931 O   0  0  0  0  0  0  0  0  0  0  0  0
   51.7886   11.7437   10.5763 C   0  0  0  0  0  0  0  0  0  0  0  0
   52.3088   10.4214   10.3792 O   0  0  0  0  0  0  0  0  0  0  0  0
   51.3416    9.6941   10.9977 C   0  0  0  0  0  0  0  0  0  0  0  0
   50.3405   10.4796   11.5170 C   0  0  0  0  0  0  0  0  0  0  0  0
   52.7122   12.4745   11.2481 F   0  0  0  0  0  0  0  0  0  0  0  0
   51.6136   12.3223    9.3623 F   0  0  0  0  0  0  0  0  0  0  0  0
   49.2641    9.9351   12.1869 C   0  0  0  0  0  0  0  0  0  0  0  0
   51.3208    8.3243   11.1219 C   0  0  0  0  0  0  0  0  0  0  0  0
   50.2373    7.7503   11.7973 C   0  0  0  0  0  0  0  0  0  0  0  0
   49.1867    8.5363   12.3375 C   0  0  0  0  0  0  0  0  0  0  0  0
   48.0174    7.8989   13.0855 C   0  0  0  0  0  0  0  0  0  0  0  0
   46.6226    8.0918   12.4899 C   0  0  0  0  0  0  0  0  0  0  0  0
   47.2646    6.7439   12.4261 C   0  0  0  0  0  0  0  0  0  0  0  0
   48.1241    7.9083   14.5947 C   0  0  0  0  0  0  0  0  0  0  0  0
   47.6269    8.8297   15.2267 O   0  0  0  0  0  0  0  0  0  0  0  0
   48.8079    6.8288   15.0882 N   0  0  0  0  0  0  0  0  0  0  0  0
   49.1069    6.5258   16.4139 C   0  0  0  0  0  0  0  0  0  0  0  0
   49.8032    5.3793   16.5512 N   0  0  0  0  0  0  0  0  0  0  0  0
   48.7410    7.3083   17.4939 C   0  0  0  0  0  0  0  0  0  0  0  0
   49.1015    6.8909   18.7727 C   0  0  0  0  0  0  0  0  0  0  0  0
   49.8158    5.7024   18.9494 C   0  0  0  0  0  0  0  0  0  0  0  0
   50.1655    4.9833   17.8005 C   0  0  0  0  0  0  0  0  0  0  0  0
   50.1919    5.2635   20.3341 C   0  0  0  0  0  0  0  0  0  0  0  0
   50.9447    3.7359   17.8221 C   0  0  0  0  0  0  0  0  0  0  0  0
   51.1067    1.3451   17.3598 C   0  0  0  0  0  0  0  0  0  0  0  0
   50.3804    2.5377   17.3512 C   0  0  0  0  0  0  0  0  0  0  0  0
   52.2718    3.7104   18.2842 C   0  0  0  0  0  0  0  0  0  0  0  0
   53.0056    2.5159   18.2962 C   0  0  0  0  0  0  0  0  0  0  0  0
   52.4170    1.3334   17.8345 C   0  0  0  0  0  0  0  0  0  0  0  0
   54.4049    2.4588   18.7830 C   0  0  0  0  0  0  0  0  0  0  0  0
   54.8486    3.6440   19.2379 O   0  0  0  0  0  0  0  0  0  0  0  0
   55.1155    1.4709   18.7975 O   0  0  0  0  0  0  0  0  0  0  0  0
   48.4907   10.5785   12.5984 H   0  0  0  0  0  0  0  0  0  0  0  0
   52.1164    7.7107   10.7133 H   0  0  0  0  0  0  0  0  0  0  0  0
   50.2080    6.6673   11.9070 H   0  0  0  0  0  0  0  0  0  0  0  0
   45.7930    8.2342   13.1749 H   0  0  0  0  0  0  0  0  0  0  0  0
   46.5211    8.6504   11.5660 H   0  0  0  0  0  0  0  0  0  0  0  0
   47.5840    6.3910   11.4519 H   0  0  0  0  0  0  0  0  0  0  0  0
   46.8488    5.9644   13.0558 H   0  0  0  0  0  0  0  0  0  0  0  0
   49.1757    6.1455   14.4425 H   0  0  0  0  0  0  0  0  0  0  0  0
   48.1854    8.2313   17.3795 H   0  0  0  0  0  0  0  0  0  0  0  0
   48.8155    7.4998   19.6274 H   0  0  0  0  0  0  0  0  0  0  0  0
   49.5805    5.7711   21.0884 H   0  0  0  0  0  0  0  0  0  0  0  0
   51.2413    5.4988   20.5357 H   0  0  0  0  0  0  0  0  0  0  0  0
   50.0256    4.1895   20.4653 H   0  0  0  0  0  0  0  0  0  0  0  0
   50.6514    0.4285   16.9927 H   0  0  0  0  0  0  0  0  0  0  0  0
   49.3603    2.5371   16.9697 H   0  0  0  0  0  0  0  0  0  0  0  0
   52.7357    4.6345   18.6236 H   0  0  0  0  0  0  0  0  0  0  0  0
   52.9797    0.4017   17.8374 H   0  0  0  0  0  0  0  0  0  0  0  0
   55.7700    3.4580   19.5162 H   0  0  0  0  0  0  0  0  0  0  0  0
  1  2  1  0
  1  5  1  0
  2  3  1  0
  3  4  1  0
  2  6  1  0
  2  7  1  0
  8  5  1  0
  5  4  2  0
  4  9  1  0
  8 11  2  0
  9 10  2  0
 10 11  1  0
 11 12  1  0
 12 13  1  0
 13 14  1  0
 14 12  1  0
 12 15  1  0
 15 16  2  0
 15 17  1  0
 17 18  1  0
 19 18  2  0
 18 20  1  0
 19 23  1  0
 20 21  2  0
 21 22  1  0
 22 23  2  0
 22 24  1  0
 23 25  1  0
 27 25  1  0
 25 28  2  0
 26 27  2  0
 26 30  1  0
 28 29  1  0
 29 30  2  0
 29 31  1  0
 31 32  1  0
 31 33  2  0
  8 34  1  0
  9 35  1  0
 10 36  1  0
 13 37  1  0
 13 38  1  0
 14 39  1  0
 14 40  1  0
 17 41  1  0
 20 42  1  0
 21 43  1  0
 24 44  1  0
 24 45  1  0
 24 46  1  0
 26 47  1  0
 27 48  1  0
 28 49  1  0
 30 50  1  0
 32 51  1  0
M  END
> <Uni-Dock RESULT> 
ENERGY=   -5.373  LOWER_BOUND=    0.000  UPPER_BOUND=    0.000
INTER + INTRA:          -5.373
INTER:                  -5.373
INTRA:                   0.000
UNBOUND:                 0.000

$$$$

     RDKit          3D

 51 55  0  0  0  0  0  0  0  0999 V2000
   51.6962    0.7234   17.0651 O   0  0  0  0  0  0  0  0  0  0  0  0
   53.0023    0.7807   17.6543 C   0  0  0  0  0  0  0  0  0  0  0  0
   53.3035    2.0048   18.3389 O   0  0  0  0  0  0  0  0  0  0  0  0
   52.1383    2.6761   18.1430 C   0  0  0  0  0  0  0  0  0  0  0  0
   51.2242    1.9482   17.4195 C   0  0  0  0  0  0  0  0  0  0  0  0
   53.9252    0.5943   16.6785 F   0  0  0  0  0  0  0  0  0  0  0  0
   53.1240   -0.2448   18.5333 F   0  0  0  0  0  0  0  0  0  0  0  0
   49.9772    2.4512   17.1096 C   0  0  0  0  0  0  0  0  0  0  0  0
   51.8552    3.9448   18.5932 C   0  0  0  0  0  0  0  0  0  0  0  0
   50.5953    4.4748   18.2909 C   0  0  0  0  0  0  0  0  0  0  0  0
   49.6301    3.7433   17.5516 C   0  0  0  0  0  0  0  0  0  0  0  0
   48.2642    4.3385   17.2154 C   0  0  0  0  0  0  0  0  0  0  0  0
   47.0359    3.6218   17.7765 C   0  0  0  0  0  0  0  0  0  0  0  0
   47.4301    4.9477   18.3418 C   0  0  0  0  0  0  0  0  0  0  0  0
   48.1348    4.9366   15.8317 C   0  0  0  0  0  0  0  0  0  0  0  0
   47.7169    4.2441   14.9143 O   0  0  0  0  0  0  0  0  0  0  0  0
   48.5306    6.2468   15.7772 N   0  0  0  0  0  0  0  0  0  0  0  0
   48.5610    7.0968   14.6749 C   0  0  0  0  0  0  0  0  0  0  0  0
   49.0125    8.3324   14.9709 N   0  0  0  0  0  0  0  0  0  0  0  0
   48.1764    6.7311   13.3978 C   0  0  0  0  0  0  0  0  0  0  0  0
   48.2536    7.6792   12.3806 C   0  0  0  0  0  0  0  0  0  0  0  0
   48.7090    8.9716   12.6568 C   0  0  0  0  0  0  0  0  0  0  0  0
   49.0998    9.2504   13.9716 C   0  0  0  0  0  0  0  0  0  0  0  0
   48.7810    9.9833   11.5510 C   0  0  0  0  0  0  0  0  0  0  0  0
   49.6319   10.5503   14.4084 C   0  0  0  0  0  0  0  0  0  0  0  0
   49.4365   12.5472   15.7976 C   0  0  0  0  0  0  0  0  0  0  0  0
   48.9440   11.3132   15.3678 C   0  0  0  0  0  0  0  0  0  0  0  0
   50.8450   11.0505   13.9049 C   0  0  0  0  0  0  0  0  0  0  0  0
   51.3440   12.2891   14.3320 C   0  0  0  0  0  0  0  0  0  0  0  0
   50.6337   13.0361   15.2783 C   0  0  0  0  0  0  0  0  0  0  0  0
   52.6178   12.8434   13.8139 C   0  0  0  0  0  0  0  0  0  0  0  0
   53.1887   12.0587   12.8829 O   0  0  0  0  0  0  0  0  0  0  0  0
   53.1305   13.8930   14.1556 O   0  0  0  0  0  0  0  0  0  0  0  0
   49.2761    1.8602   16.5262 H   0  0  0  0  0  0  0  0  0  0  0  0
   52.5829    4.5154   19.1602 H   0  0  0  0  0  0  0  0  0  0  0  0
   50.3574    5.4793   18.6373 H   0  0  0  0  0  0  0  0  0  0  0  0
   46.1484    3.5718   17.1538 H   0  0  0  0  0  0  0  0  0  0  0  0
   47.1802    2.7427   18.3947 H   0  0  0  0  0  0  0  0  0  0  0  0
   47.8293    4.9595   19.3498 H   0  0  0  0  0  0  0  0  0  0  0  0
   46.7896    5.7943   18.1182 H   0  0  0  0  0  0  0  0  0  0  0  0
   48.8671    6.6918   16.6186 H   0  0  0  0  0  0  0  0  0  0  0  0
   47.8183    5.7360   13.1626 H   0  0  0  0  0  0  0  0  0  0  0  0
   47.9508    7.3998   11.3739 H   0  0  0  0  0  0  0  0  0  0  0  0
   48.1597    9.6825   10.7002 H   0  0  0  0  0  0  0  0  0  0  0  0
   49.8111   10.0872   11.1971 H   0  0  0  0  0  0  0  0  0  0  0  0
   48.4081   10.9573   11.8838 H   0  0  0  0  0  0  0  0  0  0  0  0
   48.8884   13.1229   16.5395 H   0  0  0  0  0  0  0  0  0  0  0  0
   48.0119   10.9367   15.7870 H   0  0  0  0  0  0  0  0  0  0  0  0
   51.4072   10.4593   13.1846 H   0  0  0  0  0  0  0  0  0  0  0  0
   51.0146   13.9976   15.6179 H   0  0  0  0  0  0  0  0  0  0  0  0
   54.0077   12.5401   12.6410 H   0  0  0  0  0  0  0  0  0  0  0  0
  1  2  1  0
  1  5  1  0
  2  3  1  0
  3  4  1  0
  2  6  1  0
  2  7  1  0
  8  5  1  0
  5  4  2  0
  4  9  1  0
  8 11  2  0
  9 10  2  0
 10 11  1  0
 11 12  1  0
 12 13  1  0
 13 14  1  0
 14 12  1  0
 12 15  1  0
 15 16  2  0
 15 17  1  0
 17 18  1  0
 19 18  2  0
 18 20  1  0
 19 23  1  0
 20 21  2  0
 21 22  1  0
 22 23  2  0
 22 24  1  0
 23 25  1  0
 27 25  1  0
 25 28  2  0
 26 27  2  0
 26 30  1  0
 28 29  1  0
 29 30  2  0
 29 31  1  0
 31 32  1  0
 31 33  2  0
  8 34  1  0
  9 35  1  0
 10 36  1  0
 13 37  1  0
 13 38  1  0
 14 39  1  0
 14 40  1  0
 17 41  1  0
 20 42  1  0
 21 43  1  0
 24 44  1  0
 24 45  1  0
 24 46  1  0
 26 47  1  0
 27 48  1  0
 28 49  1  0
 30 50  1  0
 32 51  1  0
M  END
> <Uni-Dock RESULT> 
ENERGY=   -5.108  LOWER_BOUND=    4.218  UPPER_BOUND=    9.209
INTER + INTRA:          -5.108
INTER:                  -5.108
INTRA:                   0.000
UNBOUND:                 0.000

$$$$

     RDKit          3D

 51 55  0  0  0  0  0  0  0  0999 V2000
   43.8708    7.0871   11.9660 O   0  0  0  0  0  0  0  0  0  0  0  0
   43.4350    5.7465   11.7032 C   0  0  0  0  0  0  0  0  0  0  0  0
   44.3666    4.7230   12.0806 O   0  0  0  0  0  0  0  0  0  0  0  0
   45.3709    5.4917   12.5781 C   0  0  0  0  0  0  0  0  0  0  0  0
   45.0895    6.8354   12.5136 C   0  0  0  0  0  0  0  0  0  0  0  0
   43.1778    5.6276   10.3773 F   0  0  0  0  0  0  0  0  0  0  0  0
   42.2711    5.5340   12.3660 F   0  0  0  0  0  0  0  0  0  0  0  0
   45.9810    7.7864   12.9660 C   0  0  0  0  0  0  0  0  0  0  0  0
   46.5579    5.0280   13.0961 C   0  0  0  0  0  0  0  0  0  0  0  0
   47.4771    5.9755   13.5618 C   0  0  0  0  0  0  0  0  0  0  0  0
   47.2101    7.3683   13.5137 C   0  0  0  0  0  0  0  0  0  0  0  0
   48.2276    8.3930   14.0113 C   0  0  0  0  0  0  0  0  0  0  0  0
   47.8044    9.2822   15.1807 C   0  0  0  0  0  0  0  0  0  0  0  0
   48.8273    8.2163   15.4059 C   0  0  0  0  0  0  0  0  0  0  0  0
   49.0883    9.0311   12.9431 C   0  0  0  0  0  0  0  0  0  0  0  0
   48.7333   10.0857   12.4358 O   0  0  0  0  0  0  0  0  0  0  0  0
   50.2134    8.3033   12.6588 N   0  0  0  0  0  0  0  0  0  0  0  0
   51.2110    8.5800   11.7276 C   0  0  0  0  0  0  0  0  0  0  0  0
   52.1835    7.6464   11.6999 N   0  0  0  0  0  0  0  0  0  0  0  0
   51.2210    9.6899   10.9026 C   0  0  0  0  0  0  0  0  0  0  0  0
   52.2809    9.8508   10.0136 C   0  0  0  0  0  0  0  0  0  0  0  0
   53.3095    8.9053    9.9669 C   0  0  0  0  0  0  0  0  0  0  0  0
   53.2089    7.8003   10.8202 C   0  0  0  0  0  0  0  0  0  0  0  0
   54.4473    9.0959    9.0076 C   0  0  0  0  0  0  0  0  0  0  0  0
   54.1918    6.7068   10.8615 C   0  0  0  0  0  0  0  0  0  0  0  0
   55.8588    5.4180   12.0927 C   0  0  0  0  0  0  0  0  0  0  0  0
   54.9250    6.4546   12.0339 C   0  0  0  0  0  0  0  0  0  0  0  0
   54.4054    5.8731    9.7503 C   0  0  0  0  0  0  0  0  0  0  0  0
   55.3423    4.8314    9.8031 C   0  0  0  0  0  0  0  0  0  0  0  0
   56.0695    4.6090   10.9777 C   0  0  0  0  0  0  0  0  0  0  0  0
   55.5917    3.9403    8.6447 C   0  0  0  0  0  0  0  0  0  0  0  0
   54.8666    4.2745    7.5627 O   0  0  0  0  0  0  0  0  0  0  0  0
   56.3634    2.9995    8.6216 O   0  0  0  0  0  0  0  0  0  0  0  0
   45.7399    8.8438   12.8936 H   0  0  0  0  0  0  0  0  0  0  0  0
   46.7752    3.9662   13.1401 H   0  0  0  0  0  0  0  0  0  0  0  0
   48.4228    5.6244   13.9715 H   0  0  0  0  0  0  0  0  0  0  0  0
   48.1323   10.3167   15.1767 H   0  0  0  0  0  0  0  0  0  0  0  0
   46.8206    9.1421   15.6149 H   0  0  0  0  0  0  0  0  0  0  0  0
   48.5318    7.3625   16.0053 H   0  0  0  0  0  0  0  0  0  0  0  0
   49.8494    8.5361   15.5792 H   0  0  0  0  0  0  0  0  0  0  0  0
   50.3742    7.4377   13.1527 H   0  0  0  0  0  0  0  0  0  0  0  0
   50.4356   10.4357   10.9243 H   0  0  0  0  0  0  0  0  0  0  0  0
   52.2971   10.7223    9.3631 H   0  0  0  0  0  0  0  0  0  0  0  0
   54.5061   10.1356    8.6670 H   0  0  0  0  0  0  0  0  0  0  0  0
   54.3136    8.4592    8.1278 H   0  0  0  0  0  0  0  0  0  0  0  0
   55.4060    8.8663    9.4836 H   0  0  0  0  0  0  0  0  0  0  0  0
   56.4171    5.2405   13.0087 H   0  0  0  0  0  0  0  0  0  0  0  0
   54.7621    7.0750   12.9141 H   0  0  0  0  0  0  0  0  0  0  0  0
   53.8244    6.0336    8.8442 H   0  0  0  0  0  0  0  0  0  0  0  0
   56.7970    3.8010   11.0290 H   0  0  0  0  0  0  0  0  0  0  0  0
   55.1271    3.6092    6.8914 H   0  0  0  0  0  0  0  0  0  0  0  0
  1  2  1  0
  1  5  1  0
  2  3  1  0
  3  4  1  0
  2  6  1  0
  2  7  1  0
  8  5  1  0
  5  4  2  0
  4  9  1  0
  8 11  2  0
  9 10  2  0
 10 11  1  0
 11 12  1  0
 12 13  1  0
 13 14  1  0
 14 12  1  0
 12 15  1  0
 15 16  2  0
 15 17  1  0
 17 18  1  0
 19 18  2  0
 18 20  1  0
 19 23  1  0
 20 21  2  0
 21 22  1  0
 22 23  2  0
 22 24  1  0
 23 25  1  0
 27 25  1  0
 25 28  2  0
 26 27  2  0
 26 30  1  0
 28 29  1  0
 29 30  2  0
 29 31  1  0
 31 32  1  0
 31 33  2  0
  8 34  1  0
  9 35  1  0
 10 36  1  0
 13 37  1  0
 13 38  1  0
 14 39  1  0
 14 40  1  0
 17 41  1  0
 20 42  1  0
 21 43  1  0
 24 44  1  0
 24 45  1  0
 24 46  1  0
 26 47  1  0
 27 48  1  0
 28 49  1  0
 30 50  1  0
 32 51  1  0
M  END
> <Uni-Dock RESULT> 
ENERGY=   -4.901  LOWER_BOUND=    5.459  UPPER_BOUND=    7.991
INTER + INTRA:          -4.901
INTER:                  -4.901
INTRA:                   0.000
UNBOUND:                 0.000

$$$$

     RDKit          3D

 51 55  0  0  0  0  0  0  0  0999 V2000
   44.8131   15.7549    6.8687 O   0  0  0  0  0  0  0  0  0  0  0  0
   44.3141   15.4926    5.5501 C   0  0  0  0  0  0  0  0  0  0  0  0
   43.3523   14.4315    5.4677 O   0  0  0  0  0  0  0  0  0  0  0  0
   43.2900   14.0690    6.7760 C   0  0  0  0  0  0  0  0  0  0  0  0
   44.1198   14.8211    7.5728 C   0  0  0  0  0  0  0  0  0  0  0  0
   45.3613   15.1886    4.7443 F   0  0  0  0  0  0  0  0  0  0  0  0
   43.7453   16.6267    5.0711 F   0  0  0  0  0  0  0  0  0  0  0  0
   44.2063   14.6106    8.9337 C   0  0  0  0  0  0  0  0  0  0  0  0
   42.5049   13.0665    7.2966 C   0  0  0  0  0  0  0  0  0  0  0  0
   42.5763   12.8361    8.6755 C   0  0  0  0  0  0  0  0  0  0  0  0
   43.4188   13.6014    9.5227 C   0  0  0  0  0  0  0  0  0  0  0  0
   43.4989   13.3302   11.0237 C   0  0  0  0  0  0  0  0  0  0  0  0
   43.0689   14.4607   11.9588 C   0  0  0  0  0  0  0  0  0  0  0  0
   42.2012   13.2513   11.8270 C   0  0  0  0  0  0  0  0  0  0  0  0
   44.6655   12.4776   11.4723 C   0  0  0  0  0  0  0  0  0  0  0  0
   45.7041   13.0180   11.8256 O   0  0  0  0  0  0  0  0  0  0  0  0
   44.3985   11.1352   11.4157 N   0  0  0  0  0  0  0  0  0  0  0  0
   45.2381   10.0714   11.7350 C   0  0  0  0  0  0  0  0  0  0  0  0
   44.6570    8.8672   11.5612 N   0  0  0  0  0  0  0  0  0  0  0  0
   46.5393   10.2124   12.1820 C   0  0  0  0  0  0  0  0  0  0  0  0
   47.2741    9.0647   12.4690 C   0  0  0  0  0  0  0  0  0  0  0  0
   46.6973    7.8016   12.3078 C   0  0  0  0  0  0  0  0  0  0  0  0
   45.3831    7.7491   11.8289 C   0  0  0  0  0  0  0  0  0  0  0  0
   47.5003    6.5749   12.6268 C   0  0  0  0  0  0  0  0  0  0  0  0
   44.6547    6.4968   11.5749 C   0  0  0  0  0  0  0  0  0  0  0  0
   42.7797    5.0137   12.0655 C   0  0  0  0  0  0  0  0  0  0  0  0
   43.4866    6.1956   12.2965 C   0  0  0  0  0  0  0  0  0  0  0  0
   45.0852    5.5862   10.5947 C   0  0  0  0  0  0  0  0  0  0  0  0
   44.3801    4.3975   10.3590 C   0  0  0  0  0  0  0  0  0  0  0  0
   43.2274    4.1141   11.0999 C   0  0  0  0  0  0  0  0  0  0  0  0
   44.8143    3.4168    9.3354 C   0  0  0  0  0  0  0  0  0  0  0  0
   45.9533    3.7762    8.7174 O   0  0  0  0  0  0  0  0  0  0  0  0
   44.2420    2.3808    9.0519 O   0  0  0  0  0  0  0  0  0  0  0  0
   44.8787   15.2112    9.5408 H   0  0  0  0  0  0  0  0  0  0  0  0
   41.8554   12.4740    6.6613 H   0  0  0  0  0  0  0  0  0  0  0  0
   41.9635   12.0436    9.1023 H   0  0  0  0  0  0  0  0  0  0  0  0
   43.6250   14.5965   12.8808 H   0  0  0  0  0  0  0  0  0  0  0  0
   42.7142   15.3901   11.5271 H   0  0  0  0  0  0  0  0  0  0  0  0
   41.2531   13.3732   11.3152 H   0  0  0  0  0  0  0  0  0  0  0  0
   42.1529   12.5785   12.6767 H   0  0  0  0  0  0  0  0  0  0  0  0
   43.4930   10.8296   11.0906 H   0  0  0  0  0  0  0  0  0  0  0  0
   47.0046   11.1815   12.3162 H   0  0  0  0  0  0  0  0  0  0  0  0
   48.2974    9.1674   12.8232 H   0  0  0  0  0  0  0  0  0  0  0  0
   48.3590    6.8196   13.2618 H   0  0  0  0  0  0  0  0  0  0  0  0
   47.8794    6.1188   11.7072 H   0  0  0  0  0  0  0  0  0  0  0  0
   46.9000    5.8438   13.1777 H   0  0  0  0  0  0  0  0  0  0  0  0
   41.8792    4.7985   12.6356 H   0  0  0  0  0  0  0  0  0  0  0  0
   43.1227    6.8956   13.0473 H   0  0  0  0  0  0  0  0  0  0  0  0
   45.9699    5.8172   10.0046 H   0  0  0  0  0  0  0  0  0  0  0  0
   42.6718    3.1951   10.9221 H   0  0  0  0  0  0  0  0  0  0  0  0
   46.1118    3.0504    8.0776 H   0  0  0  0  0  0  0  0  0  0  0  0
  1  2  1  0
  1  5  1  0
  2  3  1  0
  3  4  1  0
  2  6  1  0
  2  7  1  0
  8  5  1  0
  5  4  2  0
  4  9  1  0
  8 11  2  0
  9 10  2  0
 10 11  1  0
 11 12  1  0
 12 13  1  0
 13 14  1  0
 14 12  1  0
 12 15  1  0
 15 16  2  0
 15 17  1  0
 17 18  1  0
 19 18  2  0
 18 20  1  0
 19 23  1  0
 20 21  2  0
 21 22  1  0
 22 23  2  0
 22 24  1  0
 23 25  1  0
 27 25  1  0
 25 28  2  0
 26 27  2  0
 26 30  1  0
 28 29  1  0
 29 30  2  0
 29 31  1  0
 31 32  1  0
 31 33  2  0
  8 34  1  0
  9 35  1  0
 10 36  1  0
 13 37  1  0
 13 38  1  0
 14 39  1  0
 14 40  1  0
 17 41  1  0
 20 42  1  0
 21 43  1  0
 24 44  1  0
 24 45  1  0
 24 46  1  0
 26 47  1  0
 27 48  1  0
 28 49  1  0
 30 50  1  0
 32 51  1  0
M  END
> <Uni-Dock RESULT> 
ENERGY=   -4.872  LOWER_BOUND=    6.926  UPPER_BOUND=    9.463
INTER + INTRA:          -4.872
INTER:                  -4.872
INTRA:                   0.000
UNBOUND:                 0.000

$$$$

     RDKit          3D

 51 55  0  0  0  0  0  0  0  0999 V2000
   49.9474   11.4814   22.2542 O   0  0  0  0  0  0  0  0  0  0  0  0
   48.8207   12.2784   22.6438 C   0  0  0  0  0  0  0  0  0  0  0  0
   47.5448   11.7564   22.2471 O   0  0  0  0  0  0  0  0  0  0  0  0
   47.9423   10.6234   21.6107 C   0  0  0  0  0  0  0  0  0  0  0  0
   49.3077   10.4663   21.6147 C   0  0  0  0  0  0  0  0  0  0  0  0
   48.9635   13.5177   22.1126 F   0  0  0  0  0  0  0  0  0  0  0  0
   48.8311   12.4086   23.9937 F   0  0  0  0  0  0  0  0  0  0  0  0
   49.9154    9.3805   21.0184 C   0  0  0  0  0  0  0  0  0  0  0  0
   47.1130    9.7052   21.0094 C   0  0  0  0  0  0  0  0  0  0  0  0
   47.7083    8.5949   20.3989 C   0  0  0  0  0  0  0  0  0  0  0  0
   49.1143    8.4041   20.3937 C   0  0  0  0  0  0  0  0  0  0  0  0
   49.7525    7.1960   19.7110 C   0  0  0  0  0  0  0  0  0  0  0  0
   50.5465    6.2355   20.5967 C   0  0  0  0  0  0  0  0  0  0  0  0
   49.2277    5.8001   20.0452 C   0  0  0  0  0  0  0  0  0  0  0  0
   50.2858    7.4398   18.3163 C   0  0  0  0  0  0  0  0  0  0  0  0
   51.4577    7.7564   18.1678 O   0  0  0  0  0  0  0  0  0  0  0  0
   49.3349    7.2733   17.3445 N   0  0  0  0  0  0  0  0  0  0  0  0
   49.4677    7.4305   15.9675 C   0  0  0  0  0  0  0  0  0  0  0  0
   48.3243    7.1909   15.2942 N   0  0  0  0  0  0  0  0  0  0  0  0
   50.6411    7.7981   15.3345 C   0  0  0  0  0  0  0  0  0  0  0  0
   50.6411    7.9191   13.9471 C   0  0  0  0  0  0  0  0  0  0  0  0
   49.4741    7.6688   13.2193 C   0  0  0  0  0  0  0  0  0  0  0  0
   48.3254    7.3244   13.9410 C   0  0  0  0  0  0  0  0  0  0  0  0
   49.4919    7.7980   11.7245 C   0  0  0  0  0  0  0  0  0  0  0  0
   47.0168    7.0662   13.3209 C   0  0  0  0  0  0  0  0  0  0  0  0
   45.1724    5.5383   12.8525 C   0  0  0  0  0  0  0  0  0  0  0  0
   46.4162    5.8001   13.4307 C   0  0  0  0  0  0  0  0  0  0  0  0
   46.3229    8.0747   12.6304 C   0  0  0  0  0  0  0  0  0  0  0  0
   45.0743    7.8175   12.0469 C   0  0  0  0  0  0  0  0  0  0  0  0
   44.5033    6.5449   12.1588 C   0  0  0  0  0  0  0  0  0  0  0  0
   44.3228    8.8606   11.3085 C   0  0  0  0  0  0  0  0  0  0  0  0
   44.9867   10.0275   11.2321 O   0  0  0  0  0  0  0  0  0  0  0  0
   43.2248    8.7246   10.8014 O   0  0  0  0  0  0  0  0  0  0  0  0
   50.9981    9.2847   21.0252 H   0  0  0  0  0  0  0  0  0  0  0  0
   46.0365    9.8375   21.0063 H   0  0  0  0  0  0  0  0  0  0  0  0
   47.0654    7.8609   19.9156 H   0  0  0  0  0  0  0  0  0  0  0  0
   51.4475    5.7922   20.1850 H   0  0  0  0  0  0  0  0  0  0  0  0
   50.6110    6.4370   21.6603 H   0  0  0  0  0  0  0  0  0  0  0  0
   48.4060    5.6966   20.7451 H   0  0  0  0  0  0  0  0  0  0  0  0
   49.2384    5.0392   19.2720 H   0  0  0  0  0  0  0  0  0  0  0  0
   48.3965    7.0192   17.6164 H   0  0  0  0  0  0  0  0  0  0  0  0
   51.5569    7.9942   15.8791 H   0  0  0  0  0  0  0  0  0  0  0  0
   51.5606    8.2057   13.4418 H   0  0  0  0  0  0  0  0  0  0  0  0
   50.5166    7.7668   11.3380 H   0  0  0  0  0  0  0  0  0  0  0  0
   49.0447    8.7491   11.4197 H   0  0  0  0  0  0  0  0  0  0  0  0
   48.9522    6.9713   11.2516 H   0  0  0  0  0  0  0  0  0  0  0  0
   44.7255    4.5516   12.9474 H   0  0  0  0  0  0  0  0  0  0  0  0
   46.9261    5.0086   13.9782 H   0  0  0  0  0  0  0  0  0  0  0  0
   46.7581    9.0698   12.5618 H   0  0  0  0  0  0  0  0  0  0  0  0
   43.5331    6.3365   11.7114 H   0  0  0  0  0  0  0  0  0  0  0  0
   44.3785   10.6107   10.7311 H   0  0  0  0  0  0  0  0  0  0  0  0
  1  2  1  0
  1  5  1  0
  2  3  1  0
  3  4  1  0
  2  6  1  0
  2  7  1  0
  8  5  1  0
  5  4  2  0
  4  9  1  0
  8 11  2  0
  9 10  2  0
 10 11  1  0
 11 12  1  0
 12 13  1  0
 13 14  1  0
 14 12  1  0
 12 15  1  0
 15 16  2  0
 15 17  1  0
 17 18  1  0
 19 18  2  0
 18 20  1  0
 19 23  1  0
 20 21  2  0
 21 22  1  0
 22 23  2  0
 22 24  1  0
 23 25  1  0
 27 25  1  0
 25 28  2  0
 26 27  2  0
 26 30  1  0
 28 29  1  0
 29 30  2  0
 29 31  1  0
 31 32  1  0
 31 33  2  0
  8 34  1  0
  9 35  1  0
 10 36  1  0
 13 37  1  0
 13 38  1  0
 14 39  1  0
 14 40  1  0
 17 41  1  0
 20 42  1  0
 21 43  1  0
 24 44  1  0
 24 45  1  0
 24 46  1  0
 26 47  1  0
 27 48  1  0
 28 49  1  0
 30 50  1  0
 32 51  1  0
M  END
> <Uni-Dock RESULT> 
ENERGY=   -4.838  LOWER_BOUND=    4.734  UPPER_BOUND=    9.460
INTER + INTRA:          -4.838
INTER:                  -4.838
INTRA:                   0.000
UNBOUND:                 0.000

$$$$

     RDKit          3D

 51 55  0  0  0  0  0  0  0  0999 V2000
   56.7294    6.9521    8.0475 O   0  0  0  0  0  0  0  0  0  0  0  0
   56.5282    5.9833    7.0096 C   0  0  0  0  0  0  0  0  0  0  0  0
   55.1821    5.8896    6.5227 O   0  0  0  0  0  0  0  0  0  0  0  0
   54.5856    6.8323    7.2988 C   0  0  0  0  0  0  0  0  0  0  0  0
   55.4646    7.4368    8.1653 C   0  0  0  0  0  0  0  0  0  0  0  0
   56.9036    4.7665    7.4755 F   0  0  0  0  0  0  0  0  0  0  0  0
   57.3415    6.2912    5.9690 F   0  0  0  0  0  0  0  0  0  0  0  0
   55.0581    8.4215    9.0423 C   0  0  0  0  0  0  0  0  0  0  0  0
   53.2547    7.1785    7.2642 C   0  0  0  0  0  0  0  0  0  0  0  0
   52.8204    8.1761    8.1449 C   0  0  0  0  0  0  0  0  0  0  0  0
   53.7070    8.8216    9.0453 C   0  0  0  0  0  0  0  0  0  0  0  0
   53.2177    9.8983   10.0120 C   0  0  0  0  0  0  0  0  0  0  0  0
   53.8175   11.2961    9.8577 C   0  0  0  0  0  0  0  0  0  0  0  0
   52.3959   11.0629    9.4607 C   0  0  0  0  0  0  0  0  0  0  0  0
   52.9295    9.4291   11.4212 C   0  0  0  0  0  0  0  0  0  0  0  0
   53.8074    9.5000   12.2696 O   0  0  0  0  0  0  0  0  0  0  0  0
   51.6549    8.9515   11.5745 N   0  0  0  0  0  0  0  0  0  0  0  0
   51.0582    8.4286   12.7188 C   0  0  0  0  0  0  0  0  0  0  0  0
   49.7812    8.0433   12.5215 N   0  0  0  0  0  0  0  0  0  0  0  0
   51.6929    8.3040   13.9412 C   0  0  0  0  0  0  0  0  0  0  0  0
   50.9815    7.7649   15.0103 C   0  0  0  0  0  0  0  0  0  0  0  0
   49.6531    7.3641   14.8406 C   0  0  0  0  0  0  0  0  0  0  0  0
   49.0953    7.5041   13.5645 C   0  0  0  0  0  0  0  0  0  0  0  0
   48.8986    6.7904   16.0037 C   0  0  0  0  0  0  0  0  0  0  0  0
   47.7243    7.0958   13.2220 C   0  0  0  0  0  0  0  0  0  0  0  0
   45.4810    7.6796   12.4588 C   0  0  0  0  0  0  0  0  0  0  0  0
   46.7855    8.0497   12.7925 C   0  0  0  0  0  0  0  0  0  0  0  0
   47.3241    5.7501   13.2873 C   0  0  0  0  0  0  0  0  0  0  0  0
   46.0155    5.3727   12.9545 C   0  0  0  0  0  0  0  0  0  0  0  0
   45.0954    6.3431   12.5424 C   0  0  0  0  0  0  0  0  0  0  0  0
   45.5647    3.9618   13.0194 C   0  0  0  0  0  0  0  0  0  0  0  0
   46.5205    3.1279   13.4660 O   0  0  0  0  0  0  0  0  0  0  0  0
   44.4587    3.5517   12.7195 O   0  0  0  0  0  0  0  0  0  0  0  0
   55.7702    8.8764    9.7258 H   0  0  0  0  0  0  0  0  0  0  0  0
   52.5657    6.6943    6.5806 H   0  0  0  0  0  0  0  0  0  0  0  0
   51.7690    8.4589    8.1321 H   0  0  0  0  0  0  0  0  0  0  0  0
   54.0123   11.8676   10.7596 H   0  0  0  0  0  0  0  0  0  0  0  0
   54.5429   11.4700    9.0706 H   0  0  0  0  0  0  0  0  0  0  0  0
   52.1641   11.0934    8.4019 H   0  0  0  0  0  0  0  0  0  0  0  0
   51.6260   11.5013   10.0869 H   0  0  0  0  0  0  0  0  0  0  0  0
   51.0361    8.9428   10.7769 H   0  0  0  0  0  0  0  0  0  0  0  0
   52.7205    8.6105   14.0950 H   0  0  0  0  0  0  0  0  0  0  0  0
   51.4730    7.6657   15.9755 H   0  0  0  0  0  0  0  0  0  0  0  0
   49.3827    7.0460   16.9527 H   0  0  0  0  0  0  0  0  0  0  0  0
   48.8566    5.6995   15.9289 H   0  0  0  0  0  0  0  0  0  0  0  0
   47.8819    7.1937   16.0508 H   0  0  0  0  0  0  0  0  0  0  0  0
   44.7692    8.4331   12.1303 H   0  0  0  0  0  0  0  0  0  0  0  0
   47.0785    9.0958   12.7149 H   0  0  0  0  0  0  0  0  0  0  0  0
   48.0462    4.9934   13.5878 H   0  0  0  0  0  0  0  0  0  0  0  0
   44.0780    6.0592   12.2794 H   0  0  0  0  0  0  0  0  0  0  0  0
   46.0890    2.2477   13.4513 H   0  0  0  0  0  0  0  0  0  0  0  0
  1  2  1  0
  1  5  1  0
  2  3  1  0
  3  4  1  0
  2  6  1  0
  2  7  1  0
  8  5  1  0
  5  4  2  0
  4  9  1  0
  8 11  2  0
  9 10  2  0
 10 11  1  0
 11 12  1  0
 12 13  1  0
 13 14  1  0
 14 12  1  0
 12 15  1  0
 15 16  2  0
 15 17  1  0
 17 18  1  0
 19 18  2  0
 18 20  1  0
 19 23  1  0
 20 21  2  0
 21 22  1  0
 22 23  2  0
 22 24  1  0
 23 25  1  0
 27 25  1  0
 25 28  2  0
 26 27  2  0
 26 30  1  0
 28 29  1  0
 29 30  2  0
 29 31  1  0
 31 32  1  0
 31 33  2  0
  8 34  1  0
  9 35  1  0
 10 36  1  0
 13 37  1  0
 13 38  1  0
 14 39  1  0
 14 40  1  0
 17 41  1  0
 20 42  1  0
 21 43  1  0
 24 44  1  0
 24 45  1  0
 24 46  1  0
 26 47  1  0
 27 48  1  0
 28 49  1  0
 30 50  1  0
 32 51  1  0
M  END
> <Uni-Dock RESULT> 
ENERGY=   -4.837  LOWER_BOUND=    4.835  UPPER_BOUND=    7.379
INTER + INTRA:          -4.837
INTER:                  -4.837
INTRA:                   0.000
UNBOUND:                 0.000

$$$$

     RDKit          3D

 51 55  0  0  0  0  0  0  0  0999 V2000
   45.4952    4.2779    9.2724 O   0  0  0  0  0  0  0  0  0  0  0  0
   44.6954    3.1239    9.5641 C   0  0  0  0  0  0  0  0  0  0  0  0
   43.9824    3.1811   10.8075 O   0  0  0  0  0  0  0  0  0  0  0  0
   44.3784    4.4038   11.2492 C   0  0  0  0  0  0  0  0  0  0  0  0
   45.2379    5.0278   10.3769 C   0  0  0  0  0  0  0  0  0  0  0  0
   45.5000    2.0327    9.5783 F   0  0  0  0  0  0  0  0  0  0  0  0
   43.7979    2.9570    8.5612 F   0  0  0  0  0  0  0  0  0  0  0  0
   45.7583    6.2783   10.6403 C   0  0  0  0  0  0  0  0  0  0  0  0
   43.9953    4.9953   12.4306 C   0  0  0  0  0  0  0  0  0  0  0  0
   44.5107    6.2648   12.7178 C   0  0  0  0  0  0  0  0  0  0  0  0
   45.3942    6.9351   11.8326 C   0  0  0  0  0  0  0  0  0  0  0  0
   45.9615    8.3138   12.1646 C   0  0  0  0  0  0  0  0  0  0  0  0
   45.6076    9.4586   11.2150 C   0  0  0  0  0  0  0  0  0  0  0  0
   44.9978    9.4252   12.5788 C   0  0  0  0  0  0  0  0  0  0  0  0
   47.3534    8.3222   12.7576 C   0  0  0  0  0  0  0  0  0  0  0  0
   48.3207    8.4407   12.0189 O   0  0  0  0  0  0  0  0  0  0  0  0
   47.3539    8.1808   14.1201 N   0  0  0  0  0  0  0  0  0  0  0  0
   48.4442    8.1298   14.9847 C   0  0  0  0  0  0  0  0  0  0  0  0
   48.0892    7.9788   16.2767 N   0  0  0  0  0  0  0  0  0  0  0  0
   49.7639    8.2185   14.5809 C   0  0  0  0  0  0  0  0  0  0  0  0
   50.7633    8.1552   15.5487 C   0  0  0  0  0  0  0  0  0  0  0  0
   50.4278    8.0080   16.8977 C   0  0  0  0  0  0  0  0  0  0  0  0
   49.0689    7.9030   17.2165 C   0  0  0  0  0  0  0  0  0  0  0  0
   51.5160    7.9472   17.9289 C   0  0  0  0  0  0  0  0  0  0  0  0
   48.5622    7.7098   18.5838 C   0  0  0  0  0  0  0  0  0  0  0  0
   47.2463    8.5127   20.4757 C   0  0  0  0  0  0  0  0  0  0  0  0
   47.7402    8.6813   19.1805 C   0  0  0  0  0  0  0  0  0  0  0  0
   48.8596    6.5480   19.3167 C   0  0  0  0  0  0  0  0  0  0  0  0
   48.3675    6.3736   20.6178 C   0  0  0  0  0  0  0  0  0  0  0  0
   47.5619    7.3615   21.1949 C   0  0  0  0  0  0  0  0  0  0  0  0
   48.6697    5.1609   21.4156 C   0  0  0  0  0  0  0  0  0  0  0  0
   49.4832    4.3032   20.7747 O   0  0  0  0  0  0  0  0  0  0  0  0
   48.2574    4.9229   22.5357 O   0  0  0  0  0  0  0  0  0  0  0  0
   46.4451    6.7461    9.9398 H   0  0  0  0  0  0  0  0  0  0  0  0
   43.3199    4.4953   13.1164 H   0  0  0  0  0  0  0  0  0  0  0  0
   44.2196    6.7448   13.6508 H   0  0  0  0  0  0  0  0  0  0  0  0
   46.3702   10.2034   11.0109 H   0  0  0  0  0  0  0  0  0  0  0  0
   44.9649    9.2541   10.3659 H   0  0  0  0  0  0  0  0  0  0  0  0
   43.9371    9.2097   12.6439 H   0  0  0  0  0  0  0  0  0  0  0  0
   45.3346   10.1693   13.2929 H   0  0  0  0  0  0  0  0  0  0  0  0
   46.4726    8.0810   14.6022 H   0  0  0  0  0  0  0  0  0  0  0  0
   50.0457    8.3353   13.5414 H   0  0  0  0  0  0  0  0  0  0  0  0
   51.8036    8.2265   15.2393 H   0  0  0  0  0  0  0  0  0  0  0  0
   52.4561    8.3484   17.5344 H   0  0  0  0  0  0  0  0  0  0  0  0
   51.6927    6.9115   18.2346 H   0  0  0  0  0  0  0  0  0  0  0  0
   51.2607    8.5496   18.8066 H   0  0  0  0  0  0  0  0  0  0  0  0
   46.6132    9.2769   20.9201 H   0  0  0  0  0  0  0  0  0  0  0  0
   47.4798    9.5809   18.6243 H   0  0  0  0  0  0  0  0  0  0  0  0
   49.4690    5.7709   18.8593 H   0  0  0  0  0  0  0  0  0  0  0  0
   47.1730    7.2337   22.2035 H   0  0  0  0  0  0  0  0  0  0  0  0
   49.5889    3.5626   21.4084 H   0  0  0  0  0  0  0  0  0  0  0  0
  1  2  1  0
  1  5  1  0
  2  3  1  0
  3  4  1  0
  2  6  1  0
  2  7  1  0
  8  5  1  0
  5  4  2  0
  4  9  1  0
  8 11  2  0
  9 10  2  0
 10 11  1  0
 11 12  1  0
 12 13  1  0
 13 14  1  0
 14 12  1  0
 12 15  1  0
 15 16  2  0
 15 17  1  0
 17 18  1  0
 19 18  2  0
 18 20  1  0
 19 23  1  0
 20 21  2  0
 21 22  1  0
 22 23  2  0
 22 24  1  0
 23 25  1  0
 27 25  1  0
 25 28  2  0
 26 27  2  0
 26 30  1  0
 28 29  1  0
 29 30  2  0
 29 31  1  0
 31 32  1  0
 31 33  2  0
  8 34  1  0
  9 35  1  0
 10 36  1  0
 13 37  1  0
 13 38  1  0
 14 39  1  0
 14 40  1  0
 17 41  1  0
 20 42  1  0
 21 43  1  0
 24 44  1  0
 24 45  1  0
 24 46  1  0
 26 47  1  0
 27 48  1  0
 28 49  1  0
 30 50  1  0
 32 51  1  0
M  END
> <Uni-Dock RESULT> 
ENERGY=   -4.801  LOWER_BOUND=    4.820  UPPER_BOUND=    6.689
INTER + INTRA:          -4.801
INTER:                  -4.801
INTRA:                   0.000
UNBOUND:                 0.000

$$$$

     RDKit          3D

 51 55  0  0  0  0  0  0  0  0999 V2000
   46.8640   12.6845   11.9166 O   0  0  0  0  0  0  0  0  0  0  0  0
   46.7634   13.8447   12.7533 C   0  0  0  0  0  0  0  0  0  0  0  0
   47.6248   13.8393   13.9003 O   0  0  0  0  0  0  0  0  0  0  0  0
   48.2442   12.6427   13.7231 C   0  0  0  0  0  0  0  0  0  0  0  0
   47.8125   11.9861   12.5956 C   0  0  0  0  0  0  0  0  0  0  0  0
   45.4810   13.9615   13.1779 F   0  0  0  0  0  0  0  0  0  0  0  0
   47.0482   14.9404   12.0067 F   0  0  0  0  0  0  0  0  0  0  0  0
   48.3158   10.7526   12.2363 C   0  0  0  0  0  0  0  0  0  0  0  0
   49.1997   12.1010   14.5513 C   0  0  0  0  0  0  0  0  0  0  0  0
   49.7249   10.8503   14.2054 C   0  0  0  0  0  0  0  0  0  0  0  0
   49.3026   10.1531   13.0439 C   0  0  0  0  0  0  0  0  0  0  0  0
   49.8725    8.7822   12.6854 C   0  0  0  0  0  0  0  0  0  0  0  0
   50.6310    8.6684   11.3628 C   0  0  0  0  0  0  0  0  0  0  0  0
   51.3899    8.6034   12.6485 C   0  0  0  0  0  0  0  0  0  0  0  0
   49.0268    7.5959   13.0934 C   0  0  0  0  0  0  0  0  0  0  0  0
   48.2231    7.1290   12.2985 O   0  0  0  0  0  0  0  0  0  0  0  0
   49.2767    7.1771   14.3734 N   0  0  0  0  0  0  0  0  0  0  0  0
   48.6772    6.1351   15.0759 C   0  0  0  0  0  0  0  0  0  0  0  0
   49.1586    5.9939   16.3274 N   0  0  0  0  0  0  0  0  0  0  0  0
   47.6851    5.3190   14.5636 C   0  0  0  0  0  0  0  0  0  0  0  0
   47.1688    4.3089   15.3715 C   0  0  0  0  0  0  0  0  0  0  0  0
   47.6530    4.1307   16.6706 C   0  0  0  0  0  0  0  0  0  0  0  0
   48.6413    5.0155   17.1175 C   0  0  0  0  0  0  0  0  0  0  0  0
   47.0905    3.0342   17.5265 C   0  0  0  0  0  0  0  0  0  0  0  0
   49.2233    4.9772   18.4678 C   0  0  0  0  0  0  0  0  0  0  0  0
   51.1645    4.6842   19.9175 C   0  0  0  0  0  0  0  0  0  0  0  0
   50.5939    4.7198   18.6435 C   0  0  0  0  0  0  0  0  0  0  0  0
   48.4400    5.2210   19.6090 C   0  0  0  0  0  0  0  0  0  0  0  0
   49.0071    5.1856   20.8907 C   0  0  0  0  0  0  0  0  0  0  0  0
   50.3716    4.9139   21.0402 C   0  0  0  0  0  0  0  0  0  0  0  0
   48.2037    5.4336   22.1119 C   0  0  0  0  0  0  0  0  0  0  0  0
   46.9019    5.6427   21.8474 O   0  0  0  0  0  0  0  0  0  0  0  0
   48.6266    5.4499   23.2530 O   0  0  0  0  0  0  0  0  0  0  0  0
   47.9498   10.2483   11.3458 H   0  0  0  0  0  0  0  0  0  0  0  0
   49.5328   12.6229   15.4419 H   0  0  0  0  0  0  0  0  0  0  0  0
   50.4796   10.4066   14.8528 H   0  0  0  0  0  0  0  0  0  0  0  0
   50.5149    7.7554   10.7877 H   0  0  0  0  0  0  0  0  0  0  0  0
   50.7470    9.5545   10.7486 H   0  0  0  0  0  0  0  0  0  0  0  0
   52.0286    9.4452   12.8918 H   0  0  0  0  0  0  0  0  0  0  0  0
   51.8097    7.6436   12.9306 H   0  0  0  0  0  0  0  0  0  0  0  0
   49.9662    7.6683   14.9233 H   0  0  0  0  0  0  0  0  0  0  0  0
   47.2974    5.4382   13.5590 H   0  0  0  0  0  0  0  0  0  0  0  0
   46.3899    3.6615   14.9749 H   0  0  0  0  0  0  0  0  0  0  0  0
   46.5762    2.2828   16.9173 H   0  0  0  0  0  0  0  0  0  0  0  0
   46.3685    3.4417   18.2407 H   0  0  0  0  0  0  0  0  0  0  0  0
   47.8850    2.5103   18.0676 H   0  0  0  0  0  0  0  0  0  0  0  0
   52.2266    4.4816   20.0322 H   0  0  0  0  0  0  0  0  0  0  0  0
   51.2248    4.5475   17.7725 H   0  0  0  0  0  0  0  0  0  0  0  0
   47.3833    5.4528   19.4905 H   0  0  0  0  0  0  0  0  0  0  0  0
   50.8213    4.8871   22.0311 H   0  0  0  0  0  0  0  0  0  0  0  0
   46.5047    5.7942   22.7308 H   0  0  0  0  0  0  0  0  0  0  0  0
  1  2  1  0
  1  5  1  0
  2  3  1  0
  3  4  1  0
  2  6  1  0
  2  7  1  0
  8  5  1  0
  5  4  2  0
  4  9  1  0
  8 11  2  0
  9 10  2  0
 10 11  1  0
 11 12  1  0
 12 13  1  0
 13 14  1  0
 14 12  1  0
 12 15  1  0
 15 16  2  0
 15 17  1  0
 17 18  1  0
 19 18  2  0
 18 20  1  0
 19 23  1  0
 20 21  2  0
 21 22  1  0
 22 23  2  0
 22 24  1  0
 23 25  1  0
 27 25  1  0
 25 28  2  0
 26 27  2  0
 26 30  1  0
 28 29  1  0
 29 30  2  0
 29 31  1  0
 31 32  1  0
 31 33  2  0
  8 34  1  0
  9 35  1  0
 10 36  1  0
 13 37  1  0
 13 38  1  0
 14 39  1  0
 14 40  1  0
 17 41  1  0
 20 42  1  0
 21 43  1  0
 24 44  1  0
 24 45  1  0
 24 46  1  0
 26 47  1  0
 27 48  1  0
 28 49  1  0
 30 50  1  0
 32 51  1  0
M  END
> <Uni-Dock RESULT> 
ENERGY=   -4.790  LOWER_BOUND=    3.420  UPPER_BOUND=    4.685
INTER + INTRA:          -4.790
INTER:                  -4.790
INTRA:                   0.000
UNBOUND:                 0.000

$$$$

     RDKit          3D

 51 55  0  0  0  0  0  0  0  0999 V2000
   49.8650   11.2107   22.4479 O   0  0  0  0  0  0  0  0  0  0  0  0
   49.1293   12.3808   22.8299 C   0  0  0  0  0  0  0  0  0  0  0  0
   47.8313   12.5011   22.2312 O   0  0  0  0  0  0  0  0  0  0  0  0
   47.8125   11.3674   21.4819 C   0  0  0  0  0  0  0  0  0  0  0  0
   48.9679   10.6335   21.6050 C   0  0  0  0  0  0  0  0  0  0  0  0
   49.8584   13.4759   22.5018 F   0  0  0  0  0  0  0  0  0  0  0  0
   48.9823   12.3764   24.1780 F   0  0  0  0  0  0  0  0  0  0  0  0
   49.1506    9.4474   20.9238 C   0  0  0  0  0  0  0  0  0  0  0  0
   46.7803   10.9562   20.6709 C   0  0  0  0  0  0  0  0  0  0  0  0
   46.9439    9.7549   19.9709 C   0  0  0  0  0  0  0  0  0  0  0  0
   48.1229    8.9737   20.0842 C   0  0  0  0  0  0  0  0  0  0  0  0
   48.2954    7.6724   19.3035 C   0  0  0  0  0  0  0  0  0  0  0  0
   48.4658    6.3899   20.1181 C   0  0  0  0  0  0  0  0  0  0  0  0
   47.1897    6.6197   19.3753 C   0  0  0  0  0  0  0  0  0  0  0  0
   49.0924    7.7799   18.0220 C   0  0  0  0  0  0  0  0  0  0  0  0
   50.2966    7.5677   18.0435 O   0  0  0  0  0  0  0  0  0  0  0  0
   48.3236    8.1274   16.9429 N   0  0  0  0  0  0  0  0  0  0  0  0
   48.7232    8.3296   15.6245 C   0  0  0  0  0  0  0  0  0  0  0  0
   47.7050    8.6695   14.8084 N   0  0  0  0  0  0  0  0  0  0  0  0
   50.0258    8.2044   15.1769 C   0  0  0  0  0  0  0  0  0  0  0  0
   50.2930    8.4328   13.8293 C   0  0  0  0  0  0  0  0  0  0  0  0
   49.2578    8.7780   12.9556 C   0  0  0  0  0  0  0  0  0  0  0  0
   47.9731    8.9056   13.4965 C   0  0  0  0  0  0  0  0  0  0  0  0
   49.5612    9.0152   11.5055 C   0  0  0  0  0  0  0  0  0  0  0  0
   46.7910    9.2958   12.7129 C   0  0  0  0  0  0  0  0  0  0  0  0
   44.5748    8.7671   11.8386 C   0  0  0  0  0  0  0  0  0  0  0  0
   45.7069    8.4119   12.5748 C   0  0  0  0  0  0  0  0  0  0  0  0
   46.6998   10.5610   12.1077 C   0  0  0  0  0  0  0  0  0  0  0  0
   45.5661   10.9229   11.3665 C   0  0  0  0  0  0  0  0  0  0  0  0
   44.5054   10.0201   11.2326 C   0  0  0  0  0  0  0  0  0  0  0  0
   45.4453   12.2484   10.7132 C   0  0  0  0  0  0  0  0  0  0  0  0
   46.5394   13.0130   10.8764 O   0  0  0  0  0  0  0  0  0  0  0  0
   44.4851   12.6470   10.0805 O   0  0  0  0  0  0  0  0  0  0  0  0
   50.0783    8.8909   21.0291 H   0  0  0  0  0  0  0  0  0  0  0  0
   45.8728   11.5426   20.5752 H   0  0  0  0  0  0  0  0  0  0  0  0
   46.1371    9.4176   19.3221 H   0  0  0  0  0  0  0  0  0  0  0  0
   49.1509    5.6367   19.7423 H   0  0  0  0  0  0  0  0  0  0  0  0
   48.4416    6.4507   21.2005 H   0  0  0  0  0  0  0  0  0  0  0  0
   46.3019    6.8233   19.9635 H   0  0  0  0  0  0  0  0  0  0  0  0
   47.0017    5.9996   18.5052 H   0  0  0  0  0  0  0  0  0  0  0  0
   47.3351    8.2836   17.0760 H   0  0  0  0  0  0  0  0  0  0  0  0
   50.8422    7.9356   15.8363 H   0  0  0  0  0  0  0  0  0  0  0  0
   51.3146    8.3341   13.4693 H   0  0  0  0  0  0  0  0  0  0  0  0
   50.5254    8.5757   11.2271 H   0  0  0  0  0  0  0  0  0  0  0  0
   49.6065   10.0885   11.2971 H   0  0  0  0  0  0  0  0  0  0  0  0
   48.8063    8.5491   10.8641 H   0  0  0  0  0  0  0  0  0  0  0  0
   43.7474    8.0682   11.7424 H   0  0  0  0  0  0  0  0  0  0  0  0
   45.7466    7.4334   13.0516 H   0  0  0  0  0  0  0  0  0  0  0  0
   47.5161   11.2703   12.2298 H   0  0  0  0  0  0  0  0  0  0  0  0
   43.6200   10.2931   10.6614 H   0  0  0  0  0  0  0  0  0  0  0  0
   46.3173   13.8433   10.4049 H   0  0  0  0  0  0  0  0  0  0  0  0
  1  2  1  0
  1  5  1  0
  2  3  1  0
  3  4  1  0
  2  6  1  0
  2  7  1  0
  8  5  1  0
  5  4  2  0
  4  9  1  0
  8 11  2  0
  9 10  2  0
 10 11  1  0
 11 12  1  0
 12 13  1  0
 13 14  1  0
 14 12  1  0
 12 15  1  0
 15 16  2  0
 15 17  1  0
 17 18  1  0
 19 18  2  0
 18 20  1  0
 19 23  1  0
 20 21  2  0
 21 22  1  0
 22 23  2  0
 22 24  1  0
 23 25  1  0
 27 25  1  0
 25 28  2  0
 26 27  2  0
 26 30  1  0
 28 29  1  0
 29 30  2  0
 29 31  1  0
 31 32  1  0
 31 33  2  0
  8 34  1  0
  9 35  1  0
 10 36  1  0
 13 37  1  0
 13 38  1  0
 14 39  1  0
 14 40  1  0
 17 41  1  0
 20 42  1  0
 21 43  1  0
 24 44  1  0
 24 45  1  0
 24 46  1  0
 26 47  1  0
 27 48  1  0
 28 49  1  0
 30 50  1  0
 32 51  1  0
M  END
> <Uni-Dock RESULT> 
ENERGY=   -4.665  LOWER_BOUND=    4.947  UPPER_BOUND=   10.051
INTER + INTRA:          -4.665
INTER:                  -4.665
INTRA:                   0.000
UNBOUND:                 0.000

$$$$
