
     RDKit          3D

 51 55  0  0  0  0  0  0  0  0999 V2000
   51.7274    0.7523   17.0441 O   0  0  0  0  0  0  0  0  0  0  0  0
   53.0257    0.8196   17.6492 C   0  0  0  0  0  0  0  0  0  0  0  0
   53.3004    2.0367   18.3572 O   0  0  0  0  0  0  0  0  0  0  0  0
   52.1276    2.6937   18.1582 C   0  0  0  0  0  0  0  0  0  0  0  0
   51.2329    1.9641   17.4124 C   0  0  0  0  0  0  0  0  0  0  0  0
   53.1532   -0.2182   18.5128 F   0  0  0  0  0  0  0  0  0  0  0  0
   53.9622    0.6633   16.6814 F   0  0  0  0  0  0  0  0  0  0  0  0
   49.9822    2.4533   17.0960 C   0  0  0  0  0  0  0  0  0  0  0  0
   51.8200    3.9505   18.6254 C   0  0  0  0  0  0  0  0  0  0  0  0
   50.5558    4.4664   18.3169 C   0  0  0  0  0  0  0  0  0  0  0  0
   49.6104    3.7326   17.5546 C   0  0  0  0  0  0  0  0  0  0  0  0
   48.2395    4.3128   17.2120 C   0  0  0  0  0  0  0  0  0  0  0  0
   47.3840    4.8923   18.3379 C   0  0  0  0  0  0  0  0  0  0  0  0
   47.0160    3.5694   17.7481 C   0  0  0  0  0  0  0  0  0  0  0  0
   48.1167    4.9298   15.8361 C   0  0  0  0  0  0  0  0  0  0  0  0
   47.7205    4.2451   14.9034 O   0  0  0  0  0  0  0  0  0  0  0  0
   48.4928    6.2466   15.8060 N   0  0  0  0  0  0  0  0  0  0  0  0
   48.5196    7.1146   14.7179 C   0  0  0  0  0  0  0  0  0  0  0  0
   48.9501    8.3516   15.0374 N   0  0  0  0  0  0  0  0  0  0  0  0
   48.1500    6.7643   13.4319 C   0  0  0  0  0  0  0  0  0  0  0  0
   48.2190    7.7307   12.4313 C   0  0  0  0  0  0  0  0  0  0  0  0
   48.6511    9.0254   12.7327 C   0  0  0  0  0  0  0  0  0  0  0  0
   49.0283    9.2878   14.0547 C   0  0  0  0  0  0  0  0  0  0  0  0
   48.7121   10.0582   11.6462 C   0  0  0  0  0  0  0  0  0  0  0  0
   49.5334   10.5890   14.5179 C   0  0  0  0  0  0  0  0  0  0  0  0
   51.2228   12.3482   14.4909 C   0  0  0  0  0  0  0  0  0  0  0  0
   50.7466   11.1144   14.0416 C   0  0  0  0  0  0  0  0  0  0  0  0
   48.8176   11.3269   15.4769 C   0  0  0  0  0  0  0  0  0  0  0  0
   49.2903   12.5652   15.9314 C   0  0  0  0  0  0  0  0  0  0  0  0
   50.4944   13.0740   15.4320 C   0  0  0  0  0  0  0  0  0  0  0  0
   48.5539   13.3676   16.9371 C   0  0  0  0  0  0  0  0  0  0  0  0
   47.4044   12.7908   17.3293 O   0  0  0  0  0  0  0  0  0  0  0  0
   48.9067   14.4416   17.3885 O   0  0  0  0  0  0  0  0  0  0  0  0
   49.2967    1.8614   16.4950 H   0  0  0  0  0  0  0  0  0  0  0  0
   52.5323    4.5225   19.2103 H   0  0  0  0  0  0  0  0  0  0  0  0
   50.2986    5.4614   18.6768 H   0  0  0  0  0  0  0  0  0  0  0  0
   46.7335    5.7328   18.1197 H   0  0  0  0  0  0  0  0  0  0  0  0
   47.7716    4.8948   19.3505 H   0  0  0  0  0  0  0  0  0  0  0  0
   46.1362    3.5159   17.1148 H   0  0  0  0  0  0  0  0  0  0  0  0
   47.1665    2.6834   18.3547 H   0  0  0  0  0  0  0  0  0  0  0  0
   48.8124    6.6839   16.6580 H   0  0  0  0  0  0  0  0  0  0  0  0
   47.8087    5.7680   13.1778 H   0  0  0  0  0  0  0  0  0  0  0  0
   47.9267    7.4637   11.4182 H   0  0  0  0  0  0  0  0  0  0  0  0
   49.7435   10.1925   11.3067 H   0  0  0  0  0  0  0  0  0  0  0  0
   48.3126   11.0169   11.9921 H   0  0  0  0  0  0  0  0  0  0  0  0
   48.1084    9.7587   10.7825 H   0  0  0  0  0  0  0  0  0  0  0  0
   52.1643   12.7389   14.1125 H   0  0  0  0  0  0  0  0  0  0  0  0
   51.3381   10.5517   13.3213 H   0  0  0  0  0  0  0  0  0  0  0  0
   47.8860   10.9206   15.8674 H   0  0  0  0  0  0  0  0  0  0  0  0
   50.8716   14.0337   15.7804 H   0  0  0  0  0  0  0  0  0  0  0  0
   47.0343   13.4233   17.9800 H   0  0  0  0  0  0  0  0  0  0  0  0
  1  2  1  0
  1  5  1  0
  2  3  1  0
  3  4  1  0
  2  6  1  0
  2  7  1  0
  8  5  1  0
  5  4  2  0
  4  9  1  0
  8 11  2  0
  9 10  2  0
 10 11  1  0
 11 12  1  0
 12 13  1  0
 13 14  1  0
 14 12  1  0
 12 15  1  0
 15 16  2  0
 15 17  1  0
 17 18  1  0
 19 18  2  0
 18 20  1  0
 19 23  1  0
 20 21  2  0
 21 22  1  0
 22 23  2  0
 22 24  1  0
 23 25  1  0
 27 25  1  0
 25 28  2  0
 26 27  2  0
 26 30  1  0
 28 29  1  0
 29 30  2  0
 29 31  1  0
 31 32  1  0
 31 33  2  0
  8 34  1  0
  9 35  1  0
 10 36  1  0
 13 37  1  0
 13 38  1  0
 14 39  1  0
 14 40  1  0
 17 41  1  0
 20 42  1  0
 21 43  1  0
 24 44  1  0
 24 45  1  0
 24 46  1  0
 26 47  1  0
 27 48  1  0
 28 49  1  0
 30 50  1  0
 32 51  1  0
M  END
> <Uni-Dock RESULT> 
ENERGY=   -5.404  LOWER_BOUND=    0.000  UPPER_BOUND=    0.000
INTER + INTRA:          -5.404
INTER:                  -5.404
INTRA:                   0.000
UNBOUND:                 0.000

$$$$

     RDKit          3D

 51 55  0  0  0  0  0  0  0  0999 V2000
   43.9099    7.1016   11.9962 O   0  0  0  0  0  0  0  0  0  0  0  0
   43.4092    5.7853   11.7268 C   0  0  0  0  0  0  0  0  0  0  0  0
   44.3075    4.7171   12.0583 O   0  0  0  0  0  0  0  0  0  0  0  0
   45.3590    5.4341   12.5349 C   0  0  0  0  0  0  0  0  0  0  0  0
   45.1334    6.7895   12.5003 C   0  0  0  0  0  0  0  0  0  0  0  0
   42.2585    5.6108   12.4229 F   0  0  0  0  0  0  0  0  0  0  0  0
   43.1060    5.6996   10.4080 F   0  0  0  0  0  0  0  0  0  0  0  0
   46.0785    7.6943   12.9383 C   0  0  0  0  0  0  0  0  0  0  0  0
   46.5408    4.9122   13.0073 C   0  0  0  0  0  0  0  0  0  0  0  0
   47.5138    5.8122   13.4577 C   0  0  0  0  0  0  0  0  0  0  0  0
   47.3052    7.2155   13.4396 C   0  0  0  0  0  0  0  0  0  0  0  0
   48.3808    8.1879   13.9202 C   0  0  0  0  0  0  0  0  0  0  0  0
   49.0168    7.9620   15.2912 C   0  0  0  0  0  0  0  0  0  0  0  0
   48.0332    9.0734   15.1170 C   0  0  0  0  0  0  0  0  0  0  0  0
   49.2327    8.8080   12.8347 C   0  0  0  0  0  0  0  0  0  0  0  0
   48.9061    9.8848   12.3556 O   0  0  0  0  0  0  0  0  0  0  0  0
   50.3167    8.0393   12.5022 N   0  0  0  0  0  0  0  0  0  0  0  0
   51.2964    8.2918   11.5459 C   0  0  0  0  0  0  0  0  0  0  0  0
   52.2265    7.3187   11.4706 N   0  0  0  0  0  0  0  0  0  0  0  0
   51.3298    9.4171   10.7423 C   0  0  0  0  0  0  0  0  0  0  0  0
   52.3699    9.5515    9.8257 C   0  0  0  0  0  0  0  0  0  0  0  0
   53.3556    8.5651    9.7309 C   0  0  0  0  0  0  0  0  0  0  0  0
   53.2324    7.4482   10.5652 C   0  0  0  0  0  0  0  0  0  0  0  0
   54.4746    8.7278    8.7448 C   0  0  0  0  0  0  0  0  0  0  0  0
   54.1700    6.3152   10.5586 C   0  0  0  0  0  0  0  0  0  0  0  0
   55.1985    4.4104    9.4347 C   0  0  0  0  0  0  0  0  0  0  0  0
   54.3102    5.4882    9.4311 C   0  0  0  0  0  0  0  0  0  0  0  0
   54.9319    6.0188   11.7023 C   0  0  0  0  0  0  0  0  0  0  0  0
   55.8247    4.9387   11.7118 C   0  0  0  0  0  0  0  0  0  0  0  0
   55.9568    4.1377   10.5720 C   0  0  0  0  0  0  0  0  0  0  0  0
   56.6450    4.6063   12.9010 C   0  0  0  0  0  0  0  0  0  0  0  0
   56.4499    5.4534   13.9267 O   0  0  0  0  0  0  0  0  0  0  0  0
   57.4293    3.6796   12.9888 O   0  0  0  0  0  0  0  0  0  0  0  0
   45.8807    8.7619   12.8901 H   0  0  0  0  0  0  0  0  0  0  0  0
   46.7137    3.8416   13.0283 H   0  0  0  0  0  0  0  0  0  0  0  0
   48.4561    5.4146   13.8317 H   0  0  0  0  0  0  0  0  0  0  0  0
   50.0567    8.2357   15.4359 H   0  0  0  0  0  0  0  0  0  0  0  0
   48.7051    7.1108   15.8863 H   0  0  0  0  0  0  0  0  0  0  0  0
   48.4045   10.0933   15.1191 H   0  0  0  0  0  0  0  0  0  0  0  0
   47.0591    8.9670   15.5810 H   0  0  0  0  0  0  0  0  0  0  0  0
   50.4570    7.1596   12.9772 H   0  0  0  0  0  0  0  0  0  0  0  0
   50.5783   10.1950   10.8024 H   0  0  0  0  0  0  0  0  0  0  0  0
   52.4049   10.4354    9.1927 H   0  0  0  0  0  0  0  0  0  0  0  0
   54.2950    8.1090    7.8605 H   0  0  0  0  0  0  0  0  0  0  0  0
   55.4360    8.4564    9.1927 H   0  0  0  0  0  0  0  0  0  0  0  0
   54.5630    9.7691    8.4162 H   0  0  0  0  0  0  0  0  0  0  0  0
   55.2933    3.7801    8.5537 H   0  0  0  0  0  0  0  0  0  0  0  0
   53.7112    5.6747    8.5413 H   0  0  0  0  0  0  0  0  0  0  0  0
   54.8173    6.6411   12.5883 H   0  0  0  0  0  0  0  0  0  0  0  0
   56.6456    3.2950   10.5699 H   0  0  0  0  0  0  0  0  0  0  0  0
   57.0474    5.1165   14.6266 H   0  0  0  0  0  0  0  0  0  0  0  0
  1  2  1  0
  1  5  1  0
  2  3  1  0
  3  4  1  0
  2  6  1  0
  2  7  1  0
  8  5  1  0
  5  4  2  0
  4  9  1  0
  8 11  2  0
  9 10  2  0
 10 11  1  0
 11 12  1  0
 12 13  1  0
 13 14  1  0
 14 12  1  0
 12 15  1  0
 15 16  2  0
 15 17  1  0
 17 18  1  0
 19 18  2  0
 18 20  1  0
 19 23  1  0
 20 21  2  0
 21 22  1  0
 22 23  2  0
 22 24  1  0
 23 25  1  0
 27 25  1  0
 25 28  2  0
 26 27  2  0
 26 30  1  0
 28 29  1  0
 29 30  2  0
 29 31  1  0
 31 32  1  0
 31 33  2  0
  8 34  1  0
  9 35  1  0
 10 36  1  0
 13 37  1  0
 13 38  1  0
 14 39  1  0
 14 40  1  0
 17 41  1  0
 20 42  1  0
 21 43  1  0
 24 44  1  0
 24 45  1  0
 24 46  1  0
 26 47  1  0
 27 48  1  0
 28 49  1  0
 30 50  1  0
 32 51  1  0
M  END
> <Uni-Dock RESULT> 
ENERGY=   -4.832  LOWER_BOUND=    5.926  UPPER_BOUND=    8.843
INTER + INTRA:          -4.832
INTER:                  -4.832
INTRA:                   0.000
UNBOUND:                 0.000

$$$$

     RDKit          3D

 51 55  0  0  0  0  0  0  0  0999 V2000
   43.9119    7.1062   12.0040 O   0  0  0  0  0  0  0  0  0  0  0  0
   43.4095    5.7909   11.7329 C   0  0  0  0  0  0  0  0  0  0  0  0
   44.3074    4.7213   12.0610 O   0  0  0  0  0  0  0  0  0  0  0  0
   45.3602    5.4364   12.5373 C   0  0  0  0  0  0  0  0  0  0  0  0
   45.1359    6.7920   12.5056 C   0  0  0  0  0  0  0  0  0  0  0  0
   42.2597    5.6162   12.4304 F   0  0  0  0  0  0  0  0  0  0  0  0
   43.1043    5.7080   10.4145 F   0  0  0  0  0  0  0  0  0  0  0  0
   46.0825    7.6952   12.9440 C   0  0  0  0  0  0  0  0  0  0  0  0
   46.5423    4.9125   13.0070 C   0  0  0  0  0  0  0  0  0  0  0  0
   47.5168    5.8107   13.4577 C   0  0  0  0  0  0  0  0  0  0  0  0
   47.3095    7.2143   13.4425 C   0  0  0  0  0  0  0  0  0  0  0  0
   48.3867    8.1847   13.9232 C   0  0  0  0  0  0  0  0  0  0  0  0
   49.0247    7.9556   15.2929 C   0  0  0  0  0  0  0  0  0  0  0  0
   48.0419    9.0683   15.1222 C   0  0  0  0  0  0  0  0  0  0  0  0
   49.2376    8.8061   12.8376 C   0  0  0  0  0  0  0  0  0  0  0  0
   48.9112    9.8841   12.3610 O   0  0  0  0  0  0  0  0  0  0  0  0
   50.3203    8.0370   12.5021 N   0  0  0  0  0  0  0  0  0  0  0  0
   51.2988    8.2903   11.5447 C   0  0  0  0  0  0  0  0  0  0  0  0
   52.2279    7.3165   11.4662 N   0  0  0  0  0  0  0  0  0  0  0  0
   51.3321    9.4171   10.7432 C   0  0  0  0  0  0  0  0  0  0  0  0
   52.3709    9.5523    9.8253 C   0  0  0  0  0  0  0  0  0  0  0  0
   53.3556    8.5652    9.7272 C   0  0  0  0  0  0  0  0  0  0  0  0
   53.2325    7.4467   10.5595 C   0  0  0  0  0  0  0  0  0  0  0  0
   54.4732    8.7286    8.7396 C   0  0  0  0  0  0  0  0  0  0  0  0
   54.1691    6.3129   10.5494 C   0  0  0  0  0  0  0  0  0  0  0  0
   55.1941    4.4092    9.4203 C   0  0  0  0  0  0  0  0  0  0  0  0
   54.3068    5.4879    9.4201 C   0  0  0  0  0  0  0  0  0  0  0  0
   54.9325    6.0136   11.6914 C   0  0  0  0  0  0  0  0  0  0  0  0
   55.8243    4.9327   11.6974 C   0  0  0  0  0  0  0  0  0  0  0  0
   55.9539    4.1338   10.5560 C   0  0  0  0  0  0  0  0  0  0  0  0
   56.6460    4.5973   12.8848 C   0  0  0  0  0  0  0  0  0  0  0  0
   56.4533    5.4427   13.9124 O   0  0  0  0  0  0  0  0  0  0  0  0
   57.4296    3.6697   12.9696 O   0  0  0  0  0  0  0  0  0  0  0  0
   45.8856    8.7631   12.8980 H   0  0  0  0  0  0  0  0  0  0  0  0
   46.7142    3.8417   13.0257 H   0  0  0  0  0  0  0  0  0  0  0  0
   48.4593    5.4115   13.8294 H   0  0  0  0  0  0  0  0  0  0  0  0
   50.0651    8.2281   15.4365 H   0  0  0  0  0  0  0  0  0  0  0  0
   48.7131    7.1037   15.8868 H   0  0  0  0  0  0  0  0  0  0  0  0
   48.4140   10.0878   15.1257 H   0  0  0  0  0  0  0  0  0  0  0  0
   47.0683    8.9619   15.5876 H   0  0  0  0  0  0  0  0  0  0  0  0
   50.4606    7.1563   12.9752 H   0  0  0  0  0  0  0  0  0  0  0  0
   50.5814   10.1956   10.8059 H   0  0  0  0  0  0  0  0  0  0  0  0
   52.4058   10.4373    9.1939 H   0  0  0  0  0  0  0  0  0  0  0  0
   54.2917    8.1117    7.8544 H   0  0  0  0  0  0  0  0  0  0  0  0
   55.4350    8.4555    9.1855 H   0  0  0  0  0  0  0  0  0  0  0  0
   54.5621    9.7705    8.4129 H   0  0  0  0  0  0  0  0  0  0  0  0
   55.2869    3.7805    8.5380 H   0  0  0  0  0  0  0  0  0  0  0  0
   53.7067    5.6766    8.5316 H   0  0  0  0  0  0  0  0  0  0  0  0
   54.8198    6.6344   12.5787 H   0  0  0  0  0  0  0  0  0  0  0  0
   56.6419    3.2904   10.5512 H   0  0  0  0  0  0  0  0  0  0  0  0
   57.0516    5.1038   14.6107 H   0  0  0  0  0  0  0  0  0  0  0  0
  1  2  1  0
  1  5  1  0
  2  3  1  0
  3  4  1  0
  2  6  1  0
  2  7  1  0
  8  5  1  0
  5  4  2  0
  4  9  1  0
  8 11  2  0
  9 10  2  0
 10 11  1  0
 11 12  1  0
 12 13  1  0
 13 14  1  0
 14 12  1  0
 12 15  1  0
 15 16  2  0
 15 17  1  0
 17 18  1  0
 19 18  2  0
 18 20  1  0
 19 23  1  0
 20 21  2  0
 21 22  1  0
 22 23  2  0
 22 24  1  0
 23 25  1  0
 27 25  1  0
 25 28  2  0
 26 27  2  0
 26 30  1  0
 28 29  1  0
 29 30  2  0
 29 31  1  0
 31 32  1  0
 31 33  2  0
  8 34  1  0
  9 35  1  0
 10 36  1  0
 13 37  1  0
 13 38  1  0
 14 39  1  0
 14 40  1  0
 17 41  1  0
 20 42  1  0
 21 43  1  0
 24 44  1  0
 24 45  1  0
 24 46  1  0
 26 47  1  0
 27 48  1  0
 28 49  1  0
 30 50  1  0
 32 51  1  0
M  END
> <Uni-Dock RESULT> 
ENERGY=   -4.832  LOWER_BOUND=    5.928  UPPER_BOUND=    8.845
INTER + INTRA:          -4.832
INTER:                  -4.832
INTRA:                   0.000
UNBOUND:                 0.000

$$$$

     RDKit          3D

 51 55  0  0  0  0  0  0  0  0999 V2000
   51.6575   10.1197   18.0779 O   0  0  0  0  0  0  0  0  0  0  0  0
   51.6654    9.1565   19.1400 C   0  0  0  0  0  0  0  0  0  0  0  0
   51.3701    7.8113   18.7385 O   0  0  0  0  0  0  0  0  0  0  0  0
   51.1869    7.9993   17.4052 C   0  0  0  0  0  0  0  0  0  0  0  0
   51.3505    9.3110   17.0289 C   0  0  0  0  0  0  0  0  0  0  0  0
   52.8881    9.1714   19.7266 F   0  0  0  0  0  0  0  0  0  0  0  0
   50.7593    9.5360   20.0745 F   0  0  0  0  0  0  0  0  0  0  0  0
   51.2057    9.7137   15.7172 C   0  0  0  0  0  0  0  0  0  0  0  0
   50.8685    7.0218   16.4910 C   0  0  0  0  0  0  0  0  0  0  0  0
   50.7175    7.4079   15.1539 C   0  0  0  0  0  0  0  0  0  0  0  0
   50.8871    8.7534   14.7366 C   0  0  0  0  0  0  0  0  0  0  0  0
   50.7049    9.1645   13.2768 C   0  0  0  0  0  0  0  0  0  0  0  0
   51.4479    8.3824   12.1943 C   0  0  0  0  0  0  0  0  0  0  0  0
   51.9227    9.7507   12.5622 C   0  0  0  0  0  0  0  0  0  0  0  0
   49.3567    9.7556   12.9280 C   0  0  0  0  0  0  0  0  0  0  0  0
   49.2029   10.9682   12.9698 O   0  0  0  0  0  0  0  0  0  0  0  0
   48.4262    8.8056   12.5994 N   0  0  0  0  0  0  0  0  0  0  0  0
   47.0930    8.9870   12.2416 C   0  0  0  0  0  0  0  0  0  0  0  0
   46.4516    7.8295   11.9833 N   0  0  0  0  0  0  0  0  0  0  0  0
   46.4693   10.2185   12.1566 C   0  0  0  0  0  0  0  0  0  0  0  0
   45.1285   10.2628   11.7822 C   0  0  0  0  0  0  0  0  0  0  0  0
   44.4385    9.0810   11.4974 C   0  0  0  0  0  0  0  0  0  0  0  0
   45.1394    7.8770   11.6311 C   0  0  0  0  0  0  0  0  0  0  0  0
   42.9967    9.1449   11.0872 C   0  0  0  0  0  0  0  0  0  0  0  0
   44.5424    6.5532   11.3988 C   0  0  0  0  0  0  0  0  0  0  0  0
   42.9455    4.8058   11.9869 C   0  0  0  0  0  0  0  0  0  0  0  0
   43.5033    6.0667   12.2101 C   0  0  0  0  0  0  0  0  0  0  0  0
   45.0241    5.7295   10.3663 C   0  0  0  0  0  0  0  0  0  0  0  0
   44.4685    4.4636   10.1376 C   0  0  0  0  0  0  0  0  0  0  0  0
   43.4252    4.0066   10.9505 C   0  0  0  0  0  0  0  0  0  0  0  0
   44.9521    3.5763    9.0530 C   0  0  0  0  0  0  0  0  0  0  0  0
   45.9407    4.1263    8.3264 O   0  0  0  0  0  0  0  0  0  0  0  0
   44.5299    2.4624    8.8024 O   0  0  0  0  0  0  0  0  0  0  0  0
   51.3291   10.7591   15.4467 H   0  0  0  0  0  0  0  0  0  0  0  0
   50.7370    5.9891   16.7954 H   0  0  0  0  0  0  0  0  0  0  0  0
   50.4623    6.6463   14.4188 H   0  0  0  0  0  0  0  0  0  0  0  0
   50.9800    8.2623   11.2228 H   0  0  0  0  0  0  0  0  0  0  0  0
   52.0741    7.5450   12.4811 H   0  0  0  0  0  0  0  0  0  0  0  0
   51.7575   10.5589   11.8569 H   0  0  0  0  0  0  0  0  0  0  0  0
   52.8574    9.8352   13.1052 H   0  0  0  0  0  0  0  0  0  0  0  0
   48.6929    7.8321   12.6182 H   0  0  0  0  0  0  0  0  0  0  0  0
   46.9866   11.1463   12.3691 H   0  0  0  0  0  0  0  0  0  0  0  0
   44.6320   11.2278   11.7098 H   0  0  0  0  0  0  0  0  0  0  0  0
   42.3497    8.8821   11.9294 H   0  0  0  0  0  0  0  0  0  0  0  0
   42.7967    8.4716   10.2475 H   0  0  0  0  0  0  0  0  0  0  0  0
   42.7253   10.1527   10.7542 H   0  0  0  0  0  0  0  0  0  0  0  0
   42.1428    4.4448   12.6254 H   0  0  0  0  0  0  0  0  0  0  0  0
   43.1300    6.6694   13.0364 H   0  0  0  0  0  0  0  0  0  0  0  0
   45.8420    6.0882    9.7435 H   0  0  0  0  0  0  0  0  0  0  0  0
   42.9883    3.0239   10.7828 H   0  0  0  0  0  0  0  0  0  0  0  0
   46.1528    3.4394    7.6603 H   0  0  0  0  0  0  0  0  0  0  0  0
  1  2  1  0
  1  5  1  0
  2  3  1  0
  3  4  1  0
  2  6  1  0
  2  7  1  0
  8  5  1  0
  5  4  2  0
  4  9  1  0
  8 11  2  0
  9 10  2  0
 10 11  1  0
 11 12  1  0
 12 13  1  0
 13 14  1  0
 14 12  1  0
 12 15  1  0
 15 16  2  0
 15 17  1  0
 17 18  1  0
 19 18  2  0
 18 20  1  0
 19 23  1  0
 20 21  2  0
 21 22  1  0
 22 23  2  0
 22 24  1  0
 23 25  1  0
 27 25  1  0
 25 28  2  0
 26 27  2  0
 26 30  1  0
 28 29  1  0
 29 30  2  0
 29 31  1  0
 31 32  1  0
 31 33  2  0
  8 34  1  0
  9 35  1  0
 10 36  1  0
 13 37  1  0
 13 38  1  0
 14 39  1  0
 14 40  1  0
 17 41  1  0
 20 42  1  0
 21 43  1  0
 24 44  1  0
 24 45  1  0
 24 46  1  0
 26 47  1  0
 27 48  1  0
 28 49  1  0
 30 50  1  0
 32 51  1  0
M  END
> <Uni-Dock RESULT> 
ENERGY=   -4.647  LOWER_BOUND=    4.789  UPPER_BOUND=    8.188
INTER + INTRA:          -4.647
INTER:                  -4.647
INTRA:                   0.000
UNBOUND:                 0.000

$$$$

     RDKit          3D

 51 55  0  0  0  0  0  0  0  0999 V2000
   45.5820    3.7508   14.0096 O   0  0  0  0  0  0  0  0  0  0  0  0
   45.3193    4.0471   12.6315 C   0  0  0  0  0  0  0  0  0  0  0  0
   46.1476    5.0723   12.0650 O   0  0  0  0  0  0  0  0  0  0  0  0
   46.9136    5.3786   13.1449 C   0  0  0  0  0  0  0  0  0  0  0  0
   46.5929    4.6275   14.2504 C   0  0  0  0  0  0  0  0  0  0  0  0
   45.4841    2.9124   11.9075 F   0  0  0  0  0  0  0  0  0  0  0  0
   44.0228    4.4247   12.5101 F   0  0  0  0  0  0  0  0  0  0  0  0
   47.2527    4.7854   15.4519 C   0  0  0  0  0  0  0  0  0  0  0  0
   47.9087    6.3275   13.1825 C   0  0  0  0  0  0  0  0  0  0  0  0
   48.5921    6.5042   14.3915 C   0  0  0  0  0  0  0  0  0  0  0  0
   48.2864    5.7383   15.5462 C   0  0  0  0  0  0  0  0  0  0  0  0
   49.0294    5.9509   16.8637 C   0  0  0  0  0  0  0  0  0  0  0  0
   50.5576    5.9476   16.8551 C   0  0  0  0  0  0  0  0  0  0  0  0
   49.8281    4.7675   17.4106 C   0  0  0  0  0  0  0  0  0  0  0  0
   48.3260    6.8279   17.8761 C   0  0  0  0  0  0  0  0  0  0  0  0
   47.6047    6.3134   18.7191 O   0  0  0  0  0  0  0  0  0  0  0  0
   48.5945    8.1604   17.7060 N   0  0  0  0  0  0  0  0  0  0  0  0
   48.1134    9.2409   18.4402 C   0  0  0  0  0  0  0  0  0  0  0  0
   48.5769   10.4283   18.0009 N   0  0  0  0  0  0  0  0  0  0  0  0
   47.2458    9.1310   19.5118 C   0  0  0  0  0  0  0  0  0  0  0  0
   46.8427   10.2928   20.1657 C   0  0  0  0  0  0  0  0  0  0  0  0
   47.3141   11.5384   19.7411 C   0  0  0  0  0  0  0  0  0  0  0  0
   48.1702   11.5606   18.6341 C   0  0  0  0  0  0  0  0  0  0  0  0
   46.8778   12.7805   20.4605 C   0  0  0  0  0  0  0  0  0  0  0  0
   48.7214   12.7932   18.0513 C   0  0  0  0  0  0  0  0  0  0  0  0
   48.4208   14.9230   16.9011 C   0  0  0  0  0  0  0  0  0  0  0  0
   47.8892   13.7576   17.4579 C   0  0  0  0  0  0  0  0  0  0  0  0
   50.1090   13.0193   18.0527 C   0  0  0  0  0  0  0  0  0  0  0  0
   50.6481   14.1866   17.4956 C   0  0  0  0  0  0  0  0  0  0  0  0
   49.7977   15.1387   16.9225 C   0  0  0  0  0  0  0  0  0  0  0  0
   52.1062   14.4542   17.4882 C   0  0  0  0  0  0  0  0  0  0  0  0
   52.8212   13.4825   18.0818 O   0  0  0  0  0  0  0  0  0  0  0  0
   52.6478   15.4352   17.0129 O   0  0  0  0  0  0  0  0  0  0  0  0
   46.9728    4.1872   16.3151 H   0  0  0  0  0  0  0  0  0  0  0  0
   48.1541    6.9195   12.3074 H   0  0  0  0  0  0  0  0  0  0  0  0
   49.3804    7.2538   14.4381 H   0  0  0  0  0  0  0  0  0  0  0  0
   51.0851    6.5831   17.5588 H   0  0  0  0  0  0  0  0  0  0  0  0
   51.0819    5.8111   15.9159 H   0  0  0  0  0  0  0  0  0  0  0  0
   49.8395    4.6155   18.4851 H   0  0  0  0  0  0  0  0  0  0  0  0
   49.8495    3.8439   16.8430 H   0  0  0  0  0  0  0  0  0  0  0  0
   49.2055    8.4445   16.9542 H   0  0  0  0  0  0  0  0  0  0  0  0
   46.8719    8.1755   19.8594 H   0  0  0  0  0  0  0  0  0  0  0  0
   46.1633   10.2142   21.0114 H   0  0  0  0  0  0  0  0  0  0  0  0
   46.0990   13.2963   19.8907 H   0  0  0  0  0  0  0  0  0  0  0  0
   47.7223   13.4580   20.6228 H   0  0  0  0  0  0  0  0  0  0  0  0
   46.4709   12.5418   21.4493 H   0  0  0  0  0  0  0  0  0  0  0  0
   47.7620   15.6580   16.4449 H   0  0  0  0  0  0  0  0  0  0  0  0
   46.8134   13.5960   17.4147 H   0  0  0  0  0  0  0  0  0  0  0  0
   50.7650   12.2699   18.4925 H   0  0  0  0  0  0  0  0  0  0  0  0
   50.2066   16.0476   16.4849 H   0  0  0  0  0  0  0  0  0  0  0  0
   53.7479   13.7918   18.0037 H   0  0  0  0  0  0  0  0  0  0  0  0
  1  2  1  0
  1  5  1  0
  2  3  1  0
  3  4  1  0
  2  6  1  0
  2  7  1  0
  8  5  1  0
  5  4  2  0
  4  9  1  0
  8 11  2  0
  9 10  2  0
 10 11  1  0
 11 12  1  0
 12 13  1  0
 13 14  1  0
 14 12  1  0
 12 15  1  0
 15 16  2  0
 15 17  1  0
 17 18  1  0
 19 18  2  0
 18 20  1  0
 19 23  1  0
 20 21  2  0
 21 22  1  0
 22 23  2  0
 22 24  1  0
 23 25  1  0
 27 25  1  0
 25 28  2  0
 26 27  2  0
 26 30  1  0
 28 29  1  0
 29 30  2  0
 29 31  1  0
 31 32  1  0
 31 33  2  0
  8 34  1  0
  9 35  1  0
 10 36  1  0
 13 37  1  0
 13 38  1  0
 14 39  1  0
 14 40  1  0
 17 41  1  0
 20 42  1  0
 21 43  1  0
 24 44  1  0
 24 45  1  0
 24 46  1  0
 26 47  1  0
 27 48  1  0
 28 49  1  0
 30 50  1  0
 32 51  1  0
M  END
> <Uni-Dock RESULT> 
ENERGY=   -4.602  LOWER_BOUND=    4.125  UPPER_BOUND=    6.073
INTER + INTRA:          -4.602
INTER:                  -4.602
INTRA:                   0.000
UNBOUND:                 0.000

$$$$

     RDKit          3D

 51 55  0  0  0  0  0  0  0  0999 V2000
   50.1246    7.0018   22.2147 O   0  0  0  0  0  0  0  0  0  0  0  0
   48.9767    7.3119   23.0160 C   0  0  0  0  0  0  0  0  0  0  0  0
   47.7182    6.9314   22.4421 O   0  0  0  0  0  0  0  0  0  0  0  0
   48.1484    6.3838   21.2751 C   0  0  0  0  0  0  0  0  0  0  0  0
   49.5161    6.4230   21.1454 C   0  0  0  0  0  0  0  0  0  0  0  0
   49.1074    6.6917   24.2149 F   0  0  0  0  0  0  0  0  0  0  0  0
   48.9587    8.6478   23.2467 F   0  0  0  0  0  0  0  0  0  0  0  0
   50.1546    5.9193   20.0309 C   0  0  0  0  0  0  0  0  0  0  0  0
   47.3472    5.8407   20.2976 C   0  0  0  0  0  0  0  0  0  0  0  0
   47.9740    5.3229   19.1580 C   0  0  0  0  0  0  0  0  0  0  0  0
   49.3841    5.3443   19.0008 C   0  0  0  0  0  0  0  0  0  0  0  0
   50.0550    4.7893   17.7458 C   0  0  0  0  0  0  0  0  0  0  0  0
   49.6875    3.3822   17.2765 C   0  0  0  0  0  0  0  0  0  0  0  0
   51.0110    3.6109   17.9315 C   0  0  0  0  0  0  0  0  0  0  0  0
   50.4277    5.8140   16.6970 C   0  0  0  0  0  0  0  0  0  0  0  0
   51.5476    6.3053   16.7077 O   0  0  0  0  0  0  0  0  0  0  0  0
   49.4053    6.0822   15.8257 N   0  0  0  0  0  0  0  0  0  0  0  0
   49.3911    6.9724   14.7554 C   0  0  0  0  0  0  0  0  0  0  0  0
   48.2126    6.9951   14.1009 N   0  0  0  0  0  0  0  0  0  0  0  0
   50.4632    7.7642   14.3857 C   0  0  0  0  0  0  0  0  0  0  0  0
   50.3199    8.6116   13.2897 C   0  0  0  0  0  0  0  0  0  0  0  0
   49.1142    8.6505   12.5837 C   0  0  0  0  0  0  0  0  0  0  0  0
   48.0733    7.8337   13.0399 C   0  0  0  0  0  0  0  0  0  0  0  0
   48.9774    9.5622   11.4000 C   0  0  0  0  0  0  0  0  0  0  0  0
   46.7390    7.7886   12.4232 C   0  0  0  0  0  0  0  0  0  0  0  0
   44.6246    8.8582   11.8445 C   0  0  0  0  0  0  0  0  0  0  0  0
   45.8929    8.9107   12.4270 C   0  0  0  0  0  0  0  0  0  0  0  0
   46.2690    6.6008   11.8360 C   0  0  0  0  0  0  0  0  0  0  0  0
   44.9975    6.5422   11.2500 C   0  0  0  0  0  0  0  0  0  0  0  0
   44.1786    7.6768   11.2543 C   0  0  0  0  0  0  0  0  0  0  0  0
   44.4784    5.3055   10.6186 C   0  0  0  0  0  0  0  0  0  0  0  0
   45.3568    4.2883   10.6561 O   0  0  0  0  0  0  0  0  0  0  0  0
   43.3834    5.1745   10.1032 O   0  0  0  0  0  0  0  0  0  0  0  0
   51.2369    5.9725   19.9468 H   0  0  0  0  0  0  0  0  0  0  0  0
   46.2681    5.8164   20.4046 H   0  0  0  0  0  0  0  0  0  0  0  0
   47.3533    4.8925   18.3737 H   0  0  0  0  0  0  0  0  0  0  0  0
   49.6888    3.1697   16.2125 H   0  0  0  0  0  0  0  0  0  0  0  0
   48.9494    2.8143   17.8317 H   0  0  0  0  0  0  0  0  0  0  0  0
   51.9028    3.5779   17.3138 H   0  0  0  0  0  0  0  0  0  0  0  0
   51.1605    3.2105   18.9281 H   0  0  0  0  0  0  0  0  0  0  0  0
   48.5233    5.6054   15.9444 H   0  0  0  0  0  0  0  0  0  0  0  0
   51.4073    7.7465   14.9166 H   0  0  0  0  0  0  0  0  0  0  0  0
   51.1597    9.2349   12.9908 H   0  0  0  0  0  0  0  0  0  0  0  0
   48.4164   10.4605   11.6748 H   0  0  0  0  0  0  0  0  0  0  0  0
   48.4744    9.0559   10.5698 H   0  0  0  0  0  0  0  0  0  0  0  0
   49.9588    9.8770   11.0287 H   0  0  0  0  0  0  0  0  0  0  0  0
   43.9827    9.7358   11.8577 H   0  0  0  0  0  0  0  0  0  0  0  0
   46.2174    9.8355   12.9011 H   0  0  0  0  0  0  0  0  0  0  0  0
   46.9083    5.7195   11.8443 H   0  0  0  0  0  0  0  0  0  0  0  0
   43.1883    7.6411   10.8041 H   0  0  0  0  0  0  0  0  0  0  0  0
   44.8854    3.5542   10.2097 H   0  0  0  0  0  0  0  0  0  0  0  0
  1  2  1  0
  1  5  1  0
  2  3  1  0
  3  4  1  0
  2  6  1  0
  2  7  1  0
  8  5  1  0
  5  4  2  0
  4  9  1  0
  8 11  2  0
  9 10  2  0
 10 11  1  0
 11 12  1  0
 12 13  1  0
 13 14  1  0
 14 12  1  0
 12 15  1  0
 15 16  2  0
 15 17  1  0
 17 18  1  0
 19 18  2  0
 18 20  1  0
 19 23  1  0
 20 21  2  0
 21 22  1  0
 22 23  2  0
 22 24  1  0
 23 25  1  0
 27 25  1  0
 25 28  2  0
 26 27  2  0
 26 30  1  0
 28 29  1  0
 29 30  2  0
 29 31  1  0
 31 32  1  0
 31 33  2  0
  8 34  1  0
  9 35  1  0
 10 36  1  0
 13 37  1  0
 13 38  1  0
 14 39  1  0
 14 40  1  0
 17 41  1  0
 20 42  1  0
 21 43  1  0
 24 44  1  0
 24 45  1  0
 24 46  1  0
 26 47  1  0
 27 48  1  0
 28 49  1  0
 30 50  1  0
 32 51  1  0
M  END
> <Uni-Dock RESULT> 
ENERGY=   -4.572  LOWER_BOUND=    4.270  UPPER_BOUND=    6.521
INTER + INTRA:          -4.572
INTER:                  -4.572
INTRA:                   0.000
UNBOUND:                 0.000

$$$$

     RDKit          3D

 51 55  0  0  0  0  0  0  0  0999 V2000
   46.8596   12.4384   11.5927 O   0  0  0  0  0  0  0  0  0  0  0  0
   46.6900   13.6316   12.3695 C   0  0  0  0  0  0  0  0  0  0  0  0
   47.4853   13.6951   13.5617 O   0  0  0  0  0  0  0  0  0  0  0  0
   48.1360   12.5054   13.4734 C   0  0  0  0  0  0  0  0  0  0  0  0
   47.7812   11.7907   12.3543 C   0  0  0  0  0  0  0  0  0  0  0  0
   46.9954   14.6996   11.5915 F   0  0  0  0  0  0  0  0  0  0  0  0
   45.3838   13.7392   12.7167 F   0  0  0  0  0  0  0  0  0  0  0  0
   48.3270   10.5537   12.0793 C   0  0  0  0  0  0  0  0  0  0  0  0
   49.0533   12.0209   14.3768 C   0  0  0  0  0  0  0  0  0  0  0  0
   49.6206   10.7677   14.1173 C   0  0  0  0  0  0  0  0  0  0  0  0
   49.2777   10.0115   12.9667 C   0  0  0  0  0  0  0  0  0  0  0  0
   49.8929    8.6385   12.7024 C   0  0  0  0  0  0  0  0  0  0  0  0
   51.4128    8.4904   12.7593 C   0  0  0  0  0  0  0  0  0  0  0  0
   50.7278    8.4835   11.4312 C   0  0  0  0  0  0  0  0  0  0  0  0
   49.0472    7.4536   13.1143 C   0  0  0  0  0  0  0  0  0  0  0  0
   48.2984    6.9364   12.2972 O   0  0  0  0  0  0  0  0  0  0  0  0
   49.2313    7.0957   14.4236 N   0  0  0  0  0  0  0  0  0  0  0  0
   48.6146    6.0707   15.1358 C   0  0  0  0  0  0  0  0  0  0  0  0
   49.0252    5.9948   16.4177 N   0  0  0  0  0  0  0  0  0  0  0  0
   47.6724    5.2091   14.6038 C   0  0  0  0  0  0  0  0  0  0  0  0
   47.1339    4.2207   15.4241 C   0  0  0  0  0  0  0  0  0  0  0  0
   47.5468    4.1091   16.7548 C   0  0  0  0  0  0  0  0  0  0  0  0
   48.4869    5.0367   17.2181 C   0  0  0  0  0  0  0  0  0  0  0  0
   46.9641    3.0340   17.6241 C   0  0  0  0  0  0  0  0  0  0  0  0
   48.9931    5.0679   18.5985 C   0  0  0  0  0  0  0  0  0  0  0  0
   48.6341    5.3834   20.9904 C   0  0  0  0  0  0  0  0  0  0  0  0
   48.1446    5.3495   19.6827 C   0  0  0  0  0  0  0  0  0  0  0  0
   50.3559    4.8411   18.8592 C   0  0  0  0  0  0  0  0  0  0  0  0
   50.8527    4.8737   20.1691 C   0  0  0  0  0  0  0  0  0  0  0  0
   49.9854    5.1429   21.2337 C   0  0  0  0  0  0  0  0  0  0  0  0
   52.2832    4.6325   20.4742 C   0  0  0  0  0  0  0  0  0  0  0  0
   53.0158    4.3654   19.3789 O   0  0  0  0  0  0  0  0  0  0  0  0
   52.7894    4.6573   21.5810 O   0  0  0  0  0  0  0  0  0  0  0  0
   48.0216   10.0031   11.1934 H   0  0  0  0  0  0  0  0  0  0  0  0
   49.3260   12.5885   15.2600 H   0  0  0  0  0  0  0  0  0  0  0  0
   50.3460   10.3691   14.8248 H   0  0  0  0  0  0  0  0  0  0  0  0
   51.8334    7.5527   13.1073 H   0  0  0  0  0  0  0  0  0  0  0  0
   52.0209    9.3550   13.0007 H   0  0  0  0  0  0  0  0  0  0  0  0
   50.6621    7.5441   10.8916 H   0  0  0  0  0  0  0  0  0  0  0  0
   50.8626    9.3443   10.7857 H   0  0  0  0  0  0  0  0  0  0  0  0
   49.8796    7.6242   14.9890 H   0  0  0  0  0  0  0  0  0  0  0  0
   47.3415    5.2758   13.5744 H   0  0  0  0  0  0  0  0  0  0  0  0
   46.3950    3.5372   15.0120 H   0  0  0  0  0  0  0  0  0  0  0  0
   46.1993    3.4525   18.2852 H   0  0  0  0  0  0  0  0  0  0  0  0
   47.7411    2.5490   18.2237 H   0  0  0  0  0  0  0  0  0  0  0  0
   46.4960    2.2487   17.0204 H   0  0  0  0  0  0  0  0  0  0  0  0
   47.9633    5.6042   21.8172 H   0  0  0  0  0  0  0  0  0  0  0  0
   47.0905    5.5593   19.5089 H   0  0  0  0  0  0  0  0  0  0  0  0
   51.0263    4.6410   18.0251 H   0  0  0  0  0  0  0  0  0  0  0  0
   50.3617    5.1729   22.2545 H   0  0  0  0  0  0  0  0  0  0  0  0
   53.9209    4.2291   19.7292 H   0  0  0  0  0  0  0  0  0  0  0  0
  1  2  1  0
  1  5  1  0
  2  3  1  0
  3  4  1  0
  2  6  1  0
  2  7  1  0
  8  5  1  0
  5  4  2  0
  4  9  1  0
  8 11  2  0
  9 10  2  0
 10 11  1  0
 11 12  1  0
 12 13  1  0
 13 14  1  0
 14 12  1  0
 12 15  1  0
 15 16  2  0
 15 17  1  0
 17 18  1  0
 19 18  2  0
 18 20  1  0
 19 23  1  0
 20 21  2  0
 21 22  1  0
 22 23  2  0
 22 24  1  0
 23 25  1  0
 27 25  1  0
 25 28  2  0
 26 27  2  0
 26 30  1  0
 28 29  1  0
 29 30  2  0
 29 31  1  0
 31 32  1  0
 31 33  2  0
  8 34  1  0
  9 35  1  0
 10 36  1  0
 13 37  1  0
 13 38  1  0
 14 39  1  0
 14 40  1  0
 17 41  1  0
 20 42  1  0
 21 43  1  0
 24 44  1  0
 24 45  1  0
 24 46  1  0
 26 47  1  0
 27 48  1  0
 28 49  1  0
 30 50  1  0
 32 51  1  0
M  END
> <Uni-Dock RESULT> 
ENERGY=   -4.555  LOWER_BOUND=    4.669  UPPER_BOUND=    9.450
INTER + INTRA:          -4.555
INTER:                  -4.555
INTRA:                   0.000
UNBOUND:                 0.000

$$$$

     RDKit          3D

 51 55  0  0  0  0  0  0  0  0999 V2000
   49.8531   11.9686   10.9035 O   0  0  0  0  0  0  0  0  0  0  0  0
   51.0854   12.0862   10.1798 C   0  0  0  0  0  0  0  0  0  0  0  0
   51.8683   10.8856   10.1200 O   0  0  0  0  0  0  0  0  0  0  0  0
   51.0668   10.0472   10.8280 C   0  0  0  0  0  0  0  0  0  0  0  0
   49.9210   10.6619   11.2732 C   0  0  0  0  0  0  0  0  0  0  0  0
   50.8054   12.4804    8.9128 F   0  0  0  0  0  0  0  0  0  0  0  0
   51.8332   13.0600   10.7550 F   0  0  0  0  0  0  0  0  0  0  0  0
   48.9742    9.9845   12.0139 C   0  0  0  0  0  0  0  0  0  0  0  0
   51.3273    8.7243   11.1007 C   0  0  0  0  0  0  0  0  0  0  0  0
   50.3797    8.0172   11.8502 C   0  0  0  0  0  0  0  0  0  0  0  0
   49.1853    8.6248   12.3169 C   0  0  0  0  0  0  0  0  0  0  0  0
   48.1661    7.8463   13.1466 C   0  0  0  0  0  0  0  0  0  0  0  0
   47.6738    6.4955   12.6283 C   0  0  0  0  0  0  0  0  0  0  0  0
   46.7670    7.6809   12.5530 C   0  0  0  0  0  0  0  0  0  0  0  0
   48.2552    8.0437   14.6438 C   0  0  0  0  0  0  0  0  0  0  0  0
   47.5737    8.9074   15.1780 O   0  0  0  0  0  0  0  0  0  0  0  0
   49.1421    7.1890   15.2432 N   0  0  0  0  0  0  0  0  0  0  0  0
   49.4829    7.0997   16.5900 C   0  0  0  0  0  0  0  0  0  0  0  0
   50.4002    6.1443   16.8422 N   0  0  0  0  0  0  0  0  0  0  0  0
   48.9501    7.9007   17.5838 C   0  0  0  0  0  0  0  0  0  0  0  0
   49.3736    7.7059   18.8963 C   0  0  0  0  0  0  0  0  0  0  0  0
   50.3154    6.7163   19.1918 C   0  0  0  0  0  0  0  0  0  0  0  0
   50.8202    5.9669   18.1230 C   0  0  0  0  0  0  0  0  0  0  0  0
   50.7558    6.5125   20.6115 C   0  0  0  0  0  0  0  0  0  0  0  0
   51.8376    4.9153   18.2702 C   0  0  0  0  0  0  0  0  0  0  0  0
   54.1020    4.2095   18.8396 C   0  0  0  0  0  0  0  0  0  0  0  0
   53.1394    5.2130   18.7081 C   0  0  0  0  0  0  0  0  0  0  0  0
   51.5314    3.5820   17.9458 C   0  0  0  0  0  0  0  0  0  0  0  0
   52.4931    2.5711   18.0757 C   0  0  0  0  0  0  0  0  0  0  0  0
   53.7786    2.8902   18.5268 C   0  0  0  0  0  0  0  0  0  0  0  0
   52.1967    1.1563   17.7468 C   0  0  0  0  0  0  0  0  0  0  0  0
   50.9283    0.9657   17.3437 O   0  0  0  0  0  0  0  0  0  0  0  0
   52.9810    0.2284   17.8213 O   0  0  0  0  0  0  0  0  0  0  0  0
   48.0816   10.4961   12.3642 H   0  0  0  0  0  0  0  0  0  0  0  0
   52.2354    8.2463   10.7495 H   0  0  0  0  0  0  0  0  0  0  0  0
   50.5730    6.9699   12.0772 H   0  0  0  0  0  0  0  0  0  0  0  0
   47.4224    5.7212   13.3456 H   0  0  0  0  0  0  0  0  0  0  0  0
   48.0678    6.1107   11.6944 H   0  0  0  0  0  0  0  0  0  0  0  0
   45.9197    7.7236   13.2299 H   0  0  0  0  0  0  0  0  0  0  0  0
   46.5606    8.1012   11.5751 H   0  0  0  0  0  0  0  0  0  0  0  0
   49.6482    6.5286   14.6713 H   0  0  0  0  0  0  0  0  0  0  0  0
   48.2164    8.6704   17.3769 H   0  0  0  0  0  0  0  0  0  0  0  0
   48.9566    8.3297   19.6837 H   0  0  0  0  0  0  0  0  0  0  0  0
   51.7355    6.9712   20.7754 H   0  0  0  0  0  0  0  0  0  0  0  0
   50.8042    5.4472   20.8590 H   0  0  0  0  0  0  0  0  0  0  0  0
   50.0482    6.9671   21.3135 H   0  0  0  0  0  0  0  0  0  0  0  0
   55.1048    4.4581   19.1787 H   0  0  0  0  0  0  0  0  0  0  0  0
   53.4148    6.2409   18.9377 H   0  0  0  0  0  0  0  0  0  0  0  0
   50.5317    3.3428   17.5870 H   0  0  0  0  0  0  0  0  0  0  0  0
   54.5336    2.1128   18.6289 H   0  0  0  0  0  0  0  0  0  0  0  0
   50.8803    0.0030   17.1665 H   0  0  0  0  0  0  0  0  0  0  0  0
  1  2  1  0
  1  5  1  0
  2  3  1  0
  3  4  1  0
  2  6  1  0
  2  7  1  0
  8  5  1  0
  5  4  2  0
  4  9  1  0
  8 11  2  0
  9 10  2  0
 10 11  1  0
 11 12  1  0
 12 13  1  0
 13 14  1  0
 14 12  1  0
 12 15  1  0
 15 16  2  0
 15 17  1  0
 17 18  1  0
 19 18  2  0
 18 20  1  0
 19 23  1  0
 20 21  2  0
 21 22  1  0
 22 23  2  0
 22 24  1  0
 23 25  1  0
 27 25  1  0
 25 28  2  0
 26 27  2  0
 26 30  1  0
 28 29  1  0
 29 30  2  0
 29 31  1  0
 31 32  1  0
 31 33  2  0
  8 34  1  0
  9 35  1  0
 10 36  1  0
 13 37  1  0
 13 38  1  0
 14 39  1  0
 14 40  1  0
 17 41  1  0
 20 42  1  0
 21 43  1  0
 24 44  1  0
 24 45  1  0
 24 46  1  0
 26 47  1  0
 27 48  1  0
 28 49  1  0
 30 50  1  0
 32 51  1  0
M  END
> <Uni-Dock RESULT> 
ENERGY=   -4.519  LOWER_BOUND=    4.619  UPPER_BOUND=    9.372
INTER + INTRA:          -4.519
INTER:                  -4.519
INTRA:                   0.000
UNBOUND:                 0.000

$$$$

     RDKit          3D

 51 55  0  0  0  0  0  0  0  0999 V2000
   41.6397   15.7167   13.6609 O   0  0  0  0  0  0  0  0  0  0  0  0
   41.8404   16.4444   14.8800 C   0  0  0  0  0  0  0  0  0  0  0  0
   43.1889   16.4438   15.3694 O   0  0  0  0  0  0  0  0  0  0  0  0
   43.7879   15.6956   14.4060 C   0  0  0  0  0  0  0  0  0  0  0  0
   42.9081   15.2824   13.4344 C   0  0  0  0  0  0  0  0  0  0  0  0
   41.4550   17.7296   14.6834 F   0  0  0  0  0  0  0  0  0  0  0  0
   41.0352   15.9178   15.8352 F   0  0  0  0  0  0  0  0  0  0  0  0
   43.3159   14.5097   12.3665 C   0  0  0  0  0  0  0  0  0  0  0  0
   45.1205   15.3572   14.3624 C   0  0  0  0  0  0  0  0  0  0  0  0
   45.5566   14.5741   13.2871 C   0  0  0  0  0  0  0  0  0  0  0  0
   44.6716   14.1392   12.2668 C   0  0  0  0  0  0  0  0  0  0  0  0
   45.1570   13.2726   11.1063 C   0  0  0  0  0  0  0  0  0  0  0  0
   46.3842   13.7234   10.3149 C   0  0  0  0  0  0  0  0  0  0  0  0
   45.0289   13.8583    9.6999 C   0  0  0  0  0  0  0  0  0  0  0  0
   44.9124   11.7869   11.2537 C   0  0  0  0  0  0  0  0  0  0  0  0
   43.8915   11.2970   10.7915 O   0  0  0  0  0  0  0  0  0  0  0  0
   45.9160   11.1451   11.9298 N   0  0  0  0  0  0  0  0  0  0  0  0
   46.0147    9.7952   12.2556 C   0  0  0  0  0  0  0  0  0  0  0  0
   47.1401    9.4951   12.9348 N   0  0  0  0  0  0  0  0  0  0  0  0
   45.0663    8.8430   11.9289 C   0  0  0  0  0  0  0  0  0  0  0  0
   45.2881    7.5221   12.3110 C   0  0  0  0  0  0  0  0  0  0  0  0
   46.4502    7.1769   13.0068 C   0  0  0  0  0  0  0  0  0  0  0  0
   47.3458    8.2068   13.3170 C   0  0  0  0  0  0  0  0  0  0  0  0
   46.6794    5.7485   13.4043 C   0  0  0  0  0  0  0  0  0  0  0  0
   48.5926    8.0066   14.0708 C   0  0  0  0  0  0  0  0  0  0  0  0
   49.7656    7.4011   16.1218 C   0  0  0  0  0  0  0  0  0  0  0  0
   48.5774    7.5831   15.4107 C   0  0  0  0  0  0  0  0  0  0  0  0
   49.8355    8.2645   13.4667 C   0  0  0  0  0  0  0  0  0  0  0  0
   51.0310    8.0837   14.1752 C   0  0  0  0  0  0  0  0  0  0  0  0
   50.9907    7.6480   15.5043 C   0  0  0  0  0  0  0  0  0  0  0  0
   52.3557    8.3421   13.5621 C   0  0  0  0  0  0  0  0  0  0  0  0
   52.2726    8.7362   12.2793 O   0  0  0  0  0  0  0  0  0  0  0  0
   53.4328    8.2208   14.1161 O   0  0  0  0  0  0  0  0  0  0  0  0
   42.5985   14.1860   11.6169 H   0  0  0  0  0  0  0  0  0  0  0  0
   45.8088   15.6834   15.1346 H   0  0  0  0  0  0  0  0  0  0  0  0
   46.6081   14.2951   13.2401 H   0  0  0  0  0  0  0  0  0  0  0  0
   47.0453   12.9686    9.9019 H   0  0  0  0  0  0  0  0  0  0  0  0
   46.8934   14.6367   10.6014 H   0  0  0  0  0  0  0  0  0  0  0  0
   44.7620   13.1850    8.8916 H   0  0  0  0  0  0  0  0  0  0  0  0
   44.6208   14.8561    9.5840 H   0  0  0  0  0  0  0  0  0  0  0  0
   46.7010   11.6831   12.2667 H   0  0  0  0  0  0  0  0  0  0  0  0
   44.1610    9.0885   11.3869 H   0  0  0  0  0  0  0  0  0  0  0  0
   44.5484    6.7670   12.0547 H   0  0  0  0  0  0  0  0  0  0  0  0
   46.4478    5.6070   14.4643 H   0  0  0  0  0  0  0  0  0  0  0  0
   47.7146    5.4483   13.2123 H   0  0  0  0  0  0  0  0  0  0  0  0
   46.0424    5.0706   12.8258 H   0  0  0  0  0  0  0  0  0  0  0  0
   49.7351    7.0740   17.1584 H   0  0  0  0  0  0  0  0  0  0  0  0
   47.6290    7.4047   15.9145 H   0  0  0  0  0  0  0  0  0  0  0  0
   49.8587    8.6117   12.4350 H   0  0  0  0  0  0  0  0  0  0  0  0
   51.9133    7.5069   16.0642 H   0  0  0  0  0  0  0  0  0  0  0  0
   53.2067    8.8652   12.0122 H   0  0  0  0  0  0  0  0  0  0  0  0
  1  2  1  0
  1  5  1  0
  2  3  1  0
  3  4  1  0
  2  6  1  0
  2  7  1  0
  8  5  1  0
  5  4  2  0
  4  9  1  0
  8 11  2  0
  9 10  2  0
 10 11  1  0
 11 12  1  0
 12 13  1  0
 13 14  1  0
 14 12  1  0
 12 15  1  0
 15 16  2  0
 15 17  1  0
 17 18  1  0
 19 18  2  0
 18 20  1  0
 19 23  1  0
 20 21  2  0
 21 22  1  0
 22 23  2  0
 22 24  1  0
 23 25  1  0
 27 25  1  0
 25 28  2  0
 26 27  2  0
 26 30  1  0
 28 29  1  0
 29 30  2  0
 29 31  1  0
 31 32  1  0
 31 33  2  0
  8 34  1  0
  9 35  1  0
 10 36  1  0
 13 37  1  0
 13 38  1  0
 14 39  1  0
 14 40  1  0
 17 41  1  0
 20 42  1  0
 21 43  1  0
 24 44  1  0
 24 45  1  0
 24 46  1  0
 26 47  1  0
 27 48  1  0
 28 49  1  0
 30 50  1  0
 32 51  1  0
M  END
> <Uni-Dock RESULT> 
ENERGY=   -4.517  LOWER_BOUND=    6.880  UPPER_BOUND=   11.276
INTER + INTRA:          -4.517
INTER:                  -4.517
INTRA:                   0.000
UNBOUND:                 0.000

$$$$
