
     RDKit          3D

 51 55  0  0  0  0  0  0  0  0999 V2000
   44.4197    5.4784   12.1387 O   0  0  0  0  0  0  0  0  0  0  0  0
   43.2991    6.0633   11.4623 C   0  0  0  0  0  0  0  0  0  0  0  0
   43.3785    7.4843   11.2787 O   0  0  0  0  0  0  0  0  0  0  0  0
   44.5797    7.7298   11.8649 C   0  0  0  0  0  0  0  0  0  0  0  0
   45.1722    6.5902   12.3535 C   0  0  0  0  0  0  0  0  0  0  0  0
   42.1743    5.7829   12.1655 F   0  0  0  0  0  0  0  0  0  0  0  0
   43.1767    5.4793   10.2446 F   0  0  0  0  0  0  0  0  0  0  0  0
   46.3974    6.6243   12.9869 C   0  0  0  0  0  0  0  0  0  0  0  0
   45.1791    8.9623   11.9842 C   0  0  0  0  0  0  0  0  0  0  0  0
   46.4232    9.0202   12.6236 C   0  0  0  0  0  0  0  0  0  0  0  0
   47.0605    7.8592   13.1330 C   0  0  0  0  0  0  0  0  0  0  0  0
   48.4122    7.9294   13.8423 C   0  0  0  0  0  0  0  0  0  0  0  0
   49.5949    7.2672   13.1343 C   0  0  0  0  0  0  0  0  0  0  0  0
   49.5375    8.7577   13.2234 C   0  0  0  0  0  0  0  0  0  0  0  0
   48.3685    7.8142   15.3539 C   0  0  0  0  0  0  0  0  0  0  0  0
   48.5494    6.7198   15.8653 O   0  0  0  0  0  0  0  0  0  0  0  0
   48.0956    9.0181   15.9626 N   0  0  0  0  0  0  0  0  0  0  0  0
   48.0162    9.2284   17.3430 C   0  0  0  0  0  0  0  0  0  0  0  0
   48.3015    8.2418   18.2045 N   0  0  0  0  0  0  0  0  0  0  0  0
   47.6438   10.4926   17.7756 C   0  0  0  0  0  0  0  0  0  0  0  0
   47.5348   10.7314   19.1426 C   0  0  0  0  0  0  0  0  0  0  0  0
   47.8022    9.7069   20.0564 C   0  0  0  0  0  0  0  0  0  0  0  0
   48.2162    8.4724   19.5407 C   0  0  0  0  0  0  0  0  0  0  0  0
   47.6497    9.9779   21.5246 C   0  0  0  0  0  0  0  0  0  0  0  0
   48.5837    7.3053   20.3635 C   0  0  0  0  0  0  0  0  0  0  0  0
   48.3066    4.9355   20.8959 C   0  0  0  0  0  0  0  0  0  0  0  0
   47.9731    6.0589   20.1358 C   0  0  0  0  0  0  0  0  0  0  0  0
   49.5702    7.3817   21.3623 C   0  0  0  0  0  0  0  0  0  0  0  0
   49.9082    6.2582   22.1315 C   0  0  0  0  0  0  0  0  0  0  0  0
   49.2695    5.0361   21.8973 C   0  0  0  0  0  0  0  0  0  0  0  0
   50.9385    6.3179   23.1959 C   0  0  0  0  0  0  0  0  0  0  0  0
   51.4531    7.5502   23.3585 O   0  0  0  0  0  0  0  0  0  0  0  0
   51.3095    5.3862   23.8855 O   0  0  0  0  0  0  0  0  0  0  0  0
   46.8416    5.7109   13.3754 H   0  0  0  0  0  0  0  0  0  0  0  0
   44.7045    9.8568   11.5954 H   0  0  0  0  0  0  0  0  0  0  0  0
   46.9107    9.9881   12.7230 H   0  0  0  0  0  0  0  0  0  0  0  0
   49.4319    6.8064   12.1666 H   0  0  0  0  0  0  0  0  0  0  0  0
   50.3215    6.7420   13.7465 H   0  0  0  0  0  0  0  0  0  0  0  0
   49.3583    9.3002   12.3024 H   0  0  0  0  0  0  0  0  0  0  0  0
   50.2510    9.2412   13.8827 H   0  0  0  0  0  0  0  0  0  0  0  0
   47.9058    9.8044   15.3625 H   0  0  0  0  0  0  0  0  0  0  0  0
   47.4232   11.2899   17.0751 H   0  0  0  0  0  0  0  0  0  0  0  0
   47.2287   11.7156   19.4895 H   0  0  0  0  0  0  0  0  0  0  0  0
   46.9821   10.8292   21.6987 H   0  0  0  0  0  0  0  0  0  0  0  0
   47.2034    9.1225   22.0416 H   0  0  0  0  0  0  0  0  0  0  0  0
   48.6201   10.2128   21.9718 H   0  0  0  0  0  0  0  0  0  0  0  0
   47.8223    3.9832   20.6954 H   0  0  0  0  0  0  0  0  0  0  0  0
   47.2355    5.9609   19.3390 H   0  0  0  0  0  0  0  0  0  0  0  0
   50.0931    8.3211   21.5258 H   0  0  0  0  0  0  0  0  0  0  0  0
   49.5295    4.1571   22.4836 H   0  0  0  0  0  0  0  0  0  0  0  0
   52.1116    7.4314   24.0748 H   0  0  0  0  0  0  0  0  0  0  0  0
  1  2  1  0
  1  5  1  0
  2  3  1  0
  3  4  1  0
  2  6  1  0
  2  7  1  0
  8  5  1  0
  5  4  2  0
  4  9  1  0
  8 11  2  0
  9 10  2  0
 10 11  1  0
 11 12  1  0
 12 13  1  0
 13 14  1  0
 14 12  1  0
 12 15  1  0
 15 16  2  0
 15 17  1  0
 17 18  1  0
 19 18  2  0
 18 20  1  0
 19 23  1  0
 20 21  2  0
 21 22  1  0
 22 23  2  0
 22 24  1  0
 23 25  1  0
 27 25  1  0
 25 28  2  0
 26 27  2  0
 26 30  1  0
 28 29  1  0
 29 30  2  0
 29 31  1  0
 31 32  1  0
 31 33  2  0
  8 34  1  0
  9 35  1  0
 10 36  1  0
 13 37  1  0
 13 38  1  0
 14 39  1  0
 14 40  1  0
 17 41  1  0
 20 42  1  0
 21 43  1  0
 24 44  1  0
 24 45  1  0
 24 46  1  0
 26 47  1  0
 27 48  1  0
 28 49  1  0
 30 50  1  0
 32 51  1  0
M  END
> <Uni-Dock RESULT> 
ENERGY=   -5.948  LOWER_BOUND=    0.000  UPPER_BOUND=    0.000
INTER + INTRA:          -5.948
INTER:                  -5.948
INTRA:                   0.000
UNBOUND:                 0.000

$$$$

     RDKit          3D

 51 55  0  0  0  0  0  0  0  0999 V2000
   51.4754    0.8633   17.3968 O   0  0  0  0  0  0  0  0  0  0  0  0
   52.8632    0.5370   17.5482 C   0  0  0  0  0  0  0  0  0  0  0  0
   53.6883    1.6114   18.0214 O   0  0  0  0  0  0  0  0  0  0  0  0
   52.7519    2.5880   18.1485 C   0  0  0  0  0  0  0  0  0  0  0  0
   51.4939    2.1633   17.7941 C   0  0  0  0  0  0  0  0  0  0  0  0
   53.3435    0.1217   16.3502 F   0  0  0  0  0  0  0  0  0  0  0  0
   52.9710   -0.5007   18.4144 F   0  0  0  0  0  0  0  0  0  0  0  0
   50.4018    3.0045   17.8511 C   0  0  0  0  0  0  0  0  0  0  0  0
   52.9848    3.8743   18.5772 C   0  0  0  0  0  0  0  0  0  0  0  0
   51.8906    4.7451   18.6428 C   0  0  0  0  0  0  0  0  0  0  0  0
   50.5800    4.3324   18.2881 C   0  0  0  0  0  0  0  0  0  0  0  0
   49.3911    5.2905   18.3484 C   0  0  0  0  0  0  0  0  0  0  0  0
   48.3169    4.9875   19.3939 C   0  0  0  0  0  0  0  0  0  0  0  0
   49.2063    6.1735   19.5819 C   0  0  0  0  0  0  0  0  0  0  0  0
   48.9136    5.8309   17.0143 C   0  0  0  0  0  0  0  0  0  0  0  0
   47.9867    5.2697   16.4506 O   0  0  0  0  0  0  0  0  0  0  0  0
   49.6459    6.9196   16.5986 N   0  0  0  0  0  0  0  0  0  0  0  0
   49.4243    7.6441   15.4229 C   0  0  0  0  0  0  0  0  0  0  0  0
   48.3788    7.3644   14.6319 N   0  0  0  0  0  0  0  0  0  0  0  0
   50.3188    8.6604   15.1214 C   0  0  0  0  0  0  0  0  0  0  0  0
   50.1403    9.3884   13.9485 C   0  0  0  0  0  0  0  0  0  0  0  0
   49.0708    9.0936   13.0968 C   0  0  0  0  0  0  0  0  0  0  0  0
   48.1866    8.0832   13.4951 C   0  0  0  0  0  0  0  0  0  0  0  0
   48.9142    9.8712   11.8228 C   0  0  0  0  0  0  0  0  0  0  0  0
   46.9847    7.6812   12.7414 C   0  0  0  0  0  0  0  0  0  0  0  0
   45.6516    5.9228   11.6893 C   0  0  0  0  0  0  0  0  0  0  0  0
   46.7838    6.3324   12.3973 C   0  0  0  0  0  0  0  0  0  0  0  0
   45.9907    8.6073   12.3796 C   0  0  0  0  0  0  0  0  0  0  0  0
   44.8523    8.2035   11.6660 C   0  0  0  0  0  0  0  0  0  0  0  0
   44.6889    6.8587   11.3186 C   0  0  0  0  0  0  0  0  0  0  0  0
   43.7961    9.1641   11.2661 C   0  0  0  0  0  0  0  0  0  0  0  0
   44.0804   10.4314   11.6168 O   0  0  0  0  0  0  0  0  0  0  0  0
   42.7683    8.8916   10.6739 O   0  0  0  0  0  0  0  0  0  0  0  0
   49.4175    2.6491   17.5550 H   0  0  0  0  0  0  0  0  0  0  0  0
   53.9810    4.2011   18.8553 H   0  0  0  0  0  0  0  0  0  0  0  0
   52.0590    5.7651   18.9826 H   0  0  0  0  0  0  0  0  0  0  0  0
   48.4542    4.1364   20.0512 H   0  0  0  0  0  0  0  0  0  0  0  0
   47.2807    5.1589   19.1189 H   0  0  0  0  0  0  0  0  0  0  0  0
   49.9291    6.1249   20.3880 H   0  0  0  0  0  0  0  0  0  0  0  0
   48.7564    7.1532   19.4579 H   0  0  0  0  0  0  0  0  0  0  0  0
   50.4254    7.1963   17.1733 H   0  0  0  0  0  0  0  0  0  0  0  0
   51.1574    8.8890   15.7691 H   0  0  0  0  0  0  0  0  0  0  0  0
   50.8458   10.1769   13.6973 H   0  0  0  0  0  0  0  0  0  0  0  0
   49.8661   10.3209   11.5187 H   0  0  0  0  0  0  0  0  0  0  0  0
   48.5996    9.2231   10.9986 H   0  0  0  0  0  0  0  0  0  0  0  0
   48.1868   10.6775   11.9551 H   0  0  0  0  0  0  0  0  0  0  0  0
   45.5194    4.8729   11.4403 H   0  0  0  0  0  0  0  0  0  0  0  0
   47.5179    5.5863   12.7025 H   0  0  0  0  0  0  0  0  0  0  0  0
   46.0970    9.6481   12.6761 H   0  0  0  0  0  0  0  0  0  0  0  0
   43.8061    6.5341   10.7714 H   0  0  0  0  0  0  0  0  0  0  0  0
   43.3029   10.9373   11.2997 H   0  0  0  0  0  0  0  0  0  0  0  0
  1  2  1  0
  1  5  1  0
  2  3  1  0
  3  4  1  0
  2  6  1  0
  2  7  1  0
  8  5  1  0
  5  4  2  0
  4  9  1  0
  8 11  2  0
  9 10  2  0
 10 11  1  0
 11 12  1  0
 12 13  1  0
 13 14  1  0
 14 12  1  0
 12 15  1  0
 15 16  2  0
 15 17  1  0
 17 18  1  0
 19 18  2  0
 18 20  1  0
 19 23  1  0
 20 21  2  0
 21 22  1  0
 22 23  2  0
 22 24  1  0
 23 25  1  0
 27 25  1  0
 25 28  2  0
 26 27  2  0
 26 30  1  0
 28 29  1  0
 29 30  2  0
 29 31  1  0
 31 32  1  0
 31 33  2  0
  8 34  1  0
  9 35  1  0
 10 36  1  0
 13 37  1  0
 13 38  1  0
 14 39  1  0
 14 40  1  0
 17 41  1  0
 20 42  1  0
 21 43  1  0
 24 44  1  0
 24 45  1  0
 24 46  1  0
 26 47  1  0
 27 48  1  0
 28 49  1  0
 30 50  1  0
 32 51  1  0
M  END
> <Uni-Dock RESULT> 
ENERGY=   -5.697  LOWER_BOUND=    4.629  UPPER_BOUND=    9.535
INTER + INTRA:          -5.697
INTER:                  -5.697
INTRA:                   0.000
UNBOUND:                 0.000

$$$$

     RDKit          3D

 51 55  0  0  0  0  0  0  0  0999 V2000
   46.8176   12.6238    6.5489 O   0  0  0  0  0  0  0  0  0  0  0  0
   46.2663   12.3652    5.2511 C   0  0  0  0  0  0  0  0  0  0  0  0
   44.9699   11.7500    5.2569 O   0  0  0  0  0  0  0  0  0  0  0  0
   44.7637   11.6498    6.5964 C   0  0  0  0  0  0  0  0  0  0  0  0
   45.8133   12.1467    7.3312 C   0  0  0  0  0  0  0  0  0  0  0  0
   47.1203   11.5618    4.5701 F   0  0  0  0  0  0  0  0  0  0  0  0
   46.1818   13.5382    4.5760 F   0  0  0  0  0  0  0  0  0  0  0  0
   45.8012   12.1373    8.7109 C   0  0  0  0  0  0  0  0  0  0  0  0
   43.6484   11.1172    7.2006 C   0  0  0  0  0  0  0  0  0  0  0  0
   43.6149   11.0976    8.6000 C   0  0  0  0  0  0  0  0  0  0  0  0
   44.6817   11.6083    9.3840 C   0  0  0  0  0  0  0  0  0  0  0  0
   44.6464   11.5723   10.9113 C   0  0  0  0  0  0  0  0  0  0  0  0
   44.5631   12.9204   11.6286 C   0  0  0  0  0  0  0  0  0  0  0  0
   43.3765   12.0122   11.6388 C   0  0  0  0  0  0  0  0  0  0  0  0
   45.5002   10.5022   11.5639 C   0  0  0  0  0  0  0  0  0  0  0  0
   46.6229   10.7969   11.9441 O   0  0  0  0  0  0  0  0  0  0  0  0
   44.8619    9.2840   11.6169 N   0  0  0  0  0  0  0  0  0  0  0  0
   45.3877    8.1176   12.1821 C   0  0  0  0  0  0  0  0  0  0  0  0
   46.5681    8.1352   12.8170 N   0  0  0  0  0  0  0  0  0  0  0  0
   44.6361    6.9576   12.0667 C   0  0  0  0  0  0  0  0  0  0  0  0
   45.1386    5.7740   12.5998 C   0  0  0  0  0  0  0  0  0  0  0  0
   46.3809    5.7668   13.2424 C   0  0  0  0  0  0  0  0  0  0  0  0
   47.0566    6.9882   13.3569 C   0  0  0  0  0  0  0  0  0  0  0  0
   46.9171    4.4739   13.7837 C   0  0  0  0  0  0  0  0  0  0  0  0
   48.3488    7.1656   14.0448 C   0  0  0  0  0  0  0  0  0  0  0  0
   50.6576    7.9682   14.0102 C   0  0  0  0  0  0  0  0  0  0  0  0
   49.4247    7.7817   13.3808 C   0  0  0  0  0  0  0  0  0  0  0  0
   48.5397    6.7702   15.3803 C   0  0  0  0  0  0  0  0  0  0  0  0
   49.7760    6.9517   16.0179 C   0  0  0  0  0  0  0  0  0  0  0  0
   50.8353    7.5482   15.3263 C   0  0  0  0  0  0  0  0  0  0  0  0
   50.0028    6.5340   17.4223 C   0  0  0  0  0  0  0  0  0  0  0  0
   48.9296    5.9364   17.9710 O   0  0  0  0  0  0  0  0  0  0  0  0
   51.0317    6.6817   18.0554 O   0  0  0  0  0  0  0  0  0  0  0  0
   46.6483   12.5259    9.2712 H   0  0  0  0  0  0  0  0  0  0  0  0
   42.8244   10.7274    6.6128 H   0  0  0  0  0  0  0  0  0  0  0  0
   42.7379   10.6816    9.0921 H   0  0  0  0  0  0  0  0  0  0  0  0
   44.5091   13.8252   11.0338 H   0  0  0  0  0  0  0  0  0  0  0  0
   45.1282   13.0401   12.5478 H   0  0  0  0  0  0  0  0  0  0  0  0
   42.5118   12.3242   11.0647 H   0  0  0  0  0  0  0  0  0  0  0  0
   43.1259   11.5371   12.5817 H   0  0  0  0  0  0  0  0  0  0  0  0
   43.9547    9.2207   11.1838 H   0  0  0  0  0  0  0  0  0  0  0  0
   43.6776    6.9504   11.5605 H   0  0  0  0  0  0  0  0  0  0  0  0
   44.5625    4.8571   12.5004 H   0  0  0  0  0  0  0  0  0  0  0  0
   46.4540    3.6168   13.2819 H   0  0  0  0  0  0  0  0  0  0  0  0
   47.9949    4.3888   13.6124 H   0  0  0  0  0  0  0  0  0  0  0  0
   46.7071    4.3923   14.8542 H   0  0  0  0  0  0  0  0  0  0  0  0
   51.4709    8.4515   13.4749 H   0  0  0  0  0  0  0  0  0  0  0  0
   49.2913    8.1368   12.3586 H   0  0  0  0  0  0  0  0  0  0  0  0
   47.7096    6.3362   15.9328 H   0  0  0  0  0  0  0  0  0  0  0  0
   51.7961    7.7000   15.8141 H   0  0  0  0  0  0  0  0  0  0  0  0
   49.2234    5.7292   18.8829 H   0  0  0  0  0  0  0  0  0  0  0  0
  1  2  1  0
  1  5  1  0
  2  3  1  0
  3  4  1  0
  2  6  1  0
  2  7  1  0
  8  5  1  0
  5  4  2  0
  4  9  1  0
  8 11  2  0
  9 10  2  0
 10 11  1  0
 11 12  1  0
 12 13  1  0
 13 14  1  0
 14 12  1  0
 12 15  1  0
 15 16  2  0
 15 17  1  0
 17 18  1  0
 19 18  2  0
 18 20  1  0
 19 23  1  0
 20 21  2  0
 21 22  1  0
 22 23  2  0
 22 24  1  0
 23 25  1  0
 27 25  1  0
 25 28  2  0
 26 27  2  0
 26 30  1  0
 28 29  1  0
 29 30  2  0
 29 31  1  0
 31 32  1  0
 31 33  2  0
  8 34  1  0
  9 35  1  0
 10 36  1  0
 13 37  1  0
 13 38  1  0
 14 39  1  0
 14 40  1  0
 17 41  1  0
 20 42  1  0
 21 43  1  0
 24 44  1  0
 24 45  1  0
 24 46  1  0
 26 47  1  0
 27 48  1  0
 28 49  1  0
 30 50  1  0
 32 51  1  0
M  END
> <Uni-Dock RESULT> 
ENERGY=   -5.335  LOWER_BOUND=    4.507  UPPER_BOUND=    7.208
INTER + INTRA:          -5.335
INTER:                  -5.335
INTRA:                   0.000
UNBOUND:                 0.000

$$$$

     RDKit          3D

 51 55  0  0  0  0  0  0  0  0999 V2000
   45.1405    4.8933   11.0032 O   0  0  0  0  0  0  0  0  0  0  0  0
   43.7422    5.1129   10.7756 C   0  0  0  0  0  0  0  0  0  0  0  0
   43.2767    6.4307   11.1012 O   0  0  0  0  0  0  0  0  0  0  0  0
   44.4385    6.9909   11.5291 C   0  0  0  0  0  0  0  0  0  0  0  0
   45.4983    6.1178   11.4731 C   0  0  0  0  0  0  0  0  0  0  0  0
   43.0380    4.2151   11.5081 F   0  0  0  0  0  0  0  0  0  0  0  0
   43.4746    4.8740    9.4679 F   0  0  0  0  0  0  0  0  0  0  0  0
   46.7673    6.4916   11.8649 C   0  0  0  0  0  0  0  0  0  0  0  0
   44.5906    8.2818   11.9797 C   0  0  0  0  0  0  0  0  0  0  0  0
   45.8701    8.6826   12.3824 C   0  0  0  0  0  0  0  0  0  0  0  0
   46.9833    7.8041   12.3305 C   0  0  0  0  0  0  0  0  0  0  0  0
   48.3753    8.2421   12.7840 C   0  0  0  0  0  0  0  0  0  0  0  0
   49.4500    8.3451   11.7009 C   0  0  0  0  0  0  0  0  0  0  0  0
   48.9184    9.5947   12.3247 C   0  0  0  0  0  0  0  0  0  0  0  0
   48.8180    7.7261   14.1396 C   0  0  0  0  0  0  0  0  0  0  0  0
   49.5012    6.7148   14.1890 O   0  0  0  0  0  0  0  0  0  0  0  0
   48.3434    8.4997   15.1743 N   0  0  0  0  0  0  0  0  0  0  0  0
   48.6052    8.2865   16.5316 C   0  0  0  0  0  0  0  0  0  0  0  0
   49.4476    7.3205   16.9240 N   0  0  0  0  0  0  0  0  0  0  0  0
   47.9696    9.1174   17.4423 C   0  0  0  0  0  0  0  0  0  0  0  0
   48.1913    8.9203   18.8023 C   0  0  0  0  0  0  0  0  0  0  0  0
   49.0460    7.9001   19.2322 C   0  0  0  0  0  0  0  0  0  0  0  0
   49.6843    7.1341   18.2488 C   0  0  0  0  0  0  0  0  0  0  0  0
   49.2476    7.6861   20.7039 C   0  0  0  0  0  0  0  0  0  0  0  0
   50.6502    6.0554   18.5276 C   0  0  0  0  0  0  0  0  0  0  0  0
   51.3635    3.7379   18.2164 C   0  0  0  0  0  0  0  0  0  0  0  0
   50.4612    4.7763   17.9740 C   0  0  0  0  0  0  0  0  0  0  0  0
   51.7985    6.2704   19.3097 C   0  0  0  0  0  0  0  0  0  0  0  0
   52.7074    5.2315   19.5597 C   0  0  0  0  0  0  0  0  0  0  0  0
   52.4832    3.9635   19.0136 C   0  0  0  0  0  0  0  0  0  0  0  0
   53.9198    5.4330   20.3890 C   0  0  0  0  0  0  0  0  0  0  0  0
   54.0087    6.6770   20.8934 O   0  0  0  0  0  0  0  0  0  0  0  0
   54.7698    4.5956   20.6288 O   0  0  0  0  0  0  0  0  0  0  0  0
   47.5884    5.7799   11.8223 H   0  0  0  0  0  0  0  0  0  0  0  0
   43.7487    8.9645   12.0202 H   0  0  0  0  0  0  0  0  0  0  0  0
   46.0062    9.7018   12.7387 H   0  0  0  0  0  0  0  0  0  0  0  0
   49.1774    8.1308   10.6737 H   0  0  0  0  0  0  0  0  0  0  0  0
   50.4571    8.0301   11.9560 H   0  0  0  0  0  0  0  0  0  0  0  0
   48.3043   10.2342   11.7014 H   0  0  0  0  0  0  0  0  0  0  0  0
   49.5849   10.1394   12.9854 H   0  0  0  0  0  0  0  0  0  0  0  0
   47.7309    9.2626   14.9349 H   0  0  0  0  0  0  0  0  0  0  0  0
   47.2965    9.9035   17.1197 H   0  0  0  0  0  0  0  0  0  0  0  0
   47.6851    9.5578   19.5234 H   0  0  0  0  0  0  0  0  0  0  0  0
   48.4127    8.1027   21.2785 H   0  0  0  0  0  0  0  0  0  0  0  0
   49.2907    6.6198   20.9475 H   0  0  0  0  0  0  0  0  0  0  0  0
   50.1660    8.1773   21.0384 H   0  0  0  0  0  0  0  0  0  0  0  0
   51.1954    2.7602   17.7722 H   0  0  0  0  0  0  0  0  0  0  0  0
   49.6019    4.5932   17.3286 H   0  0  0  0  0  0  0  0  0  0  0  0
   51.9946    7.2627   19.7091 H   0  0  0  0  0  0  0  0  0  0  0  0
   53.1858    3.1529   19.1956 H   0  0  0  0  0  0  0  0  0  0  0  0
   54.8474    6.6597   21.4005 H   0  0  0  0  0  0  0  0  0  0  0  0
  1  2  1  0
  1  5  1  0
  2  3  1  0
  3  4  1  0
  2  6  1  0
  2  7  1  0
  8  5  1  0
  5  4  2  0
  4  9  1  0
  8 11  2  0
  9 10  2  0
 10 11  1  0
 11 12  1  0
 12 13  1  0
 13 14  1  0
 14 12  1  0
 12 15  1  0
 15 16  2  0
 15 17  1  0
 17 18  1  0
 19 18  2  0
 18 20  1  0
 19 23  1  0
 20 21  2  0
 21 22  1  0
 22 23  2  0
 22 24  1  0
 23 25  1  0
 27 25  1  0
 25 28  2  0
 26 27  2  0
 26 30  1  0
 28 29  1  0
 29 30  2  0
 29 31  1  0
 31 32  1  0
 31 33  2  0
  8 34  1  0
  9 35  1  0
 10 36  1  0
 13 37  1  0
 13 38  1  0
 14 39  1  0
 14 40  1  0
 17 41  1  0
 20 42  1  0
 21 43  1  0
 24 44  1  0
 24 45  1  0
 24 46  1  0
 26 47  1  0
 27 48  1  0
 28 49  1  0
 30 50  1  0
 32 51  1  0
M  END
> <Uni-Dock RESULT> 
ENERGY=   -4.960  LOWER_BOUND=    2.319  UPPER_BOUND=    2.450
INTER + INTRA:          -4.960
INTER:                  -4.960
INTRA:                   0.000
UNBOUND:                 0.000

$$$$

     RDKit          3D

 51 55  0  0  0  0  0  0  0  0999 V2000
   45.1251    4.8435   12.6198 O   0  0  0  0  0  0  0  0  0  0  0  0
   43.8995    5.2209   11.9790 C   0  0  0  0  0  0  0  0  0  0  0  0
   43.7076    6.6348   11.8268 O   0  0  0  0  0  0  0  0  0  0  0  0
   44.8552    7.0898   12.3950 C   0  0  0  0  0  0  0  0  0  0  0  0
   45.6614    6.0722   12.8455 C   0  0  0  0  0  0  0  0  0  0  0  0
   42.8636    4.7214   12.6973 F   0  0  0  0  0  0  0  0  0  0  0  0
   43.8598    4.6476   10.7507 F   0  0  0  0  0  0  0  0  0  0  0  0
   46.8732    6.3232   13.4556 C   0  0  0  0  0  0  0  0  0  0  0  0
   45.2164    8.4103   12.5310 C   0  0  0  0  0  0  0  0  0  0  0  0
   46.4423    8.6880   13.1473 C   0  0  0  0  0  0  0  0  0  0  0  0
   47.2971    7.6574   13.6172 C   0  0  0  0  0  0  0  0  0  0  0  0
   48.6282    7.9660   14.3015 C   0  0  0  0  0  0  0  0  0  0  0  0
   49.8968    7.5507   13.5555 C   0  0  0  0  0  0  0  0  0  0  0  0
   49.5640    9.0021   13.6801 C   0  0  0  0  0  0  0  0  0  0  0  0
   48.6422    7.8159   15.8106 C   0  0  0  0  0  0  0  0  0  0  0  0
   49.0364    6.7652   16.2929 O   0  0  0  0  0  0  0  0  0  0  0  0
   48.1635    8.9355   16.4521 N   0  0  0  0  0  0  0  0  0  0  0  0
   48.0786    9.1009   17.8384 C   0  0  0  0  0  0  0  0  0  0  0  0
   48.5634    8.1689   18.6711 N   0  0  0  0  0  0  0  0  0  0  0  0
   47.4868   10.2644   18.3072 C   0  0  0  0  0  0  0  0  0  0  0  0
   47.3671   10.4525   19.6812 C   0  0  0  0  0  0  0  0  0  0  0  0
   47.8426    9.4790   20.5657 C   0  0  0  0  0  0  0  0  0  0  0  0
   48.4678    8.3540   20.0137 C   0  0  0  0  0  0  0  0  0  0  0  0
   47.6767    9.6886   22.0425 C   0  0  0  0  0  0  0  0  0  0  0  0
   49.0661    7.2609   20.8020 C   0  0  0  0  0  0  0  0  0  0  0  0
   49.2493    4.8714   21.2847 C   0  0  0  0  0  0  0  0  0  0  0  0
   48.6940    5.9267   20.5574 C   0  0  0  0  0  0  0  0  0  0  0  0
   50.0441    7.5017   21.7828 C   0  0  0  0  0  0  0  0  0  0  0  0
   50.6040    6.4469   22.5192 C   0  0  0  0  0  0  0  0  0  0  0  0
   50.1996    5.1316   22.2693 C   0  0  0  0  0  0  0  0  0  0  0  0
   51.6297    6.6783   23.5644 C   0  0  0  0  0  0  0  0  0  0  0  0
   51.9086    7.9818   23.7454 O   0  0  0  0  0  0  0  0  0  0  0  0
   52.1843    5.8195   24.2250 O   0  0  0  0  0  0  0  0  0  0  0  0
   47.4893    5.5019   13.8141 H   0  0  0  0  0  0  0  0  0  0  0  0
   44.5740    9.2072   12.1723 H   0  0  0  0  0  0  0  0  0  0  0  0
   46.7426    9.7280   13.2596 H   0  0  0  0  0  0  0  0  0  0  0  0
   49.8002    7.0860   12.5807 H   0  0  0  0  0  0  0  0  0  0  0  0
   50.7230    7.1594   14.1412 H   0  0  0  0  0  0  0  0  0  0  0  0
   49.2651    9.5189   12.7755 H   0  0  0  0  0  0  0  0  0  0  0  0
   50.1898    9.5980   14.3364 H   0  0  0  0  0  0  0  0  0  0  0  0
   47.8161    9.6836   15.8742 H   0  0  0  0  0  0  0  0  0  0  0  0
   47.1047   11.0196   17.6298 H   0  0  0  0  0  0  0  0  0  0  0  0
   46.8908   11.3551   20.0567 H   0  0  0  0  0  0  0  0  0  0  0  0
   46.8660   10.3963   22.2492 H   0  0  0  0  0  0  0  0  0  0  0  0
   47.4103    8.7550   22.5481 H   0  0  0  0  0  0  0  0  0  0  0  0
   48.5962   10.0925   22.4760 H   0  0  0  0  0  0  0  0  0  0  0  0
   48.9469    3.8492   21.0718 H   0  0  0  0  0  0  0  0  0  0  0  0
   47.9692    5.7076   19.7731 H   0  0  0  0  0  0  0  0  0  0  0  0
   50.3859    8.5191   21.9579 H   0  0  0  0  0  0  0  0  0  0  0  0
   50.6330    4.3058   22.8299 H   0  0  0  0  0  0  0  0  0  0  0  0
   52.5944    7.9748   24.4458 H   0  0  0  0  0  0  0  0  0  0  0  0
  1  2  1  0
  1  5  1  0
  2  3  1  0
  3  4  1  0
  2  6  1  0
  2  7  1  0
  8  5  1  0
  5  4  2  0
  4  9  1  0
  8 11  2  0
  9 10  2  0
 10 11  1  0
 11 12  1  0
 12 13  1  0
 13 14  1  0
 14 12  1  0
 12 15  1  0
 15 16  2  0
 15 17  1  0
 17 18  1  0
 19 18  2  0
 18 20  1  0
 19 23  1  0
 20 21  2  0
 21 22  1  0
 22 23  2  0
 22 24  1  0
 23 25  1  0
 27 25  1  0
 25 28  2  0
 26 27  2  0
 26 30  1  0
 28 29  1  0
 29 30  2  0
 29 31  1  0
 31 32  1  0
 31 33  2  0
  8 34  1  0
  9 35  1  0
 10 36  1  0
 13 37  1  0
 13 38  1  0
 14 39  1  0
 14 40  1  0
 17 41  1  0
 20 42  1  0
 21 43  1  0
 24 44  1  0
 24 45  1  0
 24 46  1  0
 26 47  1  0
 27 48  1  0
 28 49  1  0
 30 50  1  0
 32 51  1  0
M  END
> <Uni-Dock RESULT> 
ENERGY=   -4.914  LOWER_BOUND=    0.776  UPPER_BOUND=    0.798
INTER + INTRA:          -4.914
INTER:                  -4.914
INTRA:                   0.000
UNBOUND:                 0.000

$$$$

     RDKit          3D

 51 55  0  0  0  0  0  0  0  0999 V2000
   43.3683    9.3064   11.3991 O   0  0  0  0  0  0  0  0  0  0  0  0
   42.5821   10.4129   10.9377 C   0  0  0  0  0  0  0  0  0  0  0  0
   43.2797   11.6653   10.8747 O   0  0  0  0  0  0  0  0  0  0  0  0
   44.5054   11.2733   11.3114 C   0  0  0  0  0  0  0  0  0  0  0  0
   44.5566    9.9327   11.6091 C   0  0  0  0  0  0  0  0  0  0  0  0
   41.5133   10.5571   11.7594 F   0  0  0  0  0  0  0  0  0  0  0  0
   42.1105   10.1214    9.7002 F   0  0  0  0  0  0  0  0  0  0  0  0
   45.7120    9.3359   12.0700 C   0  0  0  0  0  0  0  0  0  0  0  0
   45.6045   12.0875   11.4591 C   0  0  0  0  0  0  0  0  0  0  0  0
   46.7879   11.5026   11.9255 C   0  0  0  0  0  0  0  0  0  0  0  0
   46.8710   10.1204   12.2357 C   0  0  0  0  0  0  0  0  0  0  0  0
   48.1612    9.4893   12.7574 C   0  0  0  0  0  0  0  0  0  0  0  0
   48.8551    8.4839   11.8376 C   0  0  0  0  0  0  0  0  0  0  0  0
   49.4848    9.8193   12.0685 C   0  0  0  0  0  0  0  0  0  0  0  0
   48.1932    9.1913   14.2441 C   0  0  0  0  0  0  0  0  0  0  0  0
   47.9010    8.0680   14.6247 O   0  0  0  0  0  0  0  0  0  0  0  0
   48.5441   10.2927   14.9910 N   0  0  0  0  0  0  0  0  0  0  0  0
   48.6808   10.3179   16.3827 C   0  0  0  0  0  0  0  0  0  0  0  0
   48.5586    9.1947   17.1041 N   0  0  0  0  0  0  0  0  0  0  0  0
   48.9563   11.5416   16.9749 C   0  0  0  0  0  0  0  0  0  0  0  0
   49.0784   11.6069   18.3600 C   0  0  0  0  0  0  0  0  0  0  0  0
   48.9274   10.4505   19.1320 C   0  0  0  0  0  0  0  0  0  0  0  0
   48.6955    9.2468   18.4548 C   0  0  0  0  0  0  0  0  0  0  0  0
   49.0337   10.5490   20.6258 C   0  0  0  0  0  0  0  0  0  0  0  0
   48.5616    7.9328   19.1106 C   0  0  0  0  0  0  0  0  0  0  0  0
   47.2880    5.8754   19.4585 C   0  0  0  0  0  0  0  0  0  0  0  0
   47.4376    7.1267   18.8561 C   0  0  0  0  0  0  0  0  0  0  0  0
   49.5537    7.4262   19.9682 C   0  0  0  0  0  0  0  0  0  0  0  0
   49.4089    6.1716   20.5790 C   0  0  0  0  0  0  0  0  0  0  0  0
   48.2704    5.4002   20.3242 C   0  0  0  0  0  0  0  0  0  0  0  0
   50.4378    5.6216   21.4939 C   0  0  0  0  0  0  0  0  0  0  0  0
   51.4649    6.4665   21.6959 O   0  0  0  0  0  0  0  0  0  0  0  0
   50.4025    4.5339   22.0391 O   0  0  0  0  0  0  0  0  0  0  0  0
   45.7256    8.2753   12.3098 H   0  0  0  0  0  0  0  0  0  0  0  0
   45.5554   13.1446   11.2214 H   0  0  0  0  0  0  0  0  0  0  0  0
   47.6664   12.1337   12.0448 H   0  0  0  0  0  0  0  0  0  0  0  0
   48.4235    8.2840   10.8634 H   0  0  0  0  0  0  0  0  0  0  0  0
   49.3132    7.6123   12.2948 H   0  0  0  0  0  0  0  0  0  0  0  0
   49.4958   10.5102   11.2336 H   0  0  0  0  0  0  0  0  0  0  0  0
   50.3907    9.8418   12.6655 H   0  0  0  0  0  0  0  0  0  0  0  0
   48.6820   11.1591   14.4962 H   0  0  0  0  0  0  0  0  0  0  0  0
   49.0636   12.4455   16.3863 H   0  0  0  0  0  0  0  0  0  0  0  0
   49.2794   12.5652   18.8333 H   0  0  0  0  0  0  0  0  0  0  0  0
   48.8394   11.5724   20.9658 H   0  0  0  0  0  0  0  0  0  0  0  0
   48.2928    9.9119   21.1190 H   0  0  0  0  0  0  0  0  0  0  0  0
   50.0383   10.2685   20.9559 H   0  0  0  0  0  0  0  0  0  0  0  0
   46.4112    5.2710   19.2405 H   0  0  0  0  0  0  0  0  0  0  0  0
   46.6732    7.4764   18.1618 H   0  0  0  0  0  0  0  0  0  0  0  0
   50.4560    8.0074   20.1434 H   0  0  0  0  0  0  0  0  0  0  0  0
   48.1518    4.4228   20.7874 H   0  0  0  0  0  0  0  0  0  0  0  0
   52.0545    5.9705   22.3019 H   0  0  0  0  0  0  0  0  0  0  0  0
  1  2  1  0
  1  5  1  0
  2  3  1  0
  3  4  1  0
  2  6  1  0
  2  7  1  0
  8  5  1  0
  5  4  2  0
  4  9  1  0
  8 11  2  0
  9 10  2  0
 10 11  1  0
 11 12  1  0
 12 13  1  0
 13 14  1  0
 14 12  1  0
 12 15  1  0
 15 16  2  0
 15 17  1  0
 17 18  1  0
 19 18  2  0
 18 20  1  0
 19 23  1  0
 20 21  2  0
 21 22  1  0
 22 23  2  0
 22 24  1  0
 23 25  1  0
 27 25  1  0
 25 28  2  0
 26 27  2  0
 26 30  1  0
 28 29  1  0
 29 30  2  0
 29 31  1  0
 31 32  1  0
 31 33  2  0
  8 34  1  0
  9 35  1  0
 10 36  1  0
 13 37  1  0
 13 38  1  0
 14 39  1  0
 14 40  1  0
 17 41  1  0
 20 42  1  0
 21 43  1  0
 24 44  1  0
 24 45  1  0
 24 46  1  0
 26 47  1  0
 27 48  1  0
 28 49  1  0
 30 50  1  0
 32 51  1  0
M  END
> <Uni-Dock RESULT> 
ENERGY=   -4.618  LOWER_BOUND=    2.200  UPPER_BOUND=    2.615
INTER + INTRA:          -4.618
INTER:                  -4.618
INTRA:                   0.000
UNBOUND:                 0.000

$$$$

     RDKit          3D

 51 55  0  0  0  0  0  0  0  0999 V2000
   55.1452    7.4650   11.7780 O   0  0  0  0  0  0  0  0  0  0  0  0
   55.3821    6.9334   10.4678 C   0  0  0  0  0  0  0  0  0  0  0  0
   54.2153    6.8258    9.6394 O   0  0  0  0  0  0  0  0  0  0  0  0
   53.2756    7.3095   10.4935 C   0  0  0  0  0  0  0  0  0  0  0  0
   53.8035    7.6734   11.7090 C   0  0  0  0  0  0  0  0  0  0  0  0
   55.9349    5.7017   10.5937 F   0  0  0  0  0  0  0  0  0  0  0  0
   56.2849    7.7247    9.8372 F   0  0  0  0  0  0  0  0  0  0  0  0
   53.0147    8.1875   12.7175 C   0  0  0  0  0  0  0  0  0  0  0  0
   51.9331    7.4391   10.2223 C   0  0  0  0  0  0  0  0  0  0  0  0
   51.1139    7.9588   11.2317 C   0  0  0  0  0  0  0  0  0  0  0  0
   51.6325    8.3476   12.4940 C   0  0  0  0  0  0  0  0  0  0  0  0
   50.7321    8.9017   13.5974 C   0  0  0  0  0  0  0  0  0  0  0  0
   50.9388   10.3674   13.9816 C   0  0  0  0  0  0  0  0  0  0  0  0
   49.6977    9.9715   13.2494 C   0  0  0  0  0  0  0  0  0  0  0  0
   50.4028    7.9397   14.7227 C   0  0  0  0  0  0  0  0  0  0  0  0
   51.0790    7.9712   15.7394 O   0  0  0  0  0  0  0  0  0  0  0  0
   49.3484    7.1118   14.4115 N   0  0  0  0  0  0  0  0  0  0  0  0
   48.8033    6.1408   15.2579 C   0  0  0  0  0  0  0  0  0  0  0  0
   49.2376    6.0088   16.5191 N   0  0  0  0  0  0  0  0  0  0  0  0
   47.7971    5.3372   14.7425 C   0  0  0  0  0  0  0  0  0  0  0  0
   47.2462    4.3468   15.5507 C   0  0  0  0  0  0  0  0  0  0  0  0
   47.7050    4.1759   16.8609 C   0  0  0  0  0  0  0  0  0  0  0  0
   48.6916    5.0572   17.3205 C   0  0  0  0  0  0  0  0  0  0  0  0
   47.1178    3.0827   17.7049 C   0  0  0  0  0  0  0  0  0  0  0  0
   49.2491    5.0472   18.6855 C   0  0  0  0  0  0  0  0  0  0  0  0
   51.1960    4.9755   20.1623 C   0  0  0  0  0  0  0  0  0  0  0  0
   50.6404    4.9803   18.8808 C   0  0  0  0  0  0  0  0  0  0  0  0
   48.4292    5.1436   19.8235 C   0  0  0  0  0  0  0  0  0  0  0  0
   48.9800    5.1364   21.1136 C   0  0  0  0  0  0  0  0  0  0  0  0
   50.3661    5.0477   21.2786 C   0  0  0  0  0  0  0  0  0  0  0  0
   48.1341    5.2277   22.3279 C   0  0  0  0  0  0  0  0  0  0  0  0
   46.8187    5.2663   22.0483 O   0  0  0  0  0  0  0  0  0  0  0  0
   48.5332    5.2573   23.4773 O   0  0  0  0  0  0  0  0  0  0  0  0
   53.4531    8.4582   13.6752 H   0  0  0  0  0  0  0  0  0  0  0  0
   51.5249    7.1497    9.2600 H   0  0  0  0  0  0  0  0  0  0  0  0
   50.0502    8.0696   11.0307 H   0  0  0  0  0  0  0  0  0  0  0  0
   51.6842   10.9462   13.4481 H   0  0  0  0  0  0  0  0  0  0  0  0
   50.8555   10.6318   15.0312 H   0  0  0  0  0  0  0  0  0  0  0  0
   49.6013   10.3091   12.2240 H   0  0  0  0  0  0  0  0  0  0  0  0
   48.7666    9.9956   13.8060 H   0  0  0  0  0  0  0  0  0  0  0  0
   48.9591    7.1908   13.4859 H   0  0  0  0  0  0  0  0  0  0  0  0
   47.4427    5.4540   13.7248 H   0  0  0  0  0  0  0  0  0  0  0  0
   46.4674    3.7026   15.1494 H   0  0  0  0  0  0  0  0  0  0  0  0
   46.6699    2.3024   17.0795 H   0  0  0  0  0  0  0  0  0  0  0  0
   47.8869    2.5923   18.3101 H   0  0  0  0  0  0  0  0  0  0  0  0
   46.3360    3.4828   18.3572 H   0  0  0  0  0  0  0  0  0  0  0  0
   52.2751    4.9277   20.2842 H   0  0  0  0  0  0  0  0  0  0  0  0
   51.3022    4.9479   18.0150 H   0  0  0  0  0  0  0  0  0  0  0  0
   47.3537    5.2461   19.6997 H   0  0  0  0  0  0  0  0  0  0  0  0
   50.8037    5.0485   22.2749 H   0  0  0  0  0  0  0  0  0  0  0  0
   46.3982    5.3332   22.9313 H   0  0  0  0  0  0  0  0  0  0  0  0
  1  2  1  0
  1  5  1  0
  2  3  1  0
  3  4  1  0
  2  6  1  0
  2  7  1  0
  8  5  1  0
  5  4  2  0
  4  9  1  0
  8 11  2  0
  9 10  2  0
 10 11  1  0
 11 12  1  0
 12 13  1  0
 13 14  1  0
 14 12  1  0
 12 15  1  0
 15 16  2  0
 15 17  1  0
 17 18  1  0
 19 18  2  0
 18 20  1  0
 19 23  1  0
 20 21  2  0
 21 22  1  0
 22 23  2  0
 22 24  1  0
 23 25  1  0
 27 25  1  0
 25 28  2  0
 26 27  2  0
 26 30  1  0
 28 29  1  0
 29 30  2  0
 29 31  1  0
 31 32  1  0
 31 33  2  0
  8 34  1  0
  9 35  1  0
 10 36  1  0
 13 37  1  0
 13 38  1  0
 14 39  1  0
 14 40  1  0
 17 41  1  0
 20 42  1  0
 21 43  1  0
 24 44  1  0
 24 45  1  0
 24 46  1  0
 26 47  1  0
 27 48  1  0
 28 49  1  0
 30 50  1  0
 32 51  1  0
M  END
> <Uni-Dock RESULT> 
ENERGY=   -4.613  LOWER_BOUND=    4.999  UPPER_BOUND=    6.545
INTER + INTRA:          -4.613
INTER:                  -4.613
INTRA:                   0.000
UNBOUND:                 0.000

$$$$

     RDKit          3D

 51 55  0  0  0  0  0  0  0  0999 V2000
   48.4775    5.6466   17.0134 O   0  0  0  0  0  0  0  0  0  0  0  0
   47.5584    4.5533   17.1366 C   0  0  0  0  0  0  0  0  0  0  0  0
   46.8873    4.1882   15.9219 O   0  0  0  0  0  0  0  0  0  0  0  0
   47.4336    5.0954   15.0702 C   0  0  0  0  0  0  0  0  0  0  0  0
   48.3378    5.9242   15.6898 C   0  0  0  0  0  0  0  0  0  0  0  0
   46.6233    4.8761   18.0639 F   0  0  0  0  0  0  0  0  0  0  0  0
   48.2337    3.4709   17.5961 F   0  0  0  0  0  0  0  0  0  0  0  0
   49.0034    6.9163   14.9996 C   0  0  0  0  0  0  0  0  0  0  0  0
   47.1466    5.2144   13.7301 C   0  0  0  0  0  0  0  0  0  0  0  0
   47.8108    6.2146   13.0101 C   0  0  0  0  0  0  0  0  0  0  0  0
   48.7529    7.0811   13.6226 C   0  0  0  0  0  0  0  0  0  0  0  0
   49.4653    8.1802   12.8354 C   0  0  0  0  0  0  0  0  0  0  0  0
   50.9735    8.0187   12.6411 C   0  0  0  0  0  0  0  0  0  0  0  0
   50.0631    7.8508   11.4681 C   0  0  0  0  0  0  0  0  0  0  0  0
   48.9520    9.5892   13.0615 C   0  0  0  0  0  0  0  0  0  0  0  0
   49.5157   10.2952   13.8836 O   0  0  0  0  0  0  0  0  0  0  0  0
   47.8542    9.8772   12.2830 N   0  0  0  0  0  0  0  0  0  0  0  0
   47.1791   11.1019   12.2556 C   0  0  0  0  0  0  0  0  0  0  0  0
   47.6340   12.1514   12.9545 N   0  0  0  0  0  0  0  0  0  0  0  0
   46.0368   11.1836   11.4730 C   0  0  0  0  0  0  0  0  0  0  0  0
   45.3285   12.3813   11.4385 C   0  0  0  0  0  0  0  0  0  0  0  0
   45.7725   13.4795   12.1822 C   0  0  0  0  0  0  0  0  0  0  0  0
   46.9591   13.3297   12.9109 C   0  0  0  0  0  0  0  0  0  0  0  0
   44.9773   14.7519   12.1539 C   0  0  0  0  0  0  0  0  0  0  0  0
   47.5904   14.3988   13.7064 C   0  0  0  0  0  0  0  0  0  0  0  0
   48.5201   15.1699   15.8318 C   0  0  0  0  0  0  0  0  0  0  0  0
   47.9161   14.1773   15.0566 C   0  0  0  0  0  0  0  0  0  0  0  0
   47.9227   15.6444   13.1455 C   0  0  0  0  0  0  0  0  0  0  0  0
   48.5268   16.6470   13.9188 C   0  0  0  0  0  0  0  0  0  0  0  0
   48.8202   16.4064   15.2649 C   0  0  0  0  0  0  0  0  0  0  0  0
   48.8774   17.9709   13.3508 C   0  0  0  0  0  0  0  0  0  0  0  0
   48.5116   18.1019   12.0628 O   0  0  0  0  0  0  0  0  0  0  0  0
   49.4274   18.8806   13.9434 O   0  0  0  0  0  0  0  0  0  0  0  0
   49.7065    7.5675   15.5137 H   0  0  0  0  0  0  0  0  0  0  0  0
   46.4317    4.5557   13.2490 H   0  0  0  0  0  0  0  0  0  0  0  0
   47.5959    6.3190   11.9484 H   0  0  0  0  0  0  0  0  0  0  0  0
   51.4594    7.1361   13.0415 H   0  0  0  0  0  0  0  0  0  0  0  0
   51.5887    8.9118   12.6922 H   0  0  0  0  0  0  0  0  0  0  0  0
   49.9577    6.8502   11.0651 H   0  0  0  0  0  0  0  0  0  0  0  0
   50.0861    8.6264   10.7097 H   0  0  0  0  0  0  0  0  0  0  0  0
   47.4884    9.1337   11.7104 H   0  0  0  0  0  0  0  0  0  0  0  0
   45.6782   10.3347   10.9020 H   0  0  0  0  0  0  0  0  0  0  0  0
   44.4236   12.4491   10.8393 H   0  0  0  0  0  0  0  0  0  0  0  0
   43.9396   14.5591   11.8592 H   0  0  0  0  0  0  0  0  0  0  0  0
   44.9376   15.2170   13.1441 H   0  0  0  0  0  0  0  0  0  0  0  0
   45.4076   15.4546   11.4344 H   0  0  0  0  0  0  0  0  0  0  0  0
   48.7652   14.9701   16.8718 H   0  0  0  0  0  0  0  0  0  0  0  0
   47.7085   13.2058   15.5056 H   0  0  0  0  0  0  0  0  0  0  0  0
   47.7269   15.8247   12.0911 H   0  0  0  0  0  0  0  0  0  0  0  0
   49.2952   17.1748   15.8714 H   0  0  0  0  0  0  0  0  0  0  0  0
   48.8107   19.0060   11.8301 H   0  0  0  0  0  0  0  0  0  0  0  0
  1  2  1  0
  1  5  1  0
  2  3  1  0
  3  4  1  0
  2  6  1  0
  2  7  1  0
  8  5  1  0
  5  4  2  0
  4  9  1  0
  8 11  2  0
  9 10  2  0
 10 11  1  0
 11 12  1  0
 12 13  1  0
 13 14  1  0
 14 12  1  0
 12 15  1  0
 15 16  2  0
 15 17  1  0
 17 18  1  0
 19 18  2  0
 18 20  1  0
 19 23  1  0
 20 21  2  0
 21 22  1  0
 22 23  2  0
 22 24  1  0
 23 25  1  0
 27 25  1  0
 25 28  2  0
 26 27  2  0
 26 30  1  0
 28 29  1  0
 29 30  2  0
 29 31  1  0
 31 32  1  0
 31 33  2  0
  8 34  1  0
  9 35  1  0
 10 36  1  0
 13 37  1  0
 13 38  1  0
 14 39  1  0
 14 40  1  0
 17 41  1  0
 20 42  1  0
 21 43  1  0
 24 44  1  0
 24 45  1  0
 24 46  1  0
 26 47  1  0
 27 48  1  0
 28 49  1  0
 30 50  1  0
 32 51  1  0
M  END
> <Uni-Dock RESULT> 
ENERGY=   -4.518  LOWER_BOUND=    5.263  UPPER_BOUND=    8.608
INTER + INTRA:          -4.518
INTER:                  -4.518
INTRA:                   0.000
UNBOUND:                 0.000

$$$$

     RDKit          3D

 51 55  0  0  0  0  0  0  0  0999 V2000
   47.6021    3.7023   15.6372 O   0  0  0  0  0  0  0  0  0  0  0  0
   47.8109    3.1833   16.9572 C   0  0  0  0  0  0  0  0  0  0  0  0
   48.3610    4.1201   17.8947 O   0  0  0  0  0  0  0  0  0  0  0  0
   48.4736    5.2133   17.0955 C   0  0  0  0  0  0  0  0  0  0  0  0
   48.0420    4.9767   15.8124 C   0  0  0  0  0  0  0  0  0  0  0  0
   48.6439    2.1166   16.8763 F   0  0  0  0  0  0  0  0  0  0  0  0
   46.6238    2.7398   17.4398 F   0  0  0  0  0  0  0  0  0  0  0  0
   48.0743    5.9587   14.8438 C   0  0  0  0  0  0  0  0  0  0  0  0
   48.9605    6.4420   17.4776 C   0  0  0  0  0  0  0  0  0  0  0  0
   49.0022    7.4533   16.5105 C   0  0  0  0  0  0  0  0  0  0  0  0
   48.5585    7.2388   15.1799 C   0  0  0  0  0  0  0  0  0  0  0  0
   48.6186    8.3420   14.1242 C   0  0  0  0  0  0  0  0  0  0  0  0
   47.2806    8.8758   13.6111 C   0  0  0  0  0  0  0  0  0  0  0  0
   48.1288    9.7447   14.4821 C   0  0  0  0  0  0  0  0  0  0  0  0
   49.7408    8.2223   13.1111 C   0  0  0  0  0  0  0  0  0  0  0  0
   49.5086    7.6883   12.0373 O   0  0  0  0  0  0  0  0  0  0  0  0
   50.9266    8.7401   13.5802 N   0  0  0  0  0  0  0  0  0  0  0  0
   52.1270    8.7933   12.8644 C   0  0  0  0  0  0  0  0  0  0  0  0
   52.1788    8.4046   11.5826 N   0  0  0  0  0  0  0  0  0  0  0  0
   53.2462    9.2713   13.5299 C   0  0  0  0  0  0  0  0  0  0  0  0
   54.4622    9.3187   12.8541 C   0  0  0  0  0  0  0  0  0  0  0  0
   54.5420    8.8922   11.5245 C   0  0  0  0  0  0  0  0  0  0  0  0
   53.3577    8.4660   10.9101 C   0  0  0  0  0  0  0  0  0  0  0  0
   55.8689    8.9241   10.8243 C   0  0  0  0  0  0  0  0  0  0  0  0
   53.2564    8.0317    9.5046 C   0  0  0  0  0  0  0  0  0  0  0  0
   52.5689    6.3531    7.8658 C   0  0  0  0  0  0  0  0  0  0  0  0
   52.6832    6.7868    9.1886 C   0  0  0  0  0  0  0  0  0  0  0  0
   53.6835    8.8477    8.4425 C   0  0  0  0  0  0  0  0  0  0  0  0
   53.5744    8.4174    7.1117 C   0  0  0  0  0  0  0  0  0  0  0  0
   53.0195    7.1654    6.8279 C   0  0  0  0  0  0  0  0  0  0  0  0
   54.0267    9.2572    5.9766 C   0  0  0  0  0  0  0  0  0  0  0  0
   54.5796   10.4183    6.3715 O   0  0  0  0  0  0  0  0  0  0  0  0
   53.9410    8.9714    4.7966 O   0  0  0  0  0  0  0  0  0  0  0  0
   47.7378    5.7449   13.8320 H   0  0  0  0  0  0  0  0  0  0  0  0
   49.2988    6.6201   18.4926 H   0  0  0  0  0  0  0  0  0  0  0  0
   49.3825    8.4314   16.7989 H   0  0  0  0  0  0  0  0  0  0  0  0
   46.3642    8.4735   14.0281 H   0  0  0  0  0  0  0  0  0  0  0  0
   47.2047    9.1211   12.5563 H   0  0  0  0  0  0  0  0  0  0  0  0
   47.7645    9.9451   15.4830 H   0  0  0  0  0  0  0  0  0  0  0  0
   48.6068   10.5983   14.0128 H   0  0  0  0  0  0  0  0  0  0  0  0
   50.9374    9.0788   14.5287 H   0  0  0  0  0  0  0  0  0  0  0  0
   53.1972    9.5934   14.5638 H   0  0  0  0  0  0  0  0  0  0  0  0
   55.3476    9.6780   13.3734 H   0  0  0  0  0  0  0  0  0  0  0  0
   56.6933    8.9180   11.5462 H   0  0  0  0  0  0  0  0  0  0  0  0
   56.0045    8.0417   10.1908 H   0  0  0  0  0  0  0  0  0  0  0  0
   55.9582    9.8299   10.2174 H   0  0  0  0  0  0  0  0  0  0  0  0
   52.1175    5.3881    7.6497 H   0  0  0  0  0  0  0  0  0  0  0  0
   52.3046    6.1521    9.9901 H   0  0  0  0  0  0  0  0  0  0  0  0
   54.0851    9.8356    8.6559 H   0  0  0  0  0  0  0  0  0  0  0  0
   52.9239    6.8253    5.7987 H   0  0  0  0  0  0  0  0  0  0  0  0
   54.8166   10.8583    5.5282 H   0  0  0  0  0  0  0  0  0  0  0  0
  1  2  1  0
  1  5  1  0
  2  3  1  0
  3  4  1  0
  2  6  1  0
  2  7  1  0
  8  5  1  0
  5  4  2  0
  4  9  1  0
  8 11  2  0
  9 10  2  0
 10 11  1  0
 11 12  1  0
 12 13  1  0
 13 14  1  0
 14 12  1  0
 12 15  1  0
 15 16  2  0
 15 17  1  0
 17 18  1  0
 19 18  2  0
 18 20  1  0
 19 23  1  0
 20 21  2  0
 21 22  1  0
 22 23  2  0
 22 24  1  0
 23 25  1  0
 27 25  1  0
 25 28  2  0
 26 27  2  0
 26 30  1  0
 28 29  1  0
 29 30  2  0
 29 31  1  0
 31 32  1  0
 31 33  2  0
  8 34  1  0
  9 35  1  0
 10 36  1  0
 13 37  1  0
 13 38  1  0
 14 39  1  0
 14 40  1  0
 17 41  1  0
 20 42  1  0
 21 43  1  0
 24 44  1  0
 24 45  1  0
 24 46  1  0
 26 47  1  0
 27 48  1  0
 28 49  1  0
 30 50  1  0
 32 51  1  0
M  END
> <Uni-Dock RESULT> 
ENERGY=   -4.482  LOWER_BOUND=    5.560  UPPER_BOUND=   10.025
INTER + INTRA:          -4.482
INTER:                  -4.482
INTRA:                   0.000
UNBOUND:                 0.000

$$$$
