
     RDKit          3D

 51 55  0  0  0  0  0  0  0  0999 V2000
   44.5803    5.0976   11.6477 O   0  0  0  0  0  0  0  0  0  0  0  0
   43.3464    5.7117   11.2522 C   0  0  0  0  0  0  0  0  0  0  0  0
   43.2946    7.1342   11.4307 O   0  0  0  0  0  0  0  0  0  0  0  0
   44.5343    7.3517   11.9431 C   0  0  0  0  0  0  0  0  0  0  0  0
   45.2657    6.1947   12.0663 C   0  0  0  0  0  0  0  0  0  0  0  0
   43.1270    5.4345    9.9430 F   0  0  0  0  0  0  0  0  0  0  0  0
   42.3372    5.1512   11.9634 F   0  0  0  0  0  0  0  0  0  0  0  0
   46.5509    6.1980   12.5685 C   0  0  0  0  0  0  0  0  0  0  0  0
   45.0478    8.5720   12.3166 C   0  0  0  0  0  0  0  0  0  0  0  0
   46.3506    8.5990   12.8282 C   0  0  0  0  0  0  0  0  0  0  0  0
   47.1305    7.4211   12.9602 C   0  0  0  0  0  0  0  0  0  0  0  0
   48.5457    7.4618   13.5338 C   0  0  0  0  0  0  0  0  0  0  0  0
   49.5455    8.4618   12.9544 C   0  0  0  0  0  0  0  0  0  0  0  0
   49.6819    7.0130   12.6147 C   0  0  0  0  0  0  0  0  0  0  0  0
   48.6675    7.1019   14.9982 C   0  0  0  0  0  0  0  0  0  0  0  0
   48.9012    5.9441   15.3153 O   0  0  0  0  0  0  0  0  0  0  0  0
   48.4827    8.1753   15.8289 N   0  0  0  0  0  0  0  0  0  0  0  0
   48.5110    8.2080   17.2204 C   0  0  0  0  0  0  0  0  0  0  0  0
   48.2834    9.4369   17.7262 N   0  0  0  0  0  0  0  0  0  0  0  0
   48.7438    7.1048   18.0216 C   0  0  0  0  0  0  0  0  0  0  0  0
   48.7502    7.2739   19.4040 C   0  0  0  0  0  0  0  0  0  0  0  0
   48.5281    8.5373   19.9591 C   0  0  0  0  0  0  0  0  0  0  0  0
   48.2775    9.5943   19.0765 C   0  0  0  0  0  0  0  0  0  0  0  0
   48.5464    8.7057   21.4499 C   0  0  0  0  0  0  0  0  0  0  0  0
   47.9946   10.9711   19.5091 C   0  0  0  0  0  0  0  0  0  0  0  0
   46.5763   12.5942   20.6508 C   0  0  0  0  0  0  0  0  0  0  0  0
   46.8412   11.2831   20.2488 C   0  0  0  0  0  0  0  0  0  0  0  0
   48.8684   12.0167   19.1632 C   0  0  0  0  0  0  0  0  0  0  0  0
   48.6079   13.3340   19.5637 C   0  0  0  0  0  0  0  0  0  0  0  0
   47.4596   13.6177   20.3115 C   0  0  0  0  0  0  0  0  0  0  0  0
   49.5144   14.4552   19.2187 C   0  0  0  0  0  0  0  0  0  0  0  0
   50.5920   14.0621   18.5174 O   0  0  0  0  0  0  0  0  0  0  0  0
   49.3485   15.6232   19.5184 O   0  0  0  0  0  0  0  0  0  0  0  0
   47.1047    5.2680   12.6667 H   0  0  0  0  0  0  0  0  0  0  0  0
   44.4636    9.4809   12.2203 H   0  0  0  0  0  0  0  0  0  0  0  0
   46.7701    9.5570   13.1314 H   0  0  0  0  0  0  0  0  0  0  0  0
   50.2944    8.8916   13.6115 H   0  0  0  0  0  0  0  0  0  0  0  0
   49.2277    9.1306   12.1624 H   0  0  0  0  0  0  0  0  0  0  0  0
   50.5026    6.4566   13.0560 H   0  0  0  0  0  0  0  0  0  0  0  0
   49.4450    6.7041   11.6026 H   0  0  0  0  0  0  0  0  0  0  0  0
   48.2841    9.0787   15.4244 H   0  0  0  0  0  0  0  0  0  0  0  0
   48.9220    6.1179   17.6118 H   0  0  0  0  0  0  0  0  0  0  0  0
   48.9359    6.4117   20.0406 H   0  0  0  0  0  0  0  0  0  0  0  0
   47.5252    8.7649   21.8384 H   0  0  0  0  0  0  0  0  0  0  0  0
   49.1003    9.6051   21.7372 H   0  0  0  0  0  0  0  0  0  0  0  0
   49.0446    7.8600   21.9366 H   0  0  0  0  0  0  0  0  0  0  0  0
   45.6782   12.8177   21.2216 H   0  0  0  0  0  0  0  0  0  0  0  0
   46.1305   10.4993   20.5054 H   0  0  0  0  0  0  0  0  0  0  0  0
   49.7553   11.7897   18.5738 H   0  0  0  0  0  0  0  0  0  0  0  0
   47.2468   14.6379   20.6253 H   0  0  0  0  0  0  0  0  0  0  0  0
   51.0897   14.8927   18.3663 H   0  0  0  0  0  0  0  0  0  0  0  0
  1  2  1  0
  1  5  1  0
  2  3  1  0
  3  4  1  0
  2  6  1  0
  2  7  1  0
  8  5  1  0
  5  4  2  0
  4  9  1  0
  8 11  2  0
  9 10  2  0
 10 11  1  0
 11 12  1  0
 12 13  1  0
 13 14  1  0
 14 12  1  0
 12 15  1  0
 15 16  2  0
 15 17  1  0
 17 18  1  0
 19 18  2  0
 18 20  1  0
 19 23  1  0
 20 21  2  0
 21 22  1  0
 22 23  2  0
 22 24  1  0
 23 25  1  0
 27 25  1  0
 25 28  2  0
 26 27  2  0
 26 30  1  0
 28 29  1  0
 29 30  2  0
 29 31  1  0
 31 32  1  0
 31 33  2  0
  8 34  1  0
  9 35  1  0
 10 36  1  0
 13 37  1  0
 13 38  1  0
 14 39  1  0
 14 40  1  0
 17 41  1  0
 20 42  1  0
 21 43  1  0
 24 44  1  0
 24 45  1  0
 24 46  1  0
 26 47  1  0
 27 48  1  0
 28 49  1  0
 30 50  1  0
 32 51  1  0
M  END
> <Uni-Dock RESULT> 
ENERGY=   -5.511  LOWER_BOUND=    0.000  UPPER_BOUND=    0.000
INTER + INTRA:          -5.511
INTER:                  -5.511
INTRA:                   0.000
UNBOUND:                 0.000

$$$$

     RDKit          3D

 51 55  0  0  0  0  0  0  0  0999 V2000
   51.7342    0.7483   17.0447 O   0  0  0  0  0  0  0  0  0  0  0  0
   53.0329    0.8165   17.6487 C   0  0  0  0  0  0  0  0  0  0  0  0
   53.3073    2.0337   18.3565 O   0  0  0  0  0  0  0  0  0  0  0  0
   52.1339    2.6899   18.1587 C   0  0  0  0  0  0  0  0  0  0  0  0
   51.2392    1.9597   17.4136 C   0  0  0  0  0  0  0  0  0  0  0  0
   53.1619   -0.2213   18.5121 F   0  0  0  0  0  0  0  0  0  0  0  0
   53.9688    0.6610   16.6801 F   0  0  0  0  0  0  0  0  0  0  0  0
   49.9877    2.4480   17.0982 C   0  0  0  0  0  0  0  0  0  0  0  0
   51.8258    3.9464   18.6263 C   0  0  0  0  0  0  0  0  0  0  0  0
   50.5610    4.4614   18.3189 C   0  0  0  0  0  0  0  0  0  0  0  0
   49.6154    3.7270   17.5573 C   0  0  0  0  0  0  0  0  0  0  0  0
   48.2439    4.3062   17.2159 C   0  0  0  0  0  0  0  0  0  0  0  0
   47.3888    4.8849   18.3426 C   0  0  0  0  0  0  0  0  0  0  0  0
   47.0213    3.5619   17.7531 C   0  0  0  0  0  0  0  0  0  0  0  0
   48.1194    4.9233   15.8402 C   0  0  0  0  0  0  0  0  0  0  0  0
   47.7229    4.2383   14.9078 O   0  0  0  0  0  0  0  0  0  0  0  0
   48.4945    6.2403   15.8099 N   0  0  0  0  0  0  0  0  0  0  0  0
   48.5197    7.1084   14.7219 C   0  0  0  0  0  0  0  0  0  0  0  0
   48.9496    8.3458   15.0412 N   0  0  0  0  0  0  0  0  0  0  0  0
   48.1493    6.7580   13.4362 C   0  0  0  0  0  0  0  0  0  0  0  0
   48.2167    7.7246   12.4357 C   0  0  0  0  0  0  0  0  0  0  0  0
   48.6480    9.0196   12.7368 C   0  0  0  0  0  0  0  0  0  0  0  0
   49.0262    9.2821   14.0585 C   0  0  0  0  0  0  0  0  0  0  0  0
   48.7074   10.0525   11.6503 C   0  0  0  0  0  0  0  0  0  0  0  0
   49.5308   10.5836   14.5214 C   0  0  0  0  0  0  0  0  0  0  0  0
   51.2188   12.3440   14.4932 C   0  0  0  0  0  0  0  0  0  0  0  0
   50.7432   11.1100   14.0441 C   0  0  0  0  0  0  0  0  0  0  0  0
   48.8152   11.3209   15.4811 C   0  0  0  0  0  0  0  0  0  0  0  0
   49.2874   12.5596   15.9353 C   0  0  0  0  0  0  0  0  0  0  0  0
   50.4907   13.0692   15.4350 C   0  0  0  0  0  0  0  0  0  0  0  0
   48.5512   13.3613   16.9418 C   0  0  0  0  0  0  0  0  0  0  0  0
   47.4026   12.7836   17.3349 O   0  0  0  0  0  0  0  0  0  0  0  0
   48.9037   14.4355   17.3929 O   0  0  0  0  0  0  0  0  0  0  0  0
   49.3022    1.8557   16.4978 H   0  0  0  0  0  0  0  0  0  0  0  0
   52.5381    4.5188   19.2106 H   0  0  0  0  0  0  0  0  0  0  0  0
   50.3033    5.4562   18.6791 H   0  0  0  0  0  0  0  0  0  0  0  0
   46.7375    5.7250   18.1251 H   0  0  0  0  0  0  0  0  0  0  0  0
   47.7773    4.8876   19.3549 H   0  0  0  0  0  0  0  0  0  0  0  0
   46.1411    3.5078   17.1205 H   0  0  0  0  0  0  0  0  0  0  0  0
   47.1730    2.6758   18.3594 H   0  0  0  0  0  0  0  0  0  0  0  0
   48.8144    6.6778   16.6617 H   0  0  0  0  0  0  0  0  0  0  0  0
   47.8085    5.7615   13.1823 H   0  0  0  0  0  0  0  0  0  0  0  0
   47.9238    7.4574   11.4228 H   0  0  0  0  0  0  0  0  0  0  0  0
   49.7385   10.1876   11.3100 H   0  0  0  0  0  0  0  0  0  0  0  0
   48.3075   11.0109   11.9967 H   0  0  0  0  0  0  0  0  0  0  0  0
   48.1032    9.7527   10.7871 H   0  0  0  0  0  0  0  0  0  0  0  0
   52.1597   12.7356   14.1139 H   0  0  0  0  0  0  0  0  0  0  0  0
   51.3345   10.5478   13.3233 H   0  0  0  0  0  0  0  0  0  0  0  0
   47.8842   10.9139   15.8723 H   0  0  0  0  0  0  0  0  0  0  0  0
   50.8675   14.0292   15.7831 H   0  0  0  0  0  0  0  0  0  0  0  0
   47.0325   13.4157   17.9860 H   0  0  0  0  0  0  0  0  0  0  0  0
  1  2  1  0
  1  5  1  0
  2  3  1  0
  3  4  1  0
  2  6  1  0
  2  7  1  0
  8  5  1  0
  5  4  2  0
  4  9  1  0
  8 11  2  0
  9 10  2  0
 10 11  1  0
 11 12  1  0
 12 13  1  0
 13 14  1  0
 14 12  1  0
 12 15  1  0
 15 16  2  0
 15 17  1  0
 17 18  1  0
 19 18  2  0
 18 20  1  0
 19 23  1  0
 20 21  2  0
 21 22  1  0
 22 23  2  0
 22 24  1  0
 23 25  1  0
 27 25  1  0
 25 28  2  0
 26 27  2  0
 26 30  1  0
 28 29  1  0
 29 30  2  0
 29 31  1  0
 31 32  1  0
 31 33  2  0
  8 34  1  0
  9 35  1  0
 10 36  1  0
 13 37  1  0
 13 38  1  0
 14 39  1  0
 14 40  1  0
 17 41  1  0
 20 42  1  0
 21 43  1  0
 24 44  1  0
 24 45  1  0
 24 46  1  0
 26 47  1  0
 27 48  1  0
 28 49  1  0
 30 50  1  0
 32 51  1  0
M  END
> <Uni-Dock RESULT> 
ENERGY=   -5.401  LOWER_BOUND=    4.911  UPPER_BOUND=    7.582
INTER + INTRA:          -5.401
INTER:                  -5.401
INTRA:                   0.000
UNBOUND:                 0.000

$$$$

     RDKit          3D

 51 55  0  0  0  0  0  0  0  0999 V2000
   49.7513   11.4201   22.1814 O   0  0  0  0  0  0  0  0  0  0  0  0
   48.8112   12.4580   22.4894 C   0  0  0  0  0  0  0  0  0  0  0  0
   47.4862   12.2433   21.9833 O   0  0  0  0  0  0  0  0  0  0  0  0
   47.6622   11.0460   21.3650 C   0  0  0  0  0  0  0  0  0  0  0  0
   48.9493   10.5773   21.4776 C   0  0  0  0  0  0  0  0  0  0  0  0
   48.7404   12.5895   23.8373 F   0  0  0  0  0  0  0  0  0  0  0  0
   49.2794   13.6278   21.9887 F   0  0  0  0  0  0  0  0  0  0  0  0
   49.3368    9.3774   20.9174 C   0  0  0  0  0  0  0  0  0  0  0  0
   46.6956   10.3414   20.6856 C   0  0  0  0  0  0  0  0  0  0  0  0
   47.0665    9.1206   20.1097 C   0  0  0  0  0  0  0  0  0  0  0  0
   48.3860    8.6098   20.2159 C   0  0  0  0  0  0  0  0  0  0  0  0
   48.7819    7.2833   19.5702 C   0  0  0  0  0  0  0  0  0  0  0  0
   47.9225    6.0487   19.8399 C   0  0  0  0  0  0  0  0  0  0  0  0
   49.2558    6.1693   20.5040 C   0  0  0  0  0  0  0  0  0  0  0  0
   49.4712    7.3903   18.2278 C   0  0  0  0  0  0  0  0  0  0  0  0
   50.6928    7.4271   18.1805 O   0  0  0  0  0  0  0  0  0  0  0  0
   48.5919    7.4434   17.1789 N   0  0  0  0  0  0  0  0  0  0  0  0
   48.8715    7.5555   15.8197 C   0  0  0  0  0  0  0  0  0  0  0  0
   47.7638    7.5851   15.0516 N   0  0  0  0  0  0  0  0  0  0  0  0
   50.1468    7.6331   15.2899 C   0  0  0  0  0  0  0  0  0  0  0  0
   50.2900    7.7384   13.9085 C   0  0  0  0  0  0  0  0  0  0  0  0
   49.1614    7.7609   13.0842 C   0  0  0  0  0  0  0  0  0  0  0  0
   47.9084    7.7013   13.7048 C   0  0  0  0  0  0  0  0  0  0  0  0
   49.3316    7.8662   11.5972 C   0  0  0  0  0  0  0  0  0  0  0  0
   46.6319    7.7477   12.9760 C   0  0  0  0  0  0  0  0  0  0  0  0
   45.0284    8.9255   11.5649 C   0  0  0  0  0  0  0  0  0  0  0  0
   46.2452    8.8868   12.2496 C   0  0  0  0  0  0  0  0  0  0  0  0
   45.7528    6.6513   13.0154 C   0  0  0  0  0  0  0  0  0  0  0  0
   44.5307    6.6843   12.3304 C   0  0  0  0  0  0  0  0  0  0  0  0
   44.1738    7.8249   11.6027 C   0  0  0  0  0  0  0  0  0  0  0  0
   43.5870    5.5411   12.3493 C   0  0  0  0  0  0  0  0  0  0  0  0
   44.0427    4.4960   13.0619 O   0  0  0  0  0  0  0  0  0  0  0  0
   42.5056    5.5011   11.7921 O   0  0  0  0  0  0  0  0  0  0  0  0
   50.3637    9.0338   21.0106 H   0  0  0  0  0  0  0  0  0  0  0  0
   45.6827   10.7190   20.5973 H   0  0  0  0  0  0  0  0  0  0  0  0
   46.3134    8.5526   19.5657 H   0  0  0  0  0  0  0  0  0  0  0  0
   47.8212    5.3023   19.0588 H   0  0  0  0  0  0  0  0  0  0  0  0
   47.0438    6.1416   20.4682 H   0  0  0  0  0  0  0  0  0  0  0  0
   50.0607    5.5271   20.1611 H   0  0  0  0  0  0  0  0  0  0  0  0
   49.2763    6.3553   21.5720 H   0  0  0  0  0  0  0  0  0  0  0  0
   47.6008    7.4140   17.3690 H   0  0  0  0  0  0  0  0  0  0  0  0
   51.0346    7.6135   15.9104 H   0  0  0  0  0  0  0  0  0  0  0  0
   51.2898    7.7965   13.4842 H   0  0  0  0  0  0  0  0  0  0  0  0
   49.1372    8.8901   11.2638 H   0  0  0  0  0  0  0  0  0  0  0  0
   48.6601    7.1772   11.0749 H   0  0  0  0  0  0  0  0  0  0  0  0
   50.3511    7.6008   11.2968 H   0  0  0  0  0  0  0  0  0  0  0  0
   44.7446    9.8157   11.0089 H   0  0  0  0  0  0  0  0  0  0  0  0
   46.8914    9.7626   12.2258 H   0  0  0  0  0  0  0  0  0  0  0  0
   46.0333    5.7707   13.5909 H   0  0  0  0  0  0  0  0  0  0  0  0
   43.2258    7.8616   11.0692 H   0  0  0  0  0  0  0  0  0  0  0  0
   43.3284    3.8295   12.9843 H   0  0  0  0  0  0  0  0  0  0  0  0
  1  2  1  0
  1  5  1  0
  2  3  1  0
  3  4  1  0
  2  6  1  0
  2  7  1  0
  8  5  1  0
  5  4  2  0
  4  9  1  0
  8 11  2  0
  9 10  2  0
 10 11  1  0
 11 12  1  0
 12 13  1  0
 13 14  1  0
 14 12  1  0
 12 15  1  0
 15 16  2  0
 15 17  1  0
 17 18  1  0
 19 18  2  0
 18 20  1  0
 19 23  1  0
 20 21  2  0
 21 22  1  0
 22 23  2  0
 22 24  1  0
 23 25  1  0
 27 25  1  0
 25 28  2  0
 26 27  2  0
 26 30  1  0
 28 29  1  0
 29 30  2  0
 29 31  1  0
 31 32  1  0
 31 33  2  0
  8 34  1  0
  9 35  1  0
 10 36  1  0
 13 37  1  0
 13 38  1  0
 14 39  1  0
 14 40  1  0
 17 41  1  0
 20 42  1  0
 21 43  1  0
 24 44  1  0
 24 45  1  0
 24 46  1  0
 26 47  1  0
 27 48  1  0
 28 49  1  0
 30 50  1  0
 32 51  1  0
M  END
> <Uni-Dock RESULT> 
ENERGY=   -5.082  LOWER_BOUND=    4.270  UPPER_BOUND=    9.571
INTER + INTRA:          -5.082
INTER:                  -5.082
INTRA:                   0.000
UNBOUND:                 0.000

$$$$

     RDKit          3D

 51 55  0  0  0  0  0  0  0  0999 V2000
   45.6520    4.5863    8.6767 O   0  0  0  0  0  0  0  0  0  0  0  0
   44.9594    3.3365    8.7963 C   0  0  0  0  0  0  0  0  0  0  0  0
   44.3837    3.0854   10.0860 O   0  0  0  0  0  0  0  0  0  0  0  0
   44.7516    4.2225   10.7327 C   0  0  0  0  0  0  0  0  0  0  0  0
   45.4721    5.0763    9.9321 C   0  0  0  0  0  0  0  0  0  0  0  0
   43.9699    3.3014    7.8696 F   0  0  0  0  0  0  0  0  0  0  0  0
   45.8250    2.3335    8.5081 F   0  0  0  0  0  0  0  0  0  0  0  0
   45.9422    6.2866   10.3991 C   0  0  0  0  0  0  0  0  0  0  0  0
   44.4646    4.5325   12.0419 C   0  0  0  0  0  0  0  0  0  0  0  0
   44.9312    5.7561   12.5367 C   0  0  0  0  0  0  0  0  0  0  0  0
   45.6715    6.6593   11.7307 C   0  0  0  0  0  0  0  0  0  0  0  0
   46.1878    7.9850   12.2868 C   0  0  0  0  0  0  0  0  0  0  0  0
   45.2104    8.9085   13.0129 C   0  0  0  0  0  0  0  0  0  0  0  0
   45.6637    9.2643   11.6341 C   0  0  0  0  0  0  0  0  0  0  0  0
   47.6333    7.9872   12.7333 C   0  0  0  0  0  0  0  0  0  0  0  0
   48.5050    8.3288   11.9464 O   0  0  0  0  0  0  0  0  0  0  0  0
   47.7920    7.5764   14.0304 N   0  0  0  0  0  0  0  0  0  0  0  0
   48.9712    7.4450   14.7587 C   0  0  0  0  0  0  0  0  0  0  0  0
   48.7700    7.0086   16.0184 N   0  0  0  0  0  0  0  0  0  0  0  0
   50.2307    7.7247   14.2602 C   0  0  0  0  0  0  0  0  0  0  0  0
   51.3317    7.5554   15.0961 C   0  0  0  0  0  0  0  0  0  0  0  0
   51.1554    7.1146   16.4108 C   0  0  0  0  0  0  0  0  0  0  0  0
   49.8491    6.8322   16.8263 C   0  0  0  0  0  0  0  0  0  0  0  0
   52.3501    6.9449   17.3023 C   0  0  0  0  0  0  0  0  0  0  0  0
   49.5076    6.3307   18.1660 C   0  0  0  0  0  0  0  0  0  0  0  0
   49.6135    4.5998   19.8813 C   0  0  0  0  0  0  0  0  0  0  0  0
   49.9470    5.0718   18.6098 C   0  0  0  0  0  0  0  0  0  0  0  0
   48.7035    7.0982   19.0267 C   0  0  0  0  0  0  0  0  0  0  0  0
   48.3656    6.6298   20.3035 C   0  0  0  0  0  0  0  0  0  0  0  0
   48.8266    5.3787   20.7281 C   0  0  0  0  0  0  0  0  0  0  0  0
   47.5246    7.4198   21.2343 C   0  0  0  0  0  0  0  0  0  0  0  0
   47.1572    8.6100   20.7282 O   0  0  0  0  0  0  0  0  0  0  0  0
   47.1795    7.0749   22.3494 O   0  0  0  0  0  0  0  0  0  0  0  0
   46.5195    6.9393    9.7496 H   0  0  0  0  0  0  0  0  0  0  0  0
   43.8987    3.8524   12.6694 H   0  0  0  0  0  0  0  0  0  0  0  0
   44.7149    6.0144   13.5721 H   0  0  0  0  0  0  0  0  0  0  0  0
   45.5785    9.5189   13.8309 H   0  0  0  0  0  0  0  0  0  0  0  0
   44.1782    8.5988   13.1326 H   0  0  0  0  0  0  0  0  0  0  0  0
   46.3531   10.0945   11.5180 H   0  0  0  0  0  0  0  0  0  0  0  0
   44.9451    9.1828   10.8263 H   0  0  0  0  0  0  0  0  0  0  0  0
   46.9764    7.3114   14.5631 H   0  0  0  0  0  0  0  0  0  0  0  0
   50.3891    8.0711   13.2460 H   0  0  0  0  0  0  0  0  0  0  0  0
   52.3251    7.7766   14.7123 H   0  0  0  0  0  0  0  0  0  0  0  0
   52.6213    5.8876   17.3776 H   0  0  0  0  0  0  0  0  0  0  0  0
   52.1544    7.3450   18.3024 H   0  0  0  0  0  0  0  0  0  0  0  0
   53.2162    7.4888   16.9095 H   0  0  0  0  0  0  0  0  0  0  0  0
   49.9612    3.6226   20.2078 H   0  0  0  0  0  0  0  0  0  0  0  0
   50.5457    4.4419   17.9540 H   0  0  0  0  0  0  0  0  0  0  0  0
   48.3412    8.0668   18.6861 H   0  0  0  0  0  0  0  0  0  0  0  0
   48.5677    5.0047   21.7169 H   0  0  0  0  0  0  0  0  0  0  0  0
   46.6184    9.0122   21.4412 H   0  0  0  0  0  0  0  0  0  0  0  0
  1  2  1  0
  1  5  1  0
  2  3  1  0
  3  4  1  0
  2  6  1  0
  2  7  1  0
  8  5  1  0
  5  4  2  0
  4  9  1  0
  8 11  2  0
  9 10  2  0
 10 11  1  0
 11 12  1  0
 12 13  1  0
 13 14  1  0
 14 12  1  0
 12 15  1  0
 15 16  2  0
 15 17  1  0
 17 18  1  0
 19 18  2  0
 18 20  1  0
 19 23  1  0
 20 21  2  0
 21 22  1  0
 22 23  2  0
 22 24  1  0
 23 25  1  0
 27 25  1  0
 25 28  2  0
 26 27  2  0
 26 30  1  0
 28 29  1  0
 29 30  2  0
 29 31  1  0
 31 32  1  0
 31 33  2  0
  8 34  1  0
  9 35  1  0
 10 36  1  0
 13 37  1  0
 13 38  1  0
 14 39  1  0
 14 40  1  0
 17 41  1  0
 20 42  1  0
 21 43  1  0
 24 44  1  0
 24 45  1  0
 24 46  1  0
 26 47  1  0
 27 48  1  0
 28 49  1  0
 30 50  1  0
 32 51  1  0
M  END
> <Uni-Dock RESULT> 
ENERGY=   -4.900  LOWER_BOUND=    3.651  UPPER_BOUND=    4.999
INTER + INTRA:          -4.900
INTER:                  -4.900
INTRA:                   0.000
UNBOUND:                 0.000

$$$$

     RDKit          3D

 51 55  0  0  0  0  0  0  0  0999 V2000
   43.9116    7.1070   12.0026 O   0  0  0  0  0  0  0  0  0  0  0  0
   43.4093    5.7916   11.7316 C   0  0  0  0  0  0  0  0  0  0  0  0
   44.3071    4.7220   12.0602 O   0  0  0  0  0  0  0  0  0  0  0  0
   45.3598    5.4373   12.5366 C   0  0  0  0  0  0  0  0  0  0  0  0
   45.1355    6.7928   12.5046 C   0  0  0  0  0  0  0  0  0  0  0  0
   42.2593    5.6171   12.4289 F   0  0  0  0  0  0  0  0  0  0  0  0
   43.1044    5.7085   10.4132 F   0  0  0  0  0  0  0  0  0  0  0  0
   46.0820    7.6961   12.9430 C   0  0  0  0  0  0  0  0  0  0  0  0
   46.5417    4.9134   13.0066 C   0  0  0  0  0  0  0  0  0  0  0  0
   47.5162    5.8117   13.4574 C   0  0  0  0  0  0  0  0  0  0  0  0
   47.3089    7.2153   13.4419 C   0  0  0  0  0  0  0  0  0  0  0  0
   48.3860    8.1858   13.9227 C   0  0  0  0  0  0  0  0  0  0  0  0
   49.0236    7.9569   15.2926 C   0  0  0  0  0  0  0  0  0  0  0  0
   48.0409    9.0696   15.1215 C   0  0  0  0  0  0  0  0  0  0  0  0
   49.2372    8.8069   12.8372 C   0  0  0  0  0  0  0  0  0  0  0  0
   48.9109    9.8849   12.3603 O   0  0  0  0  0  0  0  0  0  0  0  0
   50.3199    8.0378   12.5020 N   0  0  0  0  0  0  0  0  0  0  0  0
   51.2986    8.2910   11.5448 C   0  0  0  0  0  0  0  0  0  0  0  0
   52.2278    7.3171   11.4667 N   0  0  0  0  0  0  0  0  0  0  0  0
   51.3321    9.4176   10.7431 C   0  0  0  0  0  0  0  0  0  0  0  0
   52.3711    9.5526    9.8255 C   0  0  0  0  0  0  0  0  0  0  0  0
   53.3558    8.5655    9.7277 C   0  0  0  0  0  0  0  0  0  0  0  0
   53.2326    7.4472   10.5602 C   0  0  0  0  0  0  0  0  0  0  0  0
   54.4737    8.7288    8.7404 C   0  0  0  0  0  0  0  0  0  0  0  0
   54.1691    6.3134   10.5505 C   0  0  0  0  0  0  0  0  0  0  0  0
   55.1943    4.4095    9.4220 C   0  0  0  0  0  0  0  0  0  0  0  0
   54.3071    5.4881    9.4214 C   0  0  0  0  0  0  0  0  0  0  0  0
   54.9322    6.0142   11.6927 C   0  0  0  0  0  0  0  0  0  0  0  0
   55.8240    4.9334   11.6992 C   0  0  0  0  0  0  0  0  0  0  0  0
   55.9539    4.1342   10.5579 C   0  0  0  0  0  0  0  0  0  0  0  0
   56.6455    4.5981   12.8868 C   0  0  0  0  0  0  0  0  0  0  0  0
   56.4525    5.4437   13.9142 O   0  0  0  0  0  0  0  0  0  0  0  0
   57.4291    3.6706   12.9720 O   0  0  0  0  0  0  0  0  0  0  0  0
   45.8852    8.7640   12.8968 H   0  0  0  0  0  0  0  0  0  0  0  0
   46.7137    3.8426   13.0255 H   0  0  0  0  0  0  0  0  0  0  0  0
   48.4585    5.4126   13.8294 H   0  0  0  0  0  0  0  0  0  0  0  0
   50.0640    8.2294   15.4363 H   0  0  0  0  0  0  0  0  0  0  0  0
   48.7119    7.1051   15.8865 H   0  0  0  0  0  0  0  0  0  0  0  0
   48.4131   10.0891   15.1248 H   0  0  0  0  0  0  0  0  0  0  0  0
   47.0672    8.9633   15.5866 H   0  0  0  0  0  0  0  0  0  0  0  0
   50.4601    7.1571   12.9753 H   0  0  0  0  0  0  0  0  0  0  0  0
   50.5814   10.1961   10.8055 H   0  0  0  0  0  0  0  0  0  0  0  0
   52.4061   10.4375    9.1939 H   0  0  0  0  0  0  0  0  0  0  0  0
   54.2924    8.1116    7.8552 H   0  0  0  0  0  0  0  0  0  0  0  0
   55.4353    8.4557    9.1866 H   0  0  0  0  0  0  0  0  0  0  0  0
   54.5626    9.7706    8.4135 H   0  0  0  0  0  0  0  0  0  0  0  0
   55.2874    3.7806    8.5398 H   0  0  0  0  0  0  0  0  0  0  0  0
   53.7072    5.6767    8.5327 H   0  0  0  0  0  0  0  0  0  0  0  0
   54.8194    6.6352   12.5799 H   0  0  0  0  0  0  0  0  0  0  0  0
   56.6419    3.2908   10.5534 H   0  0  0  0  0  0  0  0  0  0  0  0
   57.0507    5.1050   14.6127 H   0  0  0  0  0  0  0  0  0  0  0  0
  1  2  1  0
  1  5  1  0
  2  3  1  0
  3  4  1  0
  2  6  1  0
  2  7  1  0
  8  5  1  0
  5  4  2  0
  4  9  1  0
  8 11  2  0
  9 10  2  0
 10 11  1  0
 11 12  1  0
 12 13  1  0
 13 14  1  0
 14 12  1  0
 12 15  1  0
 15 16  2  0
 15 17  1  0
 17 18  1  0
 19 18  2  0
 18 20  1  0
 19 23  1  0
 20 21  2  0
 21 22  1  0
 22 23  2  0
 22 24  1  0
 23 25  1  0
 27 25  1  0
 25 28  2  0
 26 27  2  0
 26 30  1  0
 28 29  1  0
 29 30  2  0
 29 31  1  0
 31 32  1  0
 31 33  2  0
  8 34  1  0
  9 35  1  0
 10 36  1  0
 13 37  1  0
 13 38  1  0
 14 39  1  0
 14 40  1  0
 17 41  1  0
 20 42  1  0
 21 43  1  0
 24 44  1  0
 24 45  1  0
 24 46  1  0
 26 47  1  0
 27 48  1  0
 28 49  1  0
 30 50  1  0
 32 51  1  0
M  END
> <Uni-Dock RESULT> 
ENERGY=   -4.828  LOWER_BOUND=    4.368  UPPER_BOUND=    8.836
INTER + INTRA:          -4.828
INTER:                  -4.828
INTRA:                   0.000
UNBOUND:                 0.000

$$$$

     RDKit          3D

 51 55  0  0  0  0  0  0  0  0999 V2000
   48.5579    5.5560   16.9347 O   0  0  0  0  0  0  0  0  0  0  0  0
   47.5728    4.5166   17.0081 C   0  0  0  0  0  0  0  0  0  0  0  0
   46.8671    4.2651   15.7847 O   0  0  0  0  0  0  0  0  0  0  0  0
   47.4605    5.1838   14.9782 C   0  0  0  0  0  0  0  0  0  0  0  0
   48.4219    5.9176   15.6311 C   0  0  0  0  0  0  0  0  0  0  0  0
   48.1842    3.3697   17.3953 F   0  0  0  0  0  0  0  0  0  0  0  0
   46.6710    4.8427   17.9665 F   0  0  0  0  0  0  0  0  0  0  0  0
   49.1418    6.9049   14.9901 C   0  0  0  0  0  0  0  0  0  0  0  0
   47.1670    5.3991   13.6516 C   0  0  0  0  0  0  0  0  0  0  0  0
   47.8859    6.3957   12.9811 C   0  0  0  0  0  0  0  0  0  0  0  0
   48.8882    7.1637   13.6285 C   0  0  0  0  0  0  0  0  0  0  0  0
   49.6554    8.2585   12.8897 C   0  0  0  0  0  0  0  0  0  0  0  0
   50.3053    7.9235   11.5477 C   0  0  0  0  0  0  0  0  0  0  0  0
   51.1680    8.0800   12.7578 C   0  0  0  0  0  0  0  0  0  0  0  0
   49.1488    9.6681   13.1021 C   0  0  0  0  0  0  0  0  0  0  0  0
   49.6336   10.3536   13.9914 O   0  0  0  0  0  0  0  0  0  0  0  0
   48.1515   10.0142   12.2292 N   0  0  0  0  0  0  0  0  0  0  0  0
   47.4520   11.2150   12.1459 C   0  0  0  0  0  0  0  0  0  0  0  0
   46.5245   11.2212   11.1674 N   0  0  0  0  0  0  0  0  0  0  0  0
   47.6678   12.3019   12.9737 C   0  0  0  0  0  0  0  0  0  0  0  0
   46.9011   13.4488   12.7822 C   0  0  0  0  0  0  0  0  0  0  0  0
   45.9388   13.4904   11.7693 C   0  0  0  0  0  0  0  0  0  0  0  0
   45.7696   12.3382   10.9930 C   0  0  0  0  0  0  0  0  0  0  0  0
   45.1263   14.7358   11.5696 C   0  0  0  0  0  0  0  0  0  0  0  0
   44.7774   12.2176    9.9142 C   0  0  0  0  0  0  0  0  0  0  0  0
   42.4620   12.1497    9.1500 C   0  0  0  0  0  0  0  0  0  0  0  0
   43.3984   12.2712   10.1793 C   0  0  0  0  0  0  0  0  0  0  0  0
   45.1943   12.0168    8.5867 C   0  0  0  0  0  0  0  0  0  0  0  0
   44.2595   11.8943    7.5499 C   0  0  0  0  0  0  0  0  0  0  0  0
   42.8918   11.9646    7.8370 C   0  0  0  0  0  0  0  0  0  0  0  0
   44.6703   11.6880    6.1405 C   0  0  0  0  0  0  0  0  0  0  0  0
   46.0050   11.6565    5.9820 O   0  0  0  0  0  0  0  0  0  0  0  0
   43.9191   11.5598    5.1913 O   0  0  0  0  0  0  0  0  0  0  0  0
   49.8891    7.4792   15.5314 H   0  0  0  0  0  0  0  0  0  0  0  0
   46.4043    4.8190   13.1435 H   0  0  0  0  0  0  0  0  0  0  0  0
   47.6629    6.5804   11.9314 H   0  0  0  0  0  0  0  0  0  0  0  0
   50.3664    8.6973   10.7895 H   0  0  0  0  0  0  0  0  0  0  0  0
   50.1960    6.9246   11.1406 H   0  0  0  0  0  0  0  0  0  0  0  0
   51.7925    8.9645   12.8330 H   0  0  0  0  0  0  0  0  0  0  0  0
   51.6278    7.1897   13.1724 H   0  0  0  0  0  0  0  0  0  0  0  0
   47.8407    9.3372   11.5478 H   0  0  0  0  0  0  0  0  0  0  0  0
   48.4110   12.2919   13.7618 H   0  0  0  0  0  0  0  0  0  0  0  0
   47.0674   14.3088   13.4270 H   0  0  0  0  0  0  0  0  0  0  0  0
   44.1287   14.6124   12.0016 H   0  0  0  0  0  0  0  0  0  0  0  0
   45.0371   14.9808   10.5063 H   0  0  0  0  0  0  0  0  0  0  0  0
   45.5995   15.5977   12.0527 H   0  0  0  0  0  0  0  0  0  0  0  0
   41.3988   12.1923    9.3735 H   0  0  0  0  0  0  0  0  0  0  0  0
   43.0449   12.3953   11.2015 H   0  0  0  0  0  0  0  0  0  0  0  0
   46.2599   11.9543    8.3722 H   0  0  0  0  0  0  0  0  0  0  0  0
   42.1576   11.8681    7.0393 H   0  0  0  0  0  0  0  0  0  0  0  0
   46.1240   11.5183    5.0191 H   0  0  0  0  0  0  0  0  0  0  0  0
  1  2  1  0
  1  5  1  0
  2  3  1  0
  3  4  1  0
  2  6  1  0
  2  7  1  0
  8  5  1  0
  5  4  2  0
  4  9  1  0
  8 11  2  0
  9 10  2  0
 10 11  1  0
 11 12  1  0
 12 13  1  0
 13 14  1  0
 14 12  1  0
 12 15  1  0
 15 16  2  0
 15 17  1  0
 17 18  1  0
 19 18  2  0
 18 20  1  0
 19 23  1  0
 20 21  2  0
 21 22  1  0
 22 23  2  0
 22 24  1  0
 23 25  1  0
 27 25  1  0
 25 28  2  0
 26 27  2  0
 26 30  1  0
 28 29  1  0
 29 30  2  0
 29 31  1  0
 31 32  1  0
 31 33  2  0
  8 34  1  0
  9 35  1  0
 10 36  1  0
 13 37  1  0
 13 38  1  0
 14 39  1  0
 14 40  1  0
 17 41  1  0
 20 42  1  0
 21 43  1  0
 24 44  1  0
 24 45  1  0
 24 46  1  0
 26 47  1  0
 27 48  1  0
 28 49  1  0
 30 50  1  0
 32 51  1  0
M  END
> <Uni-Dock RESULT> 
ENERGY=   -4.720  LOWER_BOUND=    5.108  UPPER_BOUND=    8.601
INTER + INTRA:          -4.720
INTER:                  -4.720
INTRA:                   0.000
UNBOUND:                 0.000

$$$$

     RDKit          3D

 51 55  0  0  0  0  0  0  0  0999 V2000
   51.5546   10.0838   18.1660 O   0  0  0  0  0  0  0  0  0  0  0  0
   51.5522    9.1141   19.2223 C   0  0  0  0  0  0  0  0  0  0  0  0
   51.2660    7.7705   18.8089 O   0  0  0  0  0  0  0  0  0  0  0  0
   51.0988    7.9661   17.4746 C   0  0  0  0  0  0  0  0  0  0  0  0
   51.2632    9.2806   17.1084 C   0  0  0  0  0  0  0  0  0  0  0  0
   52.7675    9.1290   19.8241 F   0  0  0  0  0  0  0  0  0  0  0  0
   50.6334    9.4852   20.1477 F   0  0  0  0  0  0  0  0  0  0  0  0
   51.1335    9.6910   15.7974 C   0  0  0  0  0  0  0  0  0  0  0  0
   50.7948    6.9934   16.5506 C   0  0  0  0  0  0  0  0  0  0  0  0
   50.6592    7.3872   15.2141 C   0  0  0  0  0  0  0  0  0  0  0  0
   50.8299    8.7357   14.8071 C   0  0  0  0  0  0  0  0  0  0  0  0
   50.6647    9.1552   13.3477 C   0  0  0  0  0  0  0  0  0  0  0  0
   51.4234    8.3819   12.2698 C   0  0  0  0  0  0  0  0  0  0  0  0
   51.8894    9.7494   12.6519 C   0  0  0  0  0  0  0  0  0  0  0  0
   49.3191    9.7444   12.9858 C   0  0  0  0  0  0  0  0  0  0  0  0
   49.1611   10.9563   13.0331 O   0  0  0  0  0  0  0  0  0  0  0  0
   48.3956    8.7937   12.6398 N   0  0  0  0  0  0  0  0  0  0  0  0
   47.0665    8.9733   12.2666 C   0  0  0  0  0  0  0  0  0  0  0  0
   46.4318    7.8156   11.9933 N   0  0  0  0  0  0  0  0  0  0  0  0
   46.4401   10.2035   12.1813 C   0  0  0  0  0  0  0  0  0  0  0  0
   45.1039   10.2461   11.7906 C   0  0  0  0  0  0  0  0  0  0  0  0
   44.4211    9.0641   11.4900 C   0  0  0  0  0  0  0  0  0  0  0  0
   45.1240    7.8613   11.6251 C   0  0  0  0  0  0  0  0  0  0  0  0
   42.9844    9.1262   11.0623 C   0  0  0  0  0  0  0  0  0  0  0  0
   44.5339    6.5372   11.3773 C   0  0  0  0  0  0  0  0  0  0  0  0
   42.9351    4.7815   11.9349 C   0  0  0  0  0  0  0  0  0  0  0  0
   43.4863    6.0427   12.1727 C   0  0  0  0  0  0  0  0  0  0  0  0
   45.0309    5.7213   10.3459 C   0  0  0  0  0  0  0  0  0  0  0  0
   44.4820    4.4551   10.1026 C   0  0  0  0  0  0  0  0  0  0  0  0
   43.4301    3.9901   10.8996 C   0  0  0  0  0  0  0  0  0  0  0  0
   44.9818    3.5759    9.0187 C   0  0  0  0  0  0  0  0  0  0  0  0
   45.9776    4.1333    8.3078 O   0  0  0  0  0  0  0  0  0  0  0  0
   44.5661    2.4624    8.7561 O   0  0  0  0  0  0  0  0  0  0  0  0
   51.2570   10.7383   15.5349 H   0  0  0  0  0  0  0  0  0  0  0  0
   50.6627    5.9584   16.8470 H   0  0  0  0  0  0  0  0  0  0  0  0
   50.4155    6.6293   14.4712 H   0  0  0  0  0  0  0  0  0  0  0  0
   50.9680    8.2664   11.2918 H   0  0  0  0  0  0  0  0  0  0  0  0
   52.0486    7.5446   12.5592 H   0  0  0  0  0  0  0  0  0  0  0  0
   51.7306   10.5614   11.9495 H   0  0  0  0  0  0  0  0  0  0  0  0
   52.8171    9.8333   13.2070 H   0  0  0  0  0  0  0  0  0  0  0  0
   48.6650    7.8209   12.6560 H   0  0  0  0  0  0  0  0  0  0  0  0
   46.9519   11.1315   12.4059 H   0  0  0  0  0  0  0  0  0  0  0  0
   44.6054   11.2101   11.7179 H   0  0  0  0  0  0  0  0  0  0  0  0
   42.3277    8.8563   11.8948 H   0  0  0  0  0  0  0  0  0  0  0  0
   42.7968    8.4574   10.2161 H   0  0  0  0  0  0  0  0  0  0  0  0
   42.7141   10.1352   10.7321 H   0  0  0  0  0  0  0  0  0  0  0  0
   42.1257    4.4142   12.5611 H   0  0  0  0  0  0  0  0  0  0  0  0
   43.1010    6.6392   12.9979 H   0  0  0  0  0  0  0  0  0  0  0  0
   45.8554    6.0862    9.7355 H   0  0  0  0  0  0  0  0  0  0  0  0
   42.9984    3.0072   10.7205 H   0  0  0  0  0  0  0  0  0  0  0  0
   46.2001    3.4512    7.6402 H   0  0  0  0  0  0  0  0  0  0  0  0
  1  2  1  0
  1  5  1  0
  2  3  1  0
  3  4  1  0
  2  6  1  0
  2  7  1  0
  8  5  1  0
  5  4  2  0
  4  9  1  0
  8 11  2  0
  9 10  2  0
 10 11  1  0
 11 12  1  0
 12 13  1  0
 13 14  1  0
 14 12  1  0
 12 15  1  0
 15 16  2  0
 15 17  1  0
 17 18  1  0
 19 18  2  0
 18 20  1  0
 19 23  1  0
 20 21  2  0
 21 22  1  0
 22 23  2  0
 22 24  1  0
 23 25  1  0
 27 25  1  0
 25 28  2  0
 26 27  2  0
 26 30  1  0
 28 29  1  0
 29 30  2  0
 29 31  1  0
 31 32  1  0
 31 33  2  0
  8 34  1  0
  9 35  1  0
 10 36  1  0
 13 37  1  0
 13 38  1  0
 14 39  1  0
 14 40  1  0
 17 41  1  0
 20 42  1  0
 21 43  1  0
 24 44  1  0
 24 45  1  0
 24 46  1  0
 26 47  1  0
 27 48  1  0
 28 49  1  0
 30 50  1  0
 32 51  1  0
M  END
> <Uni-Dock RESULT> 
ENERGY=   -4.658  LOWER_BOUND=    4.825  UPPER_BOUND=    9.902
INTER + INTRA:          -4.658
INTER:                  -4.658
INTRA:                   0.000
UNBOUND:                 0.000

$$$$

     RDKit          3D

 51 55  0  0  0  0  0  0  0  0999 V2000
   56.9331    6.2899    8.5490 O   0  0  0  0  0  0  0  0  0  0  0  0
   56.8635    5.1268    7.7133 C   0  0  0  0  0  0  0  0  0  0  0  0
   55.5585    4.8311    7.1962 O   0  0  0  0  0  0  0  0  0  0  0  0
   54.8510    5.8525    7.7465 C   0  0  0  0  0  0  0  0  0  0  0  0
   55.6317    6.6823    8.5151 C   0  0  0  0  0  0  0  0  0  0  0  0
   57.7118    5.2950    6.6688 F   0  0  0  0  0  0  0  0  0  0  0  0
   57.2978    4.0571    8.4243 F   0  0  0  0  0  0  0  0  0  0  0  0
   55.1046    7.7800    9.1641 C   0  0  0  0  0  0  0  0  0  0  0  0
   53.5028    6.0750    7.5873 C   0  0  0  0  0  0  0  0  0  0  0  0
   52.9468    7.1837    8.2363 C   0  0  0  0  0  0  0  0  0  0  0  0
   53.7303    8.0605    9.0304 C   0  0  0  0  0  0  0  0  0  0  0  0
   53.1088    9.2587    9.7456 C   0  0  0  0  0  0  0  0  0  0  0  0
   52.2373   10.2235    8.9424 C   0  0  0  0  0  0  0  0  0  0  0  0
   53.6129   10.6455    9.3458 C   0  0  0  0  0  0  0  0  0  0  0  0
   52.7750    9.0466   11.2058 C   0  0  0  0  0  0  0  0  0  0  0  0
   53.5954    9.3507   12.0603 O   0  0  0  0  0  0  0  0  0  0  0  0
   51.5317    8.5040   11.3960 N   0  0  0  0  0  0  0  0  0  0  0  0
   50.9085    8.1664   12.5942 C   0  0  0  0  0  0  0  0  0  0  0  0
   49.6770    7.6451   12.4224 N   0  0  0  0  0  0  0  0  0  0  0  0
   51.4770    8.3365   13.8436 C   0  0  0  0  0  0  0  0  0  0  0  0
   50.7440    7.9610   14.9667 C   0  0  0  0  0  0  0  0  0  0  0  0
   49.4601    7.4275   14.8225 C   0  0  0  0  0  0  0  0  0  0  0  0
   48.9707    7.2679   13.5211 C   0  0  0  0  0  0  0  0  0  0  0  0
   48.6791    7.0354   16.0421 C   0  0  0  0  0  0  0  0  0  0  0  0
   47.6544    6.6919   13.2074 C   0  0  0  0  0  0  0  0  0  0  0  0
   46.0993    4.8128   13.2057 C   0  0  0  0  0  0  0  0  0  0  0  0
   47.3497    5.3544   13.5122 C   0  0  0  0  0  0  0  0  0  0  0  0
   46.6751    7.4695   12.5649 C   0  0  0  0  0  0  0  0  0  0  0  0
   45.4188    6.9316   12.2549 C   0  0  0  0  0  0  0  0  0  0  0  0
   45.1342    5.6009   12.5808 C   0  0  0  0  0  0  0  0  0  0  0  0
   44.3653    7.7296   11.5833 C   0  0  0  0  0  0  0  0  0  0  0  0
   44.7430    8.9962   11.3370 O   0  0  0  0  0  0  0  0  0  0  0  0
   43.2590    7.3293   11.2711 O   0  0  0  0  0  0  0  0  0  0  0  0
   55.7408    8.4146    9.7755 H   0  0  0  0  0  0  0  0  0  0  0  0
   52.8917    5.4139    6.9823 H   0  0  0  0  0  0  0  0  0  0  0  0
   51.8802    7.3715    8.1227 H   0  0  0  0  0  0  0  0  0  0  0  0
   51.4026   10.7087    9.4375 H   0  0  0  0  0  0  0  0  0  0  0  0
   52.0650   10.0308    7.8895 H   0  0  0  0  0  0  0  0  0  0  0  0
   53.7131   11.3938   10.1255 H   0  0  0  0  0  0  0  0  0  0  0  0
   54.3676   10.7245    8.5713 H   0  0  0  0  0  0  0  0  0  0  0  0
   50.9618    8.2920   10.5901 H   0  0  0  0  0  0  0  0  0  0  0  0
   52.4686    8.7516   13.9777 H   0  0  0  0  0  0  0  0  0  0  0  0
   51.1830    8.0949   15.9528 H   0  0  0  0  0  0  0  0  0  0  0  0
   48.7113    5.9506   16.1817 H   0  0  0  0  0  0  0  0  0  0  0  0
   47.6377    7.3639   15.9644 H   0  0  0  0  0  0  0  0  0  0  0  0
   49.0910    7.5044   16.9423 H   0  0  0  0  0  0  0  0  0  0  0  0
   45.8811    3.7754   13.4477 H   0  0  0  0  0  0  0  0  0  0  0  0
   48.0984    4.7190   13.9823 H   0  0  0  0  0  0  0  0  0  0  0  0
   46.9069    8.5015   12.3065 H   0  0  0  0  0  0  0  0  0  0  0  0
   44.1624    5.1728   12.3420 H   0  0  0  0  0  0  0  0  0  0  0  0
   43.9606    9.3941   10.9012 H   0  0  0  0  0  0  0  0  0  0  0  0
  1  2  1  0
  1  5  1  0
  2  3  1  0
  3  4  1  0
  2  6  1  0
  2  7  1  0
  8  5  1  0
  5  4  2  0
  4  9  1  0
  8 11  2  0
  9 10  2  0
 10 11  1  0
 11 12  1  0
 12 13  1  0
 13 14  1  0
 14 12  1  0
 12 15  1  0
 15 16  2  0
 15 17  1  0
 17 18  1  0
 19 18  2  0
 18 20  1  0
 19 23  1  0
 20 21  2  0
 21 22  1  0
 22 23  2  0
 22 24  1  0
 23 25  1  0
 27 25  1  0
 25 28  2  0
 26 27  2  0
 26 30  1  0
 28 29  1  0
 29 30  2  0
 29 31  1  0
 31 32  1  0
 31 33  2  0
  8 34  1  0
  9 35  1  0
 10 36  1  0
 13 37  1  0
 13 38  1  0
 14 39  1  0
 14 40  1  0
 17 41  1  0
 20 42  1  0
 21 43  1  0
 24 44  1  0
 24 45  1  0
 24 46  1  0
 26 47  1  0
 27 48  1  0
 28 49  1  0
 30 50  1  0
 32 51  1  0
M  END
> <Uni-Dock RESULT> 
ENERGY=   -4.546  LOWER_BOUND=    6.001  UPPER_BOUND=    9.452
INTER + INTRA:          -4.546
INTER:                  -4.546
INTRA:                   0.000
UNBOUND:                 0.000

$$$$

     RDKit          3D

 51 55  0  0  0  0  0  0  0  0999 V2000
   41.7178   15.6952   13.6150 O   0  0  0  0  0  0  0  0  0  0  0  0
   41.9060   16.4289   14.8325 C   0  0  0  0  0  0  0  0  0  0  0  0
   43.2487   16.4277   15.3377 O   0  0  0  0  0  0  0  0  0  0  0  0
   43.8571   15.6729   14.3854 C   0  0  0  0  0  0  0  0  0  0  0  0
   42.9877   15.2566   13.4057 C   0  0  0  0  0  0  0  0  0  0  0  0
   41.5261   17.7140   14.6247 F   0  0  0  0  0  0  0  0  0  0  0  0
   41.0883   15.9093   15.7810 F   0  0  0  0  0  0  0  0  0  0  0  0
   43.4061   14.4773   12.3467 C   0  0  0  0  0  0  0  0  0  0  0  0
   45.1893   15.3311   14.3592 C   0  0  0  0  0  0  0  0  0  0  0  0
   45.6360   14.5413   13.2932 C   0  0  0  0  0  0  0  0  0  0  0  0
   44.7620   14.1031   12.2649 C   0  0  0  0  0  0  0  0  0  0  0  0
   45.2588   13.2292   11.1148 C   0  0  0  0  0  0  0  0  0  0  0  0
   46.4963   13.6728   10.3355 C   0  0  0  0  0  0  0  0  0  0  0  0
   45.1487   13.8077    9.7039 C   0  0  0  0  0  0  0  0  0  0  0  0
   45.0088   11.7449   11.2671 C   0  0  0  0  0  0  0  0  0  0  0  0
   43.9922   11.2550   10.7956 O   0  0  0  0  0  0  0  0  0  0  0  0
   46.0028   11.1043   11.9583 N   0  0  0  0  0  0  0  0  0  0  0  0
   46.0944    9.7559   12.2924 C   0  0  0  0  0  0  0  0  0  0  0  0
   47.2110    9.4567   12.9863 N   0  0  0  0  0  0  0  0  0  0  0  0
   45.1475    8.8042   11.9597 C   0  0  0  0  0  0  0  0  0  0  0  0
   45.3616    7.4849   12.3512 C   0  0  0  0  0  0  0  0  0  0  0  0
   46.5146    7.1406   13.0625 C   0  0  0  0  0  0  0  0  0  0  0  0
   47.4090    8.1699   13.3778 C   0  0  0  0  0  0  0  0  0  0  0  0
   46.7356    5.7138   13.4702 C   0  0  0  0  0  0  0  0  0  0  0  0
   48.6464    7.9708   14.1472 C   0  0  0  0  0  0  0  0  0  0  0  0
   49.7938    7.3733   16.2150 C   0  0  0  0  0  0  0  0  0  0  0  0
   48.6145    7.5544   15.4890 C   0  0  0  0  0  0  0  0  0  0  0  0
   49.8970    8.2225   13.5563 C   0  0  0  0  0  0  0  0  0  0  0  0
   51.0836    8.0425   14.2798 C   0  0  0  0  0  0  0  0  0  0  0  0
   51.0266    7.6140   15.6106 C   0  0  0  0  0  0  0  0  0  0  0  0
   52.4161    8.2945   13.6809 C   0  0  0  0  0  0  0  0  0  0  0  0
   52.3490    8.6820   12.3952 O   0  0  0  0  0  0  0  0  0  0  0  0
   53.4862    8.1736   14.2482 O   0  0  0  0  0  0  0  0  0  0  0  0
   42.6967   14.1514   11.5905 H   0  0  0  0  0  0  0  0  0  0  0  0
   45.8692   15.6598   15.1378 H   0  0  0  0  0  0  0  0  0  0  0  0
   46.6873   14.2595   13.2600 H   0  0  0  0  0  0  0  0  0  0  0  0
   47.1603   12.9143    9.9343 H   0  0  0  0  0  0  0  0  0  0  0  0
   47.0043   14.5864   10.6232 H   0  0  0  0  0  0  0  0  0  0  0  0
   44.8896   13.1308    8.8961 H   0  0  0  0  0  0  0  0  0  0  0  0
   44.7444   14.8059    9.5779 H   0  0  0  0  0  0  0  0  0  0  0  0
   46.7852   11.6421   12.3016 H   0  0  0  0  0  0  0  0  0  0  0  0
   44.2493    9.0490   11.4057 H   0  0  0  0  0  0  0  0  0  0  0  0
   44.6231    6.7302   12.0903 H   0  0  0  0  0  0  0  0  0  0  0  0
   46.4913    5.5784   14.5281 H   0  0  0  0  0  0  0  0  0  0  0  0
   47.7722    5.4100   13.2920 H   0  0  0  0  0  0  0  0  0  0  0  0
   46.1038    5.0343   12.8878 H   0  0  0  0  0  0  0  0  0  0  0  0
   49.7503    7.0518   17.2528 H   0  0  0  0  0  0  0  0  0  0  0  0
   47.6597    7.3810   15.9826 H   0  0  0  0  0  0  0  0  0  0  0  0
   49.9331    8.5641   12.5232 H   0  0  0  0  0  0  0  0  0  0  0  0
   51.9423    7.4736   16.1820 H   0  0  0  0  0  0  0  0  0  0  0  0
   53.2864    8.8074   12.1385 H   0  0  0  0  0  0  0  0  0  0  0  0
  1  2  1  0
  1  5  1  0
  2  3  1  0
  3  4  1  0
  2  6  1  0
  2  7  1  0
  8  5  1  0
  5  4  2  0
  4  9  1  0
  8 11  2  0
  9 10  2  0
 10 11  1  0
 11 12  1  0
 12 13  1  0
 13 14  1  0
 14 12  1  0
 12 15  1  0
 15 16  2  0
 15 17  1  0
 17 18  1  0
 19 18  2  0
 18 20  1  0
 19 23  1  0
 20 21  2  0
 21 22  1  0
 22 23  2  0
 22 24  1  0
 23 25  1  0
 27 25  1  0
 25 28  2  0
 26 27  2  0
 26 30  1  0
 28 29  1  0
 29 30  2  0
 29 31  1  0
 31 32  1  0
 31 33  2  0
  8 34  1  0
  9 35  1  0
 10 36  1  0
 13 37  1  0
 13 38  1  0
 14 39  1  0
 14 40  1  0
 17 41  1  0
 20 42  1  0
 21 43  1  0
 24 44  1  0
 24 45  1  0
 24 46  1  0
 26 47  1  0
 27 48  1  0
 28 49  1  0
 30 50  1  0
 32 51  1  0
M  END
> <Uni-Dock RESULT> 
ENERGY=   -4.515  LOWER_BOUND=    5.491  UPPER_BOUND=    8.274
INTER + INTRA:          -4.515
INTER:                  -4.515
INTRA:                   0.000
UNBOUND:                 0.000

$$$$
