
     RDKit          3D

 51 55  0  0  0  0  0  0  0  0999 V2000
   46.8165    4.2374    6.8834 O   0  0  0  0  0  0  0  0  0  0  0  0
   47.0125    2.9880    6.2058 C   0  0  0  0  0  0  0  0  0  0  0  0
   46.4235    1.8512    6.8517 O   0  0  0  0  0  0  0  0  0  0  0  0
   45.8669    2.4575    7.9331 C   0  0  0  0  0  0  0  0  0  0  0  0
   46.0895    3.8139    7.9516 C   0  0  0  0  0  0  0  0  0  0  0  0
   46.4948    3.0905    4.9568 F   0  0  0  0  0  0  0  0  0  0  0  0
   48.3449    2.7705    6.0796 F   0  0  0  0  0  0  0  0  0  0  0  0
   45.6099    4.6183    8.9660 C   0  0  0  0  0  0  0  0  0  0  0  0
   45.1543    1.8319    8.9290 C   0  0  0  0  0  0  0  0  0  0  0  0
   44.6577    2.6281    9.9672 C   0  0  0  0  0  0  0  0  0  0  0  0
   44.8666    4.0314   10.0082 C   0  0  0  0  0  0  0  0  0  0  0  0
   44.3190    4.8614   11.1676 C   0  0  0  0  0  0  0  0  0  0  0  0
   42.7990    4.9236   11.3192 C   0  0  0  0  0  0  0  0  0  0  0  0
   43.5378    6.1375   10.8565 C   0  0  0  0  0  0  0  0  0  0  0  0
   45.1329    4.8195   12.4423 C   0  0  0  0  0  0  0  0  0  0  0  0
   44.8584    3.9955   13.3034 O   0  0  0  0  0  0  0  0  0  0  0  0
   46.1328    5.7555   12.4684 N   0  0  0  0  0  0  0  0  0  0  0  0
   47.0742    5.9887   13.4673 C   0  0  0  0  0  0  0  0  0  0  0  0
   47.9246    6.9917   13.1703 N   0  0  0  0  0  0  0  0  0  0  0  0
   47.1503    5.2739   14.6489 C   0  0  0  0  0  0  0  0  0  0  0  0
   48.1417    5.6082   15.5681 C   0  0  0  0  0  0  0  0  0  0  0  0
   49.0339    6.6485   15.2931 C   0  0  0  0  0  0  0  0  0  0  0  0
   48.8998    7.3050   14.0642 C   0  0  0  0  0  0  0  0  0  0  0  0
   50.0936    7.0001   16.2954 C   0  0  0  0  0  0  0  0  0  0  0  0
   49.7825    8.3937   13.6183 C   0  0  0  0  0  0  0  0  0  0  0  0
   50.0857   10.7231   12.9568 C   0  0  0  0  0  0  0  0  0  0  0  0
   49.2633    9.6788   13.3850 C   0  0  0  0  0  0  0  0  0  0  0  0
   51.1520    8.1770   13.3886 C   0  0  0  0  0  0  0  0  0  0  0  0
   51.9827    9.2216   12.9594 C   0  0  0  0  0  0  0  0  0  0  0  0
   51.4444   10.4956   12.7469 C   0  0  0  0  0  0  0  0  0  0  0  0
   53.4314    9.0227   12.7143 C   0  0  0  0  0  0  0  0  0  0  0  0
   53.8407    7.7712   12.9877 O   0  0  0  0  0  0  0  0  0  0  0  0
   54.2104    9.8688   12.3164 O   0  0  0  0  0  0  0  0  0  0  0  0
   45.8073    5.6855    8.9509 H   0  0  0  0  0  0  0  0  0  0  0  0
   44.9858    0.7606    8.9151 H   0  0  0  0  0  0  0  0  0  0  0  0
   44.0991    2.1530   10.7742 H   0  0  0  0  0  0  0  0  0  0  0  0
   42.3882    4.9242   12.3237 H   0  0  0  0  0  0  0  0  0  0  0  0
   42.1802    4.4003   10.5989 H   0  0  0  0  0  0  0  0  0  0  0  0
   43.6054    6.9723   11.5461 H   0  0  0  0  0  0  0  0  0  0  0  0
   43.4026    6.4383    9.8236 H   0  0  0  0  0  0  0  0  0  0  0  0
   46.2511    6.3680   11.6743 H   0  0  0  0  0  0  0  0  0  0  0  0
   46.4678    4.4657   14.8828 H   0  0  0  0  0  0  0  0  0  0  0  0
   48.2070    5.0519   16.5004 H   0  0  0  0  0  0  0  0  0  0  0  0
   49.8487    6.5996   17.2853 H   0  0  0  0  0  0  0  0  0  0  0  0
   50.1837    8.0853   16.4085 H   0  0  0  0  0  0  0  0  0  0  0  0
   51.0580    6.5823   15.9913 H   0  0  0  0  0  0  0  0  0  0  0  0
   49.6649   11.7105   12.7831 H   0  0  0  0  0  0  0  0  0  0  0  0
   48.2011    9.8657   13.5367 H   0  0  0  0  0  0  0  0  0  0  0  0
   51.5656    7.1808   13.5339 H   0  0  0  0  0  0  0  0  0  0  0  0
   52.0809   11.3121   12.4106 H   0  0  0  0  0  0  0  0  0  0  0  0
   54.7977    7.7865   12.7760 H   0  0  0  0  0  0  0  0  0  0  0  0
  1  2  1  0
  1  5  1  0
  2  3  1  0
  3  4  1  0
  2  6  1  0
  2  7  1  0
  8  5  1  0
  5  4  2  0
  4  9  1  0
  8 11  2  0
  9 10  2  0
 10 11  1  0
 11 12  1  0
 12 13  1  0
 13 14  1  0
 14 12  1  0
 12 15  1  0
 15 16  2  0
 15 17  1  0
 17 18  1  0
 19 18  2  0
 18 20  1  0
 19 23  1  0
 20 21  2  0
 21 22  1  0
 22 23  2  0
 22 24  1  0
 23 25  1  0
 27 25  1  0
 25 28  2  0
 26 27  2  0
 26 30  1  0
 28 29  1  0
 29 30  2  0
 29 31  1  0
 31 32  1  0
 31 33  2  0
  8 34  1  0
  9 35  1  0
 10 36  1  0
 13 37  1  0
 13 38  1  0
 14 39  1  0
 14 40  1  0
 17 41  1  0
 20 42  1  0
 21 43  1  0
 24 44  1  0
 24 45  1  0
 24 46  1  0
 26 47  1  0
 27 48  1  0
 28 49  1  0
 30 50  1  0
 32 51  1  0
M  END
> <Uni-Dock RESULT> 
ENERGY=   -7.031  LOWER_BOUND=    0.000  UPPER_BOUND=    0.000
INTER + INTRA:          -7.031
INTER:                  -7.031
INTRA:                   0.000
UNBOUND:                 0.000

$$$$

     RDKit          3D

 51 55  0  0  0  0  0  0  0  0999 V2000
   53.5555    6.3390   16.6982 O   0  0  0  0  0  0  0  0  0  0  0  0
   54.8649    5.7646   16.8172 C   0  0  0  0  0  0  0  0  0  0  0  0
   54.8952    4.4354   17.3543 O   0  0  0  0  0  0  0  0  0  0  0  0
   53.5662    4.2305   17.5500 C   0  0  0  0  0  0  0  0  0  0  0  0
   52.8039    5.3120   17.1769 C   0  0  0  0  0  0  0  0  0  0  0  0
   55.4396    5.7467   15.5891 F   0  0  0  0  0  0  0  0  0  0  0  0
   55.6175    6.5676   17.6090 F   0  0  0  0  0  0  0  0  0  0  0  0
   51.4284    5.3110   17.2957 C   0  0  0  0  0  0  0  0  0  0  0  0
   52.9942    3.0904   18.0638 C   0  0  0  0  0  0  0  0  0  0  0  0
   51.6009    3.0668   18.1923 C   0  0  0  0  0  0  0  0  0  0  0  0
   50.7889    4.1661   17.8089 C   0  0  0  0  0  0  0  0  0  0  0  0
   49.2723    4.1041   17.9791 C   0  0  0  0  0  0  0  0  0  0  0  0
   48.5235    3.0588   17.1522 C   0  0  0  0  0  0  0  0  0  0  0  0
   48.3814    4.5051   16.8040 C   0  0  0  0  0  0  0  0  0  0  0  0
   48.7613    4.3637   19.3793 C   0  0  0  0  0  0  0  0  0  0  0  0
   48.5784    3.4207   20.1365 O   0  0  0  0  0  0  0  0  0  0  0  0
   48.5647    5.6945   19.6377 N   0  0  0  0  0  0  0  0  0  0  0  0
   48.1211    6.2913   20.8148 C   0  0  0  0  0  0  0  0  0  0  0  0
   48.0419    7.6345   20.7308 N   0  0  0  0  0  0  0  0  0  0  0  0
   47.7941    5.5971   21.9656 C   0  0  0  0  0  0  0  0  0  0  0  0
   47.3619    6.3153   23.0778 C   0  0  0  0  0  0  0  0  0  0  0  0
   47.2615    7.7083   23.0200 C   0  0  0  0  0  0  0  0  0  0  0  0
   47.6333    8.3325   21.8236 C   0  0  0  0  0  0  0  0  0  0  0  0
   46.7897    8.4677   24.2248 C   0  0  0  0  0  0  0  0  0  0  0  0
   47.6148    9.7892   21.6213 C   0  0  0  0  0  0  0  0  0  0  0  0
   46.7433   11.7420   20.4454 C   0  0  0  0  0  0  0  0  0  0  0  0
   46.7705   10.3615   20.6543 C   0  0  0  0  0  0  0  0  0  0  0  0
   48.4519   10.6409   22.3624 C   0  0  0  0  0  0  0  0  0  0  0  0
   48.4286   12.0277   22.1576 C   0  0  0  0  0  0  0  0  0  0  0  0
   47.5694   12.5745   21.1980 C   0  0  0  0  0  0  0  0  0  0  0  0
   49.2967   12.9499   22.9284 C   0  0  0  0  0  0  0  0  0  0  0  0
   50.0492   12.3158   23.8449 O   0  0  0  0  0  0  0  0  0  0  0  0
   49.3542   14.1577   22.7907 O   0  0  0  0  0  0  0  0  0  0  0  0
   50.8577    6.1838   16.9946 H   0  0  0  0  0  0  0  0  0  0  0  0
   53.5987    2.2411   18.3634 H   0  0  0  0  0  0  0  0  0  0  0  0
   51.1253    2.1779   18.6077 H   0  0  0  0  0  0  0  0  0  0  0  0
   47.6792    2.5561   17.6130 H   0  0  0  0  0  0  0  0  0  0  0  0
   49.0869    2.4263   16.4754 H   0  0  0  0  0  0  0  0  0  0  0  0
   47.4257    4.9754   17.0101 H   0  0  0  0  0  0  0  0  0  0  0  0
   48.8402    4.8419   15.8811 H   0  0  0  0  0  0  0  0  0  0  0  0
   48.7705    6.3693   18.9153 H   0  0  0  0  0  0  0  0  0  0  0  0
   47.8626    4.5179   22.0310 H   0  0  0  0  0  0  0  0  0  0  0  0
   47.1012    5.7765   23.9859 H   0  0  0  0  0  0  0  0  0  0  0  0
   46.2697    7.8081   24.9282 H   0  0  0  0  0  0  0  0  0  0  0  0
   46.0782    9.2506   23.9429 H   0  0  0  0  0  0  0  0  0  0  0  0
   47.6395    8.9164   24.7481 H   0  0  0  0  0  0  0  0  0  0  0  0
   46.0821   12.1653   19.6933 H   0  0  0  0  0  0  0  0  0  0  0  0
   46.1276    9.7195   20.0538 H   0  0  0  0  0  0  0  0  0  0  0  0
   49.1350   10.2128   23.0935 H   0  0  0  0  0  0  0  0  0  0  0  0
   47.5465   13.6497   21.0298 H   0  0  0  0  0  0  0  0  0  0  0  0
   50.5657   13.0365   24.2629 H   0  0  0  0  0  0  0  0  0  0  0  0
  1  2  1  0
  1  5  1  0
  2  3  1  0
  3  4  1  0
  2  6  1  0
  2  7  1  0
  8  5  1  0
  5  4  2  0
  4  9  1  0
  8 11  2  0
  9 10  2  0
 10 11  1  0
 11 12  1  0
 12 13  1  0
 13 14  1  0
 14 12  1  0
 12 15  1  0
 15 16  2  0
 15 17  1  0
 17 18  1  0
 19 18  2  0
 18 20  1  0
 19 23  1  0
 20 21  2  0
 21 22  1  0
 22 23  2  0
 22 24  1  0
 23 25  1  0
 27 25  1  0
 25 28  2  0
 26 27  2  0
 26 30  1  0
 28 29  1  0
 29 30  2  0
 29 31  1  0
 31 32  1  0
 31 33  2  0
  8 34  1  0
  9 35  1  0
 10 36  1  0
 13 37  1  0
 13 38  1  0
 14 39  1  0
 14 40  1  0
 17 41  1  0
 20 42  1  0
 21 43  1  0
 24 44  1  0
 24 45  1  0
 24 46  1  0
 26 47  1  0
 27 48  1  0
 28 49  1  0
 30 50  1  0
 32 51  1  0
M  END
> <Uni-Dock RESULT> 
ENERGY=   -5.805  LOWER_BOUND=    7.665  UPPER_BOUND=   10.160
INTER + INTRA:          -5.805
INTER:                  -5.805
INTRA:                   0.000
UNBOUND:                 0.000

$$$$

     RDKit          3D

 51 55  0  0  0  0  0  0  0  0999 V2000
   46.5270    8.9193   21.7299 O   0  0  0  0  0  0  0  0  0  0  0  0
   47.1585    8.4924   22.9454 C   0  0  0  0  0  0  0  0  0  0  0  0
   48.4460    9.0729   23.1937 O   0  0  0  0  0  0  0  0  0  0  0  0
   48.5646    9.8615   22.0934 C   0  0  0  0  0  0  0  0  0  0  0  0
   47.4740    9.7751   21.2610 C   0  0  0  0  0  0  0  0  0  0  0  0
   46.3412    8.7958   23.9840 F   0  0  0  0  0  0  0  0  0  0  0  0
   47.2923    7.1436   22.9110 F   0  0  0  0  0  0  0  0  0  0  0  0
   47.3940   10.4955   20.0860 C   0  0  0  0  0  0  0  0  0  0  0  0
   49.6349   10.6716   21.7947 C   0  0  0  0  0  0  0  0  0  0  0  0
   49.5749   11.4119   20.6087 C   0  0  0  0  0  0  0  0  0  0  0  0
   48.4588   11.3473   19.7342 C   0  0  0  0  0  0  0  0  0  0  0  0
   48.4401   12.1616   18.4422 C   0  0  0  0  0  0  0  0  0  0  0  0
   48.4434   13.6840   18.5815 C   0  0  0  0  0  0  0  0  0  0  0  0
   47.2022   12.9954   18.1139 C   0  0  0  0  0  0  0  0  0  0  0  0
   49.2294   11.5778   17.2910 C   0  0  0  0  0  0  0  0  0  0  0  0
   50.3934   11.9164   17.1279 O   0  0  0  0  0  0  0  0  0  0  0  0
   48.5033   10.6906   16.5413 N   0  0  0  0  0  0  0  0  0  0  0  0
   48.9116    9.9607   15.4282 C   0  0  0  0  0  0  0  0  0  0  0  0
   47.9407    9.1710   14.9271 N   0  0  0  0  0  0  0  0  0  0  0  0
   50.1795   10.0206   14.8789 C   0  0  0  0  0  0  0  0  0  0  0  0
   50.4604    9.2376   13.7620 C   0  0  0  0  0  0  0  0  0  0  0  0
   49.4727    8.4143   13.2139 C   0  0  0  0  0  0  0  0  0  0  0  0
   48.2236    8.3975   13.8454 C   0  0  0  0  0  0  0  0  0  0  0  0
   49.7889    7.5802   12.0075 C   0  0  0  0  0  0  0  0  0  0  0  0
   47.0974    7.5588   13.4079 C   0  0  0  0  0  0  0  0  0  0  0  0
   44.8218    7.3691   12.5469 C   0  0  0  0  0  0  0  0  0  0  0  0
   45.9029    8.1498   12.9614 C   0  0  0  0  0  0  0  0  0  0  0  0
   47.1717    6.1559   13.4484 C   0  0  0  0  0  0  0  0  0  0  0  0
   46.0899    5.3668   13.0328 C   0  0  0  0  0  0  0  0  0  0  0  0
   44.9161    5.9791   12.5798 C   0  0  0  0  0  0  0  0  0  0  0  0
   46.1425    3.8853   13.0600 C   0  0  0  0  0  0  0  0  0  0  0  0
   47.3303    3.4121   13.4767 O   0  0  0  0  0  0  0  0  0  0  0  0
   45.2396    3.1335   12.7428 O   0  0  0  0  0  0  0  0  0  0  0  0
   46.5192   10.4005   19.4504 H   0  0  0  0  0  0  0  0  0  0  0  0
   50.4969   10.7328   22.4502 H   0  0  0  0  0  0  0  0  0  0  0  0
   50.4167   12.0529   20.3449 H   0  0  0  0  0  0  0  0  0  0  0  0
   49.0148   14.2590   17.8598 H   0  0  0  0  0  0  0  0  0  0  0  0
   48.4401   14.1178   19.5752 H   0  0  0  0  0  0  0  0  0  0  0  0
   46.9217   13.1264   17.0741 H   0  0  0  0  0  0  0  0  0  0  0  0
   46.3567   12.9796   18.7924 H   0  0  0  0  0  0  0  0  0  0  0  0
   47.5472   10.4967   16.8020 H   0  0  0  0  0  0  0  0  0  0  0  0
   50.9587   10.6534   15.2865 H   0  0  0  0  0  0  0  0  0  0  0  0
   51.4546    9.2805   13.3231 H   0  0  0  0  0  0  0  0  0  0  0  0
   50.6826    7.9519   11.4942 H   0  0  0  0  0  0  0  0  0  0  0  0
   48.9713    7.6141   11.2803 H   0  0  0  0  0  0  0  0  0  0  0  0
   49.9751    6.5427   12.3009 H   0  0  0  0  0  0  0  0  0  0  0  0
   43.9068    7.8456   12.2036 H   0  0  0  0  0  0  0  0  0  0  0  0
   45.8147    9.2352   12.9404 H   0  0  0  0  0  0  0  0  0  0  0  0
   48.0773    5.6807   13.8207 H   0  0  0  0  0  0  0  0  0  0  0  0
   44.0698    5.3749   12.2580 H   0  0  0  0  0  0  0  0  0  0  0  0
   47.2166    2.4388   13.4506 H   0  0  0  0  0  0  0  0  0  0  0  0
  1  2  1  0
  1  5  1  0
  2  3  1  0
  3  4  1  0
  2  6  1  0
  2  7  1  0
  8  5  1  0
  5  4  2  0
  4  9  1  0
  8 11  2  0
  9 10  2  0
 10 11  1  0
 11 12  1  0
 12 13  1  0
 13 14  1  0
 14 12  1  0
 12 15  1  0
 15 16  2  0
 15 17  1  0
 17 18  1  0
 19 18  2  0
 18 20  1  0
 19 23  1  0
 20 21  2  0
 21 22  1  0
 22 23  2  0
 22 24  1  0
 23 25  1  0
 27 25  1  0
 25 28  2  0
 26 27  2  0
 26 30  1  0
 28 29  1  0
 29 30  2  0
 29 31  1  0
 31 32  1  0
 31 33  2  0
  8 34  1  0
  9 35  1  0
 10 36  1  0
 13 37  1  0
 13 38  1  0
 14 39  1  0
 14 40  1  0
 17 41  1  0
 20 42  1  0
 21 43  1  0
 24 44  1  0
 24 45  1  0
 24 46  1  0
 26 47  1  0
 27 48  1  0
 28 49  1  0
 30 50  1  0
 32 51  1  0
M  END
> <Uni-Dock RESULT> 
ENERGY=   -5.368  LOWER_BOUND=    6.592  UPPER_BOUND=   11.097
INTER + INTRA:          -5.368
INTER:                  -5.368
INTRA:                   0.000
UNBOUND:                 0.000

$$$$

     RDKit          3D

 51 55  0  0  0  0  0  0  0  0999 V2000
   45.0522    4.0321   13.3978 O   0  0  0  0  0  0  0  0  0  0  0  0
   43.7131    3.9821   12.8854 C   0  0  0  0  0  0  0  0  0  0  0  0
   43.2722    5.1783   12.2287 O   0  0  0  0  0  0  0  0  0  0  0  0
   44.3874    5.9435   12.3605 C   0  0  0  0  0  0  0  0  0  0  0  0
   45.3998    5.2926   13.0246 C   0  0  0  0  0  0  0  0  0  0  0  0
   43.6267    2.9518   12.0081 F   0  0  0  0  0  0  0  0  0  0  0  0
   42.8683    3.7168   13.9121 F   0  0  0  0  0  0  0  0  0  0  0  0
   46.6190    5.8939   13.2657 C   0  0  0  0  0  0  0  0  0  0  0  0
   44.5388    7.2316   11.9033 C   0  0  0  0  0  0  0  0  0  0  0  0
   45.7671    7.8605   12.1358 C   0  0  0  0  0  0  0  0  0  0  0  0
   46.8318    7.2102   12.8126 C   0  0  0  0  0  0  0  0  0  0  0  0
   48.1519    7.9383   13.0579 C   0  0  0  0  0  0  0  0  0  0  0  0
   48.9659    8.3331   11.8257 C   0  0  0  0  0  0  0  0  0  0  0  0
   49.4604    7.2315   12.7062 C   0  0  0  0  0  0  0  0  0  0  0  0
   48.1574    8.9061   14.2209 C   0  0  0  0  0  0  0  0  0  0  0  0
   47.8962   10.0845   14.0230 O   0  0  0  0  0  0  0  0  0  0  0  0
   48.4634    8.3059   15.4136 N   0  0  0  0  0  0  0  0  0  0  0  0
   48.5432    8.8835   16.6779 C   0  0  0  0  0  0  0  0  0  0  0  0
   48.8674    8.0011   17.6442 N   0  0  0  0  0  0  0  0  0  0  0  0
   48.3130   10.2220   16.9393 C   0  0  0  0  0  0  0  0  0  0  0  0
   48.4257   10.6745   18.2516 C   0  0  0  0  0  0  0  0  0  0  0  0
   48.7682    9.7859   19.2749 C   0  0  0  0  0  0  0  0  0  0  0  0
   48.9622    8.4444   18.9259 C   0  0  0  0  0  0  0  0  0  0  0  0
   48.8905   10.2892   20.6830 C   0  0  0  0  0  0  0  0  0  0  0  0
   49.2922    7.3872   19.8938 C   0  0  0  0  0  0  0  0  0  0  0  0
   50.8386    5.6836   20.7073 C   0  0  0  0  0  0  0  0  0  0  0  0
   50.5109    6.6934   19.8000 C   0  0  0  0  0  0  0  0  0  0  0  0
   48.3963    7.0247   20.9143 C   0  0  0  0  0  0  0  0  0  0  0  0
   48.7201    6.0124   21.8285 C   0  0  0  0  0  0  0  0  0  0  0  0
   49.9455    5.3453   21.7222 C   0  0  0  0  0  0  0  0  0  0  0  0
   47.7966    5.6131   22.9176 C   0  0  0  0  0  0  0  0  0  0  0  0
   46.6702    6.3473   22.9431 O   0  0  0  0  0  0  0  0  0  0  0  0
   47.9924    4.7292   23.7308 O   0  0  0  0  0  0  0  0  0  0  0  0
   47.3954    5.3517   13.7963 H   0  0  0  0  0  0  0  0  0  0  0  0
   43.7359    7.7449   11.3854 H   0  0  0  0  0  0  0  0  0  0  0  0
   45.9070    8.8860   11.7925 H   0  0  0  0  0  0  0  0  0  0  0  0
   49.4914    9.2825   11.8466 H   0  0  0  0  0  0  0  0  0  0  0  0
   48.5894    8.0686   10.8439 H   0  0  0  0  0  0  0  0  0  0  0  0
   50.3403    7.4321   13.3082 H   0  0  0  0  0  0  0  0  0  0  0  0
   49.4284    6.2238   12.3073 H   0  0  0  0  0  0  0  0  0  0  0  0
   48.6469    7.3130   15.4293 H   0  0  0  0  0  0  0  0  0  0  0  0
   48.0488   10.9278   16.1610 H   0  0  0  0  0  0  0  0  0  0  0  0
   48.2480   11.7260   18.4650 H   0  0  0  0  0  0  0  0  0  0  0  0
   49.0048   11.3787   20.7040 H   0  0  0  0  0  0  0  0  0  0  0  0
   49.7743    9.8706   21.1752 H   0  0  0  0  0  0  0  0  0  0  0  0
   47.9954   10.0326   21.2575 H   0  0  0  0  0  0  0  0  0  0  0  0
   51.7871    5.1596   20.6185 H   0  0  0  0  0  0  0  0  0  0  0  0
   51.2123    6.9430   19.0052 H   0  0  0  0  0  0  0  0  0  0  0  0
   47.4346    7.5296   20.9833 H   0  0  0  0  0  0  0  0  0  0  0  0
   50.2044    4.5559   22.4254 H   0  0  0  0  0  0  0  0  0  0  0  0
   46.1638    5.9730   23.6943 H   0  0  0  0  0  0  0  0  0  0  0  0
  1  2  1  0
  1  5  1  0
  2  3  1  0
  3  4  1  0
  2  6  1  0
  2  7  1  0
  8  5  1  0
  5  4  2  0
  4  9  1  0
  8 11  2  0
  9 10  2  0
 10 11  1  0
 11 12  1  0
 12 13  1  0
 13 14  1  0
 14 12  1  0
 12 15  1  0
 15 16  2  0
 15 17  1  0
 17 18  1  0
 19 18  2  0
 18 20  1  0
 19 23  1  0
 20 21  2  0
 21 22  1  0
 22 23  2  0
 22 24  1  0
 23 25  1  0
 27 25  1  0
 25 28  2  0
 26 27  2  0
 26 30  1  0
 28 29  1  0
 29 30  2  0
 29 31  1  0
 31 32  1  0
 31 33  2  0
  8 34  1  0
  9 35  1  0
 10 36  1  0
 13 37  1  0
 13 38  1  0
 14 39  1  0
 14 40  1  0
 17 41  1  0
 20 42  1  0
 21 43  1  0
 24 44  1  0
 24 45  1  0
 24 46  1  0
 26 47  1  0
 27 48  1  0
 28 49  1  0
 30 50  1  0
 32 51  1  0
M  END
> <Uni-Dock RESULT> 
ENERGY=   -5.205  LOWER_BOUND=    4.812  UPPER_BOUND=    7.447
INTER + INTRA:          -5.205
INTER:                  -5.205
INTRA:                   0.000
UNBOUND:                 0.000

$$$$

     RDKit          3D

 51 55  0  0  0  0  0  0  0  0999 V2000
   54.1804    5.2396    9.0817 O   0  0  0  0  0  0  0  0  0  0  0  0
   54.8550    5.4816    7.8388 C   0  0  0  0  0  0  0  0  0  0  0  0
   55.2110    6.8503    7.6010 O   0  0  0  0  0  0  0  0  0  0  0  0
   54.7329    7.4188    8.7388 C   0  0  0  0  0  0  0  0  0  0  0  0
   54.1472    6.5038    9.5813 C   0  0  0  0  0  0  0  0  0  0  0  0
   55.9838    4.7310    7.8091 F   0  0  0  0  0  0  0  0  0  0  0  0
   54.0574    5.0608    6.8263 F   0  0  0  0  0  0  0  0  0  0  0  0
   53.5961    6.8746   10.7916 C   0  0  0  0  0  0  0  0  0  0  0  0
   54.7974    8.7542    9.0605 C   0  0  0  0  0  0  0  0  0  0  0  0
   54.2458    9.1526   10.2832 C   0  0  0  0  0  0  0  0  0  0  0  0
   53.6412    8.2288   11.1753 C   0  0  0  0  0  0  0  0  0  0  0  0
   53.0384    8.7083   12.4943 C   0  0  0  0  0  0  0  0  0  0  0  0
   54.0005    9.3101   13.5186 C   0  0  0  0  0  0  0  0  0  0  0  0
   53.3983    7.9679   13.7818 C   0  0  0  0  0  0  0  0  0  0  0  0
   51.6647    9.3345   12.3950 C   0  0  0  0  0  0  0  0  0  0  0  0
   51.5651   10.5462   12.2613 O   0  0  0  0  0  0  0  0  0  0  0  0
   50.6522    8.4144   12.4635 N   0  0  0  0  0  0  0  0  0  0  0  0
   49.2789    8.6317   12.3910 C   0  0  0  0  0  0  0  0  0  0  0  0
   48.5570    7.4975   12.4904 N   0  0  0  0  0  0  0  0  0  0  0  0
   48.6937    9.8744   12.2290 C   0  0  0  0  0  0  0  0  0  0  0  0
   47.3046    9.9552   12.1715 C   0  0  0  0  0  0  0  0  0  0  0  0
   46.5277    8.7983   12.2795 C   0  0  0  0  0  0  0  0  0  0  0  0
   47.2018    7.5796   12.4193 C   0  0  0  0  0  0  0  0  0  0  0  0
   45.0321    8.9020   12.2206 C   0  0  0  0  0  0  0  0  0  0  0  0
   46.5253    6.2767   12.5104 C   0  0  0  0  0  0  0  0  0  0  0  0
   46.0160    4.2511   13.7726 C   0  0  0  0  0  0  0  0  0  0  0  0
   46.6473    5.4925   13.6704 C   0  0  0  0  0  0  0  0  0  0  0  0
   45.7668    5.7704   11.4410 C   0  0  0  0  0  0  0  0  0  0  0  0
   45.1301    4.5251   11.5379 C   0  0  0  0  0  0  0  0  0  0  0  0
   45.2559    3.7691   12.7086 C   0  0  0  0  0  0  0  0  0  0  0  0
   44.3198    3.9690   10.4277 C   0  0  0  0  0  0  0  0  0  0  0  0
   44.2400    4.7987    9.3725 O   0  0  0  0  0  0  0  0  0  0  0  0
   43.7608    2.8881   10.4245 O   0  0  0  0  0  0  0  0  0  0  0  0
   53.1384    6.1262   11.4309 H   0  0  0  0  0  0  0  0  0  0  0  0
   55.2543    9.4748    8.3908 H   0  0  0  0  0  0  0  0  0  0  0  0
   54.2750   10.2083   10.5552 H   0  0  0  0  0  0  0  0  0  0  0  0
   53.6536   10.1531   14.1075 H   0  0  0  0  0  0  0  0  0  0  0  0
   55.0572    9.3548   13.2797 H   0  0  0  0  0  0  0  0  0  0  0  0
   52.6563    7.9010   14.5704 H   0  0  0  0  0  0  0  0  0  0  0  0
   54.0579    7.1087   13.7330 H   0  0  0  0  0  0  0  0  0  0  0  0
   50.8848    7.4369   12.5636 H   0  0  0  0  0  0  0  0  0  0  0  0
   49.2770   10.7835   12.1454 H   0  0  0  0  0  0  0  0  0  0  0  0
   46.8368   10.9291   12.0460 H   0  0  0  0  0  0  0  0  0  0  0  0
   44.6998    9.9276   12.4157 H   0  0  0  0  0  0  0  0  0  0  0  0
   44.5634    8.2694   12.9813 H   0  0  0  0  0  0  0  0  0  0  0  0
   44.6697    8.6125   11.2297 H   0  0  0  0  0  0  0  0  0  0  0  0
   46.1216    3.6602   14.6790 H   0  0  0  0  0  0  0  0  0  0  0  0
   47.2466    5.8551   14.5044 H   0  0  0  0  0  0  0  0  0  0  0  0
   45.6870    6.3496   10.5231 H   0  0  0  0  0  0  0  0  0  0  0  0
   44.7678    2.7998   12.7920 H   0  0  0  0  0  0  0  0  0  0  0  0
   43.6913    4.3049    8.7275 H   0  0  0  0  0  0  0  0  0  0  0  0
  1  2  1  0
  1  5  1  0
  2  3  1  0
  3  4  1  0
  2  6  1  0
  2  7  1  0
  8  5  1  0
  5  4  2  0
  4  9  1  0
  8 11  2  0
  9 10  2  0
 10 11  1  0
 11 12  1  0
 12 13  1  0
 13 14  1  0
 14 12  1  0
 12 15  1  0
 15 16  2  0
 15 17  1  0
 17 18  1  0
 19 18  2  0
 18 20  1  0
 19 23  1  0
 20 21  2  0
 21 22  1  0
 22 23  2  0
 22 24  1  0
 23 25  1  0
 27 25  1  0
 25 28  2  0
 26 27  2  0
 26 30  1  0
 28 29  1  0
 29 30  2  0
 29 31  1  0
 31 32  1  0
 31 33  2  0
  8 34  1  0
  9 35  1  0
 10 36  1  0
 13 37  1  0
 13 38  1  0
 14 39  1  0
 14 40  1  0
 17 41  1  0
 20 42  1  0
 21 43  1  0
 24 44  1  0
 24 45  1  0
 24 46  1  0
 26 47  1  0
 27 48  1  0
 28 49  1  0
 30 50  1  0
 32 51  1  0
M  END
> <Uni-Dock RESULT> 
ENERGY=   -4.890  LOWER_BOUND=    3.281  UPPER_BOUND=    8.446
INTER + INTRA:          -4.890
INTER:                  -4.890
INTRA:                   0.000
UNBOUND:                 0.000

$$$$

     RDKit          3D

 51 55  0  0  0  0  0  0  0  0999 V2000
   45.4066    4.1669    9.0963 O   0  0  0  0  0  0  0  0  0  0  0  0
   44.8184    2.8984    9.4176 C   0  0  0  0  0  0  0  0  0  0  0  0
   44.4060    2.7519   10.7832 O   0  0  0  0  0  0  0  0  0  0  0  0
   44.7616    3.9705   11.2682 C   0  0  0  0  0  0  0  0  0  0  0  0
   45.3301    4.7756   10.3098 C   0  0  0  0  0  0  0  0  0  0  0  0
   43.7390    2.7103    8.6187 F   0  0  0  0  0  0  0  0  0  0  0  0
   45.7147    1.9224    9.1302 F   0  0  0  0  0  0  0  0  0  0  0  0
   45.7636    6.0549   10.5951 C   0  0  0  0  0  0  0  0  0  0  0  0
   44.5977    4.4006   12.5640 C   0  0  0  0  0  0  0  0  0  0  0  0
   45.0293    5.6948   12.8756 C   0  0  0  0  0  0  0  0  0  0  0  0
   45.6133    6.5499   11.9049 C   0  0  0  0  0  0  0  0  0  0  0  0
   46.0837    7.9509   12.2908 C   0  0  0  0  0  0  0  0  0  0  0  0
   45.0127    8.9407   12.7491 C   0  0  0  0  0  0  0  0  0  0  0  0
   45.6665    9.1350   11.4194 C   0  0  0  0  0  0  0  0  0  0  0  0
   47.4239    8.0202   12.9896 C   0  0  0  0  0  0  0  0  0  0  0  0
   47.4657    8.0011   14.2118 O   0  0  0  0  0  0  0  0  0  0  0  0
   48.4777    8.0918   12.1175 N   0  0  0  0  0  0  0  0  0  0  0  0
   49.8383    8.1521   12.4070 C   0  0  0  0  0  0  0  0  0  0  0  0
   50.6125    8.2117   11.3050 N   0  0  0  0  0  0  0  0  0  0  0  0
   50.3639    8.1477   13.6863 C   0  0  0  0  0  0  0  0  0  0  0  0
   51.7467    8.2123   13.8396 C   0  0  0  0  0  0  0  0  0  0  0  0
   52.5762    8.2831   12.7168 C   0  0  0  0  0  0  0  0  0  0  0  0
   51.9624    8.2602   11.4591 C   0  0  0  0  0  0  0  0  0  0  0  0
   54.0637    8.3571   12.8982 C   0  0  0  0  0  0  0  0  0  0  0  0
   52.7014    8.2931   10.1879 C   0  0  0  0  0  0  0  0  0  0  0  0
   53.2233    9.4120    8.0828 C   0  0  0  0  0  0  0  0  0  0  0  0
   52.5334    9.3665    9.2961 C   0  0  0  0  0  0  0  0  0  0  0  0
   53.5680    7.2500    9.8187 C   0  0  0  0  0  0  0  0  0  0  0  0
   54.2638    7.2904    8.6023 C   0  0  0  0  0  0  0  0  0  0  0  0
   54.0897    8.3765    7.7374 C   0  0  0  0  0  0  0  0  0  0  0  0
   55.1879    6.2068    8.1899 C   0  0  0  0  0  0  0  0  0  0  0  0
   55.3032    5.2379    9.1153 O   0  0  0  0  0  0  0  0  0  0  0  0
   55.8050    6.1557    7.1422 O   0  0  0  0  0  0  0  0  0  0  0  0
   46.2112    6.6623    9.8147 H   0  0  0  0  0  0  0  0  0  0  0  0
   44.1548    3.7608   13.3195 H   0  0  0  0  0  0  0  0  0  0  0  0
   44.9201    6.0542   13.8994 H   0  0  0  0  0  0  0  0  0  0  0  0
   45.2650    9.6273   13.5508 H   0  0  0  0  0  0  0  0  0  0  0  0
   43.9769    8.6203   12.7639 H   0  0  0  0  0  0  0  0  0  0  0  0
   46.3475    9.9734   11.3171 H   0  0  0  0  0  0  0  0  0  0  0  0
   45.0618    8.9574   10.5372 H   0  0  0  0  0  0  0  0  0  0  0  0
   48.2931    8.0869   11.1247 H   0  0  0  0  0  0  0  0  0  0  0  0
   49.7391    8.0956   14.5698 H   0  0  0  0  0  0  0  0  0  0  0  0
   52.1676    8.2111   14.8425 H   0  0  0  0  0  0  0  0  0  0  0  0
   54.3220    8.6674   13.9167 H   0  0  0  0  0  0  0  0  0  0  0  0
   54.5063    9.0960   12.2224 H   0  0  0  0  0  0  0  0  0  0  0  0
   54.5178    7.3780   12.7182 H   0  0  0  0  0  0  0  0  0  0  0  0
   53.0805   10.2518    7.4072 H   0  0  0  0  0  0  0  0  0  0  0  0
   51.8517   10.1765    9.5515 H   0  0  0  0  0  0  0  0  0  0  0  0
   53.6866    6.3957   10.4825 H   0  0  0  0  0  0  0  0  0  0  0  0
   54.6232    8.4153    6.7894 H   0  0  0  0  0  0  0  0  0  0  0  0
   55.9272    4.5999    8.7097 H   0  0  0  0  0  0  0  0  0  0  0  0
  1  2  1  0
  1  5  1  0
  2  3  1  0
  3  4  1  0
  2  6  1  0
  2  7  1  0
  8  5  1  0
  5  4  2  0
  4  9  1  0
  8 11  2  0
  9 10  2  0
 10 11  1  0
 11 12  1  0
 12 13  1  0
 13 14  1  0
 14 12  1  0
 12 15  1  0
 15 16  2  0
 15 17  1  0
 17 18  1  0
 19 18  2  0
 18 20  1  0
 19 23  1  0
 20 21  2  0
 21 22  1  0
 22 23  2  0
 22 24  1  0
 23 25  1  0
 27 25  1  0
 25 28  2  0
 26 27  2  0
 26 30  1  0
 28 29  1  0
 29 30  2  0
 29 31  1  0
 31 32  1  0
 31 33  2  0
  8 34  1  0
  9 35  1  0
 10 36  1  0
 13 37  1  0
 13 38  1  0
 14 39  1  0
 14 40  1  0
 17 41  1  0
 20 42  1  0
 21 43  1  0
 24 44  1  0
 24 45  1  0
 24 46  1  0
 26 47  1  0
 27 48  1  0
 28 49  1  0
 30 50  1  0
 32 51  1  0
M  END
> <Uni-Dock RESULT> 
ENERGY=   -4.460  LOWER_BOUND=    3.224  UPPER_BOUND=    4.466
INTER + INTRA:          -4.460
INTER:                  -4.460
INTRA:                   0.000
UNBOUND:                 0.000

$$$$

     RDKit          3D

 51 55  0  0  0  0  0  0  0  0999 V2000
   47.2590   12.4146   11.4179 O   0  0  0  0  0  0  0  0  0  0  0  0
   46.1190   12.8062   10.6398 C   0  0  0  0  0  0  0  0  0  0  0  0
   45.2738   13.7866   11.2571 O   0  0  0  0  0  0  0  0  0  0  0  0
   45.9431   13.9722   12.4250 C   0  0  0  0  0  0  0  0  0  0  0  0
   47.0720   13.1930   12.5171 C   0  0  0  0  0  0  0  0  0  0  0  0
   46.5561   13.2986    9.4545 F   0  0  0  0  0  0  0  0  0  0  0  0
   45.3777   11.7021   10.3754 F   0  0  0  0  0  0  0  0  0  0  0  0
   47.8947   13.2285   13.6252 C   0  0  0  0  0  0  0  0  0  0  0  0
   45.5751   14.8275   13.4370 C   0  0  0  0  0  0  0  0  0  0  0  0
   46.3951   14.8805   14.5697 C   0  0  0  0  0  0  0  0  0  0  0  0
   47.5697   14.0925   14.6886 C   0  0  0  0  0  0  0  0  0  0  0  0
   48.4293   14.1706   15.9488 C   0  0  0  0  0  0  0  0  0  0  0  0
   49.1063   15.5088   16.2450 C   0  0  0  0  0  0  0  0  0  0  0  0
   49.9397   14.3504   15.8012 C   0  0  0  0  0  0  0  0  0  0  0  0
   47.9201   13.3833   17.1363 C   0  0  0  0  0  0  0  0  0  0  0  0
   47.2033   13.9347   17.9598 O   0  0  0  0  0  0  0  0  0  0  0  0
   48.3432   12.0805   17.1343 N   0  0  0  0  0  0  0  0  0  0  0  0
   48.0572   11.0762   18.0552 C   0  0  0  0  0  0  0  0  0  0  0  0
   48.6365    9.8975   17.7509 N   0  0  0  0  0  0  0  0  0  0  0  0
   47.2593   11.2468   19.1720 C   0  0  0  0  0  0  0  0  0  0  0  0
   47.0517   10.1587   20.0161 C   0  0  0  0  0  0  0  0  0  0  0  0
   47.6449    8.9252   19.7323 C   0  0  0  0  0  0  0  0  0  0  0  0
   48.4193    8.8343   18.5699 C   0  0  0  0  0  0  0  0  0  0  0  0
   47.4158    7.7635   20.6537 C   0  0  0  0  0  0  0  0  0  0  0  0
   49.0777    7.5982   18.1206 C   0  0  0  0  0  0  0  0  0  0  0  0
   51.1203    6.3696   17.5974 C   0  0  0  0  0  0  0  0  0  0  0  0
   50.4785    7.5332   18.0265 C   0  0  0  0  0  0  0  0  0  0  0  0
   48.3321    6.4659   17.7501 C   0  0  0  0  0  0  0  0  0  0  0  0
   48.9708    5.2945   17.3192 C   0  0  0  0  0  0  0  0  0  0  0  0
   50.3675    5.2504   17.2468 C   0  0  0  0  0  0  0  0  0  0  0  0
   48.2097    4.0840   16.9272 C   0  0  0  0  0  0  0  0  0  0  0  0
   46.8812    4.2317   17.0737 O   0  0  0  0  0  0  0  0  0  0  0  0
   48.6877    3.0421   16.5185 O   0  0  0  0  0  0  0  0  0  0  0  0
   48.7766   12.5970   13.6660 H   0  0  0  0  0  0  0  0  0  0  0  0
   44.6804   15.4362   13.3643 H   0  0  0  0  0  0  0  0  0  0  0  0
   46.1177   15.5430   15.3902 H   0  0  0  0  0  0  0  0  0  0  0  0
   49.1760   15.8247   17.2810 H   0  0  0  0  0  0  0  0  0  0  0  0
   48.9670   16.3299   15.5508 H   0  0  0  0  0  0  0  0  0  0  0  0
   50.5940   13.8964   16.5379 H   0  0  0  0  0  0  0  0  0  0  0  0
   50.3734   14.4011   14.8088 H   0  0  0  0  0  0  0  0  0  0  0  0
   48.9277   11.7565   16.3773 H   0  0  0  0  0  0  0  0  0  0  0  0
   46.7920   12.1944   19.4115 H   0  0  0  0  0  0  0  0  0  0  0  0
   46.4269   10.2853   20.8973 H   0  0  0  0  0  0  0  0  0  0  0  0
   47.0556    8.1008   21.6319 H   0  0  0  0  0  0  0  0  0  0  0  0
   48.3456    7.2142   20.8332 H   0  0  0  0  0  0  0  0  0  0  0  0
   46.6661    7.0867   20.2329 H   0  0  0  0  0  0  0  0  0  0  0  0
   52.2052    6.3391   17.5327 H   0  0  0  0  0  0  0  0  0  0  0  0
   51.0764    8.4049   18.2890 H   0  0  0  0  0  0  0  0  0  0  0  0
   47.2452    6.5082   17.7866 H   0  0  0  0  0  0  0  0  0  0  0  0
   50.8722    4.3466   16.9104 H   0  0  0  0  0  0  0  0  0  0  0  0
   46.5159    3.3723   16.7755 H   0  0  0  0  0  0  0  0  0  0  0  0
  1  2  1  0
  1  5  1  0
  2  3  1  0
  3  4  1  0
  2  6  1  0
  2  7  1  0
  8  5  1  0
  5  4  2  0
  4  9  1  0
  8 11  2  0
  9 10  2  0
 10 11  1  0
 11 12  1  0
 12 13  1  0
 13 14  1  0
 14 12  1  0
 12 15  1  0
 15 16  2  0
 15 17  1  0
 17 18  1  0
 19 18  2  0
 18 20  1  0
 19 23  1  0
 20 21  2  0
 21 22  1  0
 22 23  2  0
 22 24  1  0
 23 25  1  0
 27 25  1  0
 25 28  2  0
 26 27  2  0
 26 30  1  0
 28 29  1  0
 29 30  2  0
 29 31  1  0
 31 32  1  0
 31 33  2  0
  8 34  1  0
  9 35  1  0
 10 36  1  0
 13 37  1  0
 13 38  1  0
 14 39  1  0
 14 40  1  0
 17 41  1  0
 20 42  1  0
 21 43  1  0
 24 44  1  0
 24 45  1  0
 24 46  1  0
 26 47  1  0
 27 48  1  0
 28 49  1  0
 30 50  1  0
 32 51  1  0
M  END
> <Uni-Dock RESULT> 
ENERGY=   -4.454  LOWER_BOUND=    6.912  UPPER_BOUND=    9.366
INTER + INTRA:          -4.454
INTER:                  -4.454
INTRA:                   0.000
UNBOUND:                 0.000

$$$$

     RDKit          3D

 51 55  0  0  0  0  0  0  0  0999 V2000
   46.7772   12.0654   20.1562 O   0  0  0  0  0  0  0  0  0  0  0  0
   46.9455   10.6891   20.5249 C   0  0  0  0  0  0  0  0  0  0  0  0
   47.6648    9.8923   19.5741 O   0  0  0  0  0  0  0  0  0  0  0  0
   47.9245   10.8325   18.6280 C   0  0  0  0  0  0  0  0  0  0  0  0
   47.4206   12.0682   18.9583 C   0  0  0  0  0  0  0  0  0  0  0  0
   47.5992   10.6389   21.7118 F   0  0  0  0  0  0  0  0  0  0  0  0
   45.7200   10.1393   20.7096 F   0  0  0  0  0  0  0  0  0  0  0  0
   47.5734   13.1633   18.1315 C   0  0  0  0  0  0  0  0  0  0  0  0
   48.6067   10.6249   17.4522 C   0  0  0  0  0  0  0  0  0  0  0  0
   48.7743   11.7213   16.5990 C   0  0  0  0  0  0  0  0  0  0  0  0
   48.2707   13.0096   16.9177 C   0  0  0  0  0  0  0  0  0  0  0  0
   48.4636   14.1765   15.9513 C   0  0  0  0  0  0  0  0  0  0  0  0
   49.8998   14.6292   15.6882 C   0  0  0  0  0  0  0  0  0  0  0  0
   48.9939   15.5032   16.4937 C   0  0  0  0  0  0  0  0  0  0  0  0
   47.5069   14.2192   14.7800 C   0  0  0  0  0  0  0  0  0  0  0  0
   47.8259   13.6903   13.7243 O   0  0  0  0  0  0  0  0  0  0  0  0
   46.3386   14.8736   15.0684 N   0  0  0  0  0  0  0  0  0  0  0  0
   45.2391   15.0870   14.2413 C   0  0  0  0  0  0  0  0  0  0  0  0
   44.2464   15.7705   14.8452 N   0  0  0  0  0  0  0  0  0  0  0  0
   45.1511   14.6476   12.9328 C   0  0  0  0  0  0  0  0  0  0  0  0
   43.9930   14.9275   12.2115 C   0  0  0  0  0  0  0  0  0  0  0  0
   42.9490   15.6412   12.8069 C   0  0  0  0  0  0  0  0  0  0  0  0
   43.1120   16.0290   14.1419 C   0  0  0  0  0  0  0  0  0  0  0  0
   41.7096   15.9393   12.0155 C   0  0  0  0  0  0  0  0  0  0  0  0
   42.0907   16.7538   14.9133 C   0  0  0  0  0  0  0  0  0  0  0  0
   41.3988   18.7445   16.1436 C   0  0  0  0  0  0  0  0  0  0  0  0
   42.3548   18.0436   15.4054 C   0  0  0  0  0  0  0  0  0  0  0  0
   40.8435   16.1735   15.2014 C   0  0  0  0  0  0  0  0  0  0  0  0
   39.8795   16.8725   15.9414 C   0  0  0  0  0  0  0  0  0  0  0  0
   40.1615   18.1609   16.4090 C   0  0  0  0  0  0  0  0  0  0  0  0
   38.5541   16.2870   16.2556 C   0  0  0  0  0  0  0  0  0  0  0  0
   38.3837   15.0638   15.7234 O   0  0  0  0  0  0  0  0  0  0  0  0
   37.6777   16.8171   16.9127 O   0  0  0  0  0  0  0  0  0  0  0  0
   47.1596   14.1238   18.4221 H   0  0  0  0  0  0  0  0  0  0  0  0
   48.9975    9.6473   17.1913 H   0  0  0  0  0  0  0  0  0  0  0  0
   49.3022   11.5787   15.6556 H   0  0  0  0  0  0  0  0  0  0  0  0
   50.1569   14.9447   14.6820 H   0  0  0  0  0  0  0  0  0  0  0  0
   50.7095   14.1248   16.2036 H   0  0  0  0  0  0  0  0  0  0  0  0
   48.6561   16.4268   16.0356 H   0  0  0  0  0  0  0  0  0  0  0  0
   49.2055   15.5966   17.5529 H   0  0  0  0  0  0  0  0  0  0  0  0
   46.2059   15.2538   15.9944 H   0  0  0  0  0  0  0  0  0  0  0  0
   45.9491   14.0950   12.4517 H   0  0  0  0  0  0  0  0  0  0  0  0
   43.9169   14.5869   11.1814 H   0  0  0  0  0  0  0  0  0  0  0  0
   41.8927   15.8323   10.9406 H   0  0  0  0  0  0  0  0  0  0  0  0
   41.3779   16.9700   12.1772 H   0  0  0  0  0  0  0  0  0  0  0  0
   40.9071   15.2487   12.2916 H   0  0  0  0  0  0  0  0  0  0  0  0
   41.6220   19.7419   16.5144 H   0  0  0  0  0  0  0  0  0  0  0  0
   43.3218   18.5057   15.2120 H   0  0  0  0  0  0  0  0  0  0  0  0
   40.6331   15.1633   14.8553 H   0  0  0  0  0  0  0  0  0  0  0  0
   39.4206   18.7102   16.9871 H   0  0  0  0  0  0  0  0  0  0  0  0
   37.4842   14.8051   16.0145 H   0  0  0  0  0  0  0  0  0  0  0  0
  1  2  1  0
  1  5  1  0
  2  3  1  0
  3  4  1  0
  2  6  1  0
  2  7  1  0
  8  5  1  0
  5  4  2  0
  4  9  1  0
  8 11  2  0
  9 10  2  0
 10 11  1  0
 11 12  1  0
 12 13  1  0
 13 14  1  0
 14 12  1  0
 12 15  1  0
 15 16  2  0
 15 17  1  0
 17 18  1  0
 19 18  2  0
 18 20  1  0
 19 23  1  0
 20 21  2  0
 21 22  1  0
 22 23  2  0
 22 24  1  0
 23 25  1  0
 27 25  1  0
 25 28  2  0
 26 27  2  0
 26 30  1  0
 28 29  1  0
 29 30  2  0
 29 31  1  0
 31 32  1  0
 31 33  2  0
  8 34  1  0
  9 35  1  0
 10 36  1  0
 13 37  1  0
 13 38  1  0
 14 39  1  0
 14 40  1  0
 17 41  1  0
 20 42  1  0
 21 43  1  0
 24 44  1  0
 24 45  1  0
 24 46  1  0
 26 47  1  0
 27 48  1  0
 28 49  1  0
 30 50  1  0
 32 51  1  0
M  END
> <Uni-Dock RESULT> 
ENERGY=   -4.385  LOWER_BOUND=    9.614  UPPER_BOUND=   13.227
INTER + INTRA:          -4.385
INTER:                  -4.385
INTRA:                   0.000
UNBOUND:                 0.000

$$$$

     RDKit          3D

 51 55  0  0  0  0  0  0  0  0999 V2000
   50.4438   11.8534   11.6374 O   0  0  0  0  0  0  0  0  0  0  0  0
   51.6489   11.8189   10.8595 C   0  0  0  0  0  0  0  0  0  0  0  0
   52.1392   10.5044   10.5626 O   0  0  0  0  0  0  0  0  0  0  0  0
   51.1909    9.7542   11.1825 C   0  0  0  0  0  0  0  0  0  0  0  0
   50.2266   10.5202   11.7935 C   0  0  0  0  0  0  0  0  0  0  0  0
   51.4250   12.4697    9.6912 F   0  0  0  0  0  0  0  0  0  0  0  0
   52.6130   12.4986   11.5279 F   0  0  0  0  0  0  0  0  0  0  0  0
   49.1721    9.9537   12.4813 C   0  0  0  0  0  0  0  0  0  0  0  0
   51.1537    8.3803   11.2282 C   0  0  0  0  0  0  0  0  0  0  0  0
   50.0930    7.7843   11.9195 C   0  0  0  0  0  0  0  0  0  0  0  0
   49.0801    8.5503   12.5536 C   0  0  0  0  0  0  0  0  0  0  0  0
   47.9471    7.8596   13.3098 C   0  0  0  0  0  0  0  0  0  0  0  0
   46.9957    6.9881   12.4898 C   0  0  0  0  0  0  0  0  0  0  0  0
   46.5069    8.2907   13.0352 C   0  0  0  0  0  0  0  0  0  0  0  0
   48.2908    7.3756   14.7015 C   0  0  0  0  0  0  0  0  0  0  0  0
   48.6848    6.2283   14.8583 O   0  0  0  0  0  0  0  0  0  0  0  0
   48.1149    8.3380   15.6602 N   0  0  0  0  0  0  0  0  0  0  0  0
   48.3464    8.2477   17.0301 C   0  0  0  0  0  0  0  0  0  0  0  0
   48.0709    9.3901   17.6907 N   0  0  0  0  0  0  0  0  0  0  0  0
   48.8151    7.1136   17.6683 C   0  0  0  0  0  0  0  0  0  0  0  0
   49.0045    7.1545   19.0475 C   0  0  0  0  0  0  0  0  0  0  0  0
   48.7204    8.3217   19.7622 C   0  0  0  0  0  0  0  0  0  0  0  0
   48.2709    9.4299   19.0348 C   0  0  0  0  0  0  0  0  0  0  0  0
   48.9249    8.3487   21.2483 C   0  0  0  0  0  0  0  0  0  0  0  0
   47.9642   10.7351   19.6395 C   0  0  0  0  0  0  0  0  0  0  0  0
   46.3507   12.4931   20.1507 C   0  0  0  0  0  0  0  0  0  0  0  0
   46.6589   11.2536   19.5861 C   0  0  0  0  0  0  0  0  0  0  0  0
   48.9626   11.5068   20.2584 C   0  0  0  0  0  0  0  0  0  0  0  0
   48.6590   12.7516   20.8276 C   0  0  0  0  0  0  0  0  0  0  0  0
   47.3489   13.2401   20.7732 C   0  0  0  0  0  0  0  0  0  0  0  0
   49.6909   13.5843   21.4910 C   0  0  0  0  0  0  0  0  0  0  0  0
   50.9002   12.9966   21.5154 O   0  0  0  0  0  0  0  0  0  0  0  0
   49.5130   14.6831   21.9828 O   0  0  0  0  0  0  0  0  0  0  0  0
   48.4301   10.5888   12.9549 H   0  0  0  0  0  0  0  0  0  0  0  0
   51.9195    7.7786   10.7508 H   0  0  0  0  0  0  0  0  0  0  0  0
   50.0482    6.6964   11.9790 H   0  0  0  0  0  0  0  0  0  0  0  0
   46.6290    6.0720   12.9416 H   0  0  0  0  0  0  0  0  0  0  0  0
   47.1493    6.9112   11.4192 H   0  0  0  0  0  0  0  0  0  0  0  0
   45.7868    8.2524   13.8458 H   0  0  0  0  0  0  0  0  0  0  0  0
   46.3180    9.0878   12.3249 H   0  0  0  0  0  0  0  0  0  0  0  0
   47.7919    9.2534   15.3817 H   0  0  0  0  0  0  0  0  0  0  0  0
   49.0393    6.1983   17.1340 H   0  0  0  0  0  0  0  0  0  0  0  0
   49.3711    6.2662   19.5569 H   0  0  0  0  0  0  0  0  0  0  0  0
   48.9790    7.3339   21.6576 H   0  0  0  0  0  0  0  0  0  0  0  0
   48.0899    8.8469   21.7514 H   0  0  0  0  0  0  0  0  0  0  0  0
   49.8594    8.8621   21.4941 H   0  0  0  0  0  0  0  0  0  0  0  0
   45.3344   12.8761   20.1000 H   0  0  0  0  0  0  0  0  0  0  0  0
   45.8729   10.6826   19.0938 H   0  0  0  0  0  0  0  0  0  0  0  0
   49.9854   11.1355   20.2816 H   0  0  0  0  0  0  0  0  0  0  0  0
   47.1043   14.2069   21.2095 H   0  0  0  0  0  0  0  0  0  0  0  0
   51.4703   13.6530   21.9683 H   0  0  0  0  0  0  0  0  0  0  0  0
  1  2  1  0
  1  5  1  0
  2  3  1  0
  3  4  1  0
  2  6  1  0
  2  7  1  0
  8  5  1  0
  5  4  2  0
  4  9  1  0
  8 11  2  0
  9 10  2  0
 10 11  1  0
 11 12  1  0
 12 13  1  0
 13 14  1  0
 14 12  1  0
 12 15  1  0
 15 16  2  0
 15 17  1  0
 17 18  1  0
 19 18  2  0
 18 20  1  0
 19 23  1  0
 20 21  2  0
 21 22  1  0
 22 23  2  0
 22 24  1  0
 23 25  1  0
 27 25  1  0
 25 28  2  0
 26 27  2  0
 26 30  1  0
 28 29  1  0
 29 30  2  0
 29 31  1  0
 31 32  1  0
 31 33  2  0
  8 34  1  0
  9 35  1  0
 10 36  1  0
 13 37  1  0
 13 38  1  0
 14 39  1  0
 14 40  1  0
 17 41  1  0
 20 42  1  0
 21 43  1  0
 24 44  1  0
 24 45  1  0
 24 46  1  0
 26 47  1  0
 27 48  1  0
 28 49  1  0
 30 50  1  0
 32 51  1  0
M  END
> <Uni-Dock RESULT> 
ENERGY=   -4.278  LOWER_BOUND=    5.650  UPPER_BOUND=    7.923
INTER + INTRA:          -4.278
INTER:                  -4.278
INTRA:                   0.000
UNBOUND:                 0.000

$$$$
