
     RDKit          3D

 51 55  0  0  0  0  0  0  0  0999 V2000
   46.6134    4.1815    6.4994 O   0  0  0  0  0  0  0  0  0  0  0  0
   46.9174    2.9135    5.9004 C   0  0  0  0  0  0  0  0  0  0  0  0
   46.5637    1.7714    6.6926 O   0  0  0  0  0  0  0  0  0  0  0  0
   46.0478    2.3922    7.7856 C   0  0  0  0  0  0  0  0  0  0  0  0
   46.0761    3.7625    7.6769 C   0  0  0  0  0  0  0  0  0  0  0  0
   46.2703    2.8331    4.7115 F   0  0  0  0  0  0  0  0  0  0  0  0
   48.2487    2.8674    5.6462 F   0  0  0  0  0  0  0  0  0  0  0  0
   45.6003    4.5853    8.6789 C   0  0  0  0  0  0  0  0  0  0  0  0
   45.5409    1.7702    8.9024 C   0  0  0  0  0  0  0  0  0  0  0  0
   45.0516    2.5848    9.9300 C   0  0  0  0  0  0  0  0  0  0  0  0
   45.0652    4.0017    9.8432 C   0  0  0  0  0  0  0  0  0  0  0  0
   44.5340    4.8471   10.9999 C   0  0  0  0  0  0  0  0  0  0  0  0
   43.0263    4.7912   11.2529 C   0  0  0  0  0  0  0  0  0  0  0  0
   43.6296    6.0422   10.7008 C   0  0  0  0  0  0  0  0  0  0  0  0
   45.4310    4.9315   12.2200 C   0  0  0  0  0  0  0  0  0  0  0  0
   45.2071    4.1938   13.1676 O   0  0  0  0  0  0  0  0  0  0  0  0
   46.4391    5.8549   12.0645 N   0  0  0  0  0  0  0  0  0  0  0  0
   47.3997    6.1744   13.0296 C   0  0  0  0  0  0  0  0  0  0  0  0
   47.3169    5.6737   14.2709 N   0  0  0  0  0  0  0  0  0  0  0  0
   48.4221    7.0328   12.6532 C   0  0  0  0  0  0  0  0  0  0  0  0
   49.4099    7.3495   13.5810 C   0  0  0  0  0  0  0  0  0  0  0  0
   49.3587    6.8119   14.8714 C   0  0  0  0  0  0  0  0  0  0  0  0
   48.2640    5.9977   15.1903 C   0  0  0  0  0  0  0  0  0  0  0  0
   50.4560    7.1442   15.8398 C   0  0  0  0  0  0  0  0  0  0  0  0
   48.0203    5.4023   16.5180 C   0  0  0  0  0  0  0  0  0  0  0  0
   47.5093    3.4357   17.8807 C   0  0  0  0  0  0  0  0  0  0  0  0
   47.7504    4.0267   16.6372 C   0  0  0  0  0  0  0  0  0  0  0  0
   48.0068    6.1773   17.6915 C   0  0  0  0  0  0  0  0  0  0  0  0
   47.7696    5.5909   18.9439 C   0  0  0  0  0  0  0  0  0  0  0  0
   47.5240    4.2165   19.0343 C   0  0  0  0  0  0  0  0  0  0  0  0
   47.7671    6.3874   20.1948 C   0  0  0  0  0  0  0  0  0  0  0  0
   48.0832    7.6796   19.9926 O   0  0  0  0  0  0  0  0  0  0  0  0
   47.5292    5.9656   21.3114 O   0  0  0  0  0  0  0  0  0  0  0  0
   45.6374    5.6627    8.5571 H   0  0  0  0  0  0  0  0  0  0  0  0
   45.5224    0.6897    8.9882 H   0  0  0  0  0  0  0  0  0  0  0  0
   44.6515    2.1160   10.8301 H   0  0  0  0  0  0  0  0  0  0  0  0
   42.6860    4.7929   12.2841 H   0  0  0  0  0  0  0  0  0  0  0  0
   42.4104    4.1881   10.5955 H   0  0  0  0  0  0  0  0  0  0  0  0
   43.6755    6.9039   11.3581 H   0  0  0  0  0  0  0  0  0  0  0  0
   43.3950    6.2914    9.6723 H   0  0  0  0  0  0  0  0  0  0  0  0
   46.5155    6.3060   11.1678 H   0  0  0  0  0  0  0  0  0  0  0  0
   48.4795    7.4423   11.6509 H   0  0  0  0  0  0  0  0  0  0  0  0
   50.2264    8.0048   13.2880 H   0  0  0  0  0  0  0  0  0  0  0  0
   51.3861    7.3799   15.3087 H   0  0  0  0  0  0  0  0  0  0  0  0
   50.1797    8.0131   16.4454 H   0  0  0  0  0  0  0  0  0  0  0  0
   50.6831    6.2969   16.4946 H   0  0  0  0  0  0  0  0  0  0  0  0
   47.3015    2.3701   17.9418 H   0  0  0  0  0  0  0  0  0  0  0  0
   47.7131    3.4079   15.7391 H   0  0  0  0  0  0  0  0  0  0  0  0
   48.1651    7.2514   17.6240 H   0  0  0  0  0  0  0  0  0  0  0  0
   47.3323    3.7525   20.0006 H   0  0  0  0  0  0  0  0  0  0  0  0
   48.0412    8.0710   20.8913 H   0  0  0  0  0  0  0  0  0  0  0  0
  1  2  1  0
  1  5  1  0
  2  3  1  0
  3  4  1  0
  2  6  1  0
  2  7  1  0
  8  5  1  0
  5  4  2  0
  4  9  1  0
  8 11  2  0
  9 10  2  0
 10 11  1  0
 11 12  1  0
 12 13  1  0
 13 14  1  0
 14 12  1  0
 12 15  1  0
 15 16  2  0
 15 17  1  0
 17 18  1  0
 19 18  2  0
 18 20  1  0
 19 23  1  0
 20 21  2  0
 21 22  1  0
 22 23  2  0
 22 24  1  0
 23 25  1  0
 27 25  1  0
 25 28  2  0
 26 27  2  0
 26 30  1  0
 28 29  1  0
 29 30  2  0
 29 31  1  0
 31 32  1  0
 31 33  2  0
  8 34  1  0
  9 35  1  0
 10 36  1  0
 13 37  1  0
 13 38  1  0
 14 39  1  0
 14 40  1  0
 17 41  1  0
 20 42  1  0
 21 43  1  0
 24 44  1  0
 24 45  1  0
 24 46  1  0
 26 47  1  0
 27 48  1  0
 28 49  1  0
 30 50  1  0
 32 51  1  0
M  END
> <Uni-Dock RESULT> 
ENERGY=   -7.446  LOWER_BOUND=    0.000  UPPER_BOUND=    0.000
INTER + INTRA:          -7.446
INTER:                  -7.446
INTRA:                   0.000
UNBOUND:                 0.000

$$$$

     RDKit          3D

 51 55  0  0  0  0  0  0  0  0999 V2000
   51.7428    1.4623   17.9178 O   0  0  0  0  0  0  0  0  0  0  0  0
   53.1726    1.4697   17.7970 C   0  0  0  0  0  0  0  0  0  0  0  0
   53.7619    2.7720   17.6807 O   0  0  0  0  0  0  0  0  0  0  0  0
   52.6438    3.5426   17.7267 C   0  0  0  0  0  0  0  0  0  0  0  0
   51.4953    2.7988   17.8610 C   0  0  0  0  0  0  0  0  0  0  0  0
   53.6994    0.8513   18.8827 F   0  0  0  0  0  0  0  0  0  0  0  0
   53.5144    0.7417   16.7050 F   0  0  0  0  0  0  0  0  0  0  0  0
   50.2472    3.3866   17.9266 C   0  0  0  0  0  0  0  0  0  0  0  0
   52.6064    4.9151   17.6517 C   0  0  0  0  0  0  0  0  0  0  0  0
   51.3520    5.5323   17.7178 C   0  0  0  0  0  0  0  0  0  0  0  0
   50.1504    4.7897   17.8597 C   0  0  0  0  0  0  0  0  0  0  0  0
   48.8038    5.5101   17.9107 C   0  0  0  0  0  0  0  0  0  0  0  0
   48.5276    6.3583   19.1534 C   0  0  0  0  0  0  0  0  0  0  0  0
   47.7671    5.0877   18.9511 C   0  0  0  0  0  0  0  0  0  0  0  0
   48.2939    6.0471   16.5871 C   0  0  0  0  0  0  0  0  0  0  0  0
   48.4750    7.2254   16.3207 O   0  0  0  0  0  0  0  0  0  0  0  0
   47.6949    5.0718   15.8234 N   0  0  0  0  0  0  0  0  0  0  0  0
   47.1046    5.2731   14.5715 C   0  0  0  0  0  0  0  0  0  0  0  0
   46.9625    6.5094   14.0717 N   0  0  0  0  0  0  0  0  0  0  0  0
   46.6660    4.1509   13.8845 C   0  0  0  0  0  0  0  0  0  0  0  0
   46.0991    4.3131   12.6238 C   0  0  0  0  0  0  0  0  0  0  0  0
   45.9712    5.5920   12.0715 C   0  0  0  0  0  0  0  0  0  0  0  0
   46.3873    6.6786   12.8520 C   0  0  0  0  0  0  0  0  0  0  0  0
   45.3871    5.7331   10.6963 C   0  0  0  0  0  0  0  0  0  0  0  0
   46.2664    8.0935   12.4519 C   0  0  0  0  0  0  0  0  0  0  0  0
   47.2953   10.2944   12.1641 C   0  0  0  0  0  0  0  0  0  0  0  0
   47.3812    8.9482   12.5299 C   0  0  0  0  0  0  0  0  0  0  0  0
   45.0456    8.6456   12.0242 C   0  0  0  0  0  0  0  0  0  0  0  0
   44.9521    9.9950   11.6513 C   0  0  0  0  0  0  0  0  0  0  0  0
   46.0825   10.8166   11.7200 C   0  0  0  0  0  0  0  0  0  0  0  0
   43.6784   10.5925   11.1823 C   0  0  0  0  0  0  0  0  0  0  0  0
   42.6814    9.6936   11.0915 O   0  0  0  0  0  0  0  0  0  0  0  0
   43.5028   11.7587   10.8820 O   0  0  0  0  0  0  0  0  0  0  0  0
   49.3629    2.7674   18.0344 H   0  0  0  0  0  0  0  0  0  0  0  0
   53.5125    5.5002   17.5423 H   0  0  0  0  0  0  0  0  0  0  0  0
   51.2945    6.6197   17.6525 H   0  0  0  0  0  0  0  0  0  0  0  0
   48.0055    7.3006   19.0169 H   0  0  0  0  0  0  0  0  0  0  0  0
   49.2733    6.3874   19.9398 H   0  0  0  0  0  0  0  0  0  0  0  0
   46.7156    5.1726   18.6988 H   0  0  0  0  0  0  0  0  0  0  0  0
   47.9882    4.2673   19.6243 H   0  0  0  0  0  0  0  0  0  0  0  0
   47.7214    4.1297   16.1769 H   0  0  0  0  0  0  0  0  0  0  0  0
   46.7749    3.1541   14.2970 H   0  0  0  0  0  0  0  0  0  0  0  0
   45.7719    3.4372   12.0694 H   0  0  0  0  0  0  0  0  0  0  0  0
   45.5531    4.8230   10.1072 H   0  0  0  0  0  0  0  0  0  0  0  0
   44.3083    5.9081   10.7565 H   0  0  0  0  0  0  0  0  0  0  0  0
   45.8614    6.5486   10.1410 H   0  0  0  0  0  0  0  0  0  0  0  0
   48.1734   10.9317   12.2368 H   0  0  0  0  0  0  0  0  0  0  0  0
   48.3314    8.5576   12.8980 H   0  0  0  0  0  0  0  0  0  0  0  0
   44.1560    8.0199   11.9994 H   0  0  0  0  0  0  0  0  0  0  0  0
   46.0193   11.8667   11.4392 H   0  0  0  0  0  0  0  0  0  0  0  0
   41.9194   10.2250   10.7757 H   0  0  0  0  0  0  0  0  0  0  0  0
  1  2  1  0
  1  5  1  0
  2  3  1  0
  3  4  1  0
  2  6  1  0
  2  7  1  0
  8  5  1  0
  5  4  2  0
  4  9  1  0
  8 11  2  0
  9 10  2  0
 10 11  1  0
 11 12  1  0
 12 13  1  0
 13 14  1  0
 14 12  1  0
 12 15  1  0
 15 16  2  0
 15 17  1  0
 17 18  1  0
 19 18  2  0
 18 20  1  0
 19 23  1  0
 20 21  2  0
 21 22  1  0
 22 23  2  0
 22 24  1  0
 23 25  1  0
 27 25  1  0
 25 28  2  0
 26 27  2  0
 26 30  1  0
 28 29  1  0
 29 30  2  0
 29 31  1  0
 31 32  1  0
 31 33  2  0
  8 34  1  0
  9 35  1  0
 10 36  1  0
 13 37  1  0
 13 38  1  0
 14 39  1  0
 14 40  1  0
 17 41  1  0
 20 42  1  0
 21 43  1  0
 24 44  1  0
 24 45  1  0
 24 46  1  0
 26 47  1  0
 27 48  1  0
 28 49  1  0
 30 50  1  0
 32 51  1  0
M  END
> <Uni-Dock RESULT> 
ENERGY=   -5.829  LOWER_BOUND=    4.965  UPPER_BOUND=    9.315
INTER + INTRA:          -5.829
INTER:                  -5.829
INTRA:                   0.000
UNBOUND:                 0.000

$$$$

     RDKit          3D

 51 55  0  0  0  0  0  0  0  0999 V2000
   45.8750    4.2619   12.7700 O   0  0  0  0  0  0  0  0  0  0  0  0
   44.6376    4.3942   12.0556 C   0  0  0  0  0  0  0  0  0  0  0  0
   44.2139    5.7452   11.8271 O   0  0  0  0  0  0  0  0  0  0  0  0
   45.2282    6.4167   12.4324 C   0  0  0  0  0  0  0  0  0  0  0  0
   46.1728    5.5743   12.9692 C   0  0  0  0  0  0  0  0  0  0  0  0
   44.7636    3.7713   10.8577 F   0  0  0  0  0  0  0  0  0  0  0  0
   43.6691    3.7497   12.7526 F   0  0  0  0  0  0  0  0  0  0  0  0
   47.2871    6.0521   13.6307 C   0  0  0  0  0  0  0  0  0  0  0  0
   45.3473    7.7834   12.5272 C   0  0  0  0  0  0  0  0  0  0  0  0
   46.4698    8.2900   13.1922 C   0  0  0  0  0  0  0  0  0  0  0  0
   47.4622    7.4438   13.7529 C   0  0  0  0  0  0  0  0  0  0  0  0
   48.6614    8.0462   14.4837 C   0  0  0  0  0  0  0  0  0  0  0  0
   49.6733    8.8088   13.6266 C   0  0  0  0  0  0  0  0  0  0  0  0
   50.0593    7.4901   14.2148 C   0  0  0  0  0  0  0  0  0  0  0  0
   48.3789    8.6007   15.8668 C   0  0  0  0  0  0  0  0  0  0  0  0
   48.1922    9.8014   15.9929 O   0  0  0  0  0  0  0  0  0  0  0  0
   48.3426    7.6161   16.8272 N   0  0  0  0  0  0  0  0  0  0  0  0
   48.1345    7.8264   18.1942 C   0  0  0  0  0  0  0  0  0  0  0  0
   48.0852    9.0687   18.6967 N   0  0  0  0  0  0  0  0  0  0  0  0
   47.9963    6.7052   18.9990 C   0  0  0  0  0  0  0  0  0  0  0  0
   47.7604    6.8790   20.3595 C   0  0  0  0  0  0  0  0  0  0  0  0
   47.6738    8.1674   20.8975 C   0  0  0  0  0  0  0  0  0  0  0  0
   47.8799    9.2468   20.0284 C   0  0  0  0  0  0  0  0  0  0  0  0
   47.3849    8.3241   22.3619 C   0  0  0  0  0  0  0  0  0  0  0  0
   47.8870   10.6641   20.4384 C   0  0  0  0  0  0  0  0  0  0  0  0
   47.0922   12.9542   20.1085 C   0  0  0  0  0  0  0  0  0  0  0  0
   47.1009   11.6041   19.7472 C   0  0  0  0  0  0  0  0  0  0  0  0
   48.6956   11.1319   21.4897 C   0  0  0  0  0  0  0  0  0  0  0  0
   48.6894   12.4850   21.8611 C   0  0  0  0  0  0  0  0  0  0  0  0
   47.8821   13.3938   21.1684 C   0  0  0  0  0  0  0  0  0  0  0  0
   49.5222   12.9957   22.9769 C   0  0  0  0  0  0  0  0  0  0  0  0
   50.2005   12.0220   23.6112 O   0  0  0  0  0  0  0  0  0  0  0  0
   49.6068   14.1561   23.3338 O   0  0  0  0  0  0  0  0  0  0  0  0
   48.0124    5.3569   14.0400 H   0  0  0  0  0  0  0  0  0  0  0  0
   44.5999    8.4465   12.1064 H   0  0  0  0  0  0  0  0  0  0  0  0
   46.5835    9.3707   13.2880 H   0  0  0  0  0  0  0  0  0  0  0  0
   50.1129    9.7096   14.0442 H   0  0  0  0  0  0  0  0  0  0  0  0
   49.5122    8.8628   12.5559 H   0  0  0  0  0  0  0  0  0  0  0  0
   50.7844    7.4989   15.0214 H   0  0  0  0  0  0  0  0  0  0  0  0
   50.1820    6.6601   13.5283 H   0  0  0  0  0  0  0  0  0  0  0  0
   48.4315    6.6638   16.5133 H   0  0  0  0  0  0  0  0  0  0  0  0
   48.0461    5.7026   18.5892 H   0  0  0  0  0  0  0  0  0  0  0  0
   47.6299    6.0060   20.9940 H   0  0  0  0  0  0  0  0  0  0  0  0
   46.8281    7.4599   22.7438 H   0  0  0  0  0  0  0  0  0  0  0  0
   48.3182    8.4055   22.9279 H   0  0  0  0  0  0  0  0  0  0  0  0
   46.7598    9.2016   22.5555 H   0  0  0  0  0  0  0  0  0  0  0  0
   46.4760   13.6584   19.5545 H   0  0  0  0  0  0  0  0  0  0  0  0
   46.4952   11.2771   18.9003 H   0  0  0  0  0  0  0  0  0  0  0  0
   49.3495   10.4361   22.0109 H   0  0  0  0  0  0  0  0  0  0  0  0
   47.8748   14.4471   21.4443 H   0  0  0  0  0  0  0  0  0  0  0  0
   50.6953   12.5023   24.3092 H   0  0  0  0  0  0  0  0  0  0  0  0
  1  2  1  0
  1  5  1  0
  2  3  1  0
  3  4  1  0
  2  6  1  0
  2  7  1  0
  8  5  1  0
  5  4  2  0
  4  9  1  0
  8 11  2  0
  9 10  2  0
 10 11  1  0
 11 12  1  0
 12 13  1  0
 13 14  1  0
 14 12  1  0
 12 15  1  0
 15 16  2  0
 15 17  1  0
 17 18  1  0
 19 18  2  0
 18 20  1  0
 19 23  1  0
 20 21  2  0
 21 22  1  0
 22 23  2  0
 22 24  1  0
 23 25  1  0
 27 25  1  0
 25 28  2  0
 26 27  2  0
 26 30  1  0
 28 29  1  0
 29 30  2  0
 29 31  1  0
 31 32  1  0
 31 33  2  0
  8 34  1  0
  9 35  1  0
 10 36  1  0
 13 37  1  0
 13 38  1  0
 14 39  1  0
 14 40  1  0
 17 41  1  0
 20 42  1  0
 21 43  1  0
 24 44  1  0
 24 45  1  0
 24 46  1  0
 26 47  1  0
 27 48  1  0
 28 49  1  0
 30 50  1  0
 32 51  1  0
M  END
> <Uni-Dock RESULT> 
ENERGY=   -5.773  LOWER_BOUND=    4.223  UPPER_BOUND=    6.929
INTER + INTRA:          -5.773
INTER:                  -5.773
INTRA:                   0.000
UNBOUND:                 0.000

$$$$

     RDKit          3D

 51 55  0  0  0  0  0  0  0  0999 V2000
   46.4255    4.3051   14.5281 O   0  0  0  0  0  0  0  0  0  0  0  0
   45.7470    4.2680   13.2642 C   0  0  0  0  0  0  0  0  0  0  0  0
   46.1782    5.2562   12.3185 O   0  0  0  0  0  0  0  0  0  0  0  0
   47.1272    5.8906   13.0553 C   0  0  0  0  0  0  0  0  0  0  0  0
   47.2682    5.3509   14.3119 C   0  0  0  0  0  0  0  0  0  0  0  0
   45.9226    3.0396   12.7175 F   0  0  0  0  0  0  0  0  0  0  0  0
   44.4191    4.4320   13.4854 F   0  0  0  0  0  0  0  0  0  0  0  0
   48.1788    5.8485   15.2234 C   0  0  0  0  0  0  0  0  0  0  0  0
   47.8904    6.9571   12.6416 C   0  0  0  0  0  0  0  0  0  0  0  0
   48.8211    7.4766   13.5486 C   0  0  0  0  0  0  0  0  0  0  0  0
   48.9903    6.9371   14.8508 C   0  0  0  0  0  0  0  0  0  0  0  0
   50.0092    7.5509   15.8100 C   0  0  0  0  0  0  0  0  0  0  0  0
   51.4848    7.3692   15.4497 C   0  0  0  0  0  0  0  0  0  0  0  0
   50.9218    6.6324   16.6218 C   0  0  0  0  0  0  0  0  0  0  0  0
   49.6135    8.8770   16.4307 C   0  0  0  0  0  0  0  0  0  0  0  0
   50.0387    9.9093   15.9350 O   0  0  0  0  0  0  0  0  0  0  0  0
   48.7640    8.7199   17.5016 N   0  0  0  0  0  0  0  0  0  0  0  0
   48.2563    9.7571   18.2906 C   0  0  0  0  0  0  0  0  0  0  0  0
   48.6879   11.0163   18.1278 N   0  0  0  0  0  0  0  0  0  0  0  0
   47.3074    9.4264   19.2466 C   0  0  0  0  0  0  0  0  0  0  0  0
   46.7610   10.4387   20.0301 C   0  0  0  0  0  0  0  0  0  0  0  0
   47.1749   11.7632   19.8535 C   0  0  0  0  0  0  0  0  0  0  0  0
   48.1776   12.0070   18.9058 C   0  0  0  0  0  0  0  0  0  0  0  0
   46.5436   12.8380   20.6894 C   0  0  0  0  0  0  0  0  0  0  0  0
   48.7740   13.3295   18.6373 C   0  0  0  0  0  0  0  0  0  0  0  0
   49.4251   15.0577   17.0328 C   0  0  0  0  0  0  0  0  0  0  0  0
   48.8596   13.8119   17.3184 C   0  0  0  0  0  0  0  0  0  0  0  0
   49.3087   14.1285   19.6638 C   0  0  0  0  0  0  0  0  0  0  0  0
   49.8743   15.3820   19.3856 C   0  0  0  0  0  0  0  0  0  0  0  0
   49.9277   15.8450   18.0664 C   0  0  0  0  0  0  0  0  0  0  0  0
   50.4289   16.2468   20.4552 C   0  0  0  0  0  0  0  0  0  0  0  0
   50.2593   15.7301   21.6859 O   0  0  0  0  0  0  0  0  0  0  0  0
   50.9728   17.3236   20.2949 O   0  0  0  0  0  0  0  0  0  0  0  0
   48.2632    5.3956   16.2056 H   0  0  0  0  0  0  0  0  0  0  0  0
   47.7758    7.3839   11.6516 H   0  0  0  0  0  0  0  0  0  0  0  0
   49.4333    8.3278   13.2475 H   0  0  0  0  0  0  0  0  0  0  0  0
   52.1572    8.2011   15.6365 H   0  0  0  0  0  0  0  0  0  0  0  0
   51.7374    6.8001   14.5622 H   0  0  0  0  0  0  0  0  0  0  0  0
   51.2357    6.9546   17.6088 H   0  0  0  0  0  0  0  0  0  0  0  0
   50.8202    5.5573   16.5269 H   0  0  0  0  0  0  0  0  0  0  0  0
   48.4502    7.7856   17.7067 H   0  0  0  0  0  0  0  0  0  0  0  0
   46.9683    8.4052   19.3806 H   0  0  0  0  0  0  0  0  0  0  0  0
   46.0013   10.1914   20.7673 H   0  0  0  0  0  0  0  0  0  0  0  0
   45.5335   12.5461   21.0012 H   0  0  0  0  0  0  0  0  0  0  0  0
   47.1391   13.0199   21.5896 H   0  0  0  0  0  0  0  0  0  0  0  0
   46.4334   13.7705   20.1268 H   0  0  0  0  0  0  0  0  0  0  0  0
   49.4795   15.4037   16.0033 H   0  0  0  0  0  0  0  0  0  0  0  0
   48.4907   13.1954   16.4970 H   0  0  0  0  0  0  0  0  0  0  0  0
   49.2992   13.7600   20.6872 H   0  0  0  0  0  0  0  0  0  0  0  0
   50.3705   16.8134   17.8389 H   0  0  0  0  0  0  0  0  0  0  0  0
   50.6678   16.3993   22.2757 H   0  0  0  0  0  0  0  0  0  0  0  0
  1  2  1  0
  1  5  1  0
  2  3  1  0
  3  4  1  0
  2  6  1  0
  2  7  1  0
  8  5  1  0
  5  4  2  0
  4  9  1  0
  8 11  2  0
  9 10  2  0
 10 11  1  0
 11 12  1  0
 12 13  1  0
 13 14  1  0
 14 12  1  0
 12 15  1  0
 15 16  2  0
 15 17  1  0
 17 18  1  0
 19 18  2  0
 18 20  1  0
 19 23  1  0
 20 21  2  0
 21 22  1  0
 22 23  2  0
 22 24  1  0
 23 25  1  0
 27 25  1  0
 25 28  2  0
 26 27  2  0
 26 30  1  0
 28 29  1  0
 29 30  2  0
 29 31  1  0
 31 32  1  0
 31 33  2  0
  8 34  1  0
  9 35  1  0
 10 36  1  0
 13 37  1  0
 13 38  1  0
 14 39  1  0
 14 40  1  0
 17 41  1  0
 20 42  1  0
 21 43  1  0
 24 44  1  0
 24 45  1  0
 24 46  1  0
 26 47  1  0
 27 48  1  0
 28 49  1  0
 30 50  1  0
 32 51  1  0
M  END
> <Uni-Dock RESULT> 
ENERGY=   -5.129  LOWER_BOUND=    5.659  UPPER_BOUND=    8.354
INTER + INTRA:          -5.129
INTER:                  -5.129
INTRA:                   0.000
UNBOUND:                 0.000

$$$$

     RDKit          3D

 51 55  0  0  0  0  0  0  0  0999 V2000
   51.2956    1.2873   17.0486 O   0  0  0  0  0  0  0  0  0  0  0  0
   52.5777    0.9935   17.6221 C   0  0  0  0  0  0  0  0  0  0  0  0
   53.0882    2.0002   18.5069 O   0  0  0  0  0  0  0  0  0  0  0  0
   52.0794    2.9079   18.4396 C   0  0  0  0  0  0  0  0  0  0  0  0
   51.0600    2.5037   17.6103 C   0  0  0  0  0  0  0  0  0  0  0  0
   52.4869   -0.1758   18.3028 F   0  0  0  0  0  0  0  0  0  0  0  0
   53.4670    0.8128   16.6143 F   0  0  0  0  0  0  0  0  0  0  0  0
   49.9376    3.2804   17.3995 C   0  0  0  0  0  0  0  0  0  0  0  0
   52.0311    4.1109   19.1041 C   0  0  0  0  0  0  0  0  0  0  0  0
   50.9018    4.9137   18.9064 C   0  0  0  0  0  0  0  0  0  0  0  0
   49.8331    4.5200   18.0588 C   0  0  0  0  0  0  0  0  0  0  0  0
   48.6289    5.4402   17.8635 C   0  0  0  0  0  0  0  0  0  0  0  0
   47.7122    5.6344   19.0726 C   0  0  0  0  0  0  0  0  0  0  0  0
   47.2203    4.8487   17.9003 C   0  0  0  0  0  0  0  0  0  0  0  0
   48.8612    6.6496   16.9782 C   0  0  0  0  0  0  0  0  0  0  0  0
   49.1067    7.7250   17.5031 O   0  0  0  0  0  0  0  0  0  0  0  0
   48.7872    6.3394   15.6398 N   0  0  0  0  0  0  0  0  0  0  0  0
   48.9272    7.2516   14.5888 C   0  0  0  0  0  0  0  0  0  0  0  0
   49.0162    8.5676   14.8309 N   0  0  0  0  0  0  0  0  0  0  0  0
   48.9561    6.7409   13.2996 C   0  0  0  0  0  0  0  0  0  0  0  0
   49.1222    7.6185   12.2322 C   0  0  0  0  0  0  0  0  0  0  0  0
   49.2489    8.9918   12.4663 C   0  0  0  0  0  0  0  0  0  0  0  0
   49.1536    9.4337   13.7925 C   0  0  0  0  0  0  0  0  0  0  0  0
   49.4608    9.9103   11.2985 C   0  0  0  0  0  0  0  0  0  0  0  0
   49.2015   10.8477   14.2107 C   0  0  0  0  0  0  0  0  0  0  0  0
   50.1399   12.5841   15.6563 C   0  0  0  0  0  0  0  0  0  0  0  0
   50.0772   11.2530   15.2346 C   0  0  0  0  0  0  0  0  0  0  0  0
   48.3606   11.8218   13.6433 C   0  0  0  0  0  0  0  0  0  0  0  0
   48.4204   13.1608   14.0584 C   0  0  0  0  0  0  0  0  0  0  0  0
   49.3155   13.5388   15.0650 C   0  0  0  0  0  0  0  0  0  0  0  0
   47.5540   14.2061   13.4617 C   0  0  0  0  0  0  0  0  0  0  0  0
   46.7871   13.7401   12.4591 O   0  0  0  0  0  0  0  0  0  0  0  0
   47.5133   15.3766   13.7926 O   0  0  0  0  0  0  0  0  0  0  0  0
   49.1523    2.9278   16.7392 H   0  0  0  0  0  0  0  0  0  0  0  0
   52.8372    4.4299   19.7550 H   0  0  0  0  0  0  0  0  0  0  0  0
   50.8428    5.8765   19.4159 H   0  0  0  0  0  0  0  0  0  0  0  0
   47.2999    6.6248   19.2409 H   0  0  0  0  0  0  0  0  0  0  0  0
   47.9378    5.0989   19.9879 H   0  0  0  0  0  0  0  0  0  0  0  0
   46.4513    5.3031   17.2848 H   0  0  0  0  0  0  0  0  0  0  0  0
   47.0916    3.7814   18.0400 H   0  0  0  0  0  0  0  0  0  0  0  0
   48.6640    5.3700   15.3983 H   0  0  0  0  0  0  0  0  0  0  0  0
   48.8746    5.6767   13.1085 H   0  0  0  0  0  0  0  0  0  0  0  0
   49.1671    7.2247   11.2199 H   0  0  0  0  0  0  0  0  0  0  0  0
   49.9458    9.3808   10.4695 H   0  0  0  0  0  0  0  0  0  0  0  0
   48.5022   10.2989   10.9405 H   0  0  0  0  0  0  0  0  0  0  0  0
   50.1213   10.7435   11.5585 H   0  0  0  0  0  0  0  0  0  0  0  0
   50.8252   12.8677   16.4516 H   0  0  0  0  0  0  0  0  0  0  0  0
   50.7118   10.5111   15.7221 H   0  0  0  0  0  0  0  0  0  0  0  0
   47.6400   11.5281   12.8831 H   0  0  0  0  0  0  0  0  0  0  0  0
   49.3653   14.5739   15.3991 H   0  0  0  0  0  0  0  0  0  0  0  0
   46.2802   14.5289   12.1703 H   0  0  0  0  0  0  0  0  0  0  0  0
  1  2  1  0
  1  5  1  0
  2  3  1  0
  3  4  1  0
  2  6  1  0
  2  7  1  0
  8  5  1  0
  5  4  2  0
  4  9  1  0
  8 11  2  0
  9 10  2  0
 10 11  1  0
 11 12  1  0
 12 13  1  0
 13 14  1  0
 14 12  1  0
 12 15  1  0
 15 16  2  0
 15 17  1  0
 17 18  1  0
 19 18  2  0
 18 20  1  0
 19 23  1  0
 20 21  2  0
 21 22  1  0
 22 23  2  0
 22 24  1  0
 23 25  1  0
 27 25  1  0
 25 28  2  0
 26 27  2  0
 26 30  1  0
 28 29  1  0
 29 30  2  0
 29 31  1  0
 31 32  1  0
 31 33  2  0
  8 34  1  0
  9 35  1  0
 10 36  1  0
 13 37  1  0
 13 38  1  0
 14 39  1  0
 14 40  1  0
 17 41  1  0
 20 42  1  0
 21 43  1  0
 24 44  1  0
 24 45  1  0
 24 46  1  0
 26 47  1  0
 27 48  1  0
 28 49  1  0
 30 50  1  0
 32 51  1  0
M  END
> <Uni-Dock RESULT> 
ENERGY=   -4.620  LOWER_BOUND=    5.994  UPPER_BOUND=    9.179
INTER + INTRA:          -4.620
INTER:                  -4.620
INTRA:                   0.000
UNBOUND:                 0.000

$$$$

     RDKit          3D

 51 55  0  0  0  0  0  0  0  0999 V2000
   48.6761   12.6390   18.4091 O   0  0  0  0  0  0  0  0  0  0  0  0
   48.3553   12.5430   19.8045 C   0  0  0  0  0  0  0  0  0  0  0  0
   48.3482   11.2093   20.3318 O   0  0  0  0  0  0  0  0  0  0  0  0
   48.6653   10.5099   19.2109 C   0  0  0  0  0  0  0  0  0  0  0  0
   48.8514   11.3219   18.1171 C   0  0  0  0  0  0  0  0  0  0  0  0
   49.2526   13.2806   20.5040 F   0  0  0  0  0  0  0  0  0  0  0  0
   47.1311   13.0921   20.0017 F   0  0  0  0  0  0  0  0  0  0  0  0
   49.1794   10.8126   16.8759 C   0  0  0  0  0  0  0  0  0  0  0  0
   48.7982    9.1441   19.1228 C   0  0  0  0  0  0  0  0  0  0  0  0
   49.1318    8.6061   17.8746 C   0  0  0  0  0  0  0  0  0  0  0  0
   49.3332    9.4207   16.7295 C   0  0  0  0  0  0  0  0  0  0  0  0
   49.6803    8.7832   15.3849 C   0  0  0  0  0  0  0  0  0  0  0  0
   51.0603    8.1330   15.2712 C   0  0  0  0  0  0  0  0  0  0  0  0
   50.7845    9.3991   14.5265 C   0  0  0  0  0  0  0  0  0  0  0  0
   48.5358    8.0917   14.6691 C   0  0  0  0  0  0  0  0  0  0  0  0
   48.4218    6.8800   14.7744 O   0  0  0  0  0  0  0  0  0  0  0  0
   47.7308    8.9787   13.9922 N   0  0  0  0  0  0  0  0  0  0  0  0
   46.6188    8.6333   13.2173 C   0  0  0  0  0  0  0  0  0  0  0  0
   46.3307    7.3477   12.9668 N   0  0  0  0  0  0  0  0  0  0  0  0
   45.8443    9.6684   12.7147 C   0  0  0  0  0  0  0  0  0  0  0  0
   44.7147    9.3591   11.9627 C   0  0  0  0  0  0  0  0  0  0  0  0
   44.3795    8.0234   11.7173 C   0  0  0  0  0  0  0  0  0  0  0  0
   45.2434    7.0378   12.2126 C   0  0  0  0  0  0  0  0  0  0  0  0
   43.1371    7.7199   10.9320 C   0  0  0  0  0  0  0  0  0  0  0  0
   45.0761    5.5885   11.9925 C   0  0  0  0  0  0  0  0  0  0  0  0
   44.9701    3.3203   12.9029 C   0  0  0  0  0  0  0  0  0  0  0  0
   45.1189    4.6985   13.0812 C   0  0  0  0  0  0  0  0  0  0  0  0
   44.9121    5.0439   10.7063 C   0  0  0  0  0  0  0  0  0  0  0  0
   44.7580    3.6618   10.5194 C   0  0  0  0  0  0  0  0  0  0  0  0
   44.7845    2.8023   11.6230 C   0  0  0  0  0  0  0  0  0  0  0  0
   44.5677    3.0690    9.1734 C   0  0  0  0  0  0  0  0  0  0  0  0
   44.4892    3.9951    8.2005 O   0  0  0  0  0  0  0  0  0  0  0  0
   44.4696    1.8825    8.9214 O   0  0  0  0  0  0  0  0  0  0  0  0
   49.3202   11.4844   16.0358 H   0  0  0  0  0  0  0  0  0  0  0  0
   48.6477    8.5048   19.9853 H   0  0  0  0  0  0  0  0  0  0  0  0
   49.2354    7.5246   17.7765 H   0  0  0  0  0  0  0  0  0  0  0  0
   51.1390    7.2083   14.7074 H   0  0  0  0  0  0  0  0  0  0  0  0
   51.7282    8.1774   16.1240 H   0  0  0  0  0  0  0  0  0  0  0  0
   50.6997    9.3324   13.4472 H   0  0  0  0  0  0  0  0  0  0  0  0
   51.2919   10.2939   14.8686 H   0  0  0  0  0  0  0  0  0  0  0  0
   47.9350    9.9587   14.0982 H   0  0  0  0  0  0  0  0  0  0  0  0
   46.0867   10.7065   12.9125 H   0  0  0  0  0  0  0  0  0  0  0  0
   44.0903   10.1638   11.5827 H   0  0  0  0  0  0  0  0  0  0  0  0
   42.4036    8.5286   11.0354 H   0  0  0  0  0  0  0  0  0  0  0  0
   43.3753    7.6095    9.8694 H   0  0  0  0  0  0  0  0  0  0  0  0
   42.6454    6.8117   11.2948 H   0  0  0  0  0  0  0  0  0  0  0  0
   45.0096    2.6562   13.7632 H   0  0  0  0  0  0  0  0  0  0  0  0
   45.2867    5.0887   14.0865 H   0  0  0  0  0  0  0  0  0  0  0  0
   44.9229    5.7037    9.8415 H   0  0  0  0  0  0  0  0  0  0  0  0
   44.6725    1.7277   11.4884 H   0  0  0  0  0  0  0  0  0  0  0  0
   44.3663    3.4636    7.3850 H   0  0  0  0  0  0  0  0  0  0  0  0
  1  2  1  0
  1  5  1  0
  2  3  1  0
  3  4  1  0
  2  6  1  0
  2  7  1  0
  8  5  1  0
  5  4  2  0
  4  9  1  0
  8 11  2  0
  9 10  2  0
 10 11  1  0
 11 12  1  0
 12 13  1  0
 13 14  1  0
 14 12  1  0
 12 15  1  0
 15 16  2  0
 15 17  1  0
 17 18  1  0
 19 18  2  0
 18 20  1  0
 19 23  1  0
 20 21  2  0
 21 22  1  0
 22 23  2  0
 22 24  1  0
 23 25  1  0
 27 25  1  0
 25 28  2  0
 26 27  2  0
 26 30  1  0
 28 29  1  0
 29 30  2  0
 29 31  1  0
 31 32  1  0
 31 33  2  0
  8 34  1  0
  9 35  1  0
 10 36  1  0
 13 37  1  0
 13 38  1  0
 14 39  1  0
 14 40  1  0
 17 41  1  0
 20 42  1  0
 21 43  1  0
 24 44  1  0
 24 45  1  0
 24 46  1  0
 26 47  1  0
 27 48  1  0
 28 49  1  0
 30 50  1  0
 32 51  1  0
M  END
> <Uni-Dock RESULT> 
ENERGY=   -4.520  LOWER_BOUND=    5.300  UPPER_BOUND=   10.437
INTER + INTRA:          -4.520
INTER:                  -4.520
INTRA:                   0.000
UNBOUND:                 0.000

$$$$
