
     RDKit          3D

 51 55  0  0  0  0  0  0  0  0999 V2000
   43.9138    6.8316   11.5012 O   0  0  0  0  0  0  0  0  0  0  0  0
   43.2128    5.5834   11.5839 C   0  0  0  0  0  0  0  0  0  0  0  0
   43.8861    4.5604   12.3309 O   0  0  0  0  0  0  0  0  0  0  0  0
   45.0104    5.2338   12.6907 C   0  0  0  0  0  0  0  0  0  0  0  0
   45.0269    6.5245   12.2191 C   0  0  0  0  0  0  0  0  0  0  0  0
   42.0014    5.8047   12.1514 F   0  0  0  0  0  0  0  0  0  0  0  0
   42.9976    5.1258   10.3257 F   0  0  0  0  0  0  0  0  0  0  0  0
   46.0803    7.3780   12.4757 C   0  0  0  0  0  0  0  0  0  0  0  0
   46.0443    4.7287   13.4444 C   0  0  0  0  0  0  0  0  0  0  0  0
   47.1242    5.5769   13.7163 C   0  0  0  0  0  0  0  0  0  0  0  0
   47.1706    6.9116   13.2367 C   0  0  0  0  0  0  0  0  0  0  0  0
   48.3477    7.8321   13.5530 C   0  0  0  0  0  0  0  0  0  0  0  0
   49.1652    8.3476   12.3684 C   0  0  0  0  0  0  0  0  0  0  0  0
   49.7661    7.3309   13.2838 C   0  0  0  0  0  0  0  0  0  0  0  0
   48.1385    8.7872   14.7074 C   0  0  0  0  0  0  0  0  0  0  0  0
   47.7160    9.9135   14.4867 O   0  0  0  0  0  0  0  0  0  0  0  0
   48.4596    8.2374   15.9202 N   0  0  0  0  0  0  0  0  0  0  0  0
   48.3747    8.8172   17.1833 C   0  0  0  0  0  0  0  0  0  0  0  0
   48.7688    7.9910   18.1732 N   0  0  0  0  0  0  0  0  0  0  0  0
   47.9301   10.1049   17.4213 C   0  0  0  0  0  0  0  0  0  0  0  0
   47.8944   10.5661   18.7351 C   0  0  0  0  0  0  0  0  0  0  0  0
   48.3046    9.7369   19.7830 C   0  0  0  0  0  0  0  0  0  0  0  0
   48.7187    8.4406   19.4553 C   0  0  0  0  0  0  0  0  0  0  0  0
   48.2652   10.2504   21.1922 C   0  0  0  0  0  0  0  0  0  0  0  0
   49.1452    7.4430   20.4485 C   0  0  0  0  0  0  0  0  0  0  0  0
   50.8781    5.9879   21.3623 C   0  0  0  0  0  0  0  0  0  0  0  0
   50.4569    6.9382   20.4300 C   0  0  0  0  0  0  0  0  0  0  0  0
   48.2557    6.9503   21.4187 C   0  0  0  0  0  0  0  0  0  0  0  0
   48.6732    5.9967   22.3579 C   0  0  0  0  0  0  0  0  0  0  0  0
   49.9882    5.5195   22.3271 C   0  0  0  0  0  0  0  0  0  0  0  0
   47.7581    5.4640   23.3958 C   0  0  0  0  0  0  0  0  0  0  0  0
   46.5363    6.0239   23.3525 O   0  0  0  0  0  0  0  0  0  0  0  0
   48.0356    4.6172   24.2249 O   0  0  0  0  0  0  0  0  0  0  0  0
   46.0645    8.3982   12.1013 H   0  0  0  0  0  0  0  0  0  0  0  0
   46.0228    3.7102   13.8168 H   0  0  0  0  0  0  0  0  0  0  0  0
   47.9489    5.1929   14.3146 H   0  0  0  0  0  0  0  0  0  0  0  0
   48.8923    8.0320   11.3675 H   0  0  0  0  0  0  0  0  0  0  0  0
   49.5394    9.3654   12.4141 H   0  0  0  0  0  0  0  0  0  0  0  0
   50.5688    7.6606   13.9350 H   0  0  0  0  0  0  0  0  0  0  0  0
   49.9090    6.3306   12.8905 H   0  0  0  0  0  0  0  0  0  0  0  0
   48.7892    7.2838   15.9534 H   0  0  0  0  0  0  0  0  0  0  0  0
   47.6100   10.7647   16.6240 H   0  0  0  0  0  0  0  0  0  0  0  0
   47.5479   11.5786   18.9302 H   0  0  0  0  0  0  0  0  0  0  0  0
   48.2159   11.3447   21.2123 H   0  0  0  0  0  0  0  0  0  0  0  0
   47.3845    9.8631   21.7134 H   0  0  0  0  0  0  0  0  0  0  0  0
   49.1693    9.9662   21.7402 H   0  0  0  0  0  0  0  0  0  0  0  0
   51.8976    5.6114   21.3323 H   0  0  0  0  0  0  0  0  0  0  0  0
   51.1582    7.2907   19.6750 H   0  0  0  0  0  0  0  0  0  0  0  0
   47.2275    7.3067   21.4291 H   0  0  0  0  0  0  0  0  0  0  0  0
   50.3207    4.7773   23.0506 H   0  0  0  0  0  0  0  0  0  0  0  0
   46.0493    5.5799   24.0783 H   0  0  0  0  0  0  0  0  0  0  0  0
  1  2  1  0
  1  5  1  0
  2  3  1  0
  3  4  1  0
  2  6  1  0
  2  7  1  0
  8  5  1  0
  5  4  2  0
  4  9  1  0
  8 11  2  0
  9 10  2  0
 10 11  1  0
 11 12  1  0
 12 13  1  0
 13 14  1  0
 14 12  1  0
 12 15  1  0
 15 16  2  0
 15 17  1  0
 17 18  1  0
 19 18  2  0
 18 20  1  0
 19 23  1  0
 20 21  2  0
 21 22  1  0
 22 23  2  0
 22 24  1  0
 23 25  1  0
 27 25  1  0
 25 28  2  0
 26 27  2  0
 26 30  1  0
 28 29  1  0
 29 30  2  0
 29 31  1  0
 31 32  1  0
 31 33  2  0
  8 34  1  0
  9 35  1  0
 10 36  1  0
 13 37  1  0
 13 38  1  0
 14 39  1  0
 14 40  1  0
 17 41  1  0
 20 42  1  0
 21 43  1  0
 24 44  1  0
 24 45  1  0
 24 46  1  0
 26 47  1  0
 27 48  1  0
 28 49  1  0
 30 50  1  0
 32 51  1  0
M  END
> <Uni-Dock RESULT> 
ENERGY=   -5.626  LOWER_BOUND=    0.000  UPPER_BOUND=    0.000
INTER + INTRA:          -5.626
INTER:                  -5.626
INTRA:                   0.000
UNBOUND:                 0.000

$$$$

     RDKit          3D

 51 55  0  0  0  0  0  0  0  0999 V2000
   46.0707    1.6612    7.4723 O   0  0  0  0  0  0  0  0  0  0  0  0
   46.8223    2.1773    6.3656 C   0  0  0  0  0  0  0  0  0  0  0  0
   47.0937    3.5847    6.4230 O   0  0  0  0  0  0  0  0  0  0  0  0
   46.4810    3.8944    7.5958 C   0  0  0  0  0  0  0  0  0  0  0  0
   45.8990    2.8017    8.1925 C   0  0  0  0  0  0  0  0  0  0  0  0
   48.0026    1.5133    6.2975 F   0  0  0  0  0  0  0  0  0  0  0  0
   46.1402    1.9173    5.2228 F   0  0  0  0  0  0  0  0  0  0  0  0
   45.2268    2.9020    9.3934 C   0  0  0  0  0  0  0  0  0  0  0  0
   46.4233    5.1439    8.1682 C   0  0  0  0  0  0  0  0  0  0  0  0
   45.7456    5.2692    9.3866 C   0  0  0  0  0  0  0  0  0  0  0  0
   45.1300    4.1595   10.0216 C   0  0  0  0  0  0  0  0  0  0  0  0
   44.4062    4.3065   11.3586 C   0  0  0  0  0  0  0  0  0  0  0  0
   42.9125    3.9812   11.3802 C   0  0  0  0  0  0  0  0  0  0  0  0
   43.3528    5.4035   11.5079 C   0  0  0  0  0  0  0  0  0  0  0  0
   45.2084    3.9203   12.5818 C   0  0  0  0  0  0  0  0  0  0  0  0
   45.1306    2.7796   13.0161 O   0  0  0  0  0  0  0  0  0  0  0  0
   45.9670    4.9510   13.0702 N   0  0  0  0  0  0  0  0  0  0  0  0
   46.8314    4.9481   14.1616 C   0  0  0  0  0  0  0  0  0  0  0  0
   47.4297    6.1388   14.3670 N   0  0  0  0  0  0  0  0  0  0  0  0
   47.0705    3.8470   14.9635 C   0  0  0  0  0  0  0  0  0  0  0  0
   47.9598    3.9770   16.0274 C   0  0  0  0  0  0  0  0  0  0  0  0
   48.5897    5.2007   16.2721 C   0  0  0  0  0  0  0  0  0  0  0  0
   48.3079    6.2571   15.3981 C   0  0  0  0  0  0  0  0  0  0  0  0
   49.5411    5.3260   17.4255 C   0  0  0  0  0  0  0  0  0  0  0  0
   48.9175    7.5915   15.5050 C   0  0  0  0  0  0  0  0  0  0  0  0
   48.6777    9.9952   15.8511 C   0  0  0  0  0  0  0  0  0  0  0  0
   48.1170    8.7204   15.7506 C   0  0  0  0  0  0  0  0  0  0  0  0
   50.3006    7.7791   15.3403 C   0  0  0  0  0  0  0  0  0  0  0  0
   50.8694    9.0566   15.4410 C   0  0  0  0  0  0  0  0  0  0  0  0
   50.0528   10.1630   15.6994 C   0  0  0  0  0  0  0  0  0  0  0  0
   52.3256    9.2827   15.2775 C   0  0  0  0  0  0  0  0  0  0  0  0
   53.0116    8.1443   15.0734 O   0  0  0  0  0  0  0  0  0  0  0  0
   52.8895   10.3604   15.3218 O   0  0  0  0  0  0  0  0  0  0  0  0
   44.7850    2.0207    9.8509 H   0  0  0  0  0  0  0  0  0  0  0  0
   46.8884    6.0012    7.6937 H   0  0  0  0  0  0  0  0  0  0  0  0
   45.6942    6.2512    9.8541 H   0  0  0  0  0  0  0  0  0  0  0  0
   42.4294    3.6797   10.4575 H   0  0  0  0  0  0  0  0  0  0  0  0
   42.5133    3.4858   12.2595 H   0  0  0  0  0  0  0  0  0  0  0  0
   43.2267    5.8783   12.4752 H   0  0  0  0  0  0  0  0  0  0  0  0
   43.1522    6.0630   10.6709 H   0  0  0  0  0  0  0  0  0  0  0  0
   45.9408    5.8437   12.5994 H   0  0  0  0  0  0  0  0  0  0  0  0
   46.5914    2.8904   14.7931 H   0  0  0  0  0  0  0  0  0  0  0  0
   48.1515    3.1160   16.6639 H   0  0  0  0  0  0  0  0  0  0  0  0
   49.3930    4.5167   18.1490 H   0  0  0  0  0  0  0  0  0  0  0  0
   50.5755    5.2778   17.0720 H   0  0  0  0  0  0  0  0  0  0  0  0
   49.3824    6.2645   17.9664 H   0  0  0  0  0  0  0  0  0  0  0  0
   48.0413   10.8555   16.0434 H   0  0  0  0  0  0  0  0  0  0  0  0
   47.0400    8.6021   15.8622 H   0  0  0  0  0  0  0  0  0  0  0  0
   50.9322    6.9208   15.1190 H   0  0  0  0  0  0  0  0  0  0  0  0
   50.4850   11.1590   15.7767 H   0  0  0  0  0  0  0  0  0  0  0  0
   53.9404    8.4440   14.9806 H   0  0  0  0  0  0  0  0  0  0  0  0
  1  2  1  0
  1  5  1  0
  2  3  1  0
  3  4  1  0
  2  6  1  0
  2  7  1  0
  8  5  1  0
  5  4  2  0
  4  9  1  0
  8 11  2  0
  9 10  2  0
 10 11  1  0
 11 12  1  0
 12 13  1  0
 13 14  1  0
 14 12  1  0
 12 15  1  0
 15 16  2  0
 15 17  1  0
 17 18  1  0
 19 18  2  0
 18 20  1  0
 19 23  1  0
 20 21  2  0
 21 22  1  0
 22 23  2  0
 22 24  1  0
 23 25  1  0
 27 25  1  0
 25 28  2  0
 26 27  2  0
 26 30  1  0
 28 29  1  0
 29 30  2  0
 29 31  1  0
 31 32  1  0
 31 33  2  0
  8 34  1  0
  9 35  1  0
 10 36  1  0
 13 37  1  0
 13 38  1  0
 14 39  1  0
 14 40  1  0
 17 41  1  0
 20 42  1  0
 21 43  1  0
 24 44  1  0
 24 45  1  0
 24 46  1  0
 26 47  1  0
 27 48  1  0
 28 49  1  0
 30 50  1  0
 32 51  1  0
M  END
> <Uni-Dock RESULT> 
ENERGY=   -4.791  LOWER_BOUND=    4.644  UPPER_BOUND=    6.896
INTER + INTRA:          -4.791
INTER:                  -4.791
INTRA:                   0.000
UNBOUND:                 0.000

$$$$

     RDKit          3D

 51 55  0  0  0  0  0  0  0  0999 V2000
   39.5128   16.0420   14.8334 O   0  0  0  0  0  0  0  0  0  0  0  0
   39.2063   15.8284   16.2178 C   0  0  0  0  0  0  0  0  0  0  0  0
   39.3179   14.4680   16.6587 O   0  0  0  0  0  0  0  0  0  0  0  0
   39.6988   13.8750   15.4968 C   0  0  0  0  0  0  0  0  0  0  0  0
   39.8093   14.7690   14.4588 C   0  0  0  0  0  0  0  0  0  0  0  0
   40.0371   16.5939   16.9676 F   0  0  0  0  0  0  0  0  0  0  0  0
   37.9392   16.2527   16.4490 F   0  0  0  0  0  0  0  0  0  0  0  0
   40.1864   14.3693   13.1931 C   0  0  0  0  0  0  0  0  0  0  0  0
   39.9606   12.5356   15.3250 C   0  0  0  0  0  0  0  0  0  0  0  0
   40.3441   12.1075   14.0486 C   0  0  0  0  0  0  0  0  0  0  0  0
   40.4599   13.0073   12.9575 C   0  0  0  0  0  0  0  0  0  0  0  0
   40.8938   12.5302   11.5730 C   0  0  0  0  0  0  0  0  0  0  0  0
   39.8946   12.7113   10.4302 C   0  0  0  0  0  0  0  0  0  0  0  0
   40.1727   11.3371   10.9469 C   0  0  0  0  0  0  0  0  0  0  0  0
   42.3563   12.7306   11.2415 C   0  0  0  0  0  0  0  0  0  0  0  0
   42.7070   13.7486   10.6615 O   0  0  0  0  0  0  0  0  0  0  0  0
   43.1461   11.6935   11.6620 N   0  0  0  0  0  0  0  0  0  0  0  0
   44.5260   11.5521   11.5414 C   0  0  0  0  0  0  0  0  0  0  0  0
   44.9892   10.4020   12.0711 N   0  0  0  0  0  0  0  0  0  0  0  0
   45.3560   12.4853   10.9475 C   0  0  0  0  0  0  0  0  0  0  0  0
   46.7225   12.2220   10.8902 C   0  0  0  0  0  0  0  0  0  0  0  0
   47.2329   11.0346   11.4225 C   0  0  0  0  0  0  0  0  0  0  0  0
   46.3255   10.1558   12.0256 C   0  0  0  0  0  0  0  0  0  0  0  0
   48.7067   10.7633   11.3482 C   0  0  0  0  0  0  0  0  0  0  0  0
   46.7145    8.8864   12.6588 C   0  0  0  0  0  0  0  0  0  0  0  0
   46.5909    6.4507   12.7448 C   0  0  0  0  0  0  0  0  0  0  0  0
   46.2356    7.6651   12.1542 C   0  0  0  0  0  0  0  0  0  0  0  0
   47.5463    8.8587   13.7912 C   0  0  0  0  0  0  0  0  0  0  0  0
   47.9072    7.6424   14.3880 C   0  0  0  0  0  0  0  0  0  0  0  0
   47.4281    6.4389   13.8588 C   0  0  0  0  0  0  0  0  0  0  0  0
   48.7877    7.5832   15.5795 C   0  0  0  0  0  0  0  0  0  0  0  0
   49.2170    8.7954   15.9727 O   0  0  0  0  0  0  0  0  0  0  0  0
   49.1218    6.5728   16.1701 O   0  0  0  0  0  0  0  0  0  0  0  0
   40.2779   15.0976   12.3916 H   0  0  0  0  0  0  0  0  0  0  0  0
   39.8752   11.8361   16.1496 H   0  0  0  0  0  0  0  0  0  0  0  0
   40.5581   11.0507   13.8974 H   0  0  0  0  0  0  0  0  0  0  0  0
   38.9264   13.1492   10.6463 H   0  0  0  0  0  0  0  0  0  0  0  0
   40.2834   12.9818    9.4536 H   0  0  0  0  0  0  0  0  0  0  0  0
   40.7331   10.6675   10.3029 H   0  0  0  0  0  0  0  0  0  0  0  0
   39.3818   10.8452   11.5019 H   0  0  0  0  0  0  0  0  0  0  0  0
   42.7177   10.9155   12.1420 H   0  0  0  0  0  0  0  0  0  0  0  0
   44.9812   13.4106   10.5268 H   0  0  0  0  0  0  0  0  0  0  0  0
   47.3816   12.9502   10.4227 H   0  0  0  0  0  0  0  0  0  0  0  0
   49.1863   11.3935   10.5912 H   0  0  0  0  0  0  0  0  0  0  0  0
   49.1809   10.9730   12.3118 H   0  0  0  0  0  0  0  0  0  0  0  0
   48.9018    9.7247   11.0624 H   0  0  0  0  0  0  0  0  0  0  0  0
   46.2113    5.5166   12.3381 H   0  0  0  0  0  0  0  0  0  0  0  0
   45.5737    7.6629   11.2892 H   0  0  0  0  0  0  0  0  0  0  0  0
   47.9018    9.7962   14.2145 H   0  0  0  0  0  0  0  0  0  0  0  0
   47.7008    5.4899   14.3168 H   0  0  0  0  0  0  0  0  0  0  0  0
   49.7736    8.6037   16.7567 H   0  0  0  0  0  0  0  0  0  0  0  0
  1  2  1  0
  1  5  1  0
  2  3  1  0
  3  4  1  0
  2  6  1  0
  2  7  1  0
  8  5  1  0
  5  4  2  0
  4  9  1  0
  8 11  2  0
  9 10  2  0
 10 11  1  0
 11 12  1  0
 12 13  1  0
 13 14  1  0
 14 12  1  0
 12 15  1  0
 15 16  2  0
 15 17  1  0
 17 18  1  0
 19 18  2  0
 18 20  1  0
 19 23  1  0
 20 21  2  0
 21 22  1  0
 22 23  2  0
 22 24  1  0
 23 25  1  0
 27 25  1  0
 25 28  2  0
 26 27  2  0
 26 30  1  0
 28 29  1  0
 29 30  2  0
 29 31  1  0
 31 32  1  0
 31 33  2  0
  8 34  1  0
  9 35  1  0
 10 36  1  0
 13 37  1  0
 13 38  1  0
 14 39  1  0
 14 40  1  0
 17 41  1  0
 20 42  1  0
 21 43  1  0
 24 44  1  0
 24 45  1  0
 24 46  1  0
 26 47  1  0
 27 48  1  0
 28 49  1  0
 30 50  1  0
 32 51  1  0
M  END
> <Uni-Dock RESULT> 
ENERGY=   -4.720  LOWER_BOUND=    6.808  UPPER_BOUND=    9.372
INTER + INTRA:          -4.720
INTER:                  -4.720
INTRA:                   0.000
UNBOUND:                 0.000

$$$$

     RDKit          3D

 51 55  0  0  0  0  0  0  0  0999 V2000
   48.8250   11.9936   19.9269 O   0  0  0  0  0  0  0  0  0  0  0  0
   48.0209   13.0195   20.5244 C   0  0  0  0  0  0  0  0  0  0  0  0
   47.3811   13.9046   19.5943 O   0  0  0  0  0  0  0  0  0  0  0  0
   47.8278   13.3781   18.4238 C   0  0  0  0  0  0  0  0  0  0  0  0
   48.6488   12.2921   18.6122 C   0  0  0  0  0  0  0  0  0  0  0  0
   47.0658   12.4315   21.2863 F   0  0  0  0  0  0  0  0  0  0  0  0
   48.8055   13.7565   21.3491 F   0  0  0  0  0  0  0  0  0  0  0  0
   49.2070   11.6108   17.5500 C   0  0  0  0  0  0  0  0  0  0  0  0
   47.5203   13.8391   17.1648 C   0  0  0  0  0  0  0  0  0  0  0  0
   48.0764   13.1633   16.0722 C   0  0  0  0  0  0  0  0  0  0  0  0
   48.9323   12.0437   16.2376 C   0  0  0  0  0  0  0  0  0  0  0  0
   49.5207   11.3056   15.0368 C   0  0  0  0  0  0  0  0  0  0  0  0
   51.0439   11.2947   14.9054 C   0  0  0  0  0  0  0  0  0  0  0  0
   50.2341   12.1143   13.9539 C   0  0  0  0  0  0  0  0  0  0  0  0
   48.7888   10.0491   14.6193 C   0  0  0  0  0  0  0  0  0  0  0  0
   49.1458    8.9686   15.0675 O   0  0  0  0  0  0  0  0  0  0  0  0
   47.7586   10.2949   13.7507 N   0  0  0  0  0  0  0  0  0  0  0  0
   46.8713    9.3858   13.1807 C   0  0  0  0  0  0  0  0  0  0  0  0
   45.9672    9.9671   12.3667 N   0  0  0  0  0  0  0  0  0  0  0  0
   46.8938    8.0231   13.4154 C   0  0  0  0  0  0  0  0  0  0  0  0
   45.9485    7.2212   12.7805 C   0  0  0  0  0  0  0  0  0  0  0  0
   45.0032    7.7923   11.9237 C   0  0  0  0  0  0  0  0  0  0  0  0
   45.0374    9.1820   11.7603 C   0  0  0  0  0  0  0  0  0  0  0  0
   43.9948    6.9141   11.2432 C   0  0  0  0  0  0  0  0  0  0  0  0
   44.0891    9.9301   10.9208 C   0  0  0  0  0  0  0  0  0  0  0  0
   43.6606   11.3730    8.9999 C   0  0  0  0  0  0  0  0  0  0  0  0
   44.5456   10.6538    9.8057 C   0  0  0  0  0  0  0  0  0  0  0  0
   42.7165    9.9650   11.2208 C   0  0  0  0  0  0  0  0  0  0  0  0
   41.8230   10.6847   10.4150 C   0  0  0  0  0  0  0  0  0  0  0  0
   42.3002   11.3862    9.3024 C   0  0  0  0  0  0  0  0  0  0  0  0
   40.3697   10.7340   10.7045 C   0  0  0  0  0  0  0  0  0  0  0  0
   40.0238    9.9918   11.7712 O   0  0  0  0  0  0  0  0  0  0  0  0
   39.5371   11.3571   10.0722 O   0  0  0  0  0  0  0  0  0  0  0  0
   49.8439   10.7476   17.7248 H   0  0  0  0  0  0  0  0  0  0  0  0
   46.8683   14.6944   17.0234 H   0  0  0  0  0  0  0  0  0  0  0  0
   47.8397   13.5141   15.0690 H   0  0  0  0  0  0  0  0  0  0  0  0
   51.6368   11.8165   15.6483 H   0  0  0  0  0  0  0  0  0  0  0  0
   51.5150   10.3906   14.5329 H   0  0  0  0  0  0  0  0  0  0  0  0
   50.1789   11.7729   12.9256 H   0  0  0  0  0  0  0  0  0  0  0  0
   50.2942   13.1926   14.0509 H   0  0  0  0  0  0  0  0  0  0  0  0
   47.5698   11.2467   13.4722 H   0  0  0  0  0  0  0  0  0  0  0  0
   47.6189    7.5598   14.0736 H   0  0  0  0  0  0  0  0  0  0  0  0
   45.9611    6.1481   12.9584 H   0  0  0  0  0  0  0  0  0  0  0  0
   44.3160    5.8667   11.2486 H   0  0  0  0  0  0  0  0  0  0  0  0
   43.0304    6.9742   11.7566 H   0  0  0  0  0  0  0  0  0  0  0  0
   43.8692    7.1991   10.1937 H   0  0  0  0  0  0  0  0  0  0  0  0
   44.0335   11.9248    8.1406 H   0  0  0  0  0  0  0  0  0  0  0  0
   45.6078   10.6575    9.5650 H   0  0  0  0  0  0  0  0  0  0  0  0
   42.3491    9.4359   12.0981 H   0  0  0  0  0  0  0  0  0  0  0  0
   41.6145   11.9498    8.6724 H   0  0  0  0  0  0  0  0  0  0  0  0
   39.0548   10.1220   11.8428 H   0  0  0  0  0  0  0  0  0  0  0  0
  1  2  1  0
  1  5  1  0
  2  3  1  0
  3  4  1  0
  2  6  1  0
  2  7  1  0
  8  5  1  0
  5  4  2  0
  4  9  1  0
  8 11  2  0
  9 10  2  0
 10 11  1  0
 11 12  1  0
 12 13  1  0
 13 14  1  0
 14 12  1  0
 12 15  1  0
 15 16  2  0
 15 17  1  0
 17 18  1  0
 19 18  2  0
 18 20  1  0
 19 23  1  0
 20 21  2  0
 21 22  1  0
 22 23  2  0
 22 24  1  0
 23 25  1  0
 27 25  1  0
 25 28  2  0
 26 27  2  0
 26 30  1  0
 28 29  1  0
 29 30  2  0
 29 31  1  0
 31 32  1  0
 31 33  2  0
  8 34  1  0
  9 35  1  0
 10 36  1  0
 13 37  1  0
 13 38  1  0
 14 39  1  0
 14 40  1  0
 17 41  1  0
 20 42  1  0
 21 43  1  0
 24 44  1  0
 24 45  1  0
 24 46  1  0
 26 47  1  0
 27 48  1  0
 28 49  1  0
 30 50  1  0
 32 51  1  0
M  END
> <Uni-Dock RESULT> 
ENERGY=   -4.664  LOWER_BOUND=    5.469  UPPER_BOUND=   10.504
INTER + INTRA:          -4.664
INTER:                  -4.664
INTRA:                   0.000
UNBOUND:                 0.000

$$$$

     RDKit          3D

 51 55  0  0  0  0  0  0  0  0999 V2000
   52.4689    3.4121   19.0515 O   0  0  0  0  0  0  0  0  0  0  0  0
   53.8790    3.6155   18.8893 C   0  0  0  0  0  0  0  0  0  0  0  0
   54.2376    4.6969   18.0177 O   0  0  0  0  0  0  0  0  0  0  0  0
   53.0002    5.1326   17.6628 C   0  0  0  0  0  0  0  0  0  0  0  0
   51.9945    4.4026   18.2497 C   0  0  0  0  0  0  0  0  0  0  0  0
   54.4256    3.8456   20.1087 F   0  0  0  0  0  0  0  0  0  0  0  0
   54.4262    2.4733   18.4048 F   0  0  0  0  0  0  0  0  0  0  0  0
   50.6634    4.6850   18.0207 C   0  0  0  0  0  0  0  0  0  0  0  0
   52.7288    6.1837   16.8179 C   0  0  0  0  0  0  0  0  0  0  0  0
   51.3849    6.4876   16.5706 C   0  0  0  0  0  0  0  0  0  0  0  0
   50.3267    5.7466   17.1577 C   0  0  0  0  0  0  0  0  0  0  0  0
   48.8642    6.0977   16.8918 C   0  0  0  0  0  0  0  0  0  0  0  0
   48.0068    5.0330   16.2071 C   0  0  0  0  0  0  0  0  0  0  0  0
   48.3976    6.2578   15.4453 C   0  0  0  0  0  0  0  0  0  0  0  0
   48.1909    6.9400   17.9530 C   0  0  0  0  0  0  0  0  0  0  0  0
   47.5741    6.3903   18.8547 O   0  0  0  0  0  0  0  0  0  0  0  0
   48.3735    8.2842   17.7632 N   0  0  0  0  0  0  0  0  0  0  0  0
   47.9146    9.3394   18.5471 C   0  0  0  0  0  0  0  0  0  0  0  0
   48.2794   10.5484   18.0746 N   0  0  0  0  0  0  0  0  0  0  0  0
   47.1642    9.1858   19.6986 C   0  0  0  0  0  0  0  0  0  0  0  0
   46.7661   10.3260   20.3924 C   0  0  0  0  0  0  0  0  0  0  0  0
   47.1208   11.5942   19.9237 C   0  0  0  0  0  0  0  0  0  0  0  0
   47.9007   11.6579   18.7631 C   0  0  0  0  0  0  0  0  0  0  0  0
   46.6798   12.8129   20.6796 C   0  0  0  0  0  0  0  0  0  0  0  0
   48.3804   12.9148   18.1683 C   0  0  0  0  0  0  0  0  0  0  0  0
   48.4197   14.4784   16.2951 C   0  0  0  0  0  0  0  0  0  0  0  0
   47.9714   13.2911   16.8773 C   0  0  0  0  0  0  0  0  0  0  0  0
   49.2733   13.7550   18.8552 C   0  0  0  0  0  0  0  0  0  0  0  0
   49.7263   14.9488   18.2762 C   0  0  0  0  0  0  0  0  0  0  0  0
   49.2940   15.3080   16.9948 C   0  0  0  0  0  0  0  0  0  0  0  0
   50.6635   15.8567   18.9802 C   0  0  0  0  0  0  0  0  0  0  0  0
   50.9765   15.4288   20.2160 O   0  0  0  0  0  0  0  0  0  0  0  0
   51.1233   16.8921   18.5353 O   0  0  0  0  0  0  0  0  0  0  0  0
   49.8864    4.1002   18.5060 H   0  0  0  0  0  0  0  0  0  0  0  0
   53.5276    6.7582   16.3613 H   0  0  0  0  0  0  0  0  0  0  0  0
   51.1538    7.3190   15.9067 H   0  0  0  0  0  0  0  0  0  0  0  0
   48.4666    4.0919   15.9267 H   0  0  0  0  0  0  0  0  0  0  0  0
   46.9735    4.9324   16.5235 H   0  0  0  0  0  0  0  0  0  0  0  0
   47.6159    6.9772   15.2253 H   0  0  0  0  0  0  0  0  0  0  0  0
   49.1141    6.1352   14.6408 H   0  0  0  0  0  0  0  0  0  0  0  0
   48.9198    8.5972   16.9741 H   0  0  0  0  0  0  0  0  0  0  0  0
   46.8765    8.2128   20.0779 H   0  0  0  0  0  0  0  0  0  0  0  0
   46.1739   10.2135   21.2979 H   0  0  0  0  0  0  0  0  0  0  0  0
   45.8479   12.5798   21.3534 H   0  0  0  0  0  0  0  0  0  0  0  0
   47.5039   13.2046   21.2835 H   0  0  0  0  0  0  0  0  0  0  0  0
   46.3234   13.5916   19.9976 H   0  0  0  0  0  0  0  0  0  0  0  0
   48.0901   14.7525   15.2960 H   0  0  0  0  0  0  0  0  0  0  0  0
   47.2952   12.6460   16.3179 H   0  0  0  0  0  0  0  0  0  0  0  0
   49.6250   13.4647   19.8434 H   0  0  0  0  0  0  0  0  0  0  0  0
   49.6422   16.2317   16.5361 H   0  0  0  0  0  0  0  0  0  0  0  0
   51.5941   16.1124   20.5512 H   0  0  0  0  0  0  0  0  0  0  0  0
  1  2  1  0
  1  5  1  0
  2  3  1  0
  3  4  1  0
  2  6  1  0
  2  7  1  0
  8  5  1  0
  5  4  2  0
  4  9  1  0
  8 11  2  0
  9 10  2  0
 10 11  1  0
 11 12  1  0
 12 13  1  0
 13 14  1  0
 14 12  1  0
 12 15  1  0
 15 16  2  0
 15 17  1  0
 17 18  1  0
 19 18  2  0
 18 20  1  0
 19 23  1  0
 20 21  2  0
 21 22  1  0
 22 23  2  0
 22 24  1  0
 23 25  1  0
 27 25  1  0
 25 28  2  0
 26 27  2  0
 26 30  1  0
 28 29  1  0
 29 30  2  0
 29 31  1  0
 31 32  1  0
 31 33  2  0
  8 34  1  0
  9 35  1  0
 10 36  1  0
 13 37  1  0
 13 38  1  0
 14 39  1  0
 14 40  1  0
 17 41  1  0
 20 42  1  0
 21 43  1  0
 24 44  1  0
 24 45  1  0
 24 46  1  0
 26 47  1  0
 27 48  1  0
 28 49  1  0
 30 50  1  0
 32 51  1  0
M  END
> <Uni-Dock RESULT> 
ENERGY=   -4.652  LOWER_BOUND=    5.546  UPPER_BOUND=    8.333
INTER + INTRA:          -4.652
INTER:                  -4.652
INTRA:                   0.000
UNBOUND:                 0.000

$$$$

     RDKit          3D

 51 55  0  0  0  0  0  0  0  0999 V2000
   44.3479    5.4790   12.1425 O   0  0  0  0  0  0  0  0  0  0  0  0
   43.2063    5.9453   11.4110 C   0  0  0  0  0  0  0  0  0  0  0  0
   43.1927    7.3551   11.1460 O   0  0  0  0  0  0  0  0  0  0  0  0
   44.3590    7.7173   11.7420 C   0  0  0  0  0  0  0  0  0  0  0  0
   45.0159    6.6515   12.3090 C   0  0  0  0  0  0  0  0  0  0  0  0
   43.1510    5.2842   10.2285 F   0  0  0  0  0  0  0  0  0  0  0  0
   42.0880    5.6284   12.1094 F   0  0  0  0  0  0  0  0  0  0  0  0
   46.2212    6.8058   12.9628 C   0  0  0  0  0  0  0  0  0  0  0  0
   44.8725    8.9923   11.7972 C   0  0  0  0  0  0  0  0  0  0  0  0
   46.0942    9.1722   12.4565 C   0  0  0  0  0  0  0  0  0  0  0  0
   46.7906    8.0912   13.0564 C   0  0  0  0  0  0  0  0  0  0  0  0
   48.1304    8.2981   13.7600 C   0  0  0  0  0  0  0  0  0  0  0  0
   48.1910    7.9676   15.2514 C   0  0  0  0  0  0  0  0  0  0  0  0
   48.2442    9.3963   14.8167 C   0  0  0  0  0  0  0  0  0  0  0  0
   49.3577    7.9739   12.9368 C   0  0  0  0  0  0  0  0  0  0  0  0
   49.8467    6.8549   13.0020 O   0  0  0  0  0  0  0  0  0  0  0  0
   49.7847    9.0300   12.1761 N   0  0  0  0  0  0  0  0  0  0  0  0
   50.8612    9.0828   11.2947 C   0  0  0  0  0  0  0  0  0  0  0  0
   51.0005   10.2846   10.6995 N   0  0  0  0  0  0  0  0  0  0  0  0
   51.7104    8.0220   11.0375 C   0  0  0  0  0  0  0  0  0  0  0  0
   52.7528    8.2063   10.1324 C   0  0  0  0  0  0  0  0  0  0  0  0
   52.9293    9.4430    9.5052 C   0  0  0  0  0  0  0  0  0  0  0  0
   52.0108   10.4555    9.8060 C   0  0  0  0  0  0  0  0  0  0  0  0
   54.0602    9.6271    8.5366 C   0  0  0  0  0  0  0  0  0  0  0  0
   52.0448   11.7962    9.2017 C   0  0  0  0  0  0  0  0  0  0  0  0
   52.2804   14.2126    9.4487 C   0  0  0  0  0  0  0  0  0  0  0  0
   52.2493   12.9318   10.0043 C   0  0  0  0  0  0  0  0  0  0  0  0
   51.8495   11.9819    7.8224 C   0  0  0  0  0  0  0  0  0  0  0  0
   51.8806   13.2653    7.2588 C   0  0  0  0  0  0  0  0  0  0  0  0
   52.0992   14.3791    8.0770 C   0  0  0  0  0  0  0  0  0  0  0  0
   51.6836   13.4899    5.8065 C   0  0  0  0  0  0  0  0  0  0  0  0
   51.5228   12.3462    5.1179 O   0  0  0  0  0  0  0  0  0  0  0  0
   51.6679   14.5710    5.2476 O   0  0  0  0  0  0  0  0  0  0  0  0
   46.7269    5.9452   13.3929 H   0  0  0  0  0  0  0  0  0  0  0  0
   44.3506    9.8283   11.3441 H   0  0  0  0  0  0  0  0  0  0  0  0
   46.5153   10.1751   12.5058 H   0  0  0  0  0  0  0  0  0  0  0  0
   47.2914    7.6205   15.7473 H   0  0  0  0  0  0  0  0  0  0  0  0
   49.0990    7.5126   15.6343 H   0  0  0  0  0  0  0  0  0  0  0  0
   49.1899    9.9158   14.9301 H   0  0  0  0  0  0  0  0  0  0  0  0
   47.3803   10.0144   15.0337 H   0  0  0  0  0  0  0  0  0  0  0  0
   49.2726    9.8993   12.2143 H   0  0  0  0  0  0  0  0  0  0  0  0
   51.5931    7.0563   11.5141 H   0  0  0  0  0  0  0  0  0  0  0  0
   53.4263    7.3773    9.9263 H   0  0  0  0  0  0  0  0  0  0  0  0
   54.8235    8.8524    8.6691 H   0  0  0  0  0  0  0  0  0  0  0  0
   53.6931    9.5669    7.5076 H   0  0  0  0  0  0  0  0  0  0  0  0
   54.5586   10.5895    8.6917 H   0  0  0  0  0  0  0  0  0  0  0  0
   52.4418   15.0781   10.0865 H   0  0  0  0  0  0  0  0  0  0  0  0
   52.3834   12.8142   11.0787 H   0  0  0  0  0  0  0  0  0  0  0  0
   51.6591   11.1170    7.1899 H   0  0  0  0  0  0  0  0  0  0  0  0
   52.1225   15.3796    7.6489 H   0  0  0  0  0  0  0  0  0  0  0  0
   51.4012   12.6453    4.1922 H   0  0  0  0  0  0  0  0  0  0  0  0
  1  2  1  0
  1  5  1  0
  2  3  1  0
  3  4  1  0
  2  6  1  0
  2  7  1  0
  8  5  1  0
  5  4  2  0
  4  9  1  0
  8 11  2  0
  9 10  2  0
 10 11  1  0
 11 12  1  0
 12 13  1  0
 13 14  1  0
 14 12  1  0
 12 15  1  0
 15 16  2  0
 15 17  1  0
 17 18  1  0
 19 18  2  0
 18 20  1  0
 19 23  1  0
 20 21  2  0
 21 22  1  0
 22 23  2  0
 22 24  1  0
 23 25  1  0
 27 25  1  0
 25 28  2  0
 26 27  2  0
 26 30  1  0
 28 29  1  0
 29 30  2  0
 29 31  1  0
 31 32  1  0
 31 33  2  0
  8 34  1  0
  9 35  1  0
 10 36  1  0
 13 37  1  0
 13 38  1  0
 14 39  1  0
 14 40  1  0
 17 41  1  0
 20 42  1  0
 21 43  1  0
 24 44  1  0
 24 45  1  0
 24 46  1  0
 26 47  1  0
 27 48  1  0
 28 49  1  0
 30 50  1  0
 32 51  1  0
M  END
> <Uni-Dock RESULT> 
ENERGY=   -4.639  LOWER_BOUND=    4.887  UPPER_BOUND=   10.146
INTER + INTRA:          -4.639
INTER:                  -4.639
INTRA:                   0.000
UNBOUND:                 0.000

$$$$

     RDKit          3D

 51 55  0  0  0  0  0  0  0  0999 V2000
   51.8387    7.5228   10.1529 O   0  0  0  0  0  0  0  0  0  0  0  0
   53.0633    8.2407   10.3557 C   0  0  0  0  0  0  0  0  0  0  0  0
   53.1054    9.0400   11.5461 O   0  0  0  0  0  0  0  0  0  0  0  0
   51.8695    8.7796   12.0476 C   0  0  0  0  0  0  0  0  0  0  0  0
   51.1489    7.9177   11.2561 C   0  0  0  0  0  0  0  0  0  0  0  0
   54.0846    7.3499   10.3985 F   0  0  0  0  0  0  0  0  0  0  0  0
   53.2707    9.0495    9.2872 F   0  0  0  0  0  0  0  0  0  0  0  0
   49.8692    7.5236   11.5893 C   0  0  0  0  0  0  0  0  0  0  0  0
   51.3501    9.2917   13.2139 C   0  0  0  0  0  0  0  0  0  0  0  0
   50.0527    8.9060   13.5712 C   0  0  0  0  0  0  0  0  0  0  0  0
   49.2838    8.0229   12.7697 C   0  0  0  0  0  0  0  0  0  0  0  0
   47.8748    7.5978   13.1781 C   0  0  0  0  0  0  0  0  0  0  0  0
   46.7325    7.9811   12.2371 C   0  0  0  0  0  0  0  0  0  0  0  0
   46.8604    8.6777   13.5529 C   0  0  0  0  0  0  0  0  0  0  0  0
   47.7715    6.2555   13.8684 C   0  0  0  0  0  0  0  0  0  0  0  0
   47.5480    5.2535   13.2038 O   0  0  0  0  0  0  0  0  0  0  0  0
   47.9587    6.3359   15.2230 N   0  0  0  0  0  0  0  0  0  0  0  0
   47.9497    5.3067   16.1607 C   0  0  0  0  0  0  0  0  0  0  0  0
   48.1738    5.7348   17.4195 N   0  0  0  0  0  0  0  0  0  0  0  0
   47.7394    3.9747   15.8539 C   0  0  0  0  0  0  0  0  0  0  0  0
   47.7544    3.0416   16.8878 C   0  0  0  0  0  0  0  0  0  0  0  0
   47.9753    3.4546   18.2048 C   0  0  0  0  0  0  0  0  0  0  0  0
   48.2017    4.8185   18.4236 C   0  0  0  0  0  0  0  0  0  0  0  0
   47.9832    2.4378   19.3081 C   0  0  0  0  0  0  0  0  0  0  0  0
   48.4824    5.3990   19.7457 C   0  0  0  0  0  0  0  0  0  0  0  0
   47.8536    6.9015   21.5629 C   0  0  0  0  0  0  0  0  0  0  0  0
   47.6013    6.3370   20.3110 C   0  0  0  0  0  0  0  0  0  0  0  0
   49.6410    5.0567   20.4637 C   0  0  0  0  0  0  0  0  0  0  0  0
   49.8992    5.6196   21.7216 C   0  0  0  0  0  0  0  0  0  0  0  0
   48.9998    6.5412   22.2690 C   0  0  0  0  0  0  0  0  0  0  0  0
   51.1102    5.2723   22.5035 C   0  0  0  0  0  0  0  0  0  0  0  0
   51.8773    4.3496   21.8965 O   0  0  0  0  0  0  0  0  0  0  0  0
   51.4186    5.7375   23.5851 O   0  0  0  0  0  0  0  0  0  0  0  0
   49.3242    6.8317   10.9525 H   0  0  0  0  0  0  0  0  0  0  0  0
   51.9260    9.9684   13.8360 H   0  0  0  0  0  0  0  0  0  0  0  0
   49.6288    9.3001   14.4934 H   0  0  0  0  0  0  0  0  0  0  0  0
   46.9610    8.5447   11.3394 H   0  0  0  0  0  0  0  0  0  0  0  0
   45.9212    7.2717   12.1078 H   0  0  0  0  0  0  0  0  0  0  0  0
   46.1148    8.4541   14.3087 H   0  0  0  0  0  0  0  0  0  0  0  0
   47.1642    9.7185   13.5369 H   0  0  0  0  0  0  0  0  0  0  0  0
   48.1476    7.2364   15.6383 H   0  0  0  0  0  0  0  0  0  0  0  0
   47.5640    3.6336   14.8408 H   0  0  0  0  0  0  0  0  0  0  0  0
   47.5877    1.9923   16.6548 H   0  0  0  0  0  0  0  0  0  0  0  0
   47.4936    1.5097   18.9929 H   0  0  0  0  0  0  0  0  0  0  0  0
   49.0110    2.1966   19.5955 H   0  0  0  0  0  0  0  0  0  0  0  0
   47.4343    2.8016   20.1826 H   0  0  0  0  0  0  0  0  0  0  0  0
   47.1586    7.6239   21.9837 H   0  0  0  0  0  0  0  0  0  0  0  0
   46.7069    6.6324   19.7642 H   0  0  0  0  0  0  0  0  0  0  0  0
   50.3502    4.3554   20.0282 H   0  0  0  0  0  0  0  0  0  0  0  0
   49.1931    6.9853   23.2437 H   0  0  0  0  0  0  0  0  0  0  0  0
   52.6279    4.2256   22.5148 H   0  0  0  0  0  0  0  0  0  0  0  0
  1  2  1  0
  1  5  1  0
  2  3  1  0
  3  4  1  0
  2  6  1  0
  2  7  1  0
  8  5  1  0
  5  4  2  0
  4  9  1  0
  8 11  2  0
  9 10  2  0
 10 11  1  0
 11 12  1  0
 12 13  1  0
 13 14  1  0
 14 12  1  0
 12 15  1  0
 15 16  2  0
 15 17  1  0
 17 18  1  0
 19 18  2  0
 18 20  1  0
 19 23  1  0
 20 21  2  0
 21 22  1  0
 22 23  2  0
 22 24  1  0
 23 25  1  0
 27 25  1  0
 25 28  2  0
 26 27  2  0
 26 30  1  0
 28 29  1  0
 29 30  2  0
 29 31  1  0
 31 32  1  0
 31 33  2  0
  8 34  1  0
  9 35  1  0
 10 36  1  0
 13 37  1  0
 13 38  1  0
 14 39  1  0
 14 40  1  0
 17 41  1  0
 20 42  1  0
 21 43  1  0
 24 44  1  0
 24 45  1  0
 24 46  1  0
 26 47  1  0
 27 48  1  0
 28 49  1  0
 30 50  1  0
 32 51  1  0
M  END
> <Uni-Dock RESULT> 
ENERGY=   -4.455  LOWER_BOUND=    4.034  UPPER_BOUND=    5.840
INTER + INTRA:          -4.455
INTER:                  -4.455
INTRA:                   0.000
UNBOUND:                 0.000

$$$$

     RDKit          3D

 51 55  0  0  0  0  0  0  0  0999 V2000
   52.0489    7.7562   10.5883 O   0  0  0  0  0  0  0  0  0  0  0  0
   52.7672    8.9057   10.1206 C   0  0  0  0  0  0  0  0  0  0  0  0
   52.2039   10.1679   10.5046 O   0  0  0  0  0  0  0  0  0  0  0  0
   51.1273    9.7385   11.2142 C   0  0  0  0  0  0  0  0  0  0  0  0
   51.0385    8.3679   11.2618 C   0  0  0  0  0  0  0  0  0  0  0  0
   54.0382    8.8410   10.5882 F   0  0  0  0  0  0  0  0  0  0  0  0
   52.8264    8.8554    8.7668 F   0  0  0  0  0  0  0  0  0  0  0  0
   50.0173    7.7293   11.9352 C   0  0  0  0  0  0  0  0  0  0  0  0
   50.2019   10.5427   11.8379 C   0  0  0  0  0  0  0  0  0  0  0  0
   49.1566    9.9161   12.5266 C   0  0  0  0  0  0  0  0  0  0  0  0
   49.0366    8.5034   12.5865 C   0  0  0  0  0  0  0  0  0  0  0  0
   47.8996    7.8316   13.3538 C   0  0  0  0  0  0  0  0  0  0  0  0
   46.9340    6.9632   12.5471 C   0  0  0  0  0  0  0  0  0  0  0  0
   46.4637    8.2775   13.0804 C   0  0  0  0  0  0  0  0  0  0  0  0
   48.2433    7.3580   14.7490 C   0  0  0  0  0  0  0  0  0  0  0  0
   48.6232    6.2077   14.9167 O   0  0  0  0  0  0  0  0  0  0  0  0
   48.0834    8.3325   15.6982 N   0  0  0  0  0  0  0  0  0  0  0  0
   48.3212    8.2543   17.0679 C   0  0  0  0  0  0  0  0  0  0  0  0
   48.0635    9.4075   17.7172 N   0  0  0  0  0  0  0  0  0  0  0  0
   48.7793    7.1217   17.7158 C   0  0  0  0  0  0  0  0  0  0  0  0
   48.9760    7.1749   19.0936 C   0  0  0  0  0  0  0  0  0  0  0  0
   48.7096    8.3531   19.7971 C   0  0  0  0  0  0  0  0  0  0  0  0
   48.2706    9.4591   19.0600 C   0  0  0  0  0  0  0  0  0  0  0  0
   48.9215    8.3927   21.2819 C   0  0  0  0  0  0  0  0  0  0  0  0
   47.9829   10.7744   19.6522 C   0  0  0  0  0  0  0  0  0  0  0  0
   46.3938   12.5586   20.1493 C   0  0  0  0  0  0  0  0  0  0  0  0
   46.6845   11.3098   19.5962 C   0  0  0  0  0  0  0  0  0  0  0  0
   48.9926   11.5387   20.2618 C   0  0  0  0  0  0  0  0  0  0  0  0
   48.7066   12.7928   20.8196 C   0  0  0  0  0  0  0  0  0  0  0  0
   47.4031   13.2982   20.7630 C   0  0  0  0  0  0  0  0  0  0  0  0
   49.7507   13.6176   21.4738 C   0  0  0  0  0  0  0  0  0  0  0  0
   50.9516   13.0133   21.5035 O   0  0  0  0  0  0  0  0  0  0  0  0
   49.5886   14.7241   21.9541 O   0  0  0  0  0  0  0  0  0  0  0  0
   49.9755    6.6437   11.9680 H   0  0  0  0  0  0  0  0  0  0  0  0
   50.2805   11.6238   11.7996 H   0  0  0  0  0  0  0  0  0  0  0  0
   48.4179   10.5390   13.0284 H   0  0  0  0  0  0  0  0  0  0  0  0
   47.0816    6.8726   11.4766 H   0  0  0  0  0  0  0  0  0  0  0  0
   46.5584    6.0564   13.0103 H   0  0  0  0  0  0  0  0  0  0  0  0
   45.7463    8.2561   13.8940 H   0  0  0  0  0  0  0  0  0  0  0  0
   46.2824    9.0693   12.3621 H   0  0  0  0  0  0  0  0  0  0  0  0
   47.7702    9.2484   15.4114 H   0  0  0  0  0  0  0  0  0  0  0  0
   48.9896    6.1980   17.1904 H   0  0  0  0  0  0  0  0  0  0  0  0
   49.3342    6.2875   19.6108 H   0  0  0  0  0  0  0  0  0  0  0  0
   48.9620    7.3817   21.7019 H   0  0  0  0  0  0  0  0  0  0  0  0
   49.8648    8.8945   21.5180 H   0  0  0  0  0  0  0  0  0  0  0  0
   48.0967    8.9090   21.7836 H   0  0  0  0  0  0  0  0  0  0  0  0
   45.3826   12.9543   20.0973 H   0  0  0  0  0  0  0  0  0  0  0  0
   45.8899   10.7443   19.1114 H   0  0  0  0  0  0  0  0  0  0  0  0
   50.0103   11.1539   20.2872 H   0  0  0  0  0  0  0  0  0  0  0  0
   47.1721   14.2719   21.1911 H   0  0  0  0  0  0  0  0  0  0  0  0
   51.5307   13.6650   21.9518 H   0  0  0  0  0  0  0  0  0  0  0  0
  1  2  1  0
  1  5  1  0
  2  3  1  0
  3  4  1  0
  2  6  1  0
  2  7  1  0
  8  5  1  0
  5  4  2  0
  4  9  1  0
  8 11  2  0
  9 10  2  0
 10 11  1  0
 11 12  1  0
 12 13  1  0
 13 14  1  0
 14 12  1  0
 12 15  1  0
 15 16  2  0
 15 17  1  0
 17 18  1  0
 19 18  2  0
 18 20  1  0
 19 23  1  0
 20 21  2  0
 21 22  1  0
 22 23  2  0
 22 24  1  0
 23 25  1  0
 27 25  1  0
 25 28  2  0
 26 27  2  0
 26 30  1  0
 28 29  1  0
 29 30  2  0
 29 31  1  0
 31 32  1  0
 31 33  2  0
  8 34  1  0
  9 35  1  0
 10 36  1  0
 13 37  1  0
 13 38  1  0
 14 39  1  0
 14 40  1  0
 17 41  1  0
 20 42  1  0
 21 43  1  0
 24 44  1  0
 24 45  1  0
 24 46  1  0
 26 47  1  0
 27 48  1  0
 28 49  1  0
 30 50  1  0
 32 51  1  0
M  END
> <Uni-Dock RESULT> 
ENERGY=   -4.404  LOWER_BOUND=    4.240  UPPER_BOUND=    6.334
INTER + INTRA:          -4.404
INTER:                  -4.404
INTRA:                   0.000
UNBOUND:                 0.000

$$$$

     RDKit          3D

 51 55  0  0  0  0  0  0  0  0999 V2000
   53.9579    8.6258    7.6266 O   0  0  0  0  0  0  0  0  0  0  0  0
   53.4405    7.6179    6.7476 C   0  0  0  0  0  0  0  0  0  0  0  0
   53.3174    6.3129    7.3304 O   0  0  0  0  0  0  0  0  0  0  0  0
   53.7777    6.5706    8.5828 C   0  0  0  0  0  0  0  0  0  0  0  0
   54.1423    7.8849    8.7517 C   0  0  0  0  0  0  0  0  0  0  0  0
   52.2190    8.0114    6.3102 F   0  0  0  0  0  0  0  0  0  0  0  0
   54.2537    7.5306    5.6660 F   0  0  0  0  0  0  0  0  0  0  0  0
   54.6341    8.3536    9.9527 C   0  0  0  0  0  0  0  0  0  0  0  0
   53.8838    5.6564    9.6051 C   0  0  0  0  0  0  0  0  0  0  0  0
   54.3812    6.1098   10.8326 C   0  0  0  0  0  0  0  0  0  0  0  0
   54.7713    7.4593   11.0329 C   0  0  0  0  0  0  0  0  0  0  0  0
   55.2986    7.9451   12.3816 C   0  0  0  0  0  0  0  0  0  0  0  0
   56.7282    8.4858   12.4155 C   0  0  0  0  0  0  0  0  0  0  0  0
   56.4302    7.1672   13.0522 C   0  0  0  0  0  0  0  0  0  0  0  0
   54.2854    8.6333   13.2698 C   0  0  0  0  0  0  0  0  0  0  0  0
   54.1737    9.8503   13.2232 O   0  0  0  0  0  0  0  0  0  0  0  0
   53.5783    7.7580   14.0509 N   0  0  0  0  0  0  0  0  0  0  0  0
   52.5651    8.0369   14.9643 C   0  0  0  0  0  0  0  0  0  0  0  0
   52.0752    6.9339   15.5653 N   0  0  0  0  0  0  0  0  0  0  0  0
   52.0913    9.3068   15.2388 C   0  0  0  0  0  0  0  0  0  0  0  0
   51.0721    9.4500   16.1772 C   0  0  0  0  0  0  0  0  0  0  0  0
   50.5488    8.3269   16.8242 C   0  0  0  0  0  0  0  0  0  0  0  0
   51.0706    7.0772   16.4702 C   0  0  0  0  0  0  0  0  0  0  0  0
   49.4548    8.4985   17.8366 C   0  0  0  0  0  0  0  0  0  0  0  0
   50.5997    5.8042   17.0371 C   0  0  0  0  0  0  0  0  0  0  0  0
   51.0436    3.7803   18.3263 C   0  0  0  0  0  0  0  0  0  0  0  0
   51.4719    4.9937   17.7841 C   0  0  0  0  0  0  0  0  0  0  0  0
   49.2853    5.3524   16.8286 C   0  0  0  0  0  0  0  0  0  0  0  0
   48.8494    4.1354   17.3711 C   0  0  0  0  0  0  0  0  0  0  0  0
   49.7329    3.3527   18.1226 C   0  0  0  0  0  0  0  0  0  0  0  0
   47.4671    3.6374   17.1721 C   0  0  0  0  0  0  0  0  0  0  0  0
   46.7003    4.4903   16.4701 O   0  0  0  0  0  0  0  0  0  0  0  0
   47.0228    2.5820   17.5846 O   0  0  0  0  0  0  0  0  0  0  0  0
   54.9047    9.4003   10.0646 H   0  0  0  0  0  0  0  0  0  0  0  0
   53.5903    4.6214    9.4661 H   0  0  0  0  0  0  0  0  0  0  0  0
   54.4680    5.3989   11.6527 H   0  0  0  0  0  0  0  0  0  0  0  0
   57.3084    8.4882   11.4995 H   0  0  0  0  0  0  0  0  0  0  0  0
   56.9355    9.3333   13.0612 H   0  0  0  0  0  0  0  0  0  0  0  0
   56.4607    7.1198   14.1357 H   0  0  0  0  0  0  0  0  0  0  0  0
   56.8238    6.2808   12.5674 H   0  0  0  0  0  0  0  0  0  0  0  0
   53.7710    6.7698   13.9761 H   0  0  0  0  0  0  0  0  0  0  0  0
   52.4841   10.1905   14.7508 H   0  0  0  0  0  0  0  0  0  0  0  0
   50.6954   10.4458   16.4001 H   0  0  0  0  0  0  0  0  0  0  0  0
   49.4046    9.5337   18.1918 H   0  0  0  0  0  0  0  0  0  0  0  0
   48.4858    8.2455   17.3957 H   0  0  0  0  0  0  0  0  0  0  0  0
   49.6313    7.8721   18.7169 H   0  0  0  0  0  0  0  0  0  0  0  0
   51.7333    3.1687   18.9028 H   0  0  0  0  0  0  0  0  0  0  0  0
   52.5008    5.3139   17.9422 H   0  0  0  0  0  0  0  0  0  0  0  0
   48.6049    5.9519   16.2268 H   0  0  0  0  0  0  0  0  0  0  0  0
   49.4043    2.4052   18.5456 H   0  0  0  0  0  0  0  0  0  0  0  0
   45.8338    4.0352   16.4150 H   0  0  0  0  0  0  0  0  0  0  0  0
  1  2  1  0
  1  5  1  0
  2  3  1  0
  3  4  1  0
  2  6  1  0
  2  7  1  0
  8  5  1  0
  5  4  2  0
  4  9  1  0
  8 11  2  0
  9 10  2  0
 10 11  1  0
 11 12  1  0
 12 13  1  0
 13 14  1  0
 14 12  1  0
 12 15  1  0
 15 16  2  0
 15 17  1  0
 17 18  1  0
 19 18  2  0
 18 20  1  0
 19 23  1  0
 20 21  2  0
 21 22  1  0
 22 23  2  0
 22 24  1  0
 23 25  1  0
 27 25  1  0
 25 28  2  0
 26 27  2  0
 26 30  1  0
 28 29  1  0
 29 30  2  0
 29 31  1  0
 31 32  1  0
 31 33  2  0
  8 34  1  0
  9 35  1  0
 10 36  1  0
 13 37  1  0
 13 38  1  0
 14 39  1  0
 14 40  1  0
 17 41  1  0
 20 42  1  0
 21 43  1  0
 24 44  1  0
 24 45  1  0
 24 46  1  0
 26 47  1  0
 27 48  1  0
 28 49  1  0
 30 50  1  0
 32 51  1  0
M  END
> <Uni-Dock RESULT> 
ENERGY=   -4.338  LOWER_BOUND=    5.931  UPPER_BOUND=    7.373
INTER + INTRA:          -4.338
INTER:                  -4.338
INTRA:                   0.000
UNBOUND:                 0.000

$$$$
