
     RDKit          3D

 45 48  0  0  0  0  0  0  0  0999 V2000
   -2.5019   -2.0511    1.4982 O   0  0  0  0  0  0  0  0  0  0  0  0
    0.4267   -2.1806    0.6312 O   0  0  0  0  0  0  0  0  0  0  0  0
   -4.8779   -3.1548   -1.5783 O   0  0  0  0  0  0  0  0  0  0  0  0
    4.3569   -2.6632   -0.1677 O   0  0  0  0  0  0  0  0  0  0  0  0
   -3.2932   -4.1883   -0.2855 O   0  0  0  0  0  0  0  0  0  0  0  0
    2.4004   -2.9766   -1.3185 O   0  0  0  0  0  0  0  0  0  0  0  0
   -1.5975   -0.1712    0.2625 C   0  0  0  0  0  0  0  0  0  0  0  0
    0.7202    0.1413    1.2612 C   0  0  0  0  0  0  0  0  0  0  0  0
   -1.5819    0.6273   -0.9162 C   0  0  0  0  0  0  0  0  0  0  0  0
    1.6123    1.2063    1.5971 C   0  0  0  0  0  0  0  0  0  0  0  0
   -2.3932   -1.3439    0.2957 C   0  0  0  0  0  0  0  0  0  0  0  0
    1.2564   -1.0592    0.7292 C   0  0  0  0  0  0  0  0  0  0  0  0
   -0.7900    0.2205    1.4978 C   0  0  0  0  0  0  0  0  0  0  0  0
   -2.3153    0.2057   -2.0544 C   0  0  0  0  0  0  0  0  0  0  0  0
    2.9836    1.0988    1.2401 C   0  0  0  0  0  0  0  0  0  0  0  0
   -3.0838   -1.7715   -0.8616 C   0  0  0  0  0  0  0  0  0  0  0  0
    2.6133   -1.1313    0.3450 C   0  0  0  0  0  0  0  0  0  0  0  0
   -3.0483   -0.9827   -2.0166 C   0  0  0  0  0  0  0  0  0  0  0  0
    3.4594   -0.0505    0.6058 C   0  0  0  0  0  0  0  0  0  0  0  0
   -0.8683    1.8455   -0.9935 C   0  0  0  0  0  0  0  0  0  0  0  0
    1.2007    2.3698    2.2941 C   0  0  0  0  0  0  0  0  0  0  0  0
   -3.8105   -3.0591   -0.9141 C   0  0  0  0  0  0  0  0  0  0  0  0
    3.1663   -2.3020   -0.3717 C   0  0  0  0  0  0  0  0  0  0  0  0
   -2.3019    0.9760   -3.2293 C   0  0  0  0  0  0  0  0  0  0  0  0
    3.8761    2.1469    1.5208 C   0  0  0  0  0  0  0  0  0  0  0  0
   -0.8663    2.6006   -2.1681 C   0  0  0  0  0  0  0  0  0  0  0  0
    2.1039    3.3989    2.5702 C   0  0  0  0  0  0  0  0  0  0  0  0
   -1.5778    2.1659   -3.2838 C   0  0  0  0  0  0  0  0  0  0  0  0
    3.4342    3.2926    2.1770 C   0  0  0  0  0  0  0  0  0  0  0  0
   -3.1835   -2.7800    1.6595 H   0  0  0  0  0  0  0  0  0  0  0  0
    0.7665   -3.1146    0.4463 H   0  0  0  0  0  0  0  0  0  0  0  0
   -3.7757   -5.0777   -0.3341 H   0  0  0  0  0  0  0  0  0  0  0  0
    2.7788   -3.7672   -1.8264 H   0  0  0  0  0  0  0  0  0  0  0  0
   -1.0211   -0.4186    2.3742 H   0  0  0  0  0  0  0  0  0  0  0  0
   -1.1506    1.2226    1.7795 H   0  0  0  0  0  0  0  0  0  0  0  0
   -3.5812   -1.3091   -2.9035 H   0  0  0  0  0  0  0  0  0  0  0  0
    4.5021   -0.1053    0.3111 H   0  0  0  0  0  0  0  0  0  0  0  0
   -0.3173    2.2379   -0.1540 H   0  0  0  0  0  0  0  0  0  0  0  0
    0.2006    2.5067    2.6673 H   0  0  0  0  0  0  0  0  0  0  0  0
   -2.8539    0.6581   -4.1061 H   0  0  0  0  0  0  0  0  0  0  0  0
    4.9202    2.0761    1.2389 H   0  0  0  0  0  0  0  0  0  0  0  0
   -0.3129    3.5300   -2.2111 H   0  0  0  0  0  0  0  0  0  0  0  0
    1.7701    4.2817    3.1007 H   0  0  0  0  0  0  0  0  0  0  0  0
   -1.5730    2.7554   -4.1916 H   0  0  0  0  0  0  0  0  0  0  0  0
    4.1285    4.0940    2.3944 H   0  0  0  0  0  0  0  0  0  0  0  0
  1 11  1  0
  2 12  1  0
  3 22  2  0
  4 23  2  0
  5 22  1  0
  6 23  1  0
  7  9  1  0
  7 11  2  0
  7 13  1  0
  8 10  1  0
  8 12  2  0
  8 13  1  0
  9 14  2  0
  9 20  1  0
 10 15  2  0
 10 21  1  0
 11 16  1  0
 12 17  1  0
 14 18  1  0
 14 24  1  0
 15 19  1  0
 15 25  1  0
 16 18  2  0
 16 22  1  0
 17 19  2  0
 17 23  1  0
 20 26  2  0
 21 27  2  0
 24 28  2  0
 25 29  2  0
 26 28  1  0
 27 29  1  0
  1 30  1  0
  2 31  1  0
  5 32  1  0
  6 33  1  0
 13 34  1  0
 13 35  1  0
 18 36  1  0
 19 37  1  0
 20 38  1  0
 21 39  1  0
 24 40  1  0
 25 41  1  0
 26 42  1  0
 27 43  1  0
 28 44  1  0
 29 45  1  0
M  END
$$$$
