
     RDKit          3D

 45 48  0  0  0  0  0  0  0  0999 V2000
   -0.5762    2.2453    0.1005 O   0  0  0  0  0  0  0  0  0  0  0  0
    1.4755    2.2993    2.3662 O   0  0  0  0  0  0  0  0  0  0  0  0
   -3.4987    2.5314   -2.6733 O   0  0  0  0  0  0  0  0  0  0  0  0
    5.1563    2.9877    0.8474 O   0  0  0  0  0  0  0  0  0  0  0  0
   -1.2143    2.7108   -2.6755 O   0  0  0  0  0  0  0  0  0  0  0  0
    3.1969    4.1683    0.9809 O   0  0  0  0  0  0  0  0  0  0  0  0
   -1.2891    0.0349    0.7934 C   0  0  0  0  0  0  0  0  0  0  0  0
    1.2259    0.2425    1.1067 C   0  0  0  0  0  0  0  0  0  0  0  0
   -2.2883   -0.9865    0.7588 C   0  0  0  0  0  0  0  0  0  0  0  0
    1.7714   -0.7194    0.2100 C   0  0  0  0  0  0  0  0  0  0  0  0
   -1.4029    1.1345   -0.0951 C   0  0  0  0  0  0  0  0  0  0  0  0
    1.9591    1.4224    1.3888 C   0  0  0  0  0  0  0  0  0  0  0  0
   -0.1236    0.0198    1.7854 C   0  0  0  0  0  0  0  0  0  0  0  0
   -3.2714   -0.9583   -0.2669 C   0  0  0  0  0  0  0  0  0  0  0  0
    3.0094   -0.4544   -0.4291 C   0  0  0  0  0  0  0  0  0  0  0  0
   -2.3618    1.1241   -1.1317 C   0  0  0  0  0  0  0  0  0  0  0  0
    3.1707    1.6898    0.7107 C   0  0  0  0  0  0  0  0  0  0  0  0
   -3.2839    0.0770   -1.2038 C   0  0  0  0  0  0  0  0  0  0  0  0
    3.6877    0.7405   -0.1776 C   0  0  0  0  0  0  0  0  0  0  0  0
   -2.3639   -2.0279    1.7174 C   0  0  0  0  0  0  0  0  0  0  0  0
    1.1285   -1.9492   -0.0608 C   0  0  0  0  0  0  0  0  0  0  0  0
   -2.3967    2.1670   -2.1811 C   0  0  0  0  0  0  0  0  0  0  0  0
    3.8958    2.9696    0.8692 C   0  0  0  0  0  0  0  0  0  0  0  0
   -4.2416   -1.9711   -0.3506 C   0  0  0  0  0  0  0  0  0  0  0  0
    3.5567   -1.3879   -1.3252 C   0  0  0  0  0  0  0  0  0  0  0  0
   -3.3397   -3.0227    1.6217 C   0  0  0  0  0  0  0  0  0  0  0  0
    1.6861   -2.8674   -0.9529 C   0  0  0  0  0  0  0  0  0  0  0  0
   -4.2692   -3.0002    0.5867 C   0  0  0  0  0  0  0  0  0  0  0  0
    2.8946   -2.5865   -1.5860 C   0  0  0  0  0  0  0  0  0  0  0  0
   -0.7162    3.1357   -0.3573 H   0  0  0  0  0  0  0  0  0  0  0  0
    2.0189    3.0567    2.7571 H   0  0  0  0  0  0  0  0  0  0  0  0
   -1.2299    3.4115   -3.4069 H   0  0  0  0  0  0  0  0  0  0  0  0
    3.6874    5.0502    1.0698 H   0  0  0  0  0  0  0  0  0  0  0  0
   -0.3388    0.7841    2.5597 H   0  0  0  0  0  0  0  0  0  0  0  0
   -0.0195   -0.9236    2.3449 H   0  0  0  0  0  0  0  0  0  0  0  0
   -4.0211    0.0683   -1.9998 H   0  0  0  0  0  0  0  0  0  0  0  0
    4.6191    0.9442   -0.6952 H   0  0  0  0  0  0  0  0  0  0  0  0
   -1.7084   -2.0899    2.5687 H   0  0  0  0  0  0  0  0  0  0  0  0
    0.2019   -2.2255    0.4163 H   0  0  0  0  0  0  0  0  0  0  0  0
   -4.9856   -1.9620   -1.1386 H   0  0  0  0  0  0  0  0  0  0  0  0
    4.4988   -1.1908   -1.8232 H   0  0  0  0  0  0  0  0  0  0  0  0
   -3.3794   -3.8122    2.3615 H   0  0  0  0  0  0  0  0  0  0  0  0
    1.1796   -3.8034   -1.1507 H   0  0  0  0  0  0  0  0  0  0  0  0
   -5.0225   -3.7745    0.5190 H   0  0  0  0  0  0  0  0  0  0  0  0
    3.3224   -3.3020   -2.2763 H   0  0  0  0  0  0  0  0  0  0  0  0
  1 11  1  0
  2 12  1  0
  3 22  2  0
  4 23  2  0
  5 22  1  0
  6 23  1  0
  7  9  1  0
  7 11  2  0
  7 13  1  0
  8 10  1  0
  8 12  2  0
  8 13  1  0
  9 14  2  0
  9 20  1  0
 10 15  2  0
 10 21  1  0
 11 16  1  0
 12 17  1  0
 14 18  1  0
 14 24  1  0
 15 19  1  0
 15 25  1  0
 16 18  2  0
 16 22  1  0
 17 19  2  0
 17 23  1  0
 20 26  2  0
 21 27  2  0
 24 28  2  0
 25 29  2  0
 26 28  1  0
 27 29  1  0
  1 30  1  0
  2 31  1  0
  5 32  1  0
  6 33  1  0
 13 34  1  0
 13 35  1  0
 18 36  1  0
 19 37  1  0
 20 38  1  0
 21 39  1  0
 24 40  1  0
 25 41  1  0
 26 42  1  0
 27 43  1  0
 28 44  1  0
 29 45  1  0
M  END
$$$$
