
     RDKit          3D

 45 48  0  0  0  0  0  0  0  0999 V2000
    0.9866   -2.1131    0.2982 O   0  0  0  0  0  0  0  0  0  0  0  0
   -1.2133   -2.4149    2.4006 O   0  0  0  0  0  0  0  0  0  0  0  0
    2.0738   -2.5778   -2.3093 O   0  0  0  0  0  0  0  0  0  0  0  0
   -2.5272   -4.5827    1.0573 O   0  0  0  0  0  0  0  0  0  0  0  0
    4.2862   -1.9841   -2.2716 O   0  0  0  0  0  0  0  0  0  0  0  0
   -4.6810   -3.9384    0.6152 O   0  0  0  0  0  0  0  0  0  0  0  0
    1.1984    0.2363    0.8520 C   0  0  0  0  0  0  0  0  0  0  0  0
   -1.2487   -0.4431    0.9911 C   0  0  0  0  0  0  0  0  0  0  0  0
    1.9824    1.4304    0.8070 C   0  0  0  0  0  0  0  0  0  0  0  0
   -1.8843    0.3279   -0.0230 C   0  0  0  0  0  0  0  0  0  0  0  0
    1.6010   -0.8774    0.0713 C   0  0  0  0  0  0  0  0  0  0  0  0
   -1.7662   -1.7219    1.3178 C   0  0  0  0  0  0  0  0  0  0  0  0
   -0.0338    0.0884    1.7482 C   0  0  0  0  0  0  0  0  0  0  0  0
    3.0419    1.5274   -0.1350 C   0  0  0  0  0  0  0  0  0  0  0  0
   -2.9862   -0.2194   -0.7281 C   0  0  0  0  0  0  0  0  0  0  0  0
    2.6312   -0.7476   -0.8875 C   0  0  0  0  0  0  0  0  0  0  0  0
   -2.8391   -2.2694    0.5749 C   0  0  0  0  0  0  0  0  0  0  0  0
    3.3379    0.4535   -0.9769 C   0  0  0  0  0  0  0  0  0  0  0  0
   -3.4446   -1.5039   -0.4267 C   0  0  0  0  0  0  0  0  0  0  0  0
    1.7697    2.5292    1.6768 C   0  0  0  0  0  0  0  0  0  0  0  0
   -1.4658    1.6386   -0.3489 C   0  0  0  0  0  0  0  0  0  0  0  0
    2.9718   -1.8286   -1.8395 C   0  0  0  0  0  0  0  0  0  0  0  0
   -3.3294   -3.6498    0.7842 C   0  0  0  0  0  0  0  0  0  0  0  0
    3.8037    2.7040   -0.2303 C   0  0  0  0  0  0  0  0  0  0  0  0
   -3.6183    0.5236   -1.7393 C   0  0  0  0  0  0  0  0  0  0  0  0
    2.5415    3.6885    1.5716 C   0  0  0  0  0  0  0  0  0  0  0  0
   -2.1054    2.3648   -1.3556 C   0  0  0  0  0  0  0  0  0  0  0  0
    3.5484    3.7798    0.6158 C   0  0  0  0  0  0  0  0  0  0  0  0
   -3.1760    1.8082   -2.0512 C   0  0  0  0  0  0  0  0  0  0  0  0
    1.3326   -2.9889   -0.0692 H   0  0  0  0  0  0  0  0  0  0  0  0
   -1.6326   -3.2356    2.8157 H   0  0  0  0  0  0  0  0  0  0  0  0
    4.5324   -2.7049   -2.9395 H   0  0  0  0  0  0  0  0  0  0  0  0
   -5.0299   -4.8823    0.7323 H   0  0  0  0  0  0  0  0  0  0  0  0
   -0.3670    1.0287    2.2157 H   0  0  0  0  0  0  0  0  0  0  0  0
    0.2529   -0.5627    2.5988 H   0  0  0  0  0  0  0  0  0  0  0  0
    4.1297    0.5541   -1.7117 H   0  0  0  0  0  0  0  0  0  0  0  0
   -4.2701   -1.9214   -0.9935 H   0  0  0  0  0  0  0  0  0  0  0  0
    1.0399    2.5182    2.4677 H   0  0  0  0  0  0  0  0  0  0  0  0
   -0.6560    2.1246    0.1710 H   0  0  0  0  0  0  0  0  0  0  0  0
    4.6044    2.7886   -0.9559 H   0  0  0  0  0  0  0  0  0  0  0  0
   -4.4568    0.1107   -2.2878 H   0  0  0  0  0  0  0  0  0  0  0  0
    2.3619    4.5189    2.2427 H   0  0  0  0  0  0  0  0  0  0  0  0
   -1.7709    3.3664   -1.5940 H   0  0  0  0  0  0  0  0  0  0  0  0
    4.1426    4.6814    0.5401 H   0  0  0  0  0  0  0  0  0  0  0  0
   -3.6683    2.3758   -2.8304 H   0  0  0  0  0  0  0  0  0  0  0  0
  1 11  1  0
  2 12  1  0
  3 22  2  0
  4 23  2  0
  5 22  1  0
  6 23  1  0
  7  9  1  0
  7 11  2  0
  7 13  1  0
  8 10  1  0
  8 12  2  0
  8 13  1  0
  9 14  2  0
  9 20  1  0
 10 15  2  0
 10 21  1  0
 11 16  1  0
 12 17  1  0
 14 18  1  0
 14 24  1  0
 15 19  1  0
 15 25  1  0
 16 18  2  0
 16 22  1  0
 17 19  2  0
 17 23  1  0
 20 26  2  0
 21 27  2  0
 24 28  2  0
 25 29  2  0
 26 28  1  0
 27 29  1  0
  1 30  1  0
  2 31  1  0
  5 32  1  0
  6 33  1  0
 13 34  1  0
 13 35  1  0
 18 36  1  0
 19 37  1  0
 20 38  1  0
 21 39  1  0
 24 40  1  0
 25 41  1  0
 26 42  1  0
 27 43  1  0
 28 44  1  0
 29 45  1  0
M  END
$$$$
