
     RDKit          3D

 45 48  0  0  0  0  0  0  0  0999 V2000
    0.2610   -1.2272    1.9396 O   0  0  0  0  0  0  0  0  0  0  0  0
   -2.1450   -2.7707    0.8595 O   0  0  0  0  0  0  0  0  0  0  0  0
    1.4409    0.7267    3.6680 O   0  0  0  0  0  0  0  0  0  0  0  0
   -5.5619   -1.0628    2.1774 O   0  0  0  0  0  0  0  0  0  0  0  0
    3.7139    0.4458    3.6091 O   0  0  0  0  0  0  0  0  0  0  0  0
   -3.7903   -2.1385    3.1549 O   0  0  0  0  0  0  0  0  0  0  0  0
    1.0722   -0.8983   -0.3198 C   0  0  0  0  0  0  0  0  0  0  0  0
   -1.4671   -0.7583   -0.3108 C   0  0  0  0  0  0  0  0  0  0  0  0
    2.1635   -0.5789   -1.1857 C   0  0  0  0  0  0  0  0  0  0  0  0
   -1.7461    0.5789   -0.7122 C   0  0  0  0  0  0  0  0  0  0  0  0
    1.2219   -0.6923    1.0755 C   0  0  0  0  0  0  0  0  0  0  0  0
   -2.3582   -1.4179    0.5726 C   0  0  0  0  0  0  0  0  0  0  0  0
   -0.2388   -1.5030   -0.8286 C   0  0  0  0  0  0  0  0  0  0  0  0
    3.3003    0.0845   -0.6503 C   0  0  0  0  0  0  0  0  0  0  0  0
   -2.8768    1.2467   -0.1767 C   0  0  0  0  0  0  0  0  0  0  0  0
    2.3419    0.0049    1.5826 C   0  0  0  0  0  0  0  0  0  0  0  0
   -3.4566   -0.7232    1.1295 C   0  0  0  0  0  0  0  0  0  0  0  0
    3.3662    0.3831    0.7121 C   0  0  0  0  0  0  0  0  0  0  0  0
   -3.7103    0.5951    0.7353 C   0  0  0  0  0  0  0  0  0  0  0  0
    2.1810   -0.9111   -2.5637 C   0  0  0  0  0  0  0  0  0  0  0  0
   -0.9403    1.2708   -1.6456 C   0  0  0  0  0  0  0  0  0  0  0  0
    2.4599    0.3910    3.0065 C   0  0  0  0  0  0  0  0  0  0  0  0
   -4.3291   -1.3268    2.1605 C   0  0  0  0  0  0  0  0  0  0  0  0
    4.3709    0.4474   -1.4847 C   0  0  0  0  0  0  0  0  0  0  0  0
   -3.1605    2.5701   -0.5536 C   0  0  0  0  0  0  0  0  0  0  0  0
    3.2572   -0.5476   -3.3765 C   0  0  0  0  0  0  0  0  0  0  0  0
   -1.2366    2.5855   -2.0112 C   0  0  0  0  0  0  0  0  0  0  0  0
    4.3438    0.1373   -2.8417 C   0  0  0  0  0  0  0  0  0  0  0  0
   -2.3410    3.2347   -1.4646 C   0  0  0  0  0  0  0  0  0  0  0  0
    0.3806   -1.2940    2.9411 H   0  0  0  0  0  0  0  0  0  0  0  0
   -2.8243   -3.3586    1.3229 H   0  0  0  0  0  0  0  0  0  0  0  0
    3.8142    0.7292    4.5765 H   0  0  0  0  0  0  0  0  0  0  0  0
   -4.3791   -2.5389    3.8754 H   0  0  0  0  0  0  0  0  0  0  0  0
   -0.2416   -2.5742   -0.5417 H   0  0  0  0  0  0  0  0  0  0  0  0
   -0.3381   -1.5072   -1.9258 H   0  0  0  0  0  0  0  0  0  0  0  0
    4.2271    0.9172    1.1001 H   0  0  0  0  0  0  0  0  0  0  0  0
   -4.5552    1.1269    1.1600 H   0  0  0  0  0  0  0  0  0  0  0  0
    1.3987   -1.4754   -3.0408 H   0  0  0  0  0  0  0  0  0  0  0  0
   -0.0858    0.8094   -2.1138 H   0  0  0  0  0  0  0  0  0  0  0  0
    5.2347    0.9653   -1.0843 H   0  0  0  0  0  0  0  0  0  0  0  0
   -4.0186    3.0905   -0.1443 H   0  0  0  0  0  0  0  0  0  0  0  0
    3.2511   -0.8070   -4.4276 H   0  0  0  0  0  0  0  0  0  0  0  0
   -0.6080    3.1015   -2.7257 H   0  0  0  0  0  0  0  0  0  0  0  0
    5.1743    0.4156   -3.4776 H   0  0  0  0  0  0  0  0  0  0  0  0
   -2.5661    4.2537   -1.7519 H   0  0  0  0  0  0  0  0  0  0  0  0
  1 11  1  0
  2 12  1  0
  3 22  2  0
  4 23  2  0
  5 22  1  0
  6 23  1  0
  7  9  1  0
  7 11  2  0
  7 13  1  0
  8 10  1  0
  8 12  2  0
  8 13  1  0
  9 14  2  0
  9 20  1  0
 10 15  2  0
 10 21  1  0
 11 16  1  0
 12 17  1  0
 14 18  1  0
 14 24  1  0
 15 19  1  0
 15 25  1  0
 16 18  2  0
 16 22  1  0
 17 19  2  0
 17 23  1  0
 20 26  2  0
 21 27  2  0
 24 28  2  0
 25 29  2  0
 26 28  1  0
 27 29  1  0
  1 30  1  0
  2 31  1  0
  5 32  1  0
  6 33  1  0
 13 34  1  0
 13 35  1  0
 18 36  1  0
 19 37  1  0
 20 38  1  0
 21 39  1  0
 24 40  1  0
 25 41  1  0
 26 42  1  0
 27 43  1  0
 28 44  1  0
 29 45  1  0
M  END
$$$$
