
     RDKit          3D

 45 48  0  0  0  0  0  0  0  0999 V2000
    0.5280    0.1431    2.2274 O   0  0  0  0  0  0  0  0  0  0  0  0
   -1.6645    2.1622    2.2629 O   0  0  0  0  0  0  0  0  0  0  0  0
    1.6020   -2.4567    2.7580 O   0  0  0  0  0  0  0  0  0  0  0  0
   -4.7378   -0.1579    3.4827 O   0  0  0  0  0  0  0  0  0  0  0  0
    3.8844   -2.3253    2.6075 O   0  0  0  0  0  0  0  0  0  0  0  0
   -4.4138    2.0896    3.1758 O   0  0  0  0  0  0  0  0  0  0  0  0
    1.1642    0.8360   -0.0063 C   0  0  0  0  0  0  0  0  0  0  0  0
   -1.3739    0.8809    0.2253 C   0  0  0  0  0  0  0  0  0  0  0  0
    2.1670    0.8847   -1.0230 C   0  0  0  0  0  0  0  0  0  0  0  0
   -1.8045   -0.1613   -0.6437 C   0  0  0  0  0  0  0  0  0  0  0  0
    1.3752    0.0048    1.1237 C   0  0  0  0  0  0  0  0  0  0  0  0
   -2.1254    1.1680    1.3926 C   0  0  0  0  0  0  0  0  0  0  0  0
   -0.1091    1.6846   -0.0667 C   0  0  0  0  0  0  0  0  0  0  0  0
    3.2598   -0.0211   -0.9620 C   0  0  0  0  0  0  0  0  0  0  0  0
   -2.9455   -0.9296   -0.2992 C   0  0  0  0  0  0  0  0  0  0  0  0
    2.4470   -0.9165    1.1470 C   0  0  0  0  0  0  0  0  0  0  0  0
   -3.2947    0.4300    1.6890 C   0  0  0  0  0  0  0  0  0  0  0  0
    3.3744   -0.9169    0.1027 C   0  0  0  0  0  0  0  0  0  0  0  0
   -3.6693   -0.6314    0.8577 C   0  0  0  0  0  0  0  0  0  0  0  0
    2.1392    1.8157   -2.0913 C   0  0  0  0  0  0  0  0  0  0  0  0
   -1.1323   -0.4647   -1.8502 C   0  0  0  0  0  0  0  0  0  0  0  0
    2.6090   -1.9202    2.2225 C   0  0  0  0  0  0  0  0  0  0  0  0
   -4.1667    0.7622    2.8370 C   0  0  0  0  0  0  0  0  0  0  0  0
    4.2374   -0.0252   -1.9711 C   0  0  0  0  0  0  0  0  0  0  0  0
   -3.3665   -1.9815   -1.1300 C   0  0  0  0  0  0  0  0  0  0  0  0
    3.1237    1.8013   -3.0820 C   0  0  0  0  0  0  0  0  0  0  0  0
   -1.5641   -1.5128   -2.6657 C   0  0  0  0  0  0  0  0  0  0  0  0
    4.1633    0.8781   -3.0281 C   0  0  0  0  0  0  0  0  0  0  0  0
   -2.6744   -2.2723   -2.3045 C   0  0  0  0  0  0  0  0  0  0  0  0
    0.7146   -0.2637    3.1338 H   0  0  0  0  0  0  0  0  0  0  0  0
   -2.0214    2.2972    3.1988 H   0  0  0  0  0  0  0  0  0  0  0  0
    4.0122   -3.0271    3.3267 H   0  0  0  0  0  0  0  0  0  0  0  0
   -5.0254    2.3241    3.9486 H   0  0  0  0  0  0  0  0  0  0  0  0
    0.0222    2.5367    0.6308 H   0  0  0  0  0  0  0  0  0  0  0  0
   -0.2859    2.1482   -1.0510 H   0  0  0  0  0  0  0  0  0  0  0  0
    4.1978   -1.6232    0.1196 H   0  0  0  0  0  0  0  0  0  0  0  0
   -4.5586   -1.2066    1.0931 H   0  0  0  0  0  0  0  0  0  0  0  0
    1.3947    2.5888   -2.1748 H   0  0  0  0  0  0  0  0  0  0  0  0
   -0.2788    0.1029   -2.1863 H   0  0  0  0  0  0  0  0  0  0  0  0
    5.0658   -0.7232   -1.9373 H   0  0  0  0  0  0  0  0  0  0  0  0
   -4.2354   -2.5761   -0.8730 H   0  0  0  0  0  0  0  0  0  0  0  0
    3.0842    2.5183   -3.8922 H   0  0  0  0  0  0  0  0  0  0  0  0
   -1.0362   -1.7342   -3.5845 H   0  0  0  0  0  0  0  0  0  0  0  0
    4.9230    0.8729   -3.7992 H   0  0  0  0  0  0  0  0  0  0  0  0
   -3.0050   -3.0830   -2.9409 H   0  0  0  0  0  0  0  0  0  0  0  0
  1 11  1  0
  2 12  1  0
  3 22  2  0
  4 23  2  0
  5 22  1  0
  6 23  1  0
  7  9  1  0
  7 11  2  0
  7 13  1  0
  8 10  1  0
  8 12  2  0
  8 13  1  0
  9 14  2  0
  9 20  1  0
 10 15  2  0
 10 21  1  0
 11 16  1  0
 12 17  1  0
 14 18  1  0
 14 24  1  0
 15 19  1  0
 15 25  1  0
 16 18  2  0
 16 22  1  0
 17 19  2  0
 17 23  1  0
 20 26  2  0
 21 27  2  0
 24 28  2  0
 25 29  2  0
 26 28  1  0
 27 29  1  0
  1 30  1  0
  2 31  1  0
  5 32  1  0
  6 33  1  0
 13 34  1  0
 13 35  1  0
 18 36  1  0
 19 37  1  0
 20 38  1  0
 21 39  1  0
 24 40  1  0
 25 41  1  0
 26 42  1  0
 27 43  1  0
 28 44  1  0
 29 45  1  0
M  END
$$$$
