
     RDKit          2D

 43 47  0  0  0  0  0  0  0  0999 V2000
    7.8118    0.2604    0.0000 O   0  0  0  0  0  0  0  0  0  0  0  0
    4.4690    0.4179    0.0000 O   0  0  0  0  0  0  0  0  0  0  0  0
    9.4703   -0.8196    0.0000 O   0  0  0  0  0  0  0  0  0  0  0  0
    4.4690    2.8929    0.0000 O   0  0  0  0  0  0  0  0  0  0  0  0
    8.7558    0.4179    0.0000 O   0  0  0  0  0  0  0  0  0  0  0  0
    3.7545    1.6554    0.0000 O   0  0  0  0  0  0  0  0  0  0  0  0
    6.6124   -0.8196    0.0000 C   0  0  0  0  0  0  0  0  0  0  0  0
    5.8979    0.4179    0.0000 C   0  0  0  0  0  0  0  0  0  0  0  0
    6.6124   -1.6446    0.0000 C   0  0  0  0  0  0  0  0  0  0  0  0
    6.6124    0.8304    0.0000 C   0  0  0  0  0  0  0  0  0  0  0  0
    7.3269   -0.4071    0.0000 C   0  0  0  0  0  0  0  0  0  0  0  0
    5.1834    0.8304    0.0000 C   0  0  0  0  0  0  0  0  0  0  0  0
    5.8979   -0.4071    0.0000 C   0  0  0  0  0  0  0  0  0  0  0  0
    7.3269   -2.0571    0.0000 C   0  0  0  0  0  0  0  0  0  0  0  0
    6.6124    1.6554    0.0000 C   0  0  0  0  0  0  0  0  0  0  0  0
    8.0413   -0.8196    0.0000 C   0  0  0  0  0  0  0  0  0  0  0  0
    5.1834    1.6554    0.0000 C   0  0  0  0  0  0  0  0  0  0  0  0
    8.0413   -1.6446    0.0000 C   0  0  0  0  0  0  0  0  0  0  0  0
    5.8979    2.0679    0.0000 C   0  0  0  0  0  0  0  0  0  0  0  0
    5.8979   -2.0571    0.0000 C   0  0  0  0  0  0  0  0  0  0  0  0
    7.3269    0.4179    0.0000 C   0  0  0  0  0  0  0  0  0  0  0  0
    8.7558   -0.4071    0.0000 C   0  0  0  0  0  0  0  0  0  0  0  0
    4.4690    2.0679    0.0000 C   0  0  0  0  0  0  0  0  0  0  0  0
    7.3269   -2.8821    0.0000 C   0  0  0  0  0  0  0  0  0  0  0  0
    7.3269    2.0679    0.0000 C   0  0  0  0  0  0  0  0  0  0  0  0
    5.8979   -2.8821    0.0000 C   0  0  0  0  0  0  0  0  0  0  0  0
    8.0413    0.8304    0.0000 C   0  0  0  0  0  0  0  0  0  0  0  0
    6.6124   -3.2946    0.0000 C   0  0  0  0  0  0  0  0  0  0  0  0
    8.0413    1.6554    0.0000 C   0  0  0  0  0  0  0  0  0  0  0  0
   -1.1778   -1.7664    0.0000 S   0  0  0  0  0  0  0  0  0  0  0  0
    0.9186    1.1935    0.0000 N   0  0  0  0  0  0  0  0  0  0  0  0
   -0.5103    1.1935    0.0000 N   0  0  0  0  0  0  0  0  0  0  0  0
    0.2041    0.7810    0.0000 C   0  0  0  0  0  0  0  0  0  0  0  0
    0.2041   -0.0440    0.0000 C   0  0  0  0  0  0  0  0  0  0  0  0
   -0.5103   -1.2815    0.0000 C   0  0  0  0  0  0  0  0  0  0  0  0
   -0.5103   -0.4565    0.0000 C   0  0  0  0  0  0  0  0  0  0  0  0
    0.9186    2.0185    0.0000 C   0  0  0  0  0  0  0  0  0  0  0  0
   -0.5103    2.0185    0.0000 C   0  0  0  0  0  0  0  0  0  0  0  0
    0.2041    2.4310    0.0000 C   0  0  0  0  0  0  0  0  0  0  0  0
    0.1571   -1.7664    0.0000 C   0  0  0  0  0  0  0  0  0  0  0  0
    1.6331    0.7810    0.0000 C   0  0  0  0  0  0  0  0  0  0  0  0
   -0.9228   -2.5510    0.0000 C   0  0  0  0  0  0  0  0  0  0  0  0
   -0.0978   -2.5510    0.0000 C   0  0  0  0  0  0  0  0  0  0  0  0
  1 11  1  0
  2 12  1  0
  3 22  2  0
  4 23  2  0
  5 22  1  0
  6 23  1  0
  7  9  1  0
  7 11  2  0
  7 13  1  0
  8 10  1  0
  8 12  2  0
  8 13  1  0
  9 14  1  0
  9 20  2  0
 10 15  1  0
 10 21  2  0
 11 16  1  0
 12 17  1  0
 14 18  1  0
 14 24  2  0
 15 19  1  0
 15 25  2  0
 16 18  2  0
 16 22  1  0
 17 19  2  0
 17 23  1  0
 20 26  1  0
 21 27  1  0
 24 28  1  0
 25 29  1  0
 26 28  2  0
 27 29  2  0
 30 35  1  0
 30 42  1  0
 31 33  1  0
 31 37  1  0
 31 41  1  0
 32 33  2  0
 32 38  1  0
 33 34  1  0
 34 36  2  0
 35 36  1  0
 35 40  2  0
 37 39  1  0
 38 39  1  0
 40 43  1  0
 42 43  2  0
M  END
> <chembl_id>
CHEMBL1599768

> <chembl_pref_name>
PYRANTEL PAMOATE
