
     RDKit          3D

 45 48  0  0  0  0  0  0  0  0999 V2000
   -0.8037   -2.1520    0.5780 O   0  0  0  0  0  0  0  0  0  0  0  0
    1.5800   -2.0728    2.4940 O   0  0  0  0  0  0  0  0  0  0  0  0
   -4.1572   -2.5455   -1.6394 O   0  0  0  0  0  0  0  0  0  0  0  0
    2.9858   -4.2155    1.2047 O   0  0  0  0  0  0  0  0  0  0  0  0
   -1.9282   -2.9772   -1.9489 O   0  0  0  0  0  0  0  0  0  0  0  0
    5.0215   -3.4156    0.5227 O   0  0  0  0  0  0  0  0  0  0  0  0
   -1.2013    0.2060    0.9732 C   0  0  0  0  0  0  0  0  0  0  0  0
    1.3039   -0.2309    0.9424 C   0  0  0  0  0  0  0  0  0  0  0  0
   -2.1018    1.3141    0.9099 C   0  0  0  0  0  0  0  0  0  0  0  0
    1.7740    0.5075   -0.1804 C   0  0  0  0  0  0  0  0  0  0  0  0
   -1.5535   -1.0009    0.3166 C   0  0  0  0  0  0  0  0  0  0  0  0
    1.9704   -1.4249    1.3166 C   0  0  0  0  0  0  0  0  0  0  0  0
    0.1089    0.2480    1.7635 C   0  0  0  0  0  0  0  0  0  0  0  0
   -3.2393    1.2339    0.0619 C   0  0  0  0  0  0  0  0  0  0  0  0
    2.8625    0.0066   -0.9387 C   0  0  0  0  0  0  0  0  0  0  0  0
   -2.6658   -1.0477   -0.5522 C   0  0  0  0  0  0  0  0  0  0  0  0
    3.0269   -1.9319    0.5232 C   0  0  0  0  0  0  0  0  0  0  0  0
   -3.4943    0.0713   -0.6680 C   0  0  0  0  0  0  0  0  0  0  0  0
    3.4689   -1.2006   -0.5840 C   0  0  0  0  0  0  0  0  0  0  0  0
   -1.9292    2.4960    1.6731 C   0  0  0  0  0  0  0  0  0  0  0  0
    1.2024    1.7421   -0.5652 C   0  0  0  0  0  0  0  0  0  0  0  0
   -2.9620   -2.2331   -1.3870 C   0  0  0  0  0  0  0  0  0  0  0  0
    3.6666   -3.2391    0.7908 C   0  0  0  0  0  0  0  0  0  0  0  0
   -4.1199    2.3226   -0.0520 C   0  0  0  0  0  0  0  0  0  0  0  0
    3.3321    0.7171   -2.0562 C   0  0  0  0  0  0  0  0  0  0  0  0
   -2.8188    3.5658    1.5515 C   0  0  0  0  0  0  0  0  0  0  0  0
    1.6815    2.4370   -1.6776 C   0  0  0  0  0  0  0  0  0  0  0  0
   -3.9047    3.4838    0.6855 C   0  0  0  0  0  0  0  0  0  0  0  0
    2.7407    1.9248   -2.4231 C   0  0  0  0  0  0  0  0  0  0  0  0
   -1.0928   -3.0823    0.3082 H   0  0  0  0  0  0  0  0  0  0  0  0
    2.1111   -2.8139    2.9302 H   0  0  0  0  0  0  0  0  0  0  0  0
   -2.1238   -3.7787   -2.5367 H   0  0  0  0  0  0  0  0  0  0  0  0
    5.4703   -4.3103    0.6785 H   0  0  0  0  0  0  0  0  0  0  0  0
   -0.0408   -0.3531    2.6833 H   0  0  0  0  0  0  0  0  0  0  0  0
    0.3845    1.2510    2.1264 H   0  0  0  0  0  0  0  0  0  0  0  0
   -4.3492    0.0360   -1.3351 H   0  0  0  0  0  0  0  0  0  0  0  0
    4.2819   -1.5866   -1.1899 H   0  0  0  0  0  0  0  0  0  0  0  0
   -1.1395    2.6182    2.3941 H   0  0  0  0  0  0  0  0  0  0  0  0
    0.3941    2.1934   -0.0125 H   0  0  0  0  0  0  0  0  0  0  0  0
   -4.9817    2.2721   -0.7073 H   0  0  0  0  0  0  0  0  0  0  0  0
    4.1591    0.3385   -2.6456 H   0  0  0  0  0  0  0  0  0  0  0  0
   -2.6687    4.4619    2.1402 H   0  0  0  0  0  0  0  0  0  0  0  0
    1.2310    3.3800   -1.9599 H   0  0  0  0  0  0  0  0  0  0  0  0
   -4.5901    4.3168    0.5965 H   0  0  0  0  0  0  0  0  0  0  0  0
    3.1082    2.4679   -3.2842 H   0  0  0  0  0  0  0  0  0  0  0  0
  1 11  1  0
  2 12  1  0
  3 22  2  0
  4 23  2  0
  5 22  1  0
  6 23  1  0
  7  9  1  0
  7 11  2  0
  7 13  1  0
  8 10  1  0
  8 12  2  0
  8 13  1  0
  9 14  2  0
  9 20  1  0
 10 15  2  0
 10 21  1  0
 11 16  1  0
 12 17  1  0
 14 18  1  0
 14 24  1  0
 15 19  1  0
 15 25  1  0
 16 18  2  0
 16 22  1  0
 17 19  2  0
 17 23  1  0
 20 26  2  0
 21 27  2  0
 24 28  2  0
 25 29  2  0
 26 28  1  0
 27 29  1  0
  1 30  1  0
  2 31  1  0
  5 32  1  0
  6 33  1  0
 13 34  1  0
 13 35  1  0
 18 36  1  0
 19 37  1  0
 20 38  1  0
 21 39  1  0
 24 40  1  0
 25 41  1  0
 26 42  1  0
 27 43  1  0
 28 44  1  0
 29 45  1  0
M  END
$$$$
