
     RDKit          3D

 43 47  0  0  0  0  0  0  0  0999 V2000
    1.7154    1.3042    2.3045 O   0  0  0  0  0  0  0  0  0  0  0  0
   -1.1446    0.5053    2.4202 O   0  0  0  0  0  0  0  0  0  0  0  0
    5.1118   -0.8392    2.5813 O   0  0  0  0  0  0  0  0  0  0  0  0
   -3.0628   -0.6319    3.5309 O   0  0  0  0  0  0  0  0  0  0  0  0
    3.6340    0.5543    3.6252 O   0  0  0  0  0  0  0  0  0  0  0  0
   -4.8613   -1.3569    2.3906 O   0  0  0  0  0  0  0  0  0  0  0  0
    1.3108    0.6498   -0.0151 C   0  0  0  0  0  0  0  0  0  0  0  0
   -1.2072    0.9224    0.0125 C   0  0  0  0  0  0  0  0  0  0  0  0
    1.8147   -0.0923   -1.0517 C   0  0  0  0  0  0  0  0  0  0  0  0
   -1.9729    0.7579   -1.1295 C   0  0  0  0  0  0  0  0  0  0  0  0
    2.0902    0.5998    1.1645 C   0  0  0  0  0  0  0  0  0  0  0  0
   -1.7879    0.4135    1.1872 C   0  0  0  0  0  0  0  0  0  0  0  0
    0.1373    1.4866    0.0373 C   0  0  0  0  0  0  0  0  0  0  0  0
    2.9927   -0.8352   -0.9529 C   0  0  0  0  0  0  0  0  0  0  0  0
   -3.2070    0.1477   -1.1618 C   0  0  0  0  0  0  0  0  0  0  0  0
    3.2472   -0.1323    1.2554 C   0  0  0  0  0  0  0  0  0  0  0  0
   -3.0165   -0.2031    1.2021 C   0  0  0  0  0  0  0  0  0  0  0  0
    3.7296   -0.8716    0.1944 C   0  0  0  0  0  0  0  0  0  0  0  0
   -3.7137   -0.3303    0.0270 C   0  0  0  0  0  0  0  0  0  0  0  0
    1.1804   -0.1400   -2.2495 C   0  0  0  0  0  0  0  0  0  0  0  0
   -1.5490    1.2657   -2.3667 C   0  0  0  0  0  0  0  0  0  0  0  0
    4.0440   -0.1643    2.5016 C   0  0  0  0  0  0  0  0  0  0  0  0
   -3.6178   -0.7248    2.4254 C   0  0  0  0  0  0  0  0  0  0  0  0
    3.4701   -1.5750   -2.0335 C   0  0  0  0  0  0  0  0  0  0  0  0
   -3.9714    0.0350   -2.3120 C   0  0  0  0  0  0  0  0  0  0  0  0
    1.6277   -0.8603   -3.3321 C   0  0  0  0  0  0  0  0  0  0  0  0
   -2.2833    1.1702   -3.5153 C   0  0  0  0  0  0  0  0  0  0  0  0
    2.8058   -1.6033   -3.2308 C   0  0  0  0  0  0  0  0  0  0  0  0
   -3.5163    0.5480   -3.5091 C   0  0  0  0  0  0  0  0  0  0  0  0
   -3.4683    0.8441    1.1053 S   0  0  0  0  0  0  0  0  0  0  0  0
    2.1371    0.7720    0.1739 N   0  0  0  0  0  0  0  0  0  0  0  0
    2.1118   -0.9132   -1.5020 N   0  0  0  0  0  0  0  0  0  0  0  0
    1.4632   -0.1747   -0.6664 C   0  0  0  0  0  0  0  0  0  0  0  0
    0.0212   -0.3276   -0.5977 C   0  0  0  0  0  0  0  0  0  0  0  0
   -2.2295    0.1491    0.2227 C   0  0  0  0  0  0  0  0  0  0  0  0
   -0.7517    0.3674    0.2136 C   0  0  0  0  0  0  0  0  0  0  0  0
    3.4836    0.5020    0.6401 C   0  0  0  0  0  0  0  0  0  0  0  0
    3.5691   -0.7390   -1.5519 C   0  0  0  0  0  0  0  0  0  0  0  0
    4.1186   -0.5917   -0.1463 C   0  0  0  0  0  0  0  0  0  0  0  0
   -2.8739   -0.8123   -0.6367 C   0  0  0  0  0  0  0  0  0  0  0  0
    1.4273    1.9863    0.5296 C   0  0  0  0  0  0  0  0  0  0  0  0
   -4.8904   -0.1248    0.3578 C   0  0  0  0  0  0  0  0  0  0  0  0
   -4.1181   -0.9376   -0.5708 C   0  0  0  0  0  0  0  0  0  0  0  0
  1 11  1  0
  2 12  1  0
  3 22  2  0
  4 23  2  0
  5 22  1  0
  6 23  1  0
  7  9  1  0
  7 11  2  0
  7 13  1  0
  8 10  1  0
  8 12  2  0
  8 13  1  0
  9 14  2  0
  9 20  1  0
 10 15  2  0
 10 21  1  0
 11 16  1  0
 12 17  1  0
 14 18  1  0
 14 24  1  0
 15 19  1  0
 15 25  1  0
 16 18  2  0
 16 22  1  0
 17 19  2  0
 17 23  1  0
 20 26  2  0
 21 27  2  0
 24 28  2  0
 25 29  2  0
 26 28  1  0
 27 29  1  0
 30 35  1  0
 30 42  1  0
 31 33  1  0
 31 37  1  0
 31 41  1  0
 32 33  2  0
 32 38  1  0
 33 34  1  0
 34 36  2  0
 35 36  1  0
 35 40  2  0
 37 39  1  0
 38 39  1  0
 40 43  1  0
 42 43  2  0
M  END
