
     RDKit          3D

 18 11  0  0  0  0  0  0  0  0999 V2000
   47.5106    1.7284    6.7021 Si  0  0  0  0  0  4  0  0  0  0  0  0
   48.3204    2.0848    5.3911 O   0  0  0  0  0  0  0  0  0  0  0  0
   46.7704    1.1065    7.9541 O   0  0  0  0  0  0  0  0  0  0  0  0
   47.8300    2.2721    6.1115 Mg  0  0  0  0  0  2  0  0  0  0  0  0
   47.1642    1.1467    7.3409 O   0  0  0  0  0  0  0  0  0  0  0  0
   47.8299    2.2719    6.1117 Mg  0  0  0  0  0  2  0  0  0  0  0  0
   47.1643    1.1469    7.3407 O   0  0  0  0  0  0  0  0  0  0  0  0
   47.8308    2.2734    6.1102 Mg  0  0  0  0  0  2  0  0  0  0  0  0
   47.1634    1.1455    7.3423 O   0  0  0  0  0  0  0  0  0  0  0  0
   47.4553    1.7883    6.7762 Si  0  0  0  0  0  4  0  0  0  0  0  0
   46.9413    0.6953    7.7660 O   0  0  0  0  0  0  0  0  0  0  0  0
   48.0947    2.6447    5.6365 O   0  0  0  0  0  0  0  0  0  0  0  0
   47.4694    1.7593    6.7598 Si  0  0  0  0  0  4  0  0  0  0  0  0
   48.0942    2.6704    5.6326 O   0  0  0  0  0  0  0  0  0  0  0  0
   46.9277    0.6987    7.7863 O   0  0  0  0  0  0  0  0  0  0  0  0
   47.4661    1.7655    6.7638 Si  0  0  0  0  0  4  0  0  0  0  0  0
   48.0964    2.6682    5.6297 O   0  0  0  0  0  0  0  0  0  0  0  0
   46.9289    0.6947    7.7852 O   0  0  0  0  0  0  0  0  0  0  0  0
  1  2  2  0
  1  3  2  0
  4  5  2  0
  6  7  2  0
  8  9  2  0
 10 11  2  0
 10 12  2  0
 13 14  2  0
 13 15  2  0
 16 17  2  0
 16 18  2  0
M  END
> <Uni-Dock RESULT> 
ENERGY=   -8.767  LOWER_BOUND=    0.000  UPPER_BOUND=    0.000
INTER + INTRA:          -8.767
INTER:                  -8.767
INTRA:                   0.000
UNBOUND:                 0.000

$$$$

     RDKit          3D

 18 11  0  0  0  0  0  0  0  0999 V2000
   47.4920    2.2130    6.3495 Si  0  0  0  0  0  4  0  0  0  0  0  0
   47.1123    1.1484    7.4559 O   0  0  0  0  0  0  0  0  0  0  0  0
   47.5954    3.2901    5.1958 O   0  0  0  0  0  0  0  0  0  0  0  0
   47.6740    1.6512    6.9802 Mg  0  0  0  0  0  2  0  0  0  0  0  0
   47.3013    2.8193    5.6696 O   0  0  0  0  0  0  0  0  0  0  0  0
   47.6740    1.6513    6.9800 Mg  0  0  0  0  0  2  0  0  0  0  0  0
   47.3013    2.8191    5.6698 O   0  0  0  0  0  0  0  0  0  0  0  0
   47.6744    1.6498    6.9817 Mg  0  0  0  0  0  2  0  0  0  0  0  0
   47.3008    2.8206    5.6681 O   0  0  0  0  0  0  0  0  0  0  0  0
   47.5873    2.2560    6.3146 Si  0  0  0  0  0  4  0  0  0  0  0  0
   47.1149    3.2366    5.1949 O   0  0  0  0  0  0  0  0  0  0  0  0
   47.7607    1.2131    7.4651 O   0  0  0  0  0  0  0  0  0  0  0  0
   47.5517    2.2498    6.3169 Si  0  0  0  0  0  4  0  0  0  0  0  0
   47.7822    1.2047    7.4770 O   0  0  0  0  0  0  0  0  0  0  0  0
   47.1291    3.2512    5.1808 O   0  0  0  0  0  0  0  0  0  0  0  0
   47.5595    2.2515    6.3161 Si  0  0  0  0  0  4  0  0  0  0  0  0
   47.7786    1.2030    7.4784 O   0  0  0  0  0  0  0  0  0  0  0  0
   47.1248    3.2512    5.1802 O   0  0  0  0  0  0  0  0  0  0  0  0
  1  2  2  0
  1  3  2  0
  4  5  2  0
  6  7  2  0
  8  9  2  0
 10 11  2  0
 10 12  2  0
 13 14  2  0
 13 15  2  0
 16 17  2  0
 16 18  2  0
M  END
> <Uni-Dock RESULT> 
ENERGY=   -8.434  LOWER_BOUND=    0.867  UPPER_BOUND=    2.337
INTER + INTRA:          -8.434
INTER:                  -8.434
INTRA:                   0.000
UNBOUND:                 0.000

$$$$

     RDKit          3D

 18 11  0  0  0  0  0  0  0  0999 V2000
   43.0154    5.2486   11.8055 Si  0  0  0  0  0  4  0  0  0  0  0  0
   43.3675    4.6220   10.3966 O   0  0  0  0  0  0  0  0  0  0  0  0
   42.6896    5.6127   13.3099 O   0  0  0  0  0  0  0  0  0  0  0  0
   43.1597    5.2855   10.9544 Mg  0  0  0  0  0  2  0  0  0  0  0  0
   42.8590    5.2142   12.7224 O   0  0  0  0  0  0  0  0  0  0  0  0
   43.1597    5.2855   10.9547 Mg  0  0  0  0  0  2  0  0  0  0  0  0
   42.8590    5.2143   12.7221 O   0  0  0  0  0  0  0  0  0  0  0  0
   43.1601    5.2856   10.9524 Mg  0  0  0  0  0  2  0  0  0  0  0  0
   42.8586    5.2142   12.7244 O   0  0  0  0  0  0  0  0  0  0  0  0
   42.9925    5.3508   11.8399 Si  0  0  0  0  0  4  0  0  0  0  0  0
   42.7573    5.1377   13.3689 O   0  0  0  0  0  0  0  0  0  0  0  0
   43.2783    5.2612   10.3064 O   0  0  0  0  0  0  0  0  0  0  0  0
   42.9982    5.3150   11.8412 Si  0  0  0  0  0  4  0  0  0  0  0  0
   43.2784    5.2798   10.2883 O   0  0  0  0  0  0  0  0  0  0  0  0
   42.7515    5.1548   13.3857 O   0  0  0  0  0  0  0  0  0  0  0  0
   42.9968    5.3230   11.8414 Si  0  0  0  0  0  4  0  0  0  0  0  0
   43.2793    5.2759   10.2869 O   0  0  0  0  0  0  0  0  0  0  0  0
   42.7519    5.1508   13.3870 O   0  0  0  0  0  0  0  0  0  0  0  0
  1  2  2  0
  1  3  2  0
  4  5  2  0
  6  7  2  0
  8  9  2  0
 10 11  2  0
 10 12  2  0
 13 14  2  0
 13 15  2  0
 16 17  2  0
 16 18  2  0
M  END
> <Uni-Dock RESULT> 
ENERGY=   -7.275  LOWER_BOUND=    7.247  UPPER_BOUND=    7.716
INTER + INTRA:          -7.275
INTER:                  -7.275
INTRA:                   0.000
UNBOUND:                 0.000

$$$$

     RDKit          3D

 18 11  0  0  0  0  0  0  0  0999 V2000
   43.0071    5.2781   11.8714 Si  0  0  0  0  0  4  0  0  0  0  0  0
   42.8624    4.7128   13.3415 O   0  0  0  0  0  0  0  0  0  0  0  0
   43.2119    5.5781   10.3319 O   0  0  0  0  0  0  0  0  0  0  0  0
   42.8513    5.3500   12.7182 Mg  0  0  0  0  0  2  0  0  0  0  0  0
   43.1741    5.2059   10.9586 O   0  0  0  0  0  0  0  0  0  0  0  0
   42.8514    5.3500   12.7179 Mg  0  0  0  0  0  2  0  0  0  0  0  0
   43.1740    5.2060   10.9589 O   0  0  0  0  0  0  0  0  0  0  0  0
   42.8510    5.3502   12.7202 Mg  0  0  0  0  0  2  0  0  0  0  0  0
   43.1744    5.2058   10.9566 O   0  0  0  0  0  0  0  0  0  0  0  0
   42.9964    5.3783   11.8269 Si  0  0  0  0  0  4  0  0  0  0  0  0
   43.3004    5.1030   10.3202 O   0  0  0  0  0  0  0  0  0  0  0  0
   42.7413    5.3526   13.3682 O   0  0  0  0  0  0  0  0  0  0  0  0
   43.0025    5.3427   11.8292 Si  0  0  0  0  0  4  0  0  0  0  0  0
   42.7351    5.3719   13.3844 O   0  0  0  0  0  0  0  0  0  0  0  0
   43.3006    5.1194   10.3016 O   0  0  0  0  0  0  0  0  0  0  0  0
   43.0012    5.3506   11.8282 Si  0  0  0  0  0  4  0  0  0  0  0  0
   42.7355    5.3681   13.3862 O   0  0  0  0  0  0  0  0  0  0  0  0
   43.3015    5.1153   10.3008 O   0  0  0  0  0  0  0  0  0  0  0  0
  1  2  2  0
  1  3  2  0
  4  5  2  0
  6  7  2  0
  8  9  2  0
 10 11  2  0
 10 12  2  0
 13 14  2  0
 13 15  2  0
 16 17  2  0
 16 18  2  0
M  END
> <Uni-Dock RESULT> 
ENERGY=   -7.095  LOWER_BOUND=    7.342  UPPER_BOUND=    7.988
INTER + INTRA:          -7.095
INTER:                  -7.095
INTRA:                   0.000
UNBOUND:                 0.000

$$$$

     RDKit          3D

 18 11  0  0  0  0  0  0  0  0999 V2000
   44.8591    2.9789    8.7488 Si  0  0  0  0  0  4  0  0  0  0  0  0
   44.9107    1.4105    8.9460 O   0  0  0  0  0  0  0  0  0  0  0  0
   44.5305    4.5176    8.5864 O   0  0  0  0  0  0  0  0  0  0  0  0
   45.2626    2.2168    8.8024 Mg  0  0  0  0  0  2  0  0  0  0  0  0
   44.4291    3.8024    8.6902 O   0  0  0  0  0  0  0  0  0  0  0  0
   45.2624    2.2171    8.8024 Mg  0  0  0  0  0  2  0  0  0  0  0  0
   44.4292    3.8021    8.6903 O   0  0  0  0  0  0  0  0  0  0  0  0
   45.2635    2.2150    8.8026 Mg  0  0  0  0  0  2  0  0  0  0  0  0
   44.4282    3.8042    8.6901 O   0  0  0  0  0  0  0  0  0  0  0  0
   44.9356    3.0560    8.7303 Si  0  0  0  0  0  4  0  0  0  0  0  0
   44.0791    4.3596    8.6572 O   0  0  0  0  0  0  0  0  0  0  0  0
   45.5228    1.6132    8.8515 O   0  0  0  0  0  0  0  0  0  0  0  0
   44.9030    3.0412    8.7359 Si  0  0  0  0  0  4  0  0  0  0  0  0
   45.5474    1.6049    8.8498 O   0  0  0  0  0  0  0  0  0  0  0  0
   44.0871    4.3827    8.6533 O   0  0  0  0  0  0  0  0  0  0  0  0
   44.9101    3.0449    8.7346 Si  0  0  0  0  0  4  0  0  0  0  0  0
   45.5445    1.6019    8.8506 O   0  0  0  0  0  0  0  0  0  0  0  0
   44.0829    4.3820    8.6539 O   0  0  0  0  0  0  0  0  0  0  0  0
  1  2  2  0
  1  3  2  0
  4  5  2  0
  6  7  2  0
  8  9  2  0
 10 11  2  0
 10 12  2  0
 13 14  2  0
 13 15  2  0
 16 17  2  0
 16 18  2  0
M  END
> <Uni-Dock RESULT> 
ENERGY=   -6.810  LOWER_BOUND=    3.444  UPPER_BOUND=    4.099
INTER + INTRA:          -6.810
INTER:                  -6.810
INTRA:                   0.000
UNBOUND:                 0.000

$$$$

     RDKit          3D

 18 11  0  0  0  0  0  0  0  0999 V2000
   43.2467    5.2714   12.5118 Si  0  0  0  0  0  4  0  0  0  0  0  0
   44.5930    5.3337   13.3395 O   0  0  0  0  0  0  0  0  0  0  0  0
   41.9114    5.4895   11.6923 O   0  0  0  0  0  0  0  0  0  0  0  0
   43.9205    4.9215   12.9242 Mg  0  0  0  0  0  2  0  0  0  0  0  0
   42.5189    5.6433   12.0664 O   0  0  0  0  0  0  0  0  0  0  0  0
   43.9202    4.9217   12.9241 Mg  0  0  0  0  0  2  0  0  0  0  0  0
   42.5191    5.6432   12.0665 O   0  0  0  0  0  0  0  0  0  0  0  0
   43.9220    4.9207   12.9252 Mg  0  0  0  0  0  2  0  0  0  0  0  0
   42.5173    5.6442   12.0654 O   0  0  0  0  0  0  0  0  0  0  0  0
   43.1846    5.1889   12.4733 Si  0  0  0  0  0  4  0  0  0  0  0  0
   42.0234    5.9544   11.7634 O   0  0  0  0  0  0  0  0  0  0  0  0
   44.4511    4.7040   13.2493 O   0  0  0  0  0  0  0  0  0  0  0  0
   43.1956    5.2227   12.4802 Si  0  0  0  0  0  4  0  0  0  0  0  0
   44.4595    4.6800   13.2543 O   0  0  0  0  0  0  0  0  0  0  0  0
   42.0040    5.9446   11.7514 O   0  0  0  0  0  0  0  0  0  0  0  0
   43.1928    5.2153   12.4784 Si  0  0  0  0  0  4  0  0  0  0  0  0
   44.4619    4.6831   13.2558 O   0  0  0  0  0  0  0  0  0  0  0  0
   42.0044    5.9489   11.7517 O   0  0  0  0  0  0  0  0  0  0  0  0
  1  2  2  0
  1  3  2  0
  4  5  2  0
  6  7  2  0
  8  9  2  0
 10 11  2  0
 10 12  2  0
 13 14  2  0
 13 15  2  0
 16 17  2  0
 16 18  2  0
M  END
> <Uni-Dock RESULT> 
ENERGY=   -6.717  LOWER_BOUND=    7.937  UPPER_BOUND=    8.248
INTER + INTRA:          -6.717
INTER:                  -6.717
INTRA:                   0.000
UNBOUND:                 0.000

$$$$

     RDKit          3D

 18 11  0  0  0  0  0  0  0  0999 V2000
   44.8805    2.9972    8.7859 Si  0  0  0  0  0  4  0  0  0  0  0  0
   44.7292    4.5385    8.4652 O   0  0  0  0  0  0  0  0  0  0  0  0
   45.2856    1.4817    8.9895 O   0  0  0  0  0  0  0  0  0  0  0  0
   44.4576    3.7506    8.7813 Mg  0  0  0  0  0  2  0  0  0  0  0  0
   45.3319    2.1832    8.7933 O   0  0  0  0  0  0  0  0  0  0  0  0
   44.4578    3.7503    8.7813 Mg  0  0  0  0  0  2  0  0  0  0  0  0
   45.3317    2.1834    8.7933 O   0  0  0  0  0  0  0  0  0  0  0  0
   44.4566    3.7523    8.7813 Mg  0  0  0  0  0  2  0  0  0  0  0  0
   45.3329    2.1814    8.7933 O   0  0  0  0  0  0  0  0  0  0  0  0
   44.8149    2.9224    8.8333 Si  0  0  0  0  0  4  0  0  0  0  0  0
   45.6919    1.6316    8.7747 O   0  0  0  0  0  0  0  0  0  0  0  0
   44.1774    4.3466    8.7540 O   0  0  0  0  0  0  0  0  0  0  0  0
   44.8441    2.9365    8.8170 Si  0  0  0  0  0  4  0  0  0  0  0  0
   44.1542    4.3550    8.7620 O   0  0  0  0  0  0  0  0  0  0  0  0
   45.6860    1.6090    8.7829 O   0  0  0  0  0  0  0  0  0  0  0  0
   44.8378    2.9329    8.8207 Si  0  0  0  0  0  4  0  0  0  0  0  0
   44.1567    4.3580    8.7602 O   0  0  0  0  0  0  0  0  0  0  0  0
   45.6898    1.6097    8.7811 O   0  0  0  0  0  0  0  0  0  0  0  0
  1  2  2  0
  1  3  2  0
  4  5  2  0
  6  7  2  0
  8  9  2  0
 10 11  2  0
 10 12  2  0
 13 14  2  0
 13 15  2  0
 16 17  2  0
 16 18  2  0
M  END
> <Uni-Dock RESULT> 
ENERGY=   -6.716  LOWER_BOUND=    3.383  UPPER_BOUND=    3.788
INTER + INTRA:          -6.716
INTER:                  -6.716
INTRA:                   0.000
UNBOUND:                 0.000

$$$$

     RDKit          3D

 18 11  0  0  0  0  0  0  0  0999 V2000
   43.2124    5.2791   12.4952 Si  0  0  0  0  0  4  0  0  0  0  0  0
   42.2404    6.2443   11.7047 O   0  0  0  0  0  0  0  0  0  0  0  0
   44.3500    4.5394   13.3081 O   0  0  0  0  0  0  0  0  0  0  0  0
   42.4896    5.4658   12.0603 Mg  0  0  0  0  0  2  0  0  0  0  0  0
   43.9894    5.0727   12.9644 O   0  0  0  0  0  0  0  0  0  0  0  0
   42.4899    5.4658   12.0605 Mg  0  0  0  0  0  2  0  0  0  0  0  0
   43.9892    5.0728   12.9642 O   0  0  0  0  0  0  0  0  0  0  0  0
   42.4879    5.4663   12.0593 Mg  0  0  0  0  0  2  0  0  0  0  0  0
   43.9911    5.0723   12.9654 O   0  0  0  0  0  0  0  0  0  0  0  0
   43.2078    5.1726   12.5235 Si  0  0  0  0  0  4  0  0  0  0  0  0
   44.5543    4.9772   13.2898 O   0  0  0  0  0  0  0  0  0  0  0  0
   41.9564    5.6580   11.7238 O   0  0  0  0  0  0  0  0  0  0  0  0
   43.2206    5.2064   12.5204 Si  0  0  0  0  0  4  0  0  0  0  0  0
   41.9352    5.6450   11.7164 O   0  0  0  0  0  0  0  0  0  0  0  0
   44.5628    4.9564   13.3002 O   0  0  0  0  0  0  0  0  0  0  0  0
   43.2181    5.1988   12.5214 Si  0  0  0  0  0  4  0  0  0  0  0  0
   41.9353    5.6491   11.7152 O   0  0  0  0  0  0  0  0  0  0  0  0
   44.5652    4.9600   13.3004 O   0  0  0  0  0  0  0  0  0  0  0  0
  1  2  2  0
  1  3  2  0
  4  5  2  0
  6  7  2  0
  8  9  2  0
 10 11  2  0
 10 12  2  0
 13 14  2  0
 13 15  2  0
 16 17  2  0
 16 18  2  0
M  END
> <Uni-Dock RESULT> 
ENERGY=   -6.279  LOWER_BOUND=    8.015  UPPER_BOUND=    8.171
INTER + INTRA:          -6.279
INTER:                  -6.279
INTRA:                   0.000
UNBOUND:                 0.000

$$$$
