
     RDKit          3D

 18 11  0  0  0  0  0  0  0  0999 V2000
   46.7605    2.4720    7.2979 Si  0  0  0  0  0  4  0  0  0  0  0  0
   47.4087    1.0433    7.4090 O   0  0  0  0  0  0  0  0  0  0  0  0
   46.0217    3.8661    7.3146 O   0  0  0  0  0  0  0  0  0  0  0  0
   46.8487    3.4671    6.5861 Mg  0  0  0  0  0  2  0  0  0  0  0  0
   47.6146    1.8573    6.6694 O   0  0  0  0  0  0  0  0  0  0  0  0
   46.8464    3.4720    6.5858 Mg  0  0  0  0  0  2  0  0  0  0  0  0
   47.6170    1.8523    6.6697 O   0  0  0  0  0  0  0  0  0  0  0  0
   46.8488    3.4669    6.5861 Mg  0  0  0  0  0  2  0  0  0  0  0  0
   47.6145    1.8575    6.6694 O   0  0  0  0  0  0  0  0  0  0  0  0
   47.1745    2.6342    6.7120 Si  0  0  0  0  0  4  0  0  0  0  0  0
   46.5898    4.0851    6.5129 O   0  0  0  0  0  0  0  0  0  0  0  0
   47.9307    1.2672    6.6583 O   0  0  0  0  0  0  0  0  0  0  0  0
   47.5997    2.8976    6.0512 Si  0  0  0  0  0  4  0  0  0  0  0  0
   48.4079    1.5445    5.9279 O   0  0  0  0  0  0  0  0  0  0  0  0
   46.5426    3.8883    6.6886 O   0  0  0  0  0  0  0  0  0  0  0  0
   47.1712    2.6363    6.7147 Si  0  0  0  0  0  4  0  0  0  0  0  0
   46.5934    4.0802    6.5116 O   0  0  0  0  0  0  0  0  0  0  0  0
   47.9305    1.2700    6.6569 O   0  0  0  0  0  0  0  0  0  0  0  0
  1  2  2  0
  1  3  2  0
  4  5  2  0
  6  7  2  0
  8  9  2  0
 10 11  2  0
 10 12  2  0
 13 14  2  0
 13 15  2  0
 16 17  2  0
 16 18  2  0
M  END
> <Uni-Dock RESULT> 
ENERGY=   -7.256  LOWER_BOUND=    0.000  UPPER_BOUND=    0.000
INTER + INTRA:          -7.256
INTER:                  -7.256
INTRA:                   0.000
UNBOUND:                 0.000

$$$$

     RDKit          3D

 18 11  0  0  0  0  0  0  0  0999 V2000
   47.1335    2.9454    6.3794 Si  0  0  0  0  0  4  0  0  0  0  0  0
   46.1354    3.2426    7.5581 O   0  0  0  0  0  0  0  0  0  0  0  0
   48.0996    2.7937    5.1412 O   0  0  0  0  0  0  0  0  0  0  0  0
   47.8677    2.0367    6.0056 Mg  0  0  0  0  0  2  0  0  0  0  0  0
   46.7458    2.3253    7.3631 O   0  0  0  0  0  0  0  0  0  0  0  0
   47.8712    2.0358    6.0014 Mg  0  0  0  0  0  2  0  0  0  0  0  0
   46.7423    2.3262    7.3672 O   0  0  0  0  0  0  0  0  0  0  0  0
   47.8676    2.0367    6.0057 Mg  0  0  0  0  0  2  0  0  0  0  0  0
   46.7459    2.3252    7.3629 O   0  0  0  0  0  0  0  0  0  0  0  0
   47.2822    2.2776    6.6495 Si  0  0  0  0  0  4  0  0  0  0  0  0
   48.3010    1.8803    5.5135 O   0  0  0  0  0  0  0  0  0  0  0  0
   46.3371    2.3850    7.8900 O   0  0  0  0  0  0  0  0  0  0  0  0
   47.5056    1.5146    6.8835 Si  0  0  0  0  0  4  0  0  0  0  0  0
   46.5745    1.5434    8.1607 O   0  0  0  0  0  0  0  0  0  0  0  0
   48.1537    2.0987    5.5627 O   0  0  0  0  0  0  0  0  0  0  0  0
   47.2834    2.2803    6.6458 Si  0  0  0  0  0  4  0  0  0  0  0  0
   48.2977    1.8796    5.5186 O   0  0  0  0  0  0  0  0  0  0  0  0
   46.3391    2.3831    7.8885 O   0  0  0  0  0  0  0  0  0  0  0  0
  1  2  2  0
  1  3  2  0
  4  5  2  0
  6  7  2  0
  8  9  2  0
 10 11  2  0
 10 12  2  0
 13 14  2  0
 13 15  2  0
 16 17  2  0
 16 18  2  0
M  END
> <Uni-Dock RESULT> 
ENERGY=   -7.237  LOWER_BOUND=    1.230  UPPER_BOUND=    2.095
INTER + INTRA:          -7.237
INTER:                  -7.237
INTRA:                   0.000
UNBOUND:                 0.000

$$$$

     RDKit          3D

 18 11  0  0  0  0  0  0  0  0999 V2000
   46.7580    2.6049    6.9867 Si  0  0  0  0  0  4  0  0  0  0  0  0
   46.5781    3.8156    5.9990 O   0  0  0  0  0  0  0  0  0  0  0  0
   46.8260    1.4591    8.0694 O   0  0  0  0  0  0  0  0  0  0  0  0
   47.4290    1.5816    7.0717 Mg  0  0  0  0  0  2  0  0  0  0  0  0
   47.2622    2.9338    5.9190 O   0  0  0  0  0  0  0  0  0  0  0  0
   47.4295    1.5775    7.0752 Mg  0  0  0  0  0  2  0  0  0  0  0  0
   47.2617    2.9380    5.9155 O   0  0  0  0  0  0  0  0  0  0  0  0
   47.4289    1.5818    7.0715 Mg  0  0  0  0  0  2  0  0  0  0  0  0
   47.2623    2.9337    5.9191 O   0  0  0  0  0  0  0  0  0  0  0  0
   47.2715    2.3047    6.5541 Si  0  0  0  0  0  4  0  0  0  0  0  0
   47.5284    1.0508    7.4750 O   0  0  0  0  0  0  0  0  0  0  0  0
   47.2369    3.4176    5.4569 O   0  0  0  0  0  0  0  0  0  0  0  0
   47.8554    1.8997    6.1275 Si  0  0  0  0  0  4  0  0  0  0  0  0
   47.8815    2.9814    4.9749 O   0  0  0  0  0  0  0  0  0  0  0  0
   47.3657    1.2630    7.4914 O   0  0  0  0  0  0  0  0  0  0  0  0
   47.2693    2.3037    6.5582 Si  0  0  0  0  0  4  0  0  0  0  0  0
   47.5292    1.0545    7.4701 O   0  0  0  0  0  0  0  0  0  0  0  0
   47.2383    3.4149    5.4578 O   0  0  0  0  0  0  0  0  0  0  0  0
  1  2  2  0
  1  3  2  0
  4  5  2  0
  6  7  2  0
  8  9  2  0
 10 11  2  0
 10 12  2  0
 13 14  2  0
 13 15  2  0
 16 17  2  0
 16 18  2  0
M  END
> <Uni-Dock RESULT> 
ENERGY=   -7.112  LOWER_BOUND=    1.247  UPPER_BOUND=    2.152
INTER + INTRA:          -7.112
INTER:                  -7.112
INTRA:                   0.000
UNBOUND:                 0.000

$$$$

     RDKit          3D

 18 11  0  0  0  0  0  0  0  0999 V2000
   43.4352    4.1654   11.7058 Si  0  0  0  0  0  4  0  0  0  0  0  0
   43.2702    3.9163   13.2500 O   0  0  0  0  0  0  0  0  0  0  0  0
   43.6565    4.2649   10.1467 O   0  0  0  0  0  0  0  0  0  0  0  0
   43.2444    5.0666   10.8959 Mg  0  0  0  0  0  2  0  0  0  0  0  0
   43.0383    4.8340   12.6533 O   0  0  0  0  0  0  0  0  0  0  0  0
   43.2450    5.0673   10.8905 Mg  0  0  0  0  0  2  0  0  0  0  0  0
   43.0376    4.8333   12.6587 O   0  0  0  0  0  0  0  0  0  0  0  0
   43.2444    5.0666   10.8961 Mg  0  0  0  0  0  2  0  0  0  0  0  0
   43.0383    4.8341   12.6531 O   0  0  0  0  0  0  0  0  0  0  0  0
   43.1777    4.8513   11.7704 Si  0  0  0  0  0  4  0  0  0  0  0  0
   43.3036    5.2032   10.2385 O   0  0  0  0  0  0  0  0  0  0  0  0
   42.9427    4.7965   13.3148 O   0  0  0  0  0  0  0  0  0  0  0  0
   42.8995    5.6318   11.7538 Si  0  0  0  0  0  4  0  0  0  0  0  0
   42.6330    5.6580   13.3119 O   0  0  0  0  0  0  0  0  0  0  0  0
   43.3582    4.9849   10.3840 O   0  0  0  0  0  0  0  0  0  0  0  0
   43.1793    4.8484   11.7670 Si  0  0  0  0  0  4  0  0  0  0  0  0
   43.3023    5.2042   10.2445 O   0  0  0  0  0  0  0  0  0  0  0  0
   42.9424    4.7984   13.3123 O   0  0  0  0  0  0  0  0  0  0  0  0
  1  2  2  0
  1  3  2  0
  4  5  2  0
  6  7  2  0
  8  9  2  0
 10 11  2  0
 10 12  2  0
 13 14  2  0
 13 15  2  0
 16 17  2  0
 16 18  2  0
M  END
> <Uni-Dock RESULT> 
ENERGY=   -6.261  LOWER_BOUND=    5.895  UPPER_BOUND=    7.094
INTER + INTRA:          -6.261
INTER:                  -6.261
INTRA:                   0.000
UNBOUND:                 0.000

$$$$

     RDKit          3D

 18 11  0  0  0  0  0  0  0  0999 V2000
   43.3022    4.2822   11.9821 Si  0  0  0  0  0  4  0  0  0  0  0  0
   43.6562    4.0450   10.4681 O   0  0  0  0  0  0  0  0  0  0  0  0
   42.9876    4.3668   13.5260 O   0  0  0  0  0  0  0  0  0  0  0  0
   42.8983    5.1922   12.6985 Mg  0  0  0  0  0  2  0  0  0  0  0  0
   43.2868    4.9741   10.9705 O   0  0  0  0  0  0  0  0  0  0  0  0
   42.8971    5.1929   12.7039 Mg  0  0  0  0  0  2  0  0  0  0  0  0
   43.2880    4.9734   10.9651 O   0  0  0  0  0  0  0  0  0  0  0  0
   42.8983    5.1922   12.6983 Mg  0  0  0  0  0  2  0  0  0  0  0  0
   43.2868    4.9741   10.9706 O   0  0  0  0  0  0  0  0  0  0  0  0
   43.1198    4.9821   11.8486 Si  0  0  0  0  0  4  0  0  0  0  0  0
   42.7389    5.3243   13.3400 O   0  0  0  0  0  0  0  0  0  0  0  0
   43.4189    4.9430   10.3149 O   0  0  0  0  0  0  0  0  0  0  0  0
   42.8958    5.7776   11.7866 Si  0  0  0  0  0  4  0  0  0  0  0  0
   43.1745    5.8212   10.2310 O   0  0  0  0  0  0  0  0  0  0  0  0
   42.8274    5.1034   13.2170 O   0  0  0  0  0  0  0  0  0  0  0  0
   43.1200    4.9792   11.8523 Si  0  0  0  0  0  4  0  0  0  0  0  0
   42.7397    5.3254   13.3339 O   0  0  0  0  0  0  0  0  0  0  0  0
   43.4180    4.9448   10.3172 O   0  0  0  0  0  0  0  0  0  0  0  0
  1  2  2  0
  1  3  2  0
  4  5  2  0
  6  7  2  0
  8  9  2  0
 10 11  2  0
 10 12  2  0
 13 14  2  0
 13 15  2  0
 16 17  2  0
 16 18  2  0
M  END
> <Uni-Dock RESULT> 
ENERGY=   -6.112  LOWER_BOUND=    6.262  UPPER_BOUND=    7.183
INTER + INTRA:          -6.112
INTER:                  -6.112
INTRA:                   0.000
UNBOUND:                 0.000

$$$$

     RDKit          3D

 18 11  0  0  0  0  0  0  0  0999 V2000
   44.8556    4.1193    9.1760 Si  0  0  0  0  0  4  0  0  0  0  0  0
   45.7810    5.3691    8.9411 O   0  0  0  0  0  0  0  0  0  0  0  0
   43.8644    2.9455    9.5358 O   0  0  0  0  0  0  0  0  0  0  0  0
   44.6587    3.0163    8.6767 Mg  0  0  0  0  0  2  0  0  0  0  0  0
   45.7308    4.4092    8.3684 O   0  0  0  0  0  0  0  0  0  0  0  0
   44.6553    3.0120    8.6776 Mg  0  0  0  0  0  2  0  0  0  0  0  0
   45.7342    4.4135    8.3674 O   0  0  0  0  0  0  0  0  0  0  0  0
   44.6588    3.0165    8.6767 Mg  0  0  0  0  0  2  0  0  0  0  0  0
   45.7307    4.4090    8.3684 O   0  0  0  0  0  0  0  0  0  0  0  0
   45.1549    3.7673    8.6037 Si  0  0  0  0  0  4  0  0  0  0  0  0
   44.2761    2.4665    8.7520 O   0  0  0  0  0  0  0  0  0  0  0  0
   46.1532    4.9045    8.2119 O   0  0  0  0  0  0  0  0  0  0  0  0
   45.4361    3.3023    7.9780 Si  0  0  0  0  0  4  0  0  0  0  0  0
   46.4737    4.4022    7.5169 O   0  0  0  0  0  0  0  0  0  0  0  0
   44.2904    2.6973    8.8872 O   0  0  0  0  0  0  0  0  0  0  0  0
   45.1516    3.7665    8.6070 Si  0  0  0  0  0  4  0  0  0  0  0  0
   44.2804    2.4702    8.7495 O   0  0  0  0  0  0  0  0  0  0  0  0
   46.1522    4.9016    8.2111 O   0  0  0  0  0  0  0  0  0  0  0  0
  1  2  2  0
  1  3  2  0
  4  5  2  0
  6  7  2  0
  8  9  2  0
 10 11  2  0
 10 12  2  0
 13 14  2  0
 13 15  2  0
 16 17  2  0
 16 18  2  0
M  END
> <Uni-Dock RESULT> 
ENERGY=   -5.988  LOWER_BOUND=    2.697  UPPER_BOUND=    3.549
INTER + INTRA:          -5.988
INTER:                  -5.988
INTRA:                   0.000
UNBOUND:                 0.000

$$$$

     RDKit          3D

 18 11  0  0  0  0  0  0  0  0999 V2000
   42.9522    5.5895   11.8722 Si  0  0  0  0  0  4  0  0  0  0  0  0
   43.1517    5.8790   10.3392 O   0  0  0  0  0  0  0  0  0  0  0  0
   42.7066    5.4525   13.4248 O   0  0  0  0  0  0  0  0  0  0  0  0
   43.0716    4.6503   12.6520 Mg  0  0  0  0  0  2  0  0  0  0  0  0
   43.3135    4.9278   10.9058 O   0  0  0  0  0  0  0  0  0  0  0  0
   43.0709    4.6494   12.6574 Mg  0  0  0  0  0  2  0  0  0  0  0  0
   43.3142    4.9286   10.9004 O   0  0  0  0  0  0  0  0  0  0  0  0
   43.0717    4.6503   12.6518 Mg  0  0  0  0  0  2  0  0  0  0  0  0
   43.3135    4.9278   10.9060 O   0  0  0  0  0  0  0  0  0  0  0  0
   43.1630    4.8902   11.7861 Si  0  0  0  0  0  4  0  0  0  0  0  0
   42.9956    4.4958   13.3037 O   0  0  0  0  0  0  0  0  0  0  0  0
   43.4191    4.9811   10.2468 O   0  0  0  0  0  0  0  0  0  0  0  0
   43.3871    4.0923   11.7782 Si  0  0  0  0  0  4  0  0  0  0  0  0
   43.6691    4.1008   10.2227 O   0  0  0  0  0  0  0  0  0  0  0  0
   42.9577    4.7222   13.1654 O   0  0  0  0  0  0  0  0  0  0  0  0
   43.1616    4.8930   11.7897 Si  0  0  0  0  0  4  0  0  0  0  0  0
   42.9969    4.4950   13.2977 O   0  0  0  0  0  0  0  0  0  0  0  0
   43.4192    4.9792   10.2493 O   0  0  0  0  0  0  0  0  0  0  0  0
  1  2  2  0
  1  3  2  0
  4  5  2  0
  6  7  2  0
  8  9  2  0
 10 11  2  0
 10 12  2  0
 13 14  2  0
 13 15  2  0
 16 17  2  0
 16 18  2  0
M  END
> <Uni-Dock RESULT> 
ENERGY=   -5.943  LOWER_BOUND=    6.070  UPPER_BOUND=    7.080
INTER + INTRA:          -5.943
INTER:                  -5.943
INTRA:                   0.000
UNBOUND:                 0.000

$$$$

     RDKit          3D

 18 11  0  0  0  0  0  0  0  0999 V2000
   44.6306    3.6065    9.3955 Si  0  0  0  0  0  4  0  0  0  0  0  0
   44.0977    2.3333   10.1496 O   0  0  0  0  0  0  0  0  0  0  0  0
   45.0968    4.9711    8.7550 O   0  0  0  0  0  0  0  0  0  0  0  0
   45.2752    3.8728    8.3864 Mg  0  0  0  0  0  2  0  0  0  0  0  0
   44.6927    2.3974    9.2041 O   0  0  0  0  0  0  0  0  0  0  0  0
   45.2770    3.8773    8.3839 Mg  0  0  0  0  0  2  0  0  0  0  0  0
   44.6909    2.3928    9.2067 O   0  0  0  0  0  0  0  0  0  0  0  0
   45.2751    3.8726    8.3865 Mg  0  0  0  0  0  2  0  0  0  0  0  0
   44.6928    2.3975    9.2040 O   0  0  0  0  0  0  0  0  0  0  0  0
   44.9382    3.1905    8.8726 Si  0  0  0  0  0  4  0  0  0  0  0  0
   45.5166    4.3989    8.0411 O   0  0  0  0  0  0  0  0  0  0  0  0
   44.4971    1.8158    9.4721 O   0  0  0  0  0  0  0  0  0  0  0  0
   45.3123    2.7990    8.2453 Si  0  0  0  0  0  4  0  0  0  0  0  0
   44.9060    1.3698    8.7852 O   0  0  0  0  0  0  0  0  0  0  0  0
   45.3741    4.3804    8.2672 O   0  0  0  0  0  0  0  0  0  0  0  0
   44.9377    3.1951    8.8737 Si  0  0  0  0  0  4  0  0  0  0  0  0
   45.5155    4.3930    8.0424 O   0  0  0  0  0  0  0  0  0  0  0  0
   44.4987    1.8172    9.4697 O   0  0  0  0  0  0  0  0  0  0  0  0
  1  2  2  0
  1  3  2  0
  4  5  2  0
  6  7  2  0
  8  9  2  0
 10 11  2  0
 10 12  2  0
 13 14  2  0
 13 15  2  0
 16 17  2  0
 16 18  2  0
M  END
> <Uni-Dock RESULT> 
ENERGY=   -5.940  LOWER_BOUND=    2.849  UPPER_BOUND=    3.331
INTER + INTRA:          -5.940
INTER:                  -5.940
INTRA:                   0.000
UNBOUND:                 0.000

$$$$
