
     RDKit          3D

 18 11  0  0  0  0  0  0  0  0999 V2000
   47.3560    2.4231    6.5350 Si  0  0  0  0  0  4  0  0  0  0  0  0
   46.7004    3.7919    6.1056 O   0  0  0  0  0  0  0  0  0  0  0  0
   47.7261    1.1404    7.3578 O   0  0  0  0  0  0  0  0  0  0  0  0
   46.9659    3.2140    6.3063 Mg  0  0  0  0  0  2  0  0  0  0  0  0
   47.5557    1.6897    7.0260 O   0  0  0  0  0  0  0  0  0  0  0  0
   46.9645    3.2176    6.3046 Mg  0  0  0  0  0  2  0  0  0  0  0  0
   47.5571    1.6860    7.0277 O   0  0  0  0  0  0  0  0  0  0  0  0
   46.9656    3.2149    6.3059 Mg  0  0  0  0  0  2  0  0  0  0  0  0
   47.5561    1.6888    7.0264 O   0  0  0  0  0  0  0  0  0  0  0  0
   47.7197    2.2961    6.0538 Si  0  0  0  0  0  4  0  0  0  0  0  0
   47.1620    3.6558    5.4661 O   0  0  0  0  0  0  0  0  0  0  0  0
   47.8698    1.1353    7.1163 O   0  0  0  0  0  0  0  0  0  0  0  0
   46.9719    2.4605    7.1535 Si  0  0  0  0  0  4  0  0  0  0  0  0
   46.3982    3.8242    6.5889 O   0  0  0  0  0  0  0  0  0  0  0  0
   47.9207    1.2069    6.9472 O   0  0  0  0  0  0  0  0  0  0  0  0
   47.3184    2.4338    6.5875 Si  0  0  0  0  0  4  0  0  0  0  0  0
   47.7473    1.1289    7.3344 O   0  0  0  0  0  0  0  0  0  0  0  0
   46.7168    3.7927    6.0765 O   0  0  0  0  0  0  0  0  0  0  0  0
  1  2  2  0
  1  3  2  0
  4  5  2  0
  6  7  2  0
  8  9  2  0
 10 11  2  0
 10 12  2  0
 13 14  2  0
 13 15  2  0
 16 17  2  0
 16 18  2  0
M  END
> <Uni-Dock RESULT> 
ENERGY=   -7.975  LOWER_BOUND=    0.000  UPPER_BOUND=    0.000
INTER + INTRA:          -7.975
INTER:                  -7.975
INTRA:                   0.000
UNBOUND:                 0.000

$$$$

     RDKit          3D

 18 11  0  0  0  0  0  0  0  0999 V2000
   47.2253    2.5525    6.6952 Si  0  0  0  0  0  4  0  0  0  0  0  0
   47.5582    1.1003    7.2131 O   0  0  0  0  0  0  0  0  0  0  0  0
   46.5743    3.9721    6.5534 O   0  0  0  0  0  0  0  0  0  0  0  0
   47.4020    1.7162    7.0103 Mg  0  0  0  0  0  2  0  0  0  0  0  0
   46.8366    3.3671    6.6308 O   0  0  0  0  0  0  0  0  0  0  0  0
   47.4033    1.7122    7.0112 Mg  0  0  0  0  0  2  0  0  0  0  0  0
   46.8352    3.3710    6.6299 O   0  0  0  0  0  0  0  0  0  0  0  0
   47.4023    1.7152    7.0106 Mg  0  0  0  0  0  2  0  0  0  0  0  0
   46.8362    3.3681    6.6306 O   0  0  0  0  0  0  0  0  0  0  0  0
   47.6146    2.6143    6.2213 Si  0  0  0  0  0  4  0  0  0  0  0  0
   48.0753    1.1492    6.6042 O   0  0  0  0  0  0  0  0  0  0  0  0
   46.7691    3.9436    6.3527 O   0  0  0  0  0  0  0  0  0  0  0  0
   46.7261    2.6011    7.2244 Si  0  0  0  0  0  4  0  0  0  0  0  0
   47.1681    1.1351    7.6286 O   0  0  0  0  0  0  0  0  0  0  0  0
   46.9048    3.8470    6.2600 O   0  0  0  0  0  0  0  0  0  0  0  0
   47.1829    2.5489    6.7449 Si  0  0  0  0  0  4  0  0  0  0  0  0
   46.5933    3.9805    6.5269 O   0  0  0  0  0  0  0  0  0  0  0  0
   47.5816    1.0954    7.1899 O   0  0  0  0  0  0  0  0  0  0  0  0
  1  2  2  0
  1  3  2  0
  4  5  2  0
  6  7  2  0
  8  9  2  0
 10 11  2  0
 10 12  2  0
 13 14  2  0
 13 15  2  0
 16 17  2  0
 16 18  2  0
M  END
> <Uni-Dock RESULT> 
ENERGY=   -7.492  LOWER_BOUND=    0.800  UPPER_BOUND=    2.282
INTER + INTRA:          -7.492
INTER:                  -7.492
INTRA:                   0.000
UNBOUND:                 0.000

$$$$

     RDKit          3D

 18 11  0  0  0  0  0  0  0  0999 V2000
   43.1110    4.9892   11.8488 Si  0  0  0  0  0  4  0  0  0  0  0  0
   43.3852    5.0405   10.2964 O   0  0  0  0  0  0  0  0  0  0  0  0
   42.6976    5.4014   13.3043 O   0  0  0  0  0  0  0  0  0  0  0  0
   43.2622    5.0401   10.9519 Mg  0  0  0  0  0  2  0  0  0  0  0  0
   42.8670    5.2473   12.6811 O   0  0  0  0  0  0  0  0  0  0  0  0
   43.2631    5.0396   10.9477 Mg  0  0  0  0  0  2  0  0  0  0  0  0
   42.8660    5.2478   12.6852 O   0  0  0  0  0  0  0  0  0  0  0  0
   43.2624    5.0399   10.9508 Mg  0  0  0  0  0  2  0  0  0  0  0  0
   42.8667    5.2474   12.6821 O   0  0  0  0  0  0  0  0  0  0  0  0
   43.2797    4.4138   11.9920 Si  0  0  0  0  0  4  0  0  0  0  0  0
   43.6121    4.2884   10.4496 O   0  0  0  0  0  0  0  0  0  0  0  0
   42.7871    5.1350   13.3098 O   0  0  0  0  0  0  0  0  0  0  0  0
   42.8837    5.6806   11.8075 Si  0  0  0  0  0  4  0  0  0  0  0  0
   43.2078    5.5819   10.2606 O   0  0  0  0  0  0  0  0  0  0  0  0
   42.8560    4.9771   13.2282 O   0  0  0  0  0  0  0  0  0  0  0  0
   43.0924    5.0507   11.8368 Si  0  0  0  0  0  4  0  0  0  0  0  0
   42.7053    5.3713   13.3173 O   0  0  0  0  0  0  0  0  0  0  0  0
   43.3961    5.0090   10.2954 O   0  0  0  0  0  0  0  0  0  0  0  0
  1  2  2  0
  1  3  2  0
  4  5  2  0
  6  7  2  0
  8  9  2  0
 10 11  2  0
 10 12  2  0
 13 14  2  0
 13 15  2  0
 16 17  2  0
 16 18  2  0
M  END
> <Uni-Dock RESULT> 
ENERGY=   -6.810  LOWER_BOUND=    6.608  UPPER_BOUND=    7.347
INTER + INTRA:          -6.810
INTER:                  -6.810
INTRA:                   0.000
UNBOUND:                 0.000

$$$$

     RDKit          3D

 18 11  0  0  0  0  0  0  0  0999 V2000
   43.1206    4.9470   11.7947 Si  0  0  0  0  0  4  0  0  0  0  0  0
   42.8211    5.0564   13.3394 O   0  0  0  0  0  0  0  0  0  0  0  0
   43.2577    5.3031   10.2736 O   0  0  0  0  0  0  0  0  0  0  0  0
   42.9409    5.0314   12.6837 Mg  0  0  0  0  0  2  0  0  0  0  0  0
   43.1920    5.1729   10.9214 O   0  0  0  0  0  0  0  0  0  0  0  0
   42.9403    5.0311   12.6880 Mg  0  0  0  0  0  2  0  0  0  0  0  0
   43.1926    5.1733   10.9171 O   0  0  0  0  0  0  0  0  0  0  0  0
   42.9408    5.0313   12.6848 Mg  0  0  0  0  0  2  0  0  0  0  0  0
   43.1922    5.1730   10.9203 O   0  0  0  0  0  0  0  0  0  0  0  0
   43.3262    4.3682   11.7424 Si  0  0  0  0  0  4  0  0  0  0  0  0
   43.0837    4.3011   13.3051 O   0  0  0  0  0  0  0  0  0  0  0  0
   43.3418    5.0374   10.3103 O   0  0  0  0  0  0  0  0  0  0  0  0
   42.8973    5.6377   11.7266 Si  0  0  0  0  0  4  0  0  0  0  0  0
   42.6457    5.5974   13.2895 O   0  0  0  0  0  0  0  0  0  0  0  0
   43.3761    4.8831   10.4168 O   0  0  0  0  0  0  0  0  0  0  0  0
   43.0992    5.0087   11.7970 Si  0  0  0  0  0  4  0  0  0  0  0  0
   43.2694    5.2727   10.2653 O   0  0  0  0  0  0  0  0  0  0  0  0
   42.8308    5.0251   13.3453 O   0  0  0  0  0  0  0  0  0  0  0  0
  1  2  2  0
  1  3  2  0
  4  5  2  0
  6  7  2  0
  8  9  2  0
 10 11  2  0
 10 12  2  0
 13 14  2  0
 13 15  2  0
 16 17  2  0
 16 18  2  0
M  END
> <Uni-Dock RESULT> 
ENERGY=   -6.508  LOWER_BOUND=    6.615  UPPER_BOUND=    7.414
INTER + INTRA:          -6.508
INTER:                  -6.508
INTRA:                   0.000
UNBOUND:                 0.000

$$$$

     RDKit          3D

 18 11  0  0  0  0  0  0  0  0999 V2000
   44.8711    3.1268    8.9308 Si  0  0  0  0  0  4  0  0  0  0  0  0
   45.2784    4.5494    8.3849 O   0  0  0  0  0  0  0  0  0  0  0  0
   44.6932    1.5740    9.0595 O   0  0  0  0  0  0  0  0  0  0  0  0
   45.1158    3.9386    8.5977 Mg  0  0  0  0  0  2  0  0  0  0  0  0
   44.7793    2.2282    8.9857 O   0  0  0  0  0  0  0  0  0  0  0  0
   45.1167    3.9427    8.5968 Mg  0  0  0  0  0  2  0  0  0  0  0  0
   44.7785    2.2241    8.9867 O   0  0  0  0  0  0  0  0  0  0  0  0
   45.1161    3.9396    8.5974 Mg  0  0  0  0  0  2  0  0  0  0  0  0
   44.7791    2.2272    8.9860 O   0  0  0  0  0  0  0  0  0  0  0  0
   44.5805    3.2670    9.4561 Si  0  0  0  0  0  4  0  0  0  0  0  0
   44.9070    4.7644    9.0605 O   0  0  0  0  0  0  0  0  0  0  0  0
   44.5737    1.6957    9.2830 O   0  0  0  0  0  0  0  0  0  0  0  0
   45.1879    2.8363    8.3419 Si  0  0  0  0  0  4  0  0  0  0  0  0
   45.5274    4.3252    7.9226 O   0  0  0  0  0  0  0  0  0  0  0  0
   44.5240    1.8467    9.3879 O   0  0  0  0  0  0  0  0  0  0  0  0
   44.9013    3.1087    8.8757 Si  0  0  0  0  0  4  0  0  0  0  0  0
   44.6767    1.5762    9.0887 O   0  0  0  0  0  0  0  0  0  0  0  0
   45.2647    4.5653    8.4108 O   0  0  0  0  0  0  0  0  0  0  0  0
  1  2  2  0
  1  3  2  0
  4  5  2  0
  6  7  2  0
  8  9  2  0
 10 11  2  0
 10 12  2  0
 13 14  2  0
 13 15  2  0
 16 17  2  0
 16 18  2  0
M  END
> <Uni-Dock RESULT> 
ENERGY=   -6.266  LOWER_BOUND=    3.087  UPPER_BOUND=    3.423
INTER + INTRA:          -6.266
INTER:                  -6.266
INTRA:                   0.000
UNBOUND:                 0.000

$$$$

     RDKit          3D

 18 11  0  0  0  0  0  0  0  0999 V2000
   43.5780    3.6917   11.4931 Si  0  0  0  0  0  4  0  0  0  0  0  0
   43.6293    4.5785   10.1897 O   0  0  0  0  0  0  0  0  0  0  0  0
   43.7243    2.4818   12.4800 O   0  0  0  0  0  0  0  0  0  0  0  0
   43.6166    4.1865   10.7292 Mg  0  0  0  0  0  2  0  0  0  0  0  0
   43.6711    2.9814   12.0460 O   0  0  0  0  0  0  0  0  0  0  0  0
   43.6165    4.1894   10.7261 Mg  0  0  0  0  0  2  0  0  0  0  0  0
   43.6713    2.9785   12.0492 O   0  0  0  0  0  0  0  0  0  0  0  0
   43.6166    4.1873   10.7284 Mg  0  0  0  0  0  2  0  0  0  0  0  0
   43.6712    2.9807   12.0468 O   0  0  0  0  0  0  0  0  0  0  0  0
   43.3321    4.0791   11.9048 Si  0  0  0  0  0  4  0  0  0  0  0  0
   43.3086    5.1052   10.6999 O   0  0  0  0  0  0  0  0  0  0  0  0
   43.6117    2.6976   12.6206 O   0  0  0  0  0  0  0  0  0  0  0  0
   43.8709    3.1478   11.1060 Si  0  0  0  0  0  4  0  0  0  0  0  0
   43.8588    4.1546    9.8838 O   0  0  0  0  0  0  0  0  0  0  0  0
   43.5465    2.8762   12.6341 O   0  0  0  0  0  0  0  0  0  0  0  0
   43.6042    3.6483   11.4518 Si  0  0  0  0  0  4  0  0  0  0  0  0
   43.7114    2.4987   12.5061 O   0  0  0  0  0  0  0  0  0  0  0  0
   43.6161    4.6049   10.2050 O   0  0  0  0  0  0  0  0  0  0  0  0
  1  2  2  0
  1  3  2  0
  4  5  2  0
  6  7  2  0
  8  9  2  0
 10 11  2  0
 10 12  2  0
 13 14  2  0
 13 15  2  0
 16 17  2  0
 16 18  2  0
M  END
> <Uni-Dock RESULT> 
ENERGY=   -5.533  LOWER_BOUND=    5.788  UPPER_BOUND=    6.204
INTER + INTRA:          -5.533
INTER:                  -5.533
INTRA:                   0.000
UNBOUND:                 0.000

$$$$

     RDKit          3D

 18 11  0  0  0  0  0  0  0  0999 V2000
   43.5785    3.9930   12.2288 Si  0  0  0  0  0  4  0  0  0  0  0  0
   42.5635    5.1790   12.4540 O   0  0  0  0  0  0  0  0  0  0  0  0
   44.6989    2.9229   12.4716 O   0  0  0  0  0  0  0  0  0  0  0  0
   42.9999    4.6801   12.3799 Mg  0  0  0  0  0  2  0  0  0  0  0  0
   44.2274    3.3831   12.3897 O   0  0  0  0  0  0  0  0  0  0  0  0
   42.9969    4.6833   12.3799 Mg  0  0  0  0  0  2  0  0  0  0  0  0
   44.2303    3.3800   12.3898 O   0  0  0  0  0  0  0  0  0  0  0  0
   42.9991    4.6809   12.3799 Mg  0  0  0  0  0  2  0  0  0  0  0  0
   44.2281    3.3823   12.3898 O   0  0  0  0  0  0  0  0  0  0  0  0
   43.4630    3.8316   11.6451 Si  0  0  0  0  0  4  0  0  0  0  0  0
   42.3898    4.9939   11.6949 O   0  0  0  0  0  0  0  0  0  0  0  0
   44.6049    2.8945   12.2083 O   0  0  0  0  0  0  0  0  0  0  0  0
   43.8045    4.0874   12.9155 Si  0  0  0  0  0  4  0  0  0  0  0  0
   42.7381    5.2556   12.9921 O   0  0  0  0  0  0  0  0  0  0  0  0
   44.4928    2.9421   12.0618 O   0  0  0  0  0  0  0  0  0  0  0  0
   43.5931    4.0077   12.2908 Si  0  0  0  0  0  4  0  0  0  0  0  0
   44.6966    2.9103   12.4406 O   0  0  0  0  0  0  0  0  0  0  0  0
   42.5513    5.1769   12.4230 O   0  0  0  0  0  0  0  0  0  0  0  0
  1  2  2  0
  1  3  2  0
  4  5  2  0
  6  7  2  0
  8  9  2  0
 10 11  2  0
 10 12  2  0
 13 14  2  0
 13 15  2  0
 16 17  2  0
 16 18  2  0
M  END
> <Uni-Dock RESULT> 
ENERGY=   -5.374  LOWER_BOUND=    6.616  UPPER_BOUND=    7.010
INTER + INTRA:          -5.374
INTER:                  -5.374
INTRA:                   0.000
UNBOUND:                 0.000

$$$$

     RDKit          3D

 18 11  0  0  0  0  0  0  0  0999 V2000
   39.6137   12.8461   15.2474 Si  0  0  0  0  0  4  0  0  0  0  0  0
   38.3412   13.6485   14.7731 O   0  0  0  0  0  0  0  0  0  0  0  0
   40.5941   11.9828   16.1150 O   0  0  0  0  0  0  0  0  0  0  0  0
   38.8687   13.3046   14.9929 Mg  0  0  0  0  0  2  0  0  0  0  0  0
   40.1639   12.3471   15.7641 O   0  0  0  0  0  0  0  0  0  0  0  0
   38.8656   13.3069   14.9911 Mg  0  0  0  0  0  2  0  0  0  0  0  0
   40.1671   12.3448   15.7659 O   0  0  0  0  0  0  0  0  0  0  0  0
   38.8679   13.3052   14.9924 Mg  0  0  0  0  0  2  0  0  0  0  0  0
   40.1647   12.3465   15.7645 O   0  0  0  0  0  0  0  0  0  0  0  0
   39.9946   12.9099   14.7669 Si  0  0  0  0  0  4  0  0  0  0  0  0
   38.8118   13.7496   14.1336 O   0  0  0  0  0  0  0  0  0  0  0  0
   40.7215   12.0442   15.8721 O   0  0  0  0  0  0  0  0  0  0  0  0
   39.2611   12.7009   15.8688 Si  0  0  0  0  0  4  0  0  0  0  0  0
   38.0624   13.5366   15.2585 O   0  0  0  0  0  0  0  0  0  0  0  0
   40.7288   12.1251   15.6997 O   0  0  0  0  0  0  0  0  0  0  0  0
   39.5756   12.8376   15.2999 Si  0  0  0  0  0  4  0  0  0  0  0  0
   40.6184   11.9832   16.0918 O   0  0  0  0  0  0  0  0  0  0  0  0
   38.3550   13.6566   14.7438 O   0  0  0  0  0  0  0  0  0  0  0  0
  1  2  2  0
  1  3  2  0
  4  5  2  0
  6  7  2  0
  8  9  2  0
 10 11  2  0
 10 12  2  0
 13 14  2  0
 13 15  2  0
 16 17  2  0
 16 18  2  0
M  END
> <Uni-Dock RESULT> 
ENERGY=   -5.294  LOWER_BOUND=   15.122  UPPER_BOUND=   15.625
INTER + INTRA:          -5.294
INTER:                  -5.294
INTRA:                   0.000
UNBOUND:                 0.000

$$$$
