
     RDKit          3D

 18 11  0  0  0  0  0  0  0  0999 V2000
   47.6490    2.2600    6.2881 Si  0  0  0  0  0  4  0  0  0  0  0  0
   47.1264    3.2669    5.2082 O   0  0  0  0  0  0  0  0  0  0  0  0
   47.5657    1.1244    7.3873 O   0  0  0  0  0  0  0  0  0  0  0  0
   47.2065    2.8138    5.6668 Mg  0  0  0  0  0  2  0  0  0  0  0  0
   47.8273    1.6703    6.8981 O   0  0  0  0  0  0  0  0  0  0  0  0
   47.2058    2.8150    5.6654 Mg  0  0  0  0  0  2  0  0  0  0  0  0
   47.8280    1.6690    6.8995 O   0  0  0  0  0  0  0  0  0  0  0  0
   47.2064    2.8140    5.6666 Mg  0  0  0  0  0  2  0  0  0  0  0  0
   47.8274    1.6701    6.8983 O   0  0  0  0  0  0  0  0  0  0  0  0
   47.6717    2.2238    6.3277 Si  0  0  0  0  0  4  0  0  0  0  0  0
   47.4393    3.3198    5.2116 O   0  0  0  0  0  0  0  0  0  0  0  0
   47.2150    1.1023    7.3470 O   0  0  0  0  0  0  0  0  0  0  0  0
   47.4894    2.2293    6.2900 Si  0  0  0  0  0  4  0  0  0  0  0  0
   46.9877    3.2483    5.2019 O   0  0  0  0  0  0  0  0  0  0  0  0
   48.0736    1.2484    7.3553 O   0  0  0  0  0  0  0  0  0  0  0  0
   47.4150    2.2045    6.3012 Si  0  0  0  0  0  4  0  0  0  0  0  0
   48.1068    1.2683    7.3417 O   0  0  0  0  0  0  0  0  0  0  0  0
   47.0290    3.2532    5.2044 O   0  0  0  0  0  0  0  0  0  0  0  0
  1  2  2  0
  1  3  2  0
  4  5  2  0
  6  7  2  0
  8  9  2  0
 10 11  2  0
 10 12  2  0
 13 14  2  0
 13 15  2  0
 16 17  2  0
 16 18  2  0
M  END
> <Uni-Dock RESULT> 
ENERGY=   -8.655  LOWER_BOUND=    0.000  UPPER_BOUND=    0.000
INTER + INTRA:          -8.655
INTER:                  -8.655
INTRA:                   0.000
UNBOUND:                 0.000

$$$$

     RDKit          3D

 18 11  0  0  0  0  0  0  0  0999 V2000
   47.4781    2.2274    6.3650 Si  0  0  0  0  0  4  0  0  0  0  0  0
   47.5508    1.2365    7.5757 O   0  0  0  0  0  0  0  0  0  0  0  0
   47.8269    2.8184    4.9389 O   0  0  0  0  0  0  0  0  0  0  0  0
   47.6174    1.5611    7.0169 Mg  0  0  0  0  0  2  0  0  0  0  0  0
   47.5173    2.7078    5.6443 O   0  0  0  0  0  0  0  0  0  0  0  0
   47.6175    1.5598    7.0185 Mg  0  0  0  0  0  2  0  0  0  0  0  0
   47.5172    2.7091    5.6428 O   0  0  0  0  0  0  0  0  0  0  0  0
   47.6174    1.5609    7.0171 Mg  0  0  0  0  0  2  0  0  0  0  0  0
   47.5173    2.7080    5.6441 O   0  0  0  0  0  0  0  0  0  0  0  0
   47.4729    2.2662    6.3218 Si  0  0  0  0  0  4  0  0  0  0  0  0
   47.3366    1.4509    7.6700 O   0  0  0  0  0  0  0  0  0  0  0  0
   48.0573    2.5567    4.8798 O   0  0  0  0  0  0  0  0  0  0  0  0
   47.5882    2.1203    6.3123 Si  0  0  0  0  0  4  0  0  0  0  0  0
   47.6445    1.1387    7.5400 O   0  0  0  0  0  0  0  0  0  0  0  0
   47.4693    3.1444    5.1396 O   0  0  0  0  0  0  0  0  0  0  0  0
   47.6424    2.0763    6.2746 Si  0  0  0  0  0  4  0  0  0  0  0  0
   47.4429    3.1589    5.1674 O   0  0  0  0  0  0  0  0  0  0  0  0
   47.6167    1.1682    7.5498 O   0  0  0  0  0  0  0  0  0  0  0  0
  1  2  2  0
  1  3  2  0
  4  5  2  0
  6  7  2  0
  8  9  2  0
 10 11  2  0
 10 12  2  0
 13 14  2  0
 13 15  2  0
 16 17  2  0
 16 18  2  0
M  END
> <Uni-Dock RESULT> 
ENERGY=   -8.381  LOWER_BOUND=    0.895  UPPER_BOUND=    2.292
INTER + INTRA:          -8.381
INTER:                  -8.381
INTRA:                   0.000
UNBOUND:                 0.000

$$$$

     RDKit          3D

 18 11  0  0  0  0  0  0  0  0999 V2000
   42.9941    5.3785   11.8574 Si  0  0  0  0  0  4  0  0  0  0  0  0
   43.2832    5.2077   10.3276 O   0  0  0  0  0  0  0  0  0  0  0  0
   42.8282    4.9422   13.3696 O   0  0  0  0  0  0  0  0  0  0  0  0
   43.1900    5.1396   10.9669 Mg  0  0  0  0  0  2  0  0  0  0  0  0
   42.8551    5.3591   12.7129 O   0  0  0  0  0  0  0  0  0  0  0  0
   43.1904    5.1393   10.9649 Mg  0  0  0  0  0  2  0  0  0  0  0  0
   42.8548    5.3594   12.7149 O   0  0  0  0  0  0  0  0  0  0  0  0
   43.1901    5.1395   10.9666 Mg  0  0  0  0  0  2  0  0  0  0  0  0
   42.8551    5.3591   12.7132 O   0  0  0  0  0  0  0  0  0  0  0  0
   42.9827    5.3883   11.9137 Si  0  0  0  0  0  4  0  0  0  0  0  0
   43.2173    5.5169   10.3550 O   0  0  0  0  0  0  0  0  0  0  0  0
   42.9081    4.6074   13.2884 O   0  0  0  0  0  0  0  0  0  0  0  0
   43.0270    5.2196   11.8484 Si  0  0  0  0  0  4  0  0  0  0  0  0
   43.3132    5.0721   10.3088 O   0  0  0  0  0  0  0  0  0  0  0  0
   42.7275    5.4563   13.3625 O   0  0  0  0  0  0  0  0  0  0  0  0
   43.0407    5.1422   11.8584 Si  0  0  0  0  0  4  0  0  0  0  0  0
   42.7229    5.4935   13.3460 O   0  0  0  0  0  0  0  0  0  0  0  0
   43.3041    5.1123   10.3153 O   0  0  0  0  0  0  0  0  0  0  0  0
  1  2  2  0
  1  3  2  0
  4  5  2  0
  6  7  2  0
  8  9  2  0
 10 11  2  0
 10 12  2  0
 13 14  2  0
 13 15  2  0
 16 17  2  0
 16 18  2  0
M  END
> <Uni-Dock RESULT> 
ENERGY=   -7.216  LOWER_BOUND=    7.597  UPPER_BOUND=    7.795
INTER + INTRA:          -7.216
INTER:                  -7.216
INTRA:                   0.000
UNBOUND:                 0.000

$$$$

     RDKit          3D

 18 11  0  0  0  0  0  0  0  0999 V2000
   42.9797    5.3873   11.8408 Si  0  0  0  0  0  4  0  0  0  0  0  0
   42.7420    5.2166   13.3794 O   0  0  0  0  0  0  0  0  0  0  0  0
   43.3308    4.9515   10.3604 O   0  0  0  0  0  0  0  0  0  0  0  0
   42.8681    5.1486   12.7458 Mg  0  0  0  0  0  2  0  0  0  0  0  0
   43.1347    5.3680   10.9880 O   0  0  0  0  0  0  0  0  0  0  0  0
   42.8678    5.1483   12.7477 Mg  0  0  0  0  0  2  0  0  0  0  0  0
   43.1350    5.3682   10.9860 O   0  0  0  0  0  0  0  0  0  0  0  0
   42.8680    5.1486   12.7461 Mg  0  0  0  0  0  2  0  0  0  0  0  0
   43.1348    5.3680   10.9877 O   0  0  0  0  0  0  0  0  0  0  0  0
   42.9878    5.3971   11.7839 Si  0  0  0  0  0  4  0  0  0  0  0  0
   42.6875    5.5255   13.3312 O   0  0  0  0  0  0  0  0  0  0  0  0
   43.3807    4.6171   10.4639 O   0  0  0  0  0  0  0  0  0  0  0  0
   43.0086    5.2286   11.8604 Si  0  0  0  0  0  4  0  0  0  0  0  0
   42.7646    5.0812   13.4072 O   0  0  0  0  0  0  0  0  0  0  0  0
   43.2309    5.4651   10.3330 O   0  0  0  0  0  0  0  0  0  0  0  0
   43.0252    5.1513   11.8556 Si  0  0  0  0  0  4  0  0  0  0  0  0
   43.2209    5.5023   10.3469 O   0  0  0  0  0  0  0  0  0  0  0  0
   42.7581    5.1213   13.3981 O   0  0  0  0  0  0  0  0  0  0  0  0
  1  2  2  0
  1  3  2  0
  4  5  2  0
  6  7  2  0
  8  9  2  0
 10 11  2  0
 10 12  2  0
 13 14  2  0
 13 15  2  0
 16 17  2  0
 16 18  2  0
M  END
> <Uni-Dock RESULT> 
ENERGY=   -7.002  LOWER_BOUND=    7.689  UPPER_BOUND=    8.039
INTER + INTRA:          -7.002
INTER:                  -7.002
INTRA:                   0.000
UNBOUND:                 0.000

$$$$

     RDKit          3D

 18 11  0  0  0  0  0  0  0  0999 V2000
   44.8110    2.9882    8.7676 Si  0  0  0  0  0  4  0  0  0  0  0  0
   45.5674    1.6178    8.8229 O   0  0  0  0  0  0  0  0  0  0  0  0
   44.6128    4.5372    8.5108 O   0  0  0  0  0  0  0  0  0  0  0  0
   45.3779    2.2353    8.7532 Mg  0  0  0  0  0  2  0  0  0  0  0  0
   44.4924    3.7915    8.6984 O   0  0  0  0  0  0  0  0  0  0  0  0
   45.3789    2.2335    8.7532 Mg  0  0  0  0  0  2  0  0  0  0  0  0
   44.4914    3.7932    8.6983 O   0  0  0  0  0  0  0  0  0  0  0  0
   45.3781    2.2350    8.7532 Mg  0  0  0  0  0  2  0  0  0  0  0  0
   44.4922    3.7918    8.6983 O   0  0  0  0  0  0  0  0  0  0  0  0
   44.7799    3.0375    8.7668 Si  0  0  0  0  0  4  0  0  0  0  0  0
   45.2758    1.5440    8.9242 O   0  0  0  0  0  0  0  0  0  0  0  0
   44.9487    4.5691    8.4049 O   0  0  0  0  0  0  0  0  0  0  0  0
   44.9588    3.0308    8.7152 Si  0  0  0  0  0  4  0  0  0  0  0  0
   45.6978    1.6438    8.7790 O   0  0  0  0  0  0  0  0  0  0  0  0
   44.1488    4.3655    8.6831 O   0  0  0  0  0  0  0  0  0  0  0  0
   45.0251    3.0650    8.6886 Si  0  0  0  0  0  4  0  0  0  0  0  0
   44.1215    4.3382    8.6968 O   0  0  0  0  0  0  0  0  0  0  0  0
   45.6588    1.6370    8.7919 O   0  0  0  0  0  0  0  0  0  0  0  0
  1  2  2  0
  1  3  2  0
  4  5  2  0
  6  7  2  0
  8  9  2  0
 10 11  2  0
 10 12  2  0
 13 14  2  0
 13 15  2  0
 16 17  2  0
 16 18  2  0
M  END
> <Uni-Dock RESULT> 
ENERGY=   -6.661  LOWER_BOUND=    3.647  UPPER_BOUND=    4.211
INTER + INTRA:          -6.661
INTER:                  -6.661
INTRA:                   0.000
UNBOUND:                 0.000

$$$$

     RDKit          3D

 18 11  0  0  0  0  0  0  0  0999 V2000
   44.7927    2.9259    8.8986 Si  0  0  0  0  0  4  0  0  0  0  0  0
   44.1805    4.3524    8.6903 O   0  0  0  0  0  0  0  0  0  0  0  0
   45.7510    1.6950    8.6315 O   0  0  0  0  0  0  0  0  0  0  0  0
   44.5178    3.7976    8.6683 Mg  0  0  0  0  0  2  0  0  0  0  0  0
   45.2021    2.1621    8.9253 O   0  0  0  0  0  0  0  0  0  0  0  0
   44.5170    3.7994    8.6680 Mg  0  0  0  0  0  2  0  0  0  0  0  0
   45.2029    2.1603    8.9256 O   0  0  0  0  0  0  0  0  0  0  0  0
   44.5176    3.7978    8.6683 Mg  0  0  0  0  0  2  0  0  0  0  0  0
   45.2022    2.1618    8.9253 O   0  0  0  0  0  0  0  0  0  0  0  0
   44.8132    2.8723    8.9090 Si  0  0  0  0  0  4  0  0  0  0  0  0
   44.0128    4.2361    8.9334 O   0  0  0  0  0  0  0  0  0  0  0  0
   45.9086    1.8672    8.3659 O   0  0  0  0  0  0  0  0  0  0  0  0
   44.8812    2.9810    8.7740 Si  0  0  0  0  0  4  0  0  0  0  0  0
   44.2509    4.4094    8.5834 O   0  0  0  0  0  0  0  0  0  0  0  0
   45.4477    1.5491    9.0330 O   0  0  0  0  0  0  0  0  0  0  0  0
   44.9311    2.9949    8.7140 Si  0  0  0  0  0  4  0  0  0  0  0  0
   45.4183    1.5529    9.0613 O   0  0  0  0  0  0  0  0  0  0  0  0
   44.2305    4.3917    8.6151 O   0  0  0  0  0  0  0  0  0  0  0  0
  1  2  2  0
  1  3  2  0
  4  5  2  0
  6  7  2  0
  8  9  2  0
 10 11  2  0
 10 12  2  0
 13 14  2  0
 13 15  2  0
 16 17  2  0
 16 18  2  0
M  END
> <Uni-Dock RESULT> 
ENERGY=   -6.639  LOWER_BOUND=    3.600  UPPER_BOUND=    3.802
INTER + INTRA:          -6.639
INTER:                  -6.639
INTRA:                   0.000
UNBOUND:                 0.000

$$$$

     RDKit          3D

 18 11  0  0  0  0  0  0  0  0999 V2000
   43.0928    5.1544   12.2193 Si  0  0  0  0  0  4  0  0  0  0  0  0
   43.3957    4.0343   13.2713 O   0  0  0  0  0  0  0  0  0  0  0  0
   42.2588    6.2824   11.4866 O   0  0  0  0  0  0  0  0  0  0  0  0
   43.1459    4.5072   12.9025 Mg  0  0  0  0  0  2  0  0  0  0  0  0
   42.8219    5.7848   11.6893 O   0  0  0  0  0  0  0  0  0  0  0  0
   43.1463    4.5057   12.9039 Mg  0  0  0  0  0  2  0  0  0  0  0  0
   42.8215    5.7862   11.6879 O   0  0  0  0  0  0  0  0  0  0  0  0
   43.1459    4.5070   12.9027 Mg  0  0  0  0  0  2  0  0  0  0  0  0
   42.8218    5.7850   11.6891 O   0  0  0  0  0  0  0  0  0  0  0  0
   43.0848    5.1955   12.1788 Si  0  0  0  0  0  4  0  0  0  0  0  0
   43.6607    4.0440   13.0970 O   0  0  0  0  0  0  0  0  0  0  0  0
   41.9871    6.2341   11.7078 O   0  0  0  0  0  0  0  0  0  0  0  0
   42.9551    5.1532   12.3056 Si  0  0  0  0  0  4  0  0  0  0  0  0
   43.2815    4.0251   13.3520 O   0  0  0  0  0  0  0  0  0  0  0  0
   42.7150    6.2595   11.2301 O   0  0  0  0  0  0  0  0  0  0  0  0
   42.8838    5.1632   12.3386 Si  0  0  0  0  0  4  0  0  0  0  0  0
   42.7528    6.2461   11.2216 O   0  0  0  0  0  0  0  0  0  0  0  0
   43.3151    4.0285   13.3275 O   0  0  0  0  0  0  0  0  0  0  0  0
  1  2  2  0
  1  3  2  0
  4  5  2  0
  6  7  2  0
  8  9  2  0
 10 11  2  0
 10 12  2  0
 13 14  2  0
 13 15  2  0
 16 17  2  0
 16 18  2  0
M  END
> <Uni-Dock RESULT> 
ENERGY=   -6.626  LOWER_BOUND=    7.983  UPPER_BOUND=    8.395
INTER + INTRA:          -6.626
INTER:                  -6.626
INTRA:                   0.000
UNBOUND:                 0.000

$$$$

     RDKit          3D

 18 11  0  0  0  0  0  0  0  0999 V2000
   43.2153    5.1867   12.4754 Si  0  0  0  0  0  4  0  0  0  0  0  0
   44.5471    5.0662   13.2909 O   0  0  0  0  0  0  0  0  0  0  0  0
   42.0270    5.9072   11.7183 O   0  0  0  0  0  0  0  0  0  0  0  0
   44.0201    5.2552   12.9614 Mg  0  0  0  0  0  2  0  0  0  0  0  0
   42.4949    5.3682   12.0287 O   0  0  0  0  0  0  0  0  0  0  0  0
   44.0218    5.2550   12.9624 Mg  0  0  0  0  0  2  0  0  0  0  0  0
   42.4932    5.3683   12.0276 O   0  0  0  0  0  0  0  0  0  0  0  0
   44.0204    5.2551   12.9615 Mg  0  0  0  0  0  2  0  0  0  0  0  0
   42.4946    5.3682   12.0285 O   0  0  0  0  0  0  0  0  0  0  0  0
   43.1656    5.1875   12.4451 Si  0  0  0  0  0  4  0  0  0  0  0  0
   44.4584    4.7640   13.2515 O   0  0  0  0  0  0  0  0  0  0  0  0
   42.1666    6.2245   11.7879 O   0  0  0  0  0  0  0  0  0  0  0  0
   43.2566    5.3428   12.4930 Si  0  0  0  0  0  4  0  0  0  0  0  0
   44.5917    5.1973   13.3117 O   0  0  0  0  0  0  0  0  0  0  0  0
   41.9242    5.3949   11.6804 O   0  0  0  0  0  0  0  0  0  0  0  0
   43.2645    5.4217   12.4940 Si  0  0  0  0  0  4  0  0  0  0  0  0
   41.9302    5.3547   11.6860 O   0  0  0  0  0  0  0  0  0  0  0  0
   44.5777    5.1587   13.3050 O   0  0  0  0  0  0  0  0  0  0  0  0
  1  2  2  0
  1  3  2  0
  4  5  2  0
  6  7  2  0
  8  9  2  0
 10 11  2  0
 10 12  2  0
 13 14  2  0
 13 15  2  0
 16 17  2  0
 16 18  2  0
M  END
> <Uni-Dock RESULT> 
ENERGY=   -6.522  LOWER_BOUND=    8.093  UPPER_BOUND=    8.403
INTER + INTRA:          -6.522
INTER:                  -6.522
INTRA:                   0.000
UNBOUND:                 0.000

$$$$

     RDKit          3D

 18 11  0  0  0  0  0  0  0  0999 V2000
   44.8995    3.5365    8.7533 Si  0  0  0  0  0  4  0  0  0  0  0  0
   45.6765    4.8710    8.4916 O   0  0  0  0  0  0  0  0  0  0  0  0
   44.6924    1.9767    8.9233 O   0  0  0  0  0  0  0  0  0  0  0  0
   45.4811    4.2578    8.5805 Mg  0  0  0  0  0  2  0  0  0  0  0  0
   44.5714    2.7445    8.8828 O   0  0  0  0  0  0  0  0  0  0  0  0
   45.4821    4.2595    8.5802 Mg  0  0  0  0  0  2  0  0  0  0  0  0
   44.5704    2.7428    8.8831 O   0  0  0  0  0  0  0  0  0  0  0  0
   45.4812    4.2581    8.5804 Mg  0  0  0  0  0  2  0  0  0  0  0  0
   44.5713    2.7442    8.8828 O   0  0  0  0  0  0  0  0  0  0  0  0
   44.8676    3.4888    8.7634 Si  0  0  0  0  0  4  0  0  0  0  0  0
   45.3786    4.9688    8.5411 O   0  0  0  0  0  0  0  0  0  0  0  0
   45.0357    1.9180    8.8616 O   0  0  0  0  0  0  0  0  0  0  0  0
   45.0504    3.4815    8.7286 Si  0  0  0  0  0  4  0  0  0  0  0  0
   45.8097    4.8343    8.4688 O   0  0  0  0  0  0  0  0  0  0  0  0
   44.2187    2.1876    8.9975 O   0  0  0  0  0  0  0  0  0  0  0  0
   45.1181    3.4416    8.7188 Si  0  0  0  0  0  4  0  0  0  0  0  0
   44.1908    2.2175    9.0004 O   0  0  0  0  0  0  0  0  0  0  0  0
   45.7699    4.8443    8.4757 O   0  0  0  0  0  0  0  0  0  0  0  0
  1  2  2  0
  1  3  2  0
  4  5  2  0
  6  7  2  0
  8  9  2  0
 10 11  2  0
 10 12  2  0
 13 14  2  0
 13 15  2  0
 16 17  2  0
 16 18  2  0
M  END
> <Uni-Dock RESULT> 
ENERGY=   -6.271  LOWER_BOUND=    3.616  UPPER_BOUND=    3.829
INTER + INTRA:          -6.271
INTER:                  -6.271
INTRA:                   0.000
UNBOUND:                 0.000

$$$$
