
     RDKit          3D

 18 11  0  0  0  0  0  0  0  0999 V2000
   47.5888    1.8529    6.3604 Si  0  0  0  0  0  4  0  0  0  0  0  0
   47.0903    1.0281    7.6147 O   0  0  0  0  0  0  0  0  0  0  0  0
   48.0944    2.7721    5.1773 O   0  0  0  0  0  0  0  0  0  0  0  0
   47.3468    1.7165    7.2534 Mg  0  0  0  0  0  2  0  0  0  0  0  0
   47.8829    2.3903    5.6752 O   0  0  0  0  0  0  0  0  0  0  0  0
   47.3484    1.7186    7.2485 Mg  0  0  0  0  0  2  0  0  0  0  0  0
   47.8812    2.3882    5.6802 O   0  0  0  0  0  0  0  0  0  0  0  0
   47.3481    1.7182    7.2494 Mg  0  0  0  0  0  2  0  0  0  0  0  0
   47.8815    2.3886    5.6793 O   0  0  0  0  0  0  0  0  0  0  0  0
   47.6289    2.1785    6.5383 Si  0  0  0  0  0  4  0  0  0  0  0  0
   47.1194    1.1958    7.6700 O   0  0  0  0  0  0  0  0  0  0  0  0
   48.0707    2.6046    5.0987 O   0  0  0  0  0  0  0  0  0  0  0  0
   47.6259    2.1306    6.4997 Si  0  0  0  0  0  4  0  0  0  0  0  0
   48.0776    2.6034    5.0680 O   0  0  0  0  0  0  0  0  0  0  0  0
   47.1409    1.4261    7.8253 O   0  0  0  0  0  0  0  0  0  0  0  0
   47.6302    2.1554    6.5082 Si  0  0  0  0  0  4  0  0  0  0  0  0
   48.0720    2.5866    5.0737 O   0  0  0  0  0  0  0  0  0  0  0  0
   47.1423    1.4182    7.8111 O   0  0  0  0  0  0  0  0  0  0  0  0
  1  2  2  0
  1  3  2  0
  4  5  2  0
  6  7  2  0
  8  9  2  0
 10 11  2  0
 10 12  2  0
 13 14  2  0
 13 15  2  0
 16 17  2  0
 16 18  2  0
M  END
> <Uni-Dock RESULT> 
ENERGY=   -8.775  LOWER_BOUND=    0.000  UPPER_BOUND=    0.000
INTER + INTRA:          -8.775
INTER:                  -8.775
INTRA:                   0.000
UNBOUND:                 0.000

$$$$

     RDKit          3D

 18 11  0  0  0  0  0  0  0  0999 V2000
   47.6417    1.8123    6.3057 Si  0  0  0  0  0  4  0  0  0  0  0  0
   47.9894    2.5727    4.9631 O   0  0  0  0  0  0  0  0  0  0  0  0
   47.2878    1.1579    7.7011 O   0  0  0  0  0  0  0  0  0  0  0  0
   47.8066    2.5542    5.7608 Mg  0  0  0  0  0  2  0  0  0  0  0  0
   47.4359    1.4355    7.1184 O   0  0  0  0  0  0  0  0  0  0  0  0
   47.8055    2.5507    5.7650 Mg  0  0  0  0  0  2  0  0  0  0  0  0
   47.4370    1.4390    7.1142 O   0  0  0  0  0  0  0  0  0  0  0  0
   47.8057    2.5513    5.7643 Mg  0  0  0  0  0  2  0  0  0  0  0  0
   47.4368    1.4384    7.1150 O   0  0  0  0  0  0  0  0  0  0  0  0
   47.6099    2.1170    6.5189 Si  0  0  0  0  0  4  0  0  0  0  0  0
   47.9673    2.6970    5.0899 O   0  0  0  0  0  0  0  0  0  0  0  0
   47.3063    1.0127    7.5853 O   0  0  0  0  0  0  0  0  0  0  0  0
   47.6126    2.0610    6.4933 Si  0  0  0  0  0  4  0  0  0  0  0  0
   47.3017    0.9845    7.5987 O   0  0  0  0  0  0  0  0  0  0  0  0
   47.9494    2.9390    5.2268 O   0  0  0  0  0  0  0  0  0  0  0  0
   47.6094    2.0797    6.5119 Si  0  0  0  0  0  4  0  0  0  0  0  0
   47.3056    0.9822    7.5807 O   0  0  0  0  0  0  0  0  0  0  0  0
   47.9487    2.9227    5.2262 O   0  0  0  0  0  0  0  0  0  0  0  0
  1  2  2  0
  1  3  2  0
  4  5  2  0
  6  7  2  0
  8  9  2  0
 10 11  2  0
 10 12  2  0
 13 14  2  0
 13 15  2  0
 16 17  2  0
 16 18  2  0
M  END
> <Uni-Dock RESULT> 
ENERGY=   -8.682  LOWER_BOUND=    0.784  UPPER_BOUND=    2.310
INTER + INTRA:          -8.682
INTER:                  -8.682
INTRA:                   0.000
UNBOUND:                 0.000

$$$$

     RDKit          3D

 18 11  0  0  0  0  0  0  0  0999 V2000
   47.4235    2.9394    6.4630 Si  0  0  0  0  0  4  0  0  0  0  0  0
   46.5756    4.0878    7.1442 O   0  0  0  0  0  0  0  0  0  0  0  0
   48.1689    1.7423    5.7475 O   0  0  0  0  0  0  0  0  0  0  0  0
   46.6462    3.3942    6.7152 Mg  0  0  0  0  0  2  0  0  0  0  0  0
   47.8532    2.2421    6.0460 O   0  0  0  0  0  0  0  0  0  0  0  0
   46.6500    3.3906    6.7131 Mg  0  0  0  0  0  2  0  0  0  0  0  0
   47.8494    2.2457    6.0481 O   0  0  0  0  0  0  0  0  0  0  0  0
   46.6493    3.3913    6.7135 Mg  0  0  0  0  0  2  0  0  0  0  0  0
   47.8501    2.2450    6.0477 O   0  0  0  0  0  0  0  0  0  0  0  0
   47.1328    2.7460    6.3310 Si  0  0  0  0  0  4  0  0  0  0  0  0
   46.4596    3.9742    7.0688 O   0  0  0  0  0  0  0  0  0  0  0  0
   48.3064    1.8469    5.8180 O   0  0  0  0  0  0  0  0  0  0  0  0
   47.1871    2.7697    6.3479 Si  0  0  0  0  0  4  0  0  0  0  0  0
   48.3354    1.8360    5.8124 O   0  0  0  0  0  0  0  0  0  0  0  0
   46.2266    3.8489    6.9815 O   0  0  0  0  0  0  0  0  0  0  0  0
   47.1697    2.7530    6.3368 Si  0  0  0  0  0  4  0  0  0  0  0  0
   48.3366    1.8517    5.8222 O   0  0  0  0  0  0  0  0  0  0  0  0
   46.2429    3.8498    6.9827 O   0  0  0  0  0  0  0  0  0  0  0  0
  1  2  2  0
  1  3  2  0
  4  5  2  0
  6  7  2  0
  8  9  2  0
 10 11  2  0
 10 12  2  0
 13 14  2  0
 13 15  2  0
 16 17  2  0
 16 18  2  0
M  END
> <Uni-Dock RESULT> 
ENERGY=   -7.986  LOWER_BOUND=    1.526  UPPER_BOUND=    1.706
INTER + INTRA:          -7.986
INTER:                  -7.986
INTRA:                   0.000
UNBOUND:                 0.000

$$$$

     RDKit          3D

 18 11  0  0  0  0  0  0  0  0999 V2000
   47.2704    2.9250    6.2687 Si  0  0  0  0  0  4  0  0  0  0  0  0
   48.3074    1.9915    5.5236 O   0  0  0  0  0  0  0  0  0  0  0  0
   46.2292    3.7769    7.0997 O   0  0  0  0  0  0  0  0  0  0  0  0
   47.8075    2.1691    6.1470 Mg  0  0  0  0  0  2  0  0  0  0  0  0
   46.6652    3.4173    6.7546 O   0  0  0  0  0  0  0  0  0  0  0  0
   47.8039    2.1730    6.1489 Mg  0  0  0  0  0  2  0  0  0  0  0  0
   46.6687    3.4135    6.7527 O   0  0  0  0  0  0  0  0  0  0  0  0
   47.8046    2.1723    6.1486 Mg  0  0  0  0  0  2  0  0  0  0  0  0
   46.6681    3.4141    6.7530 O   0  0  0  0  0  0  0  0  0  0  0  0
   47.2199    2.7030    6.5645 Si  0  0  0  0  0  4  0  0  0  0  0  0
   48.2620    1.9090    5.6758 O   0  0  0  0  0  0  0  0  0  0  0  0
   46.2621    3.8798    6.9476 O   0  0  0  0  0  0  0  0  0  0  0  0
   47.2207    2.7466    6.5209 Si  0  0  0  0  0  4  0  0  0  0  0  0
   46.2463    3.9070    6.9464 O   0  0  0  0  0  0  0  0  0  0  0  0
   48.2420    1.7261    5.8850 O   0  0  0  0  0  0  0  0  0  0  0  0
   47.2142    2.7341    6.5434 Si  0  0  0  0  0  4  0  0  0  0  0  0
   46.2568    3.9054    6.9312 O   0  0  0  0  0  0  0  0  0  0  0  0
   48.2380    1.7402    5.8778 O   0  0  0  0  0  0  0  0  0  0  0  0
  1  2  2  0
  1  3  2  0
  4  5  2  0
  6  7  2  0
  8  9  2  0
 10 11  2  0
 10 12  2  0
 13 14  2  0
 13 15  2  0
 16 17  2  0
 16 18  2  0
M  END
> <Uni-Dock RESULT> 
ENERGY=   -7.852  LOWER_BOUND=    1.603  UPPER_BOUND=    2.040
INTER + INTRA:          -7.852
INTER:                  -7.852
INTRA:                   0.000
UNBOUND:                 0.000

$$$$

     RDKit          3D

 18 11  0  0  0  0  0  0  0  0999 V2000
   43.0701    5.0961   11.8244 Si  0  0  0  0  0  4  0  0  0  0  0  0
   43.4272    4.8957   10.2966 O   0  0  0  0  0  0  0  0  0  0  0  0
   42.6727    5.4044   13.3235 O   0  0  0  0  0  0  0  0  0  0  0  0
   43.1311    5.3333   10.9218 Mg  0  0  0  0  0  2  0  0  0  0  0  0
   42.8378    5.2789   12.6947 O   0  0  0  0  0  0  0  0  0  0  0  0
   43.1302    5.3332   10.9273 Mg  0  0  0  0  0  2  0  0  0  0  0  0
   42.8387    5.2791   12.6891 O   0  0  0  0  0  0  0  0  0  0  0  0
   43.1304    5.3332   10.9263 Mg  0  0  0  0  0  2  0  0  0  0  0  0
   42.8385    5.2791   12.6901 O   0  0  0  0  0  0  0  0  0  0  0  0
   42.9310    5.4408   11.7895 Si  0  0  0  0  0  4  0  0  0  0  0  0
   43.3555    5.0588   10.3130 O   0  0  0  0  0  0  0  0  0  0  0  0
   42.7443    5.2321   13.3292 O   0  0  0  0  0  0  0  0  0  0  0  0
   42.9515    5.3851   11.8064 Si  0  0  0  0  0  4  0  0  0  0  0  0
   42.7447    5.2190   13.3579 O   0  0  0  0  0  0  0  0  0  0  0  0
   43.2572    5.3142   10.2604 O   0  0  0  0  0  0  0  0  0  0  0  0
   42.9409    5.4094   11.8085 Si  0  0  0  0  0  4  0  0  0  0  0  0
   42.7519    5.2071   13.3455 O   0  0  0  0  0  0  0  0  0  0  0  0
   43.2606    5.3019   10.2706 O   0  0  0  0  0  0  0  0  0  0  0  0
  1  2  2  0
  1  3  2  0
  4  5  2  0
  6  7  2  0
  8  9  2  0
 10 11  2  0
 10 12  2  0
 13 14  2  0
 13 15  2  0
 16 17  2  0
 16 18  2  0
M  END
> <Uni-Dock RESULT> 
ENERGY=   -7.418  LOWER_BOUND=    7.219  UPPER_BOUND=    8.102
INTER + INTRA:          -7.418
INTER:                  -7.418
INTRA:                   0.000
UNBOUND:                 0.000

$$$$

     RDKit          3D

 18 11  0  0  0  0  0  0  0  0999 V2000
   43.0533    5.0864   11.8311 Si  0  0  0  0  0  4  0  0  0  0  0  0
   42.8181    4.9628   13.3903 O   0  0  0  0  0  0  0  0  0  0  0  0
   43.2523    5.3226   10.2802 O   0  0  0  0  0  0  0  0  0  0  0  0
   42.8129    5.3798   12.6859 Mg  0  0  0  0  0  2  0  0  0  0  0  0
   43.1677    5.2275   10.9301 O   0  0  0  0  0  0  0  0  0  0  0  0
   42.8140    5.3793   12.6805 Mg  0  0  0  0  0  2  0  0  0  0  0  0
   43.1666    5.2280   10.9356 O   0  0  0  0  0  0  0  0  0  0  0  0
   42.8138    5.3794   12.6814 Mg  0  0  0  0  0  2  0  0  0  0  0  0
   43.1668    5.2279   10.9346 O   0  0  0  0  0  0  0  0  0  0  0  0
   42.9483    5.4434   11.8015 Si  0  0  0  0  0  4  0  0  0  0  0  0
   42.7747    5.1300   13.3435 O   0  0  0  0  0  0  0  0  0  0  0  0
   43.3025    5.1449   10.3067 O   0  0  0  0  0  0  0  0  0  0  0  0
   42.9674    5.3851   11.7951 Si  0  0  0  0  0  4  0  0  0  0  0  0
   43.3118    5.1298   10.2806 O   0  0  0  0  0  0  0  0  0  0  0  0
   42.6918    5.3960   13.3483 O   0  0  0  0  0  0  0  0  0  0  0  0
   42.9609    5.4100   11.7884 Si  0  0  0  0  0  4  0  0  0  0  0  0
   43.3128    5.1182   10.2952 O   0  0  0  0  0  0  0  0  0  0  0  0
   42.6973    5.3827   13.3404 O   0  0  0  0  0  0  0  0  0  0  0  0
  1  2  2  0
  1  3  2  0
  4  5  2  0
  6  7  2  0
  8  9  2  0
 10 11  2  0
 10 12  2  0
 13 14  2  0
 13 15  2  0
 16 17  2  0
 16 18  2  0
M  END
> <Uni-Dock RESULT> 
ENERGY=   -7.182  LOWER_BOUND=    7.243  UPPER_BOUND=    7.805
INTER + INTRA:          -7.182
INTER:                  -7.182
INTRA:                   0.000
UNBOUND:                 0.000

$$$$

     RDKit          3D

 18 11  0  0  0  0  0  0  0  0999 V2000
   44.7543    2.9841    8.8374 Si  0  0  0  0  0  4  0  0  0  0  0  0
   45.4029    1.5494    8.9885 O   0  0  0  0  0  0  0  0  0  0  0  0
   44.1954    4.4463    8.6140 O   0  0  0  0  0  0  0  0  0  0  0  0
   45.3852    2.3103    8.6872 Mg  0  0  0  0  0  2  0  0  0  0  0  0
   44.4325    3.8348    8.7051 O   0  0  0  0  0  0  0  0  0  0  0  0
   45.3822    2.3150    8.6872 Mg  0  0  0  0  0  2  0  0  0  0  0  0
   44.4355    3.8301    8.7051 O   0  0  0  0  0  0  0  0  0  0  0  0
   45.3828    2.3142    8.6872 Mg  0  0  0  0  0  2  0  0  0  0  0  0
   44.4350    3.8309    8.7051 O   0  0  0  0  0  0  0  0  0  0  0  0
   45.0123    3.1220    8.6057 Si  0  0  0  0  0  4  0  0  0  0  0  0
   45.5081    1.6435    8.8785 O   0  0  0  0  0  0  0  0  0  0  0  0
   44.0726    4.3671    8.7299 O   0  0  0  0  0  0  0  0  0  0  0  0
   44.9648    3.1096    8.6430 Si  0  0  0  0  0  4  0  0  0  0  0  0
   44.0486    4.3858    8.7385 O   0  0  0  0  0  0  0  0  0  0  0  0
   45.7131    1.7223    8.7071 O   0  0  0  0  0  0  0  0  0  0  0  0
   44.9806    3.1233    8.6266 Si  0  0  0  0  0  4  0  0  0  0  0  0
   44.0467    4.3692    8.7466 O   0  0  0  0  0  0  0  0  0  0  0  0
   45.6993    1.7252    8.7152 O   0  0  0  0  0  0  0  0  0  0  0  0
  1  2  2  0
  1  3  2  0
  4  5  2  0
  6  7  2  0
  8  9  2  0
 10 11  2  0
 10 12  2  0
 13 14  2  0
 13 15  2  0
 16 17  2  0
 16 18  2  0
M  END
> <Uni-Dock RESULT> 
ENERGY=   -6.734  LOWER_BOUND=    3.350  UPPER_BOUND=    3.970
INTER + INTRA:          -6.734
INTER:                  -6.734
INTRA:                   0.000
UNBOUND:                 0.000

$$$$

     RDKit          3D

 18 11  0  0  0  0  0  0  0  0999 V2000
   43.2946    5.4671   12.5140 Si  0  0  0  0  0  4  0  0  0  0  0  0
   44.6242    5.1137   13.2946 O   0  0  0  0  0  0  0  0  0  0  0  0
   41.9396    5.7047   11.7344 O   0  0  0  0  0  0  0  0  0  0  0  0
   43.9193    4.9102   12.9315 Mg  0  0  0  0  0  2  0  0  0  0  0  0
   42.5063    5.6013   12.0609 O   0  0  0  0  0  0  0  0  0  0  0  0
   43.9149    4.9123   12.9288 Mg  0  0  0  0  0  2  0  0  0  0  0  0
   42.5107    5.5991   12.0637 O   0  0  0  0  0  0  0  0  0  0  0  0
   43.9157    4.9119   12.9292 Mg  0  0  0  0  0  2  0  0  0  0  0  0
   42.5099    5.5995   12.0632 O   0  0  0  0  0  0  0  0  0  0  0  0
   43.1671    5.1172   12.4889 Si  0  0  0  0  0  4  0  0  0  0  0  0
   44.5370    4.9599   13.2664 O   0  0  0  0  0  0  0  0  0  0  0  0
   42.0129    5.8753   11.7527 O   0  0  0  0  0  0  0  0  0  0  0  0
   43.1785    5.1777   12.4874 Si  0  0  0  0  0  4  0  0  0  0  0  0
   41.9955    5.8985   11.7402 O   0  0  0  0  0  0  0  0  0  0  0  0
   44.4643    4.6910   13.2611 O   0  0  0  0  0  0  0  0  0  0  0  0
   43.1658    5.1547   12.4834 Si  0  0  0  0  0  4  0  0  0  0  0  0
   42.0109    5.9057   11.7477 O   0  0  0  0  0  0  0  0  0  0  0  0
   44.4616    4.7067   13.2575 O   0  0  0  0  0  0  0  0  0  0  0  0
  1  2  2  0
  1  3  2  0
  4  5  2  0
  6  7  2  0
  8  9  2  0
 10 11  2  0
 10 12  2  0
 13 14  2  0
 13 15  2  0
 16 17  2  0
 16 18  2  0
M  END
> <Uni-Dock RESULT> 
ENERGY=   -6.683  LOWER_BOUND=    8.096  UPPER_BOUND=    8.278
INTER + INTRA:          -6.683
INTER:                  -6.683
INTRA:                   0.000
UNBOUND:                 0.000

$$$$
