
     RDKit          3D

 18 11  0  0  0  0  0  0  0  0999 V2000
   47.3337    2.3756    6.4459 Si  0  0  0  0  0  4  0  0  0  0  0  0
   47.2720    3.3508    5.2020 O   0  0  0  0  0  0  0  0  0  0  0  0
   47.8453    1.1994    7.3620 O   0  0  0  0  0  0  0  0  0  0  0  0
   47.3297    2.9282    5.6996 Mg  0  0  0  0  0  2  0  0  0  0  0  0
   47.8171    1.6249    6.8211 O   0  0  0  0  0  0  0  0  0  0  0  0
   47.3301    2.9273    5.7004 Mg  0  0  0  0  0  2  0  0  0  0  0  0
   47.8167    1.6258    6.8203 O   0  0  0  0  0  0  0  0  0  0  0  0
   47.3298    2.9281    5.6997 Mg  0  0  0  0  0  2  0  0  0  0  0  0
   47.8170    1.6250    6.8210 O   0  0  0  0  0  0  0  0  0  0  0  0
   47.6849    2.2339    6.1693 Si  0  0  0  0  0  4  0  0  0  0  0  0
   47.0932    3.4336    5.3283 O   0  0  0  0  0  0  0  0  0  0  0  0
   47.9420    1.1622    7.2834 O   0  0  0  0  0  0  0  0  0  0  0  0
   47.6516    2.2486    6.1938 Si  0  0  0  0  0  4  0  0  0  0  0  0
   47.9611    1.1490    7.2759 O   0  0  0  0  0  0  0  0  0  0  0  0
   47.1074    3.4321    5.3112 O   0  0  0  0  0  0  0  0  0  0  0  0
   47.3994    2.3473    6.3966 Si  0  0  0  0  0  4  0  0  0  0  0  0
   46.6683    3.5691    5.7117 O   0  0  0  0  0  0  0  0  0  0  0  0
   47.6259    1.2802    7.5452 O   0  0  0  0  0  0  0  0  0  0  0  0
  1  2  2  0
  1  3  2  0
  4  5  2  0
  6  7  2  0
  8  9  2  0
 10 11  2  0
 10 12  2  0
 13 14  2  0
 13 15  2  0
 16 17  2  0
 16 18  2  0
M  END
> <Uni-Dock RESULT> 
ENERGY=   -8.502  LOWER_BOUND=    0.000  UPPER_BOUND=    0.000
INTER + INTRA:          -8.502
INTER:                  -8.502
INTRA:                   0.000
UNBOUND:                 0.000

$$$$

     RDKit          3D

 18 11  0  0  0  0  0  0  0  0999 V2000
   47.3743    2.2524    6.4927 Si  0  0  0  0  0  4  0  0  0  0  0  0
   47.0856    1.5139    7.8615 O   0  0  0  0  0  0  0  0  0  0  0  0
   48.0938    2.5852    5.1305 O   0  0  0  0  0  0  0  0  0  0  0  0
   47.2370    1.7943    7.2889 Mg  0  0  0  0  0  2  0  0  0  0  0  0
   47.9668    2.2648    5.7267 O   0  0  0  0  0  0  0  0  0  0  0  0
   47.2376    1.7946    7.2877 Mg  0  0  0  0  0  2  0  0  0  0  0  0
   47.9662    2.2644    5.7279 O   0  0  0  0  0  0  0  0  0  0  0  0
   47.2371    1.7944    7.2887 Mg  0  0  0  0  0  2  0  0  0  0  0  0
   47.9667    2.2647    5.7269 O   0  0  0  0  0  0  0  0  0  0  0  0
   47.7070    1.9230    6.5198 Si  0  0  0  0  0  4  0  0  0  0  0  0
   46.9137    1.6726    7.8631 O   0  0  0  0  0  0  0  0  0  0  0  0
   48.1850    2.4930    5.1405 O   0  0  0  0  0  0  0  0  0  0  0  0
   47.6751    1.9532    6.5190 Si  0  0  0  0  0  4  0  0  0  0  0  0
   48.2044    2.4798    5.1340 O   0  0  0  0  0  0  0  0  0  0  0  0
   46.9261    1.6557    7.8705 O   0  0  0  0  0  0  0  0  0  0  0  0
   47.4369    2.1923    6.4952 Si  0  0  0  0  0  4  0  0  0  0  0  0
   46.5198    2.1012    7.7786 O   0  0  0  0  0  0  0  0  0  0  0  0
   47.8878    2.7974    5.1025 O   0  0  0  0  0  0  0  0  0  0  0  0
  1  2  2  0
  1  3  2  0
  4  5  2  0
  6  7  2  0
  8  9  2  0
 10 11  2  0
 10 12  2  0
 13 14  2  0
 13 15  2  0
 16 17  2  0
 16 18  2  0
M  END
> <Uni-Dock RESULT> 
ENERGY=   -8.441  LOWER_BOUND=    1.198  UPPER_BOUND=    2.124
INTER + INTRA:          -8.441
INTER:                  -8.441
INTRA:                   0.000
UNBOUND:                 0.000

$$$$

     RDKit          3D

 18 11  0  0  0  0  0  0  0  0999 V2000
   43.0891    5.0346   11.8188 Si  0  0  0  0  0  4  0  0  0  0  0  0
   43.2265    5.3811   10.2815 O   0  0  0  0  0  0  0  0  0  0  0  0
   42.7415    5.2412   13.3422 O   0  0  0  0  0  0  0  0  0  0  0  0
   43.1540    5.2753   10.9242 Mg  0  0  0  0  0  2  0  0  0  0  0  0
   42.8020    5.3904   12.6726 O   0  0  0  0  0  0  0  0  0  0  0  0
   43.1538    5.2754   10.9255 Mg  0  0  0  0  0  2  0  0  0  0  0  0
   42.8023    5.3904   12.6713 O   0  0  0  0  0  0  0  0  0  0  0  0
   43.1540    5.2753   10.9244 Mg  0  0  0  0  0  2  0  0  0  0  0  0
   42.8021    5.3904   12.6724 O   0  0  0  0  0  0  0  0  0  0  0  0
   42.9267    5.4732   11.7833 Si  0  0  0  0  0  4  0  0  0  0  0  0
   43.3103    5.1627   10.2823 O   0  0  0  0  0  0  0  0  0  0  0  0
   42.6970    5.3627   13.3296 O   0  0  0  0  0  0  0  0  0  0  0  0
   42.9423    5.4321   11.7847 Si  0  0  0  0  0  4  0  0  0  0  0  0
   42.6876    5.3841   13.3366 O   0  0  0  0  0  0  0  0  0  0  0  0
   43.3042    5.1823   10.2739 O   0  0  0  0  0  0  0  0  0  0  0  0
   43.0585    5.1158   11.8151 Si  0  0  0  0  0  4  0  0  0  0  0  0
   43.5026    4.6161   10.3835 O   0  0  0  0  0  0  0  0  0  0  0  0
   42.8421    4.9638   13.3769 O   0  0  0  0  0  0  0  0  0  0  0  0
  1  2  2  0
  1  3  2  0
  4  5  2  0
  6  7  2  0
  8  9  2  0
 10 11  2  0
 10 12  2  0
 13 14  2  0
 13 15  2  0
 16 17  2  0
 16 18  2  0
M  END
> <Uni-Dock RESULT> 
ENERGY=   -7.295  LOWER_BOUND=    7.470  UPPER_BOUND=    7.766
INTER + INTRA:          -7.295
INTER:                  -7.295
INTRA:                   0.000
UNBOUND:                 0.000

$$$$

     RDKit          3D

 18 11  0  0  0  0  0  0  0  0999 V2000
   43.0948    5.0381   11.8476 Si  0  0  0  0  0  4  0  0  0  0  0  0
   42.6523    5.4534   13.3084 O   0  0  0  0  0  0  0  0  0  0  0  0
   43.3067    5.1592   10.2904 O   0  0  0  0  0  0  0  0  0  0  0  0
   42.8212    5.3176   12.6899 Mg  0  0  0  0  0  2  0  0  0  0  0  0
   43.1146    5.3385   10.9271 O   0  0  0  0  0  0  0  0  0  0  0  0
   42.8214    5.3176   12.6886 Mg  0  0  0  0  0  2  0  0  0  0  0  0
   43.1144    5.3385   10.9284 O   0  0  0  0  0  0  0  0  0  0  0  0
   42.8212    5.3176   12.6897 Mg  0  0  0  0  0  2  0  0  0  0  0  0
   43.1146    5.3385   10.9273 O   0  0  0  0  0  0  0  0  0  0  0  0
   42.9071    5.4647   11.7956 Si  0  0  0  0  0  4  0  0  0  0  0  0
   42.7424    5.2417   13.3511 O   0  0  0  0  0  0  0  0  0  0  0  0
   43.2541    5.2776   10.2788 O   0  0  0  0  0  0  0  0  0  0  0  0
   42.9243    5.4249   11.8024 Si  0  0  0  0  0  4  0  0  0  0  0  0
   43.2467    5.2979   10.2676 O   0  0  0  0  0  0  0  0  0  0  0  0
   42.7327    5.2613   13.3556 O   0  0  0  0  0  0  0  0  0  0  0  0
   43.0606    5.1169   11.8351 Si  0  0  0  0  0  4  0  0  0  0  0  0
   42.9874    4.7071   13.3593 O   0  0  0  0  0  0  0  0  0  0  0  0
   43.4277    4.8887   10.3112 O   0  0  0  0  0  0  0  0  0  0  0  0
  1  2  2  0
  1  3  2  0
  4  5  2  0
  6  7  2  0
  8  9  2  0
 10 11  2  0
 10 12  2  0
 13 14  2  0
 13 15  2  0
 16 17  2  0
 16 18  2  0
M  END
> <Uni-Dock RESULT> 
ENERGY=   -7.079  LOWER_BOUND=    7.476  UPPER_BOUND=    7.959
INTER + INTRA:          -7.079
INTER:                  -7.079
INTRA:                   0.000
UNBOUND:                 0.000

$$$$

     RDKit          3D

 18 11  0  0  0  0  0  0  0  0999 V2000
   44.7985    2.9985    8.8832 Si  0  0  0  0  0  4  0  0  0  0  0  0
   45.7861    1.8100    8.5450 O   0  0  0  0  0  0  0  0  0  0  0  0
   44.0909    4.4002    8.7457 O   0  0  0  0  0  0  0  0  0  0  0  0
   45.3924    2.3228    8.6529 Mg  0  0  0  0  0  2  0  0  0  0  0  0
   44.5203    3.8818    8.5998 O   0  0  0  0  0  0  0  0  0  0  0  0
   45.3918    2.3239    8.6529 Mg  0  0  0  0  0  2  0  0  0  0  0  0
   44.5209    3.8807    8.5998 O   0  0  0  0  0  0  0  0  0  0  0  0
   45.3923    2.3230    8.6529 Mg  0  0  0  0  0  2  0  0  0  0  0  0
   44.5204    3.8817    8.5998 O   0  0  0  0  0  0  0  0  0  0  0  0
   45.0335    3.1464    8.5053 Si  0  0  0  0  0  4  0  0  0  0  0  0
   45.6779    1.7218    8.7329 O   0  0  0  0  0  0  0  0  0  0  0  0
   44.1576    4.4387    8.6408 O   0  0  0  0  0  0  0  0  0  0  0  0
   45.0126    3.1308    8.5406 Si  0  0  0  0  0  4  0  0  0  0  0  0
   44.1644    4.4535    8.6226 O   0  0  0  0  0  0  0  0  0  0  0  0
   45.6921    1.7225    8.7157 O   0  0  0  0  0  0  0  0  0  0  0  0
   44.8405    3.0284    8.8133 Si  0  0  0  0  0  4  0  0  0  0  0  0
   45.3547    1.5868    9.2054 O   0  0  0  0  0  0  0  0  0  0  0  0
   43.9358    4.3172    8.9850 O   0  0  0  0  0  0  0  0  0  0  0  0
  1  2  2  0
  1  3  2  0
  4  5  2  0
  6  7  2  0
  8  9  2  0
 10 11  2  0
 10 12  2  0
 13 14  2  0
 13 15  2  0
 16 17  2  0
 16 18  2  0
M  END
> <Uni-Dock RESULT> 
ENERGY=   -6.599  LOWER_BOUND=    3.440  UPPER_BOUND=    4.216
INTER + INTRA:          -6.599
INTER:                  -6.599
INTRA:                   0.000
UNBOUND:                 0.000

$$$$

     RDKit          3D

 18 11  0  0  0  0  0  0  0  0999 V2000
   43.3081    5.4038   12.5090 Si  0  0  0  0  0  4  0  0  0  0  0  0
   44.2995    4.4230   13.2556 O   0  0  0  0  0  0  0  0  0  0  0  0
   42.0185    5.8742   11.7344 O   0  0  0  0  0  0  0  0  0  0  0  0
   43.8633    4.7974   12.9410 Mg  0  0  0  0  0  2  0  0  0  0  0  0
   42.4513    5.4484   12.0597 O   0  0  0  0  0  0  0  0  0  0  0  0
   43.8622    4.7979   12.9404 Mg  0  0  0  0  0  2  0  0  0  0  0  0
   42.4524    5.4480   12.0603 O   0  0  0  0  0  0  0  0  0  0  0  0
   43.8631    4.7975   12.9409 Mg  0  0  0  0  0  2  0  0  0  0  0  0
   42.4515    5.4484   12.0598 O   0  0  0  0  0  0  0  0  0  0  0  0
   43.0906    4.9884   12.4990 Si  0  0  0  0  0  4  0  0  0  0  0  0
   44.4209    4.6226   13.2690 O   0  0  0  0  0  0  0  0  0  0  0  0
   41.9604    5.7578   11.7330 O   0  0  0  0  0  0  0  0  0  0  0  0
   43.1124    5.0265   12.5009 Si  0  0  0  0  0  4  0  0  0  0  0  0
   41.9431    5.7413   11.7282 O   0  0  0  0  0  0  0  0  0  0  0  0
   44.4164    4.6010   13.2720 O   0  0  0  0  0  0  0  0  0  0  0  0
   43.2656    5.3281   12.5057 Si  0  0  0  0  0  4  0  0  0  0  0  0
   44.6481    5.1649   13.2530 O   0  0  0  0  0  0  0  0  0  0  0  0
   42.1467    6.1421   11.7347 O   0  0  0  0  0  0  0  0  0  0  0  0
  1  2  2  0
  1  3  2  0
  4  5  2  0
  6  7  2  0
  8  9  2  0
 10 11  2  0
 10 12  2  0
 13 14  2  0
 13 15  2  0
 16 17  2  0
 16 18  2  0
M  END
> <Uni-Dock RESULT> 
ENERGY=   -6.596  LOWER_BOUND=    8.024  UPPER_BOUND=    8.369
INTER + INTRA:          -6.596
INTER:                  -6.596
INTRA:                   0.000
UNBOUND:                 0.000

$$$$

     RDKit          3D

 18 11  0  0  0  0  0  0  0  0999 V2000
   43.5576    4.1707   12.4457 Si  0  0  0  0  0  4  0  0  0  0  0  0
   44.5885    2.9708   12.4471 O   0  0  0  0  0  0  0  0  0  0  0  0
   42.7399    5.4008   12.9956 O   0  0  0  0  0  0  0  0  0  0  0  0
   44.1720    3.4754   12.4856 Mg  0  0  0  0  0  2  0  0  0  0  0  0
   43.1884    4.8780   12.9945 O   0  0  0  0  0  0  0  0  0  0  0  0
   44.1713    3.4764   12.4860 Mg  0  0  0  0  0  2  0  0  0  0  0  0
   43.1891    4.8770   12.9941 O   0  0  0  0  0  0  0  0  0  0  0  0
   44.1719    3.4755   12.4856 Mg  0  0  0  0  0  2  0  0  0  0  0  0
   43.1885    4.8779   12.9945 O   0  0  0  0  0  0  0  0  0  0  0  0
   43.7411    4.1752   12.8773 Si  0  0  0  0  0  4  0  0  0  0  0  0
   44.5071    2.9551   12.2282 O   0  0  0  0  0  0  0  0  0  0  0  0
   42.7924    5.3998   13.1146 O   0  0  0  0  0  0  0  0  0  0  0  0
   43.7251    4.1732   12.8365 Si  0  0  0  0  0  4  0  0  0  0  0  0
   42.7962    5.4070   13.1376 O   0  0  0  0  0  0  0  0  0  0  0  0
   44.5193    2.9499   12.2461 O   0  0  0  0  0  0  0  0  0  0  0  0
   43.5899    4.1738   12.5263 Si  0  0  0  0  0  4  0  0  0  0  0  0
   44.2450    2.9949   11.7032 O   0  0  0  0  0  0  0  0  0  0  0  0
   42.6168    5.4076   12.7254 O   0  0  0  0  0  0  0  0  0  0  0  0
  1  2  2  0
  1  3  2  0
  4  5  2  0
  6  7  2  0
  8  9  2  0
 10 11  2  0
 10 12  2  0
 13 14  2  0
 13 15  2  0
 16 17  2  0
 16 18  2  0
M  END
> <Uni-Dock RESULT> 
ENERGY=   -5.820  LOWER_BOUND=    7.444  UPPER_BOUND=    7.921
INTER + INTRA:          -5.820
INTER:                  -5.820
INTRA:                   0.000
UNBOUND:                 0.000

$$$$

     RDKit          3D

 18 11  0  0  0  0  0  0  0  0999 V2000
   39.3545   12.7963   15.3459 Si  0  0  0  0  0  4  0  0  0  0  0  0
   37.9108   13.4370   15.4324 O   0  0  0  0  0  0  0  0  0  0  0  0
   40.6731   12.0835   15.8333 O   0  0  0  0  0  0  0  0  0  0  0  0
   38.5064   13.1636   15.4369 Mg  0  0  0  0  0  2  0  0  0  0  0  0
   40.0445   12.3629   15.8693 O   0  0  0  0  0  0  0  0  0  0  0  0
   38.5075   13.1630   15.4372 Mg  0  0  0  0  0  2  0  0  0  0  0  0
   40.0434   12.3634   15.8689 O   0  0  0  0  0  0  0  0  0  0  0  0
   38.5066   13.1635   15.4370 Mg  0  0  0  0  0  2  0  0  0  0  0  0
   40.0444   12.3629   15.8692 O   0  0  0  0  0  0  0  0  0  0  0  0
   39.2334   12.7501   15.7966 Si  0  0  0  0  0  4  0  0  0  0  0  0
   37.9560   13.4676   15.2049 O   0  0  0  0  0  0  0  0  0  0  0  0
   40.6370   12.0720   15.9577 O   0  0  0  0  0  0  0  0  0  0  0  0
   39.2430   12.7553   15.7541 Si  0  0  0  0  0  4  0  0  0  0  0  0
   40.6389   12.0658   15.9813 O   0  0  0  0  0  0  0  0  0  0  0  0
   37.9445   13.4686   15.2239 O   0  0  0  0  0  0  0  0  0  0  0  0
   39.3346   12.7865   15.4299 Si  0  0  0  0  0  4  0  0  0  0  0  0
   38.1578   13.4996   14.6533 O   0  0  0  0  0  0  0  0  0  0  0  0
   40.7605   12.1073   15.5505 O   0  0  0  0  0  0  0  0  0  0  0  0
  1  2  2  0
  1  3  2  0
  4  5  2  0
  6  7  2  0
  8  9  2  0
 10 11  2  0
 10 12  2  0
 13 14  2  0
 13 15  2  0
 16 17  2  0
 16 18  2  0
M  END
> <Uni-Dock RESULT> 
ENERGY=   -5.570  LOWER_BOUND=   15.673  UPPER_BOUND=   16.220
INTER + INTRA:          -5.570
INTER:                  -5.570
INTRA:                   0.000
UNBOUND:                 0.000

$$$$
