
     RDKit          3D

 18 11  0  0  0  0  0  0  0  0999 V2000
   47.6248    2.0345    6.4783 Si  0  0  0  0  0  4  0  0  0  0  0  0
   47.2917    0.9917    7.5982 O   0  0  0  0  0  0  0  0  0  0  0  0
   47.9694    2.7122    5.1050 O   0  0  0  0  0  0  0  0  0  0  0  0
   47.8248    2.4108    5.6720 Mg  0  0  0  0  0  2  0  0  0  0  0  0
   47.4325    1.4148    7.1156 O   0  0  0  0  0  0  0  0  0  0  0  0
   47.8242    2.4091    5.6745 Mg  0  0  0  0  0  2  0  0  0  0  0  0
   47.4331    1.4164    7.1132 O   0  0  0  0  0  0  0  0  0  0  0  0
   47.8240    2.4088    5.6749 Mg  0  0  0  0  0  2  0  0  0  0  0  0
   47.4332    1.4167    7.1128 O   0  0  0  0  0  0  0  0  0  0  0  0
   47.6255    1.9730    6.4421 Si  0  0  0  0  0  4  0  0  0  0  0  0
   47.9723    2.7514    5.1110 O   0  0  0  0  0  0  0  0  0  0  0  0
   47.2881    1.0140    7.6284 O   0  0  0  0  0  0  0  0  0  0  0  0
   47.6259    2.0053    6.4574 Si  0  0  0  0  0  4  0  0  0  0  0  0
   47.2883    0.9990    7.6193 O   0  0  0  0  0  0  0  0  0  0  0  0
   47.9717    2.7341    5.1048 O   0  0  0  0  0  0  0  0  0  0  0  0
   47.6251    2.0118    6.4647 Si  0  0  0  0  0  4  0  0  0  0  0  0
   47.2893    0.9971    7.6134 O   0  0  0  0  0  0  0  0  0  0  0  0
   47.9715    2.7293    5.1033 O   0  0  0  0  0  0  0  0  0  0  0  0
  1  2  2  0
  1  3  2  0
  4  5  2  0
  6  7  2  0
  8  9  2  0
 10 11  2  0
 10 12  2  0
 13 14  2  0
 13 15  2  0
 16 17  2  0
 16 18  2  0
M  END
> <Uni-Dock RESULT> 
ENERGY=   -9.092  LOWER_BOUND=    0.000  UPPER_BOUND=    0.000
INTER + INTRA:          -9.092
INTER:                  -9.092
INTRA:                   0.000
UNBOUND:                 0.000

$$$$

     RDKit          3D

 18 11  0  0  0  0  0  0  0  0999 V2000
   47.3554    2.4783    6.5577 Si  0  0  0  0  0  4  0  0  0  0  0  0
   47.8586    1.1241    7.1623 O   0  0  0  0  0  0  0  0  0  0  0  0
   46.7214    3.9022    6.3723 O   0  0  0  0  0  0  0  0  0  0  0  0
   46.9826    3.3058    6.4688 Mg  0  0  0  0  0  2  0  0  0  0  0  0
   47.6410    1.6972    6.9261 O   0  0  0  0  0  0  0  0  0  0  0  0
   46.9837    3.3031    6.4696 Mg  0  0  0  0  0  2  0  0  0  0  0  0
   47.6399    1.6999    6.9253 O   0  0  0  0  0  0  0  0  0  0  0  0
   46.9839    3.3026    6.4697 Mg  0  0  0  0  0  2  0  0  0  0  0  0
   47.6398    1.7004    6.9252 O   0  0  0  0  0  0  0  0  0  0  0  0
   47.3365    2.4845    6.6263 Si  0  0  0  0  0  4  0  0  0  0  0  0
   46.7254    3.9126    6.3342 O   0  0  0  0  0  0  0  0  0  0  0  0
   47.8736    1.1074    7.1320 O   0  0  0  0  0  0  0  0  0  0  0  0
   47.3447    2.4844    6.5914 Si  0  0  0  0  0  4  0  0  0  0  0  0
   47.8689    1.1091    7.1488 O   0  0  0  0  0  0  0  0  0  0  0  0
   46.7219    3.9110    6.3522 O   0  0  0  0  0  0  0  0  0  0  0  0
   47.3483    2.4808    6.5831 Si  0  0  0  0  0  4  0  0  0  0  0  0
   47.8660    1.1133    7.1524 O   0  0  0  0  0  0  0  0  0  0  0  0
   46.7211    3.9104    6.3570 O   0  0  0  0  0  0  0  0  0  0  0  0
  1  2  2  0
  1  3  2  0
  4  5  2  0
  6  7  2  0
  8  9  2  0
 10 11  2  0
 10 12  2  0
 13 14  2  0
 13 15  2  0
 16 17  2  0
 16 18  2  0
M  END
> <Uni-Dock RESULT> 
ENERGY=   -8.599  LOWER_BOUND=    1.248  UPPER_BOUND=    1.257
INTER + INTRA:          -8.599
INTER:                  -8.599
INTRA:                   0.000
UNBOUND:                 0.000

$$$$

     RDKit          3D

 18 11  0  0  0  0  0  0  0  0999 V2000
   42.9772    5.4106   11.7963 Si  0  0  0  0  0  4  0  0  0  0  0  0
   42.7202    5.2863   13.3361 O   0  0  0  0  0  0  0  0  0  0  0  0
   43.3350    5.1039   10.2990 O   0  0  0  0  0  0  0  0  0  0  0  0
   43.1888    5.2141   10.9313 Mg  0  0  0  0  0  2  0  0  0  0  0  0
   42.8328    5.3198   12.6897 O   0  0  0  0  0  0  0  0  0  0  0  0
   43.1882    5.2143   10.9343 Mg  0  0  0  0  0  2  0  0  0  0  0  0
   42.8334    5.3197   12.6868 O   0  0  0  0  0  0  0  0  0  0  0  0
   43.1881    5.2143   10.9347 Mg  0  0  0  0  0  2  0  0  0  0  0  0
   42.8335    5.3196   12.6863 O   0  0  0  0  0  0  0  0  0  0  0  0
   42.9923    5.3419   11.8085 Si  0  0  0  0  0  4  0  0  0  0  0  0
   43.3305    5.1375   10.2782 O   0  0  0  0  0  0  0  0  0  0  0  0
   42.7097    5.3215   13.3449 O   0  0  0  0  0  0  0  0  0  0  0  0
   42.9855    5.3758   11.7993 Si  0  0  0  0  0  4  0  0  0  0  0  0
   42.7134    5.3046   13.3477 O   0  0  0  0  0  0  0  0  0  0  0  0
   43.3335    5.1205   10.2846 O   0  0  0  0  0  0  0  0  0  0  0  0
   42.9829    5.3851   11.8006 Si  0  0  0  0  0  4  0  0  0  0  0  0
   42.7153    5.2996   13.3444 O   0  0  0  0  0  0  0  0  0  0  0  0
   43.3343    5.1161   10.2866 O   0  0  0  0  0  0  0  0  0  0  0  0
  1  2  2  0
  1  3  2  0
  4  5  2  0
  6  7  2  0
  8  9  2  0
 10 11  2  0
 10 12  2  0
 13 14  2  0
 13 15  2  0
 16 17  2  0
 16 18  2  0
M  END
> <Uni-Dock RESULT> 
ENERGY=   -7.499  LOWER_BOUND=    7.650  UPPER_BOUND=    7.904
INTER + INTRA:          -7.499
INTER:                  -7.499
INTRA:                   0.000
UNBOUND:                 0.000

$$$$

     RDKit          3D

 18 11  0  0  0  0  0  0  0  0999 V2000
   43.1315    5.1248   11.8331 Si  0  0  0  0  0  4  0  0  0  0  0  0
   43.2571    5.2088   10.2743 O   0  0  0  0  0  0  0  0  0  0  0  0
   42.6987    5.3550   13.3243 O   0  0  0  0  0  0  0  0  0  0  0  0
   42.8674    5.2719   12.6934 Mg  0  0  0  0  0  2  0  0  0  0  0  0
   43.1908    5.1872   10.9276 O   0  0  0  0  0  0  0  0  0  0  0  0
   42.8680    5.2718   12.6905 Mg  0  0  0  0  0  2  0  0  0  0  0  0
   43.1902    5.1873   10.9305 O   0  0  0  0  0  0  0  0  0  0  0  0
   42.8681    5.2718   12.6900 Mg  0  0  0  0  0  2  0  0  0  0  0  0
   43.1902    5.1874   10.9310 O   0  0  0  0  0  0  0  0  0  0  0  0
   43.0833    5.1749   11.8168 Si  0  0  0  0  0  4  0  0  0  0  0  0
   42.7202    5.3307   13.3472 O   0  0  0  0  0  0  0  0  0  0  0  0
   43.2838    5.1831   10.2675 O   0  0  0  0  0  0  0  0  0  0  0  0
   43.1066    5.1502   11.8281 Si  0  0  0  0  0  4  0  0  0  0  0  0
   43.2719    5.1955   10.2637 O   0  0  0  0  0  0  0  0  0  0  0  0
   42.7088    5.3430   13.3397 O   0  0  0  0  0  0  0  0  0  0  0  0
   43.1136    5.1434   11.8273 Si  0  0  0  0  0  4  0  0  0  0  0  0
   43.2679    5.1991   10.2668 O   0  0  0  0  0  0  0  0  0  0  0  0
   42.7058    5.3463   13.3375 O   0  0  0  0  0  0  0  0  0  0  0  0
  1  2  2  0
  1  3  2  0
  4  5  2  0
  6  7  2  0
  8  9  2  0
 10 11  2  0
 10 12  2  0
 13 14  2  0
 13 15  2  0
 16 17  2  0
 16 18  2  0
M  END
> <Uni-Dock RESULT> 
ENERGY=   -7.047  LOWER_BOUND=    7.702  UPPER_BOUND=    8.148
INTER + INTRA:          -7.047
INTER:                  -7.047
INTRA:                   0.000
UNBOUND:                 0.000

$$$$

     RDKit          3D

 18 11  0  0  0  0  0  0  0  0999 V2000
   44.8547    2.9269    8.9003 Si  0  0  0  0  0  4  0  0  0  0  0  0
   45.4599    1.4868    8.7886 O   0  0  0  0  0  0  0  0  0  0  0  0
   44.1455    4.2916    8.5864 O   0  0  0  0  0  0  0  0  0  0  0  0
   44.4396    3.7137    8.6998 Mg  0  0  0  0  0  2  0  0  0  0  0  0
   45.2006    2.0898    8.8170 O   0  0  0  0  0  0  0  0  0  0  0  0
   44.4408    3.7109    8.7000 Mg  0  0  0  0  0  2  0  0  0  0  0  0
   45.1993    2.0925    8.8168 O   0  0  0  0  0  0  0  0  0  0  0  0
   44.4410    3.7105    8.7001 Mg  0  0  0  0  0  2  0  0  0  0  0  0
   45.1991    2.0929    8.8168 O   0  0  0  0  0  0  0  0  0  0  0  0
   44.8404    2.9098    8.8325 Si  0  0  0  0  0  4  0  0  0  0  0  0
   44.1463    4.3137    8.6194 O   0  0  0  0  0  0  0  0  0  0  0  0
   45.4735    1.4816    8.8234 O   0  0  0  0  0  0  0  0  0  0  0  0
   44.8461    2.9212    8.8659 Si  0  0  0  0  0  4  0  0  0  0  0  0
   45.4699    1.4776    8.8067 O   0  0  0  0  0  0  0  0  0  0  0  0
   44.1442    4.3063    8.6027 O   0  0  0  0  0  0  0  0  0  0  0  0
   44.8493    2.9207    8.8752 Si  0  0  0  0  0  4  0  0  0  0  0  0
   45.4671    1.4803    8.8018 O   0  0  0  0  0  0  0  0  0  0  0  0
   44.1438    4.3041    8.5983 O   0  0  0  0  0  0  0  0  0  0  0  0
  1  2  2  0
  1  3  2  0
  4  5  2  0
  6  7  2  0
  8  9  2  0
 10 11  2  0
 10 12  2  0
 13 14  2  0
 13 15  2  0
 16 17  2  0
 16 18  2  0
M  END
> <Uni-Dock RESULT> 
ENERGY=   -6.982  LOWER_BOUND=    3.724  UPPER_BOUND=    3.990
INTER + INTRA:          -6.982
INTER:                  -6.982
INTRA:                   0.000
UNBOUND:                 0.000

$$$$

     RDKit          3D

 18 11  0  0  0  0  0  0  0  0999 V2000
   43.0511    5.1589   12.3619 Si  0  0  0  0  0  4  0  0  0  0  0  0
   43.3572    3.9652   13.3284 O   0  0  0  0  0  0  0  0  0  0  0  0
   42.3268    6.2686   11.5206 O   0  0  0  0  0  0  0  0  0  0  0  0
   42.6134    5.7976   11.8803 Mg  0  0  0  0  0  2  0  0  0  0  0  0
   43.2101    4.4641   12.9270 O   0  0  0  0  0  0  0  0  0  0  0  0
   42.6144    5.7954   11.8821 Mg  0  0  0  0  0  2  0  0  0  0  0  0
   43.2091    4.4663   12.9252 O   0  0  0  0  0  0  0  0  0  0  0  0
   42.6145    5.7950   11.8823 Mg  0  0  0  0  0  2  0  0  0  0  0  0
   43.2089    4.4667   12.9249 O   0  0  0  0  0  0  0  0  0  0  0  0
   42.9860    5.1413   12.3851 Si  0  0  0  0  0  4  0  0  0  0  0  0
   42.3545    6.2885   11.5001 O   0  0  0  0  0  0  0  0  0  0  0  0
   43.3947    3.9627   13.3257 O   0  0  0  0  0  0  0  0  0  0  0  0
   43.0172    5.1525   12.3717 Si  0  0  0  0  0  4  0  0  0  0  0  0
   43.3786    3.9586   13.3312 O   0  0  0  0  0  0  0  0  0  0  0  0
   42.3393    6.2816   11.5080 O   0  0  0  0  0  0  0  0  0  0  0  0
   43.0269    5.1525   12.3704 Si  0  0  0  0  0  4  0  0  0  0  0  0
   43.3727    3.9605   13.3304 O   0  0  0  0  0  0  0  0  0  0  0  0
   42.3354    6.2795   11.5102 O   0  0  0  0  0  0  0  0  0  0  0  0
  1  2  2  0
  1  3  2  0
  4  5  2  0
  6  7  2  0
  8  9  2  0
 10 11  2  0
 10 12  2  0
 13 14  2  0
 13 15  2  0
 16 17  2  0
 16 18  2  0
M  END
> <Uni-Dock RESULT> 
ENERGY=   -6.836  LOWER_BOUND=    8.312  UPPER_BOUND=    8.322
INTER + INTRA:          -6.836
INTER:                  -6.836
INTRA:                   0.000
UNBOUND:                 0.000

$$$$

     RDKit          3D

 18 11  0  0  0  0  0  0  0  0999 V2000
   39.1690    4.7289    5.2358 Si  0  0  0  0  0  4  0  0  0  0  0  0
   38.5999    3.4017    5.8418 O   0  0  0  0  0  0  0  0  0  0  0  0
   40.1158    5.8216    4.6246 O   0  0  0  0  0  0  0  0  0  0  0  0
   39.7338    5.3512    4.8817 Mg  0  0  0  0  0  2  0  0  0  0  0  0
   38.8560    3.9502    5.5865 O   0  0  0  0  0  0  0  0  0  0  0  0
   39.7323    5.3488    4.8829 Mg  0  0  0  0  0  2  0  0  0  0  0  0
   38.8575    3.9525    5.5853 O   0  0  0  0  0  0  0  0  0  0  0  0
   39.7321    5.3484    4.8831 Mg  0  0  0  0  0  2  0  0  0  0  0  0
   38.8577    3.9529    5.5851 O   0  0  0  0  0  0  0  0  0  0  0  0
   39.2268    4.6870    5.2371 Si  0  0  0  0  0  4  0  0  0  0  0  0
   40.0942    5.8543    4.6180 O   0  0  0  0  0  0  0  0  0  0  0  0
   38.5637    3.4107    5.8471 O   0  0  0  0  0  0  0  0  0  0  0  0
   39.1997    4.7103    5.2352 Si  0  0  0  0  0  4  0  0  0  0  0  0
   38.5780    3.4006    5.8474 O   0  0  0  0  0  0  0  0  0  0  0  0
   40.1069    5.8411    4.6197 O   0  0  0  0  0  0  0  0  0  0  0  0
   39.1905    4.7135    5.2362 Si  0  0  0  0  0  4  0  0  0  0  0  0
   38.5841    3.4010    5.8458 O   0  0  0  0  0  0  0  0  0  0  0  0
   40.1101    5.8374    4.6203 O   0  0  0  0  0  0  0  0  0  0  0  0
  1  2  2  0
  1  3  2  0
  4  5  2  0
  6  7  2  0
  8  9  2  0
 10 11  2  0
 10 12  2  0
 13 14  2  0
 13 15  2  0
 16 17  2  0
 16 18  2  0
M  END
> <Uni-Dock RESULT> 
ENERGY=   -6.733  LOWER_BOUND=    8.858  UPPER_BOUND=    8.871
INTER + INTRA:          -6.733
INTER:                  -6.733
INTRA:                   0.000
UNBOUND:                 0.000

$$$$
