
     RDKit          3D

 18 11  0  0  0  0  0  0  0  0999 V2000
   47.6223    1.9926    6.4760 Si  0  0  0  0  0  4  0  0  0  0  0  0
   47.9858    2.7188    5.1226 O   0  0  0  0  0  0  0  0  0  0  0  0
   47.2394    1.0102    7.6413 O   0  0  0  0  0  0  0  0  0  0  0  0
   47.8291    2.3955    5.6934 Mg  0  0  0  0  0  2  0  0  0  0  0  0
   47.4025    1.4190    7.1332 O   0  0  0  0  0  0  0  0  0  0  0  0
   47.8284    2.3937    5.6961 Mg  0  0  0  0  0  2  0  0  0  0  0  0
   47.4033    1.4208    7.1305 O   0  0  0  0  0  0  0  0  0  0  0  0
   47.8294    2.3959    5.6927 Mg  0  0  0  0  0  2  0  0  0  0  0  0
   47.4023    1.4185    7.1339 O   0  0  0  0  0  0  0  0  0  0  0  0
   47.6224    1.9995    6.4836 Si  0  0  0  0  0  4  0  0  0  0  0  0
   47.9843    2.7121    5.1237 O   0  0  0  0  0  0  0  0  0  0  0  0
   47.2408    1.0099    7.6326 O   0  0  0  0  0  0  0  0  0  0  0  0
   47.6252    2.0287    6.5013 Si  0  0  0  0  0  4  0  0  0  0  0  0
   47.9810    2.6930    5.1214 O   0  0  0  0  0  0  0  0  0  0  0  0
   47.2413    0.9999    7.6172 O   0  0  0  0  0  0  0  0  0  0  0  0
   47.6219    1.9839    6.4677 Si  0  0  0  0  0  4  0  0  0  0  0  0
   47.2402    1.0161    7.6434 O   0  0  0  0  0  0  0  0  0  0  0  0
   47.9854    2.7217    5.1287 O   0  0  0  0  0  0  0  0  0  0  0  0
  1  2  2  0
  1  3  2  0
  4  5  2  0
  6  7  2  0
  8  9  2  0
 10 11  2  0
 10 12  2  0
 13 14  2  0
 13 15  2  0
 16 17  2  0
 16 18  2  0
M  END
> <Uni-Dock RESULT> 
ENERGY=   -9.099  LOWER_BOUND=    0.000  UPPER_BOUND=    0.000
INTER + INTRA:          -9.099
INTER:                  -9.099
INTRA:                   0.000
UNBOUND:                 0.000

$$$$

     RDKit          3D

 18 11  0  0  0  0  0  0  0  0999 V2000
   47.6286    2.0229    6.4535 Si  0  0  0  0  0  4  0  0  0  0  0  0
   47.2200    1.0868    7.6567 O   0  0  0  0  0  0  0  0  0  0  0  0
   48.0298    2.6862    5.0864 O   0  0  0  0  0  0  0  0  0  0  0  0
   47.3947    1.4748    7.1334 Mg  0  0  0  0  0  2  0  0  0  0  0  0
   47.8576    2.3891    5.6643 O   0  0  0  0  0  0  0  0  0  0  0  0
   47.3955    1.4765    7.1307 Mg  0  0  0  0  0  2  0  0  0  0  0  0
   47.8567    2.3875    5.6671 O   0  0  0  0  0  0  0  0  0  0  0  0
   47.3945    1.4743    7.1341 Mg  0  0  0  0  0  2  0  0  0  0  0  0
   47.8578    2.3896    5.6636 O   0  0  0  0  0  0  0  0  0  0  0  0
   47.6294    2.0326    6.4569 Si  0  0  0  0  0  4  0  0  0  0  0  0
   47.2212    1.0851    7.6501 O   0  0  0  0  0  0  0  0  0  0  0  0
   48.0278    2.6782    5.0895 O   0  0  0  0  0  0  0  0  0  0  0  0
   47.6294    2.0603    6.4770 Si  0  0  0  0  0  4  0  0  0  0  0  0
   47.2233    1.0753    7.6333 O   0  0  0  0  0  0  0  0  0  0  0  0
   48.0257    2.6602    5.0863 O   0  0  0  0  0  0  0  0  0  0  0  0
   47.6280    2.0119    6.4486 Si  0  0  0  0  0  4  0  0  0  0  0  0
   48.0294    2.6905    5.0911 O   0  0  0  0  0  0  0  0  0  0  0  0
   47.2210    1.0934    7.6570 O   0  0  0  0  0  0  0  0  0  0  0  0
  1  2  2  0
  1  3  2  0
  4  5  2  0
  6  7  2  0
  8  9  2  0
 10 11  2  0
 10 12  2  0
 13 14  2  0
 13 15  2  0
 16 17  2  0
 16 18  2  0
M  END
> <Uni-Dock RESULT> 
ENERGY=   -9.043  LOWER_BOUND=    0.765  UPPER_BOUND=    2.324
INTER + INTRA:          -9.043
INTER:                  -9.043
INTRA:                   0.000
UNBOUND:                 0.000

$$$$

     RDKit          3D

 18 11  0  0  0  0  0  0  0  0999 V2000
   42.9733    5.3690   11.8040 Si  0  0  0  0  0  4  0  0  0  0  0  0
   43.3073    5.1594   10.2757 O   0  0  0  0  0  0  0  0  0  0  0  0
   42.7177    5.2706   13.3514 O   0  0  0  0  0  0  0  0  0  0  0  0
   43.1680    5.2345   10.9314 Mg  0  0  0  0  0  2  0  0  0  0  0  0
   42.8309    5.2982   12.6894 O   0  0  0  0  0  0  0  0  0  0  0  0
   43.1673    5.2346   10.9346 Mg  0  0  0  0  0  2  0  0  0  0  0  0
   42.8315    5.2981   12.6862 O   0  0  0  0  0  0  0  0  0  0  0  0
   43.1681    5.2344   10.9305 Mg  0  0  0  0  0  2  0  0  0  0  0  0
   42.8307    5.2982   12.6903 O   0  0  0  0  0  0  0  0  0  0  0  0
   42.9704    5.3787   11.8054 Si  0  0  0  0  0  4  0  0  0  0  0  0
   43.3076    5.1548   10.2809 O   0  0  0  0  0  0  0  0  0  0  0  0
   42.7202    5.2654   13.3449 O   0  0  0  0  0  0  0  0  0  0  0  0
   42.9626    5.4117   11.8004 Si  0  0  0  0  0  4  0  0  0  0  0  0
   43.3100    5.1385   10.2915 O   0  0  0  0  0  0  0  0  0  0  0  0
   42.7257    5.2487   13.3393 O   0  0  0  0  0  0  0  0  0  0  0  0
   42.9765    5.3574   11.8032 Si  0  0  0  0  0  4  0  0  0  0  0  0
   42.7165    5.2764   13.3493 O   0  0  0  0  0  0  0  0  0  0  0  0
   43.3053    5.1651   10.2786 O   0  0  0  0  0  0  0  0  0  0  0  0
  1  2  2  0
  1  3  2  0
  4  5  2  0
  6  7  2  0
  8  9  2  0
 10 11  2  0
 10 12  2  0
 13 14  2  0
 13 15  2  0
 16 17  2  0
 16 18  2  0
M  END
> <Uni-Dock RESULT> 
ENERGY=   -7.503  LOWER_BOUND=    7.629  UPPER_BOUND=    7.888
INTER + INTRA:          -7.503
INTER:                  -7.503
INTRA:                   0.000
UNBOUND:                 0.000

$$$$

     RDKit          3D

 18 11  0  0  0  0  0  0  0  0999 V2000
   42.9736    5.3535   11.8158 Si  0  0  0  0  0  4  0  0  0  0  0  0
   42.7185    5.2084   13.3666 O   0  0  0  0  0  0  0  0  0  0  0  0
   43.2840    5.1858   10.2844 O   0  0  0  0  0  0  0  0  0  0  0  0
   42.8305    5.2556   12.7031 Mg  0  0  0  0  0  2  0  0  0  0  0  0
   43.1536    5.2428   10.9414 O   0  0  0  0  0  0  0  0  0  0  0  0
   42.8311    5.2556   12.6999 Mg  0  0  0  0  0  2  0  0  0  0  0  0
   43.1530    5.2429   10.9446 O   0  0  0  0  0  0  0  0  0  0  0  0
   42.8303    5.2556   12.7040 Mg  0  0  0  0  0  2  0  0  0  0  0  0
   43.1538    5.2428   10.9405 O   0  0  0  0  0  0  0  0  0  0  0  0
   42.9723    5.3634   11.8131 Si  0  0  0  0  0  4  0  0  0  0  0  0
   42.7203    5.2035   13.3619 O   0  0  0  0  0  0  0  0  0  0  0  0
   43.2836    5.1808   10.2916 O   0  0  0  0  0  0  0  0  0  0  0  0
   42.9658    5.3970   11.8140 Si  0  0  0  0  0  4  0  0  0  0  0  0
   42.7250    5.1865   13.3535 O   0  0  0  0  0  0  0  0  0  0  0  0
   43.2853    5.1641   10.2992 O   0  0  0  0  0  0  0  0  0  0  0  0
   42.9754    5.3418   11.8180 Si  0  0  0  0  0  4  0  0  0  0  0  0
   43.2826    5.1918   10.2858 O   0  0  0  0  0  0  0  0  0  0  0  0
   42.7181    5.2140   13.3630 O   0  0  0  0  0  0  0  0  0  0  0  0
  1  2  2  0
  1  3  2  0
  4  5  2  0
  6  7  2  0
  8  9  2  0
 10 11  2  0
 10 12  2  0
 13 14  2  0
 13 15  2  0
 16 17  2  0
 16 18  2  0
M  END
> <Uni-Dock RESULT> 
ENERGY=   -7.287  LOWER_BOUND=    7.709  UPPER_BOUND=    8.170
INTER + INTRA:          -7.287
INTER:                  -7.287
INTRA:                   0.000
UNBOUND:                 0.000

$$$$

     RDKit          3D

 18 11  0  0  0  0  0  0  0  0999 V2000
   43.0445    5.0808   12.4147 Si  0  0  0  0  0  4  0  0  0  0  0  0
   43.7973    3.9972   13.2809 O   0  0  0  0  0  0  0  0  0  0  0  0
   42.0383    6.0626   11.7124 O   0  0  0  0  0  0  0  0  0  0  0  0
   43.4627    4.4566   12.9176 Mg  0  0  0  0  0  2  0  0  0  0  0  0
   42.4574    5.6372   12.0210 O   0  0  0  0  0  0  0  0  0  0  0  0
   43.4608    4.4587   12.9160 Mg  0  0  0  0  0  2  0  0  0  0  0  0
   42.4592    5.6350   12.0227 O   0  0  0  0  0  0  0  0  0  0  0  0
   43.4632    4.4560   12.9181 Mg  0  0  0  0  0  2  0  0  0  0  0  0
   42.4569    5.6378   12.0206 O   0  0  0  0  0  0  0  0  0  0  0  0
   43.0513    5.0854   12.4085 Si  0  0  0  0  0  4  0  0  0  0  0  0
   43.7906    3.9989   13.2809 O   0  0  0  0  0  0  0  0  0  0  0  0
   42.0382    6.0564   11.7185 O   0  0  0  0  0  0  0  0  0  0  0  0
   43.0802    5.0943   12.3925 Si  0  0  0  0  0  4  0  0  0  0  0  0
   43.7715    3.9998   13.2849 O   0  0  0  0  0  0  0  0  0  0  0  0
   42.0284    6.0465   11.7306 O   0  0  0  0  0  0  0  0  0  0  0  0
   43.0359    5.0760   12.4216 Si  0  0  0  0  0  4  0  0  0  0  0  0
   42.0442    6.0634   11.7101 O   0  0  0  0  0  0  0  0  0  0  0  0
   43.8001    4.0012   13.2762 O   0  0  0  0  0  0  0  0  0  0  0  0
  1  2  2  0
  1  3  2  0
  4  5  2  0
  6  7  2  0
  8  9  2  0
 10 11  2  0
 10 12  2  0
 13 14  2  0
 13 15  2  0
 16 17  2  0
 16 18  2  0
M  END
> <Uni-Dock RESULT> 
ENERGY=   -7.077  LOWER_BOUND=    8.206  UPPER_BOUND=    8.521
INTER + INTRA:          -7.077
INTER:                  -7.077
INTRA:                   0.000
UNBOUND:                 0.000

$$$$

     RDKit          3D

 18 11  0  0  0  0  0  0  0  0999 V2000
   44.8441    2.9229    8.8430 Si  0  0  0  0  0  4  0  0  0  0  0  0
   44.1081    4.3000    8.6130 O   0  0  0  0  0  0  0  0  0  0  0  0
   45.4162    1.4595    8.8140 O   0  0  0  0  0  0  0  0  0  0  0  0
   44.4156    3.7059    8.6991 Mg  0  0  0  0  0  2  0  0  0  0  0  0
   45.1634    2.0824    8.8142 O   0  0  0  0  0  0  0  0  0  0  0  0
   44.4170    3.7029    8.6993 Mg  0  0  0  0  0  2  0  0  0  0  0  0
   45.1620    2.0853    8.8139 O   0  0  0  0  0  0  0  0  0  0  0  0
   44.4152    3.7067    8.6991 Mg  0  0  0  0  0  2  0  0  0  0  0  0
   45.1637    2.0815    8.8142 O   0  0  0  0  0  0  0  0  0  0  0  0
   44.8501    2.9237    8.8512 Si  0  0  0  0  0  4  0  0  0  0  0  0
   44.1077    4.2942    8.6093 O   0  0  0  0  0  0  0  0  0  0  0  0
   45.4107    1.4645    8.8094 O   0  0  0  0  0  0  0  0  0  0  0  0
   44.8665    2.9357    8.8788 Si  0  0  0  0  0  4  0  0  0  0  0  0
   44.1029    4.2807    8.5959 O   0  0  0  0  0  0  0  0  0  0  0  0
   45.3991    1.4660    8.7951 O   0  0  0  0  0  0  0  0  0  0  0  0
   44.8374    2.9211    8.8332 Si  0  0  0  0  0  4  0  0  0  0  0  0
   45.4186    1.4628    8.8188 O   0  0  0  0  0  0  0  0  0  0  0  0
   44.1125    4.2986    8.6179 O   0  0  0  0  0  0  0  0  0  0  0  0
  1  2  2  0
  1  3  2  0
  4  5  2  0
  6  7  2  0
  8  9  2  0
 10 11  2  0
 10 12  2  0
 13 14  2  0
 13 15  2  0
 16 17  2  0
 16 18  2  0
M  END
> <Uni-Dock RESULT> 
ENERGY=   -6.967  LOWER_BOUND=    3.731  UPPER_BOUND=    3.994
INTER + INTRA:          -6.967
INTER:                  -6.967
INTRA:                   0.000
UNBOUND:                 0.000

$$$$

     RDKit          3D

 18 11  0  0  0  0  0  0  0  0999 V2000
   44.8911    3.1979    8.7592 Si  0  0  0  0  0  4  0  0  0  0  0  0
   45.4448    4.6343    8.4111 O   0  0  0  0  0  0  0  0  0  0  0  0
   44.6460    1.6837    9.1010 O   0  0  0  0  0  0  0  0  0  0  0  0
   45.2224    4.0152    8.5600 Mg  0  0  0  0  0  2  0  0  0  0  0  0
   44.7656    2.3287    8.9543 O   0  0  0  0  0  0  0  0  0  0  0  0
   45.2215    4.0121    8.5607 Mg  0  0  0  0  0  2  0  0  0  0  0  0
   44.7665    2.3318    8.9535 O   0  0  0  0  0  0  0  0  0  0  0  0
   45.2226    4.0161    8.5598 Mg  0  0  0  0  0  2  0  0  0  0  0  0
   44.7654    2.3279    8.9545 O   0  0  0  0  0  0  0  0  0  0  0  0
   44.8809    3.1984    8.7599 Si  0  0  0  0  0  4  0  0  0  0  0  0
   45.4483    4.6284    8.4121 O   0  0  0  0  0  0  0  0  0  0  0  0
   44.6528    1.6890    9.0993 O   0  0  0  0  0  0  0  0  0  0  0  0
   44.8485    3.2096    8.7599 Si  0  0  0  0  0  4  0  0  0  0  0  0
   45.4625    4.6151    8.4139 O   0  0  0  0  0  0  0  0  0  0  0  0
   44.6710    1.6912    9.0975 O   0  0  0  0  0  0  0  0  0  0  0  0
   44.9030    3.1964    8.7587 Si  0  0  0  0  0  4  0  0  0  0  0  0
   44.6406    1.6869    9.1007 O   0  0  0  0  0  0  0  0  0  0  0  0
   45.4384    4.6327    8.4120 O   0  0  0  0  0  0  0  0  0  0  0  0
  1  2  2  0
  1  3  2  0
  4  5  2  0
  6  7  2  0
  8  9  2  0
 10 11  2  0
 10 12  2  0
 13 14  2  0
 13 15  2  0
 16 17  2  0
 16 18  2  0
M  END
> <Uni-Dock RESULT> 
ENERGY=   -6.735  LOWER_BOUND=    3.817  UPPER_BOUND=    3.827
INTER + INTRA:          -6.735
INTER:                  -6.735
INTRA:                   0.000
UNBOUND:                 0.000

$$$$

     RDKit          3D

 18 11  0  0  0  0  0  0  0  0999 V2000
   44.9160    3.4406    8.6528 Si  0  0  0  0  0  4  0  0  0  0  0  0
   44.5306    1.9487    8.9945 O   0  0  0  0  0  0  0  0  0  0  0  0
   45.5421    4.8751    8.5115 O   0  0  0  0  0  0  0  0  0  0  0  0
   44.7072    2.5851    8.8577 Mg  0  0  0  0  0  2  0  0  0  0  0  0
   45.2853    4.2578    8.5815 O   0  0  0  0  0  0  0  0  0  0  0  0
   44.7083    2.5882    8.8572 Mg  0  0  0  0  0  2  0  0  0  0  0  0
   45.2842    4.2547    8.5820 O   0  0  0  0  0  0  0  0  0  0  0  0
   44.7070    2.5843    8.8578 Mg  0  0  0  0  0  2  0  0  0  0  0  0
   45.2855    4.2587    8.5814 O   0  0  0  0  0  0  0  0  0  0  0  0
   44.9092    3.4444    8.6462 Si  0  0  0  0  0  4  0  0  0  0  0  0
   44.5359    1.9525    8.9968 O   0  0  0  0  0  0  0  0  0  0  0  0
   45.5437    4.8676    8.5158 O   0  0  0  0  0  0  0  0  0  0  0  0
   44.8823    3.4477    8.6251 Si  0  0  0  0  0  4  0  0  0  0  0  0
   44.5521    1.9584    9.0062 O   0  0  0  0  0  0  0  0  0  0  0  0
   45.5544    4.8583    8.5275 O   0  0  0  0  0  0  0  0  0  0  0  0
   44.9245    3.4370    8.6605 Si  0  0  0  0  0  4  0  0  0  0  0  0
   45.5369    4.8745    8.5079 O   0  0  0  0  0  0  0  0  0  0  0  0
   44.5273    1.9528    8.9903 O   0  0  0  0  0  0  0  0  0  0  0  0
  1  2  2  0
  1  3  2  0
  4  5  2  0
  6  7  2  0
  8  9  2  0
 10 11  2  0
 10 12  2  0
 13 14  2  0
 13 15  2  0
 16 17  2  0
 16 18  2  0
M  END
> <Uni-Dock RESULT> 
ENERGY=   -6.732  LOWER_BOUND=    3.930  UPPER_BOUND=    4.371
INTER + INTRA:          -6.732
INTER:                  -6.732
INTRA:                   0.000
UNBOUND:                 0.000

$$$$

     RDKit          3D

 18 11  0  0  0  0  0  0  0  0999 V2000
   44.9229    3.9322    8.5610 Si  0  0  0  0  0  4  0  0  0  0  0  0
   45.9894    3.7353    7.4143 O   0  0  0  0  0  0  0  0  0  0  0  0
   43.8369    4.4225    9.5855 O   0  0  0  0  0  0  0  0  0  0  0  0
   45.5316    3.8336    7.8997 Mg  0  0  0  0  0  2  0  0  0  0  0  0
   44.3012    4.2263    9.1408 O   0  0  0  0  0  0  0  0  0  0  0  0
   45.5293    3.8344    7.9020 Mg  0  0  0  0  0  2  0  0  0  0  0  0
   44.3035    4.2256    9.1386 O   0  0  0  0  0  0  0  0  0  0  0  0
   45.5322    3.8334    7.8991 Mg  0  0  0  0  0  2  0  0  0  0  0  0
   44.3006    4.2265    9.1415 O   0  0  0  0  0  0  0  0  0  0  0  0
   44.9221    3.9234    8.5663 Si  0  0  0  0  0  4  0  0  0  0  0  0
   45.9857    3.7409    7.4159 O   0  0  0  0  0  0  0  0  0  0  0  0
   43.8413    4.4256    9.5787 O   0  0  0  0  0  0  0  0  0  0  0  0
   44.9263    3.8912    8.5773 Si  0  0  0  0  0  4  0  0  0  0  0  0
   45.9780    3.7588    7.4160 O   0  0  0  0  0  0  0  0  0  0  0  0
   43.8449    4.4398    9.5676 O   0  0  0  0  0  0  0  0  0  0  0  0
   44.9232    3.9428    8.5554 Si  0  0  0  0  0  4  0  0  0  0  0  0
   43.8385    4.4164    9.5866 O   0  0  0  0  0  0  0  0  0  0  0  0
   45.9875    3.7306    7.4188 O   0  0  0  0  0  0  0  0  0  0  0  0
  1  2  2  0
  1  3  2  0
  4  5  2  0
  6  7  2  0
  8  9  2  0
 10 11  2  0
 10 12  2  0
 13 14  2  0
 13 15  2  0
 16 17  2  0
 16 18  2  0
M  END
> <Uni-Dock RESULT> 
ENERGY=   -6.278  LOWER_BOUND=    4.072  UPPER_BOUND=    4.162
INTER + INTRA:          -6.278
INTER:                  -6.278
INTRA:                   0.000
UNBOUND:                 0.000

$$$$
