
     RDKit          3D

 18 11  0  0  0  0  0  0  0  0999 V2000
   47.4290    1.7646    6.8243 Si  0  0  0  0  0  4  0  0  0  0  0  0
   48.1545    2.5722    5.6749 O   0  0  0  0  0  0  0  0  0  0  0  0
   46.9358    0.5271    7.6782 O   0  0  0  0  0  0  0  0  0  0  0  0
   47.0441    1.3399    7.4336 Mg  0  0  0  0  0  2  0  0  0  0  0  0
   47.9545    1.9578    6.0329 O   0  0  0  0  0  0  0  0  0  0  0  0
   47.0433    1.3394    7.4348 Mg  0  0  0  0  0  2  0  0  0  0  0  0
   47.9553    1.9584    6.0318 O   0  0  0  0  0  0  0  0  0  0  0  0
   47.0424    1.3388    7.4363 Mg  0  0  0  0  0  2  0  0  0  0  0  0
   47.9563    1.9590    6.0303 O   0  0  0  0  0  0  0  0  0  0  0  0
   47.4576    1.8152    6.7769 Si  0  0  0  0  0  4  0  0  0  0  0  0
   46.7257    1.0268    7.9337 O   0  0  0  0  0  0  0  0  0  0  0  0
   48.3145    2.1047    5.4894 O   0  0  0  0  0  0  0  0  0  0  0  0
   47.4651    1.7823    6.7694 Si  0  0  0  0  0  4  0  0  0  0  0  0
   46.7232    1.0439    7.9355 O   0  0  0  0  0  0  0  0  0  0  0  0
   48.3096    2.1205    5.4949 O   0  0  0  0  0  0  0  0  0  0  0  0
   47.4762    1.7462    6.7569 Si  0  0  0  0  0  4  0  0  0  0  0  0
   46.7139    1.0595    7.9476 O   0  0  0  0  0  0  0  0  0  0  0  0
   48.3078    2.1409    5.4955 O   0  0  0  0  0  0  0  0  0  0  0  0
  1  2  2  0
  1  3  2  0
  4  5  2  0
  6  7  2  0
  8  9  2  0
 10 11  2  0
 10 12  2  0
 13 14  2  0
 13 15  2  0
 16 17  2  0
 16 18  2  0
M  END
> <Uni-Dock RESULT> 
ENERGY=   -9.037  LOWER_BOUND=    0.000  UPPER_BOUND=    0.000
INTER + INTRA:          -9.037
INTER:                  -9.037
INTRA:                   0.000
UNBOUND:                 0.000

$$$$

     RDKit          3D

 18 11  0  0  0  0  0  0  0  0999 V2000
   47.5049    1.8257    6.7014 Si  0  0  0  0  0  4  0  0  0  0  0  0
   46.8652    1.0250    7.9053 O   0  0  0  0  0  0  0  0  0  0  0  0
   48.2931    2.0934    5.3558 O   0  0  0  0  0  0  0  0  0  0  0  0
   47.8423    2.2519    6.0656 Mg  0  0  0  0  0  2  0  0  0  0  0  0
   47.2425    1.0883    7.2735 O   0  0  0  0  0  0  0  0  0  0  0  0
   47.8428    2.2529    6.0646 Mg  0  0  0  0  0  2  0  0  0  0  0  0
   47.2420    1.0873    7.2745 O   0  0  0  0  0  0  0  0  0  0  0  0
   47.8435    2.2541    6.0633 Mg  0  0  0  0  0  2  0  0  0  0  0  0
   47.2414    1.0861    7.2758 O   0  0  0  0  0  0  0  0  0  0  0  0
   47.4700    1.8015    6.7633 Si  0  0  0  0  0  4  0  0  0  0  0  0
   48.1019    2.6199    5.5689 O   0  0  0  0  0  0  0  0  0  0  0  0
   47.0553    0.5891    7.6764 O   0  0  0  0  0  0  0  0  0  0  0  0
   47.4846    1.7768    6.7441 Si  0  0  0  0  0  4  0  0  0  0  0  0
   48.0939    2.6306    5.5800 O   0  0  0  0  0  0  0  0  0  0  0  0
   47.0488    0.6031    7.6846 O   0  0  0  0  0  0  0  0  0  0  0  0
   47.4997    1.7450    6.7255 Si  0  0  0  0  0  4  0  0  0  0  0  0
   48.0888    2.6513    5.5845 O   0  0  0  0  0  0  0  0  0  0  0  0
   47.0389    0.6141    7.6987 O   0  0  0  0  0  0  0  0  0  0  0  0
  1  2  2  0
  1  3  2  0
  4  5  2  0
  6  7  2  0
  8  9  2  0
 10 11  2  0
 10 12  2  0
 13 14  2  0
 13 15  2  0
 16 17  2  0
 16 18  2  0
M  END
> <Uni-Dock RESULT> 
ENERGY=   -9.034  LOWER_BOUND=    0.816  UPPER_BOUND=    2.278
INTER + INTRA:          -9.034
INTER:                  -9.034
INTRA:                   0.000
UNBOUND:                 0.000

$$$$

     RDKit          3D

 18 11  0  0  0  0  0  0  0  0999 V2000
   47.3817    1.7166    6.8795 Si  0  0  0  0  0  4  0  0  0  0  0  0
   47.0057    0.2182    7.2160 O   0  0  0  0  0  0  0  0  0  0  0  0
   47.6604    3.2579    7.1041 O   0  0  0  0  0  0  0  0  0  0  0  0
   47.5810    2.5086    6.6985 Mg  0  0  0  0  0  2  0  0  0  0  0  0
   47.1225    0.9286    7.3812 O   0  0  0  0  0  0  0  0  0  0  0  0
   47.5814    2.5100    6.6979 Mg  0  0  0  0  0  2  0  0  0  0  0  0
   47.1221    0.9273    7.3818 O   0  0  0  0  0  0  0  0  0  0  0  0
   47.5819    2.5116    6.6972 Mg  0  0  0  0  0  2  0  0  0  0  0  0
   47.1216    0.9256    7.3825 O   0  0  0  0  0  0  0  0  0  0  0  0
   47.3662    1.6432    6.8805 Si  0  0  0  0  0  4  0  0  0  0  0  0
   47.7446    3.1348    6.5237 O   0  0  0  0  0  0  0  0  0  0  0  0
   46.9445    0.3779    7.7153 O   0  0  0  0  0  0  0  0  0  0  0  0
   47.3637    1.6591    6.9111 Si  0  0  0  0  0  4  0  0  0  0  0  0
   47.7452    3.1249    6.5095 O   0  0  0  0  0  0  0  0  0  0  0  0
   46.9463    0.3719    7.6990 O   0  0  0  0  0  0  0  0  0  0  0  0
   47.3596    1.6729    6.9482 Si  0  0  0  0  0  4  0  0  0  0  0  0
   47.7492    3.1244    6.4880 O   0  0  0  0  0  0  0  0  0  0  0  0
   46.9465    0.3586    7.6833 O   0  0  0  0  0  0  0  0  0  0  0  0
  1  2  2  0
  1  3  2  0
  4  5  2  0
  6  7  2  0
  8  9  2  0
 10 11  2  0
 10 12  2  0
 13 14  2  0
 13 15  2  0
 16 17  2  0
 16 18  2  0
M  END
> <Uni-Dock RESULT> 
ENERGY=   -8.378  LOWER_BOUND=    1.081  UPPER_BOUND=    2.196
INTER + INTRA:          -8.378
INTER:                  -8.378
INTRA:                   0.000
UNBOUND:                 0.000

$$$$

     RDKit          3D

 18 11  0  0  0  0  0  0  0  0999 V2000
   42.9957    5.3788   11.7722 Si  0  0  0  0  0  4  0  0  0  0  0  0
   42.6899    5.6005   13.3075 O   0  0  0  0  0  0  0  0  0  0  0  0
   43.3447    4.6206   10.4279 O   0  0  0  0  0  0  0  0  0  0  0  0
   43.1572    5.2645   10.9594 Mg  0  0  0  0  0  2  0  0  0  0  0  0
   42.8544    5.1938   12.7133 O   0  0  0  0  0  0  0  0  0  0  0  0
   43.1574    5.2646   10.9579 Mg  0  0  0  0  0  2  0  0  0  0  0  0
   42.8542    5.1937   12.7147 O   0  0  0  0  0  0  0  0  0  0  0  0
   43.1578    5.2647   10.9561 Mg  0  0  0  0  0  2  0  0  0  0  0  0
   42.8538    5.1936   12.7166 O   0  0  0  0  0  0  0  0  0  0  0  0
   42.9798    5.4041   11.8410 Si  0  0  0  0  0  4  0  0  0  0  0  0
   43.2829    5.2037   10.3037 O   0  0  0  0  0  0  0  0  0  0  0  0
   42.7547    5.0798   13.3642 O   0  0  0  0  0  0  0  0  0  0  0  0
   42.9851    5.3700   11.8388 Si  0  0  0  0  0  4  0  0  0  0  0  0
   43.2799    5.2204   10.3071 O   0  0  0  0  0  0  0  0  0  0  0  0
   42.7524    5.0971   13.3630 O   0  0  0  0  0  0  0  0  0  0  0  0
   42.9903    5.3306   11.8412 Si  0  0  0  0  0  4  0  0  0  0  0  0
   43.2785    5.2405   10.2987 O   0  0  0  0  0  0  0  0  0  0  0  0
   42.7486    5.1163   13.3690 O   0  0  0  0  0  0  0  0  0  0  0  0
  1  2  2  0
  1  3  2  0
  4  5  2  0
  6  7  2  0
  8  9  2  0
 10 11  2  0
 10 12  2  0
 13 14  2  0
 13 15  2  0
 16 17  2  0
 16 18  2  0
M  END
> <Uni-Dock RESULT> 
ENERGY=   -7.327  LOWER_BOUND=    7.101  UPPER_BOUND=    7.992
INTER + INTRA:          -7.327
INTER:                  -7.327
INTRA:                   0.000
UNBOUND:                 0.000

$$$$

     RDKit          3D

 18 11  0  0  0  0  0  0  0  0999 V2000
   42.9641    5.4098   11.8792 Si  0  0  0  0  0  4  0  0  0  0  0  0
   43.2068    5.5621   10.3243 O   0  0  0  0  0  0  0  0  0  0  0  0
   42.8643    4.7209   13.3002 O   0  0  0  0  0  0  0  0  0  0  0  0
   42.8350    5.3321   12.7020 Mg  0  0  0  0  0  2  0  0  0  0  0  0
   43.1770    5.1871   10.9600 O   0  0  0  0  0  0  0  0  0  0  0  0
   42.8347    5.3322   12.7035 Mg  0  0  0  0  0  2  0  0  0  0  0  0
   43.1772    5.1870   10.9585 O   0  0  0  0  0  0  0  0  0  0  0  0
   42.8343    5.3324   12.7054 Mg  0  0  0  0  0  2  0  0  0  0  0  0
   43.1776    5.1868   10.9567 O   0  0  0  0  0  0  0  0  0  0  0  0
   42.9719    5.4317   11.8079 Si  0  0  0  0  0  4  0  0  0  0  0  0
   42.7246    5.3003   13.3626 O   0  0  0  0  0  0  0  0  0  0  0  0
   43.3214    5.0470   10.3227 O   0  0  0  0  0  0  0  0  0  0  0  0
   42.9783    5.3982   11.8136 Si  0  0  0  0  0  4  0  0  0  0  0  0
   42.7219    5.3166   13.3574 O   0  0  0  0  0  0  0  0  0  0  0  0
   43.3177    5.0640   10.3220 O   0  0  0  0  0  0  0  0  0  0  0  0
   42.9866    5.3593   11.8154 Si  0  0  0  0  0  4  0  0  0  0  0  0
   42.7163    5.3368   13.3636 O   0  0  0  0  0  0  0  0  0  0  0  0
   43.3150    5.0827   10.3141 O   0  0  0  0  0  0  0  0  0  0  0  0
  1  2  2  0
  1  3  2  0
  4  5  2  0
  6  7  2  0
  8  9  2  0
 10 11  2  0
 10 12  2  0
 13 14  2  0
 13 15  2  0
 16 17  2  0
 16 18  2  0
M  END
> <Uni-Dock RESULT> 
ENERGY=   -7.142  LOWER_BOUND=    7.175  UPPER_BOUND=    7.724
INTER + INTRA:          -7.142
INTER:                  -7.142
INTRA:                   0.000
UNBOUND:                 0.000

$$$$

     RDKit          3D

 18 11  0  0  0  0  0  0  0  0999 V2000
   43.1386    5.0935   12.4423 Si  0  0  0  0  0  4  0  0  0  0  0  0
   42.4363    6.2043   11.5633 O   0  0  0  0  0  0  0  0  0  0  0  0
   43.2925    3.8705   13.4345 O   0  0  0  0  0  0  0  0  0  0  0  0
   43.5130    4.5068   12.9065 Mg  0  0  0  0  0  2  0  0  0  0  0  0
   42.4458    5.6319   12.0301 O   0  0  0  0  0  0  0  0  0  0  0  0
   43.5139    4.5059   12.9072 Mg  0  0  0  0  0  2  0  0  0  0  0  0
   42.4449    5.6328   12.0294 O   0  0  0  0  0  0  0  0  0  0  0  0
   43.5150    4.5047   12.9082 Mg  0  0  0  0  0  2  0  0  0  0  0  0
   42.4437    5.6340   12.0285 O   0  0  0  0  0  0  0  0  0  0  0  0
   43.1196    5.1501   12.3969 Si  0  0  0  0  0  4  0  0  0  0  0  0
   43.8406    4.0474   13.2686 O   0  0  0  0  0  0  0  0  0  0  0  0
   41.9780    6.0105   11.7395 O   0  0  0  0  0  0  0  0  0  0  0  0
   43.0931    5.1335   12.4115 Si  0  0  0  0  0  4  0  0  0  0  0  0
   43.8523    4.0571   13.2602 O   0  0  0  0  0  0  0  0  0  0  0  0
   41.9928    6.0174   11.7332 O   0  0  0  0  0  0  0  0  0  0  0  0
   43.0595    5.1176   12.4258 Si  0  0  0  0  0  4  0  0  0  0  0  0
   43.8735    4.0605   13.2566 O   0  0  0  0  0  0  0  0  0  0  0  0
   42.0051    6.0299   11.7226 O   0  0  0  0  0  0  0  0  0  0  0  0
  1  2  2  0
  1  3  2  0
  4  5  2  0
  6  7  2  0
  8  9  2  0
 10 11  2  0
 10 12  2  0
 13 14  2  0
 13 15  2  0
 16 17  2  0
 16 18  2  0
M  END
> <Uni-Dock RESULT> 
ENERGY=   -7.094  LOWER_BOUND=    7.967  UPPER_BOUND=    8.171
INTER + INTRA:          -7.094
INTER:                  -7.094
INTRA:                   0.000
UNBOUND:                 0.000

$$$$

     RDKit          3D

 18 11  0  0  0  0  0  0  0  0999 V2000
   44.9272    2.9893    8.7568 Si  0  0  0  0  0  4  0  0  0  0  0  0
   44.5603    4.5173    8.5827 O   0  0  0  0  0  0  0  0  0  0  0  0
   44.7265    1.4372    8.9898 O   0  0  0  0  0  0  0  0  0  0  0  0
   45.1242    2.1815    8.8485 Mg  0  0  0  0  0  2  0  0  0  0  0  0
   44.4054    3.8040    8.6959 O   0  0  0  0  0  0  0  0  0  0  0  0
   45.1248    2.1801    8.8487 Mg  0  0  0  0  0  2  0  0  0  0  0  0
   44.4048    3.8054    8.6958 O   0  0  0  0  0  0  0  0  0  0  0  0
   45.1256    2.1784    8.8488 Mg  0  0  0  0  0  2  0  0  0  0  0  0
   44.4040    3.8071    8.6956 O   0  0  0  0  0  0  0  0  0  0  0  0
   44.9249    3.0636    8.7468 Si  0  0  0  0  0  4  0  0  0  0  0  0
   45.3122    1.5417    8.9181 O   0  0  0  0  0  0  0  0  0  0  0  0
   44.0574    4.3729    8.6517 O   0  0  0  0  0  0  0  0  0  0  0  0
   44.8942    3.0486    8.7519 Si  0  0  0  0  0  4  0  0  0  0  0  0
   45.3264    1.5513    8.9154 O   0  0  0  0  0  0  0  0  0  0  0  0
   44.0738    4.3784    8.6494 O   0  0  0  0  0  0  0  0  0  0  0  0
   44.8569    3.0359    8.7573 Si  0  0  0  0  0  4  0  0  0  0  0  0
   45.3481    1.5510    8.9133 O   0  0  0  0  0  0  0  0  0  0  0  0
   44.0894    4.3913    8.6461 O   0  0  0  0  0  0  0  0  0  0  0  0
  1  2  2  0
  1  3  2  0
  4  5  2  0
  6  7  2  0
  8  9  2  0
 10 11  2  0
 10 12  2  0
 13 14  2  0
 13 15  2  0
 16 17  2  0
 16 18  2  0
M  END
> <Uni-Dock RESULT> 
ENERGY=   -6.841  LOWER_BOUND=    3.401  UPPER_BOUND=    3.927
INTER + INTRA:          -6.841
INTER:                  -6.841
INTRA:                   0.000
UNBOUND:                 0.000

$$$$

     RDKit          3D

 18 11  0  0  0  0  0  0  0  0999 V2000
   44.8512    3.1956    8.8452 Si  0  0  0  0  0  4  0  0  0  0  0  0
   44.4199    1.7948    9.4382 O   0  0  0  0  0  0  0  0  0  0  0  0
   45.5624    4.2456    7.8991 O   0  0  0  0  0  0  0  0  0  0  0  0
   45.0777    3.9381    8.5337 Mg  0  0  0  0  0  2  0  0  0  0  0  0
   44.7766    2.2366    8.9657 O   0  0  0  0  0  0  0  0  0  0  0  0
   45.0779    3.9396    8.5333 Mg  0  0  0  0  0  2  0  0  0  0  0  0
   44.7764    2.2351    8.9661 O   0  0  0  0  0  0  0  0  0  0  0  0
   45.0783    3.9414    8.5328 Mg  0  0  0  0  0  2  0  0  0  0  0  0
   44.7761    2.2333    8.9666 O   0  0  0  0  0  0  0  0  0  0  0  0
   44.8228    3.1376    8.8834 Si  0  0  0  0  0  4  0  0  0  0  0  0
   45.2419    4.5470    8.3060 O   0  0  0  0  0  0  0  0  0  0  0  0
   44.7168    1.5776    9.0597 O   0  0  0  0  0  0  0  0  0  0  0  0
   44.8434    3.1290    8.8570 Si  0  0  0  0  0  4  0  0  0  0  0  0
   45.2313    4.5489    8.3196 O   0  0  0  0  0  0  0  0  0  0  0  0
   44.7068    1.5841    9.0725 O   0  0  0  0  0  0  0  0  0  0  0  0
   44.8662    3.1144    8.8279 Si  0  0  0  0  0  4  0  0  0  0  0  0
   45.2211    4.5633    8.3325 O   0  0  0  0  0  0  0  0  0  0  0  0
   44.6942    1.5845    9.0887 O   0  0  0  0  0  0  0  0  0  0  0  0
  1  2  2  0
  1  3  2  0
  4  5  2  0
  6  7  2  0
  8  9  2  0
 10 11  2  0
 10 12  2  0
 13 14  2  0
 13 15  2  0
 16 17  2  0
 16 18  2  0
M  END
> <Uni-Dock RESULT> 
ENERGY=   -6.678  LOWER_BOUND=    3.513  UPPER_BOUND=    4.154
INTER + INTRA:          -6.678
INTER:                  -6.678
INTRA:                   0.000
UNBOUND:                 0.000

$$$$

     RDKit          3D

 18 11  0  0  0  0  0  0  0  0999 V2000
   43.0173    5.2021   12.2871 Si  0  0  0  0  0  4  0  0  0  0  0  0
   43.9849    4.1776   13.0041 O   0  0  0  0  0  0  0  0  0  0  0  0
   41.7072    6.0367   11.9859 O   0  0  0  0  0  0  0  0  0  0  0  0
   42.5075    5.7448   11.9058 Mg  0  0  0  0  0  2  0  0  0  0  0  0
   43.3470    4.5386   12.9124 O   0  0  0  0  0  0  0  0  0  0  0  0
   42.5068    5.7458   11.9049 Mg  0  0  0  0  0  2  0  0  0  0  0  0
   43.3477    4.5376   12.9132 O   0  0  0  0  0  0  0  0  0  0  0  0
   42.5059    5.7471   11.9039 Mg  0  0  0  0  0  2  0  0  0  0  0  0
   43.3486    4.5363   12.9143 O   0  0  0  0  0  0  0  0  0  0  0  0
   43.0732    5.1578   12.3104 Si  0  0  0  0  0  4  0  0  0  0  0  0
   42.1220    6.1861   11.5800 O   0  0  0  0  0  0  0  0  0  0  0  0
   43.5866    4.0813   13.3367 O   0  0  0  0  0  0  0  0  0  0  0  0
   43.0441    5.1556   12.3289 Si  0  0  0  0  0  4  0  0  0  0  0  0
   42.1375    6.1856   11.5722 O   0  0  0  0  0  0  0  0  0  0  0  0
   43.6002    4.0840   13.3261 O   0  0  0  0  0  0  0  0  0  0  0  0
   43.0130    5.1496   12.3530 Si  0  0  0  0  0  4  0  0  0  0  0  0
   42.1497    6.1935   11.5560 O   0  0  0  0  0  0  0  0  0  0  0  0
   43.6190    4.0821   13.3182 O   0  0  0  0  0  0  0  0  0  0  0  0
  1  2  2  0
  1  3  2  0
  4  5  2  0
  6  7  2  0
  8  9  2  0
 10 11  2  0
 10 12  2  0
 13 14  2  0
 13 15  2  0
 16 17  2  0
 16 18  2  0
M  END
> <Uni-Dock RESULT> 
ENERGY=   -6.503  LOWER_BOUND=    7.901  UPPER_BOUND=    8.322
INTER + INTRA:          -6.503
INTER:                  -6.503
INTRA:                   0.000
UNBOUND:                 0.000

$$$$
