
     RDKit          3D

 18 11  0  0  0  0  0  0  0  0999 V2000
   47.6351    1.9528    6.4236 Si  0  0  0  0  0  4  0  0  0  0  0  0
   47.9698    2.7646    5.1196 O   0  0  0  0  0  0  0  0  0  0  0  0
   47.3056    1.0061    7.6237 O   0  0  0  0  0  0  0  0  0  0  0  0
   47.8266    2.4102    5.6736 Mg  0  0  0  0  0  2  0  0  0  0  0  0
   47.4471    1.4055    7.1043 O   0  0  0  0  0  0  0  0  0  0  0  0
   47.8267    2.4105    5.6731 Mg  0  0  0  0  0  2  0  0  0  0  0  0
   47.4470    1.4052    7.1048 O   0  0  0  0  0  0  0  0  0  0  0  0
   47.8261    2.4089    5.6754 Mg  0  0  0  0  0  2  0  0  0  0  0  0
   47.4476    1.4068    7.1025 O   0  0  0  0  0  0  0  0  0  0  0  0
   47.6335    2.0365    6.4792 Si  0  0  0  0  0  4  0  0  0  0  0  0
   47.9684    2.7171    5.0998 O   0  0  0  0  0  0  0  0  0  0  0  0
   47.3085    0.9700    7.5879 O   0  0  0  0  0  0  0  0  0  0  0  0
   47.6340    2.0164    6.4652 Si  0  0  0  0  0  4  0  0  0  0  0  0
   47.3092    0.9823    7.5915 O   0  0  0  0  0  0  0  0  0  0  0  0
   47.9673    2.7248    5.1102 O   0  0  0  0  0  0  0  0  0  0  0  0
   47.6330    2.0390    6.4836 Si  0  0  0  0  0  4  0  0  0  0  0  0
   47.3089    0.9687    7.5853 O   0  0  0  0  0  0  0  0  0  0  0  0
   47.9687    2.7158    5.0979 O   0  0  0  0  0  0  0  0  0  0  0  0
  1  2  2  0
  1  3  2  0
  4  5  2  0
  6  7  2  0
  8  9  2  0
 10 11  2  0
 10 12  2  0
 13 14  2  0
 13 15  2  0
 16 17  2  0
 16 18  2  0
M  END
> <Uni-Dock RESULT> 
ENERGY=   -9.138  LOWER_BOUND=    0.000  UPPER_BOUND=    0.000
INTER + INTRA:          -9.138
INTER:                  -9.138
INTRA:                   0.000
UNBOUND:                 0.000

$$$$

     RDKit          3D

 18 11  0  0  0  0  0  0  0  0999 V2000
   42.9853    5.3234   11.8065 Si  0  0  0  0  0  4  0  0  0  0  0  0
   43.3036    5.1820   10.2735 O   0  0  0  0  0  0  0  0  0  0  0  0
   42.7083    5.2997   13.3453 O   0  0  0  0  0  0  0  0  0  0  0  0
   43.1692    5.2347   10.9309 Mg  0  0  0  0  0  2  0  0  0  0  0  0
   42.8290    5.3020   12.6859 O   0  0  0  0  0  0  0  0  0  0  0  0
   43.1693    5.2347   10.9303 Mg  0  0  0  0  0  2  0  0  0  0  0  0
   42.8289    5.3021   12.6865 O   0  0  0  0  0  0  0  0  0  0  0  0
   43.1687    5.2348   10.9331 Mg  0  0  0  0  0  2  0  0  0  0  0  0
   42.8294    5.3020   12.6837 O   0  0  0  0  0  0  0  0  0  0  0  0
   42.9623    5.4207   11.7960 Si  0  0  0  0  0  4  0  0  0  0  0  0
   43.3132    5.1338   10.2886 O   0  0  0  0  0  0  0  0  0  0  0  0
   42.7217    5.2508   13.3406 O   0  0  0  0  0  0  0  0  0  0  0  0
   42.9680    5.3970   11.7981 Si  0  0  0  0  0  4  0  0  0  0  0  0
   42.7197    5.2624   13.3356 O   0  0  0  0  0  0  0  0  0  0  0  0
   43.3096    5.1457   10.2917 O   0  0  0  0  0  0  0  0  0  0  0  0
   42.9607    5.4252   11.7979 Si  0  0  0  0  0  4  0  0  0  0  0  0
   42.7226    5.2483   13.3394 O   0  0  0  0  0  0  0  0  0  0  0  0
   43.3139    5.1316   10.2879 O   0  0  0  0  0  0  0  0  0  0  0  0
  1  2  2  0
  1  3  2  0
  4  5  2  0
  6  7  2  0
  8  9  2  0
 10 11  2  0
 10 12  2  0
 13 14  2  0
 13 15  2  0
 16 17  2  0
 16 18  2  0
M  END
> <Uni-Dock RESULT> 
ENERGY=   -7.509  LOWER_BOUND=    7.665  UPPER_BOUND=    7.919
INTER + INTRA:          -7.509
INTER:                  -7.509
INTRA:                   0.000
UNBOUND:                 0.000

$$$$

     RDKit          3D

 18 11  0  0  0  0  0  0  0  0999 V2000
   43.1026    5.3117   11.8591 Si  0  0  0  0  0  4  0  0  0  0  0  0
   42.7261    5.3706   13.3843 O   0  0  0  0  0  0  0  0  0  0  0  0
   43.3496    5.1425   10.3243 O   0  0  0  0  0  0  0  0  0  0  0  0
   42.8813    5.3401   12.7300 Mg  0  0  0  0  0  2  0  0  0  0  0  0
   43.2375    5.2098   10.9817 O   0  0  0  0  0  0  0  0  0  0  0  0
   42.8812    5.3401   12.7306 Mg  0  0  0  0  0  2  0  0  0  0  0  0
   43.2377    5.2098   10.9811 O   0  0  0  0  0  0  0  0  0  0  0  0
   42.8818    5.3399   12.7278 Mg  0  0  0  0  0  2  0  0  0  0  0  0
   43.2371    5.2100   10.9840 O   0  0  0  0  0  0  0  0  0  0  0  0
   43.1776    5.3774   11.8717 Si  0  0  0  0  0  4  0  0  0  0  0  0
   42.6907    5.3370   13.3681 O   0  0  0  0  0  0  0  0  0  0  0  0
   43.3101    5.1105   10.3278 O   0  0  0  0  0  0  0  0  0  0  0  0
   43.1592    5.3614   11.8691 Si  0  0  0  0  0  4  0  0  0  0  0  0
   43.3184    5.1187   10.3331 O   0  0  0  0  0  0  0  0  0  0  0  0
   42.7007    5.3447   13.3653 O   0  0  0  0  0  0  0  0  0  0  0  0
   43.1815    5.3802   11.8699 Si  0  0  0  0  0  4  0  0  0  0  0  0
   43.3079    5.1089   10.3289 O   0  0  0  0  0  0  0  0  0  0  0  0
   42.6889    5.3357   13.3688 O   0  0  0  0  0  0  0  0  0  0  0  0
  1  2  2  0
  1  3  2  0
  4  5  2  0
  6  7  2  0
  8  9  2  0
 10 11  2  0
 10 12  2  0
 13 14  2  0
 13 15  2  0
 16 17  2  0
 16 18  2  0
M  END
> <Uni-Dock RESULT> 
ENERGY=   -7.071  LOWER_BOUND=    7.738  UPPER_BOUND=    8.184
INTER + INTRA:          -7.071
INTER:                  -7.071
INTRA:                   0.000
UNBOUND:                 0.000

$$$$

     RDKit          3D

 18 11  0  0  0  0  0  0  0  0999 V2000
   42.9188    5.0953   12.3951 Si  0  0  0  0  0  4  0  0  0  0  0  0
   43.4786    3.9022   13.2522 O   0  0  0  0  0  0  0  0  0  0  0  0
   42.2106    6.2486   11.6116 O   0  0  0  0  0  0  0  0  0  0  0  0
   43.2315    4.4118   12.8883 Mg  0  0  0  0  0  2  0  0  0  0  0  0
   42.5071    5.7523   11.9510 O   0  0  0  0  0  0  0  0  0  0  0  0
   43.2318    4.4113   12.8886 Mg  0  0  0  0  0  2  0  0  0  0  0  0
   42.5069    5.7528   11.9507 O   0  0  0  0  0  0  0  0  0  0  0  0
   43.2306    4.4135   12.8871 Mg  0  0  0  0  0  2  0  0  0  0  0  0
   42.5081    5.7506   11.9522 O   0  0  0  0  0  0  0  0  0  0  0  0
   43.0093    5.1135   12.3554 Si  0  0  0  0  0  4  0  0  0  0  0  0
   43.4293    3.9007   13.2667 O   0  0  0  0  0  0  0  0  0  0  0  0
   42.1695    6.2319   11.6368 O   0  0  0  0  0  0  0  0  0  0  0  0
   42.9875    5.1087   12.3653 Si  0  0  0  0  0  4  0  0  0  0  0  0
   42.1821    6.2313   11.6340 O   0  0  0  0  0  0  0  0  0  0  0  0
   43.4385    3.9063   13.2596 O   0  0  0  0  0  0  0  0  0  0  0  0
   43.0125    5.1162   12.3523 Si  0  0  0  0  0  4  0  0  0  0  0  0
   42.1678    6.2304   11.6385 O   0  0  0  0  0  0  0  0  0  0  0  0
   43.4277    3.8996   13.2681 O   0  0  0  0  0  0  0  0  0  0  0  0
  1  2  2  0
  1  3  2  0
  4  5  2  0
  6  7  2  0
  8  9  2  0
 10 11  2  0
 10 12  2  0
 13 14  2  0
 13 15  2  0
 16 17  2  0
 16 18  2  0
M  END
> <Uni-Dock RESULT> 
ENERGY=   -7.031  LOWER_BOUND=    8.291  UPPER_BOUND=    8.597
INTER + INTRA:          -7.031
INTER:                  -7.031
INTRA:                   0.000
UNBOUND:                 0.000

$$$$

     RDKit          3D

 18 11  0  0  0  0  0  0  0  0999 V2000
   44.8605    2.9310    8.8307 Si  0  0  0  0  0  4  0  0  0  0  0  0
   44.1331    4.3127    8.6484 O   0  0  0  0  0  0  0  0  0  0  0  0
   45.5781    1.5417    8.8431 O   0  0  0  0  0  0  0  0  0  0  0  0
   44.4444    3.7201    8.7184 Mg  0  0  0  0  0  2  0  0  0  0  0  0
   45.2701    2.1369    8.8297 O   0  0  0  0  0  0  0  0  0  0  0  0
   44.4441    3.7206    8.7184 Mg  0  0  0  0  0  2  0  0  0  0  0  0
   45.2703    2.1364    8.8298 O   0  0  0  0  0  0  0  0  0  0  0  0
   44.4455    3.7180    8.7186 Mg  0  0  0  0  0  2  0  0  0  0  0  0
   45.2690    2.1389    8.8296 O   0  0  0  0  0  0  0  0  0  0  0  0
   44.8631    2.9418    8.9306 Si  0  0  0  0  0  4  0  0  0  0  0  0
   44.1365    4.2983    8.5991 O   0  0  0  0  0  0  0  0  0  0  0  0
   45.5722    1.5453    8.7926 O   0  0  0  0  0  0  0  0  0  0  0  0
   44.8622    2.9397    8.9062 Si  0  0  0  0  0  4  0  0  0  0  0  0
   45.5708    1.5500    8.8045 O   0  0  0  0  0  0  0  0  0  0  0  0
   44.1388    4.2957    8.6115 O   0  0  0  0  0  0  0  0  0  0  0  0
   44.8643    2.9402    8.9353 Si  0  0  0  0  0  4  0  0  0  0  0  0
   45.5715    1.5463    8.7900 O   0  0  0  0  0  0  0  0  0  0  0  0
   44.1360    4.2989    8.5969 O   0  0  0  0  0  0  0  0  0  0  0  0
  1  2  2  0
  1  3  2  0
  4  5  2  0
  6  7  2  0
  8  9  2  0
 10 11  2  0
 10 12  2  0
 13 14  2  0
 13 15  2  0
 16 17  2  0
 16 18  2  0
M  END
> <Uni-Dock RESULT> 
ENERGY=   -6.966  LOWER_BOUND=    3.730  UPPER_BOUND=    3.993
INTER + INTRA:          -6.966
INTER:                  -6.966
INTRA:                   0.000
UNBOUND:                 0.000

$$$$

     RDKit          3D

 18 11  0  0  0  0  0  0  0  0999 V2000
   42.9494    5.1276   12.3925 Si  0  0  0  0  0  4  0  0  0  0  0  0
   42.3269    6.2789   11.5217 O   0  0  0  0  0  0  0  0  0  0  0  0
   43.4128    3.9577   13.3209 O   0  0  0  0  0  0  0  0  0  0  0  0
   42.5862    5.7845   11.8977 Mg  0  0  0  0  0  2  0  0  0  0  0  0
   43.2066    4.4583   12.9257 O   0  0  0  0  0  0  0  0  0  0  0  0
   42.5859    5.7850   11.8974 Mg  0  0  0  0  0  2  0  0  0  0  0  0
   43.2068    4.4579   12.9260 O   0  0  0  0  0  0  0  0  0  0  0  0
   42.5870    5.7828   11.8990 Mg  0  0  0  0  0  2  0  0  0  0  0  0
   43.2058    4.4600   12.9244 O   0  0  0  0  0  0  0  0  0  0  0  0
   43.0410    5.1438   12.3544 Si  0  0  0  0  0  4  0  0  0  0  0  0
   42.2847    6.2633   11.5465 O   0  0  0  0  0  0  0  0  0  0  0  0
   43.3635    3.9571   13.3342 O   0  0  0  0  0  0  0  0  0  0  0  0
   43.0185    5.1403   12.3633 Si  0  0  0  0  0  4  0  0  0  0  0  0
   43.3733    3.9619   13.3273 O   0  0  0  0  0  0  0  0  0  0  0  0
   42.2973    6.2620   11.5444 O   0  0  0  0  0  0  0  0  0  0  0  0
   43.0460    5.1428   12.3540 Si  0  0  0  0  0  4  0  0  0  0  0  0
   43.3607    3.9578   13.3343 O   0  0  0  0  0  0  0  0  0  0  0  0
   42.2823    6.2637   11.5468 O   0  0  0  0  0  0  0  0  0  0  0  0
  1  2  2  0
  1  3  2  0
  4  5  2  0
  6  7  2  0
  8  9  2  0
 10 11  2  0
 10 12  2  0
 13 14  2  0
 13 15  2  0
 16 17  2  0
 16 18  2  0
M  END
> <Uni-Dock RESULT> 
ENERGY=   -6.863  LOWER_BOUND=    8.327  UPPER_BOUND=    8.344
INTER + INTRA:          -6.863
INTER:                  -6.863
INTRA:                   0.000
UNBOUND:                 0.000

$$$$

     RDKit          3D

 18 11  0  0  0  0  0  0  0  0999 V2000
   43.2112    5.2883   12.4867 Si  0  0  0  0  0  4  0  0  0  0  0  0
   44.5037    4.8953   13.2908 O   0  0  0  0  0  0  0  0  0  0  0  0
   41.9580    5.8398   11.7314 O   0  0  0  0  0  0  0  0  0  0  0  0
   43.9515    5.0713   12.9485 Mg  0  0  0  0  0  2  0  0  0  0  0  0
   42.4970    5.6110   12.0575 O   0  0  0  0  0  0  0  0  0  0  0  0
   43.9520    5.0712   12.9488 Mg  0  0  0  0  0  2  0  0  0  0  0  0
   42.4965    5.6111   12.0572 O   0  0  0  0  0  0  0  0  0  0  0  0
   43.9496    5.0720   12.9473 Mg  0  0  0  0  0  2  0  0  0  0  0  0
   42.4989    5.6103   12.0586 O   0  0  0  0  0  0  0  0  0  0  0  0
   43.1938    5.1926   12.4615 Si  0  0  0  0  0  4  0  0  0  0  0  0
   44.5041    4.9461   13.2984 O   0  0  0  0  0  0  0  0  0  0  0  0
   41.9748    5.8846   11.7490 O   0  0  0  0  0  0  0  0  0  0  0  0
   43.1985    5.2158   12.4679 Si  0  0  0  0  0  4  0  0  0  0  0  0
   41.9759    5.8718   11.7479 O   0  0  0  0  0  0  0  0  0  0  0  0
   44.4984    4.9359   13.2931 O   0  0  0  0  0  0  0  0  0  0  0  0
   43.1911    5.1889   12.4592 Si  0  0  0  0  0  4  0  0  0  0  0  0
   41.9765    5.8865   11.7504 O   0  0  0  0  0  0  0  0  0  0  0  0
   44.5053    4.9479   13.2994 O   0  0  0  0  0  0  0  0  0  0  0  0
  1  2  2  0
  1  3  2  0
  4  5  2  0
  6  7  2  0
  8  9  2  0
 10 11  2  0
 10 12  2  0
 13 14  2  0
 13 15  2  0
 16 17  2  0
 16 18  2  0
M  END
> <Uni-Dock RESULT> 
ENERGY=   -6.811  LOWER_BOUND=    8.242  UPPER_BOUND=    8.510
INTER + INTRA:          -6.811
INTER:                  -6.811
INTRA:                   0.000
UNBOUND:                 0.000

$$$$

     RDKit          3D

 18 11  0  0  0  0  0  0  0  0999 V2000
   39.2430    4.6723    5.2392 Si  0  0  0  0  0  4  0  0  0  0  0  0
   40.0831    5.8512    4.6260 O   0  0  0  0  0  0  0  0  0  0  0  0
   38.5514    3.4102    5.8506 O   0  0  0  0  0  0  0  0  0  0  0  0
   39.7301    5.3419    4.8888 Mg  0  0  0  0  0  2  0  0  0  0  0  0
   38.8549    3.9472    5.5885 O   0  0  0  0  0  0  0  0  0  0  0  0
   39.7304    5.3423    4.8885 Mg  0  0  0  0  0  2  0  0  0  0  0  0
   38.8546    3.9468    5.5887 O   0  0  0  0  0  0  0  0  0  0  0  0
   39.7290    5.3401    4.8897 Mg  0  0  0  0  0  2  0  0  0  0  0  0
   38.8560    3.9490    5.5876 O   0  0  0  0  0  0  0  0  0  0  0  0
   39.1588    4.7271    5.2374 Si  0  0  0  0  0  4  0  0  0  0  0  0
   40.1203    5.8159    4.6308 O   0  0  0  0  0  0  0  0  0  0  0  0
   38.5984    3.3907    5.8476 O   0  0  0  0  0  0  0  0  0  0  0  0
   39.1796    4.7142    5.2377 Si  0  0  0  0  0  4  0  0  0  0  0  0
   38.5901    3.4003    5.8459 O   0  0  0  0  0  0  0  0  0  0  0  0
   40.1079    5.8191    4.6324 O   0  0  0  0  0  0  0  0  0  0  0  0
   39.1537    4.7278    5.2383 Si  0  0  0  0  0  4  0  0  0  0  0  0
   38.6012    3.3904    5.8470 O   0  0  0  0  0  0  0  0  0  0  0  0
   40.1226    5.8155    4.6305 O   0  0  0  0  0  0  0  0  0  0  0  0
  1  2  2  0
  1  3  2  0
  4  5  2  0
  6  7  2  0
  8  9  2  0
 10 11  2  0
 10 12  2  0
 13 14  2  0
 13 15  2  0
 16 17  2  0
 16 18  2  0
M  END
> <Uni-Dock RESULT> 
ENERGY=   -6.775  LOWER_BOUND=    8.864  UPPER_BOUND=    8.879
INTER + INTRA:          -6.775
INTER:                  -6.775
INTRA:                   0.000
UNBOUND:                 0.000

$$$$
