
     RDKit          3D

 39 41  0  0  0  0  0  0  0  0999 V2000
   -0.7182   -0.3347   -1.9501 C   0  0  0  0  0  0  0  0  0  0  0  0
   -2.0089   -0.8994   -1.8855 N   0  0  0  0  0  0  0  0  0  0  0  0
   -2.7305   -1.0512   -0.6493 C   0  0  0  0  0  0  0  0  0  0  0  0
   -0.1095   -0.1558   -0.6920 O   0  0  0  0  0  0  0  0  0  0  0  0
    0.1401    0.0189   -3.3525 S   0  0  0  0  0  0  0  0  0  0  0  0
    1.1371    0.4671   -0.4386 C   0  0  0  0  0  0  0  0  0  0  0  0
    3.4566    0.2520    0.1920 C   0  0  0  0  0  0  0  0  0  0  0  0
   -2.6672   -0.0751    0.3573 C   0  0  0  0  0  0  0  0  0  0  0  0
    2.2228   -0.3404   -0.1112 C   0  0  0  0  0  0  0  0  0  0  0  0
    3.5731    1.6646    0.1744 C   0  0  0  0  0  0  0  0  0  0  0  0
    2.4494    2.4500   -0.1417 C   0  0  0  0  0  0  0  0  0  0  0  0
    1.2250    1.8543   -0.4415 C   0  0  0  0  0  0  0  0  0  0  0  0
   -3.3781   -0.2122    1.5610 C   0  0  0  0  0  0  0  0  0  0  0  0
   -3.5642   -2.1593   -0.4359 C   0  0  0  0  0  0  0  0  0  0  0  0
   -2.6316   -1.4769   -3.0825 C   0  0  0  0  0  0  0  0  0  0  0  0
   -4.2877   -2.2992    0.7518 C   0  0  0  0  0  0  0  0  0  0  0  0
    4.5796   -0.5265    0.5142 C   0  0  0  0  0  0  0  0  0  0  0  0
   -4.1966   -1.3286    1.7456 C   0  0  0  0  0  0  0  0  0  0  0  0
    4.8114    2.2524    0.4778 C   0  0  0  0  0  0  0  0  0  0  0  0
   -3.3092    0.8630    2.6052 C   0  0  0  0  0  0  0  0  0  0  0  0
    5.8025    0.0760    0.8133 C   0  0  0  0  0  0  0  0  0  0  0  0
    5.9183    1.4630    0.7948 C   0  0  0  0  0  0  0  0  0  0  0  0
   -2.0893    0.8333    0.2063 H   0  0  0  0  0  0  0  0  0  0  0  0
    2.1023   -1.4195   -0.0976 H   0  0  0  0  0  0  0  0  0  0  0  0
    2.5238    3.5350   -0.1543 H   0  0  0  0  0  0  0  0  0  0  0  0
    0.3600    2.4654   -0.6768 H   0  0  0  0  0  0  0  0  0  0  0  0
   -3.6445   -2.9531   -1.1730 H   0  0  0  0  0  0  0  0  0  0  0  0
   -3.7236   -1.4561   -3.0041 H   0  0  0  0  0  0  0  0  0  0  0  0
   -2.2783   -2.5061   -3.2011 H   0  0  0  0  0  0  0  0  0  0  0  0
   -2.3757   -0.9114   -3.9815 H   0  0  0  0  0  0  0  0  0  0  0  0
   -4.9207   -3.1702    0.9014 H   0  0  0  0  0  0  0  0  0  0  0  0
    4.5094   -1.6118    0.5324 H   0  0  0  0  0  0  0  0  0  0  0  0
   -4.7691   -1.4471    2.6628 H   0  0  0  0  0  0  0  0  0  0  0  0
    4.9232    3.3343    0.4689 H   0  0  0  0  0  0  0  0  0  0  0  0
   -3.4866    0.4508    3.6042 H   0  0  0  0  0  0  0  0  0  0  0  0
   -2.3187    1.3298    2.6184 H   0  0  0  0  0  0  0  0  0  0  0  0
   -4.0614    1.6312    2.4014 H   0  0  0  0  0  0  0  0  0  0  0  0
    6.6642   -0.5388    1.0595 H   0  0  0  0  0  0  0  0  0  0  0  0
    6.8707    1.9324    1.0266 H   0  0  0  0  0  0  0  0  0  0  0  0
  2  1  1  0
  3  2  1  0
  4  1  1  0
  5  1  2  0
  6  4  1  0
  7  9  2  0
  8  3  2  0
  9  6  1  0
 10 11  2  0
 11 12  1  0
 12  6  2  0
 13  8  1  0
 14  3  1  0
 15  2  1  0
 16 14  2  0
 17  7  1  0
 18 16  1  0
 19 10  1  0
 20 13  1  0
 21 17  2  0
 22 19  2  0
 10  7  1  0
 13 18  2  0
 22 21  1  0
  8 23  1  0
  9 24  1  0
 11 25  1  0
 12 26  1  0
 14 27  1  0
 15 28  1  0
 15 29  1  0
 15 30  1  0
 16 31  1  0
 17 32  1  0
 18 33  1  0
 19 34  1  0
 20 35  1  0
 20 36  1  0
 20 37  1  0
 21 38  1  0
 22 39  1  0
M  END
$$$$
