
     RDKit          3D

 39 41  0  0  0  0  0  0  0  0999 V2000
   -0.3247   -0.1154   -1.9076 C   0  0  0  0  0  0  0  0  0  0  0  0
   -1.7338   -0.0919   -1.9615 N   0  0  0  0  0  0  0  0  0  0  0  0
   -2.5479    0.3383   -0.8552 C   0  0  0  0  0  0  0  0  0  0  0  0
    0.2010    0.0919   -0.6169 O   0  0  0  0  0  0  0  0  0  0  0  0
    0.7101   -0.4611   -3.1875 S   0  0  0  0  0  0  0  0  0  0  0  0
    1.5709    0.1932   -0.2715 C   0  0  0  0  0  0  0  0  0  0  0  0
    3.5169   -0.8019    0.7518 C   0  0  0  0  0  0  0  0  0  0  0  0
   -3.7859   -0.2731   -0.5924 C   0  0  0  0  0  0  0  0  0  0  0  0
    2.1751   -0.8926    0.3562 C   0  0  0  0  0  0  0  0  0  0  0  0
    4.2310    0.4003    0.5191 C   0  0  0  0  0  0  0  0  0  0  0  0
    3.5823    1.4844   -0.1002 C   0  0  0  0  0  0  0  0  0  0  0  0
    2.2472    1.3876   -0.4905 C   0  0  0  0  0  0  0  0  0  0  0  0
   -4.6002    0.1441    0.4737 C   0  0  0  0  0  0  0  0  0  0  0  0
   -2.1617    1.4112   -0.0407 C   0  0  0  0  0  0  0  0  0  0  0  0
   -2.4448   -0.6277   -3.1284 C   0  0  0  0  0  0  0  0  0  0  0  0
   -2.9712    1.8451    1.0127 C   0  0  0  0  0  0  0  0  0  0  0  0
    4.1675   -1.8783    1.3756 C   0  0  0  0  0  0  0  0  0  0  0  0
   -4.1866    1.2159    1.2676 C   0  0  0  0  0  0  0  0  0  0  0  0
    5.5748    0.4853    0.9164 C   0  0  0  0  0  0  0  0  0  0  0  0
   -5.9233   -0.5189    0.7211 C   0  0  0  0  0  0  0  0  0  0  0  0
    5.5041   -1.7749    1.7639 C   0  0  0  0  0  0  0  0  0  0  0  0
    6.2066   -0.5954    1.5343 C   0  0  0  0  0  0  0  0  0  0  0  0
   -4.1228   -1.1136   -1.1938 H   0  0  0  0  0  0  0  0  0  0  0  0
    1.6013   -1.7982    0.5290 H   0  0  0  0  0  0  0  0  0  0  0  0
    4.1171    2.4141   -0.2806 H   0  0  0  0  0  0  0  0  0  0  0  0
    1.7500    2.2295   -0.9607 H   0  0  0  0  0  0  0  0  0  0  0  0
   -1.2447    1.9612   -0.2324 H   0  0  0  0  0  0  0  0  0  0  0  0
   -2.5478   -1.7111   -3.0109 H   0  0  0  0  0  0  0  0  0  0  0  0
   -3.4296   -0.1611   -3.2349 H   0  0  0  0  0  0  0  0  0  0  0  0
   -1.9049   -0.4241   -4.0561 H   0  0  0  0  0  0  0  0  0  0  0  0
   -2.6542    2.6840    1.6272 H   0  0  0  0  0  0  0  0  0  0  0  0
    3.6359   -2.8087    1.5621 H   0  0  0  0  0  0  0  0  0  0  0  0
   -4.8085    1.5690    2.0871 H   0  0  0  0  0  0  0  0  0  0  0  0
    6.1416    1.3978    0.7463 H   0  0  0  0  0  0  0  0  0  0  0  0
   -5.8784   -1.5838    0.4700 H   0  0  0  0  0  0  0  0  0  0  0  0
   -6.6991   -0.0430    0.1135 H   0  0  0  0  0  0  0  0  0  0  0  0
   -6.2070   -0.4465    1.7763 H   0  0  0  0  0  0  0  0  0  0  0  0
    5.9960   -2.6166    2.2444 H   0  0  0  0  0  0  0  0  0  0  0  0
    7.2478   -0.5151    1.8356 H   0  0  0  0  0  0  0  0  0  0  0  0
  2  1  1  0
  3  2  1  0
  4  1  1  0
  5  1  2  0
  6  4  1  0
  7  9  2  0
  8  3  2  0
  9  6  1  0
 10 11  2  0
 11 12  1  0
 12  6  2  0
 13  8  1  0
 14  3  1  0
 15  2  1  0
 16 14  2  0
 17  7  1  0
 18 16  1  0
 19 10  1  0
 20 13  1  0
 21 17  2  0
 22 19  2  0
 10  7  1  0
 13 18  2  0
 22 21  1  0
  8 23  1  0
  9 24  1  0
 11 25  1  0
 12 26  1  0
 14 27  1  0
 15 28  1  0
 15 29  1  0
 15 30  1  0
 16 31  1  0
 17 32  1  0
 18 33  1  0
 19 34  1  0
 20 35  1  0
 20 36  1  0
 20 37  1  0
 21 38  1  0
 22 39  1  0
M  END
$$$$
