
     RDKit          3D

 39 41  0  0  0  0  0  0  0  0999 V2000
    0.7361   -0.8282    2.3922 C   0  0  0  0  0  0  0  0  0  0  0  0
    1.3285   -0.8111    1.1238 N   0  0  0  0  0  0  0  0  0  0  0  0
    2.4128    0.0636    0.7543 C   0  0  0  0  0  0  0  0  0  0  0  0
   -0.6503   -1.0083    2.4670 O   0  0  0  0  0  0  0  0  0  0  0  0
    1.5048   -0.8222    3.8806 S   0  0  0  0  0  0  0  0  0  0  0  0
   -1.5454   -0.4638    1.5159 C   0  0  0  0  0  0  0  0  0  0  0  0
   -3.5768   -0.7738    0.2364 C   0  0  0  0  0  0  0  0  0  0  0  0
    3.2034   -0.1873   -0.3816 C   0  0  0  0  0  0  0  0  0  0  0  0
   -2.6388   -1.2530    1.1621 C   0  0  0  0  0  0  0  0  0  0  0  0
   -3.4085    0.5193   -0.3158 C   0  0  0  0  0  0  0  0  0  0  0  0
   -2.3102    1.3027    0.0797 C   0  0  0  0  0  0  0  0  0  0  0  0
   -1.3818    0.8181    1.0016 C   0  0  0  0  0  0  0  0  0  0  0  0
    4.2479    0.6736   -0.7642 C   0  0  0  0  0  0  0  0  0  0  0  0
    2.6719    1.2433    1.4677 C   0  0  0  0  0  0  0  0  0  0  0  0
    0.9092   -1.8395    0.1748 C   0  0  0  0  0  0  0  0  0  0  0  0
    3.6978    2.1152    1.0886 C   0  0  0  0  0  0  0  0  0  0  0  0
   -4.6802   -1.5496   -0.1533 C   0  0  0  0  0  0  0  0  0  0  0  0
    4.4832    1.8320   -0.0233 C   0  0  0  0  0  0  0  0  0  0  0  0
   -4.3482    0.9952   -1.2438 C   0  0  0  0  0  0  0  0  0  0  0  0
    5.0605    0.3788   -1.9911 C   0  0  0  0  0  0  0  0  0  0  0  0
   -5.6044   -1.0602   -1.0776 C   0  0  0  0  0  0  0  0  0  0  0  0
   -5.4383    0.2098   -1.6224 C   0  0  0  0  0  0  0  0  0  0  0  0
    3.0393   -1.0688   -0.9939 H   0  0  0  0  0  0  0  0  0  0  0  0
   -2.7510   -2.2381    1.6068 H   0  0  0  0  0  0  0  0  0  0  0  0
   -2.1743    2.3029   -0.3262 H   0  0  0  0  0  0  0  0  0  0  0  0
   -0.5513    1.4461    1.3069 H   0  0  0  0  0  0  0  0  0  0  0  0
    2.0656    1.5387    2.3185 H   0  0  0  0  0  0  0  0  0  0  0  0
    0.5720   -1.3695   -0.7540 H   0  0  0  0  0  0  0  0  0  0  0  0
    0.1016   -2.4576    0.5769 H   0  0  0  0  0  0  0  0  0  0  0  0
    1.7442   -2.5205   -0.0182 H   0  0  0  0  0  0  0  0  0  0  0  0
    3.8746    3.0220    1.6619 H   0  0  0  0  0  0  0  0  0  0  0  0
   -4.8290   -2.5438    0.2625 H   0  0  0  0  0  0  0  0  0  0  0  0
    5.2736    2.5219   -0.3096 H   0  0  0  0  0  0  0  0  0  0  0  0
   -4.2386    1.9862   -1.6788 H   0  0  0  0  0  0  0  0  0  0  0  0
    4.5612    0.7843   -2.8764 H   0  0  0  0  0  0  0  0  0  0  0  0
    5.1928   -0.7005   -2.1202 H   0  0  0  0  0  0  0  0  0  0  0  0
    6.0596    0.8209   -1.9158 H   0  0  0  0  0  0  0  0  0  0  0  0
   -6.4548   -1.6707   -1.3702 H   0  0  0  0  0  0  0  0  0  0  0  0
   -6.1588    0.5920   -2.3410 H   0  0  0  0  0  0  0  0  0  0  0  0
  2  1  1  0
  3  2  1  0
  4  1  1  0
  5  1  2  0
  6  4  1  0
  7  9  2  0
  8  3  2  0
  9  6  1  0
 10 11  2  0
 11 12  1  0
 12  6  2  0
 13  8  1  0
 14  3  1  0
 15  2  1  0
 16 14  2  0
 17  7  1  0
 18 16  1  0
 19 10  1  0
 20 13  1  0
 21 17  2  0
 22 19  2  0
 10  7  1  0
 13 18  2  0
 22 21  1  0
  8 23  1  0
  9 24  1  0
 11 25  1  0
 12 26  1  0
 14 27  1  0
 15 28  1  0
 15 29  1  0
 15 30  1  0
 16 31  1  0
 17 32  1  0
 18 33  1  0
 19 34  1  0
 20 35  1  0
 20 36  1  0
 20 37  1  0
 21 38  1  0
 22 39  1  0
M  END
$$$$
