
     RDKit          2D

 22 24  0  0  0  0  0  0  0  0999 V2000
   -0.4958   -1.3250    0.0000 C   0  0  0  0  0  0  0  0  0  0  0  0
   -0.4958   -0.2167    0.0000 N   0  0  0  0  0  0  0  0  0  0  0  0
   -1.4583    0.3250    0.0000 C   0  0  0  0  0  0  0  0  0  0  0  0
    0.4542   -1.8500    0.0000 O   0  0  0  0  0  0  0  0  0  0  0  0
   -1.4083   -1.8375    0.0000 S   0  0  0  0  0  0  0  0  0  0  0  0
    1.4167   -1.2792    0.0000 C   0  0  0  0  0  0  0  0  0  0  0  0
    2.4000    0.3708    0.0000 C   0  0  0  0  0  0  0  0  0  0  0  0
   -2.3833   -0.1917    0.0000 C   0  0  0  0  0  0  0  0  0  0  0  0
    1.4167   -0.1792    0.0000 C   0  0  0  0  0  0  0  0  0  0  0  0
    3.3542   -0.1542    0.0000 C   0  0  0  0  0  0  0  0  0  0  0  0
    3.3542   -1.2792    0.0000 C   0  0  0  0  0  0  0  0  0  0  0  0
    2.3500   -1.8542    0.0000 C   0  0  0  0  0  0  0  0  0  0  0  0
   -3.3833    0.2833    0.0000 C   0  0  0  0  0  0  0  0  0  0  0  0
   -1.4583    1.4333    0.0000 C   0  0  0  0  0  0  0  0  0  0  0  0
    0.4792    0.3458    0.0000 C   0  0  0  0  0  0  0  0  0  0  0  0
   -2.4250    1.9250    0.0000 C   0  0  0  0  0  0  0  0  0  0  0  0
    2.3792    1.4625    0.0000 C   0  0  0  0  0  0  0  0  0  0  0  0
   -3.3833    1.4000    0.0000 C   0  0  0  0  0  0  0  0  0  0  0  0
    4.3417    0.3833    0.0000 C   0  0  0  0  0  0  0  0  0  0  0  0
   -4.3458   -0.2542    0.0000 C   0  0  0  0  0  0  0  0  0  0  0  0
    3.4125    2.0583    0.0000 C   0  0  0  0  0  0  0  0  0  0  0  0
    4.3417    1.4875    0.0000 C   0  0  0  0  0  0  0  0  0  0  0  0
  2  1  1  0
  3  2  1  0
  4  1  1  0
  5  1  2  0
  6  4  1  0
  7  9  2  0
  8  3  1  0
  9  6  1  0
 10 11  2  0
 11 12  1  0
 12  6  2  0
 13  8  2  0
 14  3  2  0
 15  2  1  0
 16 14  1  0
 17  7  1  0
 18 16  2  0
 19 10  1  0
 20 13  1  0
 21 17  2  0
 22 19  2  0
 10  7  1  0
 13 18  1  0
 22 21  1  0
M  END
> <chembl_id>
CHEMBL83668

> <chembl_pref_name>
TOLNAFTATE
