
     RDKit          3D

 39 41  0  0  0  0  0  0  0  0999 V2000
    0.4911   -0.8472    1.5687 C   0  0  0  0  0  0  0  0  0  0  0  0
    1.8527   -1.1295    1.3335 N   0  0  0  0  0  0  0  0  0  0  0  0
    2.5366   -0.7202    0.1349 C   0  0  0  0  0  0  0  0  0  0  0  0
   -0.0706    0.0617    0.6502 O   0  0  0  0  0  0  0  0  0  0  0  0
   -0.4277   -1.4056    2.8619 S   0  0  0  0  0  0  0  0  0  0  0  0
   -1.4269    0.4650    0.5862 C   0  0  0  0  0  0  0  0  0  0  0  0
   -3.6998    0.0475   -0.1112 C   0  0  0  0  0  0  0  0  0  0  0  0
    3.8857   -0.3279    0.1747 C   0  0  0  0  0  0  0  0  0  0  0  0
   -2.3673   -0.3755   -0.0054 C   0  0  0  0  0  0  0  0  0  0  0  0
   -4.0631    1.3301    0.3709 C   0  0  0  0  0  0  0  0  0  0  0  0
   -3.0821    2.1597    0.9444 C   0  0  0  0  0  0  0  0  0  0  0  0
   -1.7590    1.7325    1.0470 C   0  0  0  0  0  0  0  0  0  0  0  0
    4.5730    0.0599   -0.9875 C   0  0  0  0  0  0  0  0  0  0  0  0
    1.9005   -0.7512   -1.1133 C   0  0  0  0  0  0  0  0  0  0  0  0
    2.6740   -1.7617    2.3728 C   0  0  0  0  0  0  0  0  0  0  0  0
    2.5792   -0.3830   -2.2782 C   0  0  0  0  0  0  0  0  0  0  0  0
   -4.6820   -0.7741   -0.6868 C   0  0  0  0  0  0  0  0  0  0  0  0
    3.9106    0.0187   -2.2163 C   0  0  0  0  0  0  0  0  0  0  0  0
   -5.3987    1.7484    0.2622 C   0  0  0  0  0  0  0  0  0  0  0  0
    6.0172    0.4605   -0.9157 C   0  0  0  0  0  0  0  0  0  0  0  0
   -6.0050   -0.3408   -0.7861 C   0  0  0  0  0  0  0  0  0  0  0  0
   -6.3627    0.9181   -0.3123 C   0  0  0  0  0  0  0  0  0  0  0  0
    4.4174   -0.2818    1.1217 H   0  0  0  0  0  0  0  0  0  0  0  0
   -2.0621   -1.3498   -0.3746 H   0  0  0  0  0  0  0  0  0  0  0  0
   -3.3457    3.1483    1.3134 H   0  0  0  0  0  0  0  0  0  0  0  0
   -1.0027    2.3776    1.4823 H   0  0  0  0  0  0  0  0  0  0  0  0
    0.8776   -1.1028   -1.2148 H   0  0  0  0  0  0  0  0  0  0  0  0
    2.1020   -2.4947    2.9463 H   0  0  0  0  0  0  0  0  0  0  0  0
    3.0370   -0.9861    3.0546 H   0  0  0  0  0  0  0  0  0  0  0  0
    3.5160   -2.3039    1.9301 H   0  0  0  0  0  0  0  0  0  0  0  0
    2.0672   -0.4214   -3.2365 H   0  0  0  0  0  0  0  0  0  0  0  0
   -4.4229   -1.7622   -1.0605 H   0  0  0  0  0  0  0  0  0  0  0  0
    4.4273    0.2963   -3.1322 H   0  0  0  0  0  0  0  0  0  0  0  0
   -5.6991    2.7283    0.6265 H   0  0  0  0  0  0  0  0  0  0  0  0
    6.2326    0.9743    0.0270 H   0  0  0  0  0  0  0  0  0  0  0  0
    6.6550   -0.4255   -0.9912 H   0  0  0  0  0  0  0  0  0  0  0  0
    6.2737    1.1504   -1.7267 H   0  0  0  0  0  0  0  0  0  0  0  0
   -6.7558   -0.9879   -1.2320 H   0  0  0  0  0  0  0  0  0  0  0  0
   -7.3931    1.2554   -0.3884 H   0  0  0  0  0  0  0  0  0  0  0  0
  2  1  1  0
  3  2  1  0
  4  1  1  0
  5  1  2  0
  6  4  1  0
  7  9  2  0
  8  3  2  0
  9  6  1  0
 10 11  2  0
 11 12  1  0
 12  6  2  0
 13  8  1  0
 14  3  1  0
 15  2  1  0
 16 14  2  0
 17  7  1  0
 18 16  1  0
 19 10  1  0
 20 13  1  0
 21 17  2  0
 22 19  2  0
 10  7  1  0
 13 18  2  0
 22 21  1  0
  8 23  1  0
  9 24  1  0
 11 25  1  0
 12 26  1  0
 14 27  1  0
 15 28  1  0
 15 29  1  0
 15 30  1  0
 16 31  1  0
 17 32  1  0
 18 33  1  0
 19 34  1  0
 20 35  1  0
 20 36  1  0
 20 37  1  0
 21 38  1  0
 22 39  1  0
M  END
$$$$
