
     RDKit          3D

 24 24  0  0  0  0  0  0  0  0999 V2000
   44.0907    5.5685   12.0580 C   0  0  0  0  0  0  0  0  0  0  0  0
   44.7567    6.7358   11.9864 O   0  0  0  0  0  0  0  0  0  0  0  0
   43.8851    5.0291   13.1319 O   0  0  0  0  0  0  0  0  0  0  0  0
   45.5845    3.0600    8.0012 C   0  0  0  0  0  0  0  0  0  0  0  0
   43.6842    5.0477   10.7110 C   0  0  0  0  0  0  0  0  0  0  0  0
   44.8486    4.3323   10.0383 C   0  0  0  0  0  0  0  0  0  0  0  0
   44.4386    3.7691    8.6777 C   0  0  0  0  0  0  0  0  0  0  0  0
   45.8087    1.6954    8.2278 C   0  0  0  0  0  0  0  0  0  0  0  0
   46.4578    3.7622    7.1600 C   0  0  0  0  0  0  0  0  0  0  0  0
   47.5285    3.1085    6.5481 C   0  0  0  0  0  0  0  0  0  0  0  0
   46.8800    1.0435    7.6150 C   0  0  0  0  0  0  0  0  0  0  0  0
   47.7387    1.7497    6.7747 C   0  0  0  0  0  0  0  0  0  0  0  0
   44.9714    6.9452   12.9197 H   0  0  0  0  0  0  0  0  0  0  0  0
   43.3194    5.8829   10.1023 H   0  0  0  0  0  0  0  0  0  0  0  0
   42.8362    4.3679   10.8530 H   0  0  0  0  0  0  0  0  0  0  0  0
   45.6910    5.0261    9.9196 H   0  0  0  0  0  0  0  0  0  0  0  0
   45.2093    3.5243   10.6881 H   0  0  0  0  0  0  0  0  0  0  0  0
   44.0751    4.5755    8.0280 H   0  0  0  0  0  0  0  0  0  0  0  0
   43.5978    3.0733    8.7931 H   0  0  0  0  0  0  0  0  0  0  0  0
   45.1499    1.1320    8.8848 H   0  0  0  0  0  0  0  0  0  0  0  0
   46.3094    4.8241    6.9773 H   0  0  0  0  0  0  0  0  0  0  0  0
   48.1998    3.6605    5.8955 H   0  0  0  0  0  0  0  0  0  0  0  0
   47.0453   -0.0154    7.7949 H   0  0  0  0  0  0  0  0  0  0  0  0
   48.5729    1.2415    6.2984 H   0  0  0  0  0  0  0  0  0  0  0  0
  2  1  1  0
  3  1  2  0
  4  7  1  0
  5  1  1  0
  6  5  1  0
  7  6  1  0
  8  4  2  0
  9  4  1  0
 10  9  2  0
 11  8  1  0
 12 11  2  0
 12 10  1  0
  2 13  1  0
  5 14  1  0
  5 15  1  0
  6 16  1  0
  6 17  1  0
  7 18  1  0
  7 19  1  0
  8 20  1  0
  9 21  1  0
 10 22  1  0
 11 23  1  0
 12 24  1  0
M  END
> <Uni-Dock RESULT> 
ENERGY=   -6.414  LOWER_BOUND=    0.000  UPPER_BOUND=    0.000
INTER + INTRA:          -6.414
INTER:                  -6.414
INTRA:                   0.000
UNBOUND:                 0.000

$$$$

     RDKit          3D

 24 24  0  0  0  0  0  0  0  0999 V2000
   47.4814    2.1239    6.7095 C   0  0  0  0  0  0  0  0  0  0  0  0
   47.3256    0.8077    6.9435 O   0  0  0  0  0  0  0  0  0  0  0  0
   48.5675    2.5803    6.3955 O   0  0  0  0  0  0  0  0  0  0  0  0
   44.4736    4.3210   10.0422 C   0  0  0  0  0  0  0  0  0  0  0  0
   46.2134    2.9025    6.9012 C   0  0  0  0  0  0  0  0  0  0  0  0
   45.9846    3.2007    8.3773 C   0  0  0  0  0  0  0  0  0  0  0  0
   44.7115    4.0212    8.5838 C   0  0  0  0  0  0  0  0  0  0  0  0
   45.0200    5.4698   10.6297 C   0  0  0  0  0  0  0  0  0  0  0  0
   43.7275    3.4401   10.8365 C   0  0  0  0  0  0  0  0  0  0  0  0
   43.5225    3.7098   12.1905 C   0  0  0  0  0  0  0  0  0  0  0  0
   44.8139    5.7378   11.9840 C   0  0  0  0  0  0  0  0  0  0  0  0
   44.0646    4.8586   12.7635 C   0  0  0  0  0  0  0  0  0  0  0  0
   48.2200    0.4328    6.8005 H   0  0  0  0  0  0  0  0  0  0  0  0
   45.3798    2.3355    6.4714 H   0  0  0  0  0  0  0  0  0  0  0  0
   46.2950    3.8297    6.3224 H   0  0  0  0  0  0  0  0  0  0  0  0
   45.9211    2.2602    8.9398 H   0  0  0  0  0  0  0  0  0  0  0  0
   46.8508    3.7397    8.7827 H   0  0  0  0  0  0  0  0  0  0  0  0
   43.8450    3.4848    8.1763 H   0  0  0  0  0  0  0  0  0  0  0  0
   44.7727    4.9634    8.0243 H   0  0  0  0  0  0  0  0  0  0  0  0
   45.6110    6.1629   10.0354 H   0  0  0  0  0  0  0  0  0  0  0  0
   43.3022    2.5370   10.4046 H   0  0  0  0  0  0  0  0  0  0  0  0
   42.9409    3.0220   12.7987 H   0  0  0  0  0  0  0  0  0  0  0  0
   45.2398    6.6321   12.4310 H   0  0  0  0  0  0  0  0  0  0  0  0
   43.9051    5.0676   13.8180 H   0  0  0  0  0  0  0  0  0  0  0  0
  2  1  1  0
  3  1  2  0
  4  7  1  0
  5  1  1  0
  6  5  1  0
  7  6  1  0
  8  4  2  0
  9  4  1  0
 10  9  2  0
 11  8  1  0
 12 11  2  0
 12 10  1  0
  2 13  1  0
  5 14  1  0
  5 15  1  0
  6 16  1  0
  6 17  1  0
  7 18  1  0
  7 19  1  0
  8 20  1  0
  9 21  1  0
 10 22  1  0
 11 23  1  0
 12 24  1  0
M  END
> <Uni-Dock RESULT> 
ENERGY=   -5.277  LOWER_BOUND=    3.434  UPPER_BOUND=    5.950
INTER + INTRA:          -5.277
INTER:                  -5.277
INTRA:                   0.000
UNBOUND:                 0.000

$$$$

     RDKit          3D

 24 24  0  0  0  0  0  0  0  0999 V2000
   47.0006    2.7629    6.5847 C   0  0  0  0  0  0  0  0  0  0  0  0
   45.9598    2.2863    5.8770 O   0  0  0  0  0  0  0  0  0  0  0  0
   48.0409    2.1330    6.6707 O   0  0  0  0  0  0  0  0  0  0  0  0
   44.8775    5.0458   10.4914 C   0  0  0  0  0  0  0  0  0  0  0  0
   46.7076    4.0849    7.2306 C   0  0  0  0  0  0  0  0  0  0  0  0
   45.9284    3.8892    8.5247 C   0  0  0  0  0  0  0  0  0  0  0  0
   45.6504    5.2272    9.2095 C   0  0  0  0  0  0  0  0  0  0  0  0
   45.5499    4.8403   11.7035 C   0  0  0  0  0  0  0  0  0  0  0  0
   43.4763    5.0511   10.4834 C   0  0  0  0  0  0  0  0  0  0  0  0
   42.7617    4.8658   11.6679 C   0  0  0  0  0  0  0  0  0  0  0  0
   44.8335    4.6551   12.8870 C   0  0  0  0  0  0  0  0  0  0  0  0
   43.4401    4.6689   12.8691 C   0  0  0  0  0  0  0  0  0  0  0  0
   46.2800    1.4264    5.5320 H   0  0  0  0  0  0  0  0  0  0  0  0
   46.1574    4.7132    6.5208 H   0  0  0  0  0  0  0  0  0  0  0  0
   47.6629    4.5876    7.4209 H   0  0  0  0  0  0  0  0  0  0  0  0
   44.9836    3.3715    8.3136 H   0  0  0  0  0  0  0  0  0  0  0  0
   46.4923    3.2305    9.1980 H   0  0  0  0  0  0  0  0  0  0  0  0
   45.0892    5.8878    8.5364 H   0  0  0  0  0  0  0  0  0  0  0  0
   46.5933    5.7465    9.4239 H   0  0  0  0  0  0  0  0  0  0  0  0
   46.6370    4.8222   11.7326 H   0  0  0  0  0  0  0  0  0  0  0  0
   42.9328    5.1988    9.5529 H   0  0  0  0  0  0  0  0  0  0  0  0
   41.6750    4.8733   11.6528 H   0  0  0  0  0  0  0  0  0  0  0  0
   45.3632    4.4983   13.8229 H   0  0  0  0  0  0  0  0  0  0  0  0
   42.8831    4.5241   13.7909 H   0  0  0  0  0  0  0  0  0  0  0  0
  2  1  1  0
  3  1  2  0
  4  7  1  0
  5  1  1  0
  6  5  1  0
  7  6  1  0
  8  4  2  0
  9  4  1  0
 10  9  2  0
 11  8  1  0
 12 11  2  0
 12 10  1  0
  2 13  1  0
  5 14  1  0
  5 15  1  0
  6 16  1  0
  6 17  1  0
  7 18  1  0
  7 19  1  0
  8 20  1  0
  9 21  1  0
 10 22  1  0
 11 23  1  0
 12 24  1  0
M  END
> <Uni-Dock RESULT> 
ENERGY=   -3.804  LOWER_BOUND=    3.418  UPPER_BOUND=    5.898
INTER + INTRA:          -3.804
INTER:                  -3.804
INTRA:                   0.000
UNBOUND:                 0.000

$$$$

     RDKit          3D

 24 24  0  0  0  0  0  0  0  0999 V2000
   44.7274    3.3645    8.7967 C   0  0  0  0  0  0  0  0  0  0  0  0
   45.8013    2.5654    8.9361 O   0  0  0  0  0  0  0  0  0  0  0  0
   44.2616    3.6017    7.6952 O   0  0  0  0  0  0  0  0  0  0  0  0
   45.3598    6.8807   12.2921 C   0  0  0  0  0  0  0  0  0  0  0  0
   44.2318    3.9058   10.1052 C   0  0  0  0  0  0  0  0  0  0  0  0
   45.0602    5.1089   10.5368 C   0  0  0  0  0  0  0  0  0  0  0  0
   44.5456    5.6897   11.8538 C   0  0  0  0  0  0  0  0  0  0  0  0
   45.0159    8.1713   11.8682 C   0  0  0  0  0  0  0  0  0  0  0  0
   46.4882    6.7100   13.1052 C   0  0  0  0  0  0  0  0  0  0  0  0
   47.2512    7.8115   13.4961 C   0  0  0  0  0  0  0  0  0  0  0  0
   45.7802    9.2715   12.2601 C   0  0  0  0  0  0  0  0  0  0  0  0
   46.8966    9.0915   13.0745 C   0  0  0  0  0  0  0  0  0  0  0  0
   46.0238    2.3030    8.0182 H   0  0  0  0  0  0  0  0  0  0  0  0
   44.2620    3.1067   10.8547 H   0  0  0  0  0  0  0  0  0  0  0  0
   43.1780    4.1804    9.9803 H   0  0  0  0  0  0  0  0  0  0  0  0
   46.1130    4.8156   10.6411 H   0  0  0  0  0  0  0  0  0  0  0  0
   45.0344    5.8749    9.7508 H   0  0  0  0  0  0  0  0  0  0  0  0
   44.5682    4.9241   12.6398 H   0  0  0  0  0  0  0  0  0  0  0  0
   43.4937    5.9859   11.7522 H   0  0  0  0  0  0  0  0  0  0  0  0
   44.1502    8.3270   11.2285 H   0  0  0  0  0  0  0  0  0  0  0  0
   46.7801    5.7166   13.4383 H   0  0  0  0  0  0  0  0  0  0  0  0
   48.1236    7.6701   14.1285 H   0  0  0  0  0  0  0  0  0  0  0  0
   45.5051   10.2691   11.9282 H   0  0  0  0  0  0  0  0  0  0  0  0
   47.4916    9.9485   13.3787 H   0  0  0  0  0  0  0  0  0  0  0  0
  2  1  1  0
  3  1  2  0
  4  7  1  0
  5  1  1  0
  6  5  1  0
  7  6  1  0
  8  4  2  0
  9  4  1  0
 10  9  2  0
 11  8  1  0
 12 11  2  0
 12 10  1  0
  2 13  1  0
  5 14  1  0
  5 15  1  0
  6 16  1  0
  6 17  1  0
  7 18  1  0
  7 19  1  0
  8 20  1  0
  9 21  1  0
 10 22  1  0
 11 23  1  0
 12 24  1  0
M  END
> <Uni-Dock RESULT> 
ENERGY=   -3.582  LOWER_BOUND=    3.317  UPPER_BOUND=    6.326
INTER + INTRA:          -3.582
INTER:                  -3.582
INTRA:                   0.000
UNBOUND:                 0.000

$$$$

     RDKit          3D

 24 24  0  0  0  0  0  0  0  0999 V2000
   43.0322    5.4677   11.5732 C   0  0  0  0  0  0  0  0  0  0  0  0
   43.3051    4.8640   10.4017 O   0  0  0  0  0  0  0  0  0  0  0  0
   41.9472    5.9866   11.7730 O   0  0  0  0  0  0  0  0  0  0  0  0
   47.3518    7.6203   12.8727 C   0  0  0  0  0  0  0  0  0  0  0  0
   44.1889    5.4335   12.5280 C   0  0  0  0  0  0  0  0  0  0  0  0
   45.1871    6.5367   12.2018 C   0  0  0  0  0  0  0  0  0  0  0  0
   46.3557    6.5329   13.1872 C   0  0  0  0  0  0  0  0  0  0  0  0
   47.2052    8.8996   13.4253 C   0  0  0  0  0  0  0  0  0  0  0  0
   48.4209    7.3744   12.0008 C   0  0  0  0  0  0  0  0  0  0  0  0
   49.3325    8.3867   11.6968 C   0  0  0  0  0  0  0  0  0  0  0  0
   48.1179    9.9106   13.1200 C   0  0  0  0  0  0  0  0  0  0  0  0
   49.1815    9.6537   12.2570 C   0  0  0  0  0  0  0  0  0  0  0  0
   42.4831    4.9750    9.8793 H   0  0  0  0  0  0  0  0  0  0  0  0
   44.6559    4.4428   12.4853 H   0  0  0  0  0  0  0  0  0  0  0  0
   43.7930    5.5512   13.5434 H   0  0  0  0  0  0  0  0  0  0  0  0
   45.5591    6.4087   11.1769 H   0  0  0  0  0  0  0  0  0  0  0  0
   44.6798    7.5101   12.2218 H   0  0  0  0  0  0  0  0  0  0  0  0
   46.8621    5.5593   13.1703 H   0  0  0  0  0  0  0  0  0  0  0  0
   45.9873    6.6629   14.2128 H   0  0  0  0  0  0  0  0  0  0  0  0
   46.3775    9.1166   14.0967 H   0  0  0  0  0  0  0  0  0  0  0  0
   48.5491    6.3920   11.5520 H   0  0  0  0  0  0  0  0  0  0  0  0
   50.1598    8.1867   11.0210 H   0  0  0  0  0  0  0  0  0  0  0  0
   47.9976   10.8994   13.5546 H   0  0  0  0  0  0  0  0  0  0  0  0
   49.8913   10.4415   12.0193 H   0  0  0  0  0  0  0  0  0  0  0  0
  2  1  1  0
  3  1  2  0
  4  7  1  0
  5  1  1  0
  6  5  1  0
  7  6  1  0
  8  4  2  0
  9  4  1  0
 10  9  2  0
 11  8  1  0
 12 11  2  0
 12 10  1  0
  2 13  1  0
  5 14  1  0
  5 15  1  0
  6 16  1  0
  6 17  1  0
  7 18  1  0
  7 19  1  0
  8 20  1  0
  9 21  1  0
 10 22  1  0
 11 23  1  0
 12 24  1  0
M  END
> <Uni-Dock RESULT> 
ENERGY=   -3.547  LOWER_BOUND=    4.885  UPPER_BOUND=    6.407
INTER + INTRA:          -3.547
INTER:                  -3.547
INTRA:                   0.000
UNBOUND:                 0.000

$$$$

     RDKit          3D

 24 24  0  0  0  0  0  0  0  0999 V2000
   43.7984   11.3130    7.6346 C   0  0  0  0  0  0  0  0  0  0  0  0
   44.2975   12.5545    7.7787 O   0  0  0  0  0  0  0  0  0  0  0  0
   43.5513   10.8613    6.5295 O   0  0  0  0  0  0  0  0  0  0  0  0
   40.7245   10.7721   11.5385 C   0  0  0  0  0  0  0  0  0  0  0  0
   43.5814   10.6179    8.9463 C   0  0  0  0  0  0  0  0  0  0  0  0
   42.2692   11.0627    9.5790 C   0  0  0  0  0  0  0  0  0  0  0  0
   42.0206   10.3381   10.9018 C   0  0  0  0  0  0  0  0  0  0  0  0
   39.5264   10.1138   11.2310 C   0  0  0  0  0  0  0  0  0  0  0  0
   40.6961   11.8580   12.4237 C   0  0  0  0  0  0  0  0  0  0  0  0
   39.4930   12.2699   12.9991 C   0  0  0  0  0  0  0  0  0  0  0  0
   38.3243   10.5272   11.8074 C   0  0  0  0  0  0  0  0  0  0  0  0
   38.3080   11.6041   12.6918 C   0  0  0  0  0  0  0  0  0  0  0  0
   44.3706   12.8900    6.8606 H   0  0  0  0  0  0  0  0  0  0  0  0
   44.4347   10.8233    9.6029 H   0  0  0  0  0  0  0  0  0  0  0  0
   43.5803    9.5376    8.7606 H   0  0  0  0  0  0  0  0  0  0  0  0
   42.2858   12.1482    9.7423 H   0  0  0  0  0  0  0  0  0  0  0  0
   41.4418   10.8725    8.8831 H   0  0  0  0  0  0  0  0  0  0  0  0
   42.8485   10.5251   11.5975 H   0  0  0  0  0  0  0  0  0  0  0  0
   42.0012    9.2525   10.7416 H   0  0  0  0  0  0  0  0  0  0  0  0
   39.5224    9.2747   10.5390 H   0  0  0  0  0  0  0  0  0  0  0  0
   41.6120   12.3906   12.6694 H   0  0  0  0  0  0  0  0  0  0  0  0
   39.4805   13.1119   13.6861 H   0  0  0  0  0  0  0  0  0  0  0  0
   37.4000   10.0096   11.5648 H   0  0  0  0  0  0  0  0  0  0  0  0
   37.3716   11.9257   13.1397 H   0  0  0  0  0  0  0  0  0  0  0  0
  2  1  1  0
  3  1  2  0
  4  7  1  0
  5  1  1  0
  6  5  1  0
  7  6  1  0
  8  4  2  0
  9  4  1  0
 10  9  2  0
 11  8  1  0
 12 11  2  0
 12 10  1  0
  2 13  1  0
  5 14  1  0
  5 15  1  0
  6 16  1  0
  6 17  1  0
  7 18  1  0
  7 19  1  0
  8 20  1  0
  9 21  1  0
 10 22  1  0
 11 23  1  0
 12 24  1  0
M  END
> <Uni-Dock RESULT> 
ENERGY=   -3.525  LOWER_BOUND=    7.976  UPPER_BOUND=   10.229
INTER + INTRA:          -3.525
INTER:                  -3.525
INTRA:                   0.000
UNBOUND:                 0.000

$$$$

     RDKit          3D

 24 24  0  0  0  0  0  0  0  0999 V2000
   46.9916    4.2998   14.6557 C   0  0  0  0  0  0  0  0  0  0  0  0
   46.8629    3.3022   13.7614 O   0  0  0  0  0  0  0  0  0  0  0  0
   46.8811    5.4651   14.3148 O   0  0  0  0  0  0  0  0  0  0  0  0
   50.5733    2.7057   17.7560 C   0  0  0  0  0  0  0  0  0  0  0  0
   47.2947    3.8047   16.0391 C   0  0  0  0  0  0  0  0  0  0  0  0
   48.7786    3.4940   16.1850 C   0  0  0  0  0  0  0  0  0  0  0  0
   49.1065    3.0182   17.6002 C   0  0  0  0  0  0  0  0  0  0  0  0
   51.4755    3.7054   18.1433 C   0  0  0  0  0  0  0  0  0  0  0  0
   51.0583    1.4188   17.4873 C   0  0  0  0  0  0  0  0  0  0  0  0
   52.4189    1.1350   17.6151 C   0  0  0  0  0  0  0  0  0  0  0  0
   52.8359    3.4197   18.2704 C   0  0  0  0  0  0  0  0  0  0  0  0
   53.3069    2.1347   18.0074 C   0  0  0  0  0  0  0  0  0  0  0  0
   46.6872    3.7630   12.9142 H   0  0  0  0  0  0  0  0  0  0  0  0
   46.6769    2.9230   16.2443 H   0  0  0  0  0  0  0  0  0  0  0  0
   46.9847    4.5787   16.7508 H   0  0  0  0  0  0  0  0  0  0  0  0
   49.0706    2.7287   15.4541 H   0  0  0  0  0  0  0  0  0  0  0  0
   49.3677    4.3878   15.9413 H   0  0  0  0  0  0  0  0  0  0  0  0
   48.5161    2.1263   17.8462 H   0  0  0  0  0  0  0  0  0  0  0  0
   48.8177    3.7821   18.3335 H   0  0  0  0  0  0  0  0  0  0  0  0
   51.1236    4.7141   18.3473 H   0  0  0  0  0  0  0  0  0  0  0  0
   50.3782    0.6294   17.1756 H   0  0  0  0  0  0  0  0  0  0  0  0
   52.7861    0.1336   17.4066 H   0  0  0  0  0  0  0  0  0  0  0  0
   53.5283    4.2006   18.5731 H   0  0  0  0  0  0  0  0  0  0  0  0
   54.3662    1.9132   18.1060 H   0  0  0  0  0  0  0  0  0  0  0  0
  2  1  1  0
  3  1  2  0
  4  7  1  0
  5  1  1  0
  6  5  1  0
  7  6  1  0
  8  4  2  0
  9  4  1  0
 10  9  2  0
 11  8  1  0
 12 11  2  0
 12 10  1  0
  2 13  1  0
  5 14  1  0
  5 15  1  0
  6 16  1  0
  6 17  1  0
  7 18  1  0
  7 19  1  0
  8 20  1  0
  9 21  1  0
 10 22  1  0
 11 23  1  0
 12 24  1  0
M  END
> <Uni-Dock RESULT> 
ENERGY=   -3.510  LOWER_BOUND=    8.262  UPPER_BOUND=    9.556
INTER + INTRA:          -3.510
INTER:                  -3.510
INTRA:                   0.000
UNBOUND:                 0.000

$$$$

     RDKit          3D

 24 24  0  0  0  0  0  0  0  0999 V2000
   42.9877    5.0287   11.5183 C   0  0  0  0  0  0  0  0  0  0  0  0
   42.0269    5.9370   11.7697 O   0  0  0  0  0  0  0  0  0  0  0  0
   42.7787    3.8372   11.6698 O   0  0  0  0  0  0  0  0  0  0  0  0
   47.2002    7.2593   13.0217 C   0  0  0  0  0  0  0  0  0  0  0  0
   44.2775    5.6543   11.0758 C   0  0  0  0  0  0  0  0  0  0  0  0
   45.0730    6.1507   12.2761 C   0  0  0  0  0  0  0  0  0  0  0  0
   46.4046    6.7625   11.8412 C   0  0  0  0  0  0  0  0  0  0  0  0
   48.0874    6.4056   13.6906 C   0  0  0  0  0  0  0  0  0  0  0  0
   47.0415    8.5727   13.4838 C   0  0  0  0  0  0  0  0  0  0  0  0
   47.7657    9.0263   14.5874 C   0  0  0  0  0  0  0  0  0  0  0  0
   48.8107    6.8611   14.7941 C   0  0  0  0  0  0  0  0  0  0  0  0
   48.6505    8.1712   15.2414 C   0  0  0  0  0  0  0  0  0  0  0  0
   41.2607    5.3991   12.0604 H   0  0  0  0  0  0  0  0  0  0  0  0
   44.0561    6.4678   10.3755 H   0  0  0  0  0  0  0  0  0  0  0  0
   44.8436    4.9016   10.5149 H   0  0  0  0  0  0  0  0  0  0  0  0
   44.4826    6.8913   12.8313 H   0  0  0  0  0  0  0  0  0  0  0  0
   45.2486    5.3191   12.9709 H   0  0  0  0  0  0  0  0  0  0  0  0
   46.2305    7.5922   11.1443 H   0  0  0  0  0  0  0  0  0  0  0  0
   46.9983    6.0238   11.2876 H   0  0  0  0  0  0  0  0  0  0  0  0
   48.2196    5.3791   13.3562 H   0  0  0  0  0  0  0  0  0  0  0  0
   46.3511    9.2503   12.9866 H   0  0  0  0  0  0  0  0  0  0  0  0
   47.6378   10.0471   14.9378 H   0  0  0  0  0  0  0  0  0  0  0  0
   49.4980    6.1926   15.3057 H   0  0  0  0  0  0  0  0  0  0  0  0
   49.2135    8.5249   16.1010 H   0  0  0  0  0  0  0  0  0  0  0  0
  2  1  1  0
  3  1  2  0
  4  7  1  0
  5  1  1  0
  6  5  1  0
  7  6  1  0
  8  4  2  0
  9  4  1  0
 10  9  2  0
 11  8  1  0
 12 11  2  0
 12 10  1  0
  2 13  1  0
  5 14  1  0
  5 15  1  0
  6 16  1  0
  6 17  1  0
  7 18  1  0
  7 19  1  0
  8 20  1  0
  9 21  1  0
 10 22  1  0
 11 23  1  0
 12 24  1  0
M  END
> <Uni-Dock RESULT> 
ENERGY=   -3.501  LOWER_BOUND=    4.265  UPPER_BOUND=    6.554
INTER + INTRA:          -3.501
INTER:                  -3.501
INTRA:                   0.000
UNBOUND:                 0.000

$$$$

     RDKit          3D

 24 24  0  0  0  0  0  0  0  0999 V2000
   43.0819    5.1710   12.0181 C   0  0  0  0  0  0  0  0  0  0  0  0
   42.5758    5.0511   13.2595 O   0  0  0  0  0  0  0  0  0  0  0  0
   43.0186    4.2482   11.2239 O   0  0  0  0  0  0  0  0  0  0  0  0
   47.1947    7.9423   12.6388 C   0  0  0  0  0  0  0  0  0  0  0  0
   43.7155    6.5090   11.7754 C   0  0  0  0  0  0  0  0  0  0  0  0
   45.1275    6.5457   12.3454 C   0  0  0  0  0  0  0  0  0  0  0  0
   45.7963    7.8938   12.0771 C   0  0  0  0  0  0  0  0  0  0  0  0
   48.2855    7.5207   11.8669 C   0  0  0  0  0  0  0  0  0  0  0  0
   47.4191    8.3822   13.9502 C   0  0  0  0  0  0  0  0  0  0  0  0
   48.7121    8.4103   14.4751 C   0  0  0  0  0  0  0  0  0  0  0  0
   49.5778    7.5495   12.3936 C   0  0  0  0  0  0  0  0  0  0  0  0
   49.7909    7.9952   13.6967 C   0  0  0  0  0  0  0  0  0  0  0  0
   42.2162    4.1395   13.2832 H   0  0  0  0  0  0  0  0  0  0  0  0
   43.0828    7.2873   12.2174 H   0  0  0  0  0  0  0  0  0  0  0  0
   43.7249    6.6877   10.6940 H   0  0  0  0  0  0  0  0  0  0  0  0
   45.0964    6.3498   13.4252 H   0  0  0  0  0  0  0  0  0  0  0  0
   45.7231    5.7348   11.9062 H   0  0  0  0  0  0  0  0  0  0  0  0
   45.2004    8.7057   12.5132 H   0  0  0  0  0  0  0  0  0  0  0  0
   45.8309    8.0918   10.9981 H   0  0  0  0  0  0  0  0  0  0  0  0
   48.1345    7.1658   10.8499 H   0  0  0  0  0  0  0  0  0  0  0  0
   46.5867    8.7048   14.5714 H   0  0  0  0  0  0  0  0  0  0  0  0
   48.8772    8.7548   15.4925 H   0  0  0  0  0  0  0  0  0  0  0  0
   50.4183    7.2224   11.7872 H   0  0  0  0  0  0  0  0  0  0  0  0
   50.7972    8.0168   14.1063 H   0  0  0  0  0  0  0  0  0  0  0  0
  2  1  1  0
  3  1  2  0
  4  7  1  0
  5  1  1  0
  6  5  1  0
  7  6  1  0
  8  4  2  0
  9  4  1  0
 10  9  2  0
 11  8  1  0
 12 11  2  0
 12 10  1  0
  2 13  1  0
  5 14  1  0
  5 15  1  0
  6 16  1  0
  6 17  1  0
  7 18  1  0
  7 19  1  0
  8 20  1  0
  9 21  1  0
 10 22  1  0
 11 23  1  0
 12 24  1  0
M  END
> <Uni-Dock RESULT> 
ENERGY=   -3.418  LOWER_BOUND=    4.939  UPPER_BOUND=    6.357
INTER + INTRA:          -3.418
INTER:                  -3.418
INTRA:                   0.000
UNBOUND:                 0.000

$$$$
