
     RDKit          3D

 24 24  0  0  0  0  0  0  0  0999 V2000
   45.9223    4.4591   12.9057 C   0  0  0  0  0  0  0  0  0  0  0  0
   46.3116    3.1706   12.9191 O   0  0  0  0  0  0  0  0  0  0  0  0
   46.6542    5.3292   12.4636 O   0  0  0  0  0  0  0  0  0  0  0  0
   43.8710    4.1407   10.4669 C   0  0  0  0  0  0  0  0  0  0  0  0
   44.5584    4.6588   13.5079 C   0  0  0  0  0  0  0  0  0  0  0  0
   43.6521    5.5133   12.6218 C   0  0  0  0  0  0  0  0  0  0  0  0
   42.9498    4.7221   11.5093 C   0  0  0  0  0  0  0  0  0  0  0  0
   44.6024    4.9769    9.6127 C   0  0  0  0  0  0  0  0  0  0  0  0
   44.0079    2.7521   10.3347 C   0  0  0  0  0  0  0  0  0  0  0  0
   44.8653    2.2121    9.3743 C   0  0  0  0  0  0  0  0  0  0  0  0
   45.4605    4.4354    8.6541 C   0  0  0  0  0  0  0  0  0  0  0  0
   45.5921    3.0536    8.5350 C   0  0  0  0  0  0  0  0  0  0  0  0
   47.1669    3.1846   12.4407 H   0  0  0  0  0  0  0  0  0  0  0  0
   44.7131    5.1543   14.4733 H   0  0  0  0  0  0  0  0  0  0  0  0
   44.0904    3.6900   13.7156 H   0  0  0  0  0  0  0  0  0  0  0  0
   44.2087    6.3574   12.1977 H   0  0  0  0  0  0  0  0  0  0  0  0
   42.8695    5.9453   13.2583 H   0  0  0  0  0  0  0  0  0  0  0  0
   42.3436    3.9264   11.9609 H   0  0  0  0  0  0  0  0  0  0  0  0
   42.2365    5.3826   10.9991 H   0  0  0  0  0  0  0  0  0  0  0  0
   44.5151    6.0582    9.6935 H   0  0  0  0  0  0  0  0  0  0  0  0
   43.4523    2.0789   10.9837 H   0  0  0  0  0  0  0  0  0  0  0  0
   44.9651    1.1338    9.2819 H   0  0  0  0  0  0  0  0  0  0  0  0
   46.0274    5.0943    8.0016 H   0  0  0  0  0  0  0  0  0  0  0  0
   46.2592    2.6335    7.7873 H   0  0  0  0  0  0  0  0  0  0  0  0
  2  1  1  0
  3  1  2  0
  4  7  1  0
  5  1  1  0
  6  5  1  0
  7  6  1  0
  8  4  2  0
  9  4  1  0
 10  9  2  0
 11  8  1  0
 12 11  2  0
 12 10  1  0
  2 13  1  0
  5 14  1  0
  5 15  1  0
  6 16  1  0
  6 17  1  0
  7 18  1  0
  7 19  1  0
  8 20  1  0
  9 21  1  0
 10 22  1  0
 11 23  1  0
 12 24  1  0
M  END
> <Uni-Dock RESULT> 
ENERGY=   -3.979  LOWER_BOUND=    0.000  UPPER_BOUND=    0.000
INTER + INTRA:          -3.979
INTER:                  -3.979
INTRA:                   0.000
UNBOUND:                 0.000

$$$$

     RDKit          3D

 24 24  0  0  0  0  0  0  0  0999 V2000
   46.2319    6.2719   12.4362 C   0  0  0  0  0  0  0  0  0  0  0  0
   46.2554    5.3296   13.3973 O   0  0  0  0  0  0  0  0  0  0  0  0
   47.0108    6.2283   11.4983 O   0  0  0  0  0  0  0  0  0  0  0  0
   43.5655    5.2059   11.0181 C   0  0  0  0  0  0  0  0  0  0  0  0
   45.1974    7.3338   12.6909 C   0  0  0  0  0  0  0  0  0  0  0  0
   44.3356    7.6117   11.4592 C   0  0  0  0  0  0  0  0  0  0  0  0
   43.1645    6.6337   11.2897 C   0  0  0  0  0  0  0  0  0  0  0  0
   44.2182    4.8607    9.8271 C   0  0  0  0  0  0  0  0  0  0  0  0
   43.2886    4.1999   11.9540 C   0  0  0  0  0  0  0  0  0  0  0  0
   43.6649    2.8783   11.7071 C   0  0  0  0  0  0  0  0  0  0  0  0
   44.5953    3.5392    9.5825 C   0  0  0  0  0  0  0  0  0  0  0  0
   44.3190    2.5484   10.5221 C   0  0  0  0  0  0  0  0  0  0  0  0
   46.9122    4.6816   13.0669 H   0  0  0  0  0  0  0  0  0  0  0  0
   45.7441    8.2396   12.9774 H   0  0  0  0  0  0  0  0  0  0  0  0
   44.5696    7.0542   13.5443 H   0  0  0  0  0  0  0  0  0  0  0  0
   44.9511    7.6321   10.5520 H   0  0  0  0  0  0  0  0  0  0  0  0
   43.9080    8.6166   11.5675 H   0  0  0  0  0  0  0  0  0  0  0  0
   42.5238    6.6813   12.1796 H   0  0  0  0  0  0  0  0  0  0  0  0
   42.5361    6.9725   10.4556 H   0  0  0  0  0  0  0  0  0  0  0  0
   44.4453    5.6215    9.0836 H   0  0  0  0  0  0  0  0  0  0  0  0
   42.7828    4.4386   12.8869 H   0  0  0  0  0  0  0  0  0  0  0  0
   43.4468    2.1066   12.4406 H   0  0  0  0  0  0  0  0  0  0  0  0
   45.1067    3.2849    8.6578 H   0  0  0  0  0  0  0  0  0  0  0  0
   44.6117    1.5198   10.3296 H   0  0  0  0  0  0  0  0  0  0  0  0
  2  1  1  0
  3  1  2  0
  4  7  1  0
  5  1  1  0
  6  5  1  0
  7  6  1  0
  8  4  2  0
  9  4  1  0
 10  9  2  0
 11  8  1  0
 12 11  2  0
 12 10  1  0
  2 13  1  0
  5 14  1  0
  5 15  1  0
  6 16  1  0
  6 17  1  0
  7 18  1  0
  7 19  1  0
  8 20  1  0
  9 21  1  0
 10 22  1  0
 11 23  1  0
 12 24  1  0
M  END
> <Uni-Dock RESULT> 
ENERGY=   -3.673  LOWER_BOUND=    1.502  UPPER_BOUND=    2.064
INTER + INTRA:          -3.673
INTER:                  -3.673
INTRA:                   0.000
UNBOUND:                 0.000

$$$$

     RDKit          3D

 24 24  0  0  0  0  0  0  0  0999 V2000
   44.9051    4.4061   10.0253 C   0  0  0  0  0  0  0  0  0  0  0  0
   45.6438    5.3768    9.4558 O   0  0  0  0  0  0  0  0  0  0  0  0
   45.3845    3.3078   10.2536 O   0  0  0  0  0  0  0  0  0  0  0  0
   44.9415    5.6709   12.9675 C   0  0  0  0  0  0  0  0  0  0  0  0
   43.4877    4.8353   10.2884 C   0  0  0  0  0  0  0  0  0  0  0  0
   43.0353    4.5038   11.7105 C   0  0  0  0  0  0  0  0  0  0  0  0
   43.4540    5.5501   12.7530 C   0  0  0  0  0  0  0  0  0  0  0  0
   45.6724    4.6114   13.5215 C   0  0  0  0  0  0  0  0  0  0  0  0
   45.6165    6.8483   12.6173 C   0  0  0  0  0  0  0  0  0  0  0  0
   46.9949    6.9596   12.8092 C   0  0  0  0  0  0  0  0  0  0  0  0
   47.0508    4.7236   13.7111 C   0  0  0  0  0  0  0  0  0  0  0  0
   47.7119    5.8971   13.3550 C   0  0  0  0  0  0  0  0  0  0  0  0
   46.5413    4.9857    9.4116 H   0  0  0  0  0  0  0  0  0  0  0  0
   42.8610    4.3041    9.5628 H   0  0  0  0  0  0  0  0  0  0  0  0
   43.3728    5.9065   10.0883 H   0  0  0  0  0  0  0  0  0  0  0  0
   43.3855    3.5078   12.0065 H   0  0  0  0  0  0  0  0  0  0  0  0
   41.9387    4.4615   11.7136 H   0  0  0  0  0  0  0  0  0  0  0  0
   43.0343    6.5249   12.4736 H   0  0  0  0  0  0  0  0  0  0  0  0
   42.9934    5.2961   13.7166 H   0  0  0  0  0  0  0  0  0  0  0  0
   45.1737    3.6863   13.8022 H   0  0  0  0  0  0  0  0  0  0  0  0
   45.0749    7.6870   12.1857 H   0  0  0  0  0  0  0  0  0  0  0  0
   47.5084    7.8766   12.5324 H   0  0  0  0  0  0  0  0  0  0  0  0
   47.6078    3.8926   14.1359 H   0  0  0  0  0  0  0  0  0  0  0  0
   48.7846    5.9836   13.5047 H   0  0  0  0  0  0  0  0  0  0  0  0
  2  1  1  0
  3  1  2  0
  4  7  1  0
  5  1  1  0
  6  5  1  0
  7  6  1  0
  8  4  2  0
  9  4  1  0
 10  9  2  0
 11  8  1  0
 12 11  2  0
 12 10  1  0
  2 13  1  0
  5 14  1  0
  5 15  1  0
  6 16  1  0
  6 17  1  0
  7 18  1  0
  7 19  1  0
  8 20  1  0
  9 21  1  0
 10 22  1  0
 11 23  1  0
 12 24  1  0
M  END
> <Uni-Dock RESULT> 
ENERGY=   -3.414  LOWER_BOUND=    1.869  UPPER_BOUND=    4.156
INTER + INTRA:          -3.414
INTER:                  -3.414
INTRA:                   0.000
UNBOUND:                 0.000

$$$$

     RDKit          3D

 24 24  0  0  0  0  0  0  0  0999 V2000
   49.2118    7.2849   17.0550 C   0  0  0  0  0  0  0  0  0  0  0  0
   50.4673    6.8138   16.9370 O   0  0  0  0  0  0  0  0  0  0  0  0
   48.4627    7.3169   16.0926 O   0  0  0  0  0  0  0  0  0  0  0  0
   48.0599    4.7232   18.5939 C   0  0  0  0  0  0  0  0  0  0  0  0
   48.9016    7.7660   18.4460 C   0  0  0  0  0  0  0  0  0  0  0  0
   47.5758    7.2133   18.9692 C   0  0  0  0  0  0  0  0  0  0  0  0
   47.6872    5.8066   19.5739 C   0  0  0  0  0  0  0  0  0  0  0  0
   47.1885    4.3677   17.5556 C   0  0  0  0  0  0  0  0  0  0  0  0
   49.2851    4.0523   18.7084 C   0  0  0  0  0  0  0  0  0  0  0  0
   49.6347    3.0533   17.7980 C   0  0  0  0  0  0  0  0  0  0  0  0
   47.5402    3.3698   16.6451 C   0  0  0  0  0  0  0  0  0  0  0  0
   48.7628    2.7130   16.7660 C   0  0  0  0  0  0  0  0  0  0  0  0
   50.5004    6.4774   16.0170 H   0  0  0  0  0  0  0  0  0  0  0  0
   48.8570    8.8600   18.3950 H   0  0  0  0  0  0  0  0  0  0  0  0
   49.7207    7.5095   19.1271 H   0  0  0  0  0  0  0  0  0  0  0  0
   46.8109    7.2323   18.1838 H   0  0  0  0  0  0  0  0  0  0  0  0
   47.2224    7.8826   19.7638 H   0  0  0  0  0  0  0  0  0  0  0  0
   48.4062    5.8269   20.4029 H   0  0  0  0  0  0  0  0  0  0  0  0
   46.7239    5.5365   20.0258 H   0  0  0  0  0  0  0  0  0  0  0  0
   46.2313    4.8722   17.4434 H   0  0  0  0  0  0  0  0  0  0  0  0
   49.9811    4.3070   19.5046 H   0  0  0  0  0  0  0  0  0  0  0  0
   50.5881    2.5408   17.8952 H   0  0  0  0  0  0  0  0  0  0  0  0
   46.8586    3.1074   15.8402 H   0  0  0  0  0  0  0  0  0  0  0  0
   49.0345    1.9353   16.0575 H   0  0  0  0  0  0  0  0  0  0  0  0
  2  1  1  0
  3  1  2  0
  4  7  1  0
  5  1  1  0
  6  5  1  0
  7  6  1  0
  8  4  2  0
  9  4  1  0
 10  9  2  0
 11  8  1  0
 12 11  2  0
 12 10  1  0
  2 13  1  0
  5 14  1  0
  5 15  1  0
  6 16  1  0
  6 17  1  0
  7 18  1  0
  7 19  1  0
  8 20  1  0
  9 21  1  0
 10 22  1  0
 11 23  1  0
 12 24  1  0
M  END
> <Uni-Dock RESULT> 
ENERGY=   -2.953  LOWER_BOUND=    6.718  UPPER_BOUND=    8.158
INTER + INTRA:          -2.953
INTER:                  -2.953
INTRA:                   0.000
UNBOUND:                 0.000

$$$$

     RDKit          3D

 24 24  0  0  0  0  0  0  0  0999 V2000
   45.1026    6.9356   12.0375 C   0  0  0  0  0  0  0  0  0  0  0  0
   45.8451    6.1630   11.2227 O   0  0  0  0  0  0  0  0  0  0  0  0
   44.8028    6.5561   13.1575 O   0  0  0  0  0  0  0  0  0  0  0  0
   47.4509    8.9971   12.7394 C   0  0  0  0  0  0  0  0  0  0  0  0
   44.6952    8.2326   11.3939 C   0  0  0  0  0  0  0  0  0  0  0  0
   44.9640    9.4375   12.2954 C   0  0  0  0  0  0  0  0  0  0  0  0
   46.4075    9.9551   12.2228 C   0  0  0  0  0  0  0  0  0  0  0  0
   47.4895    8.6451   14.0952 C   0  0  0  0  0  0  0  0  0  0  0  0
   48.4014    8.4451   11.8698 C   0  0  0  0  0  0  0  0  0  0  0  0
   49.3642    7.5530   12.3452 C   0  0  0  0  0  0  0  0  0  0  0  0
   48.4518    7.7516   14.5687 C   0  0  0  0  0  0  0  0  0  0  0  0
   49.3887    7.2056   13.6941 C   0  0  0  0  0  0  0  0  0  0  0  0
   46.0913    5.4023   11.7896 H   0  0  0  0  0  0  0  0  0  0  0  0
   43.6221    8.1536   11.1848 H   0  0  0  0  0  0  0  0  0  0  0  0
   45.2021    8.3529   10.4299 H   0  0  0  0  0  0  0  0  0  0  0  0
   44.6898    9.2141   13.3333 H   0  0  0  0  0  0  0  0  0  0  0  0
   44.3080   10.2547   11.9695 H   0  0  0  0  0  0  0  0  0  0  0  0
   46.6370   10.2381   11.1875 H   0  0  0  0  0  0  0  0  0  0  0  0
   46.4825   10.8826   12.8054 H   0  0  0  0  0  0  0  0  0  0  0  0
   46.7638    9.0587   14.7921 H   0  0  0  0  0  0  0  0  0  0  0  0
   48.3957    8.7006   10.8125 H   0  0  0  0  0  0  0  0  0  0  0  0
   50.0953    7.1295   11.6615 H   0  0  0  0  0  0  0  0  0  0  0  0
   48.4676    7.4813   15.6213 H   0  0  0  0  0  0  0  0  0  0  0  0
   50.1382    6.5114   14.0644 H   0  0  0  0  0  0  0  0  0  0  0  0
  2  1  1  0
  3  1  2  0
  4  7  1  0
  5  1  1  0
  6  5  1  0
  7  6  1  0
  8  4  2  0
  9  4  1  0
 10  9  2  0
 11  8  1  0
 12 11  2  0
 12 10  1  0
  2 13  1  0
  5 14  1  0
  5 15  1  0
  6 16  1  0
  6 17  1  0
  7 18  1  0
  7 19  1  0
  8 20  1  0
  9 21  1  0
 10 22  1  0
 11 23  1  0
 12 24  1  0
M  END
> <Uni-Dock RESULT> 
ENERGY=   -2.826  LOWER_BOUND=    4.050  UPPER_BOUND=    5.829
INTER + INTRA:          -2.826
INTER:                  -2.826
INTRA:                   0.000
UNBOUND:                 0.000

$$$$

     RDKit          3D

 24 24  0  0  0  0  0  0  0  0999 V2000
   49.0970    9.7347   19.8875 C   0  0  0  0  0  0  0  0  0  0  0  0
   49.5365    9.9318   18.6305 O   0  0  0  0  0  0  0  0  0  0  0  0
   49.7731   10.0691   20.8463 O   0  0  0  0  0  0  0  0  0  0  0  0
   46.9488   12.1097   19.8438 C   0  0  0  0  0  0  0  0  0  0  0  0
   47.7558    9.0552   19.9326 C   0  0  0  0  0  0  0  0  0  0  0  0
   46.7766    9.7650   20.8677 C   0  0  0  0  0  0  0  0  0  0  0  0
   46.0549   10.9554   20.2204 C   0  0  0  0  0  0  0  0  0  0  0  0
   47.6066   12.8561   20.8306 C   0  0  0  0  0  0  0  0  0  0  0  0
   47.1335   12.4556   18.4982 C   0  0  0  0  0  0  0  0  0  0  0  0
   47.9659   13.5201   18.1473 C   0  0  0  0  0  0  0  0  0  0  0  0
   48.4398   13.9191   20.4780 C   0  0  0  0  0  0  0  0  0  0  0  0
   48.6196   14.2509   19.1370 C   0  0  0  0  0  0  0  0  0  0  0  0
   50.3675   10.4364   18.7548 H   0  0  0  0  0  0  0  0  0  0  0  0
   47.9356    8.0329   20.2849 H   0  0  0  0  0  0  0  0  0  0  0  0
   47.3361    8.9778   18.9233 H   0  0  0  0  0  0  0  0  0  0  0  0
   47.2796   10.0785   21.7902 H   0  0  0  0  0  0  0  0  0  0  0  0
   46.0081    9.0396   21.1636 H   0  0  0  0  0  0  0  0  0  0  0  0
   45.5018   10.6054   19.3393 H   0  0  0  0  0  0  0  0  0  0  0  0
   45.2935   11.3308   20.9164 H   0  0  0  0  0  0  0  0  0  0  0  0
   47.4809   12.6093   21.8826 H   0  0  0  0  0  0  0  0  0  0  0  0
   46.6354   11.8942   17.7110 H   0  0  0  0  0  0  0  0  0  0  0  0
   48.1034   13.7784   17.1006 H   0  0  0  0  0  0  0  0  0  0  0  0
   48.9496   14.4866   21.2522 H   0  0  0  0  0  0  0  0  0  0  0  0
   49.2672   15.0796   18.8641 H   0  0  0  0  0  0  0  0  0  0  0  0
  2  1  1  0
  3  1  2  0
  4  7  1  0
  5  1  1  0
  6  5  1  0
  7  6  1  0
  8  4  2  0
  9  4  1  0
 10  9  2  0
 11  8  1  0
 12 11  2  0
 12 10  1  0
  2 13  1  0
  5 14  1  0
  5 15  1  0
  6 16  1  0
  6 17  1  0
  7 18  1  0
  7 19  1  0
  8 20  1  0
  9 21  1  0
 10 22  1  0
 11 23  1  0
 12 24  1  0
M  END
> <Uni-Dock RESULT> 
ENERGY=   -2.826  LOWER_BOUND=   10.784  UPPER_BOUND=   12.238
INTER + INTRA:          -2.826
INTER:                  -2.826
INTRA:                   0.000
UNBOUND:                 0.000

$$$$

     RDKit          3D

 24 24  0  0  0  0  0  0  0  0999 V2000
   47.7857    3.4332   17.3220 C   0  0  0  0  0  0  0  0  0  0  0  0
   47.0123    2.7739   18.2048 O   0  0  0  0  0  0  0  0  0  0  0  0
   47.3354    4.3553   16.6623 O   0  0  0  0  0  0  0  0  0  0  0  0
   49.4522    5.0604   19.5203 C   0  0  0  0  0  0  0  0  0  0  0  0
   49.1824    2.8797   17.2485 C   0  0  0  0  0  0  0  0  0  0  0  0
   50.2459    3.9743   17.3372 C   0  0  0  0  0  0  0  0  0  0  0  0
   50.5817    4.3961   18.7746 C   0  0  0  0  0  0  0  0  0  0  0  0
   48.9622    6.3082   19.1121 C   0  0  0  0  0  0  0  0  0  0  0  0
   48.8758    4.4395   20.6369 C   0  0  0  0  0  0  0  0  0  0  0  0
   47.8255    5.0502   21.3247 C   0  0  0  0  0  0  0  0  0  0  0  0
   47.9109    6.9167   19.7999 C   0  0  0  0  0  0  0  0  0  0  0  0
   47.3426    6.2879   20.9056 C   0  0  0  0  0  0  0  0  0  0  0  0
   46.1731    3.2800   18.1971 H   0  0  0  0  0  0  0  0  0  0  0  0
   49.2612    2.3582   16.2876 H   0  0  0  0  0  0  0  0  0  0  0  0
   49.3351    2.1308   18.0337 H   0  0  0  0  0  0  0  0  0  0  0  0
   49.9546    4.8471   16.7408 H   0  0  0  0  0  0  0  0  0  0  0  0
   51.1682    3.5845   16.8880 H   0  0  0  0  0  0  0  0  0  0  0  0
   50.9371    3.5207   19.3330 H   0  0  0  0  0  0  0  0  0  0  0  0
   51.4283    5.0947   18.7516 H   0  0  0  0  0  0  0  0  0  0  0  0
   49.3912    6.8124   18.2489 H   0  0  0  0  0  0  0  0  0  0  0  0
   49.2360    3.4710   20.9765 H   0  0  0  0  0  0  0  0  0  0  0  0
   47.3848    4.5588   22.1881 H   0  0  0  0  0  0  0  0  0  0  0  0
   47.5353    7.8817   19.4698 H   0  0  0  0  0  0  0  0  0  0  0  0
   46.5254    6.7635   21.4410 H   0  0  0  0  0  0  0  0  0  0  0  0
  2  1  1  0
  3  1  2  0
  4  7  1  0
  5  1  1  0
  6  5  1  0
  7  6  1  0
  8  4  2  0
  9  4  1  0
 10  9  2  0
 11  8  1  0
 12 11  2  0
 12 10  1  0
  2 13  1  0
  5 14  1  0
  5 15  1  0
  6 16  1  0
  6 17  1  0
  7 18  1  0
  7 19  1  0
  8 20  1  0
  9 21  1  0
 10 22  1  0
 11 23  1  0
 12 24  1  0
M  END
> <Uni-Dock RESULT> 
ENERGY=   -2.810  LOWER_BOUND=    7.209  UPPER_BOUND=    9.616
INTER + INTRA:          -2.810
INTER:                  -2.810
INTRA:                   0.000
UNBOUND:                 0.000

$$$$

     RDKit          3D

 24 24  0  0  0  0  0  0  0  0999 V2000
   50.7013    5.6851   21.1867 C   0  0  0  0  0  0  0  0  0  0  0  0
   51.0495    6.9559   21.4620 O   0  0  0  0  0  0  0  0  0  0  0  0
   50.8551    4.8012   22.0133 O   0  0  0  0  0  0  0  0  0  0  0  0
   47.5447    6.1641   21.4390 C   0  0  0  0  0  0  0  0  0  0  0  0
   50.1639    5.5208   19.7914 C   0  0  0  0  0  0  0  0  0  0  0  0
   48.8545    4.7323   19.7628 C   0  0  0  0  0  0  0  0  0  0  0  0
   47.6112    5.5866   20.0479 C   0  0  0  0  0  0  0  0  0  0  0  0
   47.4066    5.3275   22.5547 C   0  0  0  0  0  0  0  0  0  0  0  0
   47.6175    7.5497   21.6373 C   0  0  0  0  0  0  0  0  0  0  0  0
   47.5626    8.0858   22.9252 C   0  0  0  0  0  0  0  0  0  0  0  0
   47.3535    5.8650   23.8419 C   0  0  0  0  0  0  0  0  0  0  0  0
   47.4316    7.2435   24.0271 C   0  0  0  0  0  0  0  0  0  0  0  0
   51.3077    6.9232   22.4069 H   0  0  0  0  0  0  0  0  0  0  0  0
   50.9339    4.9885   19.2211 H   0  0  0  0  0  0  0  0  0  0  0  0
   50.0333    6.5003   19.3178 H   0  0  0  0  0  0  0  0  0  0  0  0
   48.8996    3.8808   20.4520 H   0  0  0  0  0  0  0  0  0  0  0  0
   48.7370    4.3116   18.7560 H   0  0  0  0  0  0  0  0  0  0  0  0
   47.5485    6.3908   19.3037 H   0  0  0  0  0  0  0  0  0  0  0  0
   46.7146    4.9720   19.8940 H   0  0  0  0  0  0  0  0  0  0  0  0
   47.3477    4.2485   22.4295 H   0  0  0  0  0  0  0  0  0  0  0  0
   47.7245    8.2232   20.7900 H   0  0  0  0  0  0  0  0  0  0  0  0
   47.6219    9.1617   23.0674 H   0  0  0  0  0  0  0  0  0  0  0  0
   47.2527    5.2053   24.6998 H   0  0  0  0  0  0  0  0  0  0  0  0
   47.3885    7.6606   25.0296 H   0  0  0  0  0  0  0  0  0  0  0  0
  2  1  1  0
  3  1  2  0
  4  7  1  0
  5  1  1  0
  6  5  1  0
  7  6  1  0
  8  4  2  0
  9  4  1  0
 10  9  2  0
 11  8  1  0
 12 11  2  0
 12 10  1  0
  2 13  1  0
  5 14  1  0
  5 15  1  0
  6 16  1  0
  6 17  1  0
  7 18  1  0
  7 19  1  0
  8 20  1  0
  9 21  1  0
 10 22  1  0
 11 23  1  0
 12 24  1  0
M  END
> <Uni-Dock RESULT> 
ENERGY=   -2.734  LOWER_BOUND=   10.122  UPPER_BOUND=   12.102
INTER + INTRA:          -2.734
INTER:                  -2.734
INTRA:                   0.000
UNBOUND:                 0.000

$$$$

     RDKit          3D

 24 24  0  0  0  0  0  0  0  0999 V2000
   49.4092   11.9570   20.5817 C   0  0  0  0  0  0  0  0  0  0  0  0
   49.7867   11.4736   21.7800 O   0  0  0  0  0  0  0  0  0  0  0  0
   50.0151   11.6558   19.5666 O   0  0  0  0  0  0  0  0  0  0  0  0
   46.8288   10.0829   20.2872 C   0  0  0  0  0  0  0  0  0  0  0  0
   48.2317   12.8881   20.6772 C   0  0  0  0  0  0  0  0  0  0  0  0
   47.1406   12.5500   19.6613 C   0  0  0  0  0  0  0  0  0  0  0  0
   46.1882   11.4378   20.1228 C   0  0  0  0  0  0  0  0  0  0  0  0
   47.3347    9.3918   19.1781 C   0  0  0  0  0  0  0  0  0  0  0  0
   46.9259    9.4920   21.5545 C   0  0  0  0  0  0  0  0  0  0  0  0
   47.5246    8.2403   21.7095 C   0  0  0  0  0  0  0  0  0  0  0  0
   47.9344    8.1412   19.3350 C   0  0  0  0  0  0  0  0  0  0  0  0
   48.0295    7.5657   20.6001 C   0  0  0  0  0  0  0  0  0  0  0  0
   50.5012   10.8408   21.5571 H   0  0  0  0  0  0  0  0  0  0  0  0
   48.6163   13.8976   20.4915 H   0  0  0  0  0  0  0  0  0  0  0  0
   47.8251   12.8816   21.6947 H   0  0  0  0  0  0  0  0  0  0  0  0
   47.5806   12.2976   18.6893 H   0  0  0  0  0  0  0  0  0  0  0  0
   46.5360   13.4523   19.5041 H   0  0  0  0  0  0  0  0  0  0  0  0
   45.7068   11.7422   21.0610 H   0  0  0  0  0  0  0  0  0  0  0  0
   45.3747   11.3404   19.3921 H   0  0  0  0  0  0  0  0  0  0  0  0
   47.2724    9.8272   18.1831 H   0  0  0  0  0  0  0  0  0  0  0  0
   46.5417   10.0052   22.4332 H   0  0  0  0  0  0  0  0  0  0  0  0
   47.5962    7.7924   22.6971 H   0  0  0  0  0  0  0  0  0  0  0  0
   48.3287    7.6178   18.4679 H   0  0  0  0  0  0  0  0  0  0  0  0
   48.4952    6.5913   20.7205 H   0  0  0  0  0  0  0  0  0  0  0  0
  2  1  1  0
  3  1  2  0
  4  7  1  0
  5  1  1  0
  6  5  1  0
  7  6  1  0
  8  4  2  0
  9  4  1  0
 10  9  2  0
 11  8  1  0
 12 11  2  0
 12 10  1  0
  2 13  1  0
  5 14  1  0
  5 15  1  0
  6 16  1  0
  6 17  1  0
  7 18  1  0
  7 19  1  0
  8 20  1  0
  9 21  1  0
 10 22  1  0
 11 23  1  0
 12 24  1  0
M  END
> <Uni-Dock RESULT> 
ENERGY=   -2.733  LOWER_BOUND=   10.385  UPPER_BOUND=   11.911
INTER + INTRA:          -2.733
INTER:                  -2.733
INTRA:                   0.000
UNBOUND:                 0.000

$$$$
