
     RDKit          3D

 24 24  0  0  0  0  0  0  0  0999 V2000
   47.3366    1.9457    6.6204 C   0  0  0  0  0  0  0  0  0  0  0  0
   48.3707    1.9157    5.7569 O   0  0  0  0  0  0  0  0  0  0  0  0
   47.1858    1.0544    7.4372 O   0  0  0  0  0  0  0  0  0  0  0  0
   44.9200    3.9357    9.8771 C   0  0  0  0  0  0  0  0  0  0  0  0
   46.4647    3.1544    6.4066 C   0  0  0  0  0  0  0  0  0  0  0  0
   45.3987    3.3149    7.4892 C   0  0  0  0  0  0  0  0  0  0  0  0
   45.9910    3.7648    8.8288 C   0  0  0  0  0  0  0  0  0  0  0  0
   44.4921    2.8373   10.6351 C   0  0  0  0  0  0  0  0  0  0  0  0
   44.3199    5.1839   10.0883 C   0  0  0  0  0  0  0  0  0  0  0  0
   43.3175    5.3322   11.0484 C   0  0  0  0  0  0  0  0  0  0  0  0
   43.4897    2.9877   11.5943 C   0  0  0  0  0  0  0  0  0  0  0  0
   42.9035    4.2349   11.8014 C   0  0  0  0  0  0  0  0  0  0  0  0
   48.8474    1.0899    5.9845 H   0  0  0  0  0  0  0  0  0  0  0  0
   47.0973    4.0478    6.3679 H   0  0  0  0  0  0  0  0  0  0  0  0
   45.9713    3.0326    5.4357 H   0  0  0  0  0  0  0  0  0  0  0  0
   44.8468    2.3749    7.6162 H   0  0  0  0  0  0  0  0  0  0  0  0
   44.6692    4.0615    7.1498 H   0  0  0  0  0  0  0  0  0  0  0  0
   46.5312    4.7116    8.7016 H   0  0  0  0  0  0  0  0  0  0  0  0
   46.7330    3.0436    9.1918 H   0  0  0  0  0  0  0  0  0  0  0  0
   44.9388    1.8573   10.4793 H   0  0  0  0  0  0  0  0  0  0  0  0
   44.6295    6.0483    9.5060 H   0  0  0  0  0  0  0  0  0  0  0  0
   42.8586    6.3043   11.2079 H   0  0  0  0  0  0  0  0  0  0  0  0
   43.1659    2.1305   12.1785 H   0  0  0  0  0  0  0  0  0  0  0  0
   42.1229    4.3511   12.5484 H   0  0  0  0  0  0  0  0  0  0  0  0
  2  1  1  0
  3  1  2  0
  4  7  1  0
  5  1  1  0
  6  5  1  0
  7  6  1  0
  8  4  2  0
  9  4  1  0
 10  9  2  0
 11  8  1  0
 12 11  2  0
 12 10  1  0
  2 13  1  0
  5 14  1  0
  5 15  1  0
  6 16  1  0
  6 17  1  0
  7 18  1  0
  7 19  1  0
  8 20  1  0
  9 21  1  0
 10 22  1  0
 11 23  1  0
 12 24  1  0
M  END
> <Uni-Dock RESULT> 
ENERGY=   -4.924  LOWER_BOUND=    0.000  UPPER_BOUND=    0.000
INTER + INTRA:          -4.924
INTER:                  -4.924
INTRA:                   0.000
UNBOUND:                 0.000

$$$$

     RDKit          3D

 24 24  0  0  0  0  0  0  0  0999 V2000
   46.6579    3.2185    6.7342 C   0  0  0  0  0  0  0  0  0  0  0  0
   46.7187    2.7239    5.4822 O   0  0  0  0  0  0  0  0  0  0  0  0
   47.2359    4.2521    7.0205 O   0  0  0  0  0  0  0  0  0  0  0  0
   44.3559    4.7236   10.3176 C   0  0  0  0  0  0  0  0  0  0  0  0
   45.8409    2.3395    7.6434 C   0  0  0  0  0  0  0  0  0  0  0  0
   45.5964    2.9694    9.0137 C   0  0  0  0  0  0  0  0  0  0  0  0
   44.5973    4.1295    8.9524 C   0  0  0  0  0  0  0  0  0  0  0  0
   45.2099    5.7164   10.8168 C   0  0  0  0  0  0  0  0  0  0  0  0
   43.2954    4.2739   11.1151 C   0  0  0  0  0  0  0  0  0  0  0  0
   43.0870    4.8159   12.3845 C   0  0  0  0  0  0  0  0  0  0  0  0
   45.0000    6.2568   12.0862 C   0  0  0  0  0  0  0  0  0  0  0  0
   43.9384    5.8073   12.8692 C   0  0  0  0  0  0  0  0  0  0  0  0
   47.2789    3.3670    4.9988 H   0  0  0  0  0  0  0  0  0  0  0  0
   44.8850    2.1153    7.1578 H   0  0  0  0  0  0  0  0  0  0  0  0
   46.3946    1.4031    7.7752 H   0  0  0  0  0  0  0  0  0  0  0  0
   46.5457    3.3102    9.4460 H   0  0  0  0  0  0  0  0  0  0  0  0
   45.2072    2.1949    9.6871 H   0  0  0  0  0  0  0  0  0  0  0  0
   43.6446    3.7829    8.5319 H   0  0  0  0  0  0  0  0  0  0  0  0
   44.9524    4.9181    8.2784 H   0  0  0  0  0  0  0  0  0  0  0  0
   46.0452    6.0723   10.2168 H   0  0  0  0  0  0  0  0  0  0  0  0
   42.6252    3.4984   10.7523 H   0  0  0  0  0  0  0  0  0  0  0  0
   42.2608    4.4634   12.9960 H   0  0  0  0  0  0  0  0  0  0  0  0
   45.6664    7.0276   12.4639 H   0  0  0  0  0  0  0  0  0  0  0  0
   43.7757    6.2285   13.8576 H   0  0  0  0  0  0  0  0  0  0  0  0
  2  1  1  0
  3  1  2  0
  4  7  1  0
  5  1  1  0
  6  5  1  0
  7  6  1  0
  8  4  2  0
  9  4  1  0
 10  9  2  0
 11  8  1  0
 12 11  2  0
 12 10  1  0
  2 13  1  0
  5 14  1  0
  5 15  1  0
  6 16  1  0
  6 17  1  0
  7 18  1  0
  7 19  1  0
  8 20  1  0
  9 21  1  0
 10 22  1  0
 11 23  1  0
 12 24  1  0
M  END
> <Uni-Dock RESULT> 
ENERGY=   -4.453  LOWER_BOUND=    1.496  UPPER_BOUND=    2.160
INTER + INTRA:          -4.453
INTER:                  -4.453
INTRA:                   0.000
UNBOUND:                 0.000

$$$$

     RDKit          3D

 24 24  0  0  0  0  0  0  0  0999 V2000
   43.2438    4.7144   11.4935 C   0  0  0  0  0  0  0  0  0  0  0  0
   42.8751    3.4530   11.7914 O   0  0  0  0  0  0  0  0  0  0  0  0
   42.4113    5.6005   11.4139 O   0  0  0  0  0  0  0  0  0  0  0  0
   45.6482    8.4561   12.2839 C   0  0  0  0  0  0  0  0  0  0  0  0
   44.7292    4.8259   11.2750 C   0  0  0  0  0  0  0  0  0  0  0  0
   45.1992    6.2718   11.1247 C   0  0  0  0  0  0  0  0  0  0  0  0
   45.1623    7.0380   12.4512 C   0  0  0  0  0  0  0  0  0  0  0  0
   44.7616    9.4633   11.8795 C   0  0  0  0  0  0  0  0  0  0  0  0
   46.9934    8.7808   12.5024 C   0  0  0  0  0  0  0  0  0  0  0  0
   47.4406   10.0918   12.3299 C   0  0  0  0  0  0  0  0  0  0  0  0
   45.2106   10.7733   11.7074 C   0  0  0  0  0  0  0  0  0  0  0  0
   46.5494   11.0875   11.9335 C   0  0  0  0  0  0  0  0  0  0  0  0
   41.9019    3.5075   11.8956 H   0  0  0  0  0  0  0  0  0  0  0  0
   45.2494    4.3477   12.1121 H   0  0  0  0  0  0  0  0  0  0  0  0
   44.9656    4.2769   10.3566 H   0  0  0  0  0  0  0  0  0  0  0  0
   44.5906    6.7890   10.3721 H   0  0  0  0  0  0  0  0  0  0  0  0
   46.2280    6.2643   10.7423 H   0  0  0  0  0  0  0  0  0  0  0  0
   45.7822    6.5258   13.1981 H   0  0  0  0  0  0  0  0  0  0  0  0
   44.1475    7.0557   12.8661 H   0  0  0  0  0  0  0  0  0  0  0  0
   43.7147    9.2295   11.6952 H   0  0  0  0  0  0  0  0  0  0  0  0
   47.7013    8.0142   12.8081 H   0  0  0  0  0  0  0  0  0  0  0  0
   48.4851   10.3361   12.5037 H   0  0  0  0  0  0  0  0  0  0  0  0
   44.5152   11.5479   11.3954 H   0  0  0  0  0  0  0  0  0  0  0  0
   46.8983   12.1078   11.7991 H   0  0  0  0  0  0  0  0  0  0  0  0
  2  1  1  0
  3  1  2  0
  4  7  1  0
  5  1  1  0
  6  5  1  0
  7  6  1  0
  8  4  2  0
  9  4  1  0
 10  9  2  0
 11  8  1  0
 12 11  2  0
 12 10  1  0
  2 13  1  0
  5 14  1  0
  5 15  1  0
  6 16  1  0
  6 17  1  0
  7 18  1  0
  7 19  1  0
  8 20  1  0
  9 21  1  0
 10 22  1  0
 11 23  1  0
 12 24  1  0
M  END
> <Uni-Dock RESULT> 
ENERGY=   -3.690  LOWER_BOUND=    4.951  UPPER_BOUND=    6.556
INTER + INTRA:          -3.690
INTER:                  -3.690
INTRA:                   0.000
UNBOUND:                 0.000

$$$$

     RDKit          3D

 24 24  0  0  0  0  0  0  0  0999 V2000
   43.1806    5.6162   12.2324 C   0  0  0  0  0  0  0  0  0  0  0  0
   42.1365    5.0983   11.5559 O   0  0  0  0  0  0  0  0  0  0  0  0
   43.5052    5.1597   13.3144 O   0  0  0  0  0  0  0  0  0  0  0  0
   47.5353    6.7692   12.5684 C   0  0  0  0  0  0  0  0  0  0  0  0
   43.8087    6.7685   11.4946 C   0  0  0  0  0  0  0  0  0  0  0  0
   45.1056    7.2506   12.1424 C   0  0  0  0  0  0  0  0  0  0  0  0
   46.2610    6.2651   11.9382 C   0  0  0  0  0  0  0  0  0  0  0  0
   47.7980    6.5247   13.9231 C   0  0  0  0  0  0  0  0  0  0  0  0
   48.4582    7.5105   11.8190 C   0  0  0  0  0  0  0  0  0  0  0  0
   49.6279    7.9886   12.4121 C   0  0  0  0  0  0  0  0  0  0  0  0
   48.9678    7.0037   14.5142 C   0  0  0  0  0  0  0  0  0  0  0  0
   49.8828    7.7345   13.7586 C   0  0  0  0  0  0  0  0  0  0  0  0
   41.8110    4.3775   12.1352 H   0  0  0  0  0  0  0  0  0  0  0  0
   43.9964    6.4680   10.4580 H   0  0  0  0  0  0  0  0  0  0  0  0
   43.0832    7.5898   11.4949 H   0  0  0  0  0  0  0  0  0  0  0  0
   44.9469    7.4308   13.2132 H   0  0  0  0  0  0  0  0  0  0  0  0
   45.3757    8.2181   11.6999 H   0  0  0  0  0  0  0  0  0  0  0  0
   46.4260    6.0968   10.8663 H   0  0  0  0  0  0  0  0  0  0  0  0
   46.0186    5.2830   12.3613 H   0  0  0  0  0  0  0  0  0  0  0  0
   47.0890    5.9593   14.5248 H   0  0  0  0  0  0  0  0  0  0  0  0
   48.2714    7.7201   10.7686 H   0  0  0  0  0  0  0  0  0  0  0  0
   50.3400    8.5607   11.8234 H   0  0  0  0  0  0  0  0  0  0  0  0
   49.1637    6.8073   15.5649 H   0  0  0  0  0  0  0  0  0  0  0  0
   50.7934    8.1073   14.2197 H   0  0  0  0  0  0  0  0  0  0  0  0
  2  1  1  0
  3  1  2  0
  4  7  1  0
  5  1  1  0
  6  5  1  0
  7  6  1  0
  8  4  2  0
  9  4  1  0
 10  9  2  0
 11  8  1  0
 12 11  2  0
 12 10  1  0
  2 13  1  0
  5 14  1  0
  5 15  1  0
  6 16  1  0
  6 17  1  0
  7 18  1  0
  7 19  1  0
  8 20  1  0
  9 21  1  0
 10 22  1  0
 11 23  1  0
 12 24  1  0
M  END
> <Uni-Dock RESULT> 
ENERGY=   -3.484  LOWER_BOUND=    5.433  UPPER_BOUND=    6.833
INTER + INTRA:          -3.484
INTER:                  -3.484
INTRA:                   0.000
UNBOUND:                 0.000

$$$$

     RDKit          3D

 24 24  0  0  0  0  0  0  0  0999 V2000
   48.1150    3.2066   17.9143 C   0  0  0  0  0  0  0  0  0  0  0  0
   48.5358    2.3443   16.9681 O   0  0  0  0  0  0  0  0  0  0  0  0
   48.4071    3.0329   19.0843 O   0  0  0  0  0  0  0  0  0  0  0  0
   47.8124    7.3556   19.6747 C   0  0  0  0  0  0  0  0  0  0  0  0
   47.2782    4.3132   17.3298 C   0  0  0  0  0  0  0  0  0  0  0  0
   46.9479    5.4059   18.3452 C   0  0  0  0  0  0  0  0  0  0  0  0
   48.1649    6.2722   18.6863 C   0  0  0  0  0  0  0  0  0  0  0  0
   47.8353    7.0909   21.0507 C   0  0  0  0  0  0  0  0  0  0  0  0
   47.4313    8.6293   19.2328 C   0  0  0  0  0  0  0  0  0  0  0  0
   47.0902    9.6230   20.1518 C   0  0  0  0  0  0  0  0  0  0  0  0
   47.4936    8.0856   21.9679 C   0  0  0  0  0  0  0  0  0  0  0  0
   47.1222    9.3515   21.5185 C   0  0  0  0  0  0  0  0  0  0  0  0
   49.0498    1.6750   17.4670 H   0  0  0  0  0  0  0  0  0  0  0  0
   47.8065    4.7450   16.4728 H   0  0  0  0  0  0  0  0  0  0  0  0
   46.3445    3.8627   16.9744 H   0  0  0  0  0  0  0  0  0  0  0  0
   46.5341    4.9587   19.2579 H   0  0  0  0  0  0  0  0  0  0  0  0
   46.1593    6.0432   17.9249 H   0  0  0  0  0  0  0  0  0  0  0  0
   48.5687    6.7286   17.7735 H   0  0  0  0  0  0  0  0  0  0  0  0
   48.9769    5.6626   19.1004 H   0  0  0  0  0  0  0  0  0  0  0  0
   48.1190    6.1050   21.4139 H   0  0  0  0  0  0  0  0  0  0  0  0
   47.3978    8.8551   18.1697 H   0  0  0  0  0  0  0  0  0  0  0  0
   46.7980   10.6092   19.8012 H   0  0  0  0  0  0  0  0  0  0  0  0
   47.5162    7.8714   23.0331 H   0  0  0  0  0  0  0  0  0  0  0  0
   46.8562   10.1255   22.2334 H   0  0  0  0  0  0  0  0  0  0  0  0
  2  1  1  0
  3  1  2  0
  4  7  1  0
  5  1  1  0
  6  5  1  0
  7  6  1  0
  8  4  2  0
  9  4  1  0
 10  9  2  0
 11  8  1  0
 12 11  2  0
 12 10  1  0
  2 13  1  0
  5 14  1  0
  5 15  1  0
  6 16  1  0
  6 17  1  0
  7 18  1  0
  7 19  1  0
  8 20  1  0
  9 21  1  0
 10 22  1  0
 11 23  1  0
 12 24  1  0
M  END
> <Uni-Dock RESULT> 
ENERGY=   -3.346  LOWER_BOUND=    9.947  UPPER_BOUND=   11.230
INTER + INTRA:          -3.346
INTER:                  -3.346
INTRA:                   0.000
UNBOUND:                 0.000

$$$$

     RDKit          3D

 24 24  0  0  0  0  0  0  0  0999 V2000
   49.3306    7.4158   13.5258 C   0  0  0  0  0  0  0  0  0  0  0  0
   50.3128    8.2887   13.8245 O   0  0  0  0  0  0  0  0  0  0  0  0
   49.0777    6.4883   14.2742 O   0  0  0  0  0  0  0  0  0  0  0  0
   45.0338    6.4374   12.5328 C   0  0  0  0  0  0  0  0  0  0  0  0
   48.6712    7.7440   12.2127 C   0  0  0  0  0  0  0  0  0  0  0  0
   47.4341    6.8897   11.9410 C   0  0  0  0  0  0  0  0  0  0  0  0
   46.2492    7.2795   12.8308 C   0  0  0  0  0  0  0  0  0  0  0  0
   44.8665    5.1934   13.1561 C   0  0  0  0  0  0  0  0  0  0  0  0
   44.0721    6.8719   11.6113 C   0  0  0  0  0  0  0  0  0  0  0  0
   42.9578    6.0806   11.3273 C   0  0  0  0  0  0  0  0  0  0  0  0
   43.7519    4.4037   12.8706 C   0  0  0  0  0  0  0  0  0  0  0  0
   42.7975    4.8477   11.9573 C   0  0  0  0  0  0  0  0  0  0  0  0
   50.6666    7.9659   14.6798 H   0  0  0  0  0  0  0  0  0  0  0  0
   48.4027    8.8060   12.2044 H   0  0  0  0  0  0  0  0  0  0  0  0
   49.4095    7.5635   11.4233 H   0  0  0  0  0  0  0  0  0  0  0  0
   47.6740    5.8271   12.0744 H   0  0  0  0  0  0  0  0  0  0  0  0
   47.1500    7.0155   10.8883 H   0  0  0  0  0  0  0  0  0  0  0  0
   46.0032    8.3392   12.6857 H   0  0  0  0  0  0  0  0  0  0  0  0
   46.5040    7.1743   13.8921 H   0  0  0  0  0  0  0  0  0  0  0  0
   45.6072    4.8336   13.8676 H   0  0  0  0  0  0  0  0  0  0  0  0
   44.1853    7.8295   11.1089 H   0  0  0  0  0  0  0  0  0  0  0  0
   42.2151    6.4258   10.6131 H   0  0  0  0  0  0  0  0  0  0  0  0
   43.6299    3.4413   13.3604 H   0  0  0  0  0  0  0  0  0  0  0  0
   41.9300    4.2322   11.7354 H   0  0  0  0  0  0  0  0  0  0  0  0
  2  1  1  0
  3  1  2  0
  4  7  1  0
  5  1  1  0
  6  5  1  0
  7  6  1  0
  8  4  2  0
  9  4  1  0
 10  9  2  0
 11  8  1  0
 12 11  2  0
 12 10  1  0
  2 13  1  0
  5 14  1  0
  5 15  1  0
  6 16  1  0
  6 17  1  0
  7 18  1  0
  7 19  1  0
  8 20  1  0
  9 21  1  0
 10 22  1  0
 11 23  1  0
 12 24  1  0
M  END
> <Uni-Dock RESULT> 
ENERGY=   -3.296  LOWER_BOUND=    5.381  UPPER_BOUND=    5.995
INTER + INTRA:          -3.296
INTER:                  -3.296
INTRA:                   0.000
UNBOUND:                 0.000

$$$$

     RDKit          3D

 24 24  0  0  0  0  0  0  0  0999 V2000
   49.3294    3.3522   17.3514 C   0  0  0  0  0  0  0  0  0  0  0  0
   49.9430    2.3545   18.0178 O   0  0  0  0  0  0  0  0  0  0  0  0
   49.9682    4.3009   16.9315 O   0  0  0  0  0  0  0  0  0  0  0  0
   46.7657    4.9001   13.9696 C   0  0  0  0  0  0  0  0  0  0  0  0
   47.8456    3.1222   17.2427 C   0  0  0  0  0  0  0  0  0  0  0  0
   47.1540    4.1353   16.3319 C   0  0  0  0  0  0  0  0  0  0  0  0
   47.4733    3.9019   14.8516 C   0  0  0  0  0  0  0  0  0  0  0  0
   47.3426    6.1519   13.7157 C   0  0  0  0  0  0  0  0  0  0  0  0
   45.5134    4.6029   13.4162 C   0  0  0  0  0  0  0  0  0  0  0  0
   44.8559    5.5372   12.6142 C   0  0  0  0  0  0  0  0  0  0  0  0
   46.6835    7.0847   12.9139 C   0  0  0  0  0  0  0  0  0  0  0  0
   45.4411    6.7769   12.3626 C   0  0  0  0  0  0  0  0  0  0  0  0
   50.8858    2.6225   18.0330 H   0  0  0  0  0  0  0  0  0  0  0  0
   47.6685    2.1055   16.8752 H   0  0  0  0  0  0  0  0  0  0  0  0
   47.4279    3.2070   18.2523 H   0  0  0  0  0  0  0  0  0  0  0  0
   47.4342    5.1556   16.6231 H   0  0  0  0  0  0  0  0  0  0  0  0
   46.0699    4.0544   16.4831 H   0  0  0  0  0  0  0  0  0  0  0  0
   47.1801    2.8853   14.5599 H   0  0  0  0  0  0  0  0  0  0  0  0
   48.5524    3.9663   14.6679 H   0  0  0  0  0  0  0  0  0  0  0  0
   48.3102    6.4058   14.1444 H   0  0  0  0  0  0  0  0  0  0  0  0
   45.0424    3.6415   13.6065 H   0  0  0  0  0  0  0  0  0  0  0  0
   43.8859    5.2981   12.1866 H   0  0  0  0  0  0  0  0  0  0  0  0
   47.1397    8.0519   12.7212 H   0  0  0  0  0  0  0  0  0  0  0  0
   44.9284    7.5039   11.7385 H   0  0  0  0  0  0  0  0  0  0  0  0
  2  1  1  0
  3  1  2  0
  4  7  1  0
  5  1  1  0
  6  5  1  0
  7  6  1  0
  8  4  2  0
  9  4  1  0
 10  9  2  0
 11  8  1  0
 12 11  2  0
 12 10  1  0
  2 13  1  0
  5 14  1  0
  5 15  1  0
  6 16  1  0
  6 17  1  0
  7 18  1  0
  7 19  1  0
  8 20  1  0
  9 21  1  0
 10 22  1  0
 11 23  1  0
 12 24  1  0
M  END
> <Uni-Dock RESULT> 
ENERGY=   -3.264  LOWER_BOUND=    6.427  UPPER_BOUND=    7.808
INTER + INTRA:          -3.264
INTER:                  -3.264
INTRA:                   0.000
UNBOUND:                 0.000

$$$$

     RDKit          3D

 24 24  0  0  0  0  0  0  0  0999 V2000
   47.4586   11.0878   18.7174 C   0  0  0  0  0  0  0  0  0  0  0  0
   47.7469   12.2934   18.1889 O   0  0  0  0  0  0  0  0  0  0  0  0
   47.7456   10.0653   18.1203 O   0  0  0  0  0  0  0  0  0  0  0  0
   47.7304    8.0143   22.0167 C   0  0  0  0  0  0  0  0  0  0  0  0
   46.7634   11.2121   20.0470 C   0  0  0  0  0  0  0  0  0  0  0  0
   46.5961    9.8691   20.7560 C   0  0  0  0  0  0  0  0  0  0  0  0
   47.9214    9.3300   21.3044 C   0  0  0  0  0  0  0  0  0  0  0  0
   47.7422    6.8126   21.2955 C   0  0  0  0  0  0  0  0  0  0  0  0
   47.5113    7.9759   23.3999 C   0  0  0  0  0  0  0  0  0  0  0  0
   47.3186    6.7563   24.0509 C   0  0  0  0  0  0  0  0  0  0  0  0
   47.5491    5.5944   21.9482 C   0  0  0  0  0  0  0  0  0  0  0  0
   47.3384    5.5663   23.3255 C   0  0  0  0  0  0  0  0  0  0  0  0
   48.1776   12.0821   17.3340 H   0  0  0  0  0  0  0  0  0  0  0  0
   47.3288   11.9032   20.6816 H   0  0  0  0  0  0  0  0  0  0  0  0
   45.7730   11.6412   19.8580 H   0  0  0  0  0  0  0  0  0  0  0  0
   46.1432    9.1378   20.0746 H   0  0  0  0  0  0  0  0  0  0  0  0
   45.8903   10.0006   21.5863 H   0  0  0  0  0  0  0  0  0  0  0  0
   48.3656   10.0578   21.9956 H   0  0  0  0  0  0  0  0  0  0  0  0
   48.6539    9.1964   20.4995 H   0  0  0  0  0  0  0  0  0  0  0  0
   47.9010    6.8219   20.2189 H   0  0  0  0  0  0  0  0  0  0  0  0
   47.4892    8.8961   23.9787 H   0  0  0  0  0  0  0  0  0  0  0  0
   47.1517    6.7347   25.1245 H   0  0  0  0  0  0  0  0  0  0  0  0
   47.5619    4.6677   21.3807 H   0  0  0  0  0  0  0  0  0  0  0  0
   47.1880    4.6172   23.8330 H   0  0  0  0  0  0  0  0  0  0  0  0
  2  1  1  0
  3  1  2  0
  4  7  1  0
  5  1  1  0
  6  5  1  0
  7  6  1  0
  8  4  2  0
  9  4  1  0
 10  9  2  0
 11  8  1  0
 12 11  2  0
 12 10  1  0
  2 13  1  0
  5 14  1  0
  5 15  1  0
  6 16  1  0
  6 17  1  0
  7 18  1  0
  7 19  1  0
  8 20  1  0
  9 21  1  0
 10 22  1  0
 11 23  1  0
 12 24  1  0
M  END
> <Uni-Dock RESULT> 
ENERGY=   -3.245  LOWER_BOUND=   12.752  UPPER_BOUND=   13.931
INTER + INTRA:          -3.245
INTER:                  -3.245
INTRA:                   0.000
UNBOUND:                 0.000

$$$$

     RDKit          3D

 24 24  0  0  0  0  0  0  0  0999 V2000
   46.5293    5.0597   13.7941 C   0  0  0  0  0  0  0  0  0  0  0  0
   46.9957    4.1119   14.6307 O   0  0  0  0  0  0  0  0  0  0  0  0
   45.3323    5.1817   13.6022 O   0  0  0  0  0  0  0  0  0  0  0  0
   46.1355    9.3590   12.4648 C   0  0  0  0  0  0  0  0  0  0  0  0
   47.6458    5.8585   13.1761 C   0  0  0  0  0  0  0  0  0  0  0  0
   47.1430    7.0583   12.3749 C   0  0  0  0  0  0  0  0  0  0  0  0
   46.6082    8.1775   13.2745 C   0  0  0  0  0  0  0  0  0  0  0  0
   44.8315    9.3874   11.9521 C   0  0  0  0  0  0  0  0  0  0  0  0
   46.9981   10.4283   12.1907 C   0  0  0  0  0  0  0  0  0  0  0  0
   46.5600   11.5113   11.4268 C   0  0  0  0  0  0  0  0  0  0  0  0
   44.3954   10.4709   11.1883 C   0  0  0  0  0  0  0  0  0  0  0  0
   45.2592   11.5328   10.9267 C   0  0  0  0  0  0  0  0  0  0  0  0
   46.1877    3.6598   14.9529 H   0  0  0  0  0  0  0  0  0  0  0  0
   48.3245    6.1940   13.9677 H   0  0  0  0  0  0  0  0  0  0  0  0
   48.1945    5.1870   12.5060 H   0  0  0  0  0  0  0  0  0  0  0  0
   46.3680    6.7395   11.6664 H   0  0  0  0  0  0  0  0  0  0  0  0
   47.9748    7.4470   11.7734 H   0  0  0  0  0  0  0  0  0  0  0  0
   47.3894    8.5033   13.9732 H   0  0  0  0  0  0  0  0  0  0  0  0
   45.7804    7.8184   13.8976 H   0  0  0  0  0  0  0  0  0  0  0  0
   44.1491    8.5619   12.1455 H   0  0  0  0  0  0  0  0  0  0  0  0
   48.0169   10.4240   12.5706 H   0  0  0  0  0  0  0  0  0  0  0  0
   47.2344   12.3380   11.2206 H   0  0  0  0  0  0  0  0  0  0  0  0
   43.3819   10.4848   10.7967 H   0  0  0  0  0  0  0  0  0  0  0  0
   44.9189   12.3761   10.3318 H   0  0  0  0  0  0  0  0  0  0  0  0
  2  1  1  0
  3  1  2  0
  4  7  1  0
  5  1  1  0
  6  5  1  0
  7  6  1  0
  8  4  2  0
  9  4  1  0
 10  9  2  0
 11  8  1  0
 12 11  2  0
 12 10  1  0
  2 13  1  0
  5 14  1  0
  5 15  1  0
  6 16  1  0
  6 17  1  0
  7 18  1  0
  7 19  1  0
  8 20  1  0
  9 21  1  0
 10 22  1  0
 11 23  1  0
 12 24  1  0
M  END
> <Uni-Dock RESULT> 
ENERGY=   -3.224  LOWER_BOUND=    5.947  UPPER_BOUND=    7.232
INTER + INTRA:          -3.224
INTER:                  -3.224
INTRA:                   0.000
UNBOUND:                 0.000

$$$$
