
     RDKit          3D

 24 24  0  0  0  0  0  0  0  0999 V2000
   47.3097    2.4178    6.3595 C   0  0  0  0  0  0  0  0  0  0  0  0
   48.5846    2.6885    6.6932 O   0  0  0  0  0  0  0  0  0  0  0  0
   46.8359    2.8266    5.3131 O   0  0  0  0  0  0  0  0  0  0  0  0
   44.7275    4.2539    9.5273 C   0  0  0  0  0  0  0  0  0  0  0  0
   46.5922    1.6069    7.3998 C   0  0  0  0  0  0  0  0  0  0  0  0
   46.2120    2.4425    8.6169 C   0  0  0  0  0  0  0  0  0  0  0  0
   45.1355    3.4843    8.2956 C   0  0  0  0  0  0  0  0  0  0  0  0
   43.6576    3.8148   10.3184 C   0  0  0  0  0  0  0  0  0  0  0  0
   45.4316    5.4026    9.9122 C   0  0  0  0  0  0  0  0  0  0  0  0
   45.0652    6.1047   11.0615 C   0  0  0  0  0  0  0  0  0  0  0  0
   43.2927    4.5183   11.4674 C   0  0  0  0  0  0  0  0  0  0  0  0
   43.9957    5.6631   11.8382 C   0  0  0  0  0  0  0  0  0  0  0  0
   48.9237    3.2150    5.9391 H   0  0  0  0  0  0  0  0  0  0  0  0
   45.7053    1.1566    6.9395 H   0  0  0  0  0  0  0  0  0  0  0  0
   47.2444    0.7763    7.6940 H   0  0  0  0  0  0  0  0  0  0  0  0
   45.8444    1.7674    9.4003 H   0  0  0  0  0  0  0  0  0  0  0  0
   47.1014    2.9396    9.0243 H   0  0  0  0  0  0  0  0  0  0  0  0
   44.2537    2.9955    7.8625 H   0  0  0  0  0  0  0  0  0  0  0  0
   45.4937    4.1896    7.5358 H   0  0  0  0  0  0  0  0  0  0  0  0
   43.1016    2.9214   10.0439 H   0  0  0  0  0  0  0  0  0  0  0  0
   46.2703    5.7574    9.3176 H   0  0  0  0  0  0  0  0  0  0  0  0
   45.6151    6.9962   11.3511 H   0  0  0  0  0  0  0  0  0  0  0  0
   42.4599    4.1723   12.0738 H   0  0  0  0  0  0  0  0  0  0  0  0
   43.7108    6.2103   12.7328 H   0  0  0  0  0  0  0  0  0  0  0  0
  2  1  1  0
  3  1  2  0
  4  7  1  0
  5  1  1  0
  6  5  1  0
  7  6  1  0
  8  4  2  0
  9  4  1  0
 10  9  2  0
 11  8  1  0
 12 11  2  0
 12 10  1  0
  2 13  1  0
  5 14  1  0
  5 15  1  0
  6 16  1  0
  6 17  1  0
  7 18  1  0
  7 19  1  0
  8 20  1  0
  9 21  1  0
 10 22  1  0
 11 23  1  0
 12 24  1  0
M  END
> <Uni-Dock RESULT> 
ENERGY=   -4.477  LOWER_BOUND=    0.000  UPPER_BOUND=    0.000
INTER + INTRA:          -4.477
INTER:                  -4.477
INTRA:                   0.000
UNBOUND:                 0.000

$$$$

     RDKit          3D

 24 24  0  0  0  0  0  0  0  0999 V2000
   42.8903    5.3150   12.2470 C   0  0  0  0  0  0  0  0  0  0  0  0
   41.9697    6.1188   11.6844 O   0  0  0  0  0  0  0  0  0  0  0  0
   42.7498    4.9029   13.3858 O   0  0  0  0  0  0  0  0  0  0  0  0
   46.7212    7.6345   12.3816 C   0  0  0  0  0  0  0  0  0  0  0  0
   44.0508    5.0287   11.3382 C   0  0  0  0  0  0  0  0  0  0  0  0
   44.9979    6.2180   11.2251 C   0  0  0  0  0  0  0  0  0  0  0  0
   45.7420    6.4971   12.5350 C   0  0  0  0  0  0  0  0  0  0  0  0
   48.0504    7.3844   12.0157 C   0  0  0  0  0  0  0  0  0  0  0  0
   46.3067    8.9589   12.5756 C   0  0  0  0  0  0  0  0  0  0  0  0
   47.2082   10.0126   12.4165 C   0  0  0  0  0  0  0  0  0  0  0  0
   48.9505    8.4394   11.8572 C   0  0  0  0  0  0  0  0  0  0  0  0
   48.5296    9.7527   12.0583 C   0  0  0  0  0  0  0  0  0  0  0  0
   41.2839    6.2205   12.3774 H   0  0  0  0  0  0  0  0  0  0  0  0
   44.5757    4.1425   11.7125 H   0  0  0  0  0  0  0  0  0  0  0  0
   43.6534    4.7605   10.3523 H   0  0  0  0  0  0  0  0  0  0  0  0
   45.7246    6.0086   10.4299 H   0  0  0  0  0  0  0  0  0  0  0  0
   44.4430    7.1123   10.9144 H   0  0  0  0  0  0  0  0  0  0  0  0
   46.2771    5.5976   12.8649 H   0  0  0  0  0  0  0  0  0  0  0  0
   45.0352    6.7398   13.3379 H   0  0  0  0  0  0  0  0  0  0  0  0
   48.3929    6.3652   11.8521 H   0  0  0  0  0  0  0  0  0  0  0  0
   45.2778    9.1772   12.8523 H   0  0  0  0  0  0  0  0  0  0  0  0
   46.8788   11.0365   12.5716 H   0  0  0  0  0  0  0  0  0  0  0  0
   49.9803    8.2363   11.5758 H   0  0  0  0  0  0  0  0  0  0  0  0
   49.2311   10.5734   11.9348 H   0  0  0  0  0  0  0  0  0  0  0  0
  2  1  1  0
  3  1  2  0
  4  7  1  0
  5  1  1  0
  6  5  1  0
  7  6  1  0
  8  4  2  0
  9  4  1  0
 10  9  2  0
 11  8  1  0
 12 11  2  0
 12 10  1  0
  2 13  1  0
  5 14  1  0
  5 15  1  0
  6 16  1  0
  6 17  1  0
  7 18  1  0
  7 19  1  0
  8 20  1  0
  9 21  1  0
 10 22  1  0
 11 23  1  0
 12 24  1  0
M  END
> <Uni-Dock RESULT> 
ENERGY=   -3.957  LOWER_BOUND=    4.780  UPPER_BOUND=    6.444
INTER + INTRA:          -3.957
INTER:                  -3.957
INTRA:                   0.000
UNBOUND:                 0.000

$$$$

     RDKit          3D

 24 24  0  0  0  0  0  0  0  0999 V2000
   43.4853    3.3178   11.4830 C   0  0  0  0  0  0  0  0  0  0  0  0
   43.5559    2.4171   12.4799 O   0  0  0  0  0  0  0  0  0  0  0  0
   43.8357    3.0284   10.3516 O   0  0  0  0  0  0  0  0  0  0  0  0
   46.1631    6.7231   12.6262 C   0  0  0  0  0  0  0  0  0  0  0  0
   42.9633    4.6511   11.9349 C   0  0  0  0  0  0  0  0  0  0  0  0
   44.0055    5.4388   12.7208 C   0  0  0  0  0  0  0  0  0  0  0  0
   45.1781    5.8901   11.8441 C   0  0  0  0  0  0  0  0  0  0  0  0
   46.0363    8.1177   12.6725 C   0  0  0  0  0  0  0  0  0  0  0  0
   47.2015    6.1104   13.3403 C   0  0  0  0  0  0  0  0  0  0  0  0
   48.1023    6.8798   14.0783 C   0  0  0  0  0  0  0  0  0  0  0  0
   46.9381    8.8855   13.4111 C   0  0  0  0  0  0  0  0  0  0  0  0
   47.9711    8.2667   14.1129 C   0  0  0  0  0  0  0  0  0  0  0  0
   43.9081    1.6098   12.0499 H   0  0  0  0  0  0  0  0  0  0  0  0
   42.6294    5.2110   11.0539 H   0  0  0  0  0  0  0  0  0  0  0  0
   42.0715    4.4778   12.5484 H   0  0  0  0  0  0  0  0  0  0  0  0
   43.5175    6.3188   13.1590 H   0  0  0  0  0  0  0  0  0  0  0  0
   44.3776    4.8371   13.5596 H   0  0  0  0  0  0  0  0  0  0  0  0
   44.8093    6.4696   10.9883 H   0  0  0  0  0  0  0  0  0  0  0  0
   45.7003    5.0238   11.4198 H   0  0  0  0  0  0  0  0  0  0  0  0
   45.2335    8.6148   12.1328 H   0  0  0  0  0  0  0  0  0  0  0  0
   47.3145    5.0288   13.3251 H   0  0  0  0  0  0  0  0  0  0  0  0
   48.9062    6.3964   14.6269 H   0  0  0  0  0  0  0  0  0  0  0  0
   46.8341    9.9669   13.4393 H   0  0  0  0  0  0  0  0  0  0  0  0
   48.6728    8.8652   14.6875 H   0  0  0  0  0  0  0  0  0  0  0  0
  2  1  1  0
  3  1  2  0
  4  7  1  0
  5  1  1  0
  6  5  1  0
  7  6  1  0
  8  4  2  0
  9  4  1  0
 10  9  2  0
 11  8  1  0
 12 11  2  0
 12 10  1  0
  2 13  1  0
  5 14  1  0
  5 15  1  0
  6 16  1  0
  6 17  1  0
  7 18  1  0
  7 19  1  0
  8 20  1  0
  9 21  1  0
 10 22  1  0
 11 23  1  0
 12 24  1  0
M  END
> <Uni-Dock RESULT> 
ENERGY=   -3.803  LOWER_BOUND=    3.921  UPPER_BOUND=    5.573
INTER + INTRA:          -3.803
INTER:                  -3.803
INTRA:                   0.000
UNBOUND:                 0.000

$$$$

     RDKit          3D

 24 24  0  0  0  0  0  0  0  0999 V2000
   47.1441    3.8906   17.2466 C   0  0  0  0  0  0  0  0  0  0  0  0
   46.4407    2.8086   17.6269 O   0  0  0  0  0  0  0  0  0  0  0  0
   47.0747    4.3131   16.1050 O   0  0  0  0  0  0  0  0  0  0  0  0
   51.4739    2.8698   17.7799 C   0  0  0  0  0  0  0  0  0  0  0  0
   47.9870    4.4587   18.3517 C   0  0  0  0  0  0  0  0  0  0  0  0
   49.2257    3.6119   18.6216 C   0  0  0  0  0  0  0  0  0  0  0  0
   50.2283    3.6601   17.4641 C   0  0  0  0  0  0  0  0  0  0  0  0
   52.5769    3.4905   18.3809 C   0  0  0  0  0  0  0  0  0  0  0  0
   51.5334    1.4976   17.5020 C   0  0  0  0  0  0  0  0  0  0  0  0
   52.6793    0.7627   17.8104 C   0  0  0  0  0  0  0  0  0  0  0  0
   53.7219    2.7540   18.6885 C   0  0  0  0  0  0  0  0  0  0  0  0
   53.7733    1.3909   18.4025 C   0  0  0  0  0  0  0  0  0  0  0  0
   45.9476    2.5472   16.8211 H   0  0  0  0  0  0  0  0  0  0  0  0
   48.2631    5.4855   18.0863 H   0  0  0  0  0  0  0  0  0  0  0  0
   47.3664    4.5275   19.2527 H   0  0  0  0  0  0  0  0  0  0  0  0
   49.7062    3.9816   19.5364 H   0  0  0  0  0  0  0  0  0  0  0  0
   48.9347    2.5724   18.8191 H   0  0  0  0  0  0  0  0  0  0  0  0
   50.5023    4.6997   17.2443 H   0  0  0  0  0  0  0  0  0  0  0  0
   49.7781    3.2654   16.5451 H   0  0  0  0  0  0  0  0  0  0  0  0
   52.5506    4.5527   18.6132 H   0  0  0  0  0  0  0  0  0  0  0  0
   50.6863    0.9932   17.0429 H   0  0  0  0  0  0  0  0  0  0  0  0
   52.7178   -0.3005   17.5889 H   0  0  0  0  0  0  0  0  0  0  0  0
   54.5740    3.2440   19.1521 H   0  0  0  0  0  0  0  0  0  0  0  0
   54.6651    0.8183   18.6421 H   0  0  0  0  0  0  0  0  0  0  0  0
  2  1  1  0
  3  1  2  0
  4  7  1  0
  5  1  1  0
  6  5  1  0
  7  6  1  0
  8  4  2  0
  9  4  1  0
 10  9  2  0
 11  8  1  0
 12 11  2  0
 12 10  1  0
  2 13  1  0
  5 14  1  0
  5 15  1  0
  6 16  1  0
  6 17  1  0
  7 18  1  0
  7 19  1  0
  8 20  1  0
  9 21  1  0
 10 22  1  0
 11 23  1  0
 12 24  1  0
M  END
> <Uni-Dock RESULT> 
ENERGY=   -3.740  LOWER_BOUND=   10.060  UPPER_BOUND=   11.319
INTER + INTRA:          -3.740
INTER:                  -3.740
INTRA:                   0.000
UNBOUND:                 0.000

$$$$

     RDKit          3D

 24 24  0  0  0  0  0  0  0  0999 V2000
   48.1005    8.1841   14.1330 C   0  0  0  0  0  0  0  0  0  0  0  0
   48.9671    7.3906   14.7881 O   0  0  0  0  0  0  0  0  0  0  0  0
   47.3438    8.9216   14.7413 O   0  0  0  0  0  0  0  0  0  0  0  0
   45.3778    5.4861   11.8132 C   0  0  0  0  0  0  0  0  0  0  0  0
   48.1793    8.0308   12.6414 C   0  0  0  0  0  0  0  0  0  0  0  0
   47.5281    6.7383   12.1624 C   0  0  0  0  0  0  0  0  0  0  0  0
   46.0080    6.7456   12.3540 C   0  0  0  0  0  0  0  0  0  0  0  0
   44.9212    5.4309   10.4897 C   0  0  0  0  0  0  0  0  0  0  0  0
   45.2666    4.3454   12.6194 C   0  0  0  0  0  0  0  0  0  0  0  0
   44.6995    3.1746   12.1136 C   0  0  0  0  0  0  0  0  0  0  0  0
   44.3544    4.2591    9.9857 C   0  0  0  0  0  0  0  0  0  0  0  0
   44.2429    3.1319   10.7977 C   0  0  0  0  0  0  0  0  0  0  0  0
   48.8072    7.5899   15.7345 H   0  0  0  0  0  0  0  0  0  0  0  0
   47.7081    8.9042   12.1763 H   0  0  0  0  0  0  0  0  0  0  0  0
   49.2362    8.0575   12.3515 H   0  0  0  0  0  0  0  0  0  0  0  0
   47.7613    6.6059   11.0982 H   0  0  0  0  0  0  0  0  0  0  0  0
   47.9655    5.8799   12.6877 H   0  0  0  0  0  0  0  0  0  0  0  0
   45.5681    7.6173   11.8532 H   0  0  0  0  0  0  0  0  0  0  0  0
   45.7520    6.8459   13.4158 H   0  0  0  0  0  0  0  0  0  0  0  0
   45.0043    6.3012    9.8429 H   0  0  0  0  0  0  0  0  0  0  0  0
   45.6213    4.3630   13.6473 H   0  0  0  0  0  0  0  0  0  0  0  0
   44.6147    2.2954   12.7468 H   0  0  0  0  0  0  0  0  0  0  0  0
   44.0003    4.2258    8.9588 H   0  0  0  0  0  0  0  0  0  0  0  0
   43.8013    2.2202   10.4046 H   0  0  0  0  0  0  0  0  0  0  0  0
  2  1  1  0
  3  1  2  0
  4  7  1  0
  5  1  1  0
  6  5  1  0
  7  6  1  0
  8  4  2  0
  9  4  1  0
 10  9  2  0
 11  8  1  0
 12 11  2  0
 12 10  1  0
  2 13  1  0
  5 14  1  0
  5 15  1  0
  6 16  1  0
  6 17  1  0
  7 18  1  0
  7 19  1  0
  8 20  1  0
  9 21  1  0
 10 22  1  0
 11 23  1  0
 12 24  1  0
M  END
> <Uni-Dock RESULT> 
ENERGY=   -3.254  LOWER_BOUND=    4.720  UPPER_BOUND=    6.331
INTER + INTRA:          -3.254
INTER:                  -3.254
INTRA:                   0.000
UNBOUND:                 0.000

$$$$

     RDKit          3D

 24 24  0  0  0  0  0  0  0  0999 V2000
   47.7687    8.3743   20.9294 C   0  0  0  0  0  0  0  0  0  0  0  0
   49.0472    8.7321   21.1473 O   0  0  0  0  0  0  0  0  0  0  0  0
   47.0416    8.0544   21.8544 O   0  0  0  0  0  0  0  0  0  0  0  0
   47.8721    4.7440   18.3057 C   0  0  0  0  0  0  0  0  0  0  0  0
   47.3918    8.4058   19.4763 C   0  0  0  0  0  0  0  0  0  0  0  0
   47.9693    7.2223   18.7081 C   0  0  0  0  0  0  0  0  0  0  0  0
   47.3340    5.8916   19.1239 C   0  0  0  0  0  0  0  0  0  0  0  0
   47.2302    4.3505   17.1240 C   0  0  0  0  0  0  0  0  0  0  0  0
   49.0376    4.0747   18.7021 C   0  0  0  0  0  0  0  0  0  0  0  0
   49.5453    3.0244   17.9357 C   0  0  0  0  0  0  0  0  0  0  0  0
   47.7394    3.2999   16.3590 C   0  0  0  0  0  0  0  0  0  0  0  0
   48.8959    2.6368   16.7652 C   0  0  0  0  0  0  0  0  0  0  0  0
   49.1530    8.6654   22.1195 H   0  0  0  0  0  0  0  0  0  0  0  0
   46.2986    8.4278   19.4006 H   0  0  0  0  0  0  0  0  0  0  0  0
   47.7511    9.3503   19.0515 H   0  0  0  0  0  0  0  0  0  0  0  0
   47.8003    7.3885   17.6365 H   0  0  0  0  0  0  0  0  0  0  0  0
   49.0564    7.1764   18.8500 H   0  0  0  0  0  0  0  0  0  0  0  0
   46.2438    5.9410   19.0096 H   0  0  0  0  0  0  0  0  0  0  0  0
   47.5177    5.6900   20.1863 H   0  0  0  0  0  0  0  0  0  0  0  0
   46.3287    4.8604   16.7923 H   0  0  0  0  0  0  0  0  0  0  0  0
   49.5568    4.3682   19.6115 H   0  0  0  0  0  0  0  0  0  0  0  0
   50.4483    2.5091   18.2520 H   0  0  0  0  0  0  0  0  0  0  0  0
   47.2337    2.9994   15.4452 H   0  0  0  0  0  0  0  0  0  0  0  0
   49.2915    1.8189   16.1691 H   0  0  0  0  0  0  0  0  0  0  0  0
  2  1  1  0
  3  1  2  0
  4  7  1  0
  5  1  1  0
  6  5  1  0
  7  6  1  0
  8  4  2  0
  9  4  1  0
 10  9  2  0
 11  8  1  0
 12 11  2  0
 12 10  1  0
  2 13  1  0
  5 14  1  0
  5 15  1  0
  6 16  1  0
  6 17  1  0
  7 18  1  0
  7 19  1  0
  8 20  1  0
  9 21  1  0
 10 22  1  0
 11 23  1  0
 12 24  1  0
M  END
> <Uni-Dock RESULT> 
ENERGY=   -3.212  LOWER_BOUND=    9.846  UPPER_BOUND=   11.765
INTER + INTRA:          -3.212
INTER:                  -3.212
INTRA:                   0.000
UNBOUND:                 0.000

$$$$

     RDKit          3D

 24 24  0  0  0  0  0  0  0  0999 V2000
   45.6158    6.8082   12.8800 C   0  0  0  0  0  0  0  0  0  0  0  0
   45.8444    8.0648   13.3027 O   0  0  0  0  0  0  0  0  0  0  0  0
   44.4785    6.3894   12.7469 O   0  0  0  0  0  0  0  0  0  0  0  0
   47.4477    4.0703   15.9167 C   0  0  0  0  0  0  0  0  0  0  0  0
   46.8791    6.0369   12.6275 C   0  0  0  0  0  0  0  0  0  0  0  0
   47.5509    5.5963   13.9232 C   0  0  0  0  0  0  0  0  0  0  0  0
   46.7337    4.5396   14.6734 C   0  0  0  0  0  0  0  0  0  0  0  0
   48.3018    2.9605   15.8705 C   0  0  0  0  0  0  0  0  0  0  0  0
   47.2880    4.7558   17.1284 C   0  0  0  0  0  0  0  0  0  0  0  0
   47.9624    4.3322   18.2747 C   0  0  0  0  0  0  0  0  0  0  0  0
   48.9753    2.5384   17.0178 C   0  0  0  0  0  0  0  0  0  0  0  0
   48.8049    3.2235   18.2195 C   0  0  0  0  0  0  0  0  0  0  0  0
   44.9487    8.4431   13.4273 H   0  0  0  0  0  0  0  0  0  0  0  0
   46.6397    5.1740   11.9957 H   0  0  0  0  0  0  0  0  0  0  0  0
   47.5547    6.6717   12.0424 H   0  0  0  0  0  0  0  0  0  0  0  0
   48.5400    5.1879   13.6797 H   0  0  0  0  0  0  0  0  0  0  0  0
   47.7219    6.4646   14.5721 H   0  0  0  0  0  0  0  0  0  0  0  0
   46.5364    3.6802   14.0201 H   0  0  0  0  0  0  0  0  0  0  0  0
   45.7509    4.9375   14.9543 H   0  0  0  0  0  0  0  0  0  0  0  0
   48.4475    2.4177   14.9394 H   0  0  0  0  0  0  0  0  0  0  0  0
   46.6362    5.6245   17.1859 H   0  0  0  0  0  0  0  0  0  0  0  0
   47.8306    4.8681   19.2108 H   0  0  0  0  0  0  0  0  0  0  0  0
   49.6338    1.6750   16.9737 H   0  0  0  0  0  0  0  0  0  0  0  0
   49.3295    2.8941   19.1123 H   0  0  0  0  0  0  0  0  0  0  0  0
  2  1  1  0
  3  1  2  0
  4  7  1  0
  5  1  1  0
  6  5  1  0
  7  6  1  0
  8  4  2  0
  9  4  1  0
 10  9  2  0
 11  8  1  0
 12 11  2  0
 12 10  1  0
  2 13  1  0
  5 14  1  0
  5 15  1  0
  6 16  1  0
  6 17  1  0
  7 18  1  0
  7 19  1  0
  8 20  1  0
  9 21  1  0
 10 22  1  0
 11 23  1  0
 12 24  1  0
M  END
> <Uni-Dock RESULT> 
ENERGY=   -3.161  LOWER_BOUND=    6.400  UPPER_BOUND=    7.677
INTER + INTRA:          -3.161
INTER:                  -3.161
INTRA:                   0.000
UNBOUND:                 0.000

$$$$

     RDKit          3D

 24 24  0  0  0  0  0  0  0  0999 V2000
   56.0083    3.5457   10.8283 C   0  0  0  0  0  0  0  0  0  0  0  0
   57.2400    4.0296   11.0708 O   0  0  0  0  0  0  0  0  0  0  0  0
   55.8537    2.4211   10.3833 O   0  0  0  0  0  0  0  0  0  0  0  0
   54.1568    6.2135    7.7415 C   0  0  0  0  0  0  0  0  0  0  0  0
   54.9198    4.5299   11.1463 C   0  0  0  0  0  0  0  0  0  0  0  0
   54.8150    5.6288   10.0949 C   0  0  0  0  0  0  0  0  0  0  0  0
   54.3161    5.0997    8.7464 C   0  0  0  0  0  0  0  0  0  0  0  0
   52.9318    6.8802    7.6067 C   0  0  0  0  0  0  0  0  0  0  0  0
   55.2406    6.6151    6.9492 C   0  0  0  0  0  0  0  0  0  0  0  0
   55.0981    7.6575    6.0319 C   0  0  0  0  0  0  0  0  0  0  0  0
   52.7913    7.9223    6.6888 C   0  0  0  0  0  0  0  0  0  0  0  0
   53.8738    8.3100    5.9013 C   0  0  0  0  0  0  0  0  0  0  0  0
   57.8399    3.2957   10.8211 H   0  0  0  0  0  0  0  0  0  0  0  0
   53.9739    3.9844   11.2405 H   0  0  0  0  0  0  0  0  0  0  0  0
   55.1283    4.9617   12.1321 H   0  0  0  0  0  0  0  0  0  0  0  0
   54.1237    6.3973   10.4639 H   0  0  0  0  0  0  0  0  0  0  0  0
   55.7880    6.1194    9.9655 H   0  0  0  0  0  0  0  0  0  0  0  0
   53.3558    4.5842    8.8743 H   0  0  0  0  0  0  0  0  0  0  0  0
   55.0094    4.3513    8.3435 H   0  0  0  0  0  0  0  0  0  0  0  0
   52.0789    6.5912    8.2165 H   0  0  0  0  0  0  0  0  0  0  0  0
   56.2030    6.1172    7.0424 H   0  0  0  0  0  0  0  0  0  0  0  0
   55.9432    7.9605    5.4196 H   0  0  0  0  0  0  0  0  0  0  0  0
   51.8368    8.4322    6.5888 H   0  0  0  0  0  0  0  0  0  0  0  0
   53.7634    9.1213    5.1868 H   0  0  0  0  0  0  0  0  0  0  0  0
  2  1  1  0
  3  1  2  0
  4  7  1  0
  5  1  1  0
  6  5  1  0
  7  6  1  0
  8  4  2  0
  9  4  1  0
 10  9  2  0
 11  8  1  0
 12 11  2  0
 12 10  1  0
  2 13  1  0
  5 14  1  0
  5 15  1  0
  6 16  1  0
  6 17  1  0
  7 18  1  0
  7 19  1  0
  8 20  1  0
  9 21  1  0
 10 22  1  0
 11 23  1  0
 12 24  1  0
M  END
> <Uni-Dock RESULT> 
ENERGY=   -3.081  LOWER_BOUND=    8.967  UPPER_BOUND=   10.261
INTER + INTRA:          -3.081
INTER:                  -3.081
INTRA:                   0.000
UNBOUND:                 0.000

$$$$

     RDKit          3D

 24 24  0  0  0  0  0  0  0  0999 V2000
   47.9206   11.2495   19.1463 C   0  0  0  0  0  0  0  0  0  0  0  0
   47.3556   10.7438   18.0349 O   0  0  0  0  0  0  0  0  0  0  0  0
   49.0818   11.6212   19.1450 O   0  0  0  0  0  0  0  0  0  0  0  0
   47.8055    8.0124   22.2417 C   0  0  0  0  0  0  0  0  0  0  0  0
   46.9838   11.2743   20.3195 C   0  0  0  0  0  0  0  0  0  0  0  0
   46.7807    9.8881   20.9207 C   0  0  0  0  0  0  0  0  0  0  0  0
   48.0477    9.3546   21.5970 C   0  0  0  0  0  0  0  0  0  0  0  0
   47.4028    7.9289   23.5811 C   0  0  0  0  0  0  0  0  0  0  0  0
   47.9528    6.8322   21.5008 C   0  0  0  0  0  0  0  0  0  0  0  0
   47.7117    5.5912   22.0924 C   0  0  0  0  0  0  0  0  0  0  0  0
   47.1622    6.6870   24.1709 C   0  0  0  0  0  0  0  0  0  0  0  0
   47.3174    5.5187   23.4270 C   0  0  0  0  0  0  0  0  0  0  0  0
   48.0680   10.7857   17.3629 H   0  0  0  0  0  0  0  0  0  0  0  0
   47.3793   11.9724   21.0660 H   0  0  0  0  0  0  0  0  0  0  0  0
   46.0269   11.6897   19.9827 H   0  0  0  0  0  0  0  0  0  0  0  0
   45.9697    9.9450   21.6580 H   0  0  0  0  0  0  0  0  0  0  0  0
   46.4493    9.1866   20.1446 H   0  0  0  0  0  0  0  0  0  0  0  0
   48.3991   10.0653   22.3557 H   0  0  0  0  0  0  0  0  0  0  0  0
   48.8640    9.2600   20.8705 H   0  0  0  0  0  0  0  0  0  0  0  0
   47.2743    8.8319   24.1736 H   0  0  0  0  0  0  0  0  0  0  0  0
   48.2569    6.8733   20.4574 H   0  0  0  0  0  0  0  0  0  0  0  0
   47.8310    4.6807   21.5111 H   0  0  0  0  0  0  0  0  0  0  0  0
   46.8528    6.6312   25.2112 H   0  0  0  0  0  0  0  0  0  0  0  0
   47.1300    4.5523   23.8871 H   0  0  0  0  0  0  0  0  0  0  0  0
  2  1  1  0
  3  1  2  0
  4  7  1  0
  5  1  1  0
  6  5  1  0
  7  6  1  0
  8  4  2  0
  9  4  1  0
 10  9  2  0
 11  8  1  0
 12 11  2  0
 12 10  1  0
  2 13  1  0
  5 14  1  0
  5 15  1  0
  6 16  1  0
  6 17  1  0
  7 18  1  0
  7 19  1  0
  8 20  1  0
  9 21  1  0
 10 22  1  0
 11 23  1  0
 12 24  1  0
M  END
> <Uni-Dock RESULT> 
ENERGY=   -2.977  LOWER_BOUND=   12.968  UPPER_BOUND=   14.108
INTER + INTRA:          -2.977
INTER:                  -2.977
INTRA:                   0.000
UNBOUND:                 0.000

$$$$
