
     RDKit          3D

 24 24  0  0  0  0  0  0  0  0999 V2000
   43.0515    4.6988   11.4022 C   0  0  0  0  0  0  0  0  0  0  0  0
   42.0865    5.5015   11.8928 O   0  0  0  0  0  0  0  0  0  0  0  0
   42.9648    3.4884   11.5111 O   0  0  0  0  0  0  0  0  0  0  0  0
   45.6331    3.1765    8.0225 C   0  0  0  0  0  0  0  0  0  0  0  0
   44.1671    5.4877   10.7699 C   0  0  0  0  0  0  0  0  0  0  0  0
   45.1773    4.6046   10.0396 C   0  0  0  0  0  0  0  0  0  0  0  0
   44.6137    4.0286    8.7363 C   0  0  0  0  0  0  0  0  0  0  0  0
   45.7773    1.8222    8.3529 C   0  0  0  0  0  0  0  0  0  0  0  0
   46.4665    3.7304    7.0420 C   0  0  0  0  0  0  0  0  0  0  0  0
   47.4194    2.9405    6.3966 C   0  0  0  0  0  0  0  0  0  0  0  0
   46.7307    1.0343    7.7065 C   0  0  0  0  0  0  0  0  0  0  0  0
   47.5507    1.5932    6.7280 C   0  0  0  0  0  0  0  0  0  0  0  0
   41.4356    4.8808   12.2828 H   0  0  0  0  0  0  0  0  0  0  0  0
   43.7377    6.2190   10.0764 H   0  0  0  0  0  0  0  0  0  0  0  0
   44.6806    6.0273   11.5736 H   0  0  0  0  0  0  0  0  0  0  0  0
   46.0651    5.2084    9.8117 H   0  0  0  0  0  0  0  0  0  0  0  0
   45.5127    3.7931   10.6979 H   0  0  0  0  0  0  0  0  0  0  0  0
   44.2912    4.8426    8.0747 H   0  0  0  0  0  0  0  0  0  0  0  0
   43.7177    3.4264    8.9285 H   0  0  0  0  0  0  0  0  0  0  0  0
   45.1463    1.3753    9.1186 H   0  0  0  0  0  0  0  0  0  0  0  0
   46.3787    4.7808    6.7753 H   0  0  0  0  0  0  0  0  0  0  0  0
   48.0605    3.3772    5.6354 H   0  0  0  0  0  0  0  0  0  0  0  0
   46.8339   -0.0154    7.9683 H   0  0  0  0  0  0  0  0  0  0  0  0
   48.2929    0.9790    6.2253 H   0  0  0  0  0  0  0  0  0  0  0  0
  2  1  1  0
  3  1  2  0
  4  7  1  0
  5  1  1  0
  6  5  1  0
  7  6  1  0
  8  4  2  0
  9  4  1  0
 10  9  2  0
 11  8  1  0
 12 11  2  0
 12 10  1  0
  2 13  1  0
  5 14  1  0
  5 15  1  0
  6 16  1  0
  6 17  1  0
  7 18  1  0
  7 19  1  0
  8 20  1  0
  9 21  1  0
 10 22  1  0
 11 23  1  0
 12 24  1  0
M  END
> <Uni-Dock RESULT> 
ENERGY=   -7.103  LOWER_BOUND=    0.000  UPPER_BOUND=    0.000
INTER + INTRA:          -7.103
INTER:                  -7.103
INTRA:                   0.000
UNBOUND:                 0.000

$$$$

     RDKit          3D

 24 24  0  0  0  0  0  0  0  0999 V2000
   47.3373    1.9910    6.6291 C   0  0  0  0  0  0  0  0  0  0  0  0
   48.3692    1.9617    5.7628 O   0  0  0  0  0  0  0  0  0  0  0  0
   47.1925    1.1023    7.4500 O   0  0  0  0  0  0  0  0  0  0  0  0
   44.9219    3.9842    9.8845 C   0  0  0  0  0  0  0  0  0  0  0  0
   46.4600    3.1953    6.4130 C   0  0  0  0  0  0  0  0  0  0  0  0
   45.3964    3.3559    7.4979 C   0  0  0  0  0  0  0  0  0  0  0  0
   45.9907    3.8135    8.8341 C   0  0  0  0  0  0  0  0  0  0  0  0
   44.5006    2.8873   10.6482 C   0  0  0  0  0  0  0  0  0  0  0  0
   44.3174    5.2308   10.0925 C   0  0  0  0  0  0  0  0  0  0  0  0
   43.3170    5.3789   11.0548 C   0  0  0  0  0  0  0  0  0  0  0  0
   43.5002    3.0374   11.6097 C   0  0  0  0  0  0  0  0  0  0  0  0
   42.9095    4.2831   11.8134 C   0  0  0  0  0  0  0  0  0  0  0  0
   48.8499    1.1388    5.9925 H   0  0  0  0  0  0  0  0  0  0  0  0
   47.0890    4.0911    6.3689 H   0  0  0  0  0  0  0  0  0  0  0  0
   45.9644    3.0676    5.4440 H   0  0  0  0  0  0  0  0  0  0  0  0
   44.6629    4.0981    7.1575 H   0  0  0  0  0  0  0  0  0  0  0  0
   44.8488    2.4141    7.6302 H   0  0  0  0  0  0  0  0  0  0  0  0
   46.5266    4.7619    8.7015 H   0  0  0  0  0  0  0  0  0  0  0  0
   46.7365    3.0967    9.1978 H   0  0  0  0  0  0  0  0  0  0  0  0
   44.9508    1.9084   10.4952 H   0  0  0  0  0  0  0  0  0  0  0  0
   44.6218    6.0942    9.5058 H   0  0  0  0  0  0  0  0  0  0  0  0
   42.8546    6.3498   11.2117 H   0  0  0  0  0  0  0  0  0  0  0  0
   43.1815    2.1813   12.1982 H   0  0  0  0  0  0  0  0  0  0  0  0
   42.1305    4.3991   12.5621 H   0  0  0  0  0  0  0  0  0  0  0  0
  2  1  1  0
  3  1  2  0
  4  7  1  0
  5  1  1  0
  6  5  1  0
  7  6  1  0
  8  4  2  0
  9  4  1  0
 10  9  2  0
 11  8  1  0
 12 11  2  0
 12 10  1  0
  2 13  1  0
  5 14  1  0
  5 15  1  0
  6 16  1  0
  6 17  1  0
  7 18  1  0
  7 19  1  0
  8 20  1  0
  9 21  1  0
 10 22  1  0
 11 23  1  0
 12 24  1  0
M  END
> <Uni-Dock RESULT> 
ENERGY=   -4.932  LOWER_BOUND=    3.108  UPPER_BOUND=    5.592
INTER + INTRA:          -4.932
INTER:                  -4.932
INTRA:                   0.000
UNBOUND:                 0.000

$$$$

     RDKit          3D

 24 24  0  0  0  0  0  0  0  0999 V2000
   43.4790    4.4586   11.4920 C   0  0  0  0  0  0  0  0  0  0  0  0
   43.0975    4.6161   12.7748 O   0  0  0  0  0  0  0  0  0  0  0  0
   43.7582    5.4259   10.8057 O   0  0  0  0  0  0  0  0  0  0  0  0
   46.1921    2.7220    8.3251 C   0  0  0  0  0  0  0  0  0  0  0  0
   43.4809    3.0096   11.0831 C   0  0  0  0  0  0  0  0  0  0  0  0
   44.0891    2.7850    9.6998 C   0  0  0  0  0  0  0  0  0  0  0  0
   45.6105    2.9671    9.6951 C   0  0  0  0  0  0  0  0  0  0  0  0
   46.2412    3.7584    7.3830 C   0  0  0  0  0  0  0  0  0  0  0  0
   46.6643    1.4528    7.9662 C   0  0  0  0  0  0  0  0  0  0  0  0
   47.1862    1.2280    6.6912 C   0  0  0  0  0  0  0  0  0  0  0  0
   46.7633    3.5315    6.1088 C   0  0  0  0  0  0  0  0  0  0  0  0
   47.2364    2.2669    5.7635 C   0  0  0  0  0  0  0  0  0  0  0  0
   43.1239    5.5861   12.9139 H   0  0  0  0  0  0  0  0  0  0  0  0
   44.0291    2.4286   11.8327 H   0  0  0  0  0  0  0  0  0  0  0  0
   42.4382    2.6726   11.0731 H   0  0  0  0  0  0  0  0  0  0  0  0
   43.8480    1.7642    9.3763 H   0  0  0  0  0  0  0  0  0  0  0  0
   43.6249    3.4611    8.9705 H   0  0  0  0  0  0  0  0  0  0  0  0
   46.0731    2.2808   10.4157 H   0  0  0  0  0  0  0  0  0  0  0  0
   45.8860    3.9763   10.0237 H   0  0  0  0  0  0  0  0  0  0  0  0
   45.8706    4.7490    7.6390 H   0  0  0  0  0  0  0  0  0  0  0  0
   46.6282    0.6313    8.6776 H   0  0  0  0  0  0  0  0  0  0  0  0
   47.5527    0.2411    6.4212 H   0  0  0  0  0  0  0  0  0  0  0  0
   46.7989    4.3419    5.3857 H   0  0  0  0  0  0  0  0  0  0  0  0
   47.6426    2.0910    4.7711 H   0  0  0  0  0  0  0  0  0  0  0  0
  2  1  1  0
  3  1  2  0
  4  7  1  0
  5  1  1  0
  6  5  1  0
  7  6  1  0
  8  4  2  0
  9  4  1  0
 10  9  2  0
 11  8  1  0
 12 11  2  0
 12 10  1  0
  2 13  1  0
  5 14  1  0
  5 15  1  0
  6 16  1  0
  6 17  1  0
  7 18  1  0
  7 19  1  0
  8 20  1  0
  9 21  1  0
 10 22  1  0
 11 23  1  0
 12 24  1  0
M  END
> <Uni-Dock RESULT> 
ENERGY=   -4.561  LOWER_BOUND=    1.245  UPPER_BOUND=    1.979
INTER + INTRA:          -4.561
INTER:                  -4.561
INTRA:                   0.000
UNBOUND:                 0.000

$$$$

     RDKit          3D

 24 24  0  0  0  0  0  0  0  0999 V2000
   46.6586    3.2179    6.7335 C   0  0  0  0  0  0  0  0  0  0  0  0
   46.7197    2.7241    5.4811 O   0  0  0  0  0  0  0  0  0  0  0  0
   47.2368    4.2513    7.0205 O   0  0  0  0  0  0  0  0  0  0  0  0
   44.3559    4.7213   10.3172 C   0  0  0  0  0  0  0  0  0  0  0  0
   45.8412    2.3386    7.6420 C   0  0  0  0  0  0  0  0  0  0  0  0
   45.5964    2.9676    9.0125 C   0  0  0  0  0  0  0  0  0  0  0  0
   44.5975    4.1280    8.9516 C   0  0  0  0  0  0  0  0  0  0  0  0
   45.2099    5.7136   10.8171 C   0  0  0  0  0  0  0  0  0  0  0  0
   43.2951    4.2713   11.1141 C   0  0  0  0  0  0  0  0  0  0  0  0
   43.0866    4.8125   12.3837 C   0  0  0  0  0  0  0  0  0  0  0  0
   44.9998    6.2533   12.0869 C   0  0  0  0  0  0  0  0  0  0  0  0
   43.9379    5.8035   12.8693 C   0  0  0  0  0  0  0  0  0  0  0  0
   47.2800    3.3674    4.9983 H   0  0  0  0  0  0  0  0  0  0  0  0
   44.8853    2.1148    7.1558 H   0  0  0  0  0  0  0  0  0  0  0  0
   46.3947    1.4020    7.7733 H   0  0  0  0  0  0  0  0  0  0  0  0
   45.2070    2.1928    9.6854 H   0  0  0  0  0  0  0  0  0  0  0  0
   46.5458    3.3081    9.4452 H   0  0  0  0  0  0  0  0  0  0  0  0
   43.6450    3.7818    8.5307 H   0  0  0  0  0  0  0  0  0  0  0  0
   44.9530    4.9170    8.2782 H   0  0  0  0  0  0  0  0  0  0  0  0
   46.0454    6.0698   10.2177 H   0  0  0  0  0  0  0  0  0  0  0  0
   42.6249    3.4961   10.7506 H   0  0  0  0  0  0  0  0  0  0  0  0
   42.2600    4.4598   12.9948 H   0  0  0  0  0  0  0  0  0  0  0  0
   45.6662    7.0238   12.4652 H   0  0  0  0  0  0  0  0  0  0  0  0
   43.7750    6.2242   13.8580 H   0  0  0  0  0  0  0  0  0  0  0  0
  2  1  1  0
  3  1  2  0
  4  7  1  0
  5  1  1  0
  6  5  1  0
  7  6  1  0
  8  4  2  0
  9  4  1  0
 10  9  2  0
 11  8  1  0
 12 11  2  0
 12 10  1  0
  2 13  1  0
  5 14  1  0
  5 15  1  0
  6 16  1  0
  6 17  1  0
  7 18  1  0
  7 19  1  0
  8 20  1  0
  9 21  1  0
 10 22  1  0
 11 23  1  0
 12 24  1  0
M  END
> <Uni-Dock RESULT> 
ENERGY=   -4.450  LOWER_BOUND=    2.925  UPPER_BOUND=    5.821
INTER + INTRA:          -4.450
INTER:                  -4.450
INTRA:                   0.000
UNBOUND:                 0.000

$$$$
