
     RDKit          3D

 24 24  0  0  0  0  0  0  0  0999 V2000
   43.0655    4.5679   11.4258 C   0  0  0  0  0  0  0  0  0  0  0  0
   42.0879    5.3456   11.9313 O   0  0  0  0  0  0  0  0  0  0  0  0
   43.0062    3.3551   11.5259 O   0  0  0  0  0  0  0  0  0  0  0  0
   45.6484    3.1282    8.0109 C   0  0  0  0  0  0  0  0  0  0  0  0
   44.1577    5.3858   10.7896 C   0  0  0  0  0  0  0  0  0  0  0  0
   45.1802    4.5306   10.0432 C   0  0  0  0  0  0  0  0  0  0  0  0
   44.6173    3.9525    8.7407 C   0  0  0  0  0  0  0  0  0  0  0  0
   46.4604    3.7077    7.0273 C   0  0  0  0  0  0  0  0  0  0  0  0
   45.8251    1.7749    8.3294 C   0  0  0  0  0  0  0  0  0  0  0  0
   46.7894    1.0130    7.6682 C   0  0  0  0  0  0  0  0  0  0  0  0
   47.4243    2.9439    6.3670 C   0  0  0  0  0  0  0  0  0  0  0  0
   47.5879    1.5971    6.6867 C   0  0  0  0  0  0  0  0  0  0  0  0
   41.4543    4.7078   12.3223 H   0  0  0  0  0  0  0  0  0  0  0  0
   44.6668    5.9304   11.5928 H   0  0  0  0  0  0  0  0  0  0  0  0
   43.7063    6.1127   10.1057 H   0  0  0  0  0  0  0  0  0  0  0  0
   46.0525    5.1554    9.8119 H   0  0  0  0  0  0  0  0  0  0  0  0
   45.5393    3.7217   10.6921 H   0  0  0  0  0  0  0  0  0  0  0  0
   44.2709    4.7642    8.0883 H   0  0  0  0  0  0  0  0  0  0  0  0
   43.7365    3.3293    8.9362 H   0  0  0  0  0  0  0  0  0  0  0  0
   46.3473    4.7580    6.7697 H   0  0  0  0  0  0  0  0  0  0  0  0
   45.2110    1.3085    9.0972 H   0  0  0  0  0  0  0  0  0  0  0  0
   46.9177   -0.0361    7.9208 H   0  0  0  0  0  0  0  0  0  0  0  0
   48.0487    3.4002    5.6035 H   0  0  0  0  0  0  0  0  0  0  0  0
   48.3387    1.0033    6.1725 H   0  0  0  0  0  0  0  0  0  0  0  0
  2  1  1  0
  3  1  2  0
  4  7  1  0
  5  1  1  0
  6  5  1  0
  7  6  1  0
  8  4  2  0
  9  4  1  0
 10  9  2  0
 11  8  1  0
 12 11  2  0
 12 10  1  0
  2 13  1  0
  5 14  1  0
  5 15  1  0
  6 16  1  0
  6 17  1  0
  7 18  1  0
  7 19  1  0
  8 20  1  0
  9 21  1  0
 10 22  1  0
 11 23  1  0
 12 24  1  0
M  END
> <Uni-Dock RESULT> 
ENERGY=   -7.072  LOWER_BOUND=    0.000  UPPER_BOUND=    0.000
INTER + INTRA:          -7.072
INTER:                  -7.072
INTRA:                   0.000
UNBOUND:                 0.000

$$$$

     RDKit          3D

 24 24  0  0  0  0  0  0  0  0999 V2000
   47.3419    2.0001    6.6328 C   0  0  0  0  0  0  0  0  0  0  0  0
   48.3747    1.9724    5.7677 O   0  0  0  0  0  0  0  0  0  0  0  0
   47.1970    1.1110    7.4531 O   0  0  0  0  0  0  0  0  0  0  0  0
   44.9204    3.9892    9.8865 C   0  0  0  0  0  0  0  0  0  0  0  0
   46.4636    3.2036    6.4163 C   0  0  0  0  0  0  0  0  0  0  0  0
   45.3985    3.3626    7.5000 C   0  0  0  0  0  0  0  0  0  0  0  0
   45.9907    3.8201    8.8371 C   0  0  0  0  0  0  0  0  0  0  0  0
   44.3144    5.2350   10.0943 C   0  0  0  0  0  0  0  0  0  0  0  0
   44.4994    2.8914   10.6490 C   0  0  0  0  0  0  0  0  0  0  0  0
   43.4978    3.0401   11.6094 C   0  0  0  0  0  0  0  0  0  0  0  0
   43.3128    5.3817   11.0555 C   0  0  0  0  0  0  0  0  0  0  0  0
   42.9056    4.2850   11.8131 C   0  0  0  0  0  0  0  0  0  0  0  0
   48.8561    1.1499    5.9977 H   0  0  0  0  0  0  0  0  0  0  0  0
   45.9692    3.0759    5.4467 H   0  0  0  0  0  0  0  0  0  0  0  0
   47.0916    4.1001    6.3734 H   0  0  0  0  0  0  0  0  0  0  0  0
   44.6646    4.1043    7.1592 H   0  0  0  0  0  0  0  0  0  0  0  0
   44.8516    2.4202    7.6311 H   0  0  0  0  0  0  0  0  0  0  0  0
   46.5259    4.7692    8.7057 H   0  0  0  0  0  0  0  0  0  0  0  0
   46.7368    3.1039    9.2014 H   0  0  0  0  0  0  0  0  0  0  0  0
   44.6187    6.0990    9.5084 H   0  0  0  0  0  0  0  0  0  0  0  0
   44.9508    1.9131   10.4961 H   0  0  0  0  0  0  0  0  0  0  0  0
   43.1793    2.1833   12.1971 H   0  0  0  0  0  0  0  0  0  0  0  0
   42.8492    6.3521   11.2124 H   0  0  0  0  0  0  0  0  0  0  0  0
   42.1255    4.3999   12.5608 H   0  0  0  0  0  0  0  0  0  0  0  0
  2  1  1  0
  3  1  2  0
  4  7  1  0
  5  1  1  0
  6  5  1  0
  7  6  1  0
  8  4  2  0
  9  4  1  0
 10  9  2  0
 11  8  1  0
 12 11  2  0
 12 10  1  0
  2 13  1  0
  5 14  1  0
  5 15  1  0
  6 16  1  0
  6 17  1  0
  7 18  1  0
  7 19  1  0
  8 20  1  0
  9 21  1  0
 10 22  1  0
 11 23  1  0
 12 24  1  0
M  END
> <Uni-Dock RESULT> 
ENERGY=   -4.921  LOWER_BOUND=    3.079  UPPER_BOUND=    5.592
INTER + INTRA:          -4.921
INTER:                  -4.921
INTRA:                   0.000
UNBOUND:                 0.000

$$$$

     RDKit          3D

 24 24  0  0  0  0  0  0  0  0999 V2000
   46.6562    3.2193    6.7331 C   0  0  0  0  0  0  0  0  0  0  0  0
   46.7163    2.7244    5.4811 O   0  0  0  0  0  0  0  0  0  0  0  0
   47.2340    4.2532    7.0188 O   0  0  0  0  0  0  0  0  0  0  0  0
   44.3560    4.7244   10.3178 C   0  0  0  0  0  0  0  0  0  0  0  0
   45.8400    2.3403    7.6430 C   0  0  0  0  0  0  0  0  0  0  0  0
   45.5961    2.9702    9.0133 C   0  0  0  0  0  0  0  0  0  0  0  0
   44.5966    4.1300    8.9524 C   0  0  0  0  0  0  0  0  0  0  0  0
   43.2961    4.2746   11.1158 C   0  0  0  0  0  0  0  0  0  0  0  0
   45.2099    5.7175   10.8161 C   0  0  0  0  0  0  0  0  0  0  0  0
   45.0006    6.2581   12.0856 C   0  0  0  0  0  0  0  0  0  0  0  0
   43.0883    4.8166   12.3852 C   0  0  0  0  0  0  0  0  0  0  0  0
   43.9396    5.8085   12.8693 C   0  0  0  0  0  0  0  0  0  0  0  0
   47.2759    3.3677    4.9972 H   0  0  0  0  0  0  0  0  0  0  0  0
   46.3941    1.4040    7.7746 H   0  0  0  0  0  0  0  0  0  0  0  0
   44.8839    2.1157    7.1580 H   0  0  0  0  0  0  0  0  0  0  0  0
   45.2076    2.1958    9.6871 H   0  0  0  0  0  0  0  0  0  0  0  0
   46.5456    3.3114    9.4449 H   0  0  0  0  0  0  0  0  0  0  0  0
   43.6438    3.7831    8.5325 H   0  0  0  0  0  0  0  0  0  0  0  0
   44.9511    4.9187    8.2780 H   0  0  0  0  0  0  0  0  0  0  0  0
   42.6259    3.4986   10.7536 H   0  0  0  0  0  0  0  0  0  0  0  0
   46.0447    6.0736   10.2156 H   0  0  0  0  0  0  0  0  0  0  0  0
   45.6670    7.0292   12.4626 H   0  0  0  0  0  0  0  0  0  0  0  0
   42.2625    4.4640   12.9974 H   0  0  0  0  0  0  0  0  0  0  0  0
   43.7774    6.2297   13.8577 H   0  0  0  0  0  0  0  0  0  0  0  0
  2  1  1  0
  3  1  2  0
  4  7  1  0
  5  1  1  0
  6  5  1  0
  7  6  1  0
  8  4  2  0
  9  4  1  0
 10  9  2  0
 11  8  1  0
 12 11  2  0
 12 10  1  0
  2 13  1  0
  5 14  1  0
  5 15  1  0
  6 16  1  0
  6 17  1  0
  7 18  1  0
  7 19  1  0
  8 20  1  0
  9 21  1  0
 10 22  1  0
 11 23  1  0
 12 24  1  0
M  END
> <Uni-Dock RESULT> 
ENERGY=   -4.453  LOWER_BOUND=    2.925  UPPER_BOUND=    5.832
INTER + INTRA:          -4.453
INTER:                  -4.453
INTRA:                   0.000
UNBOUND:                 0.000

$$$$
