
     RDKit          3D

 24 24  0  0  0  0  0  0  0  0999 V2000
   47.3510    2.0761    6.6284 C   0  0  0  0  0  0  0  0  0  0  0  0
   48.4901    2.7928    6.6327 O   0  0  0  0  0  0  0  0  0  0  0  0
   47.3715    0.8677    6.4681 O   0  0  0  0  0  0  0  0  0  0  0  0
   44.4895    4.3113   10.0632 C   0  0  0  0  0  0  0  0  0  0  0  0
   46.1323    2.9203    6.8583 C   0  0  0  0  0  0  0  0  0  0  0  0
   45.9430    3.1965    8.3441 C   0  0  0  0  0  0  0  0  0  0  0  0
   44.6862    4.0299    8.5951 C   0  0  0  0  0  0  0  0  0  0  0  0
   43.7659    3.4202   10.8668 C   0  0  0  0  0  0  0  0  0  0  0  0
   45.0524    5.4526   10.6498 C   0  0  0  0  0  0  0  0  0  0  0  0
   44.8844    5.7033   12.0126 C   0  0  0  0  0  0  0  0  0  0  0  0
   43.5990    3.6726   12.2294 C   0  0  0  0  0  0  0  0  0  0  0  0
   44.1571    4.8142   12.8016 C   0  0  0  0  0  0  0  0  0  0  0  0
   49.1928    2.1240    6.4915 H   0  0  0  0  0  0  0  0  0  0  0  0
   45.2683    2.3864    6.4459 H   0  0  0  0  0  0  0  0  0  0  0  0
   46.2304    3.8496    6.2856 H   0  0  0  0  0  0  0  0  0  0  0  0
   46.8246    3.7174    8.7394 H   0  0  0  0  0  0  0  0  0  0  0  0
   45.8808    2.2462    8.8904 H   0  0  0  0  0  0  0  0  0  0  0  0
   43.8025    3.5108    8.2029 H   0  0  0  0  0  0  0  0  0  0  0  0
   44.7457    4.9790    8.0472 H   0  0  0  0  0  0  0  0  0  0  0  0
   43.3284    2.5226   10.4356 H   0  0  0  0  0  0  0  0  0  0  0  0
   45.6266    6.1533   10.0479 H   0  0  0  0  0  0  0  0  0  0  0  0
   45.3227    6.5920   12.4588 H   0  0  0  0  0  0  0  0  0  0  0  0
   43.0347    2.9769   12.8447 H   0  0  0  0  0  0  0  0  0  0  0  0
   44.0273    5.0096   13.8626 H   0  0  0  0  0  0  0  0  0  0  0  0
  2  1  1  0
  3  1  2  0
  4  7  1  0
  5  1  1  0
  6  5  1  0
  7  6  1  0
  8  4  2  0
  9  4  1  0
 10  9  2  0
 11  8  1  0
 12 11  2  0
 12 10  1  0
  2 13  1  0
  5 14  1  0
  5 15  1  0
  6 16  1  0
  6 17  1  0
  7 18  1  0
  7 19  1  0
  8 20  1  0
  9 21  1  0
 10 22  1  0
 11 23  1  0
 12 24  1  0
M  END
> <Uni-Dock RESULT> 
ENERGY=   -5.047  LOWER_BOUND=    0.000  UPPER_BOUND=    0.000
INTER + INTRA:          -5.047
INTER:                  -5.047
INTRA:                   0.000
UNBOUND:                 0.000

$$$$

     RDKit          3D

 24 24  0  0  0  0  0  0  0  0999 V2000
   47.8987    7.2908   13.8263 C   0  0  0  0  0  0  0  0  0  0  0  0
   47.9462    6.4394   14.8675 O   0  0  0  0  0  0  0  0  0  0  0  0
   48.8682    7.9651   13.5234 O   0  0  0  0  0  0  0  0  0  0  0  0
   45.0699    4.9314   10.4479 C   0  0  0  0  0  0  0  0  0  0  0  0
   46.5740    7.2747   13.1222 C   0  0  0  0  0  0  0  0  0  0  0  0
   46.4943    6.1008   12.1550 C   0  0  0  0  0  0  0  0  0  0  0  0
   45.1608    6.0909   11.4074 C   0  0  0  0  0  0  0  0  0  0  0  0
   45.5309    5.0610    9.1311 C   0  0  0  0  0  0  0  0  0  0  0  0
   44.5500    3.7000   10.8685 C   0  0  0  0  0  0  0  0  0  0  0  0
   44.4822    2.6220    9.9843 C   0  0  0  0  0  0  0  0  0  0  0  0
   45.4623    3.9819    8.2484 C   0  0  0  0  0  0  0  0  0  0  0  0
   44.9372    2.7634    8.6747 C   0  0  0  0  0  0  0  0  0  0  0  0
   48.8569    6.5398   15.2160 H   0  0  0  0  0  0  0  0  0  0  0  0
   46.4611    8.2274   12.5921 H   0  0  0  0  0  0  0  0  0  0  0  0
   45.7742    7.2345   13.8705 H   0  0  0  0  0  0  0  0  0  0  0  0
   46.6246    5.1591   12.7037 H   0  0  0  0  0  0  0  0  0  0  0  0
   47.3267    6.1546   11.4412 H   0  0  0  0  0  0  0  0  0  0  0  0
   45.0284    7.0304   10.8559 H   0  0  0  0  0  0  0  0  0  0  0  0
   44.3277    6.0401   12.1200 H   0  0  0  0  0  0  0  0  0  0  0  0
   45.9477    6.0042    8.7851 H   0  0  0  0  0  0  0  0  0  0  0  0
   44.1954    3.5729   11.8888 H   0  0  0  0  0  0  0  0  0  0  0  0
   44.0757    1.6711   10.3183 H   0  0  0  0  0  0  0  0  0  0  0  0
   45.8205    4.0919    7.2283 H   0  0  0  0  0  0  0  0  0  0  0  0
   44.8847    1.9236    7.9872 H   0  0  0  0  0  0  0  0  0  0  0  0
  2  1  1  0
  3  1  2  0
  4  7  1  0
  5  1  1  0
  6  5  1  0
  7  6  1  0
  8  4  2  0
  9  4  1  0
 10  9  2  0
 11  8  1  0
 12 11  2  0
 12 10  1  0
  2 13  1  0
  5 14  1  0
  5 15  1  0
  6 16  1  0
  6 17  1  0
  7 18  1  0
  7 19  1  0
  8 20  1  0
  9 21  1  0
 10 22  1  0
 11 23  1  0
 12 24  1  0
M  END
> <Uni-Dock RESULT> 
ENERGY=   -3.910  LOWER_BOUND=    4.093  UPPER_BOUND=    5.953
INTER + INTRA:          -3.910
INTER:                  -3.910
INTRA:                   0.000
UNBOUND:                 0.000

$$$$

     RDKit          3D

 24 24  0  0  0  0  0  0  0  0999 V2000
   44.9328    2.8952    8.8422 C   0  0  0  0  0  0  0  0  0  0  0  0
   44.4645    3.4059    7.6884 O   0  0  0  0  0  0  0  0  0  0  0  0
   45.8130    2.0515    8.8425 O   0  0  0  0  0  0  0  0  0  0  0  0
   44.8828    6.7683   12.0010 C   0  0  0  0  0  0  0  0  0  0  0  0
   44.2751    3.4920   10.0513 C   0  0  0  0  0  0  0  0  0  0  0  0
   44.9066    4.8337   10.3988 C   0  0  0  0  0  0  0  0  0  0  0  0
   44.2664    5.4382   11.6485 C   0  0  0  0  0  0  0  0  0  0  0  0
   46.0038    6.8321   12.8393 C   0  0  0  0  0  0  0  0  0  0  0  0
   44.3608    7.9562   11.4718 C   0  0  0  0  0  0  0  0  0  0  0  0
   44.9427    9.1856   11.7851 C   0  0  0  0  0  0  0  0  0  0  0  0
   46.5844    8.0625   13.1513 C   0  0  0  0  0  0  0  0  0  0  0  0
   46.0533    9.2386   12.6252 C   0  0  0  0  0  0  0  0  0  0  0  0
   44.9851    2.9469    6.9961 H   0  0  0  0  0  0  0  0  0  0  0  0
   44.3825    2.7822   10.8797 H   0  0  0  0  0  0  0  0  0  0  0  0
   43.2006    3.5908    9.8591 H   0  0  0  0  0  0  0  0  0  0  0  0
   44.8013    5.5233    9.5513 H   0  0  0  0  0  0  0  0  0  0  0  0
   45.9859    4.7038   10.5529 H   0  0  0  0  0  0  0  0  0  0  0  0
   44.3720    4.7519   12.4983 H   0  0  0  0  0  0  0  0  0  0  0  0
   43.1870    5.5659   11.4968 H   0  0  0  0  0  0  0  0  0  0  0  0
   46.4325    5.9224   13.2537 H   0  0  0  0  0  0  0  0  0  0  0  0
   43.4974    7.9304   10.8109 H   0  0  0  0  0  0  0  0  0  0  0  0
   44.5302   10.1021   11.3718 H   0  0  0  0  0  0  0  0  0  0  0  0
   47.4526    8.1027   13.8037 H   0  0  0  0  0  0  0  0  0  0  0  0
   46.5063   10.1960   12.8681 H   0  0  0  0  0  0  0  0  0  0  0  0
  2  1  1  0
  3  1  2  0
  4  7  1  0
  5  1  1  0
  6  5  1  0
  7  6  1  0
  8  4  2  0
  9  4  1  0
 10  9  2  0
 11  8  1  0
 12 11  2  0
 12 10  1  0
  2 13  1  0
  5 14  1  0
  5 15  1  0
  6 16  1  0
  6 17  1  0
  7 18  1  0
  7 19  1  0
  8 20  1  0
  9 21  1  0
 10 22  1  0
 11 23  1  0
 12 24  1  0
M  END
> <Uni-Dock RESULT> 
ENERGY=   -3.874  LOWER_BOUND=    2.502  UPPER_BOUND=    3.812
INTER + INTRA:          -3.874
INTER:                  -3.874
INTRA:                   0.000
UNBOUND:                 0.000

$$$$

     RDKit          3D

 24 24  0  0  0  0  0  0  0  0999 V2000
   43.0264    4.8257   11.7784 C   0  0  0  0  0  0  0  0  0  0  0  0
   42.0405    5.7398   11.7190 O   0  0  0  0  0  0  0  0  0  0  0  0
   43.0375    3.8661   11.0264 O   0  0  0  0  0  0  0  0  0  0  0  0
   47.1146    7.5058   12.8209 C   0  0  0  0  0  0  0  0  0  0  0  0
   44.0567    5.1489   12.8200 C   0  0  0  0  0  0  0  0  0  0  0  0
   45.0510    6.1746   12.2916 C   0  0  0  0  0  0  0  0  0  0  0  0
   46.1253    6.4895   13.3326 C   0  0  0  0  0  0  0  0  0  0  0  0
   48.2567    7.0954   12.1203 C   0  0  0  0  0  0  0  0  0  0  0  0
   46.8904    8.8755   13.0135 C   0  0  0  0  0  0  0  0  0  0  0  0
   47.7981    9.8162   12.5243 C   0  0  0  0  0  0  0  0  0  0  0  0
   49.1631    8.0377   11.6318 C   0  0  0  0  0  0  0  0  0  0  0  0
   48.9344    9.3973   11.8348 C   0  0  0  0  0  0  0  0  0  0  0  0
   41.4596    5.4172   10.9983 H   0  0  0  0  0  0  0  0  0  0  0  0
   44.5641    4.2169   13.0945 H   0  0  0  0  0  0  0  0  0  0  0  0
   43.5492    5.5084   13.7225 H   0  0  0  0  0  0  0  0  0  0  0  0
   44.5207    7.0932   12.0089 H   0  0  0  0  0  0  0  0  0  0  0  0
   45.5162    5.7967   11.3717 H   0  0  0  0  0  0  0  0  0  0  0  0
   46.6589    5.5733   13.6157 H   0  0  0  0  0  0  0  0  0  0  0  0
   45.6614    6.8647   14.2537 H   0  0  0  0  0  0  0  0  0  0  0  0
   48.4464    6.0381   11.9499 H   0  0  0  0  0  0  0  0  0  0  0  0
   46.0058    9.2179   13.5455 H   0  0  0  0  0  0  0  0  0  0  0  0
   47.6174   10.8765   12.6800 H   0  0  0  0  0  0  0  0  0  0  0  0
   50.0472    7.7104   11.0911 H   0  0  0  0  0  0  0  0  0  0  0  0
   49.6402   10.1303   11.4536 H   0  0  0  0  0  0  0  0  0  0  0  0
  2  1  1  0
  3  1  2  0
  4  7  1  0
  5  1  1  0
  6  5  1  0
  7  6  1  0
  8  4  2  0
  9  4  1  0
 10  9  2  0
 11  8  1  0
 12 11  2  0
 12 10  1  0
  2 13  1  0
  5 14  1  0
  5 15  1  0
  6 16  1  0
  6 17  1  0
  7 18  1  0
  7 19  1  0
  8 20  1  0
  9 21  1  0
 10 22  1  0
 11 23  1  0
 12 24  1  0
M  END
> <Uni-Dock RESULT> 
ENERGY=   -3.498  LOWER_BOUND=    4.545  UPPER_BOUND=    6.322
INTER + INTRA:          -3.498
INTER:                  -3.498
INTRA:                   0.000
UNBOUND:                 0.000

$$$$

     RDKit          3D

 24 24  0  0  0  0  0  0  0  0999 V2000
   42.9554    5.2443   11.7089 C   0  0  0  0  0  0  0  0  0  0  0  0
   43.0505    3.9743   12.1438 O   0  0  0  0  0  0  0  0  0  0  0  0
   41.8914    5.8388   11.7383 O   0  0  0  0  0  0  0  0  0  0  0  0
   47.2751    7.3382   13.1012 C   0  0  0  0  0  0  0  0  0  0  0  0
   44.2676    5.7963   11.2351 C   0  0  0  0  0  0  0  0  0  0  0  0
   45.1071    6.2717   12.4137 C   0  0  0  0  0  0  0  0  0  0  0  0
   46.4344    6.8657   11.9421 C   0  0  0  0  0  0  0  0  0  0  0  0
   47.1415    8.6447   13.5897 C   0  0  0  0  0  0  0  0  0  0  0  0
   48.1801    6.4684   13.7240 C   0  0  0  0  0  0  0  0  0  0  0  0
   48.9454    6.9016   14.8079 C   0  0  0  0  0  0  0  0  0  0  0  0
   47.9077    9.0760   14.6738 C   0  0  0  0  0  0  0  0  0  0  0  0
   48.8099    8.2051   15.2817 C   0  0  0  0  0  0  0  0  0  0  0  0
   42.1406    3.7530   12.4336 H   0  0  0  0  0  0  0  0  0  0  0  0
   44.0578    6.6218   10.5452 H   0  0  0  0  0  0  0  0  0  0  0  0
   44.7884    5.0260   10.6548 H   0  0  0  0  0  0  0  0  0  0  0  0
   45.2922    5.4340   13.0985 H   0  0  0  0  0  0  0  0  0  0  0  0
   44.5437    7.0171   12.9902 H   0  0  0  0  0  0  0  0  0  0  0  0
   46.2527    7.7050   11.2589 H   0  0  0  0  0  0  0  0  0  0  0  0
   46.9974    6.1225   11.3632 H   0  0  0  0  0  0  0  0  0  0  0  0
   46.4382    9.3345   13.1288 H   0  0  0  0  0  0  0  0  0  0  0  0
   48.2935    5.4467   13.3685 H   0  0  0  0  0  0  0  0  0  0  0  0
   49.6464    6.2209   15.2836 H   0  0  0  0  0  0  0  0  0  0  0  0
   47.7988   10.0916   15.0450 H   0  0  0  0  0  0  0  0  0  0  0  0
   49.4055    8.5414   16.1261 H   0  0  0  0  0  0  0  0  0  0  0  0
  2  1  1  0
  3  1  2  0
  4  7  1  0
  5  1  1  0
  6  5  1  0
  7  6  1  0
  8  4  2  0
  9  4  1  0
 10  9  2  0
 11  8  1  0
 12 11  2  0
 12 10  1  0
  2 13  1  0
  5 14  1  0
  5 15  1  0
  6 16  1  0
  6 17  1  0
  7 18  1  0
  7 19  1  0
  8 20  1  0
  9 21  1  0
 10 22  1  0
 11 23  1  0
 12 24  1  0
M  END
> <Uni-Dock RESULT> 
ENERGY=   -3.461  LOWER_BOUND=    4.773  UPPER_BOUND=    6.392
INTER + INTRA:          -3.461
INTER:                  -3.461
INTRA:                   0.000
UNBOUND:                 0.000

$$$$

     RDKit          3D

 24 24  0  0  0  0  0  0  0  0999 V2000
   43.0482   10.3019   10.9303 C   0  0  0  0  0  0  0  0  0  0  0  0
   42.8341   10.4288    9.6077 O   0  0  0  0  0  0  0  0  0  0  0  0
   42.3271   10.8618   11.7384 O   0  0  0  0  0  0  0  0  0  0  0  0
   44.5747    5.5735   11.4720 C   0  0  0  0  0  0  0  0  0  0  0  0
   44.2125    9.4106   11.2479 C   0  0  0  0  0  0  0  0  0  0  0  0
   43.8006    7.9457   11.1826 C   0  0  0  0  0  0  0  0  0  0  0  0
   44.9705    7.0270   11.5352 C   0  0  0  0  0  0  0  0  0  0  0  0
   44.0457    4.9314   12.5996 C   0  0  0  0  0  0  0  0  0  0  0  0
   44.7033    4.8531   10.2770 C   0  0  0  0  0  0  0  0  0  0  0  0
   44.3204    3.5123   10.2149 C   0  0  0  0  0  0  0  0  0  0  0  0
   43.6633    3.5906   12.5354 C   0  0  0  0  0  0  0  0  0  0  0  0
   43.8017    2.8812   11.3439 C   0  0  0  0  0  0  0  0  0  0  0  0
   42.0487   11.0124    9.5484 H   0  0  0  0  0  0  0  0  0  0  0  0
   44.5749    9.6714   12.2489 H   0  0  0  0  0  0  0  0  0  0  0  0
   45.0289    9.6304   10.5505 H   0  0  0  0  0  0  0  0  0  0  0  0
   43.4273    7.7102   10.1776 H   0  0  0  0  0  0  0  0  0  0  0  0
   42.9616    7.7682   11.8681 H   0  0  0  0  0  0  0  0  0  0  0  0
   45.3447    7.2585   12.5405 H   0  0  0  0  0  0  0  0  0  0  0  0
   45.8110    7.2054   10.8524 H   0  0  0  0  0  0  0  0  0  0  0  0
   43.9271    5.4732   13.5353 H   0  0  0  0  0  0  0  0  0  0  0  0
   45.1020    5.3332    9.3862 H   0  0  0  0  0  0  0  0  0  0  0  0
   44.4255    2.9606    9.2844 H   0  0  0  0  0  0  0  0  0  0  0  0
   43.2556    3.1001   13.4154 H   0  0  0  0  0  0  0  0  0  0  0  0
   43.5032    1.8375   11.2947 H   0  0  0  0  0  0  0  0  0  0  0  0
  2  1  1  0
  3  1  2  0
  4  7  1  0
  5  1  1  0
  6  5  1  0
  7  6  1  0
  8  4  2  0
  9  4  1  0
 10  9  2  0
 11  8  1  0
 12 11  2  0
 12 10  1  0
  2 13  1  0
  5 14  1  0
  5 15  1  0
  6 16  1  0
  6 17  1  0
  7 18  1  0
  7 19  1  0
  8 20  1  0
  9 21  1  0
 10 22  1  0
 11 23  1  0
 12 24  1  0
M  END
> <Uni-Dock RESULT> 
ENERGY=   -3.432  LOWER_BOUND=    4.829  UPPER_BOUND=    6.448
INTER + INTRA:          -3.432
INTER:                  -3.432
INTRA:                   0.000
UNBOUND:                 0.000

$$$$

     RDKit          3D

 24 24  0  0  0  0  0  0  0  0999 V2000
   44.0016    3.2614   11.4229 C   0  0  0  0  0  0  0  0  0  0  0  0
   42.7821    3.8235   11.3330 O   0  0  0  0  0  0  0  0  0  0  0  0
   44.3573    2.4058   10.6305 O   0  0  0  0  0  0  0  0  0  0  0  0
   46.9681    7.0085   12.8863 C   0  0  0  0  0  0  0  0  0  0  0  0
   44.8173    3.8200   12.5515 C   0  0  0  0  0  0  0  0  0  0  0  0
   45.4640    5.1379   12.1455 C   0  0  0  0  0  0  0  0  0  0  0  0
   46.3240    5.7022   13.2764 C   0  0  0  0  0  0  0  0  0  0  0  0
   48.2184    7.0233   12.2539 C   0  0  0  0  0  0  0  0  0  0  0  0
   46.3120    8.2236   13.1246 C   0  0  0  0  0  0  0  0  0  0  0  0
   46.9014    9.4313   12.7475 C   0  0  0  0  0  0  0  0  0  0  0  0
   48.8061    8.2321   11.8774 C   0  0  0  0  0  0  0  0  0  0  0  0
   48.1483    9.4354   12.1252 C   0  0  0  0  0  0  0  0  0  0  0  0
   42.3741    3.3845   10.5573 H   0  0  0  0  0  0  0  0  0  0  0  0
   45.5772    3.0769   12.8196 H   0  0  0  0  0  0  0  0  0  0  0  0
   44.1728    3.9417   13.4296 H   0  0  0  0  0  0  0  0  0  0  0  0
   44.6870    5.8615   11.8670 H   0  0  0  0  0  0  0  0  0  0  0  0
   46.0752    4.9865   11.2462 H   0  0  0  0  0  0  0  0  0  0  0  0
   47.1033    4.9819   13.5558 H   0  0  0  0  0  0  0  0  0  0  0  0
   45.7148    5.8513   14.1771 H   0  0  0  0  0  0  0  0  0  0  0  0
   48.7418    6.0921   12.0495 H   0  0  0  0  0  0  0  0  0  0  0  0
   45.3363    8.2361   13.6050 H   0  0  0  0  0  0  0  0  0  0  0  0
   46.3863   10.3691   12.9379 H   0  0  0  0  0  0  0  0  0  0  0  0
   49.7769    8.2343   11.3890 H   0  0  0  0  0  0  0  0  0  0  0  0
   48.6062   10.3760   11.8312 H   0  0  0  0  0  0  0  0  0  0  0  0
  2  1  1  0
  3  1  2  0
  4  7  1  0
  5  1  1  0
  6  5  1  0
  7  6  1  0
  8  4  2  0
  9  4  1  0
 10  9  2  0
 11  8  1  0
 12 11  2  0
 12 10  1  0
  2 13  1  0
  5 14  1  0
  5 15  1  0
  6 16  1  0
  6 17  1  0
  7 18  1  0
  7 19  1  0
  8 20  1  0
  9 21  1  0
 10 22  1  0
 11 23  1  0
 12 24  1  0
M  END
> <Uni-Dock RESULT> 
ENERGY=   -3.429  LOWER_BOUND=    3.902  UPPER_BOUND=    5.603
INTER + INTRA:          -3.429
INTER:                  -3.429
INTRA:                   0.000
UNBOUND:                 0.000

$$$$

     RDKit          3D

 24 24  0  0  0  0  0  0  0  0999 V2000
   43.0840    6.1513   11.5002 C   0  0  0  0  0  0  0  0  0  0  0  0
   42.1429    5.3817   12.0774 O   0  0  0  0  0  0  0  0  0  0  0  0
   42.8116    7.2607   11.0742 O   0  0  0  0  0  0  0  0  0  0  0  0
   47.2256    5.1935   14.1293 C   0  0  0  0  0  0  0  0  0  0  0  0
   44.4351    5.4995   11.4788 C   0  0  0  0  0  0  0  0  0  0  0  0
   45.1336    5.6675   12.8219 C   0  0  0  0  0  0  0  0  0  0  0  0
   46.5251    5.0349   12.8035 C   0  0  0  0  0  0  0  0  0  0  0  0
   48.0088    6.3262   14.3880 C   0  0  0  0  0  0  0  0  0  0  0  0
   47.0792    4.2246   15.1309 C   0  0  0  0  0  0  0  0  0  0  0  0
   47.7141    4.3809   16.3641 C   0  0  0  0  0  0  0  0  0  0  0  0
   48.6429    6.4808   15.6218 C   0  0  0  0  0  0  0  0  0  0  0  0
   48.4964    5.5079   16.6088 C   0  0  0  0  0  0  0  0  0  0  0  0
   41.3306    5.9292   12.0385 H   0  0  0  0  0  0  0  0  0  0  0  0
   45.0195    5.9589   10.6732 H   0  0  0  0  0  0  0  0  0  0  0  0
   44.3155    4.4420   11.2171 H   0  0  0  0  0  0  0  0  0  0  0  0
   44.5250    5.2145   13.6152 H   0  0  0  0  0  0  0  0  0  0  0  0
   45.2076    6.7351   13.0674 H   0  0  0  0  0  0  0  0  0  0  0  0
   47.1368    5.4873   12.0127 H   0  0  0  0  0  0  0  0  0  0  0  0
   46.4528    3.9683   12.5553 H   0  0  0  0  0  0  0  0  0  0  0  0
   48.1287    7.0964   13.6293 H   0  0  0  0  0  0  0  0  0  0  0  0
   46.4681    3.3420   14.9564 H   0  0  0  0  0  0  0  0  0  0  0  0
   47.5968    3.6235   17.1346 H   0  0  0  0  0  0  0  0  0  0  0  0
   49.2498    7.3617   15.8131 H   0  0  0  0  0  0  0  0  0  0  0  0
   48.9898    5.6293   17.5693 H   0  0  0  0  0  0  0  0  0  0  0  0
  2  1  1  0
  3  1  2  0
  4  7  1  0
  5  1  1  0
  6  5  1  0
  7  6  1  0
  8  4  2  0
  9  4  1  0
 10  9  2  0
 11  8  1  0
 12 11  2  0
 12 10  1  0
  2 13  1  0
  5 14  1  0
  5 15  1  0
  6 16  1  0
  6 17  1  0
  7 18  1  0
  7 19  1  0
  8 20  1  0
  9 21  1  0
 10 22  1  0
 11 23  1  0
 12 24  1  0
M  END
> <Uni-Dock RESULT> 
ENERGY=   -3.354  LOWER_BOUND=    4.871  UPPER_BOUND=    6.420
INTER + INTRA:          -3.354
INTER:                  -3.354
INTRA:                   0.000
UNBOUND:                 0.000

$$$$

     RDKit          3D

 24 24  0  0  0  0  0  0  0  0999 V2000
   48.6823    5.2041   21.2086 C   0  0  0  0  0  0  0  0  0  0  0  0
   48.1474    4.7576   20.0572 O   0  0  0  0  0  0  0  0  0  0  0  0
   49.7858    4.8342   21.5718 O   0  0  0  0  0  0  0  0  0  0  0  0
   47.1876    9.9656   21.4837 C   0  0  0  0  0  0  0  0  0  0  0  0
   47.7929    6.1781   21.9235 C   0  0  0  0  0  0  0  0  0  0  0  0
   47.9346    7.5723   21.3269 C   0  0  0  0  0  0  0  0  0  0  0  0
   47.0568    8.5815   22.0672 C   0  0  0  0  0  0  0  0  0  0  0  0
   48.1733   10.8442   21.9527 C   0  0  0  0  0  0  0  0  0  0  0  0
   46.3443   10.3816   20.4447 C   0  0  0  0  0  0  0  0  0  0  0  0
   46.4776   11.6569   19.8935 C   0  0  0  0  0  0  0  0  0  0  0  0
   48.3050   12.1191   21.4001 C   0  0  0  0  0  0  0  0  0  0  0  0
   47.4568   12.5255   20.3718 C   0  0  0  0  0  0  0  0  0  0  0  0
   48.8304    4.1549   19.6952 H   0  0  0  0  0  0  0  0  0  0  0  0
   48.0716    6.1754   22.9836 H   0  0  0  0  0  0  0  0  0  0  0  0
   46.7583    5.8206   21.8694 H   0  0  0  0  0  0  0  0  0  0  0  0
   47.6656    7.5492   20.2630 H   0  0  0  0  0  0  0  0  0  0  0  0
   48.9862    7.8853   21.3680 H   0  0  0  0  0  0  0  0  0  0  0  0
   47.3248    8.6086   23.1310 H   0  0  0  0  0  0  0  0  0  0  0  0
   46.0056    8.2683   22.0294 H   0  0  0  0  0  0  0  0  0  0  0  0
   48.8458   10.5396   22.7514 H   0  0  0  0  0  0  0  0  0  0  0  0
   45.5785    9.7132   20.0577 H   0  0  0  0  0  0  0  0  0  0  0  0
   45.8180   11.9720   19.0893 H   0  0  0  0  0  0  0  0  0  0  0  0
   49.0712   12.7946   21.7712 H   0  0  0  0  0  0  0  0  0  0  0  0
   47.5604   13.5180   19.9417 H   0  0  0  0  0  0  0  0  0  0  0  0
  2  1  1  0
  3  1  2  0
  4  7  1  0
  5  1  1  0
  6  5  1  0
  7  6  1  0
  8  4  2  0
  9  4  1  0
 10  9  2  0
 11  8  1  0
 12 11  2  0
 12 10  1  0
  2 13  1  0
  5 14  1  0
  5 15  1  0
  6 16  1  0
  6 17  1  0
  7 18  1  0
  7 19  1  0
  8 20  1  0
  9 21  1  0
 10 22  1  0
 11 23  1  0
 12 24  1  0
M  END
> <Uni-Dock RESULT> 
ENERGY=   -3.149  LOWER_BOUND=   12.496  UPPER_BOUND=   13.516
INTER + INTRA:          -3.149
INTER:                  -3.149
INTRA:                   0.000
UNBOUND:                 0.000

$$$$
