
     RDKit          3D

 24 24  0  0  0  0  0  0  0  0999 V2000
   43.9515    5.0824   12.2721 C   0  0  0  0  0  0  0  0  0  0  0  0
   44.5498    6.2877   12.2904 O   0  0  0  0  0  0  0  0  0  0  0  0
   43.7794    4.4524   13.3017 O   0  0  0  0  0  0  0  0  0  0  0  0
   45.5759    2.9772    8.0400 C   0  0  0  0  0  0  0  0  0  0  0  0
   43.5721    4.6428   10.8887 C   0  0  0  0  0  0  0  0  0  0  0  0
   44.7736    4.0478   10.1660 C   0  0  0  0  0  0  0  0  0  0  0  0
   44.3931    3.5668    8.7658 C   0  0  0  0  0  0  0  0  0  0  0  0
   46.4059    3.7898    7.2561 C   0  0  0  0  0  0  0  0  0  0  0  0
   45.8778    1.6145    8.1630 C   0  0  0  0  0  0  0  0  0  0  0  0
   46.9831    1.0729    7.5046 C   0  0  0  0  0  0  0  0  0  0  0  0
   47.5105    3.2463    6.5985 C   0  0  0  0  0  0  0  0  0  0  0  0
   47.7982    1.8883    6.7218 C   0  0  0  0  0  0  0  0  0  0  0  0
   44.7545    6.4377   13.2373 H   0  0  0  0  0  0  0  0  0  0  0  0
   42.7644    3.9071   10.9772 H   0  0  0  0  0  0  0  0  0  0  0  0
   43.1589    5.4996   10.3443 H   0  0  0  0  0  0  0  0  0  0  0  0
   45.1812    3.2147   10.7536 H   0  0  0  0  0  0  0  0  0  0  0  0
   45.5749    4.7953   10.1020 H   0  0  0  0  0  0  0  0  0  0  0  0
   43.9828    4.3981    8.1785 H   0  0  0  0  0  0  0  0  0  0  0  0
   43.5935    2.8175    8.8266 H   0  0  0  0  0  0  0  0  0  0  0  0
   46.1969    4.8522    7.1539 H   0  0  0  0  0  0  0  0  0  0  0  0
   45.2537    0.9664    8.7740 H   0  0  0  0  0  0  0  0  0  0  0  0
   47.2087    0.0144    7.6041 H   0  0  0  0  0  0  0  0  0  0  0  0
   48.1478    3.8834    5.9909 H   0  0  0  0  0  0  0  0  0  0  0  0
   48.6588    1.4660    6.2101 H   0  0  0  0  0  0  0  0  0  0  0  0
  2  1  1  0
  3  1  2  0
  4  7  1  0
  5  1  1  0
  6  5  1  0
  7  6  1  0
  8  4  2  0
  9  4  1  0
 10  9  2  0
 11  8  1  0
 12 11  2  0
 12 10  1  0
  2 13  1  0
  5 14  1  0
  5 15  1  0
  6 16  1  0
  6 17  1  0
  7 18  1  0
  7 19  1  0
  8 20  1  0
  9 21  1  0
 10 22  1  0
 11 23  1  0
 12 24  1  0
M  END
> <Uni-Dock RESULT> 
ENERGY=   -6.274  LOWER_BOUND=    0.000  UPPER_BOUND=    0.000
INTER + INTRA:          -6.274
INTER:                  -6.274
INTRA:                   0.000
UNBOUND:                 0.000

$$$$

     RDKit          3D

 24 24  0  0  0  0  0  0  0  0999 V2000
   47.4744    2.1195    6.7376 C   0  0  0  0  0  0  0  0  0  0  0  0
   47.3211    0.8051    6.9824 O   0  0  0  0  0  0  0  0  0  0  0  0
   48.5601    2.5758    6.4221 O   0  0  0  0  0  0  0  0  0  0  0  0
   44.4537    4.3375   10.0447 C   0  0  0  0  0  0  0  0  0  0  0  0
   46.2039    2.8966    6.9198 C   0  0  0  0  0  0  0  0  0  0  0  0
   45.9711    3.2069    8.3927 C   0  0  0  0  0  0  0  0  0  0  0  0
   44.6955    4.0260    8.5894 C   0  0  0  0  0  0  0  0  0  0  0  0
   43.7080    3.4615   10.8447 C   0  0  0  0  0  0  0  0  0  0  0  0
   44.9960    5.4926   10.6236 C   0  0  0  0  0  0  0  0  0  0  0  0
   44.7861    5.7715   11.9752 C   0  0  0  0  0  0  0  0  0  0  0  0
   43.4993    3.7422   12.1959 C   0  0  0  0  0  0  0  0  0  0  0  0
   44.0372    4.8972   12.7605 C   0  0  0  0  0  0  0  0  0  0  0  0
   48.2167    0.4310    6.8446 H   0  0  0  0  0  0  0  0  0  0  0  0
   46.2847    3.8190    6.3332 H   0  0  0  0  0  0  0  0  0  0  0  0
   45.3727    2.3241    6.4929 H   0  0  0  0  0  0  0  0  0  0  0  0
   46.8353    3.7513    8.7955 H   0  0  0  0  0  0  0  0  0  0  0  0
   45.9086    2.2710    8.9631 H   0  0  0  0  0  0  0  0  0  0  0  0
   43.8314    3.4840    8.1846 H   0  0  0  0  0  0  0  0  0  0  0  0
   44.7558    4.9635    8.0221 H   0  0  0  0  0  0  0  0  0  0  0  0
   43.2857    2.5539   10.4196 H   0  0  0  0  0  0  0  0  0  0  0  0
   45.5866    6.1821   10.0247 H   0  0  0  0  0  0  0  0  0  0  0  0
   45.2089    6.6707   12.4155 H   0  0  0  0  0  0  0  0  0  0  0  0
   42.9179    3.0583   12.8086 H   0  0  0  0  0  0  0  0  0  0  0  0
   43.8749    5.1147   13.8127 H   0  0  0  0  0  0  0  0  0  0  0  0
  2  1  1  0
  3  1  2  0
  4  7  1  0
  5  1  1  0
  6  5  1  0
  7  6  1  0
  8  4  2  0
  9  4  1  0
 10  9  2  0
 11  8  1  0
 12 11  2  0
 12 10  1  0
  2 13  1  0
  5 14  1  0
  5 15  1  0
  6 16  1  0
  6 17  1  0
  7 18  1  0
  7 19  1  0
  8 20  1  0
  9 21  1  0
 10 22  1  0
 11 23  1  0
 12 24  1  0
M  END
> <Uni-Dock RESULT> 
ENERGY=   -5.273  LOWER_BOUND=    3.410  UPPER_BOUND=    5.960
INTER + INTRA:          -5.273
INTER:                  -5.273
INTRA:                   0.000
UNBOUND:                 0.000

$$$$

     RDKit          3D

 24 24  0  0  0  0  0  0  0  0999 V2000
   46.5512    8.6242   12.8780 C   0  0  0  0  0  0  0  0  0  0  0  0
   47.4794    9.1049   12.0303 O   0  0  0  0  0  0  0  0  0  0  0  0
   46.7618    8.5787   14.0780 O   0  0  0  0  0  0  0  0  0  0  0  0
   44.4153    4.8772   10.3522 C   0  0  0  0  0  0  0  0  0  0  0  0
   45.3086    8.1601   12.1767 C   0  0  0  0  0  0  0  0  0  0  0  0
   45.5033    6.7600   11.6096 C   0  0  0  0  0  0  0  0  0  0  0  0
   44.2334    6.2624   10.9194 C   0  0  0  0  0  0  0  0  0  0  0  0
   44.8871    4.7010    9.0445 C   0  0  0  0  0  0  0  0  0  0  0  0
   44.1425    3.7475   11.1349 C   0  0  0  0  0  0  0  0  0  0  0  0
   44.3277    2.4654   10.6147 C   0  0  0  0  0  0  0  0  0  0  0  0
   45.0715    3.4182    8.5263 C   0  0  0  0  0  0  0  0  0  0  0  0
   44.7908    2.3011    9.3107 C   0  0  0  0  0  0  0  0  0  0  0  0
   48.2291    9.3503   12.6123 H   0  0  0  0  0  0  0  0  0  0  0  0
   44.4852    8.1788   12.9000 H   0  0  0  0  0  0  0  0  0  0  0  0
   45.0536    8.8806   11.3912 H   0  0  0  0  0  0  0  0  0  0  0  0
   45.7888    6.0723   12.4164 H   0  0  0  0  0  0  0  0  0  0  0  0
   46.3411    6.7609   10.9002 H   0  0  0  0  0  0  0  0  0  0  0  0
   43.9454    6.9505   10.1145 H   0  0  0  0  0  0  0  0  0  0  0  0
   43.3943    6.2583   11.6267 H   0  0  0  0  0  0  0  0  0  0  0  0
   45.1148    5.5631    8.4218 H   0  0  0  0  0  0  0  0  0  0  0  0
   43.7850    3.8597   12.1559 H   0  0  0  0  0  0  0  0  0  0  0  0
   44.1119    1.5948   11.2284 H   0  0  0  0  0  0  0  0  0  0  0  0
   45.4358    3.2908    7.5103 H   0  0  0  0  0  0  0  0  0  0  0  0
   44.9353    1.3027    8.9068 H   0  0  0  0  0  0  0  0  0  0  0  0
  2  1  1  0
  3  1  2  0
  4  7  1  0
  5  1  1  0
  6  5  1  0
  7  6  1  0
  8  4  2  0
  9  4  1  0
 10  9  2  0
 11  8  1  0
 12 11  2  0
 12 10  1  0
  2 13  1  0
  5 14  1  0
  5 15  1  0
  6 16  1  0
  6 17  1  0
  7 18  1  0
  7 19  1  0
  8 20  1  0
  9 21  1  0
 10 22  1  0
 11 23  1  0
 12 24  1  0
M  END
> <Uni-Dock RESULT> 
ENERGY=   -4.010  LOWER_BOUND=    2.660  UPPER_BOUND=    3.863
INTER + INTRA:          -4.010
INTER:                  -4.010
INTRA:                   0.000
UNBOUND:                 0.000

$$$$

     RDKit          3D

 24 24  0  0  0  0  0  0  0  0999 V2000
   47.7869    7.3702   13.6791 C   0  0  0  0  0  0  0  0  0  0  0  0
   48.8452    7.8007   12.9680 O   0  0  0  0  0  0  0  0  0  0  0  0
   47.9160    7.0009   14.8338 O   0  0  0  0  0  0  0  0  0  0  0  0
   44.9892    4.9183   10.3409 C   0  0  0  0  0  0  0  0  0  0  0  0
   46.5110    7.3865   12.8898 C   0  0  0  0  0  0  0  0  0  0  0  0
   46.4100    6.1495   12.0069 C   0  0  0  0  0  0  0  0  0  0  0  0
   45.0993    6.1381   11.2205 C   0  0  0  0  0  0  0  0  0  0  0  0
   45.4784    4.9423    9.0280 C   0  0  0  0  0  0  0  0  0  0  0  0
   44.4226    3.7355   10.8342 C   0  0  0  0  0  0  0  0  0  0  0  0
   44.3369    2.6015   10.0248 C   0  0  0  0  0  0  0  0  0  0  0  0
   45.3916    3.8073    8.2204 C   0  0  0  0  0  0  0  0  0  0  0  0
   44.8202    2.6379    8.7183 C   0  0  0  0  0  0  0  0  0  0  0  0
   49.5985    7.7216   13.5903 H   0  0  0  0  0  0  0  0  0  0  0  0
   45.6757    7.4314   13.5982 H   0  0  0  0  0  0  0  0  0  0  0  0
   46.4710    8.3079   12.2978 H   0  0  0  0  0  0  0  0  0  0  0  0
   46.4859    5.2469   12.6273 H   0  0  0  0  0  0  0  0  0  0  0  0
   47.2629    6.1165   11.3166 H   0  0  0  0  0  0  0  0  0  0  0  0
   45.0209    7.0412   10.6020 H   0  0  0  0  0  0  0  0  0  0  0  0
   44.2444    6.1688   11.9080 H   0  0  0  0  0  0  0  0  0  0  0  0
   45.9312    5.8461    8.6268 H   0  0  0  0  0  0  0  0  0  0  0  0
   44.0454    3.6902   11.8533 H   0  0  0  0  0  0  0  0  0  0  0  0
   43.8942    1.6888   10.4151 H   0  0  0  0  0  0  0  0  0  0  0  0
   45.7716    3.8354    7.2026 H   0  0  0  0  0  0  0  0  0  0  0  0
   44.7536    1.7544    8.0891 H   0  0  0  0  0  0  0  0  0  0  0  0
  2  1  1  0
  3  1  2  0
  4  7  1  0
  5  1  1  0
  6  5  1  0
  7  6  1  0
  8  4  2  0
  9  4  1  0
 10  9  2  0
 11  8  1  0
 12 11  2  0
 12 10  1  0
  2 13  1  0
  5 14  1  0
  5 15  1  0
  6 16  1  0
  6 17  1  0
  7 18  1  0
  7 19  1  0
  8 20  1  0
  9 21  1  0
 10 22  1  0
 11 23  1  0
 12 24  1  0
M  END
> <Uni-Dock RESULT> 
ENERGY=   -3.973  LOWER_BOUND=    2.779  UPPER_BOUND=    3.850
INTER + INTRA:          -3.973
INTER:                  -3.973
INTRA:                   0.000
UNBOUND:                 0.000

$$$$

     RDKit          3D

 24 24  0  0  0  0  0  0  0  0999 V2000
   47.4214    3.9248   17.5410 C   0  0  0  0  0  0  0  0  0  0  0  0
   47.2162    2.6257   17.8260 O   0  0  0  0  0  0  0  0  0  0  0  0
   47.3230    4.7792   18.4052 O   0  0  0  0  0  0  0  0  0  0  0  0
   45.5328    4.4796   12.9467 C   0  0  0  0  0  0  0  0  0  0  0  0
   47.7447    4.1584   16.0946 C   0  0  0  0  0  0  0  0  0  0  0  0
   46.4724    4.1846   15.2576 C   0  0  0  0  0  0  0  0  0  0  0  0
   46.7854    4.4534   13.7857 C   0  0  0  0  0  0  0  0  0  0  0  0
   45.0441    3.3035   12.3623 C   0  0  0  0  0  0  0  0  0  0  0  0
   44.8248    5.6750   12.7642 C   0  0  0  0  0  0  0  0  0  0  0  0
   43.6558    5.6950   12.0017 C   0  0  0  0  0  0  0  0  0  0  0  0
   43.8750    3.3257   11.6002 C   0  0  0  0  0  0  0  0  0  0  0  0
   43.1819    4.5210   11.4191 C   0  0  0  0  0  0  0  0  0  0  0  0
   47.0015    2.6226   18.7825 H   0  0  0  0  0  0  0  0  0  0  0  0
   48.2836    5.1098   16.0180 H   0  0  0  0  0  0  0  0  0  0  0  0
   48.4344    3.3779   15.7540 H   0  0  0  0  0  0  0  0  0  0  0  0
   45.7921    4.9541   15.6455 H   0  0  0  0  0  0  0  0  0  0  0  0
   45.9414    3.2294   15.3607 H   0  0  0  0  0  0  0  0  0  0  0  0
   47.4677    3.6865   13.3975 H   0  0  0  0  0  0  0  0  0  0  0  0
   47.3144    5.4090   13.6790 H   0  0  0  0  0  0  0  0  0  0  0  0
   45.5714    2.3621   12.4985 H   0  0  0  0  0  0  0  0  0  0  0  0
   45.1796    6.5983   13.2165 H   0  0  0  0  0  0  0  0  0  0  0  0
   43.1140    6.6270   11.8639 H   0  0  0  0  0  0  0  0  0  0  0  0
   43.5042    2.4092   11.1488 H   0  0  0  0  0  0  0  0  0  0  0  0
   42.2714    4.5374   10.8262 H   0  0  0  0  0  0  0  0  0  0  0  0
  2  1  1  0
  3  1  2  0
  4  7  1  0
  5  1  1  0
  6  5  1  0
  7  6  1  0
  8  4  2  0
  9  4  1  0
 10  9  2  0
 11  8  1  0
 12 11  2  0
 12 10  1  0
  2 13  1  0
  5 14  1  0
  5 15  1  0
  6 16  1  0
  6 17  1  0
  7 18  1  0
  7 19  1  0
  8 20  1  0
  9 21  1  0
 10 22  1  0
 11 23  1  0
 12 24  1  0
M  END
> <Uni-Dock RESULT> 
ENERGY=   -3.715  LOWER_BOUND=    4.714  UPPER_BOUND=    6.263
INTER + INTRA:          -3.715
INTER:                  -3.715
INTRA:                   0.000
UNBOUND:                 0.000

$$$$

     RDKit          3D

 24 24  0  0  0  0  0  0  0  0999 V2000
   49.4417    7.8341   11.8920 C   0  0  0  0  0  0  0  0  0  0  0  0
   48.9575    9.0120   11.4569 O   0  0  0  0  0  0  0  0  0  0  0  0
   50.4490    7.3516   11.4032 O   0  0  0  0  0  0  0  0  0  0  0  0
   45.3587    5.1377   12.9118 C   0  0  0  0  0  0  0  0  0  0  0  0
   48.6042    7.2273   12.9790 C   0  0  0  0  0  0  0  0  0  0  0  0
   47.4002    6.5047   12.3890 C   0  0  0  0  0  0  0  0  0  0  0  0
   46.5551    5.8547   13.4844 C   0  0  0  0  0  0  0  0  0  0  0  0
   44.1440    5.8130   12.7325 C   0  0  0  0  0  0  0  0  0  0  0  0
   45.4537    3.7944   12.5244 C   0  0  0  0  0  0  0  0  0  0  0  0
   44.3505    3.1363   11.9783 C   0  0  0  0  0  0  0  0  0  0  0  0
   43.0421    5.1531   12.1863 C   0  0  0  0  0  0  0  0  0  0  0  0
   43.1451    3.8151   11.8105 C   0  0  0  0  0  0  0  0  0  0  0  0
   49.5815    9.2796   10.7499 H   0  0  0  0  0  0  0  0  0  0  0  0
   49.2368    6.5353   13.5469 H   0  0  0  0  0  0  0  0  0  0  0  0
   48.2984    8.0169   13.6747 H   0  0  0  0  0  0  0  0  0  0  0  0
   47.7410    5.7444   11.6740 H   0  0  0  0  0  0  0  0  0  0  0  0
   46.7895    7.2118   11.8128 H   0  0  0  0  0  0  0  0  0  0  0  0
   46.2162    6.6133   14.2014 H   0  0  0  0  0  0  0  0  0  0  0  0
   47.1624    5.1454   14.0611 H   0  0  0  0  0  0  0  0  0  0  0  0
   44.0496    6.8586   13.0166 H   0  0  0  0  0  0  0  0  0  0  0  0
   46.3891    3.2527   12.6448 H   0  0  0  0  0  0  0  0  0  0  0  0
   44.4327    2.0938   11.6823 H   0  0  0  0  0  0  0  0  0  0  0  0
   42.1033    5.6840   12.0526 H   0  0  0  0  0  0  0  0  0  0  0  0
   42.2870    3.3022   11.3847 H   0  0  0  0  0  0  0  0  0  0  0  0
  2  1  1  0
  3  1  2  0
  4  7  1  0
  5  1  1  0
  6  5  1  0
  7  6  1  0
  8  4  2  0
  9  4  1  0
 10  9  2  0
 11  8  1  0
 12 11  2  0
 12 10  1  0
  2 13  1  0
  5 14  1  0
  5 15  1  0
  6 16  1  0
  6 17  1  0
  7 18  1  0
  7 19  1  0
  8 20  1  0
  9 21  1  0
 10 22  1  0
 11 23  1  0
 12 24  1  0
M  END
> <Uni-Dock RESULT> 
ENERGY=   -3.624  LOWER_BOUND=    4.746  UPPER_BOUND=    6.036
INTER + INTRA:          -3.624
INTER:                  -3.624
INTRA:                   0.000
UNBOUND:                 0.000

$$$$

     RDKit          3D

 24 24  0  0  0  0  0  0  0  0999 V2000
   42.9809    5.4115   11.6901 C   0  0  0  0  0  0  0  0  0  0  0  0
   43.2826    4.6194   10.6447 O   0  0  0  0  0  0  0  0  0  0  0  0
   41.9024    5.9761   11.7579 O   0  0  0  0  0  0  0  0  0  0  0  0
   47.3011    7.6673   12.7988 C   0  0  0  0  0  0  0  0  0  0  0  0
   44.0998    5.5125   12.6846 C   0  0  0  0  0  0  0  0  0  0  0  0
   45.1368    6.5289   12.2247 C   0  0  0  0  0  0  0  0  0  0  0  0
   46.2671    6.6646   13.2448 C   0  0  0  0  0  0  0  0  0  0  0  0
   48.3957    7.2623   12.0233 C   0  0  0  0  0  0  0  0  0  0  0  0
   47.1658    9.0222   13.1294 C   0  0  0  0  0  0  0  0  0  0  0  0
   48.1144    9.9525   12.7014 C   0  0  0  0  0  0  0  0  0  0  0  0
   49.3431    8.1941   11.5964 C   0  0  0  0  0  0  0  0  0  0  0  0
   49.2030    9.5383   11.9363 C   0  0  0  0  0  0  0  0  0  0  0  0
   42.4838    4.6586   10.0778 H   0  0  0  0  0  0  0  0  0  0  0  0
   43.6689    5.8020   13.6500 H   0  0  0  0  0  0  0  0  0  0  0  0
   44.5430    4.5198   12.8229 H   0  0  0  0  0  0  0  0  0  0  0  0
   44.6535    7.5017   12.0650 H   0  0  0  0  0  0  0  0  0  0  0  0
   45.5437    6.2280   11.2505 H   0  0  0  0  0  0  0  0  0  0  0  0
   46.7491    5.6923   13.4074 H   0  0  0  0  0  0  0  0  0  0  0  0
   45.8636    6.9675   14.2195 H   0  0  0  0  0  0  0  0  0  0  0  0
   48.5161    6.2175   11.7461 H   0  0  0  0  0  0  0  0  0  0  0  0
   46.3192    9.3614   13.7219 H   0  0  0  0  0  0  0  0  0  0  0  0
   48.0025   11.0012   12.9640 H   0  0  0  0  0  0  0  0  0  0  0  0
   50.1901    7.8710   10.9970 H   0  0  0  0  0  0  0  0  0  0  0  0
   49.9406   10.2633   11.6030 H   0  0  0  0  0  0  0  0  0  0  0  0
  2  1  1  0
  3  1  2  0
  4  7  1  0
  5  1  1  0
  6  5  1  0
  7  6  1  0
  8  4  2  0
  9  4  1  0
 10  9  2  0
 11  8  1  0
 12 11  2  0
 12 10  1  0
  2 13  1  0
  5 14  1  0
  5 15  1  0
  6 16  1  0
  6 17  1  0
  7 18  1  0
  7 19  1  0
  8 20  1  0
  9 21  1  0
 10 22  1  0
 11 23  1  0
 12 24  1  0
M  END
> <Uni-Dock RESULT> 
ENERGY=   -3.537  LOWER_BOUND=    4.906  UPPER_BOUND=    6.324
INTER + INTRA:          -3.537
INTER:                  -3.537
INTRA:                   0.000
UNBOUND:                 0.000

$$$$

     RDKit          3D

 24 24  0  0  0  0  0  0  0  0999 V2000
   43.8283   11.2892    7.6728 C   0  0  0  0  0  0  0  0  0  0  0  0
   44.3164   12.5359    7.8101 O   0  0  0  0  0  0  0  0  0  0  0  0
   43.5970   10.8247    6.5696 O   0  0  0  0  0  0  0  0  0  0  0  0
   40.7150   10.7637   11.5474 C   0  0  0  0  0  0  0  0  0  0  0  0
   43.6019   10.6056    8.9891 C   0  0  0  0  0  0  0  0  0  0  0  0
   42.2793   11.0466    9.6026 C   0  0  0  0  0  0  0  0  0  0  0  0
   42.0213   10.3332   10.9297 C   0  0  0  0  0  0  0  0  0  0  0  0
   40.6685   11.8581   12.4213 C   0  0  0  0  0  0  0  0  0  0  0  0
   39.5254   10.0932   11.2332 C   0  0  0  0  0  0  0  0  0  0  0  0
   38.3138   10.5032   11.7922 C   0  0  0  0  0  0  0  0  0  0  0  0
   39.4560   12.2665   12.9792 C   0  0  0  0  0  0  0  0  0  0  0  0
   38.2796   11.5886   12.6655 C   0  0  0  0  0  0  0  0  0  0  0  0
   44.3973   12.8628    6.8895 H   0  0  0  0  0  0  0  0  0  0  0  0
   43.6110    9.5235    8.8140 H   0  0  0  0  0  0  0  0  0  0  0  0
   44.4461   10.8239    9.6529 H   0  0  0  0  0  0  0  0  0  0  0  0
   41.4611   10.8432    8.8993 H   0  0  0  0  0  0  0  0  0  0  0  0
   42.2860   12.1336    9.7551 H   0  0  0  0  0  0  0  0  0  0  0  0
   42.8400   10.5334   11.6325 H   0  0  0  0  0  0  0  0  0  0  0  0
   42.0119    9.2460   10.7801 H   0  0  0  0  0  0  0  0  0  0  0  0
   41.5776   12.4000   12.6720 H   0  0  0  0  0  0  0  0  0  0  0  0
   39.5355    9.2473   10.5497 H   0  0  0  0  0  0  0  0  0  0  0  0
   37.3962    9.9762   11.5443 H   0  0  0  0  0  0  0  0  0  0  0  0
   39.4295   13.1151   13.6576 H   0  0  0  0  0  0  0  0  0  0  0  0
   37.3358   11.9076   13.0997 H   0  0  0  0  0  0  0  0  0  0  0  0
  2  1  1  0
  3  1  2  0
  4  7  1  0
  5  1  1  0
  6  5  1  0
  7  6  1  0
  8  4  2  0
  9  4  1  0
 10  9  2  0
 11  8  1  0
 12 11  2  0
 12 10  1  0
  2 13  1  0
  5 14  1  0
  5 15  1  0
  6 16  1  0
  6 17  1  0
  7 18  1  0
  7 19  1  0
  8 20  1  0
  9 21  1  0
 10 22  1  0
 11 23  1  0
 12 24  1  0
M  END
> <Uni-Dock RESULT> 
ENERGY=   -3.531  LOWER_BOUND=    8.111  UPPER_BOUND=   10.360
INTER + INTRA:          -3.531
INTER:                  -3.531
INTRA:                   0.000
UNBOUND:                 0.000

$$$$

     RDKit          3D

 24 24  0  0  0  0  0  0  0  0999 V2000
   44.1402    3.2247   11.4928 C   0  0  0  0  0  0  0  0  0  0  0  0
   44.8781    2.5891   10.5640 O   0  0  0  0  0  0  0  0  0  0  0  0
   42.9282    3.3017   11.3853 O   0  0  0  0  0  0  0  0  0  0  0  0
   46.9933    7.0844   12.8869 C   0  0  0  0  0  0  0  0  0  0  0  0
   44.9723    3.8079   12.5967 C   0  0  0  0  0  0  0  0  0  0  0  0
   45.5700    5.1425   12.1708 C   0  0  0  0  0  0  0  0  0  0  0  0
   46.3948    5.7630   13.2982 C   0  0  0  0  0  0  0  0  0  0  0  0
   48.2563    7.1351   12.2819 C   0  0  0  0  0  0  0  0  0  0  0  0
   46.2822    8.2766   13.0777 C   0  0  0  0  0  0  0  0  0  0  0  0
   46.8297    9.4977   12.6809 C   0  0  0  0  0  0  0  0  0  0  0  0
   48.8020    8.3571   11.8859 C   0  0  0  0  0  0  0  0  0  0  0  0
   48.0894    9.5379   12.0863 C   0  0  0  0  0  0  0  0  0  0  0  0
   44.2194    2.2792    9.9075 H   0  0  0  0  0  0  0  0  0  0  0  0
   44.3297    3.9294   13.4764 H   0  0  0  0  0  0  0  0  0  0  0  0
   45.7511    3.0881   12.8731 H   0  0  0  0  0  0  0  0  0  0  0  0
   44.7659    5.8271   11.8704 H   0  0  0  0  0  0  0  0  0  0  0  0
   46.1966    5.0006   11.2807 H   0  0  0  0  0  0  0  0  0  0  0  0
   47.1972    5.0784   13.6013 H   0  0  0  0  0  0  0  0  0  0  0  0
   45.7705    5.9083   14.1890 H   0  0  0  0  0  0  0  0  0  0  0  0
   48.8224    6.2216   12.1147 H   0  0  0  0  0  0  0  0  0  0  0  0
   45.2960    8.2608   13.5361 H   0  0  0  0  0  0  0  0  0  0  0  0
   46.2719   10.4178   12.8344 H   0  0  0  0  0  0  0  0  0  0  0  0
   49.7830    8.3874   11.4192 H   0  0  0  0  0  0  0  0  0  0  0  0
   48.5146   10.4889   11.7770 H   0  0  0  0  0  0  0  0  0  0  0  0
  2  1  1  0
  3  1  2  0
  4  7  1  0
  5  1  1  0
  6  5  1  0
  7  6  1  0
  8  4  2  0
  9  4  1  0
 10  9  2  0
 11  8  1  0
 12 11  2  0
 12 10  1  0
  2 13  1  0
  5 14  1  0
  5 15  1  0
  6 16  1  0
  6 17  1  0
  7 18  1  0
  7 19  1  0
  8 20  1  0
  9 21  1  0
 10 22  1  0
 11 23  1  0
 12 24  1  0
M  END
> <Uni-Dock RESULT> 
ENERGY=   -3.469  LOWER_BOUND=    3.978  UPPER_BOUND=    6.186
INTER + INTRA:          -3.469
INTER:                  -3.469
INTRA:                   0.000
UNBOUND:                 0.000

$$$$
