
     RDKit          3D

 24 24  0  0  0  0  0  0  0  0999 V2000
   45.4882    4.4169   12.3436 C   0  0  0  0  0  0  0  0  0  0  0  0
   46.0144    3.7231   13.3725 O   0  0  0  0  0  0  0  0  0  0  0  0
   45.2423    5.6049   12.4599 O   0  0  0  0  0  0  0  0  0  0  0  0
   45.5005    2.9009    8.0827 C   0  0  0  0  0  0  0  0  0  0  0  0
   45.2762    3.5493   11.1331 C   0  0  0  0  0  0  0  0  0  0  0  0
   44.6162    4.3288    9.9947 C   0  0  0  0  0  0  0  0  0  0  0  0
   44.2838    3.4516    8.7842 C   0  0  0  0  0  0  0  0  0  0  0  0
   45.8186    1.5389    8.1712 C   0  0  0  0  0  0  0  0  0  0  0  0
   46.3343    3.7452    7.3367 C   0  0  0  0  0  0  0  0  0  0  0  0
   47.4650    3.2376    6.6949 C   0  0  0  0  0  0  0  0  0  0  0  0
   46.9500    1.0331    7.5287 C   0  0  0  0  0  0  0  0  0  0  0  0
   47.7729    1.8821    6.7915 C   0  0  0  0  0  0  0  0  0  0  0  0
   46.1104    4.3907   14.0836 H   0  0  0  0  0  0  0  0  0  0  0  0
   44.6380    2.7076   11.4241 H   0  0  0  0  0  0  0  0  0  0  0  0
   46.2537    3.1682   10.8197 H   0  0  0  0  0  0  0  0  0  0  0  0
   45.2618    5.1648    9.6970 H   0  0  0  0  0  0  0  0  0  0  0  0
   43.6834    4.7774   10.3601 H   0  0  0  0  0  0  0  0  0  0  0  0
   43.7080    4.0415    8.0594 H   0  0  0  0  0  0  0  0  0  0  0  0
   43.6223    2.6324    9.0931 H   0  0  0  0  0  0  0  0  0  0  0  0
   45.1884    0.8617    8.7431 H   0  0  0  0  0  0  0  0  0  0  0  0
   46.1064    4.8054    7.2503 H   0  0  0  0  0  0  0  0  0  0  0  0
   48.1053    3.9005    6.1189 H   0  0  0  0  0  0  0  0  0  0  0  0
   47.1890   -0.0244    7.6036 H   0  0  0  0  0  0  0  0  0  0  0  0
   48.6531    1.4874    6.2913 H   0  0  0  0  0  0  0  0  0  0  0  0
  2  1  1  0
  3  1  2  0
  4  7  1  0
  5  1  1  0
  6  5  1  0
  7  6  1  0
  8  4  2  0
  9  4  1  0
 10  9  2  0
 11  8  1  0
 12 11  2  0
 12 10  1  0
  2 13  1  0
  5 14  1  0
  5 15  1  0
  6 16  1  0
  6 17  1  0
  7 18  1  0
  7 19  1  0
  8 20  1  0
  9 21  1  0
 10 22  1  0
 11 23  1  0
 12 24  1  0
M  END
> <Uni-Dock RESULT> 
ENERGY=   -5.559  LOWER_BOUND=    0.000  UPPER_BOUND=    0.000
INTER + INTRA:          -5.559
INTER:                  -5.559
INTRA:                   0.000
UNBOUND:                 0.000

$$$$

     RDKit          3D

 24 24  0  0  0  0  0  0  0  0999 V2000
   46.6298    3.0608    7.1281 C   0  0  0  0  0  0  0  0  0  0  0  0
   46.8023    4.0601    6.2401 O   0  0  0  0  0  0  0  0  0  0  0  0
   47.3326    2.0660    7.0843 O   0  0  0  0  0  0  0  0  0  0  0  0
   44.2838    3.5463   10.9640 C   0  0  0  0  0  0  0  0  0  0  0  0
   45.5191    3.3587    8.0979 C   0  0  0  0  0  0  0  0  0  0  0  0
   45.2860    2.1908    9.0574 C   0  0  0  0  0  0  0  0  0  0  0  0
   44.0902    2.4120    9.9884 C   0  0  0  0  0  0  0  0  0  0  0  0
   43.5693    4.7429   10.8165 C   0  0  0  0  0  0  0  0  0  0  0  0
   45.1861    3.4219   12.0293 C   0  0  0  0  0  0  0  0  0  0  0  0
   45.3721    4.4744   12.9269 C   0  0  0  0  0  0  0  0  0  0  0  0
   43.7566    5.7945   11.7152 C   0  0  0  0  0  0  0  0  0  0  0  0
   44.6579    5.6604   12.7694 C   0  0  0  0  0  0  0  0  0  0  0  0
   47.5462    3.7536    5.6804 H   0  0  0  0  0  0  0  0  0  0  0  0
   44.6070    3.5531    7.5228 H   0  0  0  0  0  0  0  0  0  0  0  0
   45.7935    4.2615    8.6533 H   0  0  0  0  0  0  0  0  0  0  0  0
   46.1968    2.0046    9.6404 H   0  0  0  0  0  0  0  0  0  0  0  0
   45.1033    1.2784    8.4751 H   0  0  0  0  0  0  0  0  0  0  0  0
   43.9058    1.4945   10.5619 H   0  0  0  0  0  0  0  0  0  0  0  0
   43.1841    2.5769    9.3919 H   0  0  0  0  0  0  0  0  0  0  0  0
   42.8624    4.8656    9.9991 H   0  0  0  0  0  0  0  0  0  0  0  0
   45.7498    2.5017   12.1667 H   0  0  0  0  0  0  0  0  0  0  0  0
   46.0741    4.3681   13.7497 H   0  0  0  0  0  0  0  0  0  0  0  0
   43.1985    6.7189   11.5925 H   0  0  0  0  0  0  0  0  0  0  0  0
   44.8027    6.4794   13.4688 H   0  0  0  0  0  0  0  0  0  0  0  0
  2  1  1  0
  3  1  2  0
  4  7  1  0
  5  1  1  0
  6  5  1  0
  7  6  1  0
  8  4  2  0
  9  4  1  0
 10  9  2  0
 11  8  1  0
 12 11  2  0
 12 10  1  0
  2 13  1  0
  5 14  1  0
  5 15  1  0
  6 16  1  0
  6 17  1  0
  7 18  1  0
  7 19  1  0
  8 20  1  0
  9 21  1  0
 10 22  1  0
 11 23  1  0
 12 24  1  0
M  END
> <Uni-Dock RESULT> 
ENERGY=   -4.642  LOWER_BOUND=    2.947  UPPER_BOUND=    5.449
INTER + INTRA:          -4.642
INTER:                  -4.642
INTRA:                   0.000
UNBOUND:                 0.000

$$$$

     RDKit          3D

 24 24  0  0  0  0  0  0  0  0999 V2000
   44.6043    2.7711    8.9875 C   0  0  0  0  0  0  0  0  0  0  0  0
   44.7419    3.3577    7.7818 O   0  0  0  0  0  0  0  0  0  0  0  0
   44.6421    1.5575    9.0930 O   0  0  0  0  0  0  0  0  0  0  0  0
   45.0346    5.0186   12.8885 C   0  0  0  0  0  0  0  0  0  0  0  0
   44.4138    3.7829   10.0843 C   0  0  0  0  0  0  0  0  0  0  0  0
   44.1904    3.1058   11.4374 C   0  0  0  0  0  0  0  0  0  0  0  0
   43.8829    4.1013   12.5599 C   0  0  0  0  0  0  0  0  0  0  0  0
   44.9844    6.3764   12.5453 C   0  0  0  0  0  0  0  0  0  0  0  0
   46.1749    4.5244   13.5368 C   0  0  0  0  0  0  0  0  0  0  0  0
   47.2443    5.3710   13.8329 C   0  0  0  0  0  0  0  0  0  0  0  0
   46.0550    7.2216   12.8422 C   0  0  0  0  0  0  0  0  0  0  0  0
   47.1845    6.7189   13.4851 C   0  0  0  0  0  0  0  0  0  0  0  0
   44.8657    2.6058    7.1655 H   0  0  0  0  0  0  0  0  0  0  0  0
   43.5449    4.4006    9.8315 H   0  0  0  0  0  0  0  0  0  0  0  0
   45.3075    4.4146   10.1152 H   0  0  0  0  0  0  0  0  0  0  0  0
   45.0661    2.4965   11.6942 H   0  0  0  0  0  0  0  0  0  0  0  0
   43.3460    2.4093   11.3555 H   0  0  0  0  0  0  0  0  0  0  0  0
   43.6159    3.5474   13.4692 H   0  0  0  0  0  0  0  0  0  0  0  0
   42.9941    4.6891   12.2982 H   0  0  0  0  0  0  0  0  0  0  0  0
   44.1114    6.7859   12.0422 H   0  0  0  0  0  0  0  0  0  0  0  0
   46.2360    3.4749   13.8163 H   0  0  0  0  0  0  0  0  0  0  0  0
   48.1240    4.9782   14.3357 H   0  0  0  0  0  0  0  0  0  0  0  0
   46.0073    8.2731   12.5716 H   0  0  0  0  0  0  0  0  0  0  0  0
   48.0172    7.3777   13.7162 H   0  0  0  0  0  0  0  0  0  0  0  0
  2  1  1  0
  3  1  2  0
  4  7  1  0
  5  1  1  0
  6  5  1  0
  7  6  1  0
  8  4  2  0
  9  4  1  0
 10  9  2  0
 11  8  1  0
 12 11  2  0
 12 10  1  0
  2 13  1  0
  5 14  1  0
  5 15  1  0
  6 16  1  0
  6 17  1  0
  7 18  1  0
  7 19  1  0
  8 20  1  0
  9 21  1  0
 10 22  1  0
 11 23  1  0
 12 24  1  0
M  END
> <Uni-Dock RESULT> 
ENERGY=   -4.344  LOWER_BOUND=    2.990  UPPER_BOUND=    5.758
INTER + INTRA:          -4.344
INTER:                  -4.344
INTRA:                   0.000
UNBOUND:                 0.000

$$$$

     RDKit          3D

 24 24  0  0  0  0  0  0  0  0999 V2000
   47.1231    4.9684   14.3192 C   0  0  0  0  0  0  0  0  0  0  0  0
   47.4895    6.1193   13.7209 O   0  0  0  0  0  0  0  0  0  0  0  0
   46.3470    4.2056   13.7705 O   0  0  0  0  0  0  0  0  0  0  0  0
   49.3637    3.1853   17.8198 C   0  0  0  0  0  0  0  0  0  0  0  0
   47.7798    4.8015   15.6624 C   0  0  0  0  0  0  0  0  0  0  0  0
   47.3055    3.5271   16.3625 C   0  0  0  0  0  0  0  0  0  0  0  0
   47.8682    3.3792   17.7792 C   0  0  0  0  0  0  0  0  0  0  0  0
   50.2022    4.2065   18.2865 C   0  0  0  0  0  0  0  0  0  0  0  0
   49.9369    1.9822   17.3854 C   0  0  0  0  0  0  0  0  0  0  0  0
   51.3212    1.8058   17.4145 C   0  0  0  0  0  0  0  0  0  0  0  0
   51.5864    4.0283   18.3148 C   0  0  0  0  0  0  0  0  0  0  0  0
   52.1455    2.8289   17.8785 C   0  0  0  0  0  0  0  0  0  0  0  0
   47.0095    6.1051   12.8665 H   0  0  0  0  0  0  0  0  0  0  0  0
   47.5306    5.6751   16.2749 H   0  0  0  0  0  0  0  0  0  0  0  0
   48.8626    4.7706   15.5034 H   0  0  0  0  0  0  0  0  0  0  0  0
   47.5657    2.6525   15.7530 H   0  0  0  0  0  0  0  0  0  0  0  0
   46.2098    3.5398   16.4280 H   0  0  0  0  0  0  0  0  0  0  0  0
   47.3972    2.5149   18.2652 H   0  0  0  0  0  0  0  0  0  0  0  0
   47.5834    4.2507   18.3819 H   0  0  0  0  0  0  0  0  0  0  0  0
   49.7836    5.1497   18.6299 H   0  0  0  0  0  0  0  0  0  0  0  0
   49.3066    1.1735   17.0220 H   0  0  0  0  0  0  0  0  0  0  0  0
   51.7559    0.8693   17.0755 H   0  0  0  0  0  0  0  0  0  0  0  0
   52.2289    4.8263   18.6778 H   0  0  0  0  0  0  0  0  0  0  0  0
   53.2231    2.6909   17.9013 H   0  0  0  0  0  0  0  0  0  0  0  0
  2  1  1  0
  3  1  2  0
  4  7  1  0
  5  1  1  0
  6  5  1  0
  7  6  1  0
  8  4  2  0
  9  4  1  0
 10  9  2  0
 11  8  1  0
 12 11  2  0
 12 10  1  0
  2 13  1  0
  5 14  1  0
  5 15  1  0
  6 16  1  0
  6 17  1  0
  7 18  1  0
  7 19  1  0
  8 20  1  0
  9 21  1  0
 10 22  1  0
 11 23  1  0
 12 24  1  0
M  END
> <Uni-Dock RESULT> 
ENERGY=   -3.491  LOWER_BOUND=    6.188  UPPER_BOUND=    8.979
INTER + INTRA:          -3.491
INTER:                  -3.491
INTRA:                   0.000
UNBOUND:                 0.000

$$$$

     RDKit          3D

 24 24  0  0  0  0  0  0  0  0999 V2000
   43.1622    5.2850   12.6980 C   0  0  0  0  0  0  0  0  0  0  0  0
   42.7865    4.3131   13.5530 O   0  0  0  0  0  0  0  0  0  0  0  0
   42.3296    5.8942   12.0493 O   0  0  0  0  0  0  0  0  0  0  0  0
   47.2574    7.2023   12.7872 C   0  0  0  0  0  0  0  0  0  0  0  0
   44.6548    5.4727   12.6841 C   0  0  0  0  0  0  0  0  0  0  0  0
   45.0762    6.5293   11.6618 C   0  0  0  0  0  0  0  0  0  0  0  0
   46.5964    6.6698   11.5400 C   0  0  0  0  0  0  0  0  0  0  0  0
   48.0448    6.3653   13.5892 C   0  0  0  0  0  0  0  0  0  0  0  0
   47.0884    8.5414   13.1653 C   0  0  0  0  0  0  0  0  0  0  0  0
   47.6924    9.0321   14.3239 C   0  0  0  0  0  0  0  0  0  0  0  0
   48.6481    6.8578   14.7477 C   0  0  0  0  0  0  0  0  0  0  0  0
   48.4715    8.1902   15.1150 C   0  0  0  0  0  0  0  0  0  0  0  0
   41.8095    4.2958   13.4771 H   0  0  0  0  0  0  0  0  0  0  0  0
   45.1172    4.5112   12.4348 H   0  0  0  0  0  0  0  0  0  0  0  0
   44.9636    5.7701   13.6915 H   0  0  0  0  0  0  0  0  0  0  0  0
   44.6212    7.4941   11.9192 H   0  0  0  0  0  0  0  0  0  0  0  0
   44.6769    6.2555   10.6767 H   0  0  0  0  0  0  0  0  0  0  0  0
   46.8298    7.3505   10.7112 H   0  0  0  0  0  0  0  0  0  0  0  0
   47.0350    5.7029   11.2631 H   0  0  0  0  0  0  0  0  0  0  0  0
   48.1928    5.3223   13.3186 H   0  0  0  0  0  0  0  0  0  0  0  0
   46.4845    9.2115   12.5573 H   0  0  0  0  0  0  0  0  0  0  0  0
   47.5553   10.0719   14.6086 H   0  0  0  0  0  0  0  0  0  0  0  0
   49.2566    6.2010   15.3638 H   0  0  0  0  0  0  0  0  0  0  0  0
   48.9420    8.5729   16.0167 H   0  0  0  0  0  0  0  0  0  0  0  0
  2  1  1  0
  3  1  2  0
  4  7  1  0
  5  1  1  0
  6  5  1  0
  7  6  1  0
  8  4  2  0
  9  4  1  0
 10  9  2  0
 11  8  1  0
 12 11  2  0
 12 10  1  0
  2 13  1  0
  5 14  1  0
  5 15  1  0
  6 16  1  0
  6 17  1  0
  7 18  1  0
  7 19  1  0
  8 20  1  0
  9 21  1  0
 10 22  1  0
 11 23  1  0
 12 24  1  0
M  END
> <Uni-Dock RESULT> 
ENERGY=   -3.372  LOWER_BOUND=    4.784  UPPER_BOUND=    6.536
INTER + INTRA:          -3.372
INTER:                  -3.372
INTRA:                   0.000
UNBOUND:                 0.000

$$$$

     RDKit          3D

 24 24  0  0  0  0  0  0  0  0999 V2000
   47.7114    5.8339   22.7602 C   0  0  0  0  0  0  0  0  0  0  0  0
   46.8696    5.0860   23.5010 O   0  0  0  0  0  0  0  0  0  0  0  0
   48.5779    6.5035   23.2952 O   0  0  0  0  0  0  0  0  0  0  0  0
   48.2465    5.2662   18.3054 C   0  0  0  0  0  0  0  0  0  0  0  0
   47.4234    5.7103   21.2888 C   0  0  0  0  0  0  0  0  0  0  0  0
   48.3386    6.6146   20.4618 C   0  0  0  0  0  0  0  0  0  0  0  0
   48.0019    6.5993   18.9679 C   0  0  0  0  0  0  0  0  0  0  0  0
   47.1713    4.4646   17.8987 C   0  0  0  0  0  0  0  0  0  0  0  0
   49.5536    4.8070   18.0924 C   0  0  0  0  0  0  0  0  0  0  0  0
   49.7801    3.5697   17.4876 C   0  0  0  0  0  0  0  0  0  0  0  0
   47.3998    3.2274   17.2941 C   0  0  0  0  0  0  0  0  0  0  0  0
   48.7034    2.7801   17.0892 C   0  0  0  0  0  0  0  0  0  0  0  0
   47.1619    5.2437   24.4231 H   0  0  0  0  0  0  0  0  0  0  0  0
   46.3773    5.9896   21.1213 H   0  0  0  0  0  0  0  0  0  0  0  0
   47.5655    4.6618   21.0075 H   0  0  0  0  0  0  0  0  0  0  0  0
   49.3852    6.3263   20.6222 H   0  0  0  0  0  0  0  0  0  0  0  0
   48.2463    7.6467   20.8239 H   0  0  0  0  0  0  0  0  0  0  0  0
   48.6108    7.3542   18.4539 H   0  0  0  0  0  0  0  0  0  0  0  0
   46.9593    6.9085   18.8217 H   0  0  0  0  0  0  0  0  0  0  0  0
   46.1471    4.7972   18.0516 H   0  0  0  0  0  0  0  0  0  0  0  0
   50.4046    5.4126   18.3963 H   0  0  0  0  0  0  0  0  0  0  0  0
   50.7973    3.2225   17.3269 H   0  0  0  0  0  0  0  0  0  0  0  0
   46.5596    2.6124   16.9825 H   0  0  0  0  0  0  0  0  0  0  0  0
   48.8804    1.8170   16.6180 H   0  0  0  0  0  0  0  0  0  0  0  0
  2  1  1  0
  3  1  2  0
  4  7  1  0
  5  1  1  0
  6  5  1  0
  7  6  1  0
  8  4  2  0
  9  4  1  0
 10  9  2  0
 11  8  1  0
 12 11  2  0
 12 10  1  0
  2 13  1  0
  5 14  1  0
  5 15  1  0
  6 16  1  0
  6 17  1  0
  7 18  1  0
  7 19  1  0
  8 20  1  0
  9 21  1  0
 10 22  1  0
 11 23  1  0
 12 24  1  0
M  END
> <Uni-Dock RESULT> 
ENERGY=   -3.277  LOWER_BOUND=    9.306  UPPER_BOUND=   10.795
INTER + INTRA:          -3.277
INTER:                  -3.277
INTRA:                   0.000
UNBOUND:                 0.000

$$$$

     RDKit          3D

 24 24  0  0  0  0  0  0  0  0999 V2000
   48.8319   14.0253   20.8550 C   0  0  0  0  0  0  0  0  0  0  0  0
   49.5850   14.3274   21.9312 O   0  0  0  0  0  0  0  0  0  0  0  0
   48.8882   14.7102   19.8484 O   0  0  0  0  0  0  0  0  0  0  0  0
   46.8251   10.0110   20.2959 C   0  0  0  0  0  0  0  0  0  0  0  0
   47.9849   12.8042   21.0888 C   0  0  0  0  0  0  0  0  0  0  0  0
   47.0843   12.5097   19.8882 C   0  0  0  0  0  0  0  0  0  0  0  0
   46.1278   11.3387   20.1319 C   0  0  0  0  0  0  0  0  0  0  0  0
   46.8827    9.3863   21.5490 C   0  0  0  0  0  0  0  0  0  0  0  0
   47.4310    9.3855   19.1975 C   0  0  0  0  0  0  0  0  0  0  0  0
   48.0839    8.1615   19.3507 C   0  0  0  0  0  0  0  0  0  0  0  0
   47.5362    8.1621   21.7002 C   0  0  0  0  0  0  0  0  0  0  0  0
   48.1369    7.5504   20.6018 C   0  0  0  0  0  0  0  0  0  0  0  0
   50.0875   15.1216   21.6530 H   0  0  0  0  0  0  0  0  0  0  0  0
   47.3701   12.9806   21.9783 H   0  0  0  0  0  0  0  0  0  0  0  0
   48.6582   11.9618   21.2780 H   0  0  0  0  0  0  0  0  0  0  0  0
   47.7019   12.3223   19.0007 H   0  0  0  0  0  0  0  0  0  0  0  0
   46.4850   13.4010   19.6616 H   0  0  0  0  0  0  0  0  0  0  0  0
   45.4334   11.2589   19.2856 H   0  0  0  0  0  0  0  0  0  0  0  0
   45.5038   11.5490   21.0096 H   0  0  0  0  0  0  0  0  0  0  0  0
   46.4204    9.8496   22.4176 H   0  0  0  0  0  0  0  0  0  0  0  0
   47.3967    9.8491   18.2140 H   0  0  0  0  0  0  0  0  0  0  0  0
   48.5506    7.6846   18.4929 H   0  0  0  0  0  0  0  0  0  0  0  0
   47.5763    7.6855   22.6762 H   0  0  0  0  0  0  0  0  0  0  0  0
   48.6449    6.5972   20.7204 H   0  0  0  0  0  0  0  0  0  0  0  0
  2  1  1  0
  3  1  2  0
  4  7  1  0
  5  1  1  0
  6  5  1  0
  7  6  1  0
  8  4  2  0
  9  4  1  0
 10  9  2  0
 11  8  1  0
 12 11  2  0
 12 10  1  0
  2 13  1  0
  5 14  1  0
  5 15  1  0
  6 16  1  0
  6 17  1  0
  7 18  1  0
  7 19  1  0
  8 20  1  0
  9 21  1  0
 10 22  1  0
 11 23  1  0
 12 24  1  0
M  END
> <Uni-Dock RESULT> 
ENERGY=   -3.183  LOWER_BOUND=   12.338  UPPER_BOUND=   14.021
INTER + INTRA:          -3.183
INTER:                  -3.183
INTRA:                   0.000
UNBOUND:                 0.000

$$$$

     RDKit          3D

 24 24  0  0  0  0  0  0  0  0999 V2000
   44.7959    4.0201   12.6651 C   0  0  0  0  0  0  0  0  0  0  0  0
   43.5389    4.3626   12.3198 O   0  0  0  0  0  0  0  0  0  0  0  0
   45.2036    2.8877   12.4730 O   0  0  0  0  0  0  0  0  0  0  0  0
   48.0215    7.0591   13.5676 C   0  0  0  0  0  0  0  0  0  0  0  0
   45.5440    5.1747   13.2739 C   0  0  0  0  0  0  0  0  0  0  0  0
   46.9450    4.7583   13.7244 C   0  0  0  0  0  0  0  0  0  0  0  0
   47.6969    5.8786   14.4491 C   0  0  0  0  0  0  0  0  0  0  0  0
   47.3508    8.2783   13.7338 C   0  0  0  0  0  0  0  0  0  0  0  0
   48.9952    6.9515   12.5651 C   0  0  0  0  0  0  0  0  0  0  0  0
   49.2894    8.0408   11.7435 C   0  0  0  0  0  0  0  0  0  0  0  0
   47.6464    9.3666   12.9111 C   0  0  0  0  0  0  0  0  0  0  0  0
   48.6147    9.2476   11.9163 C   0  0  0  0  0  0  0  0  0  0  0  0
   43.1674    3.5417   11.9342 H   0  0  0  0  0  0  0  0  0  0  0  0
   44.9707    5.5368   14.1345 H   0  0  0  0  0  0  0  0  0  0  0  0
   45.6037    5.9680   12.5217 H   0  0  0  0  0  0  0  0  0  0  0  0
   47.5214    4.4064   12.8596 H   0  0  0  0  0  0  0  0  0  0  0  0
   46.8633    3.9025   14.4069 H   0  0  0  0  0  0  0  0  0  0  0  0
   48.6384    5.4803   14.8489 H   0  0  0  0  0  0  0  0  0  0  0  0
   47.1184    6.2063   15.3220 H   0  0  0  0  0  0  0  0  0  0  0  0
   46.5913    8.3890   14.5043 H   0  0  0  0  0  0  0  0  0  0  0  0
   49.5318    6.0167   12.4189 H   0  0  0  0  0  0  0  0  0  0  0  0
   50.0460    7.9474   10.9690 H   0  0  0  0  0  0  0  0  0  0  0  0
   47.1205   10.3080   13.0470 H   0  0  0  0  0  0  0  0  0  0  0  0
   48.8445   10.0955   11.2766 H   0  0  0  0  0  0  0  0  0  0  0  0
  2  1  1  0
  3  1  2  0
  4  7  1  0
  5  1  1  0
  6  5  1  0
  7  6  1  0
  8  4  2  0
  9  4  1  0
 10  9  2  0
 11  8  1  0
 12 11  2  0
 12 10  1  0
  2 13  1  0
  5 14  1  0
  5 15  1  0
  6 16  1  0
  6 17  1  0
  7 18  1  0
  7 19  1  0
  8 20  1  0
  9 21  1  0
 10 22  1  0
 11 23  1  0
 12 24  1  0
M  END
> <Uni-Dock RESULT> 
ENERGY=   -3.140  LOWER_BOUND=    4.521  UPPER_BOUND=    6.464
INTER + INTRA:          -3.140
INTER:                  -3.140
INTRA:                   0.000
UNBOUND:                 0.000

$$$$

     RDKit          3D

 24 24  0  0  0  0  0  0  0  0999 V2000
   47.7722    8.1167   20.1334 C   0  0  0  0  0  0  0  0  0  0  0  0
   48.4103    7.3733   19.2077 O   0  0  0  0  0  0  0  0  0  0  0  0
   47.6095    7.6912   21.2638 O   0  0  0  0  0  0  0  0  0  0  0  0
   47.0611   12.5588   19.6687 C   0  0  0  0  0  0  0  0  0  0  0  0
   47.3344    9.4455   19.5803 C   0  0  0  0  0  0  0  0  0  0  0  0
   46.5521   10.2528   20.6173 C   0  0  0  0  0  0  0  0  0  0  0  0
   45.9949   11.5646   20.0567 C   0  0  0  0  0  0  0  0  0  0  0  0
   47.3168   12.8394   18.3197 C   0  0  0  0  0  0  0  0  0  0  0  0
   47.8160   13.2123   20.6524 C   0  0  0  0  0  0  0  0  0  0  0  0
   48.8086   14.1256   20.2935 C   0  0  0  0  0  0  0  0  0  0  0  0
   48.3099   13.7531   17.9626 C   0  0  0  0  0  0  0  0  0  0  0  0
   49.0557   14.3953   18.9490 C   0  0  0  0  0  0  0  0  0  0  0  0
   48.6476    6.5517   19.6865 H   0  0  0  0  0  0  0  0  0  0  0  0
   46.7040    9.2592   18.7037 H   0  0  0  0  0  0  0  0  0  0  0  0
   48.2319    9.9899   19.2689 H   0  0  0  0  0  0  0  0  0  0  0  0
   47.1884   10.4480   21.4897 H   0  0  0  0  0  0  0  0  0  0  0  0
   45.7101    9.6499   20.9812 H   0  0  0  0  0  0  0  0  0  0  0  0
   45.3482   12.0322   20.8103 H   0  0  0  0  0  0  0  0  0  0  0  0
   45.3455   11.3522   19.1982 H   0  0  0  0  0  0  0  0  0  0  0  0
   46.7453   12.3468   17.5363 H   0  0  0  0  0  0  0  0  0  0  0  0
   47.6339   13.0138   21.7063 H   0  0  0  0  0  0  0  0  0  0  0  0
   49.3885   14.6271   21.0637 H   0  0  0  0  0  0  0  0  0  0  0  0
   48.5015   13.9638   16.9137 H   0  0  0  0  0  0  0  0  0  0  0  0
   49.8283   15.1067   18.6701 H   0  0  0  0  0  0  0  0  0  0  0  0
  2  1  1  0
  3  1  2  0
  4  7  1  0
  5  1  1  0
  6  5  1  0
  7  6  1  0
  8  4  2  0
  9  4  1  0
 10  9  2  0
 11  8  1  0
 12 11  2  0
 12 10  1  0
  2 13  1  0
  5 14  1  0
  5 15  1  0
  6 16  1  0
  6 17  1  0
  7 18  1  0
  7 19  1  0
  8 20  1  0
  9 21  1  0
 10 22  1  0
 11 23  1  0
 12 24  1  0
M  END
> <Uni-Dock RESULT> 
ENERGY=   -3.077  LOWER_BOUND=   12.141  UPPER_BOUND=   13.826
INTER + INTRA:          -3.077
INTER:                  -3.077
INTRA:                   0.000
UNBOUND:                 0.000

$$$$
