
     RDKit          3D

 24 24  0  0  0  0  0  0  0  0999 V2000
   43.1958    4.9668   11.3361 C   0  0  0  0  0  0  0  0  0  0  0  0
   42.1317    5.1172   12.1491 O   0  0  0  0  0  0  0  0  0  0  0  0
   43.4587    5.8108   10.4977 O   0  0  0  0  0  0  0  0  0  0  0  0
   45.5690    2.6575    8.2635 C   0  0  0  0  0  0  0  0  0  0  0  0
   43.9491    3.6970   11.6304 C   0  0  0  0  0  0  0  0  0  0  0  0
   45.0430    3.4056   10.6044 C   0  0  0  0  0  0  0  0  0  0  0  0
   44.4725    2.9583    9.2545 C   0  0  0  0  0  0  0  0  0  0  0  0
   46.1232    3.6861    7.4898 C   0  0  0  0  0  0  0  0  0  0  0  0
   46.0668    1.3556    8.1223 C   0  0  0  0  0  0  0  0  0  0  0  0
   47.0932    1.0864    7.2153 C   0  0  0  0  0  0  0  0  0  0  0  0
   47.1495    3.4150    6.5838 C   0  0  0  0  0  0  0  0  0  0  0  0
   47.6335    2.1154    6.4459 C   0  0  0  0  0  0  0  0  0  0  0  0
   41.7389    5.9717   11.8719 H   0  0  0  0  0  0  0  0  0  0  0  0
   44.4086    3.8124   12.6184 H   0  0  0  0  0  0  0  0  0  0  0  0
   43.2400    2.8629   11.6696 H   0  0  0  0  0  0  0  0  0  0  0  0
   45.6795    4.2897   10.4719 H   0  0  0  0  0  0  0  0  0  0  0  0
   45.6894    2.6127   11.0022 H   0  0  0  0  0  0  0  0  0  0  0  0
   43.8470    2.0664    9.3882 H   0  0  0  0  0  0  0  0  0  0  0  0
   43.8124    3.7261    8.8336 H   0  0  0  0  0  0  0  0  0  0  0  0
   45.7572    4.7059    7.5917 H   0  0  0  0  0  0  0  0  0  0  0  0
   45.6582    0.5431    8.7183 H   0  0  0  0  0  0  0  0  0  0  0  0
   47.4722    0.0734    7.1099 H   0  0  0  0  0  0  0  0  0  0  0  0
   47.5716    4.2190    5.9868 H   0  0  0  0  0  0  0  0  0  0  0  0
   48.4326    1.9051    5.7403 H   0  0  0  0  0  0  0  0  0  0  0  0
  2  1  1  0
  3  1  2  0
  4  7  1  0
  5  1  1  0
  6  5  1  0
  7  6  1  0
  8  4  2  0
  9  4  1  0
 10  9  2  0
 11  8  1  0
 12 11  2  0
 12 10  1  0
  2 13  1  0
  5 14  1  0
  5 15  1  0
  6 16  1  0
  6 17  1  0
  7 18  1  0
  7 19  1  0
  8 20  1  0
  9 21  1  0
 10 22  1  0
 11 23  1  0
 12 24  1  0
M  END
> <Uni-Dock RESULT> 
ENERGY=   -6.572  LOWER_BOUND=    0.000  UPPER_BOUND=    0.000
INTER + INTRA:          -6.572
INTER:                  -6.572
INTRA:                   0.000
UNBOUND:                 0.000

$$$$

     RDKit          3D

 24 24  0  0  0  0  0  0  0  0999 V2000
   47.1221    2.4224    6.6708 C   0  0  0  0  0  0  0  0  0  0  0  0
   47.4013    2.1693    5.3770 O   0  0  0  0  0  0  0  0  0  0  0  0
   47.2249    1.5447    7.5097 O   0  0  0  0  0  0  0  0  0  0  0  0
   44.3422    3.8067    9.9513 C   0  0  0  0  0  0  0  0  0  0  0  0
   46.7163    3.8563    6.8851 C   0  0  0  0  0  0  0  0  0  0  0  0
   46.2119    4.1240    8.3021 C   0  0  0  0  0  0  0  0  0  0  0  0
   44.8290    3.5142    8.5540 C   0  0  0  0  0  0  0  0  0  0  0  0
   44.7098    2.9732   11.0161 C   0  0  0  0  0  0  0  0  0  0  0  0
   43.5416    4.9272   10.2090 C   0  0  0  0  0  0  0  0  0  0  0  0
   43.1079    5.2019   11.5070 C   0  0  0  0  0  0  0  0  0  0  0  0
   44.2754    3.2497   12.3132 C   0  0  0  0  0  0  0  0  0  0  0  0
   43.4740    4.3631   12.5582 C   0  0  0  0  0  0  0  0  0  0  0  0
   47.6605    1.2238    5.3697 H   0  0  0  0  0  0  0  0  0  0  0  0
   47.6001    4.4764    6.6981 H   0  0  0  0  0  0  0  0  0  0  0  0
   45.9429    4.1206    6.1556 H   0  0  0  0  0  0  0  0  0  0  0  0
   46.9330    3.7426    9.0363 H   0  0  0  0  0  0  0  0  0  0  0  0
   46.1589    5.2100    8.4521 H   0  0  0  0  0  0  0  0  0  0  0  0
   44.1072    3.9073    7.8266 H   0  0  0  0  0  0  0  0  0  0  0  0
   44.8452    2.4283    8.4023 H   0  0  0  0  0  0  0  0  0  0  0  0
   45.3393    2.1033   10.8384 H   0  0  0  0  0  0  0  0  0  0  0  0
   43.2511    5.5930    9.3998 H   0  0  0  0  0  0  0  0  0  0  0  0
   42.4851    6.0717   11.6982 H   0  0  0  0  0  0  0  0  0  0  0  0
   44.5642    2.5963   13.1322 H   0  0  0  0  0  0  0  0  0  0  0  0
   43.1362    4.5779   13.5685 H   0  0  0  0  0  0  0  0  0  0  0  0
  2  1  1  0
  3  1  2  0
  4  7  1  0
  5  1  1  0
  6  5  1  0
  7  6  1  0
  8  4  2  0
  9  4  1  0
 10  9  2  0
 11  8  1  0
 12 11  2  0
 12 10  1  0
  2 13  1  0
  5 14  1  0
  5 15  1  0
  6 16  1  0
  6 17  1  0
  7 18  1  0
  7 19  1  0
  8 20  1  0
  9 21  1  0
 10 22  1  0
 11 23  1  0
 12 24  1  0
M  END
> <Uni-Dock RESULT> 
ENERGY=   -5.167  LOWER_BOUND=    3.072  UPPER_BOUND=    5.786
INTER + INTRA:          -5.167
INTER:                  -5.167
INTRA:                   0.000
UNBOUND:                 0.000

$$$$

     RDKit          3D

 24 24  0  0  0  0  0  0  0  0999 V2000
   43.3966    4.1525   11.7895 C   0  0  0  0  0  0  0  0  0  0  0  0
   43.0074    4.9150   12.8302 O   0  0  0  0  0  0  0  0  0  0  0  0
   43.6772    2.9782   11.9530 O   0  0  0  0  0  0  0  0  0  0  0  0
   46.1327    3.2563    8.3087 C   0  0  0  0  0  0  0  0  0  0  0  0
   43.4047    4.9290   10.4997 C   0  0  0  0  0  0  0  0  0  0  0  0
   44.0217    4.1471    9.3412 C   0  0  0  0  0  0  0  0  0  0  0  0
   45.5426    4.0142    9.4716 C   0  0  0  0  0  0  0  0  0  0  0  0
   46.1846    1.8561    8.3315 C   0  0  0  0  0  0  0  0  0  0  0  0
   46.6104    3.9369    7.1811 C   0  0  0  0  0  0  0  0  0  0  0  0
   47.1403    3.2293    6.1009 C   0  0  0  0  0  0  0  0  0  0  0  0
   46.7145    1.1504    7.2504 C   0  0  0  0  0  0  0  0  0  0  0  0
   47.1931    1.8369    6.1360 C   0  0  0  0  0  0  0  0  0  0  0  0
   43.0303    4.3030   13.5957 H   0  0  0  0  0  0  0  0  0  0  0  0
   42.3631    5.1658   10.2554 H   0  0  0  0  0  0  0  0  0  0  0  0
   43.9502    5.8668   10.6518 H   0  0  0  0  0  0  0  0  0  0  0  0
   43.5599    3.1542    9.2694 H   0  0  0  0  0  0  0  0  0  0  0  0
   43.7853    4.6695    8.4053 H   0  0  0  0  0  0  0  0  0  0  0  0
   46.0028    5.0088    9.5301 H   0  0  0  0  0  0  0  0  0  0  0  0
   45.8134    3.5040   10.4037 H   0  0  0  0  0  0  0  0  0  0  0  0
   45.8097    1.3084    9.1939 H   0  0  0  0  0  0  0  0  0  0  0  0
   46.5724    5.0228    7.1373 H   0  0  0  0  0  0  0  0  0  0  0  0
   47.5110    3.7647    5.2309 H   0  0  0  0  0  0  0  0  0  0  0  0
   46.7522    0.0647    7.2782 H   0  0  0  0  0  0  0  0  0  0  0  0
   47.6055    1.2867    5.2946 H   0  0  0  0  0  0  0  0  0  0  0  0
  2  1  1  0
  3  1  2  0
  4  7  1  0
  5  1  1  0
  6  5  1  0
  7  6  1  0
  8  4  2  0
  9  4  1  0
 10  9  2  0
 11  8  1  0
 12 11  2  0
 12 10  1  0
  2 13  1  0
  5 14  1  0
  5 15  1  0
  6 16  1  0
  6 17  1  0
  7 18  1  0
  7 19  1  0
  8 20  1  0
  9 21  1  0
 10 22  1  0
 11 23  1  0
 12 24  1  0
M  END
> <Uni-Dock RESULT> 
ENERGY=   -4.886  LOWER_BOUND=    1.127  UPPER_BOUND=    1.947
INTER + INTRA:          -4.886
INTER:                  -4.886
INTRA:                   0.000
UNBOUND:                 0.000

$$$$

     RDKit          3D

 24 24  0  0  0  0  0  0  0  0999 V2000
   46.6788    2.6255    7.0395 C   0  0  0  0  0  0  0  0  0  0  0  0
   47.6841    2.0251    6.3727 O   0  0  0  0  0  0  0  0  0  0  0  0
   46.3787    3.7814    6.7978 O   0  0  0  0  0  0  0  0  0  0  0  0
   44.6808    3.9871   10.8552 C   0  0  0  0  0  0  0  0  0  0  0  0
   46.0338    1.6965    8.0333 C   0  0  0  0  0  0  0  0  0  0  0  0
   45.0222    2.4026    8.9345 C   0  0  0  0  0  0  0  0  0  0  0  0
   45.6959    3.3156    9.9643 C   0  0  0  0  0  0  0  0  0  0  0  0
   44.0707    5.1832   10.4542 C   0  0  0  0  0  0  0  0  0  0  0  0
   44.3138    3.4128   12.0793 C   0  0  0  0  0  0  0  0  0  0  0  0
   43.3615    4.0303   12.8919 C   0  0  0  0  0  0  0  0  0  0  0  0
   43.1187    5.7989   11.2679 C   0  0  0  0  0  0  0  0  0  0  0  0
   42.7651    5.2231   12.4867 C   0  0  0  0  0  0  0  0  0  0  0  0
   48.0084    2.7163    5.7576 H   0  0  0  0  0  0  0  0  0  0  0  0
   45.5189    0.9156    7.4627 H   0  0  0  0  0  0  0  0  0  0  0  0
   46.8149    1.2277    8.6418 H   0  0  0  0  0  0  0  0  0  0  0  0
   44.3131    2.9778    8.3256 H   0  0  0  0  0  0  0  0  0  0  0  0
   44.4343    1.6395    9.4605 H   0  0  0  0  0  0  0  0  0  0  0  0
   46.3946    2.7353   10.5804 H   0  0  0  0  0  0  0  0  0  0  0  0
   46.3008    4.0852    9.4703 H   0  0  0  0  0  0  0  0  0  0  0  0
   44.3348    5.6402    9.5025 H   0  0  0  0  0  0  0  0  0  0  0  0
   44.7674    2.4804   12.4071 H   0  0  0  0  0  0  0  0  0  0  0  0
   43.0840    3.5797   13.8411 H   0  0  0  0  0  0  0  0  0  0  0  0
   42.6525    6.7274   10.9492 H   0  0  0  0  0  0  0  0  0  0  0  0
   42.0237    5.7031   13.1198 H   0  0  0  0  0  0  0  0  0  0  0  0
  2  1  1  0
  3  1  2  0
  4  7  1  0
  5  1  1  0
  6  5  1  0
  7  6  1  0
  8  4  2  0
  9  4  1  0
 10  9  2  0
 11  8  1  0
 12 11  2  0
 12 10  1  0
  2 13  1  0
  5 14  1  0
  5 15  1  0
  6 16  1  0
  6 17  1  0
  7 18  1  0
  7 19  1  0
  8 20  1  0
  9 21  1  0
 10 22  1  0
 11 23  1  0
 12 24  1  0
M  END
> <Uni-Dock RESULT> 
ENERGY=   -4.088  LOWER_BOUND=    2.664  UPPER_BOUND=    5.623
INTER + INTRA:          -4.088
INTER:                  -4.088
INTRA:                   0.000
UNBOUND:                 0.000

$$$$

     RDKit          3D

 24 24  0  0  0  0  0  0  0  0999 V2000
   44.0746    3.1475   11.7253 C   0  0  0  0  0  0  0  0  0  0  0  0
   43.1268    2.1922   11.7965 O   0  0  0  0  0  0  0  0  0  0  0  0
   45.1781    2.9622   12.2073 O   0  0  0  0  0  0  0  0  0  0  0  0
   45.5755    7.3379   12.4956 C   0  0  0  0  0  0  0  0  0  0  0  0
   43.5839    4.3683   10.9937 C   0  0  0  0  0  0  0  0  0  0  0  0
   44.5668    5.5359   11.0633 C   0  0  0  0  0  0  0  0  0  0  0  0
   44.6142    6.1764   12.4545 C   0  0  0  0  0  0  0  0  0  0  0  0
   46.9374    7.1190   12.7426 C   0  0  0  0  0  0  0  0  0  0  0  0
   45.1277    8.6444   12.2608 C   0  0  0  0  0  0  0  0  0  0  0  0
   46.0249    9.7135   12.2837 C   0  0  0  0  0  0  0  0  0  0  0  0
   47.8330    8.1891   12.7649 C   0  0  0  0  0  0  0  0  0  0  0  0
   47.3766    9.4859   12.5365 C   0  0  0  0  0  0  0  0  0  0  0  0
   43.5648    1.4572   12.2753 H   0  0  0  0  0  0  0  0  0  0  0  0
   43.4413    4.0844    9.9450 H   0  0  0  0  0  0  0  0  0  0  0  0
   42.6157    4.6680   11.4097 H   0  0  0  0  0  0  0  0  0  0  0  0
   45.5691    5.2019   10.7662 H   0  0  0  0  0  0  0  0  0  0  0  0
   44.2597    6.2921   10.3295 H   0  0  0  0  0  0  0  0  0  0  0  0
   43.6131    6.5210   12.7434 H   0  0  0  0  0  0  0  0  0  0  0  0
   44.9089    5.4428   13.2144 H   0  0  0  0  0  0  0  0  0  0  0  0
   47.3069    6.1105   12.9177 H   0  0  0  0  0  0  0  0  0  0  0  0
   44.0768    8.8374   12.0583 H   0  0  0  0  0  0  0  0  0  0  0  0
   45.6692   10.7243   12.1031 H   0  0  0  0  0  0  0  0  0  0  0  0
   48.8870    8.0096   12.9592 H   0  0  0  0  0  0  0  0  0  0  0  0
   48.0745   10.3186   12.5539 H   0  0  0  0  0  0  0  0  0  0  0  0
  2  1  1  0
  3  1  2  0
  4  7  1  0
  5  1  1  0
  6  5  1  0
  7  6  1  0
  8  4  2  0
  9  4  1  0
 10  9  2  0
 11  8  1  0
 12 11  2  0
 12 10  1  0
  2 13  1  0
  5 14  1  0
  5 15  1  0
  6 16  1  0
  6 17  1  0
  7 18  1  0
  7 19  1  0
  8 20  1  0
  9 21  1  0
 10 22  1  0
 11 23  1  0
 12 24  1  0
M  END
> <Uni-Dock RESULT> 
ENERGY=   -3.781  LOWER_BOUND=    4.003  UPPER_BOUND=    6.189
INTER + INTRA:          -3.781
INTER:                  -3.781
INTRA:                   0.000
UNBOUND:                 0.000

$$$$
