
     RDKit          3D

 38 36  0  0  0  0  0  0  0  0999 V2000
   -2.0300    1.2569   -0.2565 C   0  0  0  0  0  0  0  0  0  0  0  0
   -0.6819    0.7162   -0.7131 C   0  0  0  0  0  0  0  0  0  0  0  0
   -0.0035   -0.2071    0.3197 C   0  0  2  0  0  0  0  0  0  0  0  0
    1.3968   -0.6252   -0.1623 C   0  0  0  0  0  0  0  0  0  0  0  0
    2.2203    0.5328   -0.2837 O   0  0  0  0  0  0  0  0  0  0  0  0
    3.5127    0.1326   -0.7483 N   0  0  0  0  0  0  0  0  0  0  0  0
    4.2572    1.1096   -0.8720 O   0  0  0  0  0  0  0  0  0  0  0  0
   -0.8380   -1.4553    0.6132 C   0  0  0  0  0  0  0  0  0  0  0  0
   -0.3445    1.5403    0.3052 C   0  0  0  0  0  0  0  0  0  0  0  0
   -0.9318    0.1435    0.5071 C   0  0  0  0  0  0  0  0  0  0  0  0
   -2.3650    0.1069   -0.0320 C   0  0  0  0  0  0  0  0  0  0  0  0
   -0.1000   -0.9707   -0.1612 C   0  0  0  0  0  0  0  0  0  0  0  0
    1.3167   -1.1236    0.3945 C   0  0  0  0  0  0  0  0  0  0  0  0
    2.1565   -0.1084   -0.1457 O   0  0  0  0  0  0  0  0  0  0  0  0
    3.4709   -0.2593    0.3981 N   0  0  0  0  0  0  0  0  0  0  0  0
    4.2283    0.6142   -0.0350 O   0  0  0  0  0  0  0  0  0  0  0  0
   -2.7765    0.4615   -0.1759 H   0  0  0  0  0  0  0  0  0  0  0  0
   -1.9455    1.7559    0.7139 H   0  0  0  0  0  0  0  0  0  0  0  0
   -2.4052    1.9870   -0.9811 H   0  0  0  0  0  0  0  0  0  0  0  0
   -0.8135    0.1831   -1.6626 H   0  0  0  0  0  0  0  0  0  0  0  0
   -0.0305    1.5733   -0.9216 H   0  0  0  0  0  0  0  0  0  0  0  0
    0.1143    0.3616    1.2516 H   0  0  0  0  0  0  0  0  0  0  0  0
    1.3253   -1.1366   -1.1313 H   0  0  0  0  0  0  0  0  0  0  0  0
    1.8486   -1.3115    0.5656 H   0  0  0  0  0  0  0  0  0  0  0  0
   -1.7943   -1.1962    1.0773 H   0  0  0  0  0  0  0  0  0  0  0  0
   -0.3127   -2.1195    1.3081 H   0  0  0  0  0  0  0  0  0  0  0  0
   -1.0435   -2.0192   -0.3029 H   0  0  0  0  0  0  0  0  0  0  0  0
   -0.1755    1.7515   -0.7560 H   0  0  0  0  0  0  0  0  0  0  0  0
    0.6053    1.6524    0.8359 H   0  0  0  0  0  0  0  0  0  0  0  0
   -1.0209    2.3073    0.6981 H   0  0  0  0  0  0  0  0  0  0  0  0
   -0.9769   -0.0541    1.5858 H   0  0  0  0  0  0  0  0  0  0  0  0
   -2.3894    0.3054   -1.1090 H   0  0  0  0  0  0  0  0  0  0  0  0
   -2.9881    0.8578    0.4655 H   0  0  0  0  0  0  0  0  0  0  0  0
   -2.8228   -0.8724    0.1434 H   0  0  0  0  0  0  0  0  0  0  0  0
   -0.6232   -1.9236   -0.0111 H   0  0  0  0  0  0  0  0  0  0  0  0
   -0.0525   -0.7915   -1.2427 H   0  0  0  0  0  0  0  0  0  0  0  0
    1.7080   -2.1032    0.0922 H   0  0  0  0  0  0  0  0  0  0  0  0
    1.3049   -1.0723    1.4904 H   0  0  0  0  0  0  0  0  0  0  0  0
  1  2  1  0
  2  3  1  0
  3  4  1  0
  4  5  1  0
  5  6  1  0
  6  7  2  0
  3  8  1  0
  9 10  1  0
 10 11  1  0
 10 12  1  0
 12 13  1  0
 13 14  1  0
 14 15  1  0
 15 16  2  0
  1 17  1  0
  1 18  1  0
  1 19  1  0
  2 20  1  0
  2 21  1  0
  3 22  1  1
  4 23  1  0
  4 24  1  0
  8 25  1  0
  8 26  1  0
  8 27  1  0
  9 28  1  0
  9 29  1  0
  9 30  1  0
 10 31  1  0
 11 32  1  0
 11 33  1  0
 11 34  1  0
 12 35  1  0
 12 36  1  0
 13 37  1  0
 13 38  1  0
M  END
$$$$
