
     RDKit          3D

 38 36  0  0  0  0  0  0  0  0999 V2000
   -2.4177    0.5023   -0.6078 C   0  0  0  0  0  0  0  0  0  0  0  0
   -0.9460    0.3748   -0.9748 C   0  0  0  0  0  0  0  0  0  0  0  0
   -0.0304    0.0889    0.2291 C   0  0  2  0  0  0  0  0  0  0  0  0
    1.4414    0.1312   -0.2183 C   0  0  0  0  0  0  0  0  0  0  0  0
    2.2863    0.0156    0.9249 O   0  0  0  0  0  0  0  0  0  0  0  0
    3.6502    0.0401    0.4941 N   0  0  0  0  0  0  0  0  0  0  0  0
    4.4169   -0.0601    1.4565 O   0  0  0  0  0  0  0  0  0  0  0  0
   -0.3531   -1.2544    0.8931 C   0  0  0  0  0  0  0  0  0  0  0  0
   -2.2012   -0.8409    0.2946 C   0  0  0  0  0  0  0  0  0  0  0  0
   -1.0697    0.1212   -0.0750 C   0  0  0  0  0  0  0  0  0  0  0  0
   -1.0825    0.3788   -1.5824 C   0  0  0  0  0  0  0  0  0  0  0  0
    0.2748   -0.4431    0.4120 C   0  0  0  0  0  0  0  0  0  0  0  0
    1.4519    0.5100    0.2132 C   0  0  0  0  0  0  0  0  0  0  0  0
    2.6058   -0.0841    0.8058 O   0  0  0  0  0  0  0  0  0  0  0  0
    3.7160    0.8030    0.6407 N   0  0  0  0  0  0  0  0  0  0  0  0
    4.7377    0.3270    1.1442 O   0  0  0  0  0  0  0  0  0  0  0  0
   -2.9962    0.8146   -1.4834 H   0  0  0  0  0  0  0  0  0  0  0  0
   -2.8310   -0.4502   -0.2640 H   0  0  0  0  0  0  0  0  0  0  0  0
   -2.5638    1.2497    0.1782 H   0  0  0  0  0  0  0  0  0  0  0  0
   -0.8314   -0.4123   -1.7302 H   0  0  0  0  0  0  0  0  0  0  0  0
   -0.6327    1.3137   -1.4482 H   0  0  0  0  0  0  0  0  0  0  0  0
   -0.1783    0.8711    0.9855 H   0  0  0  0  0  0  0  0  0  0  0  0
    1.6474    1.0847   -0.7214 H   0  0  0  0  0  0  0  0  0  0  0  0
    1.6464   -0.6889   -0.9191 H   0  0  0  0  0  0  0  0  0  0  0  0
   -0.2660   -2.0791    0.1777 H   0  0  0  0  0  0  0  0  0  0  0  0
    0.3264   -1.4581    1.7272 H   0  0  0  0  0  0  0  0  0  0  0  0
   -1.3685   -1.2628    1.3007 H   0  0  0  0  0  0  0  0  0  0  0  0
   -3.1721   -0.4354   -0.0095 H   0  0  0  0  0  0  0  0  0  0  0  0
   -2.0720   -1.8131   -0.1933 H   0  0  0  0  0  0  0  0  0  0  0  0
   -2.2343   -1.0058    1.3768 H   0  0  0  0  0  0  0  0  0  0  0  0
   -1.2579    1.0732    0.4374 H   0  0  0  0  0  0  0  0  0  0  0  0
   -0.8341   -0.5290   -2.1426 H   0  0  0  0  0  0  0  0  0  0  0  0
   -2.0715    0.7175   -1.9098 H   0  0  0  0  0  0  0  0  0  0  0  0
   -0.3663    1.1581   -1.8595 H   0  0  0  0  0  0  0  0  0  0  0  0
    0.4940   -1.3945   -0.0902 H   0  0  0  0  0  0  0  0  0  0  0  0
    0.2036   -0.6880    1.4802 H   0  0  0  0  0  0  0  0  0  0  0  0
    1.2405    1.4718    0.6967 H   0  0  0  0  0  0  0  0  0  0  0  0
    1.6374    0.6733   -0.8545 H   0  0  0  0  0  0  0  0  0  0  0  0
  1  2  1  0
  2  3  1  0
  3  4  1  0
  4  5  1  0
  5  6  1  0
  6  7  2  0
  3  8  1  0
  9 10  1  0
 10 11  1  0
 10 12  1  0
 12 13  1  0
 13 14  1  0
 14 15  1  0
 15 16  2  0
  1 17  1  0
  1 18  1  0
  1 19  1  0
  2 20  1  0
  2 21  1  0
  3 22  1  1
  4 23  1  0
  4 24  1  0
  8 25  1  0
  8 26  1  0
  8 27  1  0
  9 28  1  0
  9 29  1  0
  9 30  1  0
 10 31  1  0
 11 32  1  0
 11 33  1  0
 11 34  1  0
 12 35  1  0
 12 36  1  0
 13 37  1  0
 13 38  1  0
M  END
$$$$
