
     RDKit          3D

 38 36  0  0  0  0  0  0  0  0999 V2000
   -2.1035    0.3148   -0.5937 C   0  0  0  0  0  0  0  0  0  0  0  0
   -1.3510    0.4306    0.7248 C   0  0  0  0  0  0  0  0  0  0  0  0
    0.0897   -0.1119    0.7115 C   0  0  2  0  0  0  0  0  0  0  0  0
    0.9890    0.6545   -0.2708 C   0  0  0  0  0  0  0  0  0  0  0  0
    2.3445    0.2568   -0.0680 O   0  0  0  0  0  0  0  0  0  0  0  0
    3.1770    0.9734   -0.9845 N   0  0  0  0  0  0  0  0  0  0  0  0
    4.3612    0.6541   -0.8444 O   0  0  0  0  0  0  0  0  0  0  0  0
    0.1325   -1.6189    0.4382 C   0  0  0  0  0  0  0  0  0  0  0  0
   -2.0130    1.2437    0.2657 C   0  0  0  0  0  0  0  0  0  0  0  0
   -1.0118    0.2355   -0.3033 C   0  0  0  0  0  0  0  0  0  0  0  0
   -1.4869   -1.1875   -0.0069 C   0  0  0  0  0  0  0  0  0  0  0  0
    0.3897    0.5156    0.2632 C   0  0  0  0  0  0  0  0  0  0  0  0
    1.4876   -0.3502   -0.3517 C   0  0  0  0  0  0  0  0  0  0  0  0
    2.7401    0.0857    0.1743 O   0  0  0  0  0  0  0  0  0  0  0  0
    3.7822   -0.7065   -0.4029 N   0  0  0  0  0  0  0  0  0  0  0  0
    4.8866   -0.3610    0.0271 O   0  0  0  0  0  0  0  0  0  0  0  0
   -3.1138    0.7220   -0.4814 H   0  0  0  0  0  0  0  0  0  0  0  0
   -2.2015   -0.7271   -0.9114 H   0  0  0  0  0  0  0  0  0  0  0  0
   -1.6085    0.8774   -1.3904 H   0  0  0  0  0  0  0  0  0  0  0  0
   -1.9227   -0.0956    1.4995 H   0  0  0  0  0  0  0  0  0  0  0  0
   -1.3307    1.4863    1.0227 H   0  0  0  0  0  0  0  0  0  0  0  0
    0.5003    0.0322    1.7205 H   0  0  0  0  0  0  0  0  0  0  0  0
    0.6977    0.4415   -1.3068 H   0  0  0  0  0  0  0  0  0  0  0  0
    0.8980    1.7332   -0.0899 H   0  0  0  0  0  0  0  0  0  0  0  0
    1.1413   -2.0154    0.5951 H   0  0  0  0  0  0  0  0  0  0  0  0
   -0.1585   -1.8521   -0.5909 H   0  0  0  0  0  0  0  0  0  0  0  0
   -0.5409   -2.1560    1.1144 H   0  0  0  0  0  0  0  0  0  0  0  0
   -3.0104    1.0834   -0.1575 H   0  0  0  0  0  0  0  0  0  0  0  0
   -1.7116    2.2691    0.0267 H   0  0  0  0  0  0  0  0  0  0  0  0
   -2.0890    1.1573    1.3550 H   0  0  0  0  0  0  0  0  0  0  0  0
   -0.9840    0.3682   -1.3923 H   0  0  0  0  0  0  0  0  0  0  0  0
   -0.8585   -1.9299   -0.5081 H   0  0  0  0  0  0  0  0  0  0  0  0
   -1.4707   -1.3957    1.0683 H   0  0  0  0  0  0  0  0  0  0  0  0
   -2.5115   -1.3370   -0.3643 H   0  0  0  0  0  0  0  0  0  0  0  0
    0.6469    1.5704    0.0985 H   0  0  0  0  0  0  0  0  0  0  0  0
    0.3946    0.3820    1.3531 H   0  0  0  0  0  0  0  0  0  0  0  0
    1.4849   -0.2386   -1.4430 H   0  0  0  0  0  0  0  0  0  0  0  0
    1.3347   -1.4045   -0.0942 H   0  0  0  0  0  0  0  0  0  0  0  0
  1  2  1  0
  2  3  1  0
  3  4  1  0
  4  5  1  0
  5  6  1  0
  6  7  2  0
  3  8  1  0
  9 10  1  0
 10 11  1  0
 10 12  1  0
 12 13  1  0
 13 14  1  0
 14 15  1  0
 15 16  2  0
  1 17  1  0
  1 18  1  0
  1 19  1  0
  2 20  1  0
  2 21  1  0
  3 22  1  1
  4 23  1  0
  4 24  1  0
  8 25  1  0
  8 26  1  0
  8 27  1  0
  9 28  1  0
  9 29  1  0
  9 30  1  0
 10 31  1  0
 11 32  1  0
 11 33  1  0
 11 34  1  0
 12 35  1  0
 12 36  1  0
 13 37  1  0
 13 38  1  0
M  END
$$$$
