
     RDKit          3D

 38 36  0  0  0  0  0  0  0  0999 V2000
   -0.7077   -1.8947   -0.4212 C   0  0  0  0  0  0  0  0  0  0  0  0
   -1.4216   -0.5661   -0.2199 C   0  0  0  0  0  0  0  0  0  0  0  0
   -0.5736    0.5928    0.3433 C   0  0  2  0  0  0  0  0  0  0  0  0
    0.5647    1.0290   -0.5951 C   0  0  0  0  0  0  0  0  0  0  0  0
    1.6196    0.0730   -0.5989 O   0  0  0  0  0  0  0  0  0  0  0  0
    2.6456    0.5197   -1.4898 N   0  0  0  0  0  0  0  0  0  0  0  0
    3.5765   -0.2901   -1.5288 O   0  0  0  0  0  0  0  0  0  0  0  0
   -0.0583    0.2919    1.7529 C   0  0  0  0  0  0  0  0  0  0  0  0
   -1.7669    0.8243    0.5151 C   0  0  0  0  0  0  0  0  0  0  0  0
   -1.1703   -0.1788   -0.4720 C   0  0  0  0  0  0  0  0  0  0  0  0
   -1.2308   -1.5941    0.1023 C   0  0  0  0  0  0  0  0  0  0  0  0
    0.2499    0.2116   -0.9153 C   0  0  0  0  0  0  0  0  0  0  0  0
    1.3000    0.2551    0.1938 C   0  0  0  0  0  0  0  0  0  0  0  0
    2.5446    0.6315   -0.3957 O   0  0  0  0  0  0  0  0  0  0  0  0
    3.5431    0.6781    0.6279 N   0  0  0  0  0  0  0  0  0  0  0  0
    4.6386    1.0010    0.1589 O   0  0  0  0  0  0  0  0  0  0  0  0
    0.0611   -1.8259   -1.1953 H   0  0  0  0  0  0  0  0  0  0  0  0
   -1.4266   -2.6539   -0.7476 H   0  0  0  0  0  0  0  0  0  0  0  0
   -0.2470   -2.2539    0.5030 H   0  0  0  0  0  0  0  0  0  0  0  0
   -1.8523   -0.2557   -1.1801 H   0  0  0  0  0  0  0  0  0  0  0  0
   -2.2718   -0.7335    0.4538 H   0  0  0  0  0  0  0  0  0  0  0  0
   -1.2546    1.4512    0.4261 H   0  0  0  0  0  0  0  0  0  0  0  0
    0.9584    1.9940   -0.2490 H   0  0  0  0  0  0  0  0  0  0  0  0
    0.1742    1.1625   -1.6123 H   0  0  0  0  0  0  0  0  0  0  0  0
   -0.8870    0.0341    2.4208 H   0  0  0  0  0  0  0  0  0  0  0  0
    0.6561   -0.5367    1.7663 H   0  0  0  0  0  0  0  0  0  0  0  0
    0.4443    1.1705    2.1717 H   0  0  0  0  0  0  0  0  0  0  0  0
   -1.2468    0.8068    1.4781 H   0  0  0  0  0  0  0  0  0  0  0  0
   -2.8210    0.5945    0.7050 H   0  0  0  0  0  0  0  0  0  0  0  0
   -1.7148    1.8425    0.1156 H   0  0  0  0  0  0  0  0  0  0  0  0
   -1.7989   -0.1645   -1.3722 H   0  0  0  0  0  0  0  0  0  0  0  0
   -0.6978   -1.6702    1.0554 H   0  0  0  0  0  0  0  0  0  0  0  0
   -0.7929   -2.3166   -0.5942 H   0  0  0  0  0  0  0  0  0  0  0  0
   -2.2700   -1.8912    0.2807 H   0  0  0  0  0  0  0  0  0  0  0  0
    0.5894   -0.4846   -1.6938 H   0  0  0  0  0  0  0  0  0  0  0  0
    0.2176    1.1928   -1.4076 H   0  0  0  0  0  0  0  0  0  0  0  0
    1.0225    0.9921    0.9560 H   0  0  0  0  0  0  0  0  0  0  0  0
    1.4043   -0.7304    0.6620 H   0  0  0  0  0  0  0  0  0  0  0  0
  1  2  1  0
  2  3  1  0
  3  4  1  0
  4  5  1  0
  5  6  1  0
  6  7  2  0
  3  8  1  0
  9 10  1  0
 10 11  1  0
 10 12  1  0
 12 13  1  0
 13 14  1  0
 14 15  1  0
 15 16  2  0
  1 17  1  0
  1 18  1  0
  1 19  1  0
  2 20  1  0
  2 21  1  0
  3 22  1  1
  4 23  1  0
  4 24  1  0
  8 25  1  0
  8 26  1  0
  8 27  1  0
  9 28  1  0
  9 29  1  0
  9 30  1  0
 10 31  1  0
 11 32  1  0
 11 33  1  0
 11 34  1  0
 12 35  1  0
 12 36  1  0
 13 37  1  0
 13 38  1  0
M  END
$$$$
