
     RDKit          3D

 22 18  0  0  0  0  0  0  0  0999 V2000
   47.0954    2.7664    6.6800 Al  0  0  0  0  0 15  0  0  0  0  0  0
   47.6019    2.1058    6.5727 C   0  0  0  0  0  0  0  0  0  0  0  0
   48.3072    2.0545    5.3737 O   0  0  0  0  0  0  0  0  0  0  0  0
   47.7036    1.2091    7.4511 O   0  0  0  0  0  0  0  0  0  0  0  0
   46.7026    3.2746    6.7975 C   0  0  0  0  0  0  0  0  0  0  0  0
   47.4842    2.0863    6.5054 C   0  0  0  0  0  0  0  0  0  0  0  0
   48.1813    2.0078    5.3324 O   0  0  0  0  0  0  0  0  0  0  0  0
   47.4684    1.0705    7.2596 O   0  0  0  0  0  0  0  0  0  0  0  0
   46.7822    3.3468    6.8419 C   0  0  0  0  0  0  0  0  0  0  0  0
   47.5612    2.0899    6.5076 C   0  0  0  0  0  0  0  0  0  0  0  0
   47.2622    0.8565    7.1004 O   0  0  0  0  0  0  0  0  0  0  0  0
   48.5158    2.2239    5.7000 O   0  0  0  0  0  0  0  0  0  0  0  0
   46.7485    3.3142    6.8138 C   0  0  0  0  0  0  0  0  0  0  0  0
   46.2114    3.1876    7.7966 H   0  0  0  0  0  0  0  0  0  0  0  0
   45.8807    3.2826    6.0465 H   0  0  0  0  0  0  0  0  0  0  0  0
   47.2600    4.2506    6.7221 H   0  0  0  0  0  0  0  0  0  0  0  0
   45.7371    3.2439    6.4883 H   0  0  0  0  0  0  0  0  0  0  0  0
   46.7292    3.4002    7.9548 H   0  0  0  0  0  0  0  0  0  0  0  0
   47.2853    4.2095    6.3777 H   0  0  0  0  0  0  0  0  0  0  0  0
   45.7521    3.0612    7.2188 H   0  0  0  0  0  0  0  0  0  0  0  0
   47.2773    3.9617    7.5545 H   0  0  0  0  0  0  0  0  0  0  0  0
   46.5504    3.8576    5.8652 H   0  0  0  0  0  0  0  0  0  0  0  0
  3  2  1  0
  4  2  2  0
  5  2  1  0
  7  6  1  0
  8  6  2  0
  9  6  1  0
 11 10  1  0
 12 10  2  0
 13 10  1  0
  5 14  1  0
  5 15  1  0
  5 16  1  0
  9 17  1  0
  9 18  1  0
  9 19  1  0
 13 20  1  0
 13 21  1  0
 13 22  1  0
M  CHG  4   1   3   3  -1   7  -1  11  -1
M  END
> <Uni-Dock RESULT> 
ENERGY=   -8.172  LOWER_BOUND=    0.000  UPPER_BOUND=    0.000
INTER + INTRA:          -8.172
INTER:                  -8.172
INTRA:                   0.000
UNBOUND:                 0.000

$$$$

     RDKit          3D

 22 18  0  0  0  0  0  0  0  0999 V2000
   47.1028    2.7896    6.6914 Al  0  0  0  0  0 15  0  0  0  0  0  0
   47.4880    2.0879    6.4390 C   0  0  0  0  0  0  0  0  0  0  0  0
   47.4914    1.0255    7.3385 O   0  0  0  0  0  0  0  0  0  0  0  0
   48.0392    2.0136    5.3092 O   0  0  0  0  0  0  0  0  0  0  0  0
   46.8003    3.3447    6.8546 C   0  0  0  0  0  0  0  0  0  0  0  0
   47.5703    2.1596    6.5219 C   0  0  0  0  0  0  0  0  0  0  0  0
   47.5953    1.1045    7.3904 O   0  0  0  0  0  0  0  0  0  0  0  0
   48.3033    2.1028    5.4922 O   0  0  0  0  0  0  0  0  0  0  0  0
   46.6932    3.3157    6.8199 C   0  0  0  0  0  0  0  0  0  0  0  0
   47.5336    2.0945    6.5025 C   0  0  0  0  0  0  0  0  0  0  0  0
   48.6141    2.1529    5.6130 O   0  0  0  0  0  0  0  0  0  0  0  0
   47.1824    1.0184    7.0501 O   0  0  0  0  0  0  0  0  0  0  0  0
   46.7424    3.3240    6.8423 C   0  0  0  0  0  0  0  0  0  0  0  0
   46.8697    4.1024    6.0372 H   0  0  0  0  0  0  0  0  0  0  0  0
   47.3094    3.7925    7.7378 H   0  0  0  0  0  0  0  0  0  0  0  0
   45.7219    3.1610    7.1237 H   0  0  0  0  0  0  0  0  0  0  0  0
   47.3088    4.0633    7.3584 H   0  0  0  0  0  0  0  0  0  0  0  0
   46.4268    3.7802    5.8414 H   0  0  0  0  0  0  0  0  0  0  0  0
   45.8221    3.0013    7.4158 H   0  0  0  0  0  0  0  0  0  0  0  0
   47.3034    4.2516    6.6292 H   0  0  0  0  0  0  0  0  0  0  0  0
   45.7866    3.3482    6.2650 H   0  0  0  0  0  0  0  0  0  0  0  0
   46.5574    3.3380    7.9378 H   0  0  0  0  0  0  0  0  0  0  0  0
  3  2  1  0
  4  2  2  0
  5  2  1  0
  7  6  1  0
  8  6  2  0
  9  6  1  0
 11 10  1  0
 12 10  2  0
 13 10  1  0
  5 14  1  0
  5 15  1  0
  5 16  1  0
  9 17  1  0
  9 18  1  0
  9 19  1  0
 13 20  1  0
 13 21  1  0
 13 22  1  0
M  CHG  4   1   3   3  -1   7  -1  11  -1
M  END
> <Uni-Dock RESULT> 
ENERGY=   -8.031  LOWER_BOUND=    0.105  UPPER_BOUND=    1.570
INTER + INTRA:          -8.031
INTER:                  -8.031
INTRA:                   0.000
UNBOUND:                 0.000

$$$$

     RDKit          3D

 22 18  0  0  0  0  0  0  0  0999 V2000
   47.3162    1.8954    6.7082 Al  0  0  0  0  0 15  0  0  0  0  0  0
   47.4975    2.5817    6.2601 C   0  0  0  0  0  0  0  0  0  0  0  0
   46.7682    3.7284    6.5615 O   0  0  0  0  0  0  0  0  0  0  0  0
   48.3765    2.5618    5.3587 O   0  0  0  0  0  0  0  0  0  0  0  0
   47.2062    1.3490    7.0483 C   0  0  0  0  0  0  0  0  0  0  0  0
   47.3845    2.5217    6.2108 C   0  0  0  0  0  0  0  0  0  0  0  0
   46.6763    3.6589    6.4813 O   0  0  0  0  0  0  0  0  0  0  0  0
   48.1068    2.5010    5.1722 O   0  0  0  0  0  0  0  0  0  0  0  0
   47.2779    1.3705    7.1373 C   0  0  0  0  0  0  0  0  0  0  0  0
   47.4220    2.5831    6.2388 C   0  0  0  0  0  0  0  0  0  0  0  0
   47.8837    2.4745    4.9208 O   0  0  0  0  0  0  0  0  0  0  0  0
   47.1429    3.6955    6.7545 O   0  0  0  0  0  0  0  0  0  0  0  0
   47.2395    1.3663    7.0986 C   0  0  0  0  0  0  0  0  0  0  0  0
   47.8666    0.5160    6.7061 H   0  0  0  0  0  0  0  0  0  0  0  0
   46.1607    1.0109    6.8687 H   0  0  0  0  0  0  0  0  0  0  0  0
   47.3376    1.5200    8.1540 H   0  0  0  0  0  0  0  0  0  0  0  0
   46.4869    0.7034    6.7408 H   0  0  0  0  0  0  0  0  0  0  0  0
   48.2334    0.8008    7.0564 H   0  0  0  0  0  0  0  0  0  0  0  0
   47.0475    1.7117    8.1587 H   0  0  0  0  0  0  0  0  0  0  0  0
   47.1508    0.4428    6.4988 H   0  0  0  0  0  0  0  0  0  0  0  0
   48.0991    1.2499    7.8022 H   0  0  0  0  0  0  0  0  0  0  0  0
   46.2755    1.4559    7.6439 H   0  0  0  0  0  0  0  0  0  0  0  0
  3  2  1  0
  4  2  2  0
  5  2  1  0
  7  6  1  0
  8  6  2  0
  9  6  1  0
 11 10  1  0
 12 10  2  0
 13 10  1  0
  5 14  1  0
  5 15  1  0
  5 16  1  0
  9 17  1  0
  9 18  1  0
  9 19  1  0
 13 20  1  0
 13 21  1  0
 13 22  1  0
M  CHG  4   1   3   3  -1   7  -1  11  -1
M  END
> <Uni-Dock RESULT> 
ENERGY=   -7.697  LOWER_BOUND=    1.440  UPPER_BOUND=    2.027
INTER + INTRA:          -7.697
INTER:                  -7.697
INTRA:                   0.000
UNBOUND:                 0.000

$$$$

     RDKit          3D

 22 18  0  0  0  0  0  0  0  0999 V2000
   47.5120    1.8805    6.6825 Al  0  0  0  0  0 15  0  0  0  0  0  0
   47.0816    1.5426    7.3190 C   0  0  0  0  0  0  0  0  0  0  0  0
   46.9757    0.1546    7.3270 O   0  0  0  0  0  0  0  0  0  0  0  0
   46.5551    2.2619    8.2084 O   0  0  0  0  0  0  0  0  0  0  0  0
   47.8513    2.1717    6.2067 C   0  0  0  0  0  0  0  0  0  0  0  0
   47.0030    1.5489    7.2070 C   0  0  0  0  0  0  0  0  0  0  0  0
   46.8767    0.1882    7.2332 O   0  0  0  0  0  0  0  0  0  0  0  0
   46.2939    2.2297    8.0036 O   0  0  0  0  0  0  0  0  0  0  0  0
   47.9567    2.1645    6.2551 C   0  0  0  0  0  0  0  0  0  0  0  0
   47.0351    1.5097    7.2651 C   0  0  0  0  0  0  0  0  0  0  0  0
   45.9848    2.2118    7.8700 O   0  0  0  0  0  0  0  0  0  0  0  0
   47.2904    0.3141    7.5598 O   0  0  0  0  0  0  0  0  0  0  0  0
   47.9078    2.1598    6.2312 C   0  0  0  0  0  0  0  0  0  0  0  0
   47.8597    3.2813    6.3323 H   0  0  0  0  0  0  0  0  0  0  0  0
   47.3552    1.9731    5.2299 H   0  0  0  0  0  0  0  0  0  0  0  0
   48.9057    1.7785    6.1542 H   0  0  0  0  0  0  0  0  0  0  0  0
   47.3858    2.4246    5.3417 H   0  0  0  0  0  0  0  0  0  0  0  0
   48.2819    3.1326    6.7037 H   0  0  0  0  0  0  0  0  0  0  0  0
   48.7864    1.4751    6.0333 H   0  0  0  0  0  0  0  0  0  0  0  0
   47.4237    3.0408    5.7730 H   0  0  0  0  0  0  0  0  0  0  0  0
   48.8769    2.4834    6.6823 H   0  0  0  0  0  0  0  0  0  0  0  0
   48.0656    1.4441    5.3961 H   0  0  0  0  0  0  0  0  0  0  0  0
  3  2  1  0
  4  2  2  0
  5  2  1  0
  7  6  1  0
  8  6  2  0
  9  6  1  0
 11 10  1  0
 12 10  2  0
 13 10  1  0
  5 14  1  0
  5 15  1  0
  5 16  1  0
  9 17  1  0
  9 18  1  0
  9 19  1  0
 13 20  1  0
 13 21  1  0
 13 22  1  0
M  CHG  4   1   3   3  -1   7  -1  11  -1
M  END
> <Uni-Dock RESULT> 
ENERGY=   -7.688  LOWER_BOUND=    1.722  UPPER_BOUND=    1.963
INTER + INTRA:          -7.688
INTER:                  -7.688
INTRA:                   0.000
UNBOUND:                 0.000

$$$$

     RDKit          3D

 22 18  0  0  0  0  0  0  0  0999 V2000
   47.5438    1.8830    6.6953 Al  0  0  0  0  0 15  0  0  0  0  0  0
   47.0033    1.4877    7.2015 C   0  0  0  0  0  0  0  0  0  0  0  0
   46.2941    2.2861    8.0943 O   0  0  0  0  0  0  0  0  0  0  0  0
   46.8567    0.2379    7.1548 O   0  0  0  0  0  0  0  0  0  0  0  0
   47.9628    2.1632    6.2803 C   0  0  0  0  0  0  0  0  0  0  0  0
   47.1198    1.5145    7.2686 C   0  0  0  0  0  0  0  0  0  0  0  0
   46.4172    2.2749    8.1609 O   0  0  0  0  0  0  0  0  0  0  0  0
   47.0841    0.2564    7.3981 O   0  0  0  0  0  0  0  0  0  0  0  0
   47.8871    2.1894    6.1959 C   0  0  0  0  0  0  0  0  0  0  0  0
   47.0430    1.5185    7.2617 C   0  0  0  0  0  0  0  0  0  0  0  0
   47.2785    0.1987    7.6675 O   0  0  0  0  0  0  0  0  0  0  0  0
   46.0952    2.1982    7.7319 O   0  0  0  0  0  0  0  0  0  0  0  0
   47.9191    2.1831    6.2399 C   0  0  0  0  0  0  0  0  0  0  0  0
   48.4507    1.4061    5.6202 H   0  0  0  0  0  0  0  0  0  0  0  0
   48.7825    2.6460    6.8588 H   0  0  0  0  0  0  0  0  0  0  0  0
   47.4568    2.9537    5.6571 H   0  0  0  0  0  0  0  0  0  0  0  0
   48.9248    2.3137    6.5644 H   0  0  0  0  0  0  0  0  0  0  0  0
   47.9450    1.4750    5.3412 H   0  0  0  0  0  0  0  0  0  0  0  0
   47.4288    3.1569    5.9379 H   0  0  0  0  0  0  0  0  0  0  0  0
   48.9016    1.6863    6.1484 H   0  0  0  0  0  0  0  0  0  0  0  0
   47.4261    2.1793    5.2376 H   0  0  0  0  0  0  0  0  0  0  0  0
   48.1433    3.2168    6.5801 H   0  0  0  0  0  0  0  0  0  0  0  0
  3  2  1  0
  4  2  2  0
  5  2  1  0
  7  6  1  0
  8  6  2  0
  9  6  1  0
 11 10  1  0
 12 10  2  0
 13 10  1  0
  5 14  1  0
  5 15  1  0
  5 16  1  0
  9 17  1  0
  9 18  1  0
  9 19  1  0
 13 20  1  0
 13 21  1  0
 13 22  1  0
M  CHG  4   1   3   3  -1   7  -1  11  -1
M  END
> <Uni-Dock RESULT> 
ENERGY=   -7.684  LOWER_BOUND=    1.725  UPPER_BOUND=    1.949
INTER + INTRA:          -7.684
INTER:                  -7.684
INTRA:                   0.000
UNBOUND:                 0.000

$$$$

     RDKit          3D

 22 18  0  0  0  0  0  0  0  0999 V2000
   47.2476    2.1273    6.7389 Al  0  0  0  0  0 15  0  0  0  0  0  0
   47.0097    2.8599    6.4053 C   0  0  0  0  0  0  0  0  0  0  0  0
   47.2475    3.0265    5.0439 O   0  0  0  0  0  0  0  0  0  0  0  0
   46.4766    3.7577    7.1092 O   0  0  0  0  0  0  0  0  0  0  0  0
   47.4106    1.5632    7.0244 C   0  0  0  0  0  0  0  0  0  0  0  0
   47.1446    2.8609    6.4299 C   0  0  0  0  0  0  0  0  0  0  0  0
   47.3750    3.0530    5.0964 O   0  0  0  0  0  0  0  0  0  0  0  0
   46.7941    3.8583    7.1250 O   0  0  0  0  0  0  0  0  0  0  0  0
   47.3132    1.5043    7.0008 C   0  0  0  0  0  0  0  0  0  0  0  0
   47.0842    2.8694    6.3826 C   0  0  0  0  0  0  0  0  0  0  0  0
   47.0779    4.0379    7.1550 O   0  0  0  0  0  0  0  0  0  0  0  0
   46.8602    2.8907    5.1454 O   0  0  0  0  0  0  0  0  0  0  0  0
   47.3606    1.5313    7.0039 C   0  0  0  0  0  0  0  0  0  0  0  0
   47.1546    1.5676    8.1114 H   0  0  0  0  0  0  0  0  0  0  0  0
   48.5143    1.4291    6.9653 H   0  0  0  0  0  0  0  0  0  0  0  0
   46.9201    0.6873    6.5131 H   0  0  0  0  0  0  0  0  0  0  0  0
   48.3452    1.4429    7.3995 H   0  0  0  0  0  0  0  0  0  0  0  0
   46.6350    1.4385    7.8840 H   0  0  0  0  0  0  0  0  0  0  0  0
   47.1261    0.7334    6.2368 H   0  0  0  0  0  0  0  0  0  0  0  0
   47.8880    1.6225    7.9704 H   0  0  0  0  0  0  0  0  0  0  0  0
   46.4086    0.9719    7.1719 H   0  0  0  0  0  0  0  0  0  0  0  0
   48.0537    0.9674    6.3435 H   0  0  0  0  0  0  0  0  0  0  0  0
  3  2  1  0
  4  2  2  0
  5  2  1  0
  7  6  1  0
  8  6  2  0
  9  6  1  0
 11 10  1  0
 12 10  2  0
 13 10  1  0
  5 14  1  0
  5 15  1  0
  5 16  1  0
  9 17  1  0
  9 18  1  0
  9 19  1  0
 13 20  1  0
 13 21  1  0
 13 22  1  0
M  CHG  4   1   3   3  -1   7  -1  11  -1
M  END
> <Uni-Dock RESULT> 
ENERGY=   -7.540  LOWER_BOUND=    1.611  UPPER_BOUND=    1.916
INTER + INTRA:          -7.540
INTER:                  -7.540
INTRA:                   0.000
UNBOUND:                 0.000

$$$$

     RDKit          3D

 22 18  0  0  0  0  0  0  0  0999 V2000
   47.4744    2.4802    6.4054 Al  0  0  0  0  0 15  0  0  0  0  0  0
   47.0017    2.7661    7.0374 C   0  0  0  0  0  0  0  0  0  0  0  0
   46.4130    1.8049    7.8542 O   0  0  0  0  0  0  0  0  0  0  0  0
   46.8320    4.0002    7.2220 O   0  0  0  0  0  0  0  0  0  0  0  0
   47.8577    2.2887    5.9128 C   0  0  0  0  0  0  0  0  0  0  0  0
   46.9221    2.7273    6.9328 C   0  0  0  0  0  0  0  0  0  0  0  0
   46.3255    1.8035    7.7444 O   0  0  0  0  0  0  0  0  0  0  0  0
   46.5617    3.9356    7.0377 O   0  0  0  0  0  0  0  0  0  0  0  0
   47.9572    2.2792    5.9723 C   0  0  0  0  0  0  0  0  0  0  0  0
   46.9426    2.7243    7.0071 C   0  0  0  0  0  0  0  0  0  0  0  0
   46.2570    3.9405    6.8932 O   0  0  0  0  0  0  0  0  0  0  0  0
   46.7804    1.9610    7.9932 O   0  0  0  0  0  0  0  0  0  0  0  0
   47.9080    2.2769    5.9484 C   0  0  0  0  0  0  0  0  0  0  0  0
   48.2671    3.1628    5.3512 H   0  0  0  0  0  0  0  0  0  0  0  0
   47.2512    1.7064    5.1829 H   0  0  0  0  0  0  0  0  0  0  0  0
   48.6980    1.6327    6.2773 H   0  0  0  0  0  0  0  0  0  0  0  0
   47.4477    2.0905    5.0065 H   0  0  0  0  0  0  0  0  0  0  0  0
   48.6363    3.1471    5.8004 H   0  0  0  0  0  0  0  0  0  0  0  0
   48.4704    1.3784    6.3438 H   0  0  0  0  0  0  0  0  0  0  0  0
   47.7334    2.7870    4.9841 H   0  0  0  0  0  0  0  0  0  0  0  0
   48.9601    2.4740    6.2674 H   0  0  0  0  0  0  0  0  0  0  0  0
   47.7392    1.1978    5.7444 H   0  0  0  0  0  0  0  0  0  0  0  0
  3  2  1  0
  4  2  2  0
  5  2  1  0
  7  6  1  0
  8  6  2  0
  9  6  1  0
 11 10  1  0
 12 10  2  0
 13 10  1  0
  5 14  1  0
  5 15  1  0
  5 16  1  0
  9 17  1  0
  9 18  1  0
  9 19  1  0
 13 20  1  0
 13 21  1  0
 13 22  1  0
M  CHG  4   1   3   3  -1   7  -1  11  -1
M  END
> <Uni-Dock RESULT> 
ENERGY=   -7.163  LOWER_BOUND=    1.646  UPPER_BOUND=    2.295
INTER + INTRA:          -7.163
INTER:                  -7.163
INTRA:                   0.000
UNBOUND:                 0.000

$$$$

     RDKit          3D

 22 18  0  0  0  0  0  0  0  0999 V2000
   45.0828    2.7931    8.6938 Al  0  0  0  0  0 15  0  0  0  0  0  0
   45.1448    3.5787    8.4048 C   0  0  0  0  0  0  0  0  0  0  0  0
   44.0654    4.4196    8.6608 O   0  0  0  0  0  0  0  0  0  0  0  0
   46.1596    3.9632    7.7659 O   0  0  0  0  0  0  0  0  0  0  0  0
   45.0690    2.1796    8.9168 C   0  0  0  0  0  0  0  0  0  0  0  0
   45.0673    3.5034    8.3204 C   0  0  0  0  0  0  0  0  0  0  0  0
   44.0168    4.3468    8.5510 O   0  0  0  0  0  0  0  0  0  0  0  0
   45.9648    3.8754    7.5098 O   0  0  0  0  0  0  0  0  0  0  0  0
   45.1110    2.2000    9.0233 C   0  0  0  0  0  0  0  0  0  0  0  0
   45.0785    3.5653    8.3651 C   0  0  0  0  0  0  0  0  0  0  0  0
   45.8171    3.8449    7.2083 O   0  0  0  0  0  0  0  0  0  0  0  0
   44.3842    4.4438    8.9375 O   0  0  0  0  0  0  0  0  0  0  0  0
   45.0844    2.1942    8.9759 C   0  0  0  0  0  0  0  0  0  0  0  0
   46.0008    1.6266    8.6466 H   0  0  0  0  0  0  0  0  0  0  0  0
   44.2304    1.6325    8.4300 H   0  0  0  0  0  0  0  0  0  0  0  0
   44.9098    2.1513   10.0317 H   0  0  0  0  0  0  0  0  0  0  0  0
   44.6515    1.4494    8.3500 H   0  0  0  0  0  0  0  0  0  0  0  0
   46.1862    1.9177    9.1147 H   0  0  0  0  0  0  0  0  0  0  0  0
   44.5821    2.2588    9.9875 H   0  0  0  0  0  0  0  0  0  0  0  0
   45.3979    1.4188    8.2540 H   0  0  0  0  0  0  0  0  0  0  0  0
   45.7730    2.1584    9.8545 H   0  0  0  0  0  0  0  0  0  0  0  0
   44.0447    1.9261    9.2615 H   0  0  0  0  0  0  0  0  0  0  0  0
  3  2  1  0
  4  2  2  0
  5  2  1  0
  7  6  1  0
  8  6  2  0
  9  6  1  0
 11 10  1  0
 12 10  2  0
 13 10  1  0
  5 14  1  0
  5 15  1  0
  5 16  1  0
  9 17  1  0
  9 18  1  0
  9 19  1  0
 13 20  1  0
 13 21  1  0
 13 22  1  0
M  CHG  4   1   3   3  -1   7  -1  11  -1
M  END
> <Uni-Dock RESULT> 
ENERGY=   -6.032  LOWER_BOUND=    3.423  UPPER_BOUND=    3.921
INTER + INTRA:          -6.032
INTER:                  -6.032
INTRA:                   0.000
UNBOUND:                 0.000

$$$$

     RDKit          3D

 22 18  0  0  0  0  0  0  0  0999 V2000
   44.9234    3.0724    8.6148 Al  0  0  0  0  0 15  0  0  0  0  0  0
   45.0222    2.4150    9.1272 C   0  0  0  0  0  0  0  0  0  0  0  0
   45.6545    1.2986    8.5872 O   0  0  0  0  0  0  0  0  0  0  0  0
   44.6081    2.4433   10.3161 O   0  0  0  0  0  0  0  0  0  0  0  0
   44.8431    3.6038    8.2441 C   0  0  0  0  0  0  0  0  0  0  0  0
   44.9145    2.3949    9.0450 C   0  0  0  0  0  0  0  0  0  0  0  0
   45.5246    1.2826    8.5363 O   0  0  0  0  0  0  0  0  0  0  0  0
   44.3440    2.3009   10.1704 O   0  0  0  0  0  0  0  0  0  0  0  0
   44.9464    3.6534    8.2641 C   0  0  0  0  0  0  0  0  0  0  0  0
   44.9822    2.3728    9.0746 C   0  0  0  0  0  0  0  0  0  0  0  0
   44.0646    2.1244   10.1035 O   0  0  0  0  0  0  0  0  0  0  0  0
   45.9054    1.5644    8.7995 O   0  0  0  0  0  0  0  0  0  0  0  0
   44.9020    3.6246    8.2503 C   0  0  0  0  0  0  0  0  0  0  0  0
   44.3322    4.4210    8.8083 H   0  0  0  0  0  0  0  0  0  0  0  0
   44.1777    3.3545    7.3870 H   0  0  0  0  0  0  0  0  0  0  0  0
   45.8260    3.9707    7.8336 H   0  0  0  0  0  0  0  0  0  0  0  0
   44.0146    3.6909    7.6655 H   0  0  0  0  0  0  0  0  0  0  0  0
   44.8778    4.4909    8.9975 H   0  0  0  0  0  0  0  0  0  0  0  0
   45.8421    3.6932    7.6246 H   0  0  0  0  0  0  0  0  0  0  0  0
   43.9003    4.0884    8.2949 H   0  0  0  0  0  0  0  0  0  0  0  0
   45.6542    4.3732    8.5985 H   0  0  0  0  0  0  0  0  0  0  0  0
   45.0552    3.3591    7.1823 H   0  0  0  0  0  0  0  0  0  0  0  0
  3  2  1  0
  4  2  2  0
  5  2  1  0
  7  6  1  0
  8  6  2  0
  9  6  1  0
 11 10  1  0
 12 10  2  0
 13 10  1  0
  5 14  1  0
  5 15  1  0
  5 16  1  0
  9 17  1  0
  9 18  1  0
  9 19  1  0
 13 20  1  0
 13 21  1  0
 13 22  1  0
M  CHG  4   1   3   3  -1   7  -1  11  -1
M  END
> <Uni-Dock RESULT> 
ENERGY=   -5.979  LOWER_BOUND=    3.147  UPPER_BOUND=    3.696
INTER + INTRA:          -5.979
INTER:                  -5.979
INTRA:                   0.000
UNBOUND:                 0.000

$$$$
