
     RDKit          3D

 22 18  0  0  0  0  0  0  0  0999 V2000
   47.1257    2.9554    6.6021 Al  0  0  0  0  0 15  0  0  0  0  0  0
   47.5797    2.2969    6.3733 C   0  0  0  0  0  0  0  0  0  0  0  0
   47.8218    1.2260    7.2244 O   0  0  0  0  0  0  0  0  0  0  0  0
   48.0429    2.3169    5.1820 O   0  0  0  0  0  0  0  0  0  0  0  0
   46.7787    3.4800    6.7733 C   0  0  0  0  0  0  0  0  0  0  0  0
   47.6775    2.4387    6.3150 C   0  0  0  0  0  0  0  0  0  0  0  0
   48.1813    2.5451    5.0418 O   0  0  0  0  0  0  0  0  0  0  0  0
   48.0993    1.5170    7.0566 O   0  0  0  0  0  0  0  0  0  0  0  0
   46.6484    3.3781    6.8476 C   0  0  0  0  0  0  0  0  0  0  0  0
   47.6200    2.3702    6.3146 C   0  0  0  0  0  0  0  0  0  0  0  0
   48.1450    2.4646    5.0301 O   0  0  0  0  0  0  0  0  0  0  0  0
   47.9327    1.3479    6.9897 O   0  0  0  0  0  0  0  0  0  0  0  0
   46.7415    3.4095    6.8655 C   0  0  0  0  0  0  0  0  0  0  0  0
   46.6963    3.5636    7.8862 H   0  0  0  0  0  0  0  0  0  0  0  0
   47.2262    4.4215    6.3574 H   0  0  0  0  0  0  0  0  0  0  0  0
   45.7346    3.3829    6.4181 H   0  0  0  0  0  0  0  0  0  0  0  0
   45.6757    2.8649    6.8450 H   0  0  0  0  0  0  0  0  0  0  0  0
   46.5975    4.3101    6.2363 H   0  0  0  0  0  0  0  0  0  0  0  0
   47.0004    3.6337    7.8725 H   0  0  0  0  0  0  0  0  0  0  0  0
   45.6897    3.3055    6.5296 H   0  0  0  0  0  0  0  0  0  0  0  0
   47.0577    4.4293    6.5146 H   0  0  0  0  0  0  0  0  0  0  0  0
   46.6938    3.3608    7.9708 H   0  0  0  0  0  0  0  0  0  0  0  0
  3  2  1  0
  4  2  2  0
  5  2  1  0
  7  6  1  0
  8  6  2  0
  9  6  1  0
 11 10  1  0
 12 10  2  0
 13 10  1  0
  5 14  1  0
  5 15  1  0
  5 16  1  0
  9 17  1  0
  9 18  1  0
  9 19  1  0
 13 20  1  0
 13 21  1  0
 13 22  1  0
M  CHG  4   1   3   3  -1   7  -1  11  -1
M  END
> <Uni-Dock RESULT> 
ENERGY=   -8.339  LOWER_BOUND=    0.000  UPPER_BOUND=    0.000
INTER + INTRA:          -8.339
INTER:                  -8.339
INTRA:                   0.000
UNBOUND:                 0.000

$$$$

     RDKit          3D

 22 18  0  0  0  0  0  0  0  0999 V2000
   47.1289    2.9488    6.5966 Al  0  0  0  0  0 15  0  0  0  0  0  0
   47.6867    2.4213    6.2761 C   0  0  0  0  0  0  0  0  0  0  0  0
   48.2219    2.5838    5.0046 O   0  0  0  0  0  0  0  0  0  0  0  0
   48.0361    1.4457    7.0245 O   0  0  0  0  0  0  0  0  0  0  0  0
   46.6854    3.3509    6.8547 C   0  0  0  0  0  0  0  0  0  0  0  0
   47.5611    2.3118    6.3491 C   0  0  0  0  0  0  0  0  0  0  0  0
   47.8577    1.2639    7.1858 O   0  0  0  0  0  0  0  0  0  0  0  0
   47.9646    2.2687    5.1605 O   0  0  0  0  0  0  0  0  0  0  0  0
   46.7774    3.4978    6.8014 C   0  0  0  0  0  0  0  0  0  0  0  0
   47.6359    2.3600    6.3402 C   0  0  0  0  0  0  0  0  0  0  0  0
   47.9423    1.2877    7.1715 O   0  0  0  0  0  0  0  0  0  0  0  0
   48.1822    2.3780    5.2001 O   0  0  0  0  0  0  0  0  0  0  0  0
   46.7193    3.4255    6.7645 C   0  0  0  0  0  0  0  0  0  0  0  0
   46.1811    3.9579    6.0611 H   0  0  0  0  0  0  0  0  0  0  0  0
   45.9143    2.7872    7.4441 H   0  0  0  0  0  0  0  0  0  0  0  0
   47.1767    4.0946    7.5113 H   0  0  0  0  0  0  0  0  0  0  0  0
   47.4736    4.3350    6.9563 H   0  0  0  0  0  0  0  0  0  0  0  0
   46.2190    3.2779    7.7420 H   0  0  0  0  0  0  0  0  0  0  0  0
   46.0487    3.6864    5.9811 H   0  0  0  0  0  0  0  0  0  0  0  0
   47.2107    4.1851    7.4060 H   0  0  0  0  0  0  0  0  0  0  0  0
   45.8859    3.0106    7.3941 H   0  0  0  0  0  0  0  0  0  0  0  0
   46.3257    3.9945    5.8997 H   0  0  0  0  0  0  0  0  0  0  0  0
  3  2  1  0
  4  2  2  0
  5  2  1  0
  7  6  1  0
  8  6  2  0
  9  6  1  0
 11 10  1  0
 12 10  2  0
 13 10  1  0
  5 14  1  0
  5 15  1  0
  5 16  1  0
  9 17  1  0
  9 18  1  0
  9 19  1  0
 13 20  1  0
 13 21  1  0
 13 22  1  0
M  CHG  4   1   3   3  -1   7  -1  11  -1
M  END
> <Uni-Dock RESULT> 
ENERGY=   -8.283  LOWER_BOUND=    0.082  UPPER_BOUND=    1.571
INTER + INTRA:          -8.283
INTER:                  -8.283
INTRA:                   0.000
UNBOUND:                 0.000

$$$$

     RDKit          3D

 22 18  0  0  0  0  0  0  0  0999 V2000
   47.3508    1.5492    6.9781 Al  0  0  0  0  0 15  0  0  0  0  0  0
   46.7999    1.2243    7.5101 C   0  0  0  0  0  0  0  0  0  0  0  0
   45.9753    2.0121    8.3033 O   0  0  0  0  0  0  0  0  0  0  0  0
   46.7446   -0.0519    7.5564 O   0  0  0  0  0  0  0  0  0  0  0  0
   47.7916    1.7926    6.5641 C   0  0  0  0  0  0  0  0  0  0  0  0
   46.9506    1.1267    7.5395 C   0  0  0  0  0  0  0  0  0  0  0  0
   46.9747   -0.2460    7.5721 O   0  0  0  0  0  0  0  0  0  0  0  0
   46.2960    1.7405    8.4183 O   0  0  0  0  0  0  0  0  0  0  0  0
   47.6735    1.9136    6.4986 C   0  0  0  0  0  0  0  0  0  0  0  0
   46.8706    1.1506    7.5072 C   0  0  0  0  0  0  0  0  0  0  0  0
   46.8869   -0.2393    7.5590 O   0  0  0  0  0  0  0  0  0  0  0  0
   46.0819    1.7460    8.2959 O   0  0  0  0  0  0  0  0  0  0  0  0
   47.7297    1.8965    6.5793 C   0  0  0  0  0  0  0  0  0  0  0  0
   48.0291    2.8586    6.8085 H   0  0  0  0  0  0  0  0  0  0  0  0
   48.7362    1.1864    6.5674 H   0  0  0  0  0  0  0  0  0  0  0  0
   47.3791    1.8222    5.5371 H   0  0  0  0  0  0  0  0  0  0  0  0
   46.9384    2.2776    5.7661 H   0  0  0  0  0  0  0  0  0  0  0  0
   48.4522    1.2948    5.9930 H   0  0  0  0  0  0  0  0  0  0  0  0
   48.1705    2.7372    7.0593 H   0  0  0  0  0  0  0  0  0  0  0  0
   47.3119    1.9473    5.5533 H   0  0  0  0  0  0  0  0  0  0  0  0
   48.7264    1.3907    6.4610 H   0  0  0  0  0  0  0  0  0  0  0  0
   47.8486    2.9524    6.8913 H   0  0  0  0  0  0  0  0  0  0  0  0
  3  2  1  0
  4  2  2  0
  5  2  1  0
  7  6  1  0
  8  6  2  0
  9  6  1  0
 11 10  1  0
 12 10  2  0
 13 10  1  0
  5 14  1  0
  5 15  1  0
  5 16  1  0
  9 17  1  0
  9 18  1  0
  9 19  1  0
 13 20  1  0
 13 21  1  0
 13 22  1  0
M  CHG  4   1   3   3  -1   7  -1  11  -1
M  END
> <Uni-Dock RESULT> 
ENERGY=   -7.920  LOWER_BOUND=    2.265  UPPER_BOUND=    2.520
INTER + INTRA:          -7.920
INTER:                  -7.920
INTRA:                   0.000
UNBOUND:                 0.000

$$$$

     RDKit          3D

 22 18  0  0  0  0  0  0  0  0999 V2000
   47.3266    1.5525    7.0076 Al  0  0  0  0  0 15  0  0  0  0  0  0
   46.9295    1.0736    7.5599 C   0  0  0  0  0  0  0  0  0  0  0  0
   47.0459   -0.3106    7.5666 O   0  0  0  0  0  0  0  0  0  0  0  0
   46.2034    1.6836    8.4171 O   0  0  0  0  0  0  0  0  0  0  0  0
   47.6264    1.9369    6.5748 C   0  0  0  0  0  0  0  0  0  0  0  0
   46.8017    1.1910    7.5053 C   0  0  0  0  0  0  0  0  0  0  0  0
   46.0054    1.9052    8.3666 O   0  0  0  0  0  0  0  0  0  0  0  0
   46.6987   -0.0605    7.4844 O   0  0  0  0  0  0  0  0  0  0  0  0
   47.7835    1.8485    6.5946 C   0  0  0  0  0  0  0  0  0  0  0  0
   46.8667    1.1540    7.5544 C   0  0  0  0  0  0  0  0  0  0  0  0
   46.0488    1.8605    8.4301 O   0  0  0  0  0  0  0  0  0  0  0  0
   46.8674   -0.1060    7.6586 O   0  0  0  0  0  0  0  0  0  0  0  0
   47.6936    1.8378    6.5524 C   0  0  0  0  0  0  0  0  0  0  0  0
   47.9532    1.3548    5.6766 H   0  0  0  0  0  0  0  0  0  0  0  0
   46.9660    2.7856    6.2534 H   0  0  0  0  0  0  0  0  0  0  0  0
   48.5620    2.3436    7.0050 H   0  0  0  0  0  0  0  0  0  0  0  0
   48.7912    1.7100    7.0128 H   0  0  0  0  0  0  0  0  0  0  0  0
   47.5585    2.9347    6.4749 H   0  0  0  0  0  0  0  0  0  0  0  0
   47.6475    1.3384    5.6144 H   0  0  0  0  0  0  0  0  0  0  0  0
   48.6421    2.2296    6.9729 H   0  0  0  0  0  0  0  0  0  0  0  0
   47.1638    2.7406    6.1435 H   0  0  0  0  0  0  0  0  0  0  0  0
   48.0039    1.1510    5.7409 H   0  0  0  0  0  0  0  0  0  0  0  0
  3  2  1  0
  4  2  2  0
  5  2  1  0
  7  6  1  0
  8  6  2  0
  9  6  1  0
 11 10  1  0
 12 10  2  0
 13 10  1  0
  5 14  1  0
  5 15  1  0
  5 16  1  0
  9 17  1  0
  9 18  1  0
  9 19  1  0
 13 20  1  0
 13 21  1  0
 13 22  1  0
M  CHG  4   1   3   3  -1   7  -1  11  -1
M  END
> <Uni-Dock RESULT> 
ENERGY=   -7.892  LOWER_BOUND=    2.245  UPPER_BOUND=    2.501
INTER + INTRA:          -7.892
INTER:                  -7.892
INTRA:                   0.000
UNBOUND:                 0.000

$$$$

     RDKit          3D

 22 18  0  0  0  0  0  0  0  0999 V2000
   47.3351    1.9595    6.6534 Al  0  0  0  0  0 15  0  0  0  0  0  0
   47.3886    2.5478    6.0677 C   0  0  0  0  0  0  0  0  0  0  0  0
   48.1030    2.3651    4.8904 O   0  0  0  0  0  0  0  0  0  0  0  0
   46.7667    3.6391    6.3051 O   0  0  0  0  0  0  0  0  0  0  0  0
   47.2931    1.5089    7.1227 C   0  0  0  0  0  0  0  0  0  0  0  0
   47.4180    2.6386    6.2225 C   0  0  0  0  0  0  0  0  0  0  0  0
   46.7664    3.7993    6.5605 O   0  0  0  0  0  0  0  0  0  0  0  0
   48.1749    2.6406    5.2202 O   0  0  0  0  0  0  0  0  0  0  0  0
   47.2590    1.3772    7.0028 C   0  0  0  0  0  0  0  0  0  0  0  0
   47.3754    2.6045    6.1517 C   0  0  0  0  0  0  0  0  0  0  0  0
   46.7273    3.7904    6.4810 O   0  0  0  0  0  0  0  0  0  0  0  0
   48.0032    2.5780    5.0545 O   0  0  0  0  0  0  0  0  0  0  0  0
   47.3343    1.4335    7.0363 C   0  0  0  0  0  0  0  0  0  0  0  0
   48.1047    0.7450    7.0221 H   0  0  0  0  0  0  0  0  0  0  0  0
   47.3386    1.9740    8.1431 H   0  0  0  0  0  0  0  0  0  0  0  0
   46.3507    0.9364    7.0228 H   0  0  0  0  0  0  0  0  0  0  0  0
   46.5967    0.7028    6.4407 H   0  0  0  0  0  0  0  0  0  0  0  0
   46.8379    1.5796    8.0160 H   0  0  0  0  0  0  0  0  0  0  0  0
   48.2927    0.9781    7.1112 H   0  0  0  0  0  0  0  0  0  0  0  0
   46.4014    0.8441    6.9261 H   0  0  0  0  0  0  0  0  0  0  0  0
   47.3536    1.7455    8.1158 H   0  0  0  0  0  0  0  0  0  0  0  0
   48.1505    0.7204    6.8086 H   0  0  0  0  0  0  0  0  0  0  0  0
  3  2  1  0
  4  2  2  0
  5  2  1  0
  7  6  1  0
  8  6  2  0
  9  6  1  0
 11 10  1  0
 12 10  2  0
 13 10  1  0
  5 14  1  0
  5 15  1  0
  5 16  1  0
  9 17  1  0
  9 18  1  0
  9 19  1  0
 13 20  1  0
 13 21  1  0
 13 22  1  0
M  CHG  4   1   3   3  -1   7  -1  11  -1
M  END
> <Uni-Dock RESULT> 
ENERGY=   -7.859  LOWER_BOUND=    1.291  UPPER_BOUND=    1.913
INTER + INTRA:          -7.859
INTER:                  -7.859
INTRA:                   0.000
UNBOUND:                 0.000

$$$$

     RDKit          3D

 22 18  0  0  0  0  0  0  0  0999 V2000
   45.0258    2.8135    8.7259 Al  0  0  0  0  0 15  0  0  0  0  0  0
   44.9611    3.6062    8.4820 C   0  0  0  0  0  0  0  0  0  0  0  0
   43.9968    4.4667    8.9913 O   0  0  0  0  0  0  0  0  0  0  0  0
   45.8085    3.9995    7.6096 O   0  0  0  0  0  0  0  0  0  0  0  0
   45.0806    2.1886    8.9035 C   0  0  0  0  0  0  0  0  0  0  0  0
   44.9816    3.5149    8.3261 C   0  0  0  0  0  0  0  0  0  0  0  0
   45.8913    3.8585    7.3564 O   0  0  0  0  0  0  0  0  0  0  0  0
   44.0468    4.3120    8.5871 O   0  0  0  0  0  0  0  0  0  0  0  0
   45.0643    2.2299    9.0793 C   0  0  0  0  0  0  0  0  0  0  0  0
   45.0016    3.5630    8.3988 C   0  0  0  0  0  0  0  0  0  0  0  0
   45.9107    3.9263    7.4107 O   0  0  0  0  0  0  0  0  0  0  0  0
   44.1659    4.4397    8.7614 O   0  0  0  0  0  0  0  0  0  0  0  0
   45.0092    2.2220    8.9964 C   0  0  0  0  0  0  0  0  0  0  0  0
   44.1394    1.8222    9.3855 H   0  0  0  0  0  0  0  0  0  0  0  0
   45.3342    1.5341    8.0277 H   0  0  0  0  0  0  0  0  0  0  0  0
   45.8600    2.0771    9.6819 H   0  0  0  0  0  0  0  0  0  0  0  0
   45.4599    2.4413   10.0834 H   0  0  0  0  0  0  0  0  0  0  0  0
   45.7163    1.4940    8.5519 H   0  0  0  0  0  0  0  0  0  0  0  0
   44.0202    1.8437    9.0975 H   0  0  0  0  0  0  0  0  0  0  0  0
   45.7743    2.1101    9.7914 H   0  0  0  0  0  0  0  0  0  0  0  0
   45.2721    1.4429    8.2302 H   0  0  0  0  0  0  0  0  0  0  0  0
   44.0466    1.9902    9.4926 H   0  0  0  0  0  0  0  0  0  0  0  0
  3  2  1  0
  4  2  2  0
  5  2  1  0
  7  6  1  0
  8  6  2  0
  9  6  1  0
 11 10  1  0
 12 10  2  0
 13 10  1  0
  5 14  1  0
  5 15  1  0
  5 16  1  0
  9 17  1  0
  9 18  1  0
  9 19  1  0
 13 20  1  0
 13 21  1  0
 13 22  1  0
M  CHG  4   1   3   3  -1   7  -1  11  -1
M  END
> <Uni-Dock RESULT> 
ENERGY=   -6.173  LOWER_BOUND=    3.541  UPPER_BOUND=    3.868
INTER + INTRA:          -6.173
INTER:                  -6.173
INTRA:                   0.000
UNBOUND:                 0.000

$$$$

     RDKit          3D

 22 18  0  0  0  0  0  0  0  0999 V2000
   45.9864    3.1297    7.5691 Al  0  0  0  0  0 15  0  0  0  0  0  0
   46.6244    3.0096    7.0489 C   0  0  0  0  0  0  0  0  0  0  0  0
   46.7833    3.7453    5.8813 O   0  0  0  0  0  0  0  0  0  0  0  0
   47.4655    2.1078    7.3858 O   0  0  0  0  0  0  0  0  0  0  0  0
   45.4863    3.2095    7.9796 C   0  0  0  0  0  0  0  0  0  0  0  0
   46.5680    2.8410    7.0872 C   0  0  0  0  0  0  0  0  0  0  0  0
   47.4072    1.8292    7.4851 O   0  0  0  0  0  0  0  0  0  0  0  0
   46.7037    3.3202    5.9343 O   0  0  0  0  0  0  0  0  0  0  0  0
   45.5023    3.3900    7.9750 C   0  0  0  0  0  0  0  0  0  0  0  0
   46.6152    2.9169    7.0909 C   0  0  0  0  0  0  0  0  0  0  0  0
   47.4714    1.8900    7.4744 O   0  0  0  0  0  0  0  0  0  0  0  0
   46.8663    3.4955    5.9951 O   0  0  0  0  0  0  0  0  0  0  0  0
   45.4699    3.3139    7.9191 C   0  0  0  0  0  0  0  0  0  0  0  0
   44.6371    3.7423    7.4823 H   0  0  0  0  0  0  0  0  0  0  0  0
   45.1278    2.2263    8.3852 H   0  0  0  0  0  0  0  0  0  0  0  0
   45.7803    3.8671    8.8204 H   0  0  0  0  0  0  0  0  0  0  0  0
   45.8420    4.3604    8.3656 H   0  0  0  0  0  0  0  0  0  0  0  0
   45.2764    2.6909    8.8146 H   0  0  0  0  0  0  0  0  0  0  0  0
   44.6049    3.4763    7.3216 H   0  0  0  0  0  0  0  0  0  0  0  0
   45.7548    3.9895    8.7511 H   0  0  0  0  0  0  0  0  0  0  0  0
   45.0067    2.4198    8.4182 H   0  0  0  0  0  0  0  0  0  0  0  0
   44.7202    3.8822    7.3346 H   0  0  0  0  0  0  0  0  0  0  0  0
  3  2  1  0
  4  2  2  0
  5  2  1  0
  7  6  1  0
  8  6  2  0
  9  6  1  0
 11 10  1  0
 12 10  2  0
 13 10  1  0
  5 14  1  0
  5 15  1  0
  5 16  1  0
  9 17  1  0
  9 18  1  0
  9 19  1  0
 13 20  1  0
 13 21  1  0
 13 22  1  0
M  CHG  4   1   3   3  -1   7  -1  11  -1
M  END
> <Uni-Dock RESULT> 
ENERGY=   -6.173  LOWER_BOUND=    1.354  UPPER_BOUND=    2.113
INTER + INTRA:          -6.173
INTER:                  -6.173
INTRA:                   0.000
UNBOUND:                 0.000

$$$$

     RDKit          3D

 22 18  0  0  0  0  0  0  0  0999 V2000
   45.0461    2.8014    8.7117 Al  0  0  0  0  0 15  0  0  0  0  0  0
   45.0341    3.5202    8.2930 C   0  0  0  0  0  0  0  0  0  0  0  0
   45.9513    3.8157    7.2924 O   0  0  0  0  0  0  0  0  0  0  0  0
   44.1134    4.3462    8.6156 O   0  0  0  0  0  0  0  0  0  0  0  0
   45.0510    2.2453    9.0519 C   0  0  0  0  0  0  0  0  0  0  0  0
   45.0129    3.5712    8.4663 C   0  0  0  0  0  0  0  0  0  0  0  0
   44.0291    4.4293    8.8928 O   0  0  0  0  0  0  0  0  0  0  0  0
   45.8928    4.0033    7.6812 O   0  0  0  0  0  0  0  0  0  0  0  0
   45.0731    2.1457    8.9020 C   0  0  0  0  0  0  0  0  0  0  0  0
   44.9929    3.5484    8.3821 C   0  0  0  0  0  0  0  0  0  0  0  0
   44.0072    4.4333    8.8066 O   0  0  0  0  0  0  0  0  0  0  0  0
   45.7731    3.9505    7.4721 O   0  0  0  0  0  0  0  0  0  0  0  0
   45.1243    2.2063    8.9626 C   0  0  0  0  0  0  0  0  0  0  0  0
   46.0425    1.7324    8.9719 H   0  0  0  0  0  0  0  0  0  0  0  0
   44.8056    2.4233   10.1325 H   0  0  0  0  0  0  0  0  0  0  0  0
   44.3248    1.5270    8.6249 H   0  0  0  0  0  0  0  0  0  0  0  0
   44.7147    1.5149    8.0755 H   0  0  0  0  0  0  0  0  0  0  0  0
   44.4558    1.9764    9.8158 H   0  0  0  0  0  0  0  0  0  0  0  0
   46.1444    1.9691    9.1484 H   0  0  0  0  0  0  0  0  0  0  0  0
   44.4132    1.4769    8.5243 H   0  0  0  0  0  0  0  0  0  0  0  0
   44.8853    2.2191   10.0607 H   0  0  0  0  0  0  0  0  0  0  0  0
   46.1269    1.7756    8.7737 H   0  0  0  0  0  0  0  0  0  0  0  0
  3  2  1  0
  4  2  2  0
  5  2  1  0
  7  6  1  0
  8  6  2  0
  9  6  1  0
 11 10  1  0
 12 10  2  0
 13 10  1  0
  5 14  1  0
  5 15  1  0
  5 16  1  0
  9 17  1  0
  9 18  1  0
  9 19  1  0
 13 20  1  0
 13 21  1  0
 13 22  1  0
M  CHG  4   1   3   3  -1   7  -1  11  -1
M  END
> <Uni-Dock RESULT> 
ENERGY=   -6.155  LOWER_BOUND=    3.532  UPPER_BOUND=    4.000
INTER + INTRA:          -6.155
INTER:                  -6.155
INTRA:                   0.000
UNBOUND:                 0.000

$$$$

     RDKit          3D

 22 18  0  0  0  0  0  0  0  0999 V2000
   44.9182    3.1132    8.6697 Al  0  0  0  0  0 15  0  0  0  0  0  0
   45.0148    2.3862    9.0623 C   0  0  0  0  0  0  0  0  0  0  0  0
   45.8261    1.3732    8.5668 O   0  0  0  0  0  0  0  0  0  0  0  0
   44.3771    2.2490   10.1616 O   0  0  0  0  0  0  0  0  0  0  0  0
   44.8285    3.6834    8.3666 C   0  0  0  0  0  0  0  0  0  0  0  0
   44.8353    2.4148    9.0686 C   0  0  0  0  0  0  0  0  0  0  0  0
   44.0887    2.3167   10.2171 O   0  0  0  0  0  0  0  0  0  0  0  0
   45.3940    1.3827    8.6213 O   0  0  0  0  0  0  0  0  0  0  0  0
   45.0060    3.7022    8.3346 C   0  0  0  0  0  0  0  0  0  0  0  0
   44.9213    2.4132    9.0933 C   0  0  0  0  0  0  0  0  0  0  0  0
   44.1658    2.2935   10.2550 O   0  0  0  0  0  0  0  0  0  0  0  0
   45.6052    1.4080    8.7462 O   0  0  0  0  0  0  0  0  0  0  0  0
   44.9268    3.6503    8.3027 C   0  0  0  0  0  0  0  0  0  0  0  0
   45.1197    3.6171    7.2881 H   0  0  0  0  0  0  0  0  0  0  0  0
   43.7636    4.0283    8.4483 H   0  0  0  0  0  0  0  0  0  0  0  0
   45.4972    4.4553    8.7941 H   0  0  0  0  0  0  0  0  0  0  0  0
   46.0108    4.0938    8.5501 H   0  0  0  0  0  0  0  0  0  0  0  0
   44.2278    4.4436    8.6337 H   0  0  0  0  0  0  0  0  0  0  0  0
   44.8646    3.4386    7.2622 H   0  0  0  0  0  0  0  0  0  0  0  0
   45.6106    4.4204    8.7143 H   0  0  0  0  0  0  0  0  0  0  0  0
   43.9119    4.1331    8.3062 H   0  0  0  0  0  0  0  0  0  0  0  0
   45.2852    3.4738    7.2698 H   0  0  0  0  0  0  0  0  0  0  0  0
  3  2  1  0
  4  2  2  0
  5  2  1  0
  7  6  1  0
  8  6  2  0
  9  6  1  0
 11 10  1  0
 12 10  2  0
 13 10  1  0
  5 14  1  0
  5 15  1  0
  5 16  1  0
  9 17  1  0
  9 18  1  0
  9 19  1  0
 13 20  1  0
 13 21  1  0
 13 22  1  0
M  CHG  4   1   3   3  -1   7  -1  11  -1
M  END
> <Uni-Dock RESULT> 
ENERGY=   -6.118  LOWER_BOUND=    3.305  UPPER_BOUND=    4.110
INTER + INTRA:          -6.118
INTER:                  -6.118
INTRA:                   0.000
UNBOUND:                 0.000

$$$$
