
     RDKit          3D

 22 18  0  0  0  0  0  0  0  0999 V2000
   47.1009    2.9725    6.5974 Al  0  0  0  0  0 15  0  0  0  0  0  0
   47.6382    2.4157    6.2968 C   0  0  0  0  0  0  0  0  0  0  0  0
   48.1703    1.4687    7.1765 O   0  0  0  0  0  0  0  0  0  0  0  0
   47.9521    2.4297    5.0671 O   0  0  0  0  0  0  0  0  0  0  0  0
   46.6903    3.4175    6.8233 C   0  0  0  0  0  0  0  0  0  0  0  0
   47.5661    2.3771    6.2487 C   0  0  0  0  0  0  0  0  0  0  0  0
   47.7902    1.1756    6.9425 O   0  0  0  0  0  0  0  0  0  0  0  0
   48.0508    2.5881    5.1049 O   0  0  0  0  0  0  0  0  0  0  0  0
   46.7366    3.4452    6.8614 C   0  0  0  0  0  0  0  0  0  0  0  0
   47.4945    2.2658    6.4074 C   0  0  0  0  0  0  0  0  0  0  0  0
   48.2720    2.3659    5.2504 O   0  0  0  0  0  0  0  0  0  0  0  0
   47.4315    1.2091    7.0891 O   0  0  0  0  0  0  0  0  0  0  0  0
   46.7377    3.5002    6.7869 C   0  0  0  0  0  0  0  0  0  0  0  0
   46.3550    4.0917    6.0009 H   0  0  0  0  0  0  0  0  0  0  0  0
   47.1484    4.0470    7.6072 H   0  0  0  0  0  0  0  0  0  0  0  0
   45.7522    2.9374    7.2098 H   0  0  0  0  0  0  0  0  0  0  0  0
   47.2590    4.4192    6.6954 H   0  0  0  0  0  0  0  0  0  0  0  0
   45.7366    3.5176    6.3868 H   0  0  0  0  0  0  0  0  0  0  0  0
   46.5671    3.2846    7.9420 H   0  0  0  0  0  0  0  0  0  0  0  0
   46.3046    3.9882    5.8845 H   0  0  0  0  0  0  0  0  0  0  0  0
   47.5034    4.1977    7.2217 H   0  0  0  0  0  0  0  0  0  0  0  0
   45.9627    3.2808    7.5417 H   0  0  0  0  0  0  0  0  0  0  0  0
  3  2  1  0
  4  2  2  0
  5  2  1  0
  7  6  1  0
  8  6  2  0
  9  6  1  0
 11 10  1  0
 12 10  2  0
 13 10  1  0
  5 14  1  0
  5 15  1  0
  5 16  1  0
  9 17  1  0
  9 18  1  0
  9 19  1  0
 13 20  1  0
 13 21  1  0
 13 22  1  0
M  CHG  4   1   3   3  -1   7  -1  11  -1
M  END
> <Uni-Dock RESULT> 
ENERGY=   -8.196  LOWER_BOUND=    0.000  UPPER_BOUND=    0.000
INTER + INTRA:          -8.196
INTER:                  -8.196
INTRA:                   0.000
UNBOUND:                 0.000

$$$$

     RDKit          3D

 22 18  0  0  0  0  0  0  0  0999 V2000
   47.0847    2.7904    6.7283 Al  0  0  0  0  0 15  0  0  0  0  0  0
   47.4615    2.0741    6.5441 C   0  0  0  0  0  0  0  0  0  0  0  0
   48.0194    1.9290    5.2707 O   0  0  0  0  0  0  0  0  0  0  0  0
   47.5300    1.1472    7.4084 O   0  0  0  0  0  0  0  0  0  0  0  0
   46.7794    3.3399    6.8783 C   0  0  0  0  0  0  0  0  0  0  0  0
   47.5295    2.0978    6.6058 C   0  0  0  0  0  0  0  0  0  0  0  0
   48.4579    2.0464    5.5519 O   0  0  0  0  0  0  0  0  0  0  0  0
   47.3434    1.1214    7.3802 O   0  0  0  0  0  0  0  0  0  0  0  0
   46.7318    3.3292    6.8337 C   0  0  0  0  0  0  0  0  0  0  0  0
   47.6328    2.2197    6.4747 C   0  0  0  0  0  0  0  0  0  0  0  0
   47.4506    0.9759    7.0854 O   0  0  0  0  0  0  0  0  0  0  0  0
   48.5280    2.4241    5.6132 O   0  0  0  0  0  0  0  0  0  0  0  0
   46.6920    3.2989    6.9116 C   0  0  0  0  0  0  0  0  0  0  0  0
   46.3974    3.3002    7.9252 H   0  0  0  0  0  0  0  0  0  0  0  0
   45.9177    3.5322    6.2141 H   0  0  0  0  0  0  0  0  0  0  0  0
   47.4876    4.2104    6.8575 H   0  0  0  0  0  0  0  0  0  0  0  0
   45.6755    3.0195    7.0269 H   0  0  0  0  0  0  0  0  0  0  0  0
   47.0825    3.8921    7.7228 H   0  0  0  0  0  0  0  0  0  0  0  0
   46.7724    4.0266    5.9769 H   0  0  0  0  0  0  0  0  0  0  0  0
   46.5285    3.2553    8.0123 H   0  0  0  0  0  0  0  0  0  0  0  0
   45.7152    3.0647    6.4087 H   0  0  0  0  0  0  0  0  0  0  0  0
   47.0459    4.2945    6.5924 H   0  0  0  0  0  0  0  0  0  0  0  0
  3  2  1  0
  4  2  2  0
  5  2  1  0
  7  6  1  0
  8  6  2  0
  9  6  1  0
 11 10  1  0
 12 10  2  0
 13 10  1  0
  5 14  1  0
  5 15  1  0
  5 16  1  0
  9 17  1  0
  9 18  1  0
  9 19  1  0
 13 20  1  0
 13 21  1  0
 13 22  1  0
M  CHG  4   1   3   3  -1   7  -1  11  -1
M  END
> <Uni-Dock RESULT> 
ENERGY=   -7.965  LOWER_BOUND=    0.396  UPPER_BOUND=    1.606
INTER + INTRA:          -7.965
INTER:                  -7.965
INTRA:                   0.000
UNBOUND:                 0.000

$$$$

     RDKit          3D

 22 18  0  0  0  0  0  0  0  0999 V2000
   47.3371    1.9164    6.6935 Al  0  0  0  0  0 15  0  0  0  0  0  0
   47.3744    2.5599    6.1705 C   0  0  0  0  0  0  0  0  0  0  0  0
   46.5351    3.6527    6.4059 O   0  0  0  0  0  0  0  0  0  0  0  0
   48.1832    2.5426    5.1926 O   0  0  0  0  0  0  0  0  0  0  0  0
   47.3082    1.4055    7.0883 C   0  0  0  0  0  0  0  0  0  0  0  0
   47.4608    2.5786    6.2048 C   0  0  0  0  0  0  0  0  0  0  0  0
   46.9911    3.8391    6.6118 O   0  0  0  0  0  0  0  0  0  0  0  0
   48.0686    2.4127    5.1136 O   0  0  0  0  0  0  0  0  0  0  0  0
   47.2463    1.3911    7.0700 C   0  0  0  0  0  0  0  0  0  0  0  0
   47.3937    2.6804    6.3717 C   0  0  0  0  0  0  0  0  0  0  0  0
   47.8661    2.6870    5.0564 O   0  0  0  0  0  0  0  0  0  0  0  0
   47.0705    3.7354    6.9781 O   0  0  0  0  0  0  0  0  0  0  0  0
   47.2958    1.3334    7.0171 C   0  0  0  0  0  0  0  0  0  0  0  0
   48.0388    0.6255    6.7702 H   0  0  0  0  0  0  0  0  0  0  0  0
   46.3053    0.9420    7.0966 H   0  0  0  0  0  0  0  0  0  0  0  0
   47.6147    1.6868    8.1307 H   0  0  0  0  0  0  0  0  0  0  0  0
   46.9094    0.5499    6.4158 H   0  0  0  0  0  0  0  0  0  0  0  0
   48.1815    1.0694    7.5723 H   0  0  0  0  0  0  0  0  0  0  0  0
   46.5019    1.5744    7.8665 H   0  0  0  0  0  0  0  0  0  0  0  0
   48.1795    0.7080    6.7564 H   0  0  0  0  0  0  0  0  0  0  0  0
   46.3873    0.8514    6.5652 H   0  0  0  0  0  0  0  0  0  0  0  0
   47.1669    1.4195    8.1100 H   0  0  0  0  0  0  0  0  0  0  0  0
  3  2  1  0
  4  2  2  0
  5  2  1  0
  7  6  1  0
  8  6  2  0
  9  6  1  0
 11 10  1  0
 12 10  2  0
 13 10  1  0
  5 14  1  0
  5 15  1  0
  5 16  1  0
  9 17  1  0
  9 18  1  0
  9 19  1  0
 13 20  1  0
 13 21  1  0
 13 22  1  0
M  CHG  4   1   3   3  -1   7  -1  11  -1
M  END
> <Uni-Dock RESULT> 
ENERGY=   -7.837  LOWER_BOUND=    1.277  UPPER_BOUND=    1.719
INTER + INTRA:          -7.837
INTER:                  -7.837
INTRA:                   0.000
UNBOUND:                 0.000

$$$$

     RDKit          3D

 22 18  0  0  0  0  0  0  0  0999 V2000
   47.5123    1.8547    6.7343 Al  0  0  0  0  0 15  0  0  0  0  0  0
   47.0784    1.4663    7.3258 C   0  0  0  0  0  0  0  0  0  0  0  0
   46.5060    2.2385    8.3407 O   0  0  0  0  0  0  0  0  0  0  0  0
   46.9386    0.2053    7.2922 O   0  0  0  0  0  0  0  0  0  0  0  0
   47.8614    2.1459    6.2750 C   0  0  0  0  0  0  0  0  0  0  0  0
   47.0127    1.4468    7.2602 C   0  0  0  0  0  0  0  0  0  0  0  0
   46.0794    2.1638    8.0283 O   0  0  0  0  0  0  0  0  0  0  0  0
   47.1224    0.1941    7.3409 O   0  0  0  0  0  0  0  0  0  0  0  0
   47.9078    2.1649    6.3181 C   0  0  0  0  0  0  0  0  0  0  0  0
   46.9191    1.6307    7.2714 C   0  0  0  0  0  0  0  0  0  0  0  0
   47.0028    0.2884    7.6512 O   0  0  0  0  0  0  0  0  0  0  0  0
   46.0402    2.4080    7.7281 O   0  0  0  0  0  0  0  0  0  0  0  0
   47.9453    2.0882    6.2824 C   0  0  0  0  0  0  0  0  0  0  0  0
   48.2428    1.3973    5.5419 H   0  0  0  0  0  0  0  0  0  0  0  0
   48.7334    2.6815    6.6915 H   0  0  0  0  0  0  0  0  0  0  0  0
   47.2255    2.8482    5.6731 H   0  0  0  0  0  0  0  0  0  0  0  0
   48.9365    1.7450    6.4390 H   0  0  0  0  0  0  0  0  0  0  0  0
   47.6068    2.0118    5.2615 H   0  0  0  0  0  0  0  0  0  0  0  0
   47.9204    3.2566    6.4923 H   0  0  0  0  0  0  0  0  0  0  0  0
   48.1088    1.3134    5.4993 H   0  0  0  0  0  0  0  0  0  0  0  0
   48.8983    2.1926    6.8679 H   0  0  0  0  0  0  0  0  0  0  0  0
   47.6716    3.0618    5.8399 H   0  0  0  0  0  0  0  0  0  0  0  0
  3  2  1  0
  4  2  2  0
  5  2  1  0
  7  6  1  0
  8  6  2  0
  9  6  1  0
 11 10  1  0
 12 10  2  0
 13 10  1  0
  5 14  1  0
  5 15  1  0
  5 16  1  0
  9 17  1  0
  9 18  1  0
  9 19  1  0
 13 20  1  0
 13 21  1  0
 13 22  1  0
M  CHG  4   1   3   3  -1   7  -1  11  -1
M  END
> <Uni-Dock RESULT> 
ENERGY=   -7.640  LOWER_BOUND=    1.950  UPPER_BOUND=    2.244
INTER + INTRA:          -7.640
INTER:                  -7.640
INTRA:                   0.000
UNBOUND:                 0.000

$$$$

     RDKit          3D

 22 18  0  0  0  0  0  0  0  0999 V2000
   47.3989    2.6705    6.1377 Al  0  0  0  0  0 15  0  0  0  0  0  0
   46.9879    2.8766    6.8288 C   0  0  0  0  0  0  0  0  0  0  0  0
   46.3731    1.8572    7.5613 O   0  0  0  0  0  0  0  0  0  0  0  0
   46.9351    4.0880    7.2037 O   0  0  0  0  0  0  0  0  0  0  0  0
   47.7121    2.5223    5.5921 C   0  0  0  0  0  0  0  0  0  0  0  0
   47.0716    2.8978    6.8683 C   0  0  0  0  0  0  0  0  0  0  0  0
   46.8182    1.9232    7.8487 O   0  0  0  0  0  0  0  0  0  0  0  0
   46.8169    4.1173    7.0573 O   0  0  0  0  0  0  0  0  0  0  0  0
   47.6566    2.5029    5.5620 C   0  0  0  0  0  0  0  0  0  0  0  0
   47.1186    2.7031    6.9193 C   0  0  0  0  0  0  0  0  0  0  0  0
   46.5914    3.9516    7.2603 O   0  0  0  0  0  0  0  0  0  0  0  0
   47.1344    1.7344    7.7234 O   0  0  0  0  0  0  0  0  0  0  0  0
   47.6659    2.5895    5.5307 C   0  0  0  0  0  0  0  0  0  0  0  0
   48.1479    3.4395    5.1316 H   0  0  0  0  0  0  0  0  0  0  0  0
   47.0469    2.0552    4.8438 H   0  0  0  0  0  0  0  0  0  0  0  0
   48.5894    1.8545    5.8025 H   0  0  0  0  0  0  0  0  0  0  0  0
   47.0941    3.0415    4.7604 H   0  0  0  0  0  0  0  0  0  0  0  0
   48.7224    2.7987    5.4783 H   0  0  0  0  0  0  0  0  0  0  0  0
   47.6127    1.4119    5.3890 H   0  0  0  0  0  0  0  0  0  0  0  0
   48.2305    3.5089    5.2548 H   0  0  0  0  0  0  0  0  0  0  0  0
   46.7671    2.5230    4.8602 H   0  0  0  0  0  0  0  0  0  0  0  0
   48.2847    1.6827    5.4151 H   0  0  0  0  0  0  0  0  0  0  0  0
  3  2  1  0
  4  2  2  0
  5  2  1  0
  7  6  1  0
  8  6  2  0
  9  6  1  0
 11 10  1  0
 12 10  2  0
 13 10  1  0
  5 14  1  0
  5 15  1  0
  5 16  1  0
  9 17  1  0
  9 18  1  0
  9 19  1  0
 13 20  1  0
 13 21  1  0
 13 22  1  0
M  CHG  4   1   3   3  -1   7  -1  11  -1
M  END
> <Uni-Dock RESULT> 
ENERGY=   -7.085  LOWER_BOUND=    1.548  UPPER_BOUND=    1.858
INTER + INTRA:          -7.085
INTER:                  -7.085
INTRA:                   0.000
UNBOUND:                 0.000

$$$$

     RDKit          3D

 22 18  0  0  0  0  0  0  0  0999 V2000
   46.2056    3.6623    7.3950 Al  0  0  0  0  0 15  0  0  0  0  0  0
   45.6547    3.9753    7.9314 C   0  0  0  0  0  0  0  0  0  0  0  0
   44.3642    3.4382    7.9424 O   0  0  0  0  0  0  0  0  0  0  0  0
   45.9914    4.9101    8.7210 O   0  0  0  0  0  0  0  0  0  0  0  0
   46.6390    3.4335    6.9738 C   0  0  0  0  0  0  0  0  0  0  0  0
   45.7056    3.9364    8.0013 C   0  0  0  0  0  0  0  0  0  0  0  0
   44.5749    3.1837    8.3619 O   0  0  0  0  0  0  0  0  0  0  0  0
   45.9925    5.0243    8.5686 O   0  0  0  0  0  0  0  0  0  0  0  0
   46.6047    3.4557    6.9218 C   0  0  0  0  0  0  0  0  0  0  0  0
   45.6237    3.7476    7.9821 C   0  0  0  0  0  0  0  0  0  0  0  0
   45.6491    5.0007    8.6004 O   0  0  0  0  0  0  0  0  0  0  0  0
   44.7804    2.8628    8.2840 O   0  0  0  0  0  0  0  0  0  0  0  0
   46.6675    3.5227    6.9331 C   0  0  0  0  0  0  0  0  0  0  0  0
   47.6148    3.9595    7.0943 H   0  0  0  0  0  0  0  0  0  0  0  0
   46.3130    3.5676    5.9267 H   0  0  0  0  0  0  0  0  0  0  0  0
   46.8619    2.3522    7.1757 H   0  0  0  0  0  0  0  0  0  0  0  0
   46.8483    4.3286    6.2678 H   0  0  0  0  0  0  0  0  0  0  0  0
   47.5610    3.0620    7.3229 H   0  0  0  0  0  0  0  0  0  0  0  0
   46.1520    2.6456    6.3209 H   0  0  0  0  0  0  0  0  0  0  0  0
   47.6453    3.9477    7.2546 H   0  0  0  0  0  0  0  0  0  0  0  0
   46.3186    4.1018    6.0359 H   0  0  0  0  0  0  0  0  0  0  0  0
   46.7545    2.4530    6.6750 H   0  0  0  0  0  0  0  0  0  0  0  0
  3  2  1  0
  4  2  2  0
  5  2  1  0
  7  6  1  0
  8  6  2  0
  9  6  1  0
 11 10  1  0
 12 10  2  0
 13 10  1  0
  5 14  1  0
  5 15  1  0
  5 16  1  0
  9 17  1  0
  9 18  1  0
  9 19  1  0
 13 20  1  0
 13 21  1  0
 13 22  1  0
M  CHG  4   1   3   3  -1   7  -1  11  -1
M  END
> <Uni-Dock RESULT> 
ENERGY=   -6.487  LOWER_BOUND=    2.936  UPPER_BOUND=    3.343
INTER + INTRA:          -6.487
INTER:                  -6.487
INTRA:                   0.000
UNBOUND:                 0.000

$$$$

     RDKit          3D

 22 18  0  0  0  0  0  0  0  0999 V2000
   45.0630    2.7984    8.7076 Al  0  0  0  0  0 15  0  0  0  0  0  0
   45.0604    3.5791    8.4258 C   0  0  0  0  0  0  0  0  0  0  0  0
   46.1927    4.0416    7.7492 O   0  0  0  0  0  0  0  0  0  0  0  0
   44.0448    4.3193    8.6035 O   0  0  0  0  0  0  0  0  0  0  0  0
   45.0589    2.1956    8.9408 C   0  0  0  0  0  0  0  0  0  0  0  0
   44.9946    3.5527    8.3628 C   0  0  0  0  0  0  0  0  0  0  0  0
   45.8759    3.9284    7.3346 O   0  0  0  0  0  0  0  0  0  0  0  0
   44.0949    4.3261    8.7872 O   0  0  0  0  0  0  0  0  0  0  0  0
   45.1074    2.2087    8.9838 C   0  0  0  0  0  0  0  0  0  0  0  0
   45.1287    3.4732    8.2272 C   0  0  0  0  0  0  0  0  0  0  0  0
   44.3404    4.5391    8.6692 O   0  0  0  0  0  0  0  0  0  0  0  0
   45.8731    3.5582    7.2153 O   0  0  0  0  0  0  0  0  0  0  0  0
   45.0320    2.2178    9.0368 C   0  0  0  0  0  0  0  0  0  0  0  0
   44.0887    1.9799    9.4462 H   0  0  0  0  0  0  0  0  0  0  0  0
   45.8651    2.0288    9.6777 H   0  0  0  0  0  0  0  0  0  0  0  0
   45.1304    1.4442    8.1102 H   0  0  0  0  0  0  0  0  0  0  0  0
   45.0184    2.3366   10.0905 H   0  0  0  0  0  0  0  0  0  0  0  0
   44.2907    1.5318    8.6593 H   0  0  0  0  0  0  0  0  0  0  0  0
   46.0591    1.7041    8.7352 H   0  0  0  0  0  0  0  0  0  0  0  0
   43.9769    2.0232    9.3349 H   0  0  0  0  0  0  0  0  0  0  0  0
   45.6224    2.4191    9.9711 H   0  0  0  0  0  0  0  0  0  0  0  0
   45.4676    1.3578    8.4991 H   0  0  0  0  0  0  0  0  0  0  0  0
  3  2  1  0
  4  2  2  0
  5  2  1  0
  7  6  1  0
  8  6  2  0
  9  6  1  0
 11 10  1  0
 12 10  2  0
 13 10  1  0
  5 14  1  0
  5 15  1  0
  5 16  1  0
  9 17  1  0
  9 18  1  0
  9 19  1  0
 13 20  1  0
 13 21  1  0
 13 22  1  0
M  CHG  4   1   3   3  -1   7  -1  11  -1
M  END
> <Uni-Dock RESULT> 
ENERGY=   -6.099  LOWER_BOUND=    3.375  UPPER_BOUND=    3.889
INTER + INTRA:          -6.099
INTER:                  -6.099
INTRA:                   0.000
UNBOUND:                 0.000

$$$$

     RDKit          3D

 22 18  0  0  0  0  0  0  0  0999 V2000
   44.9566    3.0992    8.6180 Al  0  0  0  0  0 15  0  0  0  0  0  0
   45.0436    2.4159    9.0813 C   0  0  0  0  0  0  0  0  0  0  0  0
   44.6775    2.4797   10.4288 O   0  0  0  0  0  0  0  0  0  0  0  0
   45.4898    1.3460    8.5645 O   0  0  0  0  0  0  0  0  0  0  0  0
   44.9033    3.6285    8.2511 C   0  0  0  0  0  0  0  0  0  0  0  0
   44.9730    2.3770    9.0312 C   0  0  0  0  0  0  0  0  0  0  0  0
   44.2439    2.2436   10.2253 O   0  0  0  0  0  0  0  0  0  0  0  0
   45.6597    1.4319    8.5588 O   0  0  0  0  0  0  0  0  0  0  0  0
   44.9493    3.6608    8.2857 C   0  0  0  0  0  0  0  0  0  0  0  0
   44.8213    2.4663    9.1393 C   0  0  0  0  0  0  0  0  0  0  0  0
   45.6553    1.3710    8.8991 O   0  0  0  0  0  0  0  0  0  0  0  0
   43.9751    2.4790   10.0716 O   0  0  0  0  0  0  0  0  0  0  0  0
   44.9983    3.6293    8.2137 C   0  0  0  0  0  0  0  0  0  0  0  0
   45.2288    3.4131    7.2066 H   0  0  0  0  0  0  0  0  0  0  0  0
   45.5219    4.4618    8.6299 H   0  0  0  0  0  0  0  0  0  0  0  0
   43.8312    3.9492    8.1639 H   0  0  0  0  0  0  0  0  0  0  0  0
   45.9971    3.8921    7.9729 H   0  0  0  0  0  0  0  0  0  0  0  0
   44.3331    3.5951    7.3658 H   0  0  0  0  0  0  0  0  0  0  0  0
   44.5398    4.4936    8.8865 H   0  0  0  0  0  0  0  0  0  0  0  0
   45.1436    3.2792    7.1666 H   0  0  0  0  0  0  0  0  0  0  0  0
   45.9473    4.1317    8.5438 H   0  0  0  0  0  0  0  0  0  0  0  0
   44.1553    4.3377    8.2921 H   0  0  0  0  0  0  0  0  0  0  0  0
  3  2  1  0
  4  2  2  0
  5  2  1  0
  7  6  1  0
  8  6  2  0
  9  6  1  0
 11 10  1  0
 12 10  2  0
 13 10  1  0
  5 14  1  0
  5 15  1  0
  5 16  1  0
  9 17  1  0
  9 18  1  0
  9 19  1  0
 13 20  1  0
 13 21  1  0
 13 22  1  0
M  CHG  4   1   3   3  -1   7  -1  11  -1
M  END
> <Uni-Dock RESULT> 
ENERGY=   -5.918  LOWER_BOUND=    3.233  UPPER_BOUND=    3.905
INTER + INTRA:          -5.918
INTER:                  -5.918
INTRA:                   0.000
UNBOUND:                 0.000

$$$$

     RDKit          3D

 22 18  0  0  0  0  0  0  0  0999 V2000
   43.2252    4.8234   11.5102 Al  0  0  0  0  0 15  0  0  0  0  0  0
   42.7690    5.2986   12.0153 C   0  0  0  0  0  0  0  0  0  0  0  0
   42.6568    4.9206   13.3563 O   0  0  0  0  0  0  0  0  0  0  0  0
   42.2015    6.3430   11.5703 O   0  0  0  0  0  0  0  0  0  0  0  0
   43.5689    4.4544   11.1060 C   0  0  0  0  0  0  0  0  0  0  0  0
   42.8355    5.3657   12.0069 C   0  0  0  0  0  0  0  0  0  0  0  0
   43.0315    5.2988   13.3969 O   0  0  0  0  0  0  0  0  0  0  0  0
   42.0815    6.2264   11.4793 O   0  0  0  0  0  0  0  0  0  0  0  0
   43.5270    4.4036   11.1120 C   0  0  0  0  0  0  0  0  0  0  0  0
   42.9621    5.2851   12.1490 C   0  0  0  0  0  0  0  0  0  0  0  0
   41.9503    6.1823   11.7961 O   0  0  0  0  0  0  0  0  0  0  0  0
   43.3976    5.1877   13.3264 O   0  0  0  0  0  0  0  0  0  0  0  0
   43.4980    4.4431   11.0334 C   0  0  0  0  0  0  0  0  0  0  0  0
   43.5649    4.8917   10.0804 H   0  0  0  0  0  0  0  0  0  0  0  0
   43.1660    3.4281   11.0344 H   0  0  0  0  0  0  0  0  0  0  0  0
   44.6493    4.4271   11.4090 H   0  0  0  0  0  0  0  0  0  0  0  0
   42.7834    4.0442   10.3590 H   0  0  0  0  0  0  0  0  0  0  0  0
   44.3611    4.8793   10.5566 H   0  0  0  0  0  0  0  0  0  0  0  0
   43.9565    3.5456   11.6611 H   0  0  0  0  0  0  0  0  0  0  0  0
   43.6101    5.0472   10.1046 H   0  0  0  0  0  0  0  0  0  0  0  0
   42.7121    3.6631   10.8443 H   0  0  0  0  0  0  0  0  0  0  0  0
   44.4464    3.9550   11.3178 H   0  0  0  0  0  0  0  0  0  0  0  0
  3  2  1  0
  4  2  2  0
  5  2  1  0
  7  6  1  0
  8  6  2  0
  9  6  1  0
 11 10  1  0
 12 10  2  0
 13 10  1  0
  5 14  1  0
  5 15  1  0
  5 16  1  0
  9 17  1  0
  9 18  1  0
  9 19  1  0
 13 20  1  0
 13 21  1  0
 13 22  1  0
M  CHG  4   1   3   3  -1   7  -1  11  -1
M  END
> <Uni-Dock RESULT> 
ENERGY=   -5.373  LOWER_BOUND=    7.608  UPPER_BOUND=    8.003
INTER + INTRA:          -5.373
INTER:                  -5.373
INTRA:                   0.000
UNBOUND:                 0.000

$$$$
