
     RDKit          3D

 22 18  0  0  0  0  0  0  0  0999 V2000
   47.1044    2.7579    6.6712 Al  0  0  0  0  0 15  0  0  0  0  0  0
   47.4958    2.0458    6.5256 C   0  0  0  0  0  0  0  0  0  0  0  0
   47.3507    0.9376    7.3236 O   0  0  0  0  0  0  0  0  0  0  0  0
   48.2596    1.9641    5.5323 O   0  0  0  0  0  0  0  0  0  0  0  0
   46.8065    3.3154    6.7733 C   0  0  0  0  0  0  0  0  0  0  0  0
   47.6574    2.1498    6.4873 C   0  0  0  0  0  0  0  0  0  0  0  0
   47.6347    1.0853    7.4086 O   0  0  0  0  0  0  0  0  0  0  0  0
   48.4333    2.1504    5.4951 O   0  0  0  0  0  0  0  0  0  0  0  0
   46.7055    3.2709    6.7641 C   0  0  0  0  0  0  0  0  0  0  0  0
   47.5061    2.0602    6.4986 C   0  0  0  0  0  0  0  0  0  0  0  0
   47.3681    0.9447    7.3108 O   0  0  0  0  0  0  0  0  0  0  0  0
   48.2680    1.9471    5.4952 O   0  0  0  0  0  0  0  0  0  0  0  0
   46.7864    3.3266    6.8030 C   0  0  0  0  0  0  0  0  0  0  0  0
   46.2262    3.6580    5.8788 H   0  0  0  0  0  0  0  0  0  0  0  0
   47.5233    4.1255    7.0698 H   0  0  0  0  0  0  0  0  0  0  0  0
   46.0683    3.2592    7.5950 H   0  0  0  0  0  0  0  0  0  0  0  0
   47.1185    4.0211    7.4518 H   0  0  0  0  0  0  0  0  0  0  0  0
   46.3941    3.7584    5.8125 H   0  0  0  0  0  0  0  0  0  0  0  0
   45.7872    2.8696    7.2790 H   0  0  0  0  0  0  0  0  0  0  0  0
   47.3365    3.9207    7.5878 H   0  0  0  0  0  0  0  0  0  0  0  0
   45.7285    3.1307    7.0965 H   0  0  0  0  0  0  0  0  0  0  0  0
   46.7370    3.9756    5.9064 H   0  0  0  0  0  0  0  0  0  0  0  0
  3  2  1  0
  4  2  2  0
  5  2  1  0
  7  6  1  0
  8  6  2  0
  9  6  1  0
 11 10  1  0
 12 10  2  0
 13 10  1  0
  5 14  1  0
  5 15  1  0
  5 16  1  0
  9 17  1  0
  9 18  1  0
  9 19  1  0
 13 20  1  0
 13 21  1  0
 13 22  1  0
M  CHG  4   1   3   3  -1   7  -1  11  -1
M  END
> <Uni-Dock RESULT> 
ENERGY=   -8.335  LOWER_BOUND=    0.000  UPPER_BOUND=    0.000
INTER + INTRA:          -8.335
INTER:                  -8.335
INTRA:                   0.000
UNBOUND:                 0.000

$$$$

     RDKit          3D

 22 18  0  0  0  0  0  0  0  0999 V2000
   47.1233    2.9740    6.6132 Al  0  0  0  0  0 15  0  0  0  0  0  0
   47.6738    2.4372    6.3127 C   0  0  0  0  0  0  0  0  0  0  0  0
   48.1982    2.5354    5.0473 O   0  0  0  0  0  0  0  0  0  0  0  0
   48.0537    1.4857    7.0388 O   0  0  0  0  0  0  0  0  0  0  0  0
   46.6962    3.3836    6.8577 C   0  0  0  0  0  0  0  0  0  0  0  0
   47.5664    2.2931    6.3908 C   0  0  0  0  0  0  0  0  0  0  0  0
   47.9587    2.3067    5.0387 O   0  0  0  0  0  0  0  0  0  0  0  0
   47.8757    1.3453    7.1606 O   0  0  0  0  0  0  0  0  0  0  0  0
   46.7639    3.4707    6.8478 C   0  0  0  0  0  0  0  0  0  0  0  0
   47.6734    2.4245    6.3424 C   0  0  0  0  0  0  0  0  0  0  0  0
   48.1944    2.5174    5.0606 O   0  0  0  0  0  0  0  0  0  0  0  0
   48.0846    1.4670    7.0596 O   0  0  0  0  0  0  0  0  0  0  0  0
   46.6770    3.4111    6.8407 C   0  0  0  0  0  0  0  0  0  0  0  0
   47.0362    3.8228    7.8303 H   0  0  0  0  0  0  0  0  0  0  0  0
   45.6942    2.9033    7.0099 H   0  0  0  0  0  0  0  0  0  0  0  0
   46.5106    4.2503    6.1961 H   0  0  0  0  0  0  0  0  0  0  0  0
   45.6878    3.3511    6.6633 H   0  0  0  0  0  0  0  0  0  0  0  0
   46.9444    3.6663    7.9291 H   0  0  0  0  0  0  0  0  0  0  0  0
   47.0658    4.3849    6.2624 H   0  0  0  0  0  0  0  0  0  0  0  0
   45.6410    3.1506    6.4796 H   0  0  0  0  0  0  0  0  0  0  0  0
   46.9640    4.4522    6.5624 H   0  0  0  0  0  0  0  0  0  0  0  0
   46.6284    3.3954    7.9474 H   0  0  0  0  0  0  0  0  0  0  0  0
  3  2  1  0
  4  2  2  0
  5  2  1  0
  7  6  1  0
  8  6  2  0
  9  6  1  0
 11 10  1  0
 12 10  2  0
 13 10  1  0
  5 14  1  0
  5 15  1  0
  5 16  1  0
  9 17  1  0
  9 18  1  0
  9 19  1  0
 13 20  1  0
 13 21  1  0
 13 22  1  0
M  CHG  4   1   3   3  -1   7  -1  11  -1
M  END
> <Uni-Dock RESULT> 
ENERGY=   -8.309  LOWER_BOUND=    0.456  UPPER_BOUND=    1.605
INTER + INTRA:          -8.309
INTER:                  -8.309
INTRA:                   0.000
UNBOUND:                 0.000

$$$$

     RDKit          3D

 22 18  0  0  0  0  0  0  0  0999 V2000
   47.3289    1.5636    7.0044 Al  0  0  0  0  0 15  0  0  0  0  0  0
   46.8124    1.1755    7.5183 C   0  0  0  0  0  0  0  0  0  0  0  0
   45.9296    1.8410    8.3329 O   0  0  0  0  0  0  0  0  0  0  0  0
   46.8285   -0.0794    7.5630 O   0  0  0  0  0  0  0  0  0  0  0  0
   47.7341    1.8529    6.6018 C   0  0  0  0  0  0  0  0  0  0  0  0
   46.9607    1.0572    7.5677 C   0  0  0  0  0  0  0  0  0  0  0  0
   46.1907    1.7550    8.5177 O   0  0  0  0  0  0  0  0  0  0  0  0
   47.0554   -0.1987    7.5857 O   0  0  0  0  0  0  0  0  0  0  0  0
   47.6529    1.9011    6.5439 C   0  0  0  0  0  0  0  0  0  0  0  0
   46.8237    1.1484    7.5047 C   0  0  0  0  0  0  0  0  0  0  0  0
   45.9401    1.8210    8.3353 O   0  0  0  0  0  0  0  0  0  0  0  0
   46.8088   -0.1154    7.5563 O   0  0  0  0  0  0  0  0  0  0  0  0
   47.7426    1.8894    6.5985 C   0  0  0  0  0  0  0  0  0  0  0  0
   47.6274    1.4814    5.5506 H   0  0  0  0  0  0  0  0  0  0  0  0
   48.8021    1.7291    6.9210 H   0  0  0  0  0  0  0  0  0  0  0  0
   47.5684    2.9449    6.5428 H   0  0  0  0  0  0  0  0  0  0  0  0
   48.6309    2.2676    6.8838 H   0  0  0  0  0  0  0  0  0  0  0  0
   47.7690    1.3366    5.5910 H   0  0  0  0  0  0  0  0  0  0  0  0
   47.0431    2.8266    6.3408 H   0  0  0  0  0  0  0  0  0  0  0  0
   48.6544    2.2461    7.1578 H   0  0  0  0  0  0  0  0  0  0  0  0
   47.2160    2.7279    6.0854 H   0  0  0  0  0  0  0  0  0  0  0  0
   48.1171    1.2280    5.7925 H   0  0  0  0  0  0  0  0  0  0  0  0
  3  2  1  0
  4  2  2  0
  5  2  1  0
  7  6  1  0
  8  6  2  0
  9  6  1  0
 11 10  1  0
 12 10  2  0
 13 10  1  0
  5 14  1  0
  5 15  1  0
  5 16  1  0
  9 17  1  0
  9 18  1  0
  9 19  1  0
 13 20  1  0
 13 21  1  0
 13 22  1  0
M  CHG  4   1   3   3  -1   7  -1  11  -1
M  END
> <Uni-Dock RESULT> 
ENERGY=   -7.923  LOWER_BOUND=    1.912  UPPER_BOUND=    2.185
INTER + INTRA:          -7.923
INTER:                  -7.923
INTRA:                   0.000
UNBOUND:                 0.000

$$$$

     RDKit          3D

 22 18  0  0  0  0  0  0  0  0999 V2000
   47.5151    1.8325    6.7313 Al  0  0  0  0  0 15  0  0  0  0  0  0
   47.0779    1.4528    7.3196 C   0  0  0  0  0  0  0  0  0  0  0  0
   47.1110    0.0939    7.5148 O   0  0  0  0  0  0  0  0  0  0  0  0
   46.3473    2.1415    8.0740 O   0  0  0  0  0  0  0  0  0  0  0  0
   47.8494    2.1386    6.2791 C   0  0  0  0  0  0  0  0  0  0  0  0
   46.9259    1.5667    7.2714 C   0  0  0  0  0  0  0  0  0  0  0  0
   46.8358    0.1635    7.3442 O   0  0  0  0  0  0  0  0  0  0  0  0
   46.1894    2.3146    7.9676 O   0  0  0  0  0  0  0  0  0  0  0  0
   47.9471    2.1050    6.3190 C   0  0  0  0  0  0  0  0  0  0  0  0
   47.0697    1.4826    7.3289 C   0  0  0  0  0  0  0  0  0  0  0  0
   47.0947    0.1092    7.5186 O   0  0  0  0  0  0  0  0  0  0  0  0
   46.3391    2.1556    8.1123 O   0  0  0  0  0  0  0  0  0  0  0  0
   47.8692    2.1245    6.2504 C   0  0  0  0  0  0  0  0  0  0  0  0
   48.4861    2.9575    6.7014 H   0  0  0  0  0  0  0  0  0  0  0  0
   47.1839    2.5717    5.4869 H   0  0  0  0  0  0  0  0  0  0  0  0
   48.5505    1.4717    5.7434 H   0  0  0  0  0  0  0  0  0  0  0  0
   47.5655    2.2006    5.2936 H   0  0  0  0  0  0  0  0  0  0  0  0
   48.3286    3.0886    6.6755 H   0  0  0  0  0  0  0  0  0  0  0  0
   48.8136    1.3883    6.2479 H   0  0  0  0  0  0  0  0  0  0  0  0
   47.3358    2.0516    5.2596 H   0  0  0  0  0  0  0  0  0  0  0  0
   48.8981    1.6974    6.2003 H   0  0  0  0  0  0  0  0  0  0  0  0
   47.9994    3.2067    6.4491 H   0  0  0  0  0  0  0  0  0  0  0  0
  3  2  1  0
  4  2  2  0
  5  2  1  0
  7  6  1  0
  8  6  2  0
  9  6  1  0
 11 10  1  0
 12 10  2  0
 13 10  1  0
  5 14  1  0
  5 15  1  0
  5 16  1  0
  9 17  1  0
  9 18  1  0
  9 19  1  0
 13 20  1  0
 13 21  1  0
 13 22  1  0
M  CHG  4   1   3   3  -1   7  -1  11  -1
M  END
> <Uni-Dock RESULT> 
ENERGY=   -7.871  LOWER_BOUND=    1.750  UPPER_BOUND=    1.935
INTER + INTRA:          -7.871
INTER:                  -7.871
INTRA:                   0.000
UNBOUND:                 0.000

$$$$

     RDKit          3D

 22 18  0  0  0  0  0  0  0  0999 V2000
   45.7774    3.4286    7.7066 Al  0  0  0  0  0 15  0  0  0  0  0  0
   45.1432    3.3071    8.2210 C   0  0  0  0  0  0  0  0  0  0  0  0
   44.1814    4.2581    8.4579 O   0  0  0  0  0  0  0  0  0  0  0  0
   45.0467    2.2061    8.8173 O   0  0  0  0  0  0  0  0  0  0  0  0
   46.2735    3.5106    7.3103 C   0  0  0  0  0  0  0  0  0  0  0  0
   45.2692    3.2251    8.3468 C   0  0  0  0  0  0  0  0  0  0  0  0
   44.3950    4.2671    8.7109 O   0  0  0  0  0  0  0  0  0  0  0  0
   45.2546    2.1120    8.9362 O   0  0  0  0  0  0  0  0  0  0  0  0
   46.2089    3.5268    7.2218 C   0  0  0  0  0  0  0  0  0  0  0  0
   45.1545    3.2769    8.2234 C   0  0  0  0  0  0  0  0  0  0  0  0
   44.1895    4.2415    8.4711 O   0  0  0  0  0  0  0  0  0  0  0  0
   45.0256    2.1707    8.8233 O   0  0  0  0  0  0  0  0  0  0  0  0
   46.2854    3.5418    7.2931 C   0  0  0  0  0  0  0  0  0  0  0  0
   46.3357    2.7056    6.5341 H   0  0  0  0  0  0  0  0  0  0  0  0
   47.2486    3.5545    7.8628 H   0  0  0  0  0  0  0  0  0  0  0  0
   46.2128    4.4580    6.7429 H   0  0  0  0  0  0  0  0  0  0  0  0
   47.1326    4.0171    7.5574 H   0  0  0  0  0  0  0  0  0  0  0  0
   46.4547    2.5959    6.6623 H   0  0  0  0  0  0  0  0  0  0  0  0
   45.7269    4.2561    6.5110 H   0  0  0  0  0  0  0  0  0  0  0  0
   47.1023    4.1212    7.8111 H   0  0  0  0  0  0  0  0  0  0  0  0
   45.9359    4.0551    6.3668 H   0  0  0  0  0  0  0  0  0  0  0  0
   46.7486    2.5929    6.9576 H   0  0  0  0  0  0  0  0  0  0  0  0
  3  2  1  0
  4  2  2  0
  5  2  1  0
  7  6  1  0
  8  6  2  0
  9  6  1  0
 11 10  1  0
 12 10  2  0
 13 10  1  0
  5 14  1  0
  5 15  1  0
  5 16  1  0
  9 17  1  0
  9 18  1  0
  9 19  1  0
 13 20  1  0
 13 21  1  0
 13 22  1  0
M  CHG  4   1   3   3  -1   7  -1  11  -1
M  END
> <Uni-Dock RESULT> 
ENERGY=   -6.397  LOWER_BOUND=    2.930  UPPER_BOUND=    3.584
INTER + INTRA:          -6.397
INTER:                  -6.397
INTRA:                   0.000
UNBOUND:                 0.000

$$$$

     RDKit          3D

 22 18  0  0  0  0  0  0  0  0999 V2000
   45.0463    2.8016    8.7127 Al  0  0  0  0  0 15  0  0  0  0  0  0
   45.0202    3.5276    8.3205 C   0  0  0  0  0  0  0  0  0  0  0  0
   45.9287    3.8879    7.3558 O   0  0  0  0  0  0  0  0  0  0  0  0
   44.1124    4.3443    8.6133 O   0  0  0  0  0  0  0  0  0  0  0  0
   45.0558    2.2421    9.0238 C   0  0  0  0  0  0  0  0  0  0  0  0
   44.9837    3.6125    8.4934 C   0  0  0  0  0  0  0  0  0  0  0  0
   46.0195    4.0350    7.6384 O   0  0  0  0  0  0  0  0  0  0  0  0
   44.0683    4.3953    8.8617 O   0  0  0  0  0  0  0  0  0  0  0  0
   45.0433    2.1826    8.9312 C   0  0  0  0  0  0  0  0  0  0  0  0
   44.9927    3.5322    8.3367 C   0  0  0  0  0  0  0  0  0  0  0  0
   45.9167    3.9004    7.3705 O   0  0  0  0  0  0  0  0  0  0  0  0
   44.0784    4.3653    8.6016 O   0  0  0  0  0  0  0  0  0  0  0  0
   45.0821    2.2152    9.0239 C   0  0  0  0  0  0  0  0  0  0  0  0
   44.0806    1.6965    8.9479 H   0  0  0  0  0  0  0  0  0  0  0  0
   45.3140    2.3693   10.1078 H   0  0  0  0  0  0  0  0  0  0  0  0
   45.8123    1.5435    8.6201 H   0  0  0  0  0  0  0  0  0  0  0  0
   45.6698    2.0348    9.8210 H   0  0  0  0  0  0  0  0  0  0  0  0
   44.0175    1.7922    9.1196 H   0  0  0  0  0  0  0  0  0  0  0  0
   45.5220    1.5590    8.1240 H   0  0  0  0  0  0  0  0  0  0  0  0
   45.8349    2.2519    9.8626 H   0  0  0  0  0  0  0  0  0  0  0  0
   45.3055    1.3958    8.3012 H   0  0  0  0  0  0  0  0  0  0  0  0
   44.1139    1.9504    9.4928 H   0  0  0  0  0  0  0  0  0  0  0  0
  3  2  1  0
  4  2  2  0
  5  2  1  0
  7  6  1  0
  8  6  2  0
  9  6  1  0
 11 10  1  0
 12 10  2  0
 13 10  1  0
  5 14  1  0
  5 15  1  0
  5 16  1  0
  9 17  1  0
  9 18  1  0
  9 19  1  0
 13 20  1  0
 13 21  1  0
 13 22  1  0
M  CHG  4   1   3   3  -1   7  -1  11  -1
M  END
> <Uni-Dock RESULT> 
ENERGY=   -6.233  LOWER_BOUND=    3.481  UPPER_BOUND=    3.980
INTER + INTRA:          -6.233
INTER:                  -6.233
INTRA:                   0.000
UNBOUND:                 0.000

$$$$

     RDKit          3D

 22 18  0  0  0  0  0  0  0  0999 V2000
   45.7970    3.3351    7.7276 Al  0  0  0  0  0 15  0  0  0  0  0  0
   46.4028    3.0870    7.2247 C   0  0  0  0  0  0  0  0  0  0  0  0
   47.0150    1.8632    7.3404 O   0  0  0  0  0  0  0  0  0  0  0  0
   46.7874    3.8573    6.3104 O   0  0  0  0  0  0  0  0  0  0  0  0
   45.3265    3.5389    8.1110 C   0  0  0  0  0  0  0  0  0  0  0  0
   46.4810    3.2660    7.2409 C   0  0  0  0  0  0  0  0  0  0  0  0
   47.2134    2.0878    7.4814 O   0  0  0  0  0  0  0  0  0  0  0  0
   46.8392    4.1023    6.3698 O   0  0  0  0  0  0  0  0  0  0  0  0
   45.2585    3.4560    8.0830 C   0  0  0  0  0  0  0  0  0  0  0  0
   46.3970    3.1144    7.2087 C   0  0  0  0  0  0  0  0  0  0  0  0
   47.0227    1.8832    7.3326 O   0  0  0  0  0  0  0  0  0  0  0  0
   46.7910    3.8650    6.2697 O   0  0  0  0  0  0  0  0  0  0  0  0
   45.3133    3.5237    8.1428 C   0  0  0  0  0  0  0  0  0  0  0  0
   44.4174    3.8547    7.5381 H   0  0  0  0  0  0  0  0  0  0  0  0
   45.6556    4.3904    8.7625 H   0  0  0  0  0  0  0  0  0  0  0  0
   44.9742    2.7543    8.8064 H   0  0  0  0  0  0  0  0  0  0  0  0
   45.4750    3.9354    9.0472 H   0  0  0  0  0  0  0  0  0  0  0  0
   44.4941    4.0462    7.5285 H   0  0  0  0  0  0  0  0  0  0  0  0
   44.8178    2.4521    8.3428 H   0  0  0  0  0  0  0  0  0  0  0  0
   45.7443    3.9219    9.1057 H   0  0  0  0  0  0  0  0  0  0  0  0
   44.5970    2.6882    8.3228 H   0  0  0  0  0  0  0  0  0  0  0  0
   44.7138    4.3494    7.7112 H   0  0  0  0  0  0  0  0  0  0  0  0
  3  2  1  0
  4  2  2  0
  5  2  1  0
  7  6  1  0
  8  6  2  0
  9  6  1  0
 11 10  1  0
 12 10  2  0
 13 10  1  0
  5 14  1  0
  5 15  1  0
  5 16  1  0
  9 17  1  0
  9 18  1  0
  9 19  1  0
 13 20  1  0
 13 21  1  0
 13 22  1  0
M  CHG  4   1   3   3  -1   7  -1  11  -1
M  END
> <Uni-Dock RESULT> 
ENERGY=   -6.152  LOWER_BOUND=    1.720  UPPER_BOUND=    1.901
INTER + INTRA:          -6.152
INTER:                  -6.152
INTRA:                   0.000
UNBOUND:                 0.000

$$$$

     RDKit          3D

 22 18  0  0  0  0  0  0  0  0999 V2000
   45.0321    2.8010    8.7352 Al  0  0  0  0  0 15  0  0  0  0  0  0
   44.9888    3.5821    8.4716 C   0  0  0  0  0  0  0  0  0  0  0  0
   44.0803    4.4868    8.9636 O   0  0  0  0  0  0  0  0  0  0  0  0
   45.7857    3.9681    7.5811 O   0  0  0  0  0  0  0  0  0  0  0  0
   45.0757    2.1931    8.9313 C   0  0  0  0  0  0  0  0  0  0  0  0
   45.0090    3.5149    8.2886 C   0  0  0  0  0  0  0  0  0  0  0  0
   43.9631    4.3746    8.6748 O   0  0  0  0  0  0  0  0  0  0  0  0
   45.8147    3.8229    7.3707 O   0  0  0  0  0  0  0  0  0  0  0  0
   45.0982    2.2214    9.0360 C   0  0  0  0  0  0  0  0  0  0  0  0
   45.0150    3.5748    8.4542 C   0  0  0  0  0  0  0  0  0  0  0  0
   44.0902    4.4851    8.9432 O   0  0  0  0  0  0  0  0  0  0  0  0
   45.8174    3.9928    7.5701 O   0  0  0  0  0  0  0  0  0  0  0  0
   45.0526    2.1735    8.9536 C   0  0  0  0  0  0  0  0  0  0  0  0
   46.1091    1.9294    9.2731 H   0  0  0  0  0  0  0  0  0  0  0  0
   44.7656    1.4712    8.1309 H   0  0  0  0  0  0  0  0  0  0  0  0
   44.4194    1.9764    9.7947 H   0  0  0  0  0  0  0  0  0  0  0  0
   44.4612    1.4362    8.6072 H   0  0  0  0  0  0  0  0  0  0  0  0
   46.1546    1.8716    9.0801 H   0  0  0  0  0  0  0  0  0  0  0  0
   44.7237    2.3657   10.0888 H   0  0  0  0  0  0  0  0  0  0  0  0
   44.2709    1.5444    8.4393 H   0  0  0  0  0  0  0  0  0  0  0  0
   44.9510    2.1363   10.0635 H   0  0  0  0  0  0  0  0  0  0  0  0
   46.0273    1.7002    8.7223 H   0  0  0  0  0  0  0  0  0  0  0  0
  3  2  1  0
  4  2  2  0
  5  2  1  0
  7  6  1  0
  8  6  2  0
  9  6  1  0
 11 10  1  0
 12 10  2  0
 13 10  1  0
  5 14  1  0
  5 15  1  0
  5 16  1  0
  9 17  1  0
  9 18  1  0
  9 19  1  0
 13 20  1  0
 13 21  1  0
 13 22  1  0
M  CHG  4   1   3   3  -1   7  -1  11  -1
M  END
> <Uni-Dock RESULT> 
ENERGY=   -6.097  LOWER_BOUND=    3.538  UPPER_BOUND=    3.843
INTER + INTRA:          -6.097
INTER:                  -6.097
INTRA:                   0.000
UNBOUND:                 0.000

$$$$

     RDKit          3D

 22 18  0  0  0  0  0  0  0  0999 V2000
   45.1992    3.2735    8.5338 Al  0  0  0  0  0 15  0  0  0  0  0  0
   45.6297    3.8901    8.1934 C   0  0  0  0  0  0  0  0  0  0  0  0
   45.8513    5.0865    8.8302 O   0  0  0  0  0  0  0  0  0  0  0  0
   46.1066    3.7352    7.0420 O   0  0  0  0  0  0  0  0  0  0  0  0
   44.8675    2.7879    8.7871 C   0  0  0  0  0  0  0  0  0  0  0  0
   45.5345    3.8556    8.0256 C   0  0  0  0  0  0  0  0  0  0  0  0
   45.6023    5.1318    8.6164 O   0  0  0  0  0  0  0  0  0  0  0  0
   45.9532    3.6439    6.8567 O   0  0  0  0  0  0  0  0  0  0  0  0
   44.9364    2.7767    8.8730 C   0  0  0  0  0  0  0  0  0  0  0  0
   45.6355    3.8692    8.1694 C   0  0  0  0  0  0  0  0  0  0  0  0
   45.8496    5.0813    8.8081 O   0  0  0  0  0  0  0  0  0  0  0  0
   46.1402    3.7319    7.0176 O   0  0  0  0  0  0  0  0  0  0  0  0
   44.8466    2.7870    8.8183 C   0  0  0  0  0  0  0  0  0  0  0  0
   45.4511    1.8321    8.7949 H   0  0  0  0  0  0  0  0  0  0  0  0
   43.8997    2.6149    8.2472 H   0  0  0  0  0  0  0  0  0  0  0  0
   44.5889    2.9675    9.8422 H   0  0  0  0  0  0  0  0  0  0  0  0
   43.8416    2.7330    8.7980 H   0  0  0  0  0  0  0  0  0  0  0  0
   45.3751    1.7881    8.6079 H   0  0  0  0  0  0  0  0  0  0  0  0
   45.1516    2.9852    9.9592 H   0  0  0  0  0  0  0  0  0  0  0  0
   43.7407    2.9662    8.6905 H   0  0  0  0  0  0  0  0  0  0  0  0
   45.1267    2.6695    9.8914 H   0  0  0  0  0  0  0  0  0  0  0  0
   45.0554    1.8089    8.3416 H   0  0  0  0  0  0  0  0  0  0  0  0
  3  2  1  0
  4  2  2  0
  5  2  1  0
  7  6  1  0
  8  6  2  0
  9  6  1  0
 11 10  1  0
 12 10  2  0
 13 10  1  0
  5 14  1  0
  5 15  1  0
  5 16  1  0
  9 17  1  0
  9 18  1  0
  9 19  1  0
 13 20  1  0
 13 21  1  0
 13 22  1  0
M  CHG  4   1   3   3  -1   7  -1  11  -1
M  END
> <Uni-Dock RESULT> 
ENERGY=   -5.781  LOWER_BOUND=    3.208  UPPER_BOUND=    3.465
INTER + INTRA:          -5.781
INTER:                  -5.781
INTRA:                   0.000
UNBOUND:                 0.000

$$$$
