
     RDKit          3D

 22 18  0  0  0  0  0  0  0  0999 V2000
   47.1236    2.9630    6.5828 Al  0  0  0  0  0 15  0  0  0  0  0  0
   47.5448    2.3331    6.2556 C   0  0  0  0  0  0  0  0  0  0  0  0
   47.7579    1.2382    7.0741 O   0  0  0  0  0  0  0  0  0  0  0  0
   47.9408    2.3884    5.0705 O   0  0  0  0  0  0  0  0  0  0  0  0
   46.7993    3.4979    6.8443 C   0  0  0  0  0  0  0  0  0  0  0  0
   47.7212    2.4203    6.3815 C   0  0  0  0  0  0  0  0  0  0  0  0
   48.2121    2.5856    5.0861 O   0  0  0  0  0  0  0  0  0  0  0  0
   48.1427    1.5272    7.1630 O   0  0  0  0  0  0  0  0  0  0  0  0
   46.6471    3.3749    6.8072 C   0  0  0  0  0  0  0  0  0  0  0  0
   47.5926    2.3823    6.2267 C   0  0  0  0  0  0  0  0  0  0  0  0
   47.8138    1.2390    6.9851 O   0  0  0  0  0  0  0  0  0  0  0  0
   48.0805    2.5272    5.0885 O   0  0  0  0  0  0  0  0  0  0  0  0
   46.7529    3.4396    6.8086 C   0  0  0  0  0  0  0  0  0  0  0  0
   46.2984    3.2366    7.7757 H   0  0  0  0  0  0  0  0  0  0  0  0
   47.5261    4.3080    6.9589 H   0  0  0  0  0  0  0  0  0  0  0  0
   45.9980    3.7387    6.1002 H   0  0  0  0  0  0  0  0  0  0  0  0
   46.4354    3.2998    7.8951 H   0  0  0  0  0  0  0  0  0  0  0  0
   45.7599    3.0994    6.1922 H   0  0  0  0  0  0  0  0  0  0  0  0
   46.9468    4.4337    6.5542 H   0  0  0  0  0  0  0  0  0  0  0  0
   45.7079    3.0681    6.9882 H   0  0  0  0  0  0  0  0  0  0  0  0
   47.2363    3.7353    7.7722 H   0  0  0  0  0  0  0  0  0  0  0  0
   46.6814    4.3493    6.2100 H   0  0  0  0  0  0  0  0  0  0  0  0
  3  2  1  0
  4  2  2  0
  5  2  1  0
  7  6  1  0
  8  6  2  0
  9  6  1  0
 11 10  1  0
 12 10  2  0
 13 10  1  0
  5 14  1  0
  5 15  1  0
  5 16  1  0
  9 17  1  0
  9 18  1  0
  9 19  1  0
 13 20  1  0
 13 21  1  0
 13 22  1  0
M  CHG  4   1   3   3  -1   7  -1  11  -1
M  END
> <Uni-Dock RESULT> 
ENERGY=   -8.279  LOWER_BOUND=    0.000  UPPER_BOUND=    0.000
INTER + INTRA:          -8.279
INTER:                  -8.279
INTRA:                   0.000
UNBOUND:                 0.000

$$$$

     RDKit          3D

 22 18  0  0  0  0  0  0  0  0999 V2000
   47.1390    2.9624    6.6080 Al  0  0  0  0  0 15  0  0  0  0  0  0
   47.7103    2.4278    6.3452 C   0  0  0  0  0  0  0  0  0  0  0  0
   48.1868    2.6118    5.0595 O   0  0  0  0  0  0  0  0  0  0  0  0
   48.1181    1.5195    7.1022 O   0  0  0  0  0  0  0  0  0  0  0  0
   46.6525    3.3792    6.8302 C   0  0  0  0  0  0  0  0  0  0  0  0
   47.5306    2.3332    6.2300 C   0  0  0  0  0  0  0  0  0  0  0  0
   47.8726    1.2905    7.0916 O   0  0  0  0  0  0  0  0  0  0  0  0
   47.7994    2.3188    4.9997 O   0  0  0  0  0  0  0  0  0  0  0  0
   46.8140    3.4941    6.8505 C   0  0  0  0  0  0  0  0  0  0  0  0
   47.6699    2.3728    6.3748 C   0  0  0  0  0  0  0  0  0  0  0  0
   48.2132    2.5206    5.1043 O   0  0  0  0  0  0  0  0  0  0  0  0
   47.9557    1.4068    7.1095 O   0  0  0  0  0  0  0  0  0  0  0  0
   46.7307    3.4024    6.8432 C   0  0  0  0  0  0  0  0  0  0  0  0
   46.5657    4.2573    6.1912 H   0  0  0  0  0  0  0  0  0  0  0  0
   45.7240    2.8043    6.9003 H   0  0  0  0  0  0  0  0  0  0  0  0
   47.0154    3.7368    7.8273 H   0  0  0  0  0  0  0  0  0  0  0  0
   46.4197    4.1938    6.0832 H   0  0  0  0  0  0  0  0  0  0  0  0
   47.5725    3.9812    7.5052 H   0  0  0  0  0  0  0  0  0  0  0  0
   45.9640    3.1252    7.4957 H   0  0  0  0  0  0  0  0  0  0  0  0
   47.2367    4.4029    6.9163 H   0  0  0  0  0  0  0  0  0  0  0  0
   45.8982    3.4362    6.0979 H   0  0  0  0  0  0  0  0  0  0  0  0
   46.2682    3.1951    7.8097 H   0  0  0  0  0  0  0  0  0  0  0  0
  3  2  1  0
  4  2  2  0
  5  2  1  0
  7  6  1  0
  8  6  2  0
  9  6  1  0
 11 10  1  0
 12 10  2  0
 13 10  1  0
  5 14  1  0
  5 15  1  0
  5 16  1  0
  9 17  1  0
  9 18  1  0
  9 19  1  0
 13 20  1  0
 13 21  1  0
 13 22  1  0
M  CHG  4   1   3   3  -1   7  -1  11  -1
M  END
> <Uni-Dock RESULT> 
ENERGY=   -8.199  LOWER_BOUND=    0.097  UPPER_BOUND=    1.598
INTER + INTRA:          -8.199
INTER:                  -8.199
INTRA:                   0.000
UNBOUND:                 0.000

$$$$

     RDKit          3D

 22 18  0  0  0  0  0  0  0  0999 V2000
   47.3412    1.9518    6.6625 Al  0  0  0  0  0 15  0  0  0  0  0  0
   47.4633    2.6433    6.2287 C   0  0  0  0  0  0  0  0  0  0  0  0
   46.8757    3.7954    6.7202 O   0  0  0  0  0  0  0  0  0  0  0  0
   48.1651    2.6215    5.1936 O   0  0  0  0  0  0  0  0  0  0  0  0
   47.2309    1.3712    6.9948 C   0  0  0  0  0  0  0  0  0  0  0  0
   47.2456    2.6033    6.1540 C   0  0  0  0  0  0  0  0  0  0  0  0
   47.9609    2.4902    4.9615 O   0  0  0  0  0  0  0  0  0  0  0  0
   46.5315    3.6033    6.4301 O   0  0  0  0  0  0  0  0  0  0  0  0
   47.3701    1.4555    7.1097 C   0  0  0  0  0  0  0  0  0  0  0  0
   47.4500    2.6045    6.1666 C   0  0  0  0  0  0  0  0  0  0  0  0
   46.9137    3.8028    6.6226 O   0  0  0  0  0  0  0  0  0  0  0  0
   48.0457    2.5181    5.0746 O   0  0  0  0  0  0  0  0  0  0  0  0
   47.2963    1.4160    7.0182 C   0  0  0  0  0  0  0  0  0  0  0  0
   46.8271    1.5584    7.9892 H   0  0  0  0  0  0  0  0  0  0  0  0
   46.5782    0.7484    6.3754 H   0  0  0  0  0  0  0  0  0  0  0  0
   48.2479    0.9242    7.1354 H   0  0  0  0  0  0  0  0  0  0  0  0
   46.6417    1.5329    7.9448 H   0  0  0  0  0  0  0  0  0  0  0  0
   48.4226    1.4986    7.4724 H   0  0  0  0  0  0  0  0  0  0  0  0
   47.2158    0.4787    6.5648 H   0  0  0  0  0  0  0  0  0  0  0  0
   47.8257    1.5549    7.9994 H   0  0  0  0  0  0  0  0  0  0  0  0
   46.1984    1.2802    7.1794 H   0  0  0  0  0  0  0  0  0  0  0  0
   47.6583    0.4860    6.5766 H   0  0  0  0  0  0  0  0  0  0  0  0
  3  2  1  0
  4  2  2  0
  5  2  1  0
  7  6  1  0
  8  6  2  0
  9  6  1  0
 11 10  1  0
 12 10  2  0
 13 10  1  0
  5 14  1  0
  5 15  1  0
  5 16  1  0
  9 17  1  0
  9 18  1  0
  9 19  1  0
 13 20  1  0
 13 21  1  0
 13 22  1  0
M  CHG  4   1   3   3  -1   7  -1  11  -1
M  END
> <Uni-Dock RESULT> 
ENERGY=   -7.823  LOWER_BOUND=    1.313  UPPER_BOUND=    1.702
INTER + INTRA:          -7.823
INTER:                  -7.823
INTRA:                   0.000
UNBOUND:                 0.000

$$$$

     RDKit          3D

 22 18  0  0  0  0  0  0  0  0999 V2000
   46.9395    3.0162    6.6782 Al  0  0  0  0  0 15  0  0  0  0  0  0
   47.4220    2.4917    6.2620 C   0  0  0  0  0  0  0  0  0  0  0  0
   48.0603    1.5141    7.0043 O   0  0  0  0  0  0  0  0  0  0  0  0
   47.5348    2.5903    5.0202 O   0  0  0  0  0  0  0  0  0  0  0  0
   46.5579    3.4689    7.0087 C   0  0  0  0  0  0  0  0  0  0  0  0
   47.5944    2.6236    6.3481 C   0  0  0  0  0  0  0  0  0  0  0  0
   47.7475    2.8470    4.9795 O   0  0  0  0  0  0  0  0  0  0  0  0
   48.3737    1.8899    7.0119 O   0  0  0  0  0  0  0  0  0  0  0  0
   46.4356    3.3117    7.0037 C   0  0  0  0  0  0  0  0  0  0  0  0
   47.4493    2.5497    6.2240 C   0  0  0  0  0  0  0  0  0  0  0  0
   48.0943    1.5245    6.9055 O   0  0  0  0  0  0  0  0  0  0  0  0
   47.6374    2.7590    5.0094 O   0  0  0  0  0  0  0  0  0  0  0  0
   46.5205    3.3998    6.9832 C   0  0  0  0  0  0  0  0  0  0  0  0
   46.3421    3.1348    8.0229 H   0  0  0  0  0  0  0  0  0  0  0  0
   47.0748    4.4329    6.9738 H   0  0  0  0  0  0  0  0  0  0  0  0
   45.5843    3.4807    6.4558 H   0  0  0  0  0  0  0  0  0  0  0  0
   46.4818    3.2337    8.1108 H   0  0  0  0  0  0  0  0  0  0  0  0
   45.5325    2.8074    6.5899 H   0  0  0  0  0  0  0  0  0  0  0  0
   46.4106    4.3999    6.7037 H   0  0  0  0  0  0  0  0  0  0  0  0
   45.6580    2.7978    7.3782 H   0  0  0  0  0  0  0  0  0  0  0  0
   47.1095    3.8420    7.8242 H   0  0  0  0  0  0  0  0  0  0  0  0
   46.1073    4.2405    6.4234 H   0  0  0  0  0  0  0  0  0  0  0  0
  3  2  1  0
  4  2  2  0
  5  2  1  0
  7  6  1  0
  8  6  2  0
  9  6  1  0
 11 10  1  0
 12 10  2  0
 13 10  1  0
  5 14  1  0
  5 15  1  0
  5 16  1  0
  9 17  1  0
  9 18  1  0
  9 19  1  0
 13 20  1  0
 13 21  1  0
 13 22  1  0
M  CHG  4   1   3   3  -1   7  -1  11  -1
M  END
> <Uni-Dock RESULT> 
ENERGY=   -7.818  LOWER_BOUND=    0.336  UPPER_BOUND=    0.368
INTER + INTRA:          -7.818
INTER:                  -7.818
INTRA:                   0.000
UNBOUND:                 0.000

$$$$

     RDKit          3D

 22 18  0  0  0  0  0  0  0  0999 V2000
   47.3231    1.9460    6.6773 Al  0  0  0  0  0 15  0  0  0  0  0  0
   47.3193    2.5851    6.1550 C   0  0  0  0  0  0  0  0  0  0  0  0
   48.0146    2.4216    4.9701 O   0  0  0  0  0  0  0  0  0  0  0  0
   46.6912    3.6282    6.4411 O   0  0  0  0  0  0  0  0  0  0  0  0
   47.3361    1.4387    7.1270 C   0  0  0  0  0  0  0  0  0  0  0  0
   47.5346    2.6204    6.2384 C   0  0  0  0  0  0  0  0  0  0  0  0
   46.8920    3.7848    6.6601 O   0  0  0  0  0  0  0  0  0  0  0  0
   48.3501    2.5993    5.2790 O   0  0  0  0  0  0  0  0  0  0  0  0
   47.2014    1.3712    6.9966 C   0  0  0  0  0  0  0  0  0  0  0  0
   47.3316    2.6302    6.2130 C   0  0  0  0  0  0  0  0  0  0  0  0
   47.9844    2.5201    4.9910 O   0  0  0  0  0  0  0  0  0  0  0  0
   46.8041    3.6957    6.5888 O   0  0  0  0  0  0  0  0  0  0  0  0
   47.2756    1.4374    7.0707 C   0  0  0  0  0  0  0  0  0  0  0  0
   47.6931    0.5170    6.6688 H   0  0  0  0  0  0  0  0  0  0  0  0
   47.9442    1.7599    7.9782 H   0  0  0  0  0  0  0  0  0  0  0  0
   46.2634    1.2716    7.4011 H   0  0  0  0  0  0  0  0  0  0  0  0
   47.8763    0.5315    6.7256 H   0  0  0  0  0  0  0  0  0  0  0  0
   46.1411    1.1520    6.7343 H   0  0  0  0  0  0  0  0  0  0  0  0
   47.2662    1.5628    8.1074 H   0  0  0  0  0  0  0  0  0  0  0  0
   46.7037    0.6101    6.5698 H   0  0  0  0  0  0  0  0  0  0  0  0
   48.3340    1.1285    7.2551 H   0  0  0  0  0  0  0  0  0  0  0  0
   46.8284    1.6000    8.0529 H   0  0  0  0  0  0  0  0  0  0  0  0
  3  2  1  0
  4  2  2  0
  5  2  1  0
  7  6  1  0
  8  6  2  0
  9  6  1  0
 11 10  1  0
 12 10  2  0
 13 10  1  0
  5 14  1  0
  5 15  1  0
  5 16  1  0
  9 17  1  0
  9 18  1  0
  9 19  1  0
 13 20  1  0
 13 21  1  0
 13 22  1  0
M  CHG  4   1   3   3  -1   7  -1  11  -1
M  END
> <Uni-Dock RESULT> 
ENERGY=   -7.725  LOWER_BOUND=    1.298  UPPER_BOUND=    1.900
INTER + INTRA:          -7.725
INTER:                  -7.725
INTRA:                   0.000
UNBOUND:                 0.000

$$$$

     RDKit          3D

 22 18  0  0  0  0  0  0  0  0999 V2000
   45.8230    3.4178    7.7008 Al  0  0  0  0  0 15  0  0  0  0  0  0
   45.2899    3.3245    8.3240 C   0  0  0  0  0  0  0  0  0  0  0  0
   45.4193    2.1756    9.0838 O   0  0  0  0  0  0  0  0  0  0  0  0
   44.4319    4.2046    8.5556 O   0  0  0  0  0  0  0  0  0  0  0  0
   46.2386    3.4979    7.1710 C   0  0  0  0  0  0  0  0  0  0  0  0
   45.1851    3.1763    8.1770 C   0  0  0  0  0  0  0  0  0  0  0  0
   44.1967    4.1503    8.3221 O   0  0  0  0  0  0  0  0  0  0  0  0
   45.1142    2.0443    8.7244 O   0  0  0  0  0  0  0  0  0  0  0  0
   46.3583    3.5487    7.3220 C   0  0  0  0  0  0  0  0  0  0  0  0
   45.2355    3.3469    8.2784 C   0  0  0  0  0  0  0  0  0  0  0  0
   45.3312    2.2303    9.1002 O   0  0  0  0  0  0  0  0  0  0  0  0
   44.3158    4.1804    8.3973 O   0  0  0  0  0  0  0  0  0  0  0  0
   46.2644    3.5274    7.2438 C   0  0  0  0  0  0  0  0  0  0  0  0
   47.0803    2.8084    7.2245 H   0  0  0  0  0  0  0  0  0  0  0  0
   45.6454    3.3832    6.2586 H   0  0  0  0  0  0  0  0  0  0  0  0
   46.6557    4.5304    7.2880 H   0  0  0  0  0  0  0  0  0  0  0  0
   47.0078    2.6732    7.1084 H   0  0  0  0  0  0  0  0  0  0  0  0
   46.8969    4.3328    7.9018 H   0  0  0  0  0  0  0  0  0  0  0  0
   46.0022    3.9993    6.3499 H   0  0  0  0  0  0  0  0  0  0  0  0
   47.2794    3.6598    7.7069 H   0  0  0  0  0  0  0  0  0  0  0  0
   46.2393    2.6090    6.6069 H   0  0  0  0  0  0  0  0  0  0  0  0
   46.0956    4.3707    6.5720 H   0  0  0  0  0  0  0  0  0  0  0  0
  3  2  1  0
  4  2  2  0
  5  2  1  0
  7  6  1  0
  8  6  2  0
  9  6  1  0
 11 10  1  0
 12 10  2  0
 13 10  1  0
  5 14  1  0
  5 15  1  0
  5 16  1  0
  9 17  1  0
  9 18  1  0
  9 19  1  0
 13 20  1  0
 13 21  1  0
 13 22  1  0
M  CHG  4   1   3   3  -1   7  -1  11  -1
M  END
> <Uni-Dock RESULT> 
ENERGY=   -6.385  LOWER_BOUND=    2.985  UPPER_BOUND=    3.444
INTER + INTRA:          -6.385
INTER:                  -6.385
INTRA:                   0.000
UNBOUND:                 0.000

$$$$

     RDKit          3D

 22 18  0  0  0  0  0  0  0  0999 V2000
   44.9246    3.0782    8.6584 Al  0  0  0  0  0 15  0  0  0  0  0  0
   44.8801    2.3548    9.0533 C   0  0  0  0  0  0  0  0  0  0  0  0
   44.1108    2.3221   10.2027 O   0  0  0  0  0  0  0  0  0  0  0  0
   45.4745    1.3522    8.5995 O   0  0  0  0  0  0  0  0  0  0  0  0
   44.9899    3.6708    8.3354 C   0  0  0  0  0  0  0  0  0  0  0  0
   45.0338    2.4546    9.1982 C   0  0  0  0  0  0  0  0  0  0  0  0
   45.7945    1.4020    8.6885 O   0  0  0  0  0  0  0  0  0  0  0  0
   44.5551    2.4501   10.3631 O   0  0  0  0  0  0  0  0  0  0  0  0
   44.8088    3.6137    8.2751 C   0  0  0  0  0  0  0  0  0  0  0  0
   44.9535    2.3469    9.0435 C   0  0  0  0  0  0  0  0  0  0  0  0
   44.1717    2.2380   10.1873 O   0  0  0  0  0  0  0  0  0  0  0  0
   45.6617    1.4065    8.6328 O   0  0  0  0  0  0  0  0  0  0  0  0
   44.9265    3.6226    8.3132 C   0  0  0  0  0  0  0  0  0  0  0  0
   44.2433    4.3876    8.6753 H   0  0  0  0  0  0  0  0  0  0  0  0
   46.0174    4.0193    8.4777 H   0  0  0  0  0  0  0  0  0  0  0  0
   44.7563    3.4405    7.2648 H   0  0  0  0  0  0  0  0  0  0  0  0
   44.3545    4.4794    8.8026 H   0  0  0  0  0  0  0  0  0  0  0  0
   44.1404    3.2176    7.4767 H   0  0  0  0  0  0  0  0  0  0  0  0
   45.7852    3.9299    7.8045 H   0  0  0  0  0  0  0  0  0  0  0  0
   43.8967    3.8364    7.9181 H   0  0  0  0  0  0  0  0  0  0  0  0
   45.2407    4.4118    9.0399 H   0  0  0  0  0  0  0  0  0  0  0  0
   45.6214    3.6849    7.4740 H   0  0  0  0  0  0  0  0  0  0  0  0
  3  2  1  0
  4  2  2  0
  5  2  1  0
  7  6  1  0
  8  6  2  0
  9  6  1  0
 11 10  1  0
 12 10  2  0
 13 10  1  0
  5 14  1  0
  5 15  1  0
  5 16  1  0
  9 17  1  0
  9 18  1  0
  9 19  1  0
 13 20  1  0
 13 21  1  0
 13 22  1  0
M  CHG  4   1   3   3  -1   7  -1  11  -1
M  END
> <Uni-Dock RESULT> 
ENERGY=   -6.064  LOWER_BOUND=    3.325  UPPER_BOUND=    3.953
INTER + INTRA:          -6.064
INTER:                  -6.064
INTRA:                   0.000
UNBOUND:                 0.000

$$$$

     RDKit          3D

 22 18  0  0  0  0  0  0  0  0999 V2000
   45.0539    2.8492    8.7265 Al  0  0  0  0  0 15  0  0  0  0  0  0
   45.0832    3.6373    8.4831 C   0  0  0  0  0  0  0  0  0  0  0  0
   44.1337    4.4880    9.0205 O   0  0  0  0  0  0  0  0  0  0  0  0
   45.9658    4.0164    7.6819 O   0  0  0  0  0  0  0  0  0  0  0  0
   45.0285    2.1939    8.8988 C   0  0  0  0  0  0  0  0  0  0  0  0
   44.9032    3.5746    8.3481 C   0  0  0  0  0  0  0  0  0  0  0  0
   45.8542    3.9093    7.3838 O   0  0  0  0  0  0  0  0  0  0  0  0
   43.9173    4.3099    8.6193 O   0  0  0  0  0  0  0  0  0  0  0  0
   45.1148    2.2729    9.0601 C   0  0  0  0  0  0  0  0  0  0  0  0
   45.0934    3.6135    8.4132 C   0  0  0  0  0  0  0  0  0  0  0  0
   44.1879    4.5271    8.9395 O   0  0  0  0  0  0  0  0  0  0  0  0
   45.9038    3.9243    7.5181 O   0  0  0  0  0  0  0  0  0  0  0  0
   45.0740    2.2436    8.9466 C   0  0  0  0  0  0  0  0  0  0  0  0
   44.3939    2.0415    9.7710 H   0  0  0  0  0  0  0  0  0  0  0  0
   44.6981    1.6287    8.0219 H   0  0  0  0  0  0  0  0  0  0  0  0
   46.0739    1.9387    9.2083 H   0  0  0  0  0  0  0  0  0  0  0  0
   44.2343    1.9913    9.6760 H   0  0  0  0  0  0  0  0  0  0  0  0
   46.0234    2.4333    9.6846 H   0  0  0  0  0  0  0  0  0  0  0  0
   45.3299    1.4533    8.3138 H   0  0  0  0  0  0  0  0  0  0  0  0
   45.3362    2.2352   10.0392 H   0  0  0  0  0  0  0  0  0  0  0  0
   44.0379    1.8551    8.7877 H   0  0  0  0  0  0  0  0  0  0  0  0
   45.7437    1.5457    8.4412 H   0  0  0  0  0  0  0  0  0  0  0  0
  3  2  1  0
  4  2  2  0
  5  2  1  0
  7  6  1  0
  8  6  2  0
  9  6  1  0
 11 10  1  0
 12 10  2  0
 13 10  1  0
  5 14  1  0
  5 15  1  0
  5 16  1  0
  9 17  1  0
  9 18  1  0
  9 19  1  0
 13 20  1  0
 13 21  1  0
 13 22  1  0
M  CHG  4   1   3   3  -1   7  -1  11  -1
M  END
> <Uni-Dock RESULT> 
ENERGY=   -6.019  LOWER_BOUND=    3.553  UPPER_BOUND=    3.876
INTER + INTRA:          -6.019
INTER:                  -6.019
INTRA:                   0.000
UNBOUND:                 0.000

$$$$

     RDKit          3D

 22 18  0  0  0  0  0  0  0  0999 V2000
   43.1098    4.6410   11.7063 Al  0  0  0  0  0 15  0  0  0  0  0  0
   42.7620    5.2728   12.1076 C   0  0  0  0  0  0  0  0  0  0  0  0
   42.2902    6.3163   11.3313 O   0  0  0  0  0  0  0  0  0  0  0  0
   42.6642    5.2494   13.3544 O   0  0  0  0  0  0  0  0  0  0  0  0
   43.4190    4.1253   11.3929 C   0  0  0  0  0  0  0  0  0  0  0  0
   42.9666    5.3774   12.0658 C   0  0  0  0  0  0  0  0  0  0  0  0
   42.9730    5.3284   13.4601 O   0  0  0  0  0  0  0  0  0  0  0  0
   42.7557    6.4382   11.4206 O   0  0  0  0  0  0  0  0  0  0  0  0
   43.2275    4.0820   11.3586 C   0  0  0  0  0  0  0  0  0  0  0  0
   42.8178    5.2700   12.1568 C   0  0  0  0  0  0  0  0  0  0  0  0
   42.2950    6.3359   11.4344 O   0  0  0  0  0  0  0  0  0  0  0  0
   42.8549    5.2689   13.4031 O   0  0  0  0  0  0  0  0  0  0  0  0
   43.3371    4.1195   11.4030 C   0  0  0  0  0  0  0  0  0  0  0  0
   43.2217    4.1415   10.3217 H   0  0  0  0  0  0  0  0  0  0  0  0
   44.4849    4.1757   11.6352 H   0  0  0  0  0  0  0  0  0  0  0  0
   42.9264    3.2060   11.8006 H   0  0  0  0  0  0  0  0  0  0  0  0
   43.3837    4.2308   10.2689 H   0  0  0  0  0  0  0  0  0  0  0  0
   42.3293    3.4567   11.5671 H   0  0  0  0  0  0  0  0  0  0  0  0
   44.1324    3.5733   11.8026 H   0  0  0  0  0  0  0  0  0  0  0  0
   42.5196    3.6265   10.8106 H   0  0  0  0  0  0  0  0  0  0  0  0
   44.1307    4.5167   10.7232 H   0  0  0  0  0  0  0  0  0  0  0  0
   43.8132    3.3495   12.0126 H   0  0  0  0  0  0  0  0  0  0  0  0
  3  2  1  0
  4  2  2  0
  5  2  1  0
  7  6  1  0
  8  6  2  0
  9  6  1  0
 11 10  1  0
 12 10  2  0
 13 10  1  0
  5 14  1  0
  5 15  1  0
  5 16  1  0
  9 17  1  0
  9 18  1  0
  9 19  1  0
 13 20  1  0
 13 21  1  0
 13 22  1  0
M  CHG  4   1   3   3  -1   7  -1  11  -1
M  END
> <Uni-Dock RESULT> 
ENERGY=   -5.416  LOWER_BOUND=    7.592  UPPER_BOUND=    8.202
INTER + INTRA:          -5.416
INTER:                  -5.416
INTRA:                   0.000
UNBOUND:                 0.000

$$$$
