
     RDKit          3D

 22 18  0  0  0  0  0  0  0  0999 V2000
   47.1113    2.9469    6.6029 Al  0  0  0  0  0 15  0  0  0  0  0  0
   47.6913    2.3925    6.3720 C   0  0  0  0  0  0  0  0  0  0  0  0
   48.1675    2.4812    5.0543 O   0  0  0  0  0  0  0  0  0  0  0  0
   48.1244    1.4995    7.1526 O   0  0  0  0  0  0  0  0  0  0  0  0
   46.6608    3.3890    6.8077 C   0  0  0  0  0  0  0  0  0  0  0  0
   47.6547    2.4066    6.3464 C   0  0  0  0  0  0  0  0  0  0  0  0
   48.0650    2.5950    5.0283 O   0  0  0  0  0  0  0  0  0  0  0  0
   48.0942    1.4634    7.0577 O   0  0  0  0  0  0  0  0  0  0  0  0
   46.6515    3.3967    6.8783 C   0  0  0  0  0  0  0  0  0  0  0  0
   47.4590    2.2395    6.3336 C   0  0  0  0  0  0  0  0  0  0  0  0
   48.1133    2.3365    5.0914 O   0  0  0  0  0  0  0  0  0  0  0  0
   47.4136    1.1486    6.9702 O   0  0  0  0  0  0  0  0  0  0  0  0
   46.8152    3.4878    6.8741 C   0  0  0  0  0  0  0  0  0  0  0  0
   45.7953    3.3883    6.1100 H   0  0  0  0  0  0  0  0  0  0  0  0
   47.0912    4.3905    6.9294 H   0  0  0  0  0  0  0  0  0  0  0  0
   46.2489    3.0874    7.7943 H   0  0  0  0  0  0  0  0  0  0  0  0
   46.4879    3.1684    7.9367 H   0  0  0  0  0  0  0  0  0  0  0  0
   47.0913    4.3797    6.6980 H   0  0  0  0  0  0  0  0  0  0  0  0
   45.7347    3.2185    6.2748 H   0  0  0  0  0  0  0  0  0  0  0  0
   47.3417    4.3665    6.4616 H   0  0  0  0  0  0  0  0  0  0  0  0
   45.7554    3.5615    6.5281 H   0  0  0  0  0  0  0  0  0  0  0  0
   46.8810    3.4879    7.9612 H   0  0  0  0  0  0  0  0  0  0  0  0
  3  2  1  0
  4  2  2  0
  5  2  1  0
  7  6  1  0
  8  6  2  0
  9  6  1  0
 11 10  1  0
 12 10  2  0
 13 10  1  0
  5 14  1  0
  5 15  1  0
  5 16  1  0
  9 17  1  0
  9 18  1  0
  9 19  1  0
 13 20  1  0
 13 21  1  0
 13 22  1  0
M  CHG  4   1   3   3  -1   7  -1  11  -1
M  END
> <Uni-Dock RESULT> 
ENERGY=   -8.262  LOWER_BOUND=    0.000  UPPER_BOUND=    0.000
INTER + INTRA:          -8.262
INTER:                  -8.262
INTRA:                   0.000
UNBOUND:                 0.000

$$$$

     RDKit          3D

 22 18  0  0  0  0  0  0  0  0999 V2000
   47.0526    2.7129    6.7748 Al  0  0  0  0  0 15  0  0  0  0  0  0
   47.4686    2.0198    6.5660 C   0  0  0  0  0  0  0  0  0  0  0  0
   47.2640    0.8880    7.3711 O   0  0  0  0  0  0  0  0  0  0  0  0
   48.2597    1.9740    5.5830 O   0  0  0  0  0  0  0  0  0  0  0  0
   46.7185    3.2682    6.9176 C   0  0  0  0  0  0  0  0  0  0  0  0
   47.4622    2.0363    6.6093 C   0  0  0  0  0  0  0  0  0  0  0  0
   47.1741    0.9742    7.4639 O   0  0  0  0  0  0  0  0  0  0  0  0
   48.3001    1.9360    5.6731 O   0  0  0  0  0  0  0  0  0  0  0  0
   46.7139    3.3183    6.8665 C   0  0  0  0  0  0  0  0  0  0  0  0
   47.6668    2.1536    6.7131 C   0  0  0  0  0  0  0  0  0  0  0  0
   47.4174    0.9266    7.3557 O   0  0  0  0  0  0  0  0  0  0  0  0
   48.7508    2.3666    6.0991 O   0  0  0  0  0  0  0  0  0  0  0  0
   46.5902    3.2027    6.7864 C   0  0  0  0  0  0  0  0  0  0  0  0
   46.8934    3.5444    7.9802 H   0  0  0  0  0  0  0  0  0  0  0  0
   45.6503    3.1784    6.6856 H   0  0  0  0  0  0  0  0  0  0  0  0
   47.1133    4.1173    6.3198 H   0  0  0  0  0  0  0  0  0  0  0  0
   46.9853    4.0261    6.0764 H   0  0  0  0  0  0  0  0  0  0  0  0
   45.6578    3.0409    6.8719 H   0  0  0  0  0  0  0  0  0  0  0  0
   47.0743    3.6583    7.8620 H   0  0  0  0  0  0  0  0  0  0  0  0
   45.6146    2.7022    6.9183 H   0  0  0  0  0  0  0  0  0  0  0  0
   46.7380    3.8516    7.6837 H   0  0  0  0  0  0  0  0  0  0  0  0
   46.5902    3.7867    5.8670 H   0  0  0  0  0  0  0  0  0  0  0  0
  3  2  1  0
  4  2  2  0
  5  2  1  0
  7  6  1  0
  8  6  2  0
  9  6  1  0
 11 10  1  0
 12 10  2  0
 13 10  1  0
  5 14  1  0
  5 15  1  0
  5 16  1  0
  9 17  1  0
  9 18  1  0
  9 19  1  0
 13 20  1  0
 13 21  1  0
 13 22  1  0
M  CHG  4   1   3   3  -1   7  -1  11  -1
M  END
> <Uni-Dock RESULT> 
ENERGY=   -8.119  LOWER_BOUND=    0.568  UPPER_BOUND=    1.653
INTER + INTRA:          -8.119
INTER:                  -8.119
INTRA:                   0.000
UNBOUND:                 0.000

$$$$

     RDKit          3D

 22 18  0  0  0  0  0  0  0  0999 V2000
   47.5368    1.9496    6.6268 Al  0  0  0  0  0 15  0  0  0  0  0  0
   47.1004    1.6881    7.2888 C   0  0  0  0  0  0  0  0  0  0  0  0
   47.0705    0.3045    7.5251 O   0  0  0  0  0  0  0  0  0  0  0  0
   46.4784    2.4827    8.0477 O   0  0  0  0  0  0  0  0  0  0  0  0
   47.8911    2.1761    6.1134 C   0  0  0  0  0  0  0  0  0  0  0  0
   47.1011    1.6682    7.2464 C   0  0  0  0  0  0  0  0  0  0  0  0
   47.1514    0.2837    7.3941 O   0  0  0  0  0  0  0  0  0  0  0  0
   46.4206    2.4006    8.0141 O   0  0  0  0  0  0  0  0  0  0  0  0
   47.9083    2.2456    6.1131 C   0  0  0  0  0  0  0  0  0  0  0  0
   46.8936    1.7136    7.1006 C   0  0  0  0  0  0  0  0  0  0  0  0
   46.9258    0.3693    7.5160 O   0  0  0  0  0  0  0  0  0  0  0  0
   45.9468    2.4825    7.4320 O   0  0  0  0  0  0  0  0  0  0  0  0
   48.0327    2.1993    6.2453 C   0  0  0  0  0  0  0  0  0  0  0  0
   47.5712    1.6576    5.1835 H   0  0  0  0  0  0  0  0  0  0  0  0
   48.9706    2.0857    6.2853 H   0  0  0  0  0  0  0  0  0  0  0  0
   47.6754    3.2526    5.9441 H   0  0  0  0  0  0  0  0  0  0  0  0
   47.8325    3.3364    6.1727 H   0  0  0  0  0  0  0  0  0  0  0  0
   48.9208    1.8617    6.2538 H   0  0  0  0  0  0  0  0  0  0  0  0
   47.4228    1.8513    5.1937 H   0  0  0  0  0  0  0  0  0  0  0  0
   48.9257    1.5865    6.4612 H   0  0  0  0  0  0  0  0  0  0  0  0
   47.7993    2.0501    5.1630 H   0  0  0  0  0  0  0  0  0  0  0  0
   48.2336    3.2460    6.4697 H   0  0  0  0  0  0  0  0  0  0  0  0
  3  2  1  0
  4  2  2  0
  5  2  1  0
  7  6  1  0
  8  6  2  0
  9  6  1  0
 11 10  1  0
 12 10  2  0
 13 10  1  0
  5 14  1  0
  5 15  1  0
  5 16  1  0
  9 17  1  0
  9 18  1  0
  9 19  1  0
 13 20  1  0
 13 21  1  0
 13 22  1  0
M  CHG  4   1   3   3  -1   7  -1  11  -1
M  END
> <Uni-Dock RESULT> 
ENERGY=   -7.575  LOWER_BOUND=    1.916  UPPER_BOUND=    2.226
INTER + INTRA:          -7.575
INTER:                  -7.575
INTRA:                   0.000
UNBOUND:                 0.000

$$$$

     RDKit          3D

 22 18  0  0  0  0  0  0  0  0999 V2000
   47.5294    1.9301    6.6568 Al  0  0  0  0  0 15  0  0  0  0  0  0
   46.9924    1.5271    7.1530 C   0  0  0  0  0  0  0  0  0  0  0  0
   46.1998    2.3131    8.0044 O   0  0  0  0  0  0  0  0  0  0  0  0
   46.8911    0.2685    7.1618 O   0  0  0  0  0  0  0  0  0  0  0  0
   47.9513    2.2350    6.2451 C   0  0  0  0  0  0  0  0  0  0  0  0
   47.0193    1.5634    7.1650 C   0  0  0  0  0  0  0  0  0  0  0  0
   46.2761    2.4388    7.9541 O   0  0  0  0  0  0  0  0  0  0  0  0
   46.9018    0.3119    7.2578 O   0  0  0  0  0  0  0  0  0  0  0  0
   47.9765    2.1974    6.1896 C   0  0  0  0  0  0  0  0  0  0  0  0
   47.2268    1.5044    7.3058 C   0  0  0  0  0  0  0  0  0  0  0  0
   46.2808    2.2002    8.0813 O   0  0  0  0  0  0  0  0  0  0  0  0
   47.5766    0.3250    7.5960 O   0  0  0  0  0  0  0  0  0  0  0  0
   47.8058    2.2215    6.1160 C   0  0  0  0  0  0  0  0  0  0  0  0
   48.6107    2.9160    6.8259 H   0  0  0  0  0  0  0  0  0  0  0  0
   47.4305    2.7581    5.4339 H   0  0  0  0  0  0  0  0  0  0  0  0
   48.6302    1.4928    5.7735 H   0  0  0  0  0  0  0  0  0  0  0  0
   48.4246    1.3950    5.5942 H   0  0  0  0  0  0  0  0  0  0  0  0
   47.3750    2.8996    5.6087 H   0  0  0  0  0  0  0  0  0  0  0  0
   48.7326    2.7044    6.8281 H   0  0  0  0  0  0  0  0  0  0  0  0
   47.0785    2.9757    5.7670 H   0  0  0  0  0  0  0  0  0  0  0  0
   48.7278    2.7809    6.4081 H   0  0  0  0  0  0  0  0  0  0  0  0
   48.0095    1.5027    5.3235 H   0  0  0  0  0  0  0  0  0  0  0  0
  3  2  1  0
  4  2  2  0
  5  2  1  0
  7  6  1  0
  8  6  2  0
  9  6  1  0
 11 10  1  0
 12 10  2  0
 13 10  1  0
  5 14  1  0
  5 15  1  0
  5 16  1  0
  9 17  1  0
  9 18  1  0
  9 19  1  0
 13 20  1  0
 13 21  1  0
 13 22  1  0
M  CHG  4   1   3   3  -1   7  -1  11  -1
M  END
> <Uni-Dock RESULT> 
ENERGY=   -7.471  LOWER_BOUND=    1.928  UPPER_BOUND=    2.151
INTER + INTRA:          -7.471
INTER:                  -7.471
INTRA:                   0.000
UNBOUND:                 0.000

$$$$

     RDKit          3D

 22 18  0  0  0  0  0  0  0  0999 V2000
   45.6517    3.4145    7.8165 Al  0  0  0  0  0 15  0  0  0  0  0  0
   44.9968    3.2323    8.3012 C   0  0  0  0  0  0  0  0  0  0  0  0
   44.1131    4.2821    8.5978 O   0  0  0  0  0  0  0  0  0  0  0  0
   44.7988    2.0754    8.7667 O   0  0  0  0  0  0  0  0  0  0  0  0
   46.1697    3.5382    7.4206 C   0  0  0  0  0  0  0  0  0  0  0  0
   45.0235    3.2706    8.3040 C   0  0  0  0  0  0  0  0  0  0  0  0
   44.2074    4.3789    8.5211 O   0  0  0  0  0  0  0  0  0  0  0  0
   44.7934    2.1527    8.8387 O   0  0  0  0  0  0  0  0  0  0  0  0
   46.2025    3.4822    7.3903 C   0  0  0  0  0  0  0  0  0  0  0  0
   45.1935    3.2724    8.4975 C   0  0  0  0  0  0  0  0  0  0  0  0
   44.1681    4.2084    8.7274 O   0  0  0  0  0  0  0  0  0  0  0  0
   45.3859    2.3007    9.2826 O   0  0  0  0  0  0  0  0  0  0  0  0
   46.0524    3.4747    7.2784 C   0  0  0  0  0  0  0  0  0  0  0  0
   46.7502    4.3958    7.8250 H   0  0  0  0  0  0  0  0  0  0  0  0
   45.8637    3.7017    6.3801 H   0  0  0  0  0  0  0  0  0  0  0  0
   46.8697    2.6757    7.4245 H   0  0  0  0  0  0  0  0  0  0  0  0
   46.6973    2.5146    7.2564 H   0  0  0  0  0  0  0  0  0  0  0  0
   45.7855    3.8997    6.4715 H   0  0  0  0  0  0  0  0  0  0  0  0
   46.8525    4.2024    7.9337 H   0  0  0  0  0  0  0  0  0  0  0  0
   45.4702    4.0293    6.5214 H   0  0  0  0  0  0  0  0  0  0  0  0
   46.9377    4.1097    7.5258 H   0  0  0  0  0  0  0  0  0  0  0  0
   46.3543    2.5059    6.8829 H   0  0  0  0  0  0  0  0  0  0  0  0
  3  2  1  0
  4  2  2  0
  5  2  1  0
  7  6  1  0
  8  6  2  0
  9  6  1  0
 11 10  1  0
 12 10  2  0
 13 10  1  0
  5 14  1  0
  5 15  1  0
  5 16  1  0
  9 17  1  0
  9 18  1  0
  9 19  1  0
 13 20  1  0
 13 21  1  0
 13 22  1  0
M  CHG  4   1   3   3  -1   7  -1  11  -1
M  END
> <Uni-Dock RESULT> 
ENERGY=   -6.294  LOWER_BOUND=    3.159  UPPER_BOUND=    3.657
INTER + INTRA:          -6.294
INTER:                  -6.294
INTRA:                   0.000
UNBOUND:                 0.000

$$$$

     RDKit          3D

 22 18  0  0  0  0  0  0  0  0999 V2000
   46.1514    3.3753    7.4141 Al  0  0  0  0  0 15  0  0  0  0  0  0
   45.6223    3.2338    8.0443 C   0  0  0  0  0  0  0  0  0  0  0  0
   45.7594    2.0160    8.7292 O   0  0  0  0  0  0  0  0  0  0  0  0
   44.7247    4.0585    8.3740 O   0  0  0  0  0  0  0  0  0  0  0  0
   46.5732    3.5104    6.9200 C   0  0  0  0  0  0  0  0  0  0  0  0
   45.6358    3.2028    8.0119 C   0  0  0  0  0  0  0  0  0  0  0  0
   45.8705    1.9755    8.6284 O   0  0  0  0  0  0  0  0  0  0  0  0
   44.6900    3.9592    8.3613 O   0  0  0  0  0  0  0  0  0  0  0  0
   46.5787    3.5786    6.8988 C   0  0  0  0  0  0  0  0  0  0  0  0
   45.4627    3.1542    7.8274 C   0  0  0  0  0  0  0  0  0  0  0  0
   45.6122    2.0408    8.6750 O   0  0  0  0  0  0  0  0  0  0  0  0
   44.3553    3.7533    7.7167 O   0  0  0  0  0  0  0  0  0  0  0  0
   46.6753    3.6035    7.0575 C   0  0  0  0  0  0  0  0  0  0  0  0
   46.5614    2.6781    6.1831 H   0  0  0  0  0  0  0  0  0  0  0  0
   47.5849    3.7215    7.2873 H   0  0  0  0  0  0  0  0  0  0  0  0
   46.2336    4.4085    6.3612 H   0  0  0  0  0  0  0  0  0  0  0  0
   46.3188    4.5903    6.5701 H   0  0  0  0  0  0  0  0  0  0  0  0
   47.5799    3.4932    7.3263 H   0  0  0  0  0  0  0  0  0  0  0  0
   46.3857    2.8273    6.1022 H   0  0  0  0  0  0  0  0  0  0  0  0
   47.5808    3.3017    7.6128 H   0  0  0  0  0  0  0  0  0  0  0  0
   46.7227    3.0870    6.0680 H   0  0  0  0  0  0  0  0  0  0  0  0
   46.6504    4.6862    6.9417 H   0  0  0  0  0  0  0  0  0  0  0  0
  3  2  1  0
  4  2  2  0
  5  2  1  0
  7  6  1  0
  8  6  2  0
  9  6  1  0
 11 10  1  0
 12 10  2  0
 13 10  1  0
  5 14  1  0
  5 15  1  0
  5 16  1  0
  9 17  1  0
  9 18  1  0
  9 19  1  0
 13 20  1  0
 13 21  1  0
 13 22  1  0
M  CHG  4   1   3   3  -1   7  -1  11  -1
M  END
> <Uni-Dock RESULT> 
ENERGY=   -6.248  LOWER_BOUND=    2.561  UPPER_BOUND=    3.245
INTER + INTRA:          -6.248
INTER:                  -6.248
INTRA:                   0.000
UNBOUND:                 0.000

$$$$

     RDKit          3D

 22 18  0  0  0  0  0  0  0  0999 V2000
   45.0265    2.8253    8.7413 Al  0  0  0  0  0 15  0  0  0  0  0  0
   44.9338    3.5548    8.3461 C   0  0  0  0  0  0  0  0  0  0  0  0
   45.8870    3.8731    7.3657 O   0  0  0  0  0  0  0  0  0  0  0  0
   43.9939    4.3551    8.6115 O   0  0  0  0  0  0  0  0  0  0  0  0
   45.0767    2.2427    9.0550 C   0  0  0  0  0  0  0  0  0  0  0  0
   44.9740    3.5366    8.3614 C   0  0  0  0  0  0  0  0  0  0  0  0
   45.9634    3.7429    7.4023 O   0  0  0  0  0  0  0  0  0  0  0  0
   44.0898    4.3997    8.6098 O   0  0  0  0  0  0  0  0  0  0  0  0
   45.0188    2.2185    9.0897 C   0  0  0  0  0  0  0  0  0  0  0  0
   45.0664    3.6412    8.5780 C   0  0  0  0  0  0  0  0  0  0  0  0
   45.8712    3.9861    7.4762 O   0  0  0  0  0  0  0  0  0  0  0  0
   44.4634    4.5224    9.2543 O   0  0  0  0  0  0  0  0  0  0  0  0
   44.9522    2.1797    8.9189 C   0  0  0  0  0  0  0  0  0  0  0  0
   46.0933    2.1430    9.4938 H   0  0  0  0  0  0  0  0  0  0  0  0
   44.8256    1.3989    8.4008 H   0  0  0  0  0  0  0  0  0  0  0  0
   44.3755    2.2095    9.9161 H   0  0  0  0  0  0  0  0  0  0  0  0
   44.1438    2.1715    9.7464 H   0  0  0  0  0  0  0  0  0  0  0  0
   45.0299    1.4561    8.3080 H   0  0  0  0  0  0  0  0  0  0  0  0
   45.9658    2.2517    9.6715 H   0  0  0  0  0  0  0  0  0  0  0  0
   45.1234    1.5867    8.0031 H   0  0  0  0  0  0  0  0  0  0  0  0
   45.7506    1.8842    9.6424 H   0  0  0  0  0  0  0  0  0  0  0  0
   43.9586    1.9768    9.3162 H   0  0  0  0  0  0  0  0  0  0  0  0
  3  2  1  0
  4  2  2  0
  5  2  1  0
  7  6  1  0
  8  6  2  0
  9  6  1  0
 11 10  1  0
 12 10  2  0
 13 10  1  0
  5 14  1  0
  5 15  1  0
  5 16  1  0
  9 17  1  0
  9 18  1  0
  9 19  1  0
 13 20  1  0
 13 21  1  0
 13 22  1  0
M  CHG  4   1   3   3  -1   7  -1  11  -1
M  END
> <Uni-Dock RESULT> 
ENERGY=   -6.015  LOWER_BOUND=    3.447  UPPER_BOUND=    3.835
INTER + INTRA:          -6.015
INTER:                  -6.015
INTRA:                   0.000
UNBOUND:                 0.000

$$$$

     RDKit          3D

 22 18  0  0  0  0  0  0  0  0999 V2000
   44.5487    2.8188    9.7771 Al  0  0  0  0  0 15  0  0  0  0  0  0
   44.8930    2.6798    9.0294 C   0  0  0  0  0  0  0  0  0  0  0  0
   44.5106    3.5351    7.9838 O   0  0  0  0  0  0  0  0  0  0  0  0
   45.7123    1.7411    8.8241 O   0  0  0  0  0  0  0  0  0  0  0  0
   44.2959    2.9241   10.3816 C   0  0  0  0  0  0  0  0  0  0  0  0
   44.8482    2.6903    9.0377 C   0  0  0  0  0  0  0  0  0  0  0  0
   44.4107    3.6038    8.0808 O   0  0  0  0  0  0  0  0  0  0  0  0
   45.6330    1.7457    8.7541 O   0  0  0  0  0  0  0  0  0  0  0  0
   44.3294    2.8940   10.4373 C   0  0  0  0  0  0  0  0  0  0  0  0
   44.6841    2.4923    9.0228 C   0  0  0  0  0  0  0  0  0  0  0  0
   44.4903    3.3814    7.9492 O   0  0  0  0  0  0  0  0  0  0  0  0
   45.0334    1.2931    8.8295 O   0  0  0  0  0  0  0  0  0  0  0  0
   44.4587    3.0272   10.4114 C   0  0  0  0  0  0  0  0  0  0  0  0
   43.1861    2.9475   10.3215 H   0  0  0  0  0  0  0  0  0  0  0  0
   44.7027    3.8304   10.8466 H   0  0  0  0  0  0  0  0  0  0  0  0
   44.5406    2.0735   11.0529 H   0  0  0  0  0  0  0  0  0  0  0  0
   44.8166    2.1561   11.0832 H   0  0  0  0  0  0  0  0  0  0  0  0
   44.5681    3.9300   10.6866 H   0  0  0  0  0  0  0  0  0  0  0  0
   43.2353    2.7114   10.3601 H   0  0  0  0  0  0  0  0  0  0  0  0
   44.6339    4.1175   10.4051 H   0  0  0  0  0  0  0  0  0  0  0  0
   43.3951    2.8783   10.7190 H   0  0  0  0  0  0  0  0  0  0  0  0
   45.1459    2.5414   11.1028 H   0  0  0  0  0  0  0  0  0  0  0  0
  3  2  1  0
  4  2  2  0
  5  2  1  0
  7  6  1  0
  8  6  2  0
  9  6  1  0
 11 10  1  0
 12 10  2  0
 13 10  1  0
  5 14  1  0
  5 15  1  0
  5 16  1  0
  9 17  1  0
  9 18  1  0
  9 19  1  0
 13 20  1  0
 13 21  1  0
 13 22  1  0
M  CHG  4   1   3   3  -1   7  -1  11  -1
M  END
> <Uni-Dock RESULT> 
ENERGY=   -5.491  LOWER_BOUND=    3.634  UPPER_BOUND=    4.047
INTER + INTRA:          -5.491
INTER:                  -5.491
INTRA:                   0.000
UNBOUND:                 0.000

$$$$

     RDKit          3D

 22 18  0  0  0  0  0  0  0  0999 V2000
   43.1433    4.6325   11.7149 Al  0  0  0  0  0 15  0  0  0  0  0  0
   42.7576    5.1615   12.2330 C   0  0  0  0  0  0  0  0  0  0  0  0
   41.9927    6.1824   11.6467 O   0  0  0  0  0  0  0  0  0  0  0  0
   42.8551    5.0727   13.4887 O   0  0  0  0  0  0  0  0  0  0  0  0
   43.4447    4.1943   11.3180 C   0  0  0  0  0  0  0  0  0  0  0  0
   42.7801    5.1729   12.1935 C   0  0  0  0  0  0  0  0  0  0  0  0
   42.0400    6.1333   11.5071 O   0  0  0  0  0  0  0  0  0  0  0  0
   42.8735    5.1697   13.4505 O   0  0  0  0  0  0  0  0  0  0  0  0
   43.4666    4.1327   11.3472 C   0  0  0  0  0  0  0  0  0  0  0  0
   43.0134    5.2772   12.2261 C   0  0  0  0  0  0  0  0  0  0  0  0
   42.1010    6.2368   11.7493 O   0  0  0  0  0  0  0  0  0  0  0  0
   43.5820    5.4094   13.3472 O   0  0  0  0  0  0  0  0  0  0  0  0
   43.2851    4.0863   11.3470 C   0  0  0  0  0  0  0  0  0  0  0  0
   44.0717    4.7347   10.5758 H   0  0  0  0  0  0  0  0  0  0  0  0
   42.7311    3.5142   10.8372 H   0  0  0  0  0  0  0  0  0  0  0  0
   44.1500    3.5679   11.9046 H   0  0  0  0  0  0  0  0  0  0  0  0
   43.9371    3.4113   12.0234 H   0  0  0  0  0  0  0  0  0  0  0  0
   42.6818    3.7069   10.7186 H   0  0  0  0  0  0  0  0  0  0  0  0
   44.2238    4.7010   10.7639 H   0  0  0  0  0  0  0  0  0  0  0  0
   42.4049    3.9115   10.7033 H   0  0  0  0  0  0  0  0  0  0  0  0
   44.1429    4.2943   10.6622 H   0  0  0  0  0  0  0  0  0  0  0  0
   43.4738    3.2123   11.9689 H   0  0  0  0  0  0  0  0  0  0  0  0
  3  2  1  0
  4  2  2  0
  5  2  1  0
  7  6  1  0
  8  6  2  0
  9  6  1  0
 11 10  1  0
 12 10  2  0
 13 10  1  0
  5 14  1  0
  5 15  1  0
  5 16  1  0
  9 17  1  0
  9 18  1  0
  9 19  1  0
 13 20  1  0
 13 21  1  0
 13 22  1  0
M  CHG  4   1   3   3  -1   7  -1  11  -1
M  END
> <Uni-Dock RESULT> 
ENERGY=   -5.353  LOWER_BOUND=    7.712  UPPER_BOUND=    8.100
INTER + INTRA:          -5.353
INTER:                  -5.353
INTRA:                   0.000
UNBOUND:                 0.000

$$$$
