
     RDKit          3D

 22 18  0  0  0  0  0  0  0  0999 V2000
   47.1107    2.9936    6.5953 Al  0  0  0  0  0 15  0  0  0  0  0  0
   47.5442    2.4428    6.2420 C   0  0  0  0  0  0  0  0  0  0  0  0
   47.7922    1.1943    6.8473 O   0  0  0  0  0  0  0  0  0  0  0  0
   48.1039    2.5967    5.1095 O   0  0  0  0  0  0  0  0  0  0  0  0
   46.7172    3.4802    6.8520 C   0  0  0  0  0  0  0  0  0  0  0  0
   47.5236    2.3971    6.2288 C   0  0  0  0  0  0  0  0  0  0  0  0
   47.7404    1.1960    6.9182 O   0  0  0  0  0  0  0  0  0  0  0  0
   47.9597    2.5551    5.0469 O   0  0  0  0  0  0  0  0  0  0  0  0
   46.7799    3.5039    6.8708 C   0  0  0  0  0  0  0  0  0  0  0  0
   47.6736    2.4156    6.3995 C   0  0  0  0  0  0  0  0  0  0  0  0
   48.1157    2.4448    5.0825 O   0  0  0  0  0  0  0  0  0  0  0  0
   48.0636    1.5639    7.2415 O   0  0  0  0  0  0  0  0  0  0  0  0
   46.6853    3.4632    6.8027 C   0  0  0  0  0  0  0  0  0  0  0  0
   47.1352    4.4766    6.5737 H   0  0  0  0  0  0  0  0  0  0  0  0
   46.8244    3.4146    7.9534 H   0  0  0  0  0  0  0  0  0  0  0  0
   45.6577    3.3500    6.5894 H   0  0  0  0  0  0  0  0  0  0  0  0
   46.4526    3.2038    7.8831 H   0  0  0  0  0  0  0  0  0  0  0  0
   45.8686    3.7209    6.2794 H   0  0  0  0  0  0  0  0  0  0  0  0
   47.4499    4.3784    6.9400 H   0  0  0  0  0  0  0  0  0  0  0  0
   46.4561    3.4273    7.8823 H   0  0  0  0  0  0  0  0  0  0  0  0
   45.7262    3.1888    6.2761 H   0  0  0  0  0  0  0  0  0  0  0  0
   47.0541    4.4514    6.4825 H   0  0  0  0  0  0  0  0  0  0  0  0
  3  2  1  0
  4  2  2  0
  5  2  1  0
  7  6  1  0
  8  6  2  0
  9  6  1  0
 11 10  1  0
 12 10  2  0
 13 10  1  0
  5 14  1  0
  5 15  1  0
  5 16  1  0
  9 17  1  0
  9 18  1  0
  9 19  1  0
 13 20  1  0
 13 21  1  0
 13 22  1  0
M  CHG  4   1   3   3  -1   7  -1  11  -1
M  END
> <Uni-Dock RESULT> 
ENERGY=   -8.236  LOWER_BOUND=    0.000  UPPER_BOUND=    0.000
INTER + INTRA:          -8.236
INTER:                  -8.236
INTRA:                   0.000
UNBOUND:                 0.000

$$$$

     RDKit          3D

 22 18  0  0  0  0  0  0  0  0999 V2000
   47.1181    2.8084    6.6951 Al  0  0  0  0  0 15  0  0  0  0  0  0
   47.5369    2.1575    6.5642 C   0  0  0  0  0  0  0  0  0  0  0  0
   48.4427    2.0635    5.4885 O   0  0  0  0  0  0  0  0  0  0  0  0
   47.4442    1.0996    7.2654 O   0  0  0  0  0  0  0  0  0  0  0  0
   46.7642    3.3607    6.8599 C   0  0  0  0  0  0  0  0  0  0  0  0
   47.5886    2.1582    6.5669 C   0  0  0  0  0  0  0  0  0  0  0  0
   48.4444    2.1454    5.4567 O   0  0  0  0  0  0  0  0  0  0  0  0
   47.5481    1.1729    7.3667 O   0  0  0  0  0  0  0  0  0  0  0  0
   46.7158    3.3252    6.8248 C   0  0  0  0  0  0  0  0  0  0  0  0
   47.4796    2.1365    6.3678 C   0  0  0  0  0  0  0  0  0  0  0  0
   47.5834    1.0465    7.2234 O   0  0  0  0  0  0  0  0  0  0  0  0
   47.9224    2.1351    5.1887 O   0  0  0  0  0  0  0  0  0  0  0  0
   46.8020    3.3556    6.9076 C   0  0  0  0  0  0  0  0  0  0  0  0
   45.7719    3.0541    7.2678 H   0  0  0  0  0  0  0  0  0  0  0  0
   46.5413    3.8801    5.9062 H   0  0  0  0  0  0  0  0  0  0  0  0
   47.3255    4.0433    7.5138 H   0  0  0  0  0  0  0  0  0  0  0  0
   46.8828    4.1009    6.0552 H   0  0  0  0  0  0  0  0  0  0  0  0
   46.9817    3.7688    7.8045 H   0  0  0  0  0  0  0  0  0  0  0  0
   45.6655    2.9875    6.7913 H   0  0  0  0  0  0  0  0  0  0  0  0
   46.6795    4.1395    6.1395 H   0  0  0  0  0  0  0  0  0  0  0  0
   47.5157    3.7821    7.6701 H   0  0  0  0  0  0  0  0  0  0  0  0
   45.8444    3.0636    7.3688 H   0  0  0  0  0  0  0  0  0  0  0  0
  3  2  1  0
  4  2  2  0
  5  2  1  0
  7  6  1  0
  8  6  2  0
  9  6  1  0
 11 10  1  0
 12 10  2  0
 13 10  1  0
  5 14  1  0
  5 15  1  0
  5 16  1  0
  9 17  1  0
  9 18  1  0
  9 19  1  0
 13 20  1  0
 13 21  1  0
 13 22  1  0
M  CHG  4   1   3   3  -1   7  -1  11  -1
M  END
> <Uni-Dock RESULT> 
ENERGY=   -8.106  LOWER_BOUND=    0.383  UPPER_BOUND=    1.601
INTER + INTRA:          -8.106
INTER:                  -8.106
INTRA:                   0.000
UNBOUND:                 0.000

$$$$

     RDKit          3D

 22 18  0  0  0  0  0  0  0  0999 V2000
   47.5249    1.8600    6.7045 Al  0  0  0  0  0 15  0  0  0  0  0  0
   47.0721    1.5704    7.2766 C   0  0  0  0  0  0  0  0  0  0  0  0
   47.0891    0.2019    7.6134 O   0  0  0  0  0  0  0  0  0  0  0  0
   46.2487    2.2664    7.9526 O   0  0  0  0  0  0  0  0  0  0  0  0
   47.9219    2.1528    6.2418 C   0  0  0  0  0  0  0  0  0  0  0  0
   47.0930    1.5490    7.3189 C   0  0  0  0  0  0  0  0  0  0  0  0
   47.1559    0.1705    7.5657 O   0  0  0  0  0  0  0  0  0  0  0  0
   46.3771    2.3064    8.0440 O   0  0  0  0  0  0  0  0  0  0  0  0
   47.8636    2.1449    6.2047 C   0  0  0  0  0  0  0  0  0  0  0  0
   46.9866    1.4230    7.1613 C   0  0  0  0  0  0  0  0  0  0  0  0
   46.2447    2.1666    8.0709 O   0  0  0  0  0  0  0  0  0  0  0  0
   46.8863    0.1730    7.0444 O   0  0  0  0  0  0  0  0  0  0  0  0
   47.9426    2.1779    6.2935 C   0  0  0  0  0  0  0  0  0  0  0  0
   47.3610    2.9801    5.7459 H   0  0  0  0  0  0  0  0  0  0  0  0
   48.0849    1.3936    5.4505 H   0  0  0  0  0  0  0  0  0  0  0  0
   48.8965    2.4550    6.6508 H   0  0  0  0  0  0  0  0  0  0  0  0
   48.4471    1.3623    5.6860 H   0  0  0  0  0  0  0  0  0  0  0  0
   48.5854    2.8792    6.6135 H   0  0  0  0  0  0  0  0  0  0  0  0
   47.1522    2.6081    5.4991 H   0  0  0  0  0  0  0  0  0  0  0  0
   48.4231    1.5296    5.5397 H   0  0  0  0  0  0  0  0  0  0  0  0
   48.7708    2.5140    6.9818 H   0  0  0  0  0  0  0  0  0  0  0  0
   47.4202    3.0361    5.8402 H   0  0  0  0  0  0  0  0  0  0  0  0
  3  2  1  0
  4  2  2  0
  5  2  1  0
  7  6  1  0
  8  6  2  0
  9  6  1  0
 11 10  1  0
 12 10  2  0
 13 10  1  0
  5 14  1  0
  5 15  1  0
  5 16  1  0
  9 17  1  0
  9 18  1  0
  9 19  1  0
 13 20  1  0
 13 21  1  0
 13 22  1  0
M  CHG  4   1   3   3  -1   7  -1  11  -1
M  END
> <Uni-Dock RESULT> 
ENERGY=   -7.792  LOWER_BOUND=    1.989  UPPER_BOUND=    2.168
INTER + INTRA:          -7.792
INTER:                  -7.792
INTRA:                   0.000
UNBOUND:                 0.000

$$$$

     RDKit          3D

 22 18  0  0  0  0  0  0  0  0999 V2000
   47.5130    1.9136    6.6705 Al  0  0  0  0  0 15  0  0  0  0  0  0
   47.0561    1.5422    7.1896 C   0  0  0  0  0  0  0  0  0  0  0  0
   46.0544    2.2204    7.9130 O   0  0  0  0  0  0  0  0  0  0  0  0
   47.1649    0.3072    7.4767 O   0  0  0  0  0  0  0  0  0  0  0  0
   47.9040    2.1900    6.1928 C   0  0  0  0  0  0  0  0  0  0  0  0
   47.0049    1.5390    7.1825 C   0  0  0  0  0  0  0  0  0  0  0  0
   46.0535    2.3000    7.8758 O   0  0  0  0  0  0  0  0  0  0  0  0
   47.0738    0.2816    7.3445 O   0  0  0  0  0  0  0  0  0  0  0  0
   47.9475    2.1924    6.2471 C   0  0  0  0  0  0  0  0  0  0  0  0
   47.0946    1.6710    7.3453 C   0  0  0  0  0  0  0  0  0  0  0  0
   47.0204    0.2959    7.5309 O   0  0  0  0  0  0  0  0  0  0  0  0
   46.5484    2.5037    8.1165 O   0  0  0  0  0  0  0  0  0  0  0  0
   47.8704    2.1509    6.1601 C   0  0  0  0  0  0  0  0  0  0  0  0
   48.9145    1.7179    6.2255 H   0  0  0  0  0  0  0  0  0  0  0  0
   48.0631    3.2443    6.4965 H   0  0  0  0  0  0  0  0  0  0  0  0
   47.4339    2.1733    5.1992 H   0  0  0  0  0  0  0  0  0  0  0  0
   47.7463    3.2784    6.2032 H   0  0  0  0  0  0  0  0  0  0  0  0
   47.7900    1.7855    5.2288 H   0  0  0  0  0  0  0  0  0  0  0  0
   48.9748    2.0184    6.6113 H   0  0  0  0  0  0  0  0  0  0  0  0
   47.9579    3.2514    6.1364 H   0  0  0  0  0  0  0  0  0  0  0  0
   47.2473    1.8731    5.2617 H   0  0  0  0  0  0  0  0  0  0  0  0
   48.8518    1.6493    6.1423 H   0  0  0  0  0  0  0  0  0  0  0  0
  3  2  1  0
  4  2  2  0
  5  2  1  0
  7  6  1  0
  8  6  2  0
  9  6  1  0
 11 10  1  0
 12 10  2  0
 13 10  1  0
  5 14  1  0
  5 15  1  0
  5 16  1  0
  9 17  1  0
  9 18  1  0
  9 19  1  0
 13 20  1  0
 13 21  1  0
 13 22  1  0
M  CHG  4   1   3   3  -1   7  -1  11  -1
M  END
> <Uni-Dock RESULT> 
ENERGY=   -7.709  LOWER_BOUND=    1.986  UPPER_BOUND=    2.260
INTER + INTRA:          -7.709
INTER:                  -7.709
INTRA:                   0.000
UNBOUND:                 0.000

$$$$

     RDKit          3D

 22 18  0  0  0  0  0  0  0  0999 V2000
   45.0608    2.8076    8.7071 Al  0  0  0  0  0 15  0  0  0  0  0  0
   45.1264    3.5143    8.3717 C   0  0  0  0  0  0  0  0  0  0  0  0
   44.4400    4.6386    8.8730 O   0  0  0  0  0  0  0  0  0  0  0  0
   45.8202    3.7451    7.3301 O   0  0  0  0  0  0  0  0  0  0  0  0
   45.0558    2.1914    8.9858 C   0  0  0  0  0  0  0  0  0  0  0  0
   45.1468    3.5543    8.3976 C   0  0  0  0  0  0  0  0  0  0  0  0
   44.4055    4.6089    8.9481 O   0  0  0  0  0  0  0  0  0  0  0  0
   45.9462    3.7571    7.4322 O   0  0  0  0  0  0  0  0  0  0  0  0
   45.0085    2.1825    8.9355 C   0  0  0  0  0  0  0  0  0  0  0  0
   44.9242    3.5443    8.3493 C   0  0  0  0  0  0  0  0  0  0  0  0
   45.8326    3.8967    7.3587 O   0  0  0  0  0  0  0  0  0  0  0  0
   43.9745    4.2873    8.7132 O   0  0  0  0  0  0  0  0  0  0  0  0
   45.1139    2.2083    8.9943 C   0  0  0  0  0  0  0  0  0  0  0  0
   45.1138    1.4222    8.1795 H   0  0  0  0  0  0  0  0  0  0  0  0
   44.0519    2.0659    9.4390 H   0  0  0  0  0  0  0  0  0  0  0  0
   45.8172    2.0758    9.7703 H   0  0  0  0  0  0  0  0  0  0  0  0
   44.2951    2.1765    9.7799 H   0  0  0  0  0  0  0  0  0  0  0  0
   45.9881    1.8452    9.3279 H   0  0  0  0  0  0  0  0  0  0  0  0
   44.6354    1.5288    8.1282 H   0  0  0  0  0  0  0  0  0  0  0  0
   44.3010    1.9672    9.7018 H   0  0  0  0  0  0  0  0  0  0  0  0
   46.0466    2.3079    9.6210 H   0  0  0  0  0  0  0  0  0  0  0  0
   45.2328    1.4417    8.2112 H   0  0  0  0  0  0  0  0  0  0  0  0
  3  2  1  0
  4  2  2  0
  5  2  1  0
  7  6  1  0
  8  6  2  0
  9  6  1  0
 11 10  1  0
 12 10  2  0
 13 10  1  0
  5 14  1  0
  5 15  1  0
  5 16  1  0
  9 17  1  0
  9 18  1  0
  9 19  1  0
 13 20  1  0
 13 21  1  0
 13 22  1  0
M  CHG  4   1   3   3  -1   7  -1  11  -1
M  END
> <Uni-Dock RESULT> 
ENERGY=   -5.930  LOWER_BOUND=    3.478  UPPER_BOUND=    3.793
INTER + INTRA:          -5.930
INTER:                  -5.930
INTRA:                   0.000
UNBOUND:                 0.000

$$$$

     RDKit          3D

 22 18  0  0  0  0  0  0  0  0999 V2000
   38.3287    5.0811    4.9586 Al  0  0  0  0  0 15  0  0  0  0  0  0
   38.8793    4.6406    5.3035 C   0  0  0  0  0  0  0  0  0  0  0  0
   40.2091    5.0879    5.4376 O   0  0  0  0  0  0  0  0  0  0  0  0
   38.6719    3.4696    5.7567 O   0  0  0  0  0  0  0  0  0  0  0  0
   37.8201    5.4426    4.6978 C   0  0  0  0  0  0  0  0  0  0  0  0
   38.9027    4.6563    5.3470 C   0  0  0  0  0  0  0  0  0  0  0  0
   40.2048    5.1715    5.4109 O   0  0  0  0  0  0  0  0  0  0  0  0
   38.6169    3.5448    5.8899 O   0  0  0  0  0  0  0  0  0  0  0  0
   37.8367    5.4034    4.6428 C   0  0  0  0  0  0  0  0  0  0  0  0
   39.0130    4.6505    5.1475 C   0  0  0  0  0  0  0  0  0  0  0  0
   38.7936    3.4732    5.8523 O   0  0  0  0  0  0  0  0  0  0  0  0
   40.1602    5.0664    4.8352 O   0  0  0  0  0  0  0  0  0  0  0  0
   37.8032    5.4380    4.7563 C   0  0  0  0  0  0  0  0  0  0  0  0
   37.1199    4.7591    4.1615 H   0  0  0  0  0  0  0  0  0  0  0  0
   38.2677    6.0810    3.9097 H   0  0  0  0  0  0  0  0  0  0  0  0
   37.3332    6.0870    5.4435 H   0  0  0  0  0  0  0  0  0  0  0  0
   38.2387    6.3533    4.2452 H   0  0  0  0  0  0  0  0  0  0  0  0
   37.0352    5.6594    5.3633 H   0  0  0  0  0  0  0  0  0  0  0  0
   37.4661    4.7791    3.8114 H   0  0  0  0  0  0  0  0  0  0  0  0
   38.0573    6.3066    4.1234 H   0  0  0  0  0  0  0  0  0  0  0  0
   37.4009    5.8671    5.7190 H   0  0  0  0  0  0  0  0  0  0  0  0
   37.0730    4.7659    4.2768 H   0  0  0  0  0  0  0  0  0  0  0  0
  3  2  1  0
  4  2  2  0
  5  2  1  0
  7  6  1  0
  8  6  2  0
  9  6  1  0
 11 10  1  0
 12 10  2  0
 13 10  1  0
  5 14  1  0
  5 15  1  0
  5 16  1  0
  9 17  1  0
  9 18  1  0
  9 19  1  0
 13 20  1  0
 13 21  1  0
 13 22  1  0
M  CHG  4   1   3   3  -1   7  -1  11  -1
M  END
> <Uni-Dock RESULT> 
ENERGY=   -5.614  LOWER_BOUND=    8.769  UPPER_BOUND=    9.147
INTER + INTRA:          -5.614
INTER:                  -5.614
INTRA:                   0.000
UNBOUND:                 0.000

$$$$

     RDKit          3D

 22 18  0  0  0  0  0  0  0  0999 V2000
   43.1344    4.7106   11.6113 Al  0  0  0  0  0 15  0  0  0  0  0  0
   42.7906    5.1978   12.1218 C   0  0  0  0  0  0  0  0  0  0  0  0
   41.9801    6.2682   11.6931 O   0  0  0  0  0  0  0  0  0  0  0  0
   42.9317    5.1201   13.3841 O   0  0  0  0  0  0  0  0  0  0  0  0
   43.4208    4.2514   11.2056 C   0  0  0  0  0  0  0  0  0  0  0  0
   42.7390    5.2010   12.1249 C   0  0  0  0  0  0  0  0  0  0  0  0
   41.9729    6.2543   11.6066 O   0  0  0  0  0  0  0  0  0  0  0  0
   42.8141    5.0080   13.3776 O   0  0  0  0  0  0  0  0  0  0  0  0
   43.4748    4.2940   11.2160 C   0  0  0  0  0  0  0  0  0  0  0  0
   42.8640    5.3702   12.0369 C   0  0  0  0  0  0  0  0  0  0  0  0
   42.8018    5.1985   13.4144 O   0  0  0  0  0  0  0  0  0  0  0  0
   42.5119    6.4304   11.4553 O   0  0  0  0  0  0  0  0  0  0  0  0
   43.3802    4.2174   11.2361 C   0  0  0  0  0  0  0  0  0  0  0  0
   44.4049    3.9451   11.6332 H   0  0  0  0  0  0  0  0  0  0  0  0
   43.6631    4.7813   10.2625 H   0  0  0  0  0  0  0  0  0  0  0  0
   42.7500    3.4105   10.9788 H   0  0  0  0  0  0  0  0  0  0  0  0
   43.2920    4.5809   10.1643 H   0  0  0  0  0  0  0  0  0  0  0  0
   43.0960    3.2613   11.3477 H   0  0  0  0  0  0  0  0  0  0  0  0
   44.5522    4.3748   11.4421 H   0  0  0  0  0  0  0  0  0  0  0  0
   43.4839    4.4663   10.1652 H   0  0  0  0  0  0  0  0  0  0  0  0
   42.5746    3.4296   11.2914 H   0  0  0  0  0  0  0  0  0  0  0  0
   44.3245    3.8620   11.6798 H   0  0  0  0  0  0  0  0  0  0  0  0
  3  2  1  0
  4  2  2  0
  5  2  1  0
  7  6  1  0
  8  6  2  0
  9  6  1  0
 11 10  1  0
 12 10  2  0
 13 10  1  0
  5 14  1  0
  5 15  1  0
  5 16  1  0
  9 17  1  0
  9 18  1  0
  9 19  1  0
 13 20  1  0
 13 21  1  0
 13 22  1  0
M  CHG  4   1   3   3  -1   7  -1  11  -1
M  END
> <Uni-Dock RESULT> 
ENERGY=   -5.536  LOWER_BOUND=    7.611  UPPER_BOUND=    8.203
INTER + INTRA:          -5.536
INTER:                  -5.536
INTRA:                   0.000
UNBOUND:                 0.000

$$$$

     RDKit          3D

 22 18  0  0  0  0  0  0  0  0999 V2000
   43.1488    4.7372   11.6248 Al  0  0  0  0  0 15  0  0  0  0  0  0
   42.8174    5.3147   12.0406 C   0  0  0  0  0  0  0  0  0  0  0  0
   42.9418    5.3831   13.4428 O   0  0  0  0  0  0  0  0  0  0  0  0
   42.1072    6.2398   11.5315 O   0  0  0  0  0  0  0  0  0  0  0  0
   43.4450    4.2756   11.2290 C   0  0  0  0  0  0  0  0  0  0  0  0
   42.8464    5.3480   12.0677 C   0  0  0  0  0  0  0  0  0  0  0  0
   42.9999    5.3196   13.4607 O   0  0  0  0  0  0  0  0  0  0  0  0
   42.2486    6.3135   11.4999 O   0  0  0  0  0  0  0  0  0  0  0  0
   43.3812    4.2483   11.2341 C   0  0  0  0  0  0  0  0  0  0  0  0
   42.7175    5.1905   12.1706 C   0  0  0  0  0  0  0  0  0  0  0  0
   42.1281    6.3364   11.6507 O   0  0  0  0  0  0  0  0  0  0  0  0
   42.6401    4.8623   13.3841 O   0  0  0  0  0  0  0  0  0  0  0  0
   43.4739    4.3267   11.2121 C   0  0  0  0  0  0  0  0  0  0  0  0
   42.7756    4.0463   10.3663 H   0  0  0  0  0  0  0  0  0  0  0  0
   43.4874    3.3410   11.8237 H   0  0  0  0  0  0  0  0  0  0  0  0
   44.4668    4.5596   10.9397 H   0  0  0  0  0  0  0  0  0  0  0  0
   43.8871    3.5005   11.8719 H   0  0  0  0  0  0  0  0  0  0  0  0
   44.1399    4.6560   10.5373 H   0  0  0  0  0  0  0  0  0  0  0  0
   42.5383    3.7743   10.7019 H   0  0  0  0  0  0  0  0  0  0  0  0
   43.8314    3.3942   11.6834 H   0  0  0  0  0  0  0  0  0  0  0  0
   44.4013    4.9124   10.9486 H   0  0  0  0  0  0  0  0  0  0  0  0
   42.8490    4.1377   10.3240 H   0  0  0  0  0  0  0  0  0  0  0  0
  3  2  1  0
  4  2  2  0
  5  2  1  0
  7  6  1  0
  8  6  2  0
  9  6  1  0
 11 10  1  0
 12 10  2  0
 13 10  1  0
  5 14  1  0
  5 15  1  0
  5 16  1  0
  9 17  1  0
  9 18  1  0
  9 19  1  0
 13 20  1  0
 13 21  1  0
 13 22  1  0
M  CHG  4   1   3   3  -1   7  -1  11  -1
M  END
> <Uni-Dock RESULT> 
ENERGY=   -5.430  LOWER_BOUND=    7.685  UPPER_BOUND=    8.079
INTER + INTRA:          -5.430
INTER:                  -5.430
INTRA:                   0.000
UNBOUND:                 0.000

$$$$
