
     RDKit          3D

 22 18  0  0  0  0  0  0  0  0999 V2000
   47.0378    2.8045    6.7573 Al  0  0  0  0  0 15  0  0  0  0  0  0
   47.5127    2.2346    6.4322 C   0  0  0  0  0  0  0  0  0  0  0  0
   47.7098    1.0794    7.1775 O   0  0  0  0  0  0  0  0  0  0  0  0
   48.0593    2.3609    5.3041 O   0  0  0  0  0  0  0  0  0  0  0  0
   46.6374    3.3220    7.0011 C   0  0  0  0  0  0  0  0  0  0  0  0
   47.5893    2.1809    6.7371 C   0  0  0  0  0  0  0  0  0  0  0  0
   47.1759    0.9238    7.1702 O   0  0  0  0  0  0  0  0  0  0  0  0
   48.7715    2.3604    6.3426 O   0  0  0  0  0  0  0  0  0  0  0  0
   46.6144    3.3144    6.7459 C   0  0  0  0  0  0  0  0  0  0  0  0
   47.4130    2.0576    6.7587 C   0  0  0  0  0  0  0  0  0  0  0  0
   48.3828    1.9204    5.7542 O   0  0  0  0  0  0  0  0  0  0  0  0
   47.1588    1.1455    7.5625 O   0  0  0  0  0  0  0  0  0  0  0  0
   46.7021    3.3617    6.8090 C   0  0  0  0  0  0  0  0  0  0  0  0
   46.6239    4.1905    6.3407 H   0  0  0  0  0  0  0  0  0  0  0  0
   45.6418    2.8529    7.0688 H   0  0  0  0  0  0  0  0  0  0  0  0
   47.0796    3.5912    7.9768 H   0  0  0  0  0  0  0  0  0  0  0  0
   46.8063    3.9794    7.5952 H   0  0  0  0  0  0  0  0  0  0  0  0
   45.5881    2.9262    6.8730 H   0  0  0  0  0  0  0  0  0  0  0  0
   46.7190    3.9463    5.8374 H   0  0  0  0  0  0  0  0  0  0  0  0
   45.7591    3.3119    7.4042 H   0  0  0  0  0  0  0  0  0  0  0  0
   47.3850    4.1025    7.2309 H   0  0  0  0  0  0  0  0  0  0  0  0
   46.4639    3.7319    5.7817 H   0  0  0  0  0  0  0  0  0  0  0  0
  3  2  1  0
  4  2  2  0
  5  2  1  0
  7  6  1  0
  8  6  2  0
  9  6  1  0
 11 10  1  0
 12 10  2  0
 13 10  1  0
  5 14  1  0
  5 15  1  0
  5 16  1  0
  9 17  1  0
  9 18  1  0
  9 19  1  0
 13 20  1  0
 13 21  1  0
 13 22  1  0
M  CHG  4   1   3   3  -1   7  -1  11  -1
M  END
> <Uni-Dock RESULT> 
ENERGY=   -7.719  LOWER_BOUND=    0.000  UPPER_BOUND=    0.000
INTER + INTRA:          -7.719
INTER:                  -7.719
INTRA:                   0.000
UNBOUND:                 0.000

$$$$

     RDKit          3D

 22 18  0  0  0  0  0  0  0  0999 V2000
   47.0833    2.9164    6.6027 Al  0  0  0  0  0 15  0  0  0  0  0  0
   47.5590    2.2644    6.5337 C   0  0  0  0  0  0  0  0  0  0  0  0
   48.0950    2.0066    5.2787 O   0  0  0  0  0  0  0  0  0  0  0  0
   47.8203    1.5023    7.5022 O   0  0  0  0  0  0  0  0  0  0  0  0
   46.6662    3.4668    6.7060 C   0  0  0  0  0  0  0  0  0  0  0  0
   47.4346    2.2541    6.2402 C   0  0  0  0  0  0  0  0  0  0  0  0
   48.3927    2.4758    5.2544 O   0  0  0  0  0  0  0  0  0  0  0  0
   47.1061    1.0800    6.5549 O   0  0  0  0  0  0  0  0  0  0  0  0
   46.8008    3.4251    6.9202 C   0  0  0  0  0  0  0  0  0  0  0  0
   47.5808    2.3992    6.1741 C   0  0  0  0  0  0  0  0  0  0  0  0
   47.8687    1.2093    6.8594 O   0  0  0  0  0  0  0  0  0  0  0  0
   48.0293    2.6351    5.0403 O   0  0  0  0  0  0  0  0  0  0  0  0
   46.7046    3.3677    6.8832 C   0  0  0  0  0  0  0  0  0  0  0  0
   46.2688    3.5090    7.7214 H   0  0  0  0  0  0  0  0  0  0  0  0
   47.3301    4.3222    6.4981 H   0  0  0  0  0  0  0  0  0  0  0  0
   45.8437    3.3434    5.9791 H   0  0  0  0  0  0  0  0  0  0  0  0
   45.7903    3.5941    6.5317 H   0  0  0  0  0  0  0  0  0  0  0  0
   47.3794    4.3415    6.7075 H   0  0  0  0  0  0  0  0  0  0  0  0
   46.6792    3.2441    8.0102 H   0  0  0  0  0  0  0  0  0  0  0  0
   46.7565    4.3925    6.4436 H   0  0  0  0  0  0  0  0  0  0  0  0
   45.6818    2.9856    6.8490 H   0  0  0  0  0  0  0  0  0  0  0  0
   46.9616    3.4251    7.9694 H   0  0  0  0  0  0  0  0  0  0  0  0
  3  2  1  0
  4  2  2  0
  5  2  1  0
  7  6  1  0
  8  6  2  0
  9  6  1  0
 11 10  1  0
 12 10  2  0
 13 10  1  0
  5 14  1  0
  5 15  1  0
  5 16  1  0
  9 17  1  0
  9 18  1  0
  9 19  1  0
 13 20  1  0
 13 21  1  0
 13 22  1  0
M  CHG  4   1   3   3  -1   7  -1  11  -1
M  END
> <Uni-Dock RESULT> 
ENERGY=   -7.459  LOWER_BOUND=    0.494  UPPER_BOUND=    1.631
INTER + INTRA:          -7.459
INTER:                  -7.459
INTRA:                   0.000
UNBOUND:                 0.000

$$$$

     RDKit          3D

 22 18  0  0  0  0  0  0  0  0999 V2000
   47.2251    2.1311    6.7322 Al  0  0  0  0  0 15  0  0  0  0  0  0
   46.8623    2.8298    6.5416 C   0  0  0  0  0  0  0  0  0  0  0  0
   47.2269    3.4205    5.3387 O   0  0  0  0  0  0  0  0  0  0  0  0
   46.0021    3.3783    7.2809 O   0  0  0  0  0  0  0  0  0  0  0  0
   47.5149    1.5294    6.9361 C   0  0  0  0  0  0  0  0  0  0  0  0
   47.1434    2.8923    6.4045 C   0  0  0  0  0  0  0  0  0  0  0  0
   47.0405    3.0042    5.0204 O   0  0  0  0  0  0  0  0  0  0  0  0
   47.1275    3.9223    7.1286 O   0  0  0  0  0  0  0  0  0  0  0  0
   47.2729    1.5362    7.0207 C   0  0  0  0  0  0  0  0  0  0  0  0
   47.0810    2.7827    6.2288 C   0  0  0  0  0  0  0  0  0  0  0  0
   46.3539    3.8118    6.8455 O   0  0  0  0  0  0  0  0  0  0  0  0
   47.4661    2.8585    5.0505 O   0  0  0  0  0  0  0  0  0  0  0  0
   47.3672    1.5896    7.0674 C   0  0  0  0  0  0  0  0  0  0  0  0
   47.1819    1.2166    7.9270 H   0  0  0  0  0  0  0  0  0  0  0  0
   47.1850    0.8206    6.1587 H   0  0  0  0  0  0  0  0  0  0  0  0
   48.6023    1.7227    6.9422 H   0  0  0  0  0  0  0  0  0  0  0  0
   48.3090    1.3498    7.3242 H   0  0  0  0  0  0  0  0  0  0  0  0
   47.0156    0.7600    6.2782 H   0  0  0  0  0  0  0  0  0  0  0  0
   46.6665    1.4528    7.9485 H   0  0  0  0  0  0  0  0  0  0  0  0
   47.6666    0.7020    6.4603 H   0  0  0  0  0  0  0  0  0  0  0  0
   48.1556    1.8556    7.7752 H   0  0  0  0  0  0  0  0  0  0  0  0
   46.4850    1.3176    7.6976 H   0  0  0  0  0  0  0  0  0  0  0  0
  3  2  1  0
  4  2  2  0
  5  2  1  0
  7  6  1  0
  8  6  2  0
  9  6  1  0
 11 10  1  0
 12 10  2  0
 13 10  1  0
  5 14  1  0
  5 15  1  0
  5 16  1  0
  9 17  1  0
  9 18  1  0
  9 19  1  0
 13 20  1  0
 13 21  1  0
 13 22  1  0
M  CHG  4   1   3   3  -1   7  -1  11  -1
M  END
> <Uni-Dock RESULT> 
ENERGY=   -6.967  LOWER_BOUND=    1.547  UPPER_BOUND=    2.245
INTER + INTRA:          -6.967
INTER:                  -6.967
INTRA:                   0.000
UNBOUND:                 0.000

$$$$

     RDKit          3D

 22 18  0  0  0  0  0  0  0  0999 V2000
   47.4951    2.4700    6.4116 Al  0  0  0  0  0 15  0  0  0  0  0  0
   46.8676    2.4745    6.9237 C   0  0  0  0  0  0  0  0  0  0  0  0
   46.4102    3.7153    7.3478 O   0  0  0  0  0  0  0  0  0  0  0  0
   46.3103    1.4210    7.3324 O   0  0  0  0  0  0  0  0  0  0  0  0
   48.0353    2.4205    5.9719 C   0  0  0  0  0  0  0  0  0  0  0  0
   47.0131    2.7346    7.0370 C   0  0  0  0  0  0  0  0  0  0  0  0
   46.2574    3.8876    6.8416 O   0  0  0  0  0  0  0  0  0  0  0  0
   46.9719    2.1265    8.1388 O   0  0  0  0  0  0  0  0  0  0  0  0
   47.8736    2.2272    5.9246 C   0  0  0  0  0  0  0  0  0  0  0  0
   46.9200    2.8531    6.8819 C   0  0  0  0  0  0  0  0  0  0  0  0
   46.2480    1.9852    7.7556 O   0  0  0  0  0  0  0  0  0  0  0  0
   46.6702    4.0688    6.8344 O   0  0  0  0  0  0  0  0  0  0  0  0
   47.9534    2.2349    6.0111 C   0  0  0  0  0  0  0  0  0  0  0  0
   48.3247    1.3868    5.7758 H   0  0  0  0  0  0  0  0  0  0  0  0
   47.6572    2.9120    5.0602 H   0  0  0  0  0  0  0  0  0  0  0  0
   48.8605    2.9601    6.4696 H   0  0  0  0  0  0  0  0  0  0  0  0
   48.9251    2.4729    6.1098 H   0  0  0  0  0  0  0  0  0  0  0  0
   47.5944    2.7226    4.9777 H   0  0  0  0  0  0  0  0  0  0  0  0
   47.8304    1.1188    5.8518 H   0  0  0  0  0  0  0  0  0  0  0  0
   48.2305    2.8861    5.1478 H   0  0  0  0  0  0  0  0  0  0  0  0
   48.8293    2.0192    6.6272 H   0  0  0  0  0  0  0  0  0  0  0  0
   47.6144    1.2429    5.6235 H   0  0  0  0  0  0  0  0  0  0  0  0
  3  2  1  0
  4  2  2  0
  5  2  1  0
  7  6  1  0
  8  6  2  0
  9  6  1  0
 11 10  1  0
 12 10  2  0
 13 10  1  0
  5 14  1  0
  5 15  1  0
  5 16  1  0
  9 17  1  0
  9 18  1  0
  9 19  1  0
 13 20  1  0
 13 21  1  0
 13 22  1  0
M  CHG  4   1   3   3  -1   7  -1  11  -1
M  END
> <Uni-Dock RESULT> 
ENERGY=   -6.213  LOWER_BOUND=    1.496  UPPER_BOUND=    2.225
INTER + INTRA:          -6.213
INTER:                  -6.213
INTRA:                   0.000
UNBOUND:                 0.000

$$$$

     RDKit          3D

 22 18  0  0  0  0  0  0  0  0999 V2000
   46.1473    3.6882    7.4767 Al  0  0  0  0  0 15  0  0  0  0  0  0
   45.4889    3.8360    7.9247 C   0  0  0  0  0  0  0  0  0  0  0  0
   45.6144    4.7803    8.9353 O   0  0  0  0  0  0  0  0  0  0  0  0
   44.3878    3.2536    7.7359 O   0  0  0  0  0  0  0  0  0  0  0  0
   46.6908    3.5288    7.0683 C   0  0  0  0  0  0  0  0  0  0  0  0
   45.7049    3.8836    8.1545 C   0  0  0  0  0  0  0  0  0  0  0  0
   45.7239    5.2050    8.5932 O   0  0  0  0  0  0  0  0  0  0  0  0
   45.0452    3.0146    8.7830 O   0  0  0  0  0  0  0  0  0  0  0  0
   46.4760    3.5087    6.9297 C   0  0  0  0  0  0  0  0  0  0  0  0
   45.7336    4.0861    8.0843 C   0  0  0  0  0  0  0  0  0  0  0  0
   44.4963    3.5001    8.3907 O   0  0  0  0  0  0  0  0  0  0  0  0
   46.1532    5.0944    8.6758 O   0  0  0  0  0  0  0  0  0  0  0  0
   46.5197    3.4307    7.0067 C   0  0  0  0  0  0  0  0  0  0  0  0
   46.4658    2.7280    6.3620 H   0  0  0  0  0  0  0  0  0  0  0  0
   46.8950    4.4788    6.5472 H   0  0  0  0  0  0  0  0  0  0  0  0
   47.4884    3.2118    7.7635 H   0  0  0  0  0  0  0  0  0  0  0  0
   47.4019    2.9903    7.2026 H   0  0  0  0  0  0  0  0  0  0  0  0
   46.7730    4.4191    6.3794 H   0  0  0  0  0  0  0  0  0  0  0  0
   45.9066    2.7961    6.2944 H   0  0  0  0  0  0  0  0  0  0  0  0
   47.3235    4.0910    6.6018 H   0  0  0  0  0  0  0  0  0  0  0  0
   46.9455    2.5099    7.4117 H   0  0  0  0  0  0  0  0  0  0  0  0
   45.8594    3.1051    6.1658 H   0  0  0  0  0  0  0  0  0  0  0  0
  3  2  1  0
  4  2  2  0
  5  2  1  0
  7  6  1  0
  8  6  2  0
  9  6  1  0
 11 10  1  0
 12 10  2  0
 13 10  1  0
  5 14  1  0
  5 15  1  0
  5 16  1  0
  9 17  1  0
  9 18  1  0
  9 19  1  0
 13 20  1  0
 13 21  1  0
 13 22  1  0
M  CHG  4   1   3   3  -1   7  -1  11  -1
M  END
> <Uni-Dock RESULT> 
ENERGY=   -5.892  LOWER_BOUND=    2.860  UPPER_BOUND=    3.451
INTER + INTRA:          -5.892
INTER:                  -5.892
INTRA:                   0.000
UNBOUND:                 0.000

$$$$

     RDKit          3D

 22 18  0  0  0  0  0  0  0  0999 V2000
   45.0529    2.7987    8.7238 Al  0  0  0  0  0 15  0  0  0  0  0  0
   44.9578    3.5327    8.3947 C   0  0  0  0  0  0  0  0  0  0  0  0
   45.8430    3.8894    7.3858 O   0  0  0  0  0  0  0  0  0  0  0  0
   44.0569    4.3346    8.7590 O   0  0  0  0  0  0  0  0  0  0  0  0
   45.1007    2.1760    9.0362 C   0  0  0  0  0  0  0  0  0  0  0  0
   45.2751    3.5170    8.3659 C   0  0  0  0  0  0  0  0  0  0  0  0
   45.6817    3.4896    7.0345 O   0  0  0  0  0  0  0  0  0  0  0  0
   45.2627    4.6021    9.0046 O   0  0  0  0  0  0  0  0  0  0  0  0
   44.8537    2.2445    9.0280 C   0  0  0  0  0  0  0  0  0  0  0  0
   45.2519    3.4041    8.1829 C   0  0  0  0  0  0  0  0  0  0  0  0
   44.6301    4.6294    8.4661 O   0  0  0  0  0  0  0  0  0  0  0  0
   46.0227    3.2599    7.2197 O   0  0  0  0  0  0  0  0  0  0  0  0
   44.9363    2.2813    9.1038 C   0  0  0  0  0  0  0  0  0  0  0  0
   44.3839    2.0577    9.8504 H   0  0  0  0  0  0  0  0  0  0  0  0
   44.8951    1.4709    8.2139 H   0  0  0  0  0  0  0  0  0  0  0  0
   46.1329    2.1297    9.4266 H   0  0  0  0  0  0  0  0  0  0  0  0
   45.6457    1.8749    9.6888 H   0  0  0  0  0  0  0  0  0  0  0  0
   44.6858    1.4624    8.2664 H   0  0  0  0  0  0  0  0  0  0  0  0
   43.9657    2.4004    9.6783 H   0  0  0  0  0  0  0  0  0  0  0  0
   45.2007    1.2866    8.6717 H   0  0  0  0  0  0  0  0  0  0  0  0
   45.4748    2.4501   10.0391 H   0  0  0  0  0  0  0  0  0  0  0  0
   43.8540    2.2797    9.3831 H   0  0  0  0  0  0  0  0  0  0  0  0
  3  2  1  0
  4  2  2  0
  5  2  1  0
  7  6  1  0
  8  6  2  0
  9  6  1  0
 11 10  1  0
 12 10  2  0
 13 10  1  0
  5 14  1  0
  5 15  1  0
  5 16  1  0
  9 17  1  0
  9 18  1  0
  9 19  1  0
 13 20  1  0
 13 21  1  0
 13 22  1  0
M  CHG  4   1   3   3  -1   7  -1  11  -1
M  END
> <Uni-Dock RESULT> 
ENERGY=   -5.557  LOWER_BOUND=    3.109  UPPER_BOUND=    3.681
INTER + INTRA:          -5.557
INTER:                  -5.557
INTRA:                   0.000
UNBOUND:                 0.000

$$$$

     RDKit          3D

 22 18  0  0  0  0  0  0  0  0999 V2000
   44.9544    2.7627    8.8148 Al  0  0  0  0  0 15  0  0  0  0  0  0
   45.1665    3.4460    8.4350 C   0  0  0  0  0  0  0  0  0  0  0  0
   44.2580    4.4957    8.4742 O   0  0  0  0  0  0  0  0  0  0  0  0
   46.2635    3.5807    7.8303 O   0  0  0  0  0  0  0  0  0  0  0  0
   44.8106    2.1550    9.1272 C   0  0  0  0  0  0  0  0  0  0  0  0
   44.8528    3.4664    8.3813 C   0  0  0  0  0  0  0  0  0  0  0  0
   44.2783    4.5584    9.0265 O   0  0  0  0  0  0  0  0  0  0  0  0
   45.1910    3.5487    7.1712 O   0  0  0  0  0  0  0  0  0  0  0  0
   45.0634    2.1960    9.1410 C   0  0  0  0  0  0  0  0  0  0  0  0
   44.8258    3.5537    8.5773 C   0  0  0  0  0  0  0  0  0  0  0  0
   45.7370    3.9984    7.6076 O   0  0  0  0  0  0  0  0  0  0  0  0
   43.9222    4.2818    9.0198 O   0  0  0  0  0  0  0  0  0  0  0  0
   45.0018    2.1555    9.0489 C   0  0  0  0  0  0  0  0  0  0  0  0
   45.5840    1.4032    8.9612 H   0  0  0  0  0  0  0  0  0  0  0  0
   44.7435    2.4345   10.1917 H   0  0  0  0  0  0  0  0  0  0  0  0
   43.8548    1.8238    8.6837 H   0  0  0  0  0  0  0  0  0  0  0  0
   44.3032    1.4554    8.8689 H   0  0  0  0  0  0  0  0  0  0  0  0
   44.9506    2.3827   10.2238 H   0  0  0  0  0  0  0  0  0  0  0  0
   46.0416    1.7312    8.8907 H   0  0  0  0  0  0  0  0  0  0  0  0
   44.4676    1.9576   10.0089 H   0  0  0  0  0  0  0  0  0  0  0  0
   44.6428    1.4865    8.2636 H   0  0  0  0  0  0  0  0  0  0  0  0
   46.0836    1.9054    9.1772 H   0  0  0  0  0  0  0  0  0  0  0  0
  3  2  1  0
  4  2  2  0
  5  2  1  0
  7  6  1  0
  8  6  2  0
  9  6  1  0
 11 10  1  0
 12 10  2  0
 13 10  1  0
  5 14  1  0
  5 15  1  0
  5 16  1  0
  9 17  1  0
  9 18  1  0
  9 19  1  0
 13 20  1  0
 13 21  1  0
 13 22  1  0
M  CHG  4   1   3   3  -1   7  -1  11  -1
M  END
> <Uni-Dock RESULT> 
ENERGY=   -5.518  LOWER_BOUND=    3.297  UPPER_BOUND=    3.774
INTER + INTRA:          -5.518
INTER:                  -5.518
INTRA:                   0.000
UNBOUND:                 0.000

$$$$

     RDKit          3D

 22 18  0  0  0  0  0  0  0  0999 V2000
   44.9026    3.1993    8.7089 Al  0  0  0  0  0 15  0  0  0  0  0  0
   44.9899    2.6525    9.3001 C   0  0  0  0  0  0  0  0  0  0  0  0
   45.3531    1.3671    8.9197 O   0  0  0  0  0  0  0  0  0  0  0  0
   44.8133    2.9263   10.5171 O   0  0  0  0  0  0  0  0  0  0  0  0
   44.8144    3.7009    8.2312 C   0  0  0  0  0  0  0  0  0  0  0  0
   44.8836    2.4521    9.0759 C   0  0  0  0  0  0  0  0  0  0  0  0
   45.8460    1.5151    8.7088 O   0  0  0  0  0  0  0  0  0  0  0  0
   44.0051    2.1601    9.9294 O   0  0  0  0  0  0  0  0  0  0  0  0
   44.9053    3.8077    8.4458 C   0  0  0  0  0  0  0  0  0  0  0  0
   45.0842    2.4358    8.9967 C   0  0  0  0  0  0  0  0  0  0  0  0
   44.7230    2.2470   10.3391 O   0  0  0  0  0  0  0  0  0  0  0  0
   45.6159    1.5390    8.3217 O   0  0  0  0  0  0  0  0  0  0  0  0
   44.7942    3.7756    8.4227 C   0  0  0  0  0  0  0  0  0  0  0  0
   44.4688    4.6401    8.6661 H   0  0  0  0  0  0  0  0  0  0  0  0
   45.8216    3.8063    7.7951 H   0  0  0  0  0  0  0  0  0  0  0  0
   44.0570    3.3019    7.5332 H   0  0  0  0  0  0  0  0  0  0  0  0
   44.1238    3.8888    7.6822 H   0  0  0  0  0  0  0  0  0  0  0  0
   45.8693    3.9673    7.9309 H   0  0  0  0  0  0  0  0  0  0  0  0
   44.6851    4.6041    9.1894 H   0  0  0  0  0  0  0  0  0  0  0  0
   45.3615    3.9693    7.4811 H   0  0  0  0  0  0  0  0  0  0  0  0
   43.7184    3.8409    8.2444 H   0  0  0  0  0  0  0  0  0  0  0  0
   45.0210    4.5874    9.1568 H   0  0  0  0  0  0  0  0  0  0  0  0
  3  2  1  0
  4  2  2  0
  5  2  1  0
  7  6  1  0
  8  6  2  0
  9  6  1  0
 11 10  1  0
 12 10  2  0
 13 10  1  0
  5 14  1  0
  5 15  1  0
  5 16  1  0
  9 17  1  0
  9 18  1  0
  9 19  1  0
 13 20  1  0
 13 21  1  0
 13 22  1  0
M  CHG  4   1   3   3  -1   7  -1  11  -1
M  END
> <Uni-Dock RESULT> 
ENERGY=   -5.428  LOWER_BOUND=    3.002  UPPER_BOUND=    3.809
INTER + INTRA:          -5.428
INTER:                  -5.428
INTRA:                   0.000
UNBOUND:                 0.000

$$$$

     RDKit          3D

 22 18  0  0  0  0  0  0  0  0999 V2000
   43.1432    4.4669   11.7072 Al  0  0  0  0  0 15  0  0  0  0  0  0
   42.9612    5.2361   11.8838 C   0  0  0  0  0  0  0  0  0  0  0  0
   42.7133    5.5338   13.2175 O   0  0  0  0  0  0  0  0  0  0  0  0
   42.9002    6.1428   11.0111 O   0  0  0  0  0  0  0  0  0  0  0  0
   43.3015    3.8158   11.5107 C   0  0  0  0  0  0  0  0  0  0  0  0
   42.7808    5.0999   12.1089 C   0  0  0  0  0  0  0  0  0  0  0  0
   43.2244    5.4030   13.3935 O   0  0  0  0  0  0  0  0  0  0  0  0
   41.8464    5.7626   11.5861 O   0  0  0  0  0  0  0  0  0  0  0  0
   43.4261    3.9797   11.3579 C   0  0  0  0  0  0  0  0  0  0  0  0
   42.9542    5.0849   12.2373 C   0  0  0  0  0  0  0  0  0  0  0  0
   42.5170    6.2536   11.5961 O   0  0  0  0  0  0  0  0  0  0  0  0
   43.0386    5.0001   13.4735 O   0  0  0  0  0  0  0  0  0  0  0  0
   43.3130    3.9469   11.3514 C   0  0  0  0  0  0  0  0  0  0  0  0
   43.4076    3.7166   10.4292 H   0  0  0  0  0  0  0  0  0  0  0  0
   44.2572    3.6276   12.0274 H   0  0  0  0  0  0  0  0  0  0  0  0
   42.4613    3.1956   11.8704 H   0  0  0  0  0  0  0  0  0  0  0  0
   42.7825    3.0930   11.3630 H   0  0  0  0  0  0  0  0  0  0  0  0
   44.3695    3.6894   11.8536 H   0  0  0  0  0  0  0  0  0  0  0  0
   43.5727    4.2406   10.2873 H   0  0  0  0  0  0  0  0  0  0  0  0
   43.9273    3.1752   11.8742 H   0  0  0  0  0  0  0  0  0  0  0  0
   42.3868    3.5093   10.9720 H   0  0  0  0  0  0  0  0  0  0  0  0
   43.8655    4.2985   10.4458 H   0  0  0  0  0  0  0  0  0  0  0  0
  3  2  1  0
  4  2  2  0
  5  2  1  0
  7  6  1  0
  8  6  2  0
  9  6  1  0
 11 10  1  0
 12 10  2  0
 13 10  1  0
  5 14  1  0
  5 15  1  0
  5 16  1  0
  9 17  1  0
  9 18  1  0
  9 19  1  0
 13 20  1  0
 13 21  1  0
 13 22  1  0
M  CHG  4   1   3   3  -1   7  -1  11  -1
M  END
> <Uni-Dock RESULT> 
ENERGY=   -5.218  LOWER_BOUND=    7.130  UPPER_BOUND=    7.785
INTER + INTRA:          -5.218
INTER:                  -5.218
INTRA:                   0.000
UNBOUND:                 0.000

$$$$
