
     RDKit          3D

 22 18  0  0  0  0  0  0  0  0999 V2000
   47.1261    2.9947    6.6084 Al  0  0  0  0  0 15  0  0  0  0  0  0
   47.6392    2.4528    6.2946 C   0  0  0  0  0  0  0  0  0  0  0  0
   48.0319    1.3594    7.0851 O   0  0  0  0  0  0  0  0  0  0  0  0
   48.1306    2.5190    5.1556 O   0  0  0  0  0  0  0  0  0  0  0  0
   46.6822    3.4639    6.8216 C   0  0  0  0  0  0  0  0  0  0  0  0
   47.6633    2.3853    6.3653 C   0  0  0  0  0  0  0  0  0  0  0  0
   48.1241    2.4586    5.0575 O   0  0  0  0  0  0  0  0  0  0  0  0
   48.0150    1.4851    7.1730 O   0  0  0  0  0  0  0  0  0  0  0  0
   46.7053    3.4404    6.8036 C   0  0  0  0  0  0  0  0  0  0  0  0
   47.5755    2.4403    6.2119 C   0  0  0  0  0  0  0  0  0  0  0  0
   47.9027    1.2948    6.9261 O   0  0  0  0  0  0  0  0  0  0  0  0
   47.9933    2.5448    5.0497 O   0  0  0  0  0  0  0  0  0  0  0  0
   46.7578    3.4594    6.8674 C   0  0  0  0  0  0  0  0  0  0  0  0
   47.0648    4.4511    6.5123 H   0  0  0  0  0  0  0  0  0  0  0  0
   46.6626    3.4727    7.9253 H   0  0  0  0  0  0  0  0  0  0  0  0
   45.6712    3.2443    6.4642 H   0  0  0  0  0  0  0  0  0  0  0  0
   45.7099    3.3196    6.3749 H   0  0  0  0  0  0  0  0  0  0  0  0
   47.0449    4.4638    6.5667 H   0  0  0  0  0  0  0  0  0  0  0  0
   46.6201    3.4102    7.9177 H   0  0  0  0  0  0  0  0  0  0  0  0
   46.6377    4.3855    6.2903 H   0  0  0  0  0  0  0  0  0  0  0  0
   47.2761    3.7623    7.8195 H   0  0  0  0  0  0  0  0  0  0  0  0
   45.7396    3.0759    7.0939 H   0  0  0  0  0  0  0  0  0  0  0  0
  3  2  1  0
  4  2  2  0
  5  2  1  0
  7  6  1  0
  8  6  2  0
  9  6  1  0
 11 10  1  0
 12 10  2  0
 13 10  1  0
  5 14  1  0
  5 15  1  0
  5 16  1  0
  9 17  1  0
  9 18  1  0
  9 19  1  0
 13 20  1  0
 13 21  1  0
 13 22  1  0
M  CHG  4   1   3   3  -1   7  -1  11  -1
M  END
> <Uni-Dock RESULT> 
ENERGY=   -8.359  LOWER_BOUND=    0.000  UPPER_BOUND=    0.000
INTER + INTRA:          -8.359
INTER:                  -8.359
INTRA:                   0.000
UNBOUND:                 0.000

$$$$

     RDKit          3D

 22 18  0  0  0  0  0  0  0  0999 V2000
   47.0887    2.7690    6.6425 Al  0  0  0  0  0 15  0  0  0  0  0  0
   47.5184    2.0959    6.5094 C   0  0  0  0  0  0  0  0  0  0  0  0
   48.3257    2.0271    5.3614 O   0  0  0  0  0  0  0  0  0  0  0  0
   47.5090    1.0928    7.2422 O   0  0  0  0  0  0  0  0  0  0  0  0
   46.7261    3.3206    6.8063 C   0  0  0  0  0  0  0  0  0  0  0  0
   47.5646    2.1033    6.4204 C   0  0  0  0  0  0  0  0  0  0  0  0
   47.5839    1.0378    7.3105 O   0  0  0  0  0  0  0  0  0  0  0  0
   48.1965    2.1057    5.3308 O   0  0  0  0  0  0  0  0  0  0  0  0
   46.7452    3.2885    6.8038 C   0  0  0  0  0  0  0  0  0  0  0  0
   47.5604    2.1038    6.6054 C   0  0  0  0  0  0  0  0  0  0  0  0
   48.4471    2.0420    5.5380 O   0  0  0  0  0  0  0  0  0  0  0  0
   47.5380    1.1555    7.4033 O   0  0  0  0  0  0  0  0  0  0  0  0
   46.7029    3.2809    6.7307 C   0  0  0  0  0  0  0  0  0  0  0  0
   45.7361    2.9793    7.1529 H   0  0  0  0  0  0  0  0  0  0  0  0
   46.5447    3.9210    5.8978 H   0  0  0  0  0  0  0  0  0  0  0  0
   47.2608    3.9466    7.5276 H   0  0  0  0  0  0  0  0  0  0  0  0
   47.1934    3.8779    7.6043 H   0  0  0  0  0  0  0  0  0  0  0  0
   45.7206    3.0265    7.1205 H   0  0  0  0  0  0  0  0  0  0  0  0
   46.6166    3.9435    5.9072 H   0  0  0  0  0  0  0  0  0  0  0  0
   45.9477    3.2102    7.5243 H   0  0  0  0  0  0  0  0  0  0  0  0
   46.1237    3.3933    5.7722 H   0  0  0  0  0  0  0  0  0  0  0  0
   47.3011    4.1975    6.9234 H   0  0  0  0  0  0  0  0  0  0  0  0
  3  2  1  0
  4  2  2  0
  5  2  1  0
  7  6  1  0
  8  6  2  0
  9  6  1  0
 11 10  1  0
 12 10  2  0
 13 10  1  0
  5 14  1  0
  5 15  1  0
  5 16  1  0
  9 17  1  0
  9 18  1  0
  9 19  1  0
 13 20  1  0
 13 21  1  0
 13 22  1  0
M  CHG  4   1   3   3  -1   7  -1  11  -1
M  END
> <Uni-Dock RESULT> 
ENERGY=   -8.287  LOWER_BOUND=    0.437  UPPER_BOUND=    1.584
INTER + INTRA:          -8.287
INTER:                  -8.287
INTRA:                   0.000
UNBOUND:                 0.000

$$$$

     RDKit          3D

 22 18  0  0  0  0  0  0  0  0999 V2000
   47.0478    2.8796    6.7308 Al  0  0  0  0  0 15  0  0  0  0  0  0
   47.4955    2.2402    6.5160 C   0  0  0  0  0  0  0  0  0  0  0  0
   48.1750    2.2749    5.2866 O   0  0  0  0  0  0  0  0  0  0  0  0
   47.6196    1.2038    7.1896 O   0  0  0  0  0  0  0  0  0  0  0  0
   46.6765    3.4004    6.9622 C   0  0  0  0  0  0  0  0  0  0  0  0
   47.5313    2.2546    6.4232 C   0  0  0  0  0  0  0  0  0  0  0  0
   47.7044    1.1500    7.2464 O   0  0  0  0  0  0  0  0  0  0  0  0
   48.0392    2.3472    5.2743 O   0  0  0  0  0  0  0  0  0  0  0  0
   46.6969    3.3695    6.9560 C   0  0  0  0  0  0  0  0  0  0  0  0
   47.5473    2.2458    6.6073 C   0  0  0  0  0  0  0  0  0  0  0  0
   48.3140    2.2883    5.4498 O   0  0  0  0  0  0  0  0  0  0  0  0
   47.6627    1.2602    7.3499 O   0  0  0  0  0  0  0  0  0  0  0  0
   46.6474    3.3631    6.8874 C   0  0  0  0  0  0  0  0  0  0  0  0
   45.7499    2.9850    7.3930 H   0  0  0  0  0  0  0  0  0  0  0  0
   46.3652    4.0325    6.1125 H   0  0  0  0  0  0  0  0  0  0  0  0
   47.2528    4.0208    7.6557 H   0  0  0  0  0  0  0  0  0  0  0  0
   47.1980    3.9446    7.7352 H   0  0  0  0  0  0  0  0  0  0  0  0
   45.7284    3.0327    7.3650 H   0  0  0  0  0  0  0  0  0  0  0  0
   46.4364    4.0588    6.1154 H   0  0  0  0  0  0  0  0  0  0  0  0
   45.9882    3.2095    7.7518 H   0  0  0  0  0  0  0  0  0  0  0  0
   45.9616    3.4878    6.0036 H   0  0  0  0  0  0  0  0  0  0  0  0
   47.2134    4.3028    7.0654 H   0  0  0  0  0  0  0  0  0  0  0  0
  3  2  1  0
  4  2  2  0
  5  2  1  0
  7  6  1  0
  8  6  2  0
  9  6  1  0
 11 10  1  0
 12 10  2  0
 13 10  1  0
  5 14  1  0
  5 15  1  0
  5 16  1  0
  9 17  1  0
  9 18  1  0
  9 19  1  0
 13 20  1  0
 13 21  1  0
 13 22  1  0
M  CHG  4   1   3   3  -1   7  -1  11  -1
M  END
> <Uni-Dock RESULT> 
ENERGY=   -8.226  LOWER_BOUND=    0.294  UPPER_BOUND=    1.571
INTER + INTRA:          -8.226
INTER:                  -8.226
INTRA:                   0.000
UNBOUND:                 0.000

$$$$

     RDKit          3D

 22 18  0  0  0  0  0  0  0  0999 V2000
   47.3292    1.5246    6.9955 Al  0  0  0  0  0 15  0  0  0  0  0  0
   46.8481    1.1397    7.5207 C   0  0  0  0  0  0  0  0  0  0  0  0
   46.8349   -0.2654    7.5186 O   0  0  0  0  0  0  0  0  0  0  0  0
   46.0932    1.7006    8.3324 O   0  0  0  0  0  0  0  0  0  0  0  0
   47.7313    1.8906    6.5870 C   0  0  0  0  0  0  0  0  0  0  0  0
   46.8526    1.0408    7.5033 C   0  0  0  0  0  0  0  0  0  0  0  0
   46.0854    1.7105    8.4471 O   0  0  0  0  0  0  0  0  0  0  0  0
   46.8523   -0.2122    7.3748 O   0  0  0  0  0  0  0  0  0  0  0  0
   47.7086    1.8762    6.6131 C   0  0  0  0  0  0  0  0  0  0  0  0
   46.8912    1.1939    7.5999 C   0  0  0  0  0  0  0  0  0  0  0  0
   46.9306   -0.1912    7.6961 O   0  0  0  0  0  0  0  0  0  0  0  0
   46.1952    1.8176    8.4140 O   0  0  0  0  0  0  0  0  0  0  0  0
   47.6707    1.8408    6.5461 C   0  0  0  0  0  0  0  0  0  0  0  0
   47.1344    2.7321    6.1966 H   0  0  0  0  0  0  0  0  0  0  0  0
   48.0140    1.2807    5.7114 H   0  0  0  0  0  0  0  0  0  0  0  0
   48.6484    2.1940    7.1017 H   0  0  0  0  0  0  0  0  0  0  0  0
   48.5779    2.2926    7.1229 H   0  0  0  0  0  0  0  0  0  0  0  0
   47.1645    2.7166    6.1479 H   0  0  0  0  0  0  0  0  0  0  0  0
   48.0627    1.2476    5.7593 H   0  0  0  0  0  0  0  0  0  0  0  0
   47.5005    2.9214    6.4538 H   0  0  0  0  0  0  0  0  0  0  0  0
   47.3552    1.4005    5.5594 H   0  0  0  0  0  0  0  0  0  0  0  0
   48.7609    1.6891    6.6992 H   0  0  0  0  0  0  0  0  0  0  0  0
  3  2  1  0
  4  2  2  0
  5  2  1  0
  7  6  1  0
  8  6  2  0
  9  6  1  0
 11 10  1  0
 12 10  2  0
 13 10  1  0
  5 14  1  0
  5 15  1  0
  5 16  1  0
  9 17  1  0
  9 18  1  0
  9 19  1  0
 13 20  1  0
 13 21  1  0
 13 22  1  0
M  CHG  4   1   3   3  -1   7  -1  11  -1
M  END
> <Uni-Dock RESULT> 
ENERGY=   -7.998  LOWER_BOUND=    2.293  UPPER_BOUND=    2.528
INTER + INTRA:          -7.998
INTER:                  -7.998
INTRA:                   0.000
UNBOUND:                 0.000

$$$$

     RDKit          3D

 22 18  0  0  0  0  0  0  0  0999 V2000
   47.3224    1.9659    6.6450 Al  0  0  0  0  0 15  0  0  0  0  0  0
   47.3613    2.5908    6.1317 C   0  0  0  0  0  0  0  0  0  0  0  0
   46.6832    3.7768    6.4605 O   0  0  0  0  0  0  0  0  0  0  0  0
   47.9690    2.5811    5.0483 O   0  0  0  0  0  0  0  0  0  0  0  0
   47.3351    1.4224    7.0537 C   0  0  0  0  0  0  0  0  0  0  0  0
   47.3022    2.6649    6.1653 C   0  0  0  0  0  0  0  0  0  0  0  0
   48.0607    2.6342    5.0028 O   0  0  0  0  0  0  0  0  0  0  0  0
   46.6026    3.6544    6.5087 O   0  0  0  0  0  0  0  0  0  0  0  0
   47.3397    1.4494    7.0281 C   0  0  0  0  0  0  0  0  0  0  0  0
   47.4663    2.5856    6.1334 C   0  0  0  0  0  0  0  0  0  0  0  0
   46.8957    3.8051    6.4748 O   0  0  0  0  0  0  0  0  0  0  0  0
   48.1291    2.5217    5.0880 O   0  0  0  0  0  0  0  0  0  0  0  0
   47.2552    1.4450    7.0229 C   0  0  0  0  0  0  0  0  0  0  0  0
   47.1953    0.5274    6.4243 H   0  0  0  0  0  0  0  0  0  0  0  0
   46.4676    1.4585    7.7355 H   0  0  0  0  0  0  0  0  0  0  0  0
   48.2455    1.4042    7.6609 H   0  0  0  0  0  0  0  0  0  0  0  0
   48.2816    1.3350    7.5656 H   0  0  0  0  0  0  0  0  0  0  0  0
   47.1615    0.5132    6.4710 H   0  0  0  0  0  0  0  0  0  0  0  0
   46.5087    1.5100    7.7732 H   0  0  0  0  0  0  0  0  0  0  0  0
   47.6319    0.4900    6.6340 H   0  0  0  0  0  0  0  0  0  0  0  0
   46.1459    1.3027    7.1493 H   0  0  0  0  0  0  0  0  0  0  0  0
   47.7327    1.6110    8.0126 H   0  0  0  0  0  0  0  0  0  0  0  0
  3  2  1  0
  4  2  2  0
  5  2  1  0
  7  6  1  0
  8  6  2  0
  9  6  1  0
 11 10  1  0
 12 10  2  0
 13 10  1  0
  5 14  1  0
  5 15  1  0
  5 16  1  0
  9 17  1  0
  9 18  1  0
  9 19  1  0
 13 20  1  0
 13 21  1  0
 13 22  1  0
M  CHG  4   1   3   3  -1   7  -1  11  -1
M  END
> <Uni-Dock RESULT> 
ENERGY=   -7.945  LOWER_BOUND=    1.280  UPPER_BOUND=    1.703
INTER + INTRA:          -7.945
INTER:                  -7.945
INTRA:                   0.000
UNBOUND:                 0.000

$$$$

     RDKit          3D

 22 18  0  0  0  0  0  0  0  0999 V2000
   45.9118    3.4104    7.6215 Al  0  0  0  0  0 15  0  0  0  0  0  0
   45.3129    3.2623    8.1458 C   0  0  0  0  0  0  0  0  0  0  0  0
   45.3673    2.0897    8.9181 O   0  0  0  0  0  0  0  0  0  0  0  0
   44.3221    3.9924    8.3144 O   0  0  0  0  0  0  0  0  0  0  0  0
   46.4011    3.5868    7.1833 C   0  0  0  0  0  0  0  0  0  0  0  0
   45.3272    3.1719    8.1876 C   0  0  0  0  0  0  0  0  0  0  0  0
   44.2795    4.0582    8.3991 O   0  0  0  0  0  0  0  0  0  0  0  0
   45.4249    2.0633    8.7774 O   0  0  0  0  0  0  0  0  0  0  0  0
   46.3722    3.5837    7.2070 C   0  0  0  0  0  0  0  0  0  0  0  0
   45.3275    3.3570    8.1891 C   0  0  0  0  0  0  0  0  0  0  0  0
   45.4012    2.2625    9.0411 O   0  0  0  0  0  0  0  0  0  0  0  0
   44.3890    4.1527    8.3384 O   0  0  0  0  0  0  0  0  0  0  0  0
   46.3581    3.5119    7.1642 C   0  0  0  0  0  0  0  0  0  0  0  0
   45.9114    3.9630    6.2692 H   0  0  0  0  0  0  0  0  0  0  0  0
   46.9641    2.6860    6.8830 H   0  0  0  0  0  0  0  0  0  0  0  0
   47.1038    4.2928    7.6368 H   0  0  0  0  0  0  0  0  0  0  0  0
   47.0257    4.3714    7.5832 H   0  0  0  0  0  0  0  0  0  0  0  0
   45.9556    3.9312    6.2455 H   0  0  0  0  0  0  0  0  0  0  0  0
   46.9975    2.6932    6.9508 H   0  0  0  0  0  0  0  0  0  0  0  0
   46.1731    4.3283    6.4539 H   0  0  0  0  0  0  0  0  0  0  0  0
   46.3773    2.5721    6.5451 H   0  0  0  0  0  0  0  0  0  0  0  0
   47.3566    3.6884    7.6190 H   0  0  0  0  0  0  0  0  0  0  0  0
  3  2  1  0
  4  2  2  0
  5  2  1  0
  7  6  1  0
  8  6  2  0
  9  6  1  0
 11 10  1  0
 12 10  2  0
 13 10  1  0
  5 14  1  0
  5 15  1  0
  5 16  1  0
  9 17  1  0
  9 18  1  0
  9 19  1  0
 13 20  1  0
 13 21  1  0
 13 22  1  0
M  CHG  4   1   3   3  -1   7  -1  11  -1
M  END
> <Uni-Dock RESULT> 
ENERGY=   -6.508  LOWER_BOUND=    2.915  UPPER_BOUND=    3.351
INTER + INTRA:          -6.508
INTER:                  -6.508
INTRA:                   0.000
UNBOUND:                 0.000

$$$$

     RDKit          3D

 22 18  0  0  0  0  0  0  0  0999 V2000
   43.2069    4.8431   11.5038 Al  0  0  0  0  0 15  0  0  0  0  0  0
   42.7562    5.2745   12.0199 C   0  0  0  0  0  0  0  0  0  0  0  0
   42.8317    4.9782   13.3914 O   0  0  0  0  0  0  0  0  0  0  0  0
   41.9757    6.1829   11.6904 O   0  0  0  0  0  0  0  0  0  0  0  0
   43.5811    4.5216   11.0357 C   0  0  0  0  0  0  0  0  0  0  0  0
   42.7669    5.2367   12.1125 C   0  0  0  0  0  0  0  0  0  0  0  0
   41.9684    6.2971   11.7052 O   0  0  0  0  0  0  0  0  0  0  0  0
   42.8442    4.8488   13.3084 O   0  0  0  0  0  0  0  0  0  0  0  0
   43.5596    4.5441   11.0566 C   0  0  0  0  0  0  0  0  0  0  0  0
   42.7966    5.3633   11.9809 C   0  0  0  0  0  0  0  0  0  0  0  0
   42.9243    5.1676   13.3501 O   0  0  0  0  0  0  0  0  0  0  0  0
   42.0709    6.2875   11.5868 O   0  0  0  0  0  0  0  0  0  0  0  0
   43.5233    4.4710   11.0795 C   0  0  0  0  0  0  0  0  0  0  0  0
   42.9285    4.3140   10.1710 H   0  0  0  0  0  0  0  0  0  0  0  0
   43.8929    3.5387   11.4297 H   0  0  0  0  0  0  0  0  0  0  0  0
   44.4823    5.0916   10.7888 H   0  0  0  0  0  0  0  0  0  0  0  0
   44.4060    5.1328   10.7014 H   0  0  0  0  0  0  0  0  0  0  0  0
   42.9590    4.2632   10.1739 H   0  0  0  0  0  0  0  0  0  0  0  0
   43.9441    3.5788   11.4689 H   0  0  0  0  0  0  0  0  0  0  0  0
   43.2845    4.6063   10.0166 H   0  0  0  0  0  0  0  0  0  0  0  0
   43.2264    3.4129   11.3230 H   0  0  0  0  0  0  0  0  0  0  0  0
   44.6224    4.5927   11.1901 H   0  0  0  0  0  0  0  0  0  0  0  0
  3  2  1  0
  4  2  2  0
  5  2  1  0
  7  6  1  0
  8  6  2  0
  9  6  1  0
 11 10  1  0
 12 10  2  0
 13 10  1  0
  5 14  1  0
  5 15  1  0
  5 16  1  0
  9 17  1  0
  9 18  1  0
  9 19  1  0
 13 20  1  0
 13 21  1  0
 13 22  1  0
M  CHG  4   1   3   3  -1   7  -1  11  -1
M  END
> <Uni-Dock RESULT> 
ENERGY=   -5.643  LOWER_BOUND=    7.691  UPPER_BOUND=    8.054
INTER + INTRA:          -5.643
INTER:                  -5.643
INTRA:                   0.000
UNBOUND:                 0.000

$$$$

     RDKit          3D

 22 18  0  0  0  0  0  0  0  0999 V2000
   43.1545    4.7046   11.6143 Al  0  0  0  0  0 15  0  0  0  0  0  0
   42.8332    5.2598   12.1082 C   0  0  0  0  0  0  0  0  0  0  0  0
   42.2272    6.3949   11.5436 O   0  0  0  0  0  0  0  0  0  0  0  0
   42.8474    5.1975   13.3488 O   0  0  0  0  0  0  0  0  0  0  0  0
   43.4195    4.2027   11.2396 C   0  0  0  0  0  0  0  0  0  0  0  0
   42.8007    5.3378   12.0536 C   0  0  0  0  0  0  0  0  0  0  0  0
   42.7698    5.1858   13.4334 O   0  0  0  0  0  0  0  0  0  0  0  0
   42.3494    6.3526   11.4594 O   0  0  0  0  0  0  0  0  0  0  0  0
   43.4050    4.2258   11.2653 C   0  0  0  0  0  0  0  0  0  0  0  0
   42.7761    5.1851   12.1551 C   0  0  0  0  0  0  0  0  0  0  0  0
   42.0791    6.2657   11.6301 O   0  0  0  0  0  0  0  0  0  0  0  0
   42.7866    5.0373   13.3857 O   0  0  0  0  0  0  0  0  0  0  0  0
   43.4587    4.2816   11.2307 C   0  0  0  0  0  0  0  0  0  0  0  0
   44.3772    3.9101   11.7021 H   0  0  0  0  0  0  0  0  0  0  0  0
   43.6673    4.5889   10.2355 H   0  0  0  0  0  0  0  0  0  0  0  0
   42.7094    3.3782   11.1222 H   0  0  0  0  0  0  0  0  0  0  0  0
   42.7718    3.3392   11.2209 H   0  0  0  0  0  0  0  0  0  0  0  0
   44.3919    3.9082   11.6447 H   0  0  0  0  0  0  0  0  0  0  0  0
   43.5927    4.5830   10.2228 H   0  0  0  0  0  0  0  0  0  0  0  0
   44.0849    3.5223   11.7171 H   0  0  0  0  0  0  0  0  0  0  0  0
   44.1620    4.8943   10.6008 H   0  0  0  0  0  0  0  0  0  0  0  0
   42.7339    3.7461   10.5804 H   0  0  0  0  0  0  0  0  0  0  0  0
  3  2  1  0
  4  2  2  0
  5  2  1  0
  7  6  1  0
  8  6  2  0
  9  6  1  0
 11 10  1  0
 12 10  2  0
 13 10  1  0
  5 14  1  0
  5 15  1  0
  5 16  1  0
  9 17  1  0
  9 18  1  0
  9 19  1  0
 13 20  1  0
 13 21  1  0
 13 22  1  0
M  CHG  4   1   3   3  -1   7  -1  11  -1
M  END
> <Uni-Dock RESULT> 
ENERGY=   -5.601  LOWER_BOUND=    7.664  UPPER_BOUND=    8.213
INTER + INTRA:          -5.601
INTER:                  -5.601
INTRA:                   0.000
UNBOUND:                 0.000

$$$$

     RDKit          3D

 22 18  0  0  0  0  0  0  0  0999 V2000
   43.1103    4.5277   11.8672 Al  0  0  0  0  0 15  0  0  0  0  0  0
   42.8935    5.2378   12.1903 C   0  0  0  0  0  0  0  0  0  0  0  0
   43.5995    5.7138   13.3080 O   0  0  0  0  0  0  0  0  0  0  0  0
   41.9587    5.9463   11.7813 O   0  0  0  0  0  0  0  0  0  0  0  0
   43.2689    3.9474   11.5501 C   0  0  0  0  0  0  0  0  0  0  0  0
   42.9479    5.2543   12.2733 C   0  0  0  0  0  0  0  0  0  0  0  0
   41.9470    6.0500   11.7320 O   0  0  0  0  0  0  0  0  0  0  0  0
   43.5872    5.5601   13.3145 O   0  0  0  0  0  0  0  0  0  0  0  0
   43.2567    3.9808   11.5619 C   0  0  0  0  0  0  0  0  0  0  0  0
   42.9030    5.2835   12.0961 C   0  0  0  0  0  0  0  0  0  0  0  0
   43.6441    5.8325   13.1347 O   0  0  0  0  0  0  0  0  0  0  0  0
   41.9867    5.9612   11.6089 O   0  0  0  0  0  0  0  0  0  0  0  0
   43.2421    3.9388   11.6341 C   0  0  0  0  0  0  0  0  0  0  0  0
   42.3257    3.4243   11.3187 H   0  0  0  0  0  0  0  0  0  0  0  0
   43.8227    3.2918   12.2446 H   0  0  0  0  0  0  0  0  0  0  0  0
   43.9029    4.1329   10.6775 H   0  0  0  0  0  0  0  0  0  0  0  0
   43.7920    4.1333   10.6242 H   0  0  0  0  0  0  0  0  0  0  0  0
   42.3595    3.3786   11.3359 H   0  0  0  0  0  0  0  0  0  0  0  0
   43.8815    3.3372   12.2289 H   0  0  0  0  0  0  0  0  0  0  0  0
   42.5440    3.5227   10.8960 H   0  0  0  0  0  0  0  0  0  0  0  0
   43.1949    3.2445   12.5187 H   0  0  0  0  0  0  0  0  0  0  0  0
   44.2571    3.9111   11.1823 H   0  0  0  0  0  0  0  0  0  0  0  0
  3  2  1  0
  4  2  2  0
  5  2  1  0
  7  6  1  0
  8  6  2  0
  9  6  1  0
 11 10  1  0
 12 10  2  0
 13 10  1  0
  5 14  1  0
  5 15  1  0
  5 16  1  0
  9 17  1  0
  9 18  1  0
  9 19  1  0
 13 20  1  0
 13 21  1  0
 13 22  1  0
M  CHG  4   1   3   3  -1   7  -1  11  -1
M  END
> <Uni-Dock RESULT> 
ENERGY=   -5.511  LOWER_BOUND=    7.834  UPPER_BOUND=    8.106
INTER + INTRA:          -5.511
INTER:                  -5.511
INTRA:                   0.000
UNBOUND:                 0.000

$$$$
