
     RDKit          3D

 22 18  0  0  0  0  0  0  0  0999 V2000
   47.1220    2.9896    6.6000 Al  0  0  0  0  0 15  0  0  0  0  0  0
   47.6158    2.4550    6.2573 C   0  0  0  0  0  0  0  0  0  0  0  0
   48.0522    1.3325    6.9717 O   0  0  0  0  0  0  0  0  0  0  0  0
   48.0189    2.5907    5.0726 O   0  0  0  0  0  0  0  0  0  0  0  0
   46.7011    3.4641    6.8733 C   0  0  0  0  0  0  0  0  0  0  0  0
   47.6705    2.3960    6.3943 C   0  0  0  0  0  0  0  0  0  0  0  0
   48.2587    2.4714    5.1341 O   0  0  0  0  0  0  0  0  0  0  0  0
   47.9856    1.4505    7.1251 O   0  0  0  0  0  0  0  0  0  0  0  0
   46.6923    3.4648    6.7864 C   0  0  0  0  0  0  0  0  0  0  0  0
   47.5902    2.3955    6.2932 C   0  0  0  0  0  0  0  0  0  0  0  0
   47.9498    1.3582    7.1492 O   0  0  0  0  0  0  0  0  0  0  0  0
   47.9493    2.4494    5.0880 O   0  0  0  0  0  0  0  0  0  0  0  0
   46.7366    3.4930    6.8413 C   0  0  0  0  0  0  0  0  0  0  0  0
   47.2636    4.3817    7.0560 H   0  0  0  0  0  0  0  0  0  0  0  0
   46.3222    3.0208    7.8026 H   0  0  0  0  0  0  0  0  0  0  0  0
   45.8802    3.6823    6.1667 H   0  0  0  0  0  0  0  0  0  0  0  0
   47.2071    4.3735    7.1352 H   0  0  0  0  0  0  0  0  0  0  0  0
   45.9530    3.6676    5.9710 H   0  0  0  0  0  0  0  0  0  0  0  0
   46.0870    3.1036    7.6539 H   0  0  0  0  0  0  0  0  0  0  0  0
   45.9463    3.6521    6.0796 H   0  0  0  0  0  0  0  0  0  0  0  0
   46.2643    3.2250    7.7881 H   0  0  0  0  0  0  0  0  0  0  0  0
   47.4175    4.3541    6.9605 H   0  0  0  0  0  0  0  0  0  0  0  0
  3  2  1  0
  4  2  2  0
  5  2  1  0
  7  6  1  0
  8  6  2  0
  9  6  1  0
 11 10  1  0
 12 10  2  0
 13 10  1  0
  5 14  1  0
  5 15  1  0
  5 16  1  0
  9 17  1  0
  9 18  1  0
  9 19  1  0
 13 20  1  0
 13 21  1  0
 13 22  1  0
M  CHG  4   1   3   3  -1   7  -1  11  -1
M  END
> <Uni-Dock RESULT> 
ENERGY=   -8.329  LOWER_BOUND=    0.000  UPPER_BOUND=    0.000
INTER + INTRA:          -8.329
INTER:                  -8.329
INTRA:                   0.000
UNBOUND:                 0.000

$$$$

     RDKit          3D

 22 18  0  0  0  0  0  0  0  0999 V2000
   47.1259    2.8133    6.6800 Al  0  0  0  0  0 15  0  0  0  0  0  0
   47.5434    2.1378    6.5512 C   0  0  0  0  0  0  0  0  0  0  0  0
   48.3340    2.0003    5.4037 O   0  0  0  0  0  0  0  0  0  0  0  0
   47.5145    1.1768    7.3637 O   0  0  0  0  0  0  0  0  0  0  0  0
   46.7560    3.3816    6.8110 C   0  0  0  0  0  0  0  0  0  0  0  0
   47.5572    2.1591    6.3943 C   0  0  0  0  0  0  0  0  0  0  0  0
   47.5438    0.9953    7.1593 O   0  0  0  0  0  0  0  0  0  0  0  0
   48.2150    2.1571    5.3482 O   0  0  0  0  0  0  0  0  0  0  0  0
   46.7739    3.3412    6.8864 C   0  0  0  0  0  0  0  0  0  0  0  0
   47.6000    2.1694    6.5157 C   0  0  0  0  0  0  0  0  0  0  0  0
   48.3077    2.1857    5.3169 O   0  0  0  0  0  0  0  0  0  0  0  0
   47.6648    1.2209    7.3405 O   0  0  0  0  0  0  0  0  0  0  0  0
   46.7242    3.3393    6.8289 C   0  0  0  0  0  0  0  0  0  0  0  0
   45.6956    3.1597    6.6769 H   0  0  0  0  0  0  0  0  0  0  0  0
   47.1128    4.1355    6.0984 H   0  0  0  0  0  0  0  0  0  0  0  0
   46.9253    3.7015    7.8550 H   0  0  0  0  0  0  0  0  0  0  0  0
   45.7055    3.2483    6.6372 H   0  0  0  0  0  0  0  0  0  0  0  0
   46.9535    3.5320    7.9744 H   0  0  0  0  0  0  0  0  0  0  0  0
   47.1325    4.2599    6.3600 H   0  0  0  0  0  0  0  0  0  0  0  0
   46.9500    3.5948    7.8843 H   0  0  0  0  0  0  0  0  0  0  0  0
   46.9413    4.2063    6.2026 H   0  0  0  0  0  0  0  0  0  0  0  0
   45.6933    2.9765    6.6712 H   0  0  0  0  0  0  0  0  0  0  0  0
  3  2  1  0
  4  2  2  0
  5  2  1  0
  7  6  1  0
  8  6  2  0
  9  6  1  0
 11 10  1  0
 12 10  2  0
 13 10  1  0
  5 14  1  0
  5 15  1  0
  5 16  1  0
  9 17  1  0
  9 18  1  0
  9 19  1  0
 13 20  1  0
 13 21  1  0
 13 22  1  0
M  CHG  4   1   3   3  -1   7  -1  11  -1
M  END
> <Uni-Dock RESULT> 
ENERGY=   -8.292  LOWER_BOUND=    0.351  UPPER_BOUND=    1.576
INTER + INTRA:          -8.292
INTER:                  -8.292
INTRA:                   0.000
UNBOUND:                 0.000

$$$$

     RDKit          3D

 22 18  0  0  0  0  0  0  0  0999 V2000
   47.3243    1.5161    7.0232 Al  0  0  0  0  0 15  0  0  0  0  0  0
   46.8465    1.1675    7.5685 C   0  0  0  0  0  0  0  0  0  0  0  0
   46.7868   -0.2278    7.6709 O   0  0  0  0  0  0  0  0  0  0  0  0
   46.1348    1.8455    8.3548 O   0  0  0  0  0  0  0  0  0  0  0  0
   47.7238    1.8384    6.5612 C   0  0  0  0  0  0  0  0  0  0  0  0
   46.8388    1.0275    7.4935 C   0  0  0  0  0  0  0  0  0  0  0  0
   45.9402    1.6513    8.3557 O   0  0  0  0  0  0  0  0  0  0  0  0
   46.8719   -0.2078    7.4859 O   0  0  0  0  0  0  0  0  0  0  0  0
   47.7096    1.8919    6.6289 C   0  0  0  0  0  0  0  0  0  0  0  0
   46.8892    1.1083    7.5807 C   0  0  0  0  0  0  0  0  0  0  0  0
   46.9264   -0.2824    7.5290 O   0  0  0  0  0  0  0  0  0  0  0  0
   46.2268    1.7478    8.4389 O   0  0  0  0  0  0  0  0  0  0  0  0
   47.6772    1.8692    6.5639 C   0  0  0  0  0  0  0  0  0  0  0  0
   47.0942    2.2770    5.7847 H   0  0  0  0  0  0  0  0  0  0  0  0
   48.3933    1.0665    6.1619 H   0  0  0  0  0  0  0  0  0  0  0  0
   48.2906    2.6450    7.0603 H   0  0  0  0  0  0  0  0  0  0  0  0
   47.1698    2.2407    5.7348 H   0  0  0  0  0  0  0  0  0  0  0  0
   48.1728    2.7268    7.2127 H   0  0  0  0  0  0  0  0  0  0  0  0
   48.5666    1.2819    6.2507 H   0  0  0  0  0  0  0  0  0  0  0  0
   48.2097    2.6539    7.1392 H   0  0  0  0  0  0  0  0  0  0  0  0
   48.4136    1.2474    6.0517 H   0  0  0  0  0  0  0  0  0  0  0  0
   46.9269    2.2682    5.8590 H   0  0  0  0  0  0  0  0  0  0  0  0
  3  2  1  0
  4  2  2  0
  5  2  1  0
  7  6  1  0
  8  6  2  0
  9  6  1  0
 11 10  1  0
 12 10  2  0
 13 10  1  0
  5 14  1  0
  5 15  1  0
  5 16  1  0
  9 17  1  0
  9 18  1  0
  9 19  1  0
 13 20  1  0
 13 21  1  0
 13 22  1  0
M  CHG  4   1   3   3  -1   7  -1  11  -1
M  END
> <Uni-Dock RESULT> 
ENERGY=   -8.009  LOWER_BOUND=    2.312  UPPER_BOUND=    2.533
INTER + INTRA:          -8.009
INTER:                  -8.009
INTRA:                   0.000
UNBOUND:                 0.000

$$$$

     RDKit          3D

 22 18  0  0  0  0  0  0  0  0999 V2000
   47.3188    1.5318    7.0133 Al  0  0  0  0  0 15  0  0  0  0  0  0
   46.8868    1.0606    7.5017 C   0  0  0  0  0  0  0  0  0  0  0  0
   46.0386    1.6234    8.4632 O   0  0  0  0  0  0  0  0  0  0  0  0
   46.9434   -0.1949    7.4307 O   0  0  0  0  0  0  0  0  0  0  0  0
   47.7020    1.9150    6.5853 C   0  0  0  0  0  0  0  0  0  0  0  0
   46.8655    1.1715    7.6135 C   0  0  0  0  0  0  0  0  0  0  0  0
   46.9017   -0.2181    7.7014 O   0  0  0  0  0  0  0  0  0  0  0  0
   46.1567    1.7846    8.4191 O   0  0  0  0  0  0  0  0  0  0  0  0
   47.6873    1.8371    6.5484 C   0  0  0  0  0  0  0  0  0  0  0  0
   46.8288    1.1061    7.5084 C   0  0  0  0  0  0  0  0  0  0  0  0
   46.0630    1.8244    8.4225 O   0  0  0  0  0  0  0  0  0  0  0  0
   46.7928   -0.1486    7.4156 O   0  0  0  0  0  0  0  0  0  0  0  0
   47.7341    1.8711    6.5979 C   0  0  0  0  0  0  0  0  0  0  0  0
   48.7515    1.8385    6.8757 H   0  0  0  0  0  0  0  0  0  0  0  0
   47.3201    2.9386    6.6852 H   0  0  0  0  0  0  0  0  0  0  0  0
   47.5887    1.5415    5.5516 H   0  0  0  0  0  0  0  0  0  0  0  0
   48.7408    1.9331    6.8537 H   0  0  0  0  0  0  0  0  0  0  0  0
   47.5643    1.3337    5.5565 H   0  0  0  0  0  0  0  0  0  0  0  0
   47.3150    2.8808    6.4007 H   0  0  0  0  0  0  0  0  0  0  0  0
   47.5641    1.4381    5.5910 H   0  0  0  0  0  0  0  0  0  0  0  0
   47.4974    2.9361    6.5676 H   0  0  0  0  0  0  0  0  0  0  0  0
   48.7511    1.6954    6.9903 H   0  0  0  0  0  0  0  0  0  0  0  0
  3  2  1  0
  4  2  2  0
  5  2  1  0
  7  6  1  0
  8  6  2  0
  9  6  1  0
 11 10  1  0
 12 10  2  0
 13 10  1  0
  5 14  1  0
  5 15  1  0
  5 16  1  0
  9 17  1  0
  9 18  1  0
  9 19  1  0
 13 20  1  0
 13 21  1  0
 13 22  1  0
M  CHG  4   1   3   3  -1   7  -1  11  -1
M  END
> <Uni-Dock RESULT> 
ENERGY=   -7.992  LOWER_BOUND=    2.271  UPPER_BOUND=    2.559
INTER + INTRA:          -7.992
INTER:                  -7.992
INTRA:                   0.000
UNBOUND:                 0.000

$$$$

     RDKit          3D

 22 18  0  0  0  0  0  0  0  0999 V2000
   47.3340    1.9704    6.6444 Al  0  0  0  0  0 15  0  0  0  0  0  0
   47.4210    2.5710    6.1164 C   0  0  0  0  0  0  0  0  0  0  0  0
   46.7998    3.8062    6.3382 O   0  0  0  0  0  0  0  0  0  0  0  0
   48.1141    2.4406    5.0738 O   0  0  0  0  0  0  0  0  0  0  0  0
   47.2716    1.4389    7.0809 C   0  0  0  0  0  0  0  0  0  0  0  0
   47.2905    2.6494    6.1622 C   0  0  0  0  0  0  0  0  0  0  0  0
   47.9488    2.6111    4.9353 O   0  0  0  0  0  0  0  0  0  0  0  0
   46.6941    3.6879    6.4673 O   0  0  0  0  0  0  0  0  0  0  0  0
   47.3461    1.4303    7.0360 C   0  0  0  0  0  0  0  0  0  0  0  0
   47.4175    2.6262    6.1656 C   0  0  0  0  0  0  0  0  0  0  0  0
   46.7118    3.7722    6.5218 O   0  0  0  0  0  0  0  0  0  0  0  0
   48.1668    2.5651    5.1561 O   0  0  0  0  0  0  0  0  0  0  0  0
   47.2716    1.4158    7.0301 C   0  0  0  0  0  0  0  0  0  0  0  0
   46.6396    0.6730    6.6273 H   0  0  0  0  0  0  0  0  0  0  0  0
   46.8239    1.8568    7.9912 H   0  0  0  0  0  0  0  0  0  0  0  0
   48.2680    1.0066    7.2834 H   0  0  0  0  0  0  0  0  0  0  0  0
   46.6100    0.6747    6.7204 H   0  0  0  0  0  0  0  0  0  0  0  0
   48.3856    1.0226    7.1110 H   0  0  0  0  0  0  0  0  0  0  0  0
   47.0628    1.7169    8.0788 H   0  0  0  0  0  0  0  0  0  0  0  0
   48.3053    1.0438    7.1830 H   0  0  0  0  0  0  0  0  0  0  0  0
   46.8323    1.6445    8.0026 H   0  0  0  0  0  0  0  0  0  0  0  0
   46.6328    0.7253    6.4518 H   0  0  0  0  0  0  0  0  0  0  0  0
  3  2  1  0
  4  2  2  0
  5  2  1  0
  7  6  1  0
  8  6  2  0
  9  6  1  0
 11 10  1  0
 12 10  2  0
 13 10  1  0
  5 14  1  0
  5 15  1  0
  5 16  1  0
  9 17  1  0
  9 18  1  0
  9 19  1  0
 13 20  1  0
 13 21  1  0
 13 22  1  0
M  CHG  4   1   3   3  -1   7  -1  11  -1
M  END
> <Uni-Dock RESULT> 
ENERGY=   -7.917  LOWER_BOUND=    1.282  UPPER_BOUND=    1.720
INTER + INTRA:          -7.917
INTER:                  -7.917
INTRA:                   0.000
UNBOUND:                 0.000

$$$$

     RDKit          3D

 22 18  0  0  0  0  0  0  0  0999 V2000
   47.2424    2.1419    6.7371 Al  0  0  0  0  0 15  0  0  0  0  0  0
   47.0996    2.8923    6.4849 C   0  0  0  0  0  0  0  0  0  0  0  0
   47.0919    3.1916    5.1170 O   0  0  0  0  0  0  0  0  0  0  0  0
   46.8744    3.8307    7.2931 O   0  0  0  0  0  0  0  0  0  0  0  0
   47.3657    1.5066    6.9782 C   0  0  0  0  0  0  0  0  0  0  0  0
   47.1682    2.8730    6.3428 C   0  0  0  0  0  0  0  0  0  0  0  0
   46.9951    4.0121    7.1255 O   0  0  0  0  0  0  0  0  0  0  0  0
   47.1890    3.0116    5.1150 O   0  0  0  0  0  0  0  0  0  0  0  0
   47.3184    1.5507    7.0370 C   0  0  0  0  0  0  0  0  0  0  0  0
   47.0660    2.8738    6.4216 C   0  0  0  0  0  0  0  0  0  0  0  0
   47.1240    3.0042    5.0368 O   0  0  0  0  0  0  0  0  0  0  0  0
   46.7548    3.8211    7.1898 O   0  0  0  0  0  0  0  0  0  0  0  0
   47.3905    1.5409    7.0147 C   0  0  0  0  0  0  0  0  0  0  0  0
   48.3519    1.4843    7.4458 H   0  0  0  0  0  0  0  0  0  0  0  0
   47.3082    0.8444    6.1054 H   0  0  0  0  0  0  0  0  0  0  0  0
   46.6049    1.2433    7.7349 H   0  0  0  0  0  0  0  0  0  0  0  0
   48.3479    1.3996    7.3973 H   0  0  0  0  0  0  0  0  0  0  0  0
   46.5506    1.4160    7.8399 H   0  0  0  0  0  0  0  0  0  0  0  0
   47.1277    0.7303    6.3020 H   0  0  0  0  0  0  0  0  0  0  0  0
   46.5896    1.3531    7.7587 H   0  0  0  0  0  0  0  0  0  0  0  0
   47.3795    0.7381    6.2754 H   0  0  0  0  0  0  0  0  0  0  0  0
   48.3924    1.6622    7.4627 H   0  0  0  0  0  0  0  0  0  0  0  0
  3  2  1  0
  4  2  2  0
  5  2  1  0
  7  6  1  0
  8  6  2  0
  9  6  1  0
 11 10  1  0
 12 10  2  0
 13 10  1  0
  5 14  1  0
  5 15  1  0
  5 16  1  0
  9 17  1  0
  9 18  1  0
  9 19  1  0
 13 20  1  0
 13 21  1  0
 13 22  1  0
M  CHG  4   1   3   3  -1   7  -1  11  -1
M  END
> <Uni-Dock RESULT> 
ENERGY=   -7.598  LOWER_BOUND=    1.525  UPPER_BOUND=    2.169
INTER + INTRA:          -7.598
INTER:                  -7.598
INTRA:                   0.000
UNBOUND:                 0.000

$$$$

     RDKit          3D

 22 18  0  0  0  0  0  0  0  0999 V2000
   45.0635    2.7851    8.7012 Al  0  0  0  0  0 15  0  0  0  0  0  0
   45.0919    3.5031    8.3396 C   0  0  0  0  0  0  0  0  0  0  0  0
   44.1435    4.4879    8.6419 O   0  0  0  0  0  0  0  0  0  0  0  0
   45.9806    3.7832    7.4932 O   0  0  0  0  0  0  0  0  0  0  0  0
   45.0580    2.1604    8.9956 C   0  0  0  0  0  0  0  0  0  0  0  0
   44.9395    3.5389    8.3666 C   0  0  0  0  0  0  0  0  0  0  0  0
   45.8065    3.9450    7.3550 O   0  0  0  0  0  0  0  0  0  0  0  0
   44.0492    4.3219    8.7154 O   0  0  0  0  0  0  0  0  0  0  0  0
   45.1393    2.1789    8.9695 C   0  0  0  0  0  0  0  0  0  0  0  0
   45.0651    3.5424    8.3963 C   0  0  0  0  0  0  0  0  0  0  0  0
   44.0339    4.3917    8.7880 O   0  0  0  0  0  0  0  0  0  0  0  0
   45.9828    3.8914    7.6088 O   0  0  0  0  0  0  0  0  0  0  0  0
   45.0737    2.1513    8.9427 C   0  0  0  0  0  0  0  0  0  0  0  0
   44.7425    1.4185    8.2595 H   0  0  0  0  0  0  0  0  0  0  0  0
   44.3531    2.2360    9.8328 H   0  0  0  0  0  0  0  0  0  0  0  0
   46.0747    1.9069    9.3460 H   0  0  0  0  0  0  0  0  0  0  0  0
   44.6964    1.3908    8.3410 H   0  0  0  0  0  0  0  0  0  0  0  0
   46.2147    1.9894    9.2142 H   0  0  0  0  0  0  0  0  0  0  0  0
   44.5987    2.1312    9.9468 H   0  0  0  0  0  0  0  0  0  0  0  0
   46.1195    1.9748    9.2671 H   0  0  0  0  0  0  0  0  0  0  0  0
   44.4134    2.0340    9.8039 H   0  0  0  0  0  0  0  0  0  0  0  0
   44.7561    1.5104    8.1015 H   0  0  0  0  0  0  0  0  0  0  0  0
  3  2  1  0
  4  2  2  0
  5  2  1  0
  7  6  1  0
  8  6  2  0
  9  6  1  0
 11 10  1  0
 12 10  2  0
 13 10  1  0
  5 14  1  0
  5 15  1  0
  5 16  1  0
  9 17  1  0
  9 18  1  0
  9 19  1  0
 13 20  1  0
 13 21  1  0
 13 22  1  0
M  CHG  4   1   3   3  -1   7  -1  11  -1
M  END
> <Uni-Dock RESULT> 
ENERGY=   -6.090  LOWER_BOUND=    3.511  UPPER_BOUND=    3.827
INTER + INTRA:          -6.090
INTER:                  -6.090
INTRA:                   0.000
UNBOUND:                 0.000

$$$$

     RDKit          3D

 22 18  0  0  0  0  0  0  0  0999 V2000
   45.0006    3.0892    8.6282 Al  0  0  0  0  0 15  0  0  0  0  0  0
   45.0266    2.3649    8.9772 C   0  0  0  0  0  0  0  0  0  0  0  0
   44.2509    2.0956   10.1115 O   0  0  0  0  0  0  0  0  0  0  0  0
   45.7539    1.4402    8.5295 O   0  0  0  0  0  0  0  0  0  0  0  0
   44.9981    3.7037    8.3131 C   0  0  0  0  0  0  0  0  0  0  0  0
   44.9730    2.4149    9.1182 C   0  0  0  0  0  0  0  0  0  0  0  0
   45.7943    1.3411    8.7828 O   0  0  0  0  0  0  0  0  0  0  0  0
   44.2460    2.3002   10.1109 O   0  0  0  0  0  0  0  0  0  0  0  0
   45.0213    3.6422    8.2555 C   0  0  0  0  0  0  0  0  0  0  0  0
   44.9564    2.3642    9.0007 C   0  0  0  0  0  0  0  0  0  0  0  0
   44.1496    2.2743   10.1316 O   0  0  0  0  0  0  0  0  0  0  0  0
   45.6043    1.3893    8.5380 O   0  0  0  0  0  0  0  0  0  0  0  0
   45.0510    3.6862    8.3100 C   0  0  0  0  0  0  0  0  0  0  0  0
   45.9458    4.2105    8.5049 H   0  0  0  0  0  0  0  0  0  0  0  0
   44.1459    4.2486    8.7378 H   0  0  0  0  0  0  0  0  0  0  0  0
   44.8828    3.5610    7.2235 H   0  0  0  0  0  0  0  0  0  0  0  0
   45.8797    4.2819    8.5129 H   0  0  0  0  0  0  0  0  0  0  0  0
   44.9799    3.3843    7.1673 H   0  0  0  0  0  0  0  0  0  0  0  0
   44.1100    4.2598    8.4500 H   0  0  0  0  0  0  0  0  0  0  0  0
   44.9295    3.4580    7.2314 H   0  0  0  0  0  0  0  0  0  0  0  0
   44.2628    4.3769    8.6147 H   0  0  0  0  0  0  0  0  0  0  0  0
   46.0508    4.0756    8.5710 H   0  0  0  0  0  0  0  0  0  0  0  0
  3  2  1  0
  4  2  2  0
  5  2  1  0
  7  6  1  0
  8  6  2  0
  9  6  1  0
 11 10  1  0
 12 10  2  0
 13 10  1  0
  5 14  1  0
  5 15  1  0
  5 16  1  0
  9 17  1  0
  9 18  1  0
  9 19  1  0
 13 20  1  0
 13 21  1  0
 13 22  1  0
M  CHG  4   1   3   3  -1   7  -1  11  -1
M  END
> <Uni-Dock RESULT> 
ENERGY=   -6.061  LOWER_BOUND=    3.301  UPPER_BOUND=    3.893
INTER + INTRA:          -6.061
INTER:                  -6.061
INTRA:                   0.000
UNBOUND:                 0.000

$$$$

     RDKit          3D

 22 18  0  0  0  0  0  0  0  0999 V2000
   43.0984    4.6069   11.7043 Al  0  0  0  0  0 15  0  0  0  0  0  0
   42.8522    5.2381   12.1380 C   0  0  0  0  0  0  0  0  0  0  0  0
   42.4573    6.4231   11.5050 O   0  0  0  0  0  0  0  0  0  0  0  0
   42.8044    5.1993   13.3952 O   0  0  0  0  0  0  0  0  0  0  0  0
   43.3167    4.0530   11.3543 C   0  0  0  0  0  0  0  0  0  0  0  0
   42.8806    5.3456   12.0244 C   0  0  0  0  0  0  0  0  0  0  0  0
   42.8652    5.4669   13.4118 O   0  0  0  0  0  0  0  0  0  0  0  0
   42.5598    6.3322   11.3530 O   0  0  0  0  0  0  0  0  0  0  0  0
   43.2848    4.0272   11.4315 C   0  0  0  0  0  0  0  0  0  0  0  0
   42.8037    5.2641   12.0885 C   0  0  0  0  0  0  0  0  0  0  0  0
   42.4766    6.3686   11.3068 O   0  0  0  0  0  0  0  0  0  0  0  0
   42.6620    5.2393   13.3389 O   0  0  0  0  0  0  0  0  0  0  0  0
   43.3485    4.0545   11.4002 C   0  0  0  0  0  0  0  0  0  0  0  0
   44.3925    3.9368   11.4988 H   0  0  0  0  0  0  0  0  0  0  0  0
   43.0603    4.2480   10.3056 H   0  0  0  0  0  0  0  0  0  0  0  0
   42.8052    3.1499   11.7332 H   0  0  0  0  0  0  0  0  0  0  0  0
   44.3800    3.9168   11.4041 H   0  0  0  0  0  0  0  0  0  0  0  0
   42.7722    3.1714   11.9387 H   0  0  0  0  0  0  0  0  0  0  0  0
   42.9463    3.9881   10.3668 H   0  0  0  0  0  0  0  0  0  0  0  0
   42.7910    3.1995   11.8342 H   0  0  0  0  0  0  0  0  0  0  0  0
   43.1807    4.0733   10.3219 H   0  0  0  0  0  0  0  0  0  0  0  0
   44.4263    4.0488   11.6400 H   0  0  0  0  0  0  0  0  0  0  0  0
  3  2  1  0
  4  2  2  0
  5  2  1  0
  7  6  1  0
  8  6  2  0
  9  6  1  0
 11 10  1  0
 12 10  2  0
 13 10  1  0
  5 14  1  0
  5 15  1  0
  5 16  1  0
  9 17  1  0
  9 18  1  0
  9 19  1  0
 13 20  1  0
 13 21  1  0
 13 22  1  0
M  CHG  4   1   3   3  -1   7  -1  11  -1
M  END
> <Uni-Dock RESULT> 
ENERGY=   -5.549  LOWER_BOUND=    7.602  UPPER_BOUND=    8.185
INTER + INTRA:          -5.549
INTER:                  -5.549
INTRA:                   0.000
UNBOUND:                 0.000

$$$$
