
     RDKit          3D

 43 46  0  0  0  0  0  0  0  0999 V2000
   50.1976  -17.2780   -7.6661 C   0  0  0  0  0  0  0  0  0  0  0  0
   51.1126  -16.6098   -6.7235 C   0  0  0  0  0  0  0  0  0  0  0  0
   48.7822  -17.2714   -7.2586 C   0  0  0  0  0  0  0  0  0  0  0  0
   50.6213  -17.7830   -8.8528 C   0  0  0  0  0  0  0  0  0  0  0  0
   49.9569  -14.3765   -7.1136 C   0  0  0  0  0  0  0  0  0  0  0  0
   48.6986  -14.7381   -7.4118 C   0  0  0  0  0  0  0  0  0  0  0  0
   51.6752  -19.4753  -10.9086 N   0  0  0  0  0  0  0  0  0  0  0  0
   48.0798  -16.0536   -7.1212 C   0  0  0  0  0  0  0  0  0  0  0  0
   50.9742  -15.2296   -6.4488 C   0  0  0  0  0  0  0  0  0  0  0  0
   49.6558  -18.2821   -9.9071 C   0  0  0  0  0  0  0  0  0  0  0  0
   52.0789  -17.6895   -9.2635 C   0  0  0  0  0  0  0  0  0  0  0  0
   50.2134  -19.5234  -10.6328 C   0  0  0  0  0  0  0  0  0  0  0  0
   52.2773  -18.1394  -10.7143 C   0  0  0  0  0  0  0  0  0  0  0  0
   52.1008  -17.3585   -6.0615 C   0  0  0  0  0  0  0  0  0  0  0  0
   48.1463  -18.4828   -6.9411 C   0  0  0  0  0  0  0  0  0  0  0  0
   51.9879  -19.9981  -12.2560 C   0  0  0  0  0  0  0  0  0  0  0  0
   46.7236  -16.0819   -6.7461 C   0  0  0  0  0  0  0  0  0  0  0  0
   51.8826  -14.6154   -5.5679 C   0  0  0  0  0  0  0  0  0  0  0  0
   46.8066  -18.4953   -6.5500 C   0  0  0  0  0  0  0  0  0  0  0  0
   52.9831  -16.7373   -5.1745 C   0  0  0  0  0  0  0  0  0  0  0  0
   46.0932  -17.2952   -6.4576 C   0  0  0  0  0  0  0  0  0  0  0  0
   52.8783  -15.3662   -4.9329 C   0  0  0  0  0  0  0  0  0  0  0  0
   50.2252  -13.3420   -7.2885 H   0  0  0  0  0  0  0  0  0  0  0  0
   48.0477  -13.9668   -7.8028 H   0  0  0  0  0  0  0  0  0  0  0  0
   49.5035  -17.4647  -10.6498 H   0  0  0  0  0  0  0  0  0  0  0  0
   48.6556  -18.5392   -9.5057 H   0  0  0  0  0  0  0  0  0  0  0  0
   52.4457  -16.6436   -9.1581 H   0  0  0  0  0  0  0  0  0  0  0  0
   52.6840  -18.3516   -8.6058 H   0  0  0  0  0  0  0  0  0  0  0  0
   50.0255  -20.4109   -9.9907 H   0  0  0  0  0  0  0  0  0  0  0  0
   49.6160  -19.6680  -11.5634 H   0  0  0  0  0  0  0  0  0  0  0  0
   53.3709  -18.1787  -10.9148 H   0  0  0  0  0  0  0  0  0  0  0  0
   51.8257  -17.3953  -11.4145 H   0  0  0  0  0  0  0  0  0  0  0  0
   52.1850  -18.4239   -6.2303 H   0  0  0  0  0  0  0  0  0  0  0  0
   48.6892  -19.4191   -7.0076 H   0  0  0  0  0  0  0  0  0  0  0  0
   53.0895  -20.0720  -12.3941 H   0  0  0  0  0  0  0  0  0  0  0  0
   51.5645  -19.3390  -13.0481 H   0  0  0  0  0  0  0  0  0  0  0  0
   51.5712  -21.0242  -12.3747 H   0  0  0  0  0  0  0  0  0  0  0  0
   46.1555  -15.1610   -6.6583 H   0  0  0  0  0  0  0  0  0  0  0  0
   51.8136  -13.5528   -5.3609 H   0  0  0  0  0  0  0  0  0  0  0  0
   46.3201  -19.4353   -6.3184 H   0  0  0  0  0  0  0  0  0  0  0  0
   53.7478  -17.3185   -4.6751 H   0  0  0  0  0  0  0  0  0  0  0  0
   45.0534  -17.3062   -6.1561 H   0  0  0  0  0  0  0  0  0  0  0  0
   53.5674  -14.8846   -4.2486 H   0  0  0  0  0  0  0  0  0  0  0  0
  2  1  1  0
  3  1  1  0
  4  1  2  3
  5  9  1  0
  6  8  1  0
  7 13  1  0
  8  3  2  0
  9  2  2  0
 10  4  1  0
 11  4  1  0
 12 10  1  0
 13 11  1  0
 14  2  1  0
 15  3  1  0
 16  7  1  0
 17  8  1  0
 18  9  1  0
 19 15  2  0
 20 14  2  0
 21 19  1  0
 22 20  1  0
  7 12  1  0
  6  5  2  0
 21 17  2  0
 22 18  2  0
  5 23  1  0
  6 24  1  0
 10 25  1  0
 10 26  1  0
 11 27  1  0
 11 28  1  0
 12 29  1  0
 12 30  1  0
 13 31  1  0
 13 32  1  0
 14 33  1  0
 15 34  1  0
 16 35  1  0
 16 36  1  0
 16 37  1  0
 17 38  1  0
 18 39  1  0
 19 40  1  0
 20 41  1  0
 21 42  1  0
 22 43  1  0
M  END
> <Uni-Dock RESULT> 
ENERGY=   -6.225  LOWER_BOUND=    0.000  UPPER_BOUND=    0.000
INTER + INTRA:          -6.225
INTER:                  -6.225
INTRA:                   0.000
UNBOUND:                 0.000

$$$$

     RDKit          3D

 43 46  0  0  0  0  0  0  0  0999 V2000
   50.1676  -17.4128   -7.6388 C   0  0  0  0  0  0  0  0  0  0  0  0
   51.0815  -16.7039   -6.7252 C   0  0  0  0  0  0  0  0  0  0  0  0
   48.7586  -17.4278   -7.2099 C   0  0  0  0  0  0  0  0  0  0  0  0
   50.5848  -17.9348   -8.8204 C   0  0  0  0  0  0  0  0  0  0  0  0
   49.8710  -14.5055   -7.1466 C   0  0  0  0  0  0  0  0  0  0  0  0
   48.6168  -14.9010   -7.4175 C   0  0  0  0  0  0  0  0  0  0  0  0
   51.6453  -19.6492  -10.8543 N   0  0  0  0  0  0  0  0  0  0  0  0
   48.0316  -16.2228   -7.0887 C   0  0  0  0  0  0  0  0  0  0  0  0
   50.9167  -15.3213   -6.4788 C   0  0  0  0  0  0  0  0  0  0  0  0
   49.6150  -18.4781   -9.8487 C   0  0  0  0  0  0  0  0  0  0  0  0
   52.0337  -17.8188   -9.2553 C   0  0  0  0  0  0  0  0  0  0  0  0
   50.1892  -19.7229  -10.5552 C   0  0  0  0  0  0  0  0  0  0  0  0
   52.2205  -18.2965  -10.6987 C   0  0  0  0  0  0  0  0  0  0  0  0
   52.0957  -17.4160   -6.0620 C   0  0  0  0  0  0  0  0  0  0  0  0
   48.1544  -18.6454   -6.8562 C   0  0  0  0  0  0  0  0  0  0  0  0
   51.9496  -20.1950  -12.1945 C   0  0  0  0  0  0  0  0  0  0  0  0
   46.6821  -16.2722   -6.6924 C   0  0  0  0  0  0  0  0  0  0  0  0
   51.8242  -14.6679   -5.6257 C   0  0  0  0  0  0  0  0  0  0  0  0
   46.8212  -18.6783   -6.4446 C   0  0  0  0  0  0  0  0  0  0  0  0
   52.9770  -16.7560   -5.2025 C   0  0  0  0  0  0  0  0  0  0  0  0
   46.0829  -17.4922   -6.3677 C   0  0  0  0  0  0  0  0  0  0  0  0
   52.8456  -15.3825   -4.9896 C   0  0  0  0  0  0  0  0  0  0  0  0
   50.1138  -13.4696   -7.3483 H   0  0  0  0  0  0  0  0  0  0  0  0
   47.9433  -14.1529   -7.8154 H   0  0  0  0  0  0  0  0  0  0  0  0
   49.4338  -17.6810  -10.6067 H   0  0  0  0  0  0  0  0  0  0  0  0
   48.6268  -18.7479   -9.4265 H   0  0  0  0  0  0  0  0  0  0  0  0
   52.3789  -16.7630   -9.1786 H   0  0  0  0  0  0  0  0  0  0  0  0
   52.6630  -18.4527   -8.5925 H   0  0  0  0  0  0  0  0  0  0  0  0
   50.0305  -20.5997   -9.8910 H   0  0  0  0  0  0  0  0  0  0  0  0
   49.5815  -19.9013  -11.4732 H   0  0  0  0  0  0  0  0  0  0  0  0
   53.3117  -18.3165  -10.9150 H   0  0  0  0  0  0  0  0  0  0  0  0
   51.7423  -17.5782  -11.4081 H   0  0  0  0  0  0  0  0  0  0  0  0
   52.2008  -18.4828   -6.2086 H   0  0  0  0  0  0  0  0  0  0  0  0
   48.7168  -19.5709   -6.9103 H   0  0  0  0  0  0  0  0  0  0  0  0
   53.0504  -20.2481  -12.3478 H   0  0  0  0  0  0  0  0  0  0  0  0
   51.5000  -19.5632  -12.9944 H   0  0  0  0  0  0  0  0  0  0  0  0
   51.5539  -21.2323  -12.2842 H   0  0  0  0  0  0  0  0  0  0  0  0
   46.0951  -15.3621   -6.6163 H   0  0  0  0  0  0  0  0  0  0  0  0
   51.7349  -13.6027   -5.4411 H   0  0  0  0  0  0  0  0  0  0  0  0
   46.3590  -19.6232   -6.1849 H   0  0  0  0  0  0  0  0  0  0  0  0
   53.7617  -17.3092   -4.7021 H   0  0  0  0  0  0  0  0  0  0  0  0
   45.0482  -17.5191   -6.0502 H   0  0  0  0  0  0  0  0  0  0  0  0
   53.5339  -14.8709   -4.3266 H   0  0  0  0  0  0  0  0  0  0  0  0
  2  1  1  0
  3  1  1  0
  4  1  2  3
  5  9  1  0
  6  8  1  0
  7 13  1  0
  8  3  2  0
  9  2  2  0
 10  4  1  0
 11  4  1  0
 12 10  1  0
 13 11  1  0
 14  2  1  0
 15  3  1  0
 16  7  1  0
 17  8  1  0
 18  9  1  0
 19 15  2  0
 20 14  2  0
 21 19  1  0
 22 20  1  0
  7 12  1  0
  6  5  2  0
 21 17  2  0
 22 18  2  0
  5 23  1  0
  6 24  1  0
 10 25  1  0
 10 26  1  0
 11 27  1  0
 11 28  1  0
 12 29  1  0
 12 30  1  0
 13 31  1  0
 13 32  1  0
 14 33  1  0
 15 34  1  0
 16 35  1  0
 16 36  1  0
 16 37  1  0
 17 38  1  0
 18 39  1  0
 19 40  1  0
 20 41  1  0
 21 42  1  0
 22 43  1  0
M  END
> <Uni-Dock RESULT> 
ENERGY=   -6.224  LOWER_BOUND=    0.163  UPPER_BOUND=    0.163
INTER + INTRA:          -6.224
INTER:                  -6.224
INTRA:                   0.000
UNBOUND:                 0.000

$$$$

     RDKit          3D

 43 46  0  0  0  0  0  0  0  0999 V2000
   48.0442  -17.1733   -8.0400 C   0  0  0  0  0  0  0  0  0  0  0  0
   47.5054  -18.1429   -7.0693 C   0  0  0  0  0  0  0  0  0  0  0  0
   49.0328  -16.2327   -7.4856 C   0  0  0  0  0  0  0  0  0  0  0  0
   47.7134  -17.2052   -9.3561 C   0  0  0  0  0  0  0  0  0  0  0  0
   49.8110  -19.1704   -6.7467 C   0  0  0  0  0  0  0  0  0  0  0  0
   50.6354  -18.1368   -6.9815 C   0  0  0  0  0  0  0  0  0  0  0  0
   46.4107  -16.8373  -11.8797 N   0  0  0  0  0  0  0  0  0  0  0  0
   50.2589  -16.7031   -6.9652 C   0  0  0  0  0  0  0  0  0  0  0  0
   48.3612  -19.0762   -6.4400 C   0  0  0  0  0  0  0  0  0  0  0  0
   48.4187  -16.3474  -10.3854 C   0  0  0  0  0  0  0  0  0  0  0  0
   46.7525  -18.2495   -9.8930 C   0  0  0  0  0  0  0  0  0  0  0  0
   47.4351  -15.8422  -11.4605 C   0  0  0  0  0  0  0  0  0  0  0  0
   46.6924  -18.2147  -11.4232 C   0  0  0  0  0  0  0  0  0  0  0  0
   46.1405  -18.1104   -6.7355 C   0  0  0  0  0  0  0  0  0  0  0  0
   48.7244  -14.8643   -7.4151 C   0  0  0  0  0  0  0  0  0  0  0  0
   46.1942  -16.8059  -13.3421 C   0  0  0  0  0  0  0  0  0  0  0  0
   51.1894  -15.7772   -6.4576 C   0  0  0  0  0  0  0  0  0  0  0  0
   47.8108  -20.0080   -5.5417 C   0  0  0  0  0  0  0  0  0  0  0  0
   49.6478  -13.9590   -6.8900 C   0  0  0  0  0  0  0  0  0  0  0  0
   45.6127  -19.0303   -5.8265 C   0  0  0  0  0  0  0  0  0  0  0  0
   50.8829  -14.4145   -6.4159 C   0  0  0  0  0  0  0  0  0  0  0  0
   46.4455  -19.9822   -5.2353 C   0  0  0  0  0  0  0  0  0  0  0  0
   50.2612  -20.1532   -6.6832 H   0  0  0  0  0  0  0  0  0  0  0  0
   51.6880  -18.3653   -7.0876 H   0  0  0  0  0  0  0  0  0  0  0  0
   49.2031  -16.9705  -10.8745 H   0  0  0  0  0  0  0  0  0  0  0  0
   48.9342  -15.4681   -9.9511 H   0  0  0  0  0  0  0  0  0  0  0  0
   47.0647  -19.2678   -9.5685 H   0  0  0  0  0  0  0  0  0  0  0  0
   45.7337  -18.0419   -9.4977 H   0  0  0  0  0  0  0  0  0  0  0  0
   46.8948  -14.9633  -11.0471 H   0  0  0  0  0  0  0  0  0  0  0  0
   48.0375  -15.4723  -12.3231 H   0  0  0  0  0  0  0  0  0  0  0  0
   45.8799  -18.9009  -11.7503 H   0  0  0  0  0  0  0  0  0  0  0  0
   47.6524  -18.5873  -11.8559 H   0  0  0  0  0  0  0  0  0  0  0  0
   45.4866  -17.3702   -7.1771 H   0  0  0  0  0  0  0  0  0  0  0  0
   47.7699  -14.4996   -7.7779 H   0  0  0  0  0  0  0  0  0  0  0  0
   45.3398  -17.4626  -13.6190 H   0  0  0  0  0  0  0  0  0  0  0  0
   47.1050  -17.1429  -13.8879 H   0  0  0  0  0  0  0  0  0  0  0  0
   45.9353  -15.7729  -13.6686 H   0  0  0  0  0  0  0  0  0  0  0  0
   52.1489  -16.1116   -6.0752 H   0  0  0  0  0  0  0  0  0  0  0  0
   48.4419  -20.7509   -5.0658 H   0  0  0  0  0  0  0  0  0  0  0  0
   49.4069  -12.9034   -6.8502 H   0  0  0  0  0  0  0  0  0  0  0  0
   44.5586  -19.0055   -5.5811 H   0  0  0  0  0  0  0  0  0  0  0  0
   51.5993  -13.7111   -6.0107 H   0  0  0  0  0  0  0  0  0  0  0  0
   46.0333  -20.6990   -4.5343 H   0  0  0  0  0  0  0  0  0  0  0  0
  2  1  1  0
  3  1  1  0
  4  1  2  3
  5  9  1  0
  6  8  1  0
  7 13  1  0
  8  3  2  0
  9  2  2  0
 10  4  1  0
 11  4  1  0
 12 10  1  0
 13 11  1  0
 14  2  1  0
 15  3  1  0
 16  7  1  0
 17  8  1  0
 18  9  1  0
 19 15  2  0
 20 14  2  0
 21 19  1  0
 22 20  1  0
  7 12  1  0
  6  5  2  0
 21 17  2  0
 22 18  2  0
  5 23  1  0
  6 24  1  0
 10 25  1  0
 10 26  1  0
 11 27  1  0
 11 28  1  0
 12 29  1  0
 12 30  1  0
 13 31  1  0
 13 32  1  0
 14 33  1  0
 15 34  1  0
 16 35  1  0
 16 36  1  0
 16 37  1  0
 17 38  1  0
 18 39  1  0
 19 40  1  0
 20 41  1  0
 21 42  1  0
 22 43  1  0
M  END
> <Uni-Dock RESULT> 
ENERGY=   -5.248  LOWER_BOUND=    2.511  UPPER_BOUND=    5.061
INTER + INTRA:          -5.248
INTER:                  -5.248
INTRA:                   0.000
UNBOUND:                 0.000

$$$$

     RDKit          3D

 43 46  0  0  0  0  0  0  0  0999 V2000
   50.3781  -17.7620   -7.2592 C   0  0  0  0  0  0  0  0  0  0  0  0
   49.0471  -17.1408   -7.1369 C   0  0  0  0  0  0  0  0  0  0  0  0
   50.9153  -18.3173   -6.0052 C   0  0  0  0  0  0  0  0  0  0  0  0
   51.0146  -17.8832   -8.4521 C   0  0  0  0  0  0  0  0  0  0  0  0
   48.0130  -19.3753   -6.4938 C   0  0  0  0  0  0  0  0  0  0  0  0
   49.0286  -20.0130   -5.8899 C   0  0  0  0  0  0  0  0  0  0  0  0
   52.6006  -17.4123  -10.7895 N   0  0  0  0  0  0  0  0  0  0  0  0
   50.2544  -19.3789   -5.3483 C   0  0  0  0  0  0  0  0  0  0  0  0
   47.9294  -17.9147   -6.7480 C   0  0  0  0  0  0  0  0  0  0  0  0
   52.2801  -18.6994   -8.6111 C   0  0  0  0  0  0  0  0  0  0  0  0
   50.3794  -17.3682   -9.7301 C   0  0  0  0  0  0  0  0  0  0  0  0
   53.2534  -18.0333   -9.6048 C   0  0  0  0  0  0  0  0  0  0  0  0
   51.1836  -17.7959  -10.9617 C   0  0  0  0  0  0  0  0  0  0  0  0
   48.8970  -15.7624   -7.3664 C   0  0  0  0  0  0  0  0  0  0  0  0
   52.0577  -17.7418   -5.4252 C   0  0  0  0  0  0  0  0  0  0  0  0
   53.3665  -17.6739  -12.0271 C   0  0  0  0  0  0  0  0  0  0  0  0
   50.8021  -19.8982   -4.1604 C   0  0  0  0  0  0  0  0  0  0  0  0
   46.6674  -17.2986   -6.6703 C   0  0  0  0  0  0  0  0  0  0  0  0
   52.5788  -18.2528   -4.2356 C   0  0  0  0  0  0  0  0  0  0  0  0
   47.6401  -15.1615   -7.2661 C   0  0  0  0  0  0  0  0  0  0  0  0
   51.9542  -19.3348   -3.6056 C   0  0  0  0  0  0  0  0  0  0  0  0
   46.5254  -15.9298   -6.9249 C   0  0  0  0  0  0  0  0  0  0  0  0
   47.1362  -19.9641   -6.7332 H   0  0  0  0  0  0  0  0  0  0  0  0
   48.8923  -21.0673   -5.6868 H   0  0  0  0  0  0  0  0  0  0  0  0
   51.9955  -19.7048   -8.9995 H   0  0  0  0  0  0  0  0  0  0  0  0
   52.8220  -18.8665   -7.6592 H   0  0  0  0  0  0  0  0  0  0  0  0
   49.3390  -17.7524   -9.8288 H   0  0  0  0  0  0  0  0  0  0  0  0
   50.3516  -16.2567   -9.6987 H   0  0  0  0  0  0  0  0  0  0  0  0
   53.7985  -17.2286   -9.0660 H   0  0  0  0  0  0  0  0  0  0  0  0
   54.0131  -18.7959   -9.8969 H   0  0  0  0  0  0  0  0  0  0  0  0
   50.7520  -17.2815  -11.8489 H   0  0  0  0  0  0  0  0  0  0  0  0
   51.0876  -18.8972  -11.1222 H   0  0  0  0  0  0  0  0  0  0  0  0
   49.7546  -15.1532   -7.6195 H   0  0  0  0  0  0  0  0  0  0  0  0
   52.5495  -16.9020   -5.9034 H   0  0  0  0  0  0  0  0  0  0  0  0
   52.9346  -17.0987  -12.8760 H   0  0  0  0  0  0  0  0  0  0  0  0
   53.3582  -18.7588  -12.2799 H   0  0  0  0  0  0  0  0  0  0  0  0
   54.4209  -17.3369  -11.9031 H   0  0  0  0  0  0  0  0  0  0  0  0
   50.3266  -20.7305   -3.6506 H   0  0  0  0  0  0  0  0  0  0  0  0
   45.7900  -17.8762   -6.3995 H   0  0  0  0  0  0  0  0  0  0  0  0
   53.4674  -17.8107   -3.8010 H   0  0  0  0  0  0  0  0  0  0  0  0
   47.5303  -14.1008   -7.4533 H   0  0  0  0  0  0  0  0  0  0  0  0
   52.3605  -19.7318   -2.6838 H   0  0  0  0  0  0  0  0  0  0  0  0
   45.5497  -15.4630   -6.8530 H   0  0  0  0  0  0  0  0  0  0  0  0
  2  1  1  0
  3  1  1  0
  4  1  2  3
  5  9  1  0
  6  8  1  0
  7 13  1  0
  8  3  2  0
  9  2  2  0
 10  4  1  0
 11  4  1  0
 12 10  1  0
 13 11  1  0
 14  2  1  0
 15  3  1  0
 16  7  1  0
 17  8  1  0
 18  9  1  0
 19 15  2  0
 20 14  2  0
 21 19  1  0
 22 20  1  0
  7 12  1  0
  6  5  2  0
 21 17  2  0
 22 18  2  0
  5 23  1  0
  6 24  1  0
 10 25  1  0
 10 26  1  0
 11 27  1  0
 11 28  1  0
 12 29  1  0
 12 30  1  0
 13 31  1  0
 13 32  1  0
 14 33  1  0
 15 34  1  0
 16 35  1  0
 16 36  1  0
 16 37  1  0
 17 38  1  0
 18 39  1  0
 19 40  1  0
 20 41  1  0
 21 42  1  0
 22 43  1  0
M  END
> <Uni-Dock RESULT> 
ENERGY=   -5.187  LOWER_BOUND=    1.627  UPPER_BOUND=    4.356
INTER + INTRA:          -5.187
INTER:                  -5.187
INTRA:                   0.000
UNBOUND:                 0.000

$$$$

     RDKit          3D

 43 46  0  0  0  0  0  0  0  0999 V2000
   47.1404  -16.0703  -10.7454 C   0  0  0  0  0  0  0  0  0  0  0  0
   45.9783  -15.5395  -11.4804 C   0  0  0  0  0  0  0  0  0  0  0  0
   46.8997  -16.3235   -9.3145 C   0  0  0  0  0  0  0  0  0  0  0  0
   48.3098  -16.3773  -11.3625 C   0  0  0  0  0  0  0  0  0  0  0  0
   44.6650  -17.6734  -11.0364 C   0  0  0  0  0  0  0  0  0  0  0  0
   45.1721  -18.1001   -9.8686 C   0  0  0  0  0  0  0  0  0  0  0  0
   50.9179  -16.2612  -12.5392 N   0  0  0  0  0  0  0  0  0  0  0  0
   45.9449  -17.2805   -8.9049 C   0  0  0  0  0  0  0  0  0  0  0  0
   44.7934  -16.3029  -11.5932 C   0  0  0  0  0  0  0  0  0  0  0  0
   49.4277  -17.1109  -10.6519 C   0  0  0  0  0  0  0  0  0  0  0  0
   48.4787  -16.1756  -12.8567 C   0  0  0  0  0  0  0  0  0  0  0  0
   50.8091  -16.5838  -11.0903 C   0  0  0  0  0  0  0  0  0  0  0  0
   49.7972  -16.7773  -13.3531 C   0  0  0  0  0  0  0  0  0  0  0  0
   46.0339  -14.2493  -12.0351 C   0  0  0  0  0  0  0  0  0  0  0  0
   47.5791  -15.5598   -8.3513 C   0  0  0  0  0  0  0  0  0  0  0  0
   52.2145  -16.7046  -13.0952 C   0  0  0  0  0  0  0  0  0  0  0  0
   45.7500  -17.5109   -7.5302 C   0  0  0  0  0  0  0  0  0  0  0  0
   43.7133  -15.7806  -12.3272 C   0  0  0  0  0  0  0  0  0  0  0  0
   47.3613  -15.7838   -6.9910 C   0  0  0  0  0  0  0  0  0  0  0  0
   44.9452  -13.7370  -12.7447 C   0  0  0  0  0  0  0  0  0  0  0  0
   46.4506  -16.7633   -6.5799 C   0  0  0  0  0  0  0  0  0  0  0  0
   43.7887  -14.5043  -12.8962 C   0  0  0  0  0  0  0  0  0  0  0  0
   44.0273  -18.3625  -11.5760 H   0  0  0  0  0  0  0  0  0  0  0  0
   44.9028  -19.1004   -9.5549 H   0  0  0  0  0  0  0  0  0  0  0  0
   49.3515  -18.1920  -10.9132 H   0  0  0  0  0  0  0  0  0  0  0  0
   49.3693  -17.0445   -9.5475 H   0  0  0  0  0  0  0  0  0  0  0  0
   47.6366  -16.6492  -13.4102 H   0  0  0  0  0  0  0  0  0  0  0  0
   48.4866  -15.0854  -13.0768 H   0  0  0  0  0  0  0  0  0  0  0  0
   51.0163  -15.6493  -10.5255 H   0  0  0  0  0  0  0  0  0  0  0  0
   51.5735  -17.3295  -10.7686 H   0  0  0  0  0  0  0  0  0  0  0  0
   49.9291  -16.4832  -14.4180 H   0  0  0  0  0  0  0  0  0  0  0  0
   49.7542  -17.8925  -13.3070 H   0  0  0  0  0  0  0  0  0  0  0  0
   46.9195  -13.6394  -11.9145 H   0  0  0  0  0  0  0  0  0  0  0  0
   48.2862  -14.7969   -8.6576 H   0  0  0  0  0  0  0  0  0  0  0  0
   52.3283  -16.3436  -14.1415 H   0  0  0  0  0  0  0  0  0  0  0  0
   52.2955  -17.8156  -13.0819 H   0  0  0  0  0  0  0  0  0  0  0  0
   53.0529  -16.2711  -12.5038 H   0  0  0  0  0  0  0  0  0  0  0  0
   45.0402  -18.2589   -7.1907 H   0  0  0  0  0  0  0  0  0  0  0  0
   42.8029  -16.3576  -12.4503 H   0  0  0  0  0  0  0  0  0  0  0  0
   47.8984  -15.1985   -6.2542 H   0  0  0  0  0  0  0  0  0  0  0  0
   44.9985  -12.7460  -13.1772 H   0  0  0  0  0  0  0  0  0  0  0  0
   46.2838  -16.9376   -5.5245 H   0  0  0  0  0  0  0  0  0  0  0  0
   42.9468  -14.1075  -13.4520 H   0  0  0  0  0  0  0  0  0  0  0  0
  2  1  1  0
  3  1  1  0
  4  1  2  3
  5  9  1  0
  6  8  1  0
  7 13  1  0
  8  3  2  0
  9  2  2  0
 10  4  1  0
 11  4  1  0
 12 10  1  0
 13 11  1  0
 14  2  1  0
 15  3  1  0
 16  7  1  0
 17  8  1  0
 18  9  1  0
 19 15  2  0
 20 14  2  0
 21 19  1  0
 22 20  1  0
  7 12  1  0
  6  5  2  0
 21 17  2  0
 22 18  2  0
  5 23  1  0
  6 24  1  0
 10 25  1  0
 10 26  1  0
 11 27  1  0
 11 28  1  0
 12 29  1  0
 12 30  1  0
 13 31  1  0
 13 32  1  0
 14 33  1  0
 15 34  1  0
 16 35  1  0
 16 36  1  0
 16 37  1  0
 17 38  1  0
 18 39  1  0
 19 40  1  0
 20 41  1  0
 21 42  1  0
 22 43  1  0
M  END
> <Uni-Dock RESULT> 
ENERGY=   -4.985  LOWER_BOUND=    3.937  UPPER_BOUND=    6.134
INTER + INTRA:          -4.985
INTER:                  -4.985
INTRA:                   0.000
UNBOUND:                 0.000

$$$$

     RDKit          3D

 43 46  0  0  0  0  0  0  0  0999 V2000
   46.5251  -16.4545  -10.5528 C   0  0  0  0  0  0  0  0  0  0  0  0
   47.4274  -16.1352   -9.4320 C   0  0  0  0  0  0  0  0  0  0  0  0
   46.7334  -15.6389  -11.7615 C   0  0  0  0  0  0  0  0  0  0  0  0
   45.6328  -17.4759  -10.4967 C   0  0  0  0  0  0  0  0  0  0  0  0
   49.4520  -16.8486  -10.7986 C   0  0  0  0  0  0  0  0  0  0  0  0
   49.0700  -16.5874  -12.0591 C   0  0  0  0  0  0  0  0  0  0  0  0
   43.3029  -19.0777  -10.0423 N   0  0  0  0  0  0  0  0  0  0  0  0
   47.9580  -15.6943  -12.4634 C   0  0  0  0  0  0  0  0  0  0  0  0
   48.8247  -16.3044   -9.5677 C   0  0  0  0  0  0  0  0  0  0  0  0
   44.8547  -17.9340  -11.7123 C   0  0  0  0  0  0  0  0  0  0  0  0
   45.5158  -18.3411   -9.2559 C   0  0  0  0  0  0  0  0  0  0  0  0
   43.4177  -18.3458  -11.3332 C   0  0  0  0  0  0  0  0  0  0  0  0
   44.5973  -19.5423   -9.5007 C   0  0  0  0  0  0  0  0  0  0  0  0
   46.8988  -15.6187   -8.2365 C   0  0  0  0  0  0  0  0  0  0  0  0
   45.7291  -14.7509  -12.1804 C   0  0  0  0  0  0  0  0  0  0  0  0
   42.3451  -20.1999  -10.1412 C   0  0  0  0  0  0  0  0  0  0  0  0
   48.1197  -14.9150  -13.6241 C   0  0  0  0  0  0  0  0  0  0  0  0
   49.6558  -16.0199   -8.4692 C   0  0  0  0  0  0  0  0  0  0  0  0
   45.9103  -13.9680  -13.3214 C   0  0  0  0  0  0  0  0  0  0  0  0
   47.7398  -15.3226   -7.1612 C   0  0  0  0  0  0  0  0  0  0  0  0
   47.1037  -14.0537  -14.0469 C   0  0  0  0  0  0  0  0  0  0  0  0
   49.1158  -15.5291   -7.2750 C   0  0  0  0  0  0  0  0  0  0  0  0
   50.3545  -17.4330  -10.6700 H   0  0  0  0  0  0  0  0  0  0  0  0
   49.6951  -16.9798  -12.8508 H   0  0  0  0  0  0  0  0  0  0  0  0
   45.3822  -18.8143  -12.1477 H   0  0  0  0  0  0  0  0  0  0  0  0
   44.7935  -17.1704  -12.5127 H   0  0  0  0  0  0  0  0  0  0  0  0
   46.5185  -18.7126   -8.9455 H   0  0  0  0  0  0  0  0  0  0  0  0
   45.0850  -17.7336   -8.4297 H   0  0  0  0  0  0  0  0  0  0  0  0
   42.8061  -17.4218  -11.2467 H   0  0  0  0  0  0  0  0  0  0  0  0
   42.9974  -18.9304  -12.1850 H   0  0  0  0  0  0  0  0  0  0  0  0
   44.4426  -20.0598   -8.5279 H   0  0  0  0  0  0  0  0  0  0  0  0
   45.0840  -20.2641  -10.2006 H   0  0  0  0  0  0  0  0  0  0  0  0
   45.8358  -15.4424   -8.1393 H   0  0  0  0  0  0  0  0  0  0  0  0
   44.8006  -14.6745  -11.6255 H   0  0  0  0  0  0  0  0  0  0  0  0
   42.1783  -20.6531   -9.1388 H   0  0  0  0  0  0  0  0  0  0  0  0
   42.7196  -20.9841  -10.8382 H   0  0  0  0  0  0  0  0  0  0  0  0
   41.3590  -19.8307  -10.5043 H   0  0  0  0  0  0  0  0  0  0  0  0
   49.0421  -14.9591  -14.1950 H   0  0  0  0  0  0  0  0  0  0  0  0
   50.7283  -16.1663   -8.5396 H   0  0  0  0  0  0  0  0  0  0  0  0
   45.1258  -13.2942  -13.6447 H   0  0  0  0  0  0  0  0  0  0  0  0
   47.3247  -14.9338   -6.2400 H   0  0  0  0  0  0  0  0  0  0  0  0
   47.2425  -13.4474  -14.9331 H   0  0  0  0  0  0  0  0  0  0  0  0
   49.7664  -15.3041   -6.4377 H   0  0  0  0  0  0  0  0  0  0  0  0
  2  1  1  0
  3  1  1  0
  4  1  2  3
  5  9  1  0
  6  8  1  0
  7 13  1  0
  8  3  2  0
  9  2  2  0
 10  4  1  0
 11  4  1  0
 12 10  1  0
 13 11  1  0
 14  2  1  0
 15  3  1  0
 16  7  1  0
 17  8  1  0
 18  9  1  0
 19 15  2  0
 20 14  2  0
 21 19  1  0
 22 20  1  0
  7 12  1  0
  6  5  2  0
 21 17  2  0
 22 18  2  0
  5 23  1  0
  6 24  1  0
 10 25  1  0
 10 26  1  0
 11 27  1  0
 11 28  1  0
 12 29  1  0
 12 30  1  0
 13 31  1  0
 13 32  1  0
 14 33  1  0
 15 34  1  0
 16 35  1  0
 16 36  1  0
 16 37  1  0
 17 38  1  0
 18 39  1  0
 19 40  1  0
 20 41  1  0
 21 42  1  0
 22 43  1  0
M  END
> <Uni-Dock RESULT> 
ENERGY=   -4.311  LOWER_BOUND=    4.399  UPPER_BOUND=    6.303
INTER + INTRA:          -4.311
INTER:                  -4.311
INTRA:                   0.000
UNBOUND:                 0.000

$$$$

     RDKit          3D

 43 46  0  0  0  0  0  0  0  0999 V2000
   46.9539  -16.7742   -9.0593 C   0  0  0  0  0  0  0  0  0  0  0  0
   48.0417  -16.0502   -8.3775 C   0  0  0  0  0  0  0  0  0  0  0  0
   46.8589  -16.5203  -10.5071 C   0  0  0  0  0  0  0  0  0  0  0  0
   46.1603  -17.6660   -8.4131 C   0  0  0  0  0  0  0  0  0  0  0  0
   49.7895  -17.2993   -9.7415 C   0  0  0  0  0  0  0  0  0  0  0  0
   49.1437  -17.5602  -10.8895 C   0  0  0  0  0  0  0  0  0  0  0  0
   44.0808  -18.8958   -6.8756 N   0  0  0  0  0  0  0  0  0  0  0  0
   47.9168  -16.8814  -11.3707 C   0  0  0  0  0  0  0  0  0  0  0  0
   49.3905  -16.2910   -8.7272 C   0  0  0  0  0  0  0  0  0  0  0  0
   45.1836  -18.5579   -9.1503 C   0  0  0  0  0  0  0  0  0  0  0  0
   46.3541  -17.9543   -6.9362 C   0  0  0  0  0  0  0  0  0  0  0  0
   43.8834  -18.7496   -8.3435 C   0  0  0  0  0  0  0  0  0  0  0  0
   45.4857  -19.1314   -6.4812 C   0  0  0  0  0  0  0  0  0  0  0  0
   47.7338  -15.0838   -7.4047 C   0  0  0  0  0  0  0  0  0  0  0  0
   45.7347  -15.8544  -11.0221 C   0  0  0  0  0  0  0  0  0  0  0  0
   43.1984  -19.9409   -6.3136 C   0  0  0  0  0  0  0  0  0  0  0  0
   47.7885  -16.6403  -12.7513 C   0  0  0  0  0  0  0  0  0  0  0  0
   50.4065  -15.6063   -8.0364 C   0  0  0  0  0  0  0  0  0  0  0  0
   45.6292  -15.6025  -12.3907 C   0  0  0  0  0  0  0  0  0  0  0  0
   48.7539  -14.3980   -6.7413 C   0  0  0  0  0  0  0  0  0  0  0  0
   46.6537  -16.0003  -13.2567 C   0  0  0  0  0  0  0  0  0  0  0  0
   50.0889  -14.6636   -7.0521 C   0  0  0  0  0  0  0  0  0  0  0  0
   50.7357  -17.8023   -9.5850 H   0  0  0  0  0  0  0  0  0  0  0  0
   49.6197  -18.2526  -11.5719 H   0  0  0  0  0  0  0  0  0  0  0  0
   45.6684  -19.5506   -9.2997 H   0  0  0  0  0  0  0  0  0  0  0  0
   44.9116  -18.1809  -10.1560 H   0  0  0  0  0  0  0  0  0  0  0  0
   47.4210  -18.1914   -6.7235 H   0  0  0  0  0  0  0  0  0  0  0  0
   46.0609  -17.0557   -6.3499 H   0  0  0  0  0  0  0  0  0  0  0  0
   43.2429  -17.8558   -8.5051 H   0  0  0  0  0  0  0  0  0  0  0  0
   43.3384  -19.6185   -8.7815 H   0  0  0  0  0  0  0  0  0  0  0  0
   45.5656  -19.2089   -5.3742 H   0  0  0  0  0  0  0  0  0  0  0  0
   45.8666  -20.0849   -6.9212 H   0  0  0  0  0  0  0  0  0  0  0  0
   46.7032  -14.8595   -7.1631 H   0  0  0  0  0  0  0  0  0  0  0  0
   44.9349  -15.5400  -10.3607 H   0  0  0  0  0  0  0  0  0  0  0  0
   43.2683  -19.9474   -5.2031 H   0  0  0  0  0  0  0  0  0  0  0  0
   43.4744  -20.9478   -6.7023 H   0  0  0  0  0  0  0  0  0  0  0  0
   42.1372  -19.7275   -6.5759 H   0  0  0  0  0  0  0  0  0  0  0  0
   48.5770  -16.9316  -13.4385 H   0  0  0  0  0  0  0  0  0  0  0  0
   51.4498  -15.7926   -8.2681 H   0  0  0  0  0  0  0  0  0  0  0  0
   44.7530  -15.0990  -12.7816 H   0  0  0  0  0  0  0  0  0  0  0  0
   48.5096  -13.6614   -5.9864 H   0  0  0  0  0  0  0  0  0  0  0  0
   46.5700  -15.8062  -14.3185 H   0  0  0  0  0  0  0  0  0  0  0  0
   50.8795  -14.1346   -6.5324 H   0  0  0  0  0  0  0  0  0  0  0  0
  2  1  1  0
  3  1  1  0
  4  1  2  3
  5  9  1  0
  6  8  1  0
  7 13  1  0
  8  3  2  0
  9  2  2  0
 10  4  1  0
 11  4  1  0
 12 10  1  0
 13 11  1  0
 14  2  1  0
 15  3  1  0
 16  7  1  0
 17  8  1  0
 18  9  1  0
 19 15  2  0
 20 14  2  0
 21 19  1  0
 22 20  1  0
  7 12  1  0
  6  5  2  0
 21 17  2  0
 22 18  2  0
  5 23  1  0
  6 24  1  0
 10 25  1  0
 10 26  1  0
 11 27  1  0
 11 28  1  0
 12 29  1  0
 12 30  1  0
 13 31  1  0
 13 32  1  0
 14 33  1  0
 15 34  1  0
 16 35  1  0
 16 36  1  0
 16 37  1  0
 17 38  1  0
 18 39  1  0
 19 40  1  0
 20 41  1  0
 21 42  1  0
 22 43  1  0
M  END
> <Uni-Dock RESULT> 
ENERGY=   -4.062  LOWER_BOUND=    3.303  UPPER_BOUND=    5.693
INTER + INTRA:          -4.062
INTER:                  -4.062
INTRA:                   0.000
UNBOUND:                 0.000

$$$$

     RDKit          3D

 43 46  0  0  0  0  0  0  0  0999 V2000
   44.9019  -14.2019  -12.6376 C   0  0  0  0  0  0  0  0  0  0  0  0
   43.6564  -13.4623  -12.3655 C   0  0  0  0  0  0  0  0  0  0  0  0
   45.0742  -15.4298  -11.8426 C   0  0  0  0  0  0  0  0  0  0  0  0
   45.7750  -13.8204  -13.6045 C   0  0  0  0  0  0  0  0  0  0  0  0
   42.2588  -15.4164  -13.2045 C   0  0  0  0  0  0  0  0  0  0  0  0
   43.0324  -16.4786  -12.9285 C   0  0  0  0  0  0  0  0  0  0  0  0
   47.8932  -12.5617  -15.0639 N   0  0  0  0  0  0  0  0  0  0  0  0
   44.1664  -16.5040  -11.9739 C   0  0  0  0  0  0  0  0  0  0  0  0
   42.3998  -14.0598  -12.6173 C   0  0  0  0  0  0  0  0  0  0  0  0
   46.9436  -14.6877  -14.0230 C   0  0  0  0  0  0  0  0  0  0  0  0
   45.5088  -12.5919  -14.4542 C   0  0  0  0  0  0  0  0  0  0  0  0
   48.1857  -13.8331  -14.3475 C   0  0  0  0  0  0  0  0  0  0  0  0
   46.5184  -12.4799  -15.6007 C   0  0  0  0  0  0  0  0  0  0  0  0
   43.7183  -12.1719  -11.8120 C   0  0  0  0  0  0  0  0  0  0  0  0
   46.1122  -15.5054  -10.8995 C   0  0  0  0  0  0  0  0  0  0  0  0
   48.8858  -12.3011  -16.1285 C   0  0  0  0  0  0  0  0  0  0  0  0
   44.3679  -17.6701  -11.2121 C   0  0  0  0  0  0  0  0  0  0  0  0
   41.2307  -13.3162  -12.3759 C   0  0  0  0  0  0  0  0  0  0  0  0
   46.2886  -16.6597  -10.1352 C   0  0  0  0  0  0  0  0  0  0  0  0
   42.5471  -11.4537  -11.5597 C   0  0  0  0  0  0  0  0  0  0  0  0
   45.4197  -17.7447  -10.2951 C   0  0  0  0  0  0  0  0  0  0  0  0
   41.3050  -12.0225  -11.8474 C   0  0  0  0  0  0  0  0  0  0  0  0
   41.3989  -15.5869  -13.8402 H   0  0  0  0  0  0  0  0  0  0  0  0
   42.7359  -17.4252  -13.3616 H   0  0  0  0  0  0  0  0  0  0  0  0
   46.6435  -15.2538  -14.9353 H   0  0  0  0  0  0  0  0  0  0  0  0
   47.2327  -15.4389  -13.2617 H   0  0  0  0  0  0  0  0  0  0  0  0
   44.4816  -12.6309  -14.8822 H   0  0  0  0  0  0  0  0  0  0  0  0
   45.5997  -11.6843  -13.8177 H   0  0  0  0  0  0  0  0  0  0  0  0
   48.6811  -13.5677  -13.3886 H   0  0  0  0  0  0  0  0  0  0  0  0
   48.9012  -14.4766  -14.9112 H   0  0  0  0  0  0  0  0  0  0  0  0
   46.3603  -11.4996  -16.1026 H   0  0  0  0  0  0  0  0  0  0  0  0
   46.3382  -13.2849  -16.3539 H   0  0  0  0  0  0  0  0  0  0  0  0
   44.6739  -11.7242  -11.5729 H   0  0  0  0  0  0  0  0  0  0  0  0
   46.7910  -14.6705  -10.7656 H   0  0  0  0  0  0  0  0  0  0  0  0
   48.7255  -11.2904  -16.5653 H   0  0  0  0  0  0  0  0  0  0  0  0
   48.8133  -13.0637  -16.9373 H   0  0  0  0  0  0  0  0  0  0  0  0
   49.9155  -12.3173  -15.7040 H   0  0  0  0  0  0  0  0  0  0  0  0
   43.6986  -18.5188  -11.3137 H   0  0  0  0  0  0  0  0  0  0  0  0
   40.2555  -13.7427  -12.5855 H   0  0  0  0  0  0  0  0  0  0  0  0
   47.0992  -16.7145   -9.4183 H   0  0  0  0  0  0  0  0  0  0  0  0
   42.6026  -10.4565  -11.1418 H   0  0  0  0  0  0  0  0  0  0  0  0
   45.5587  -18.6405   -9.7031 H   0  0  0  0  0  0  0  0  0  0  0  0
   40.3973  -11.4616  -11.6562 H   0  0  0  0  0  0  0  0  0  0  0  0
  2  1  1  0
  3  1  1  0
  4  1  2  3
  5  9  1  0
  6  8  1  0
  7 13  1  0
  8  3  2  0
  9  2  2  0
 10  4  1  0
 11  4  1  0
 12 10  1  0
 13 11  1  0
 14  2  1  0
 15  3  1  0
 16  7  1  0
 17  8  1  0
 18  9  1  0
 19 15  2  0
 20 14  2  0
 21 19  1  0
 22 20  1  0
  7 12  1  0
  6  5  2  0
 21 17  2  0
 22 18  2  0
  5 23  1  0
  6 24  1  0
 10 25  1  0
 10 26  1  0
 11 27  1  0
 11 28  1  0
 12 29  1  0
 12 30  1  0
 13 31  1  0
 13 32  1  0
 14 33  1  0
 15 34  1  0
 16 35  1  0
 16 36  1  0
 16 37  1  0
 17 38  1  0
 18 39  1  0
 19 40  1  0
 20 41  1  0
 21 42  1  0
 22 43  1  0
M  END
> <Uni-Dock RESULT> 
ENERGY=   -4.025  LOWER_BOUND=    6.972  UPPER_BOUND=    8.947
INTER + INTRA:          -4.025
INTER:                  -4.025
INTRA:                   0.000
UNBOUND:                 0.000

$$$$

     RDKit          3D

 43 46  0  0  0  0  0  0  0  0999 V2000
   50.0263  -18.1921   -7.3620 C   0  0  0  0  0  0  0  0  0  0  0  0
   48.6389  -18.3688   -6.8970 C   0  0  0  0  0  0  0  0  0  0  0  0
   50.1553  -17.7826   -8.7710 C   0  0  0  0  0  0  0  0  0  0  0  0
   51.0912  -18.3173   -6.5296 C   0  0  0  0  0  0  0  0  0  0  0  0
   48.1469  -15.9022   -7.2837 C   0  0  0  0  0  0  0  0  0  0  0  0
   48.9753  -15.5857   -8.2920 C   0  0  0  0  0  0  0  0  0  0  0  0
   53.2620  -19.3403   -4.9669 N   0  0  0  0  0  0  0  0  0  0  0  0
   49.6340  -16.5453   -9.2101 C   0  0  0  0  0  0  0  0  0  0  0  0
   47.7432  -17.2746   -6.8859 C   0  0  0  0  0  0  0  0  0  0  0  0
   52.4943  -17.9365   -6.9531 C   0  0  0  0  0  0  0  0  0  0  0  0
   50.8988  -18.6593   -5.0640 C   0  0  0  0  0  0  0  0  0  0  0  0
   53.5385  -18.9063   -6.3635 C   0  0  0  0  0  0  0  0  0  0  0  0
   52.2155  -18.5461   -4.2895 C   0  0  0  0  0  0  0  0  0  0  0  0
   48.1920  -19.6418   -6.5032 C   0  0  0  0  0  0  0  0  0  0  0  0
   50.7436  -18.6595   -9.6969 C   0  0  0  0  0  0  0  0  0  0  0  0
   54.4987  -19.3734   -4.1569 C   0  0  0  0  0  0  0  0  0  0  0  0
   49.7879  -16.1757  -10.5593 C   0  0  0  0  0  0  0  0  0  0  0  0
   46.4350  -17.4694   -6.4074 C   0  0  0  0  0  0  0  0  0  0  0  0
   50.8714  -18.2895  -11.0366 C   0  0  0  0  0  0  0  0  0  0  0  0
   46.8836  -19.8227   -6.0488 C   0  0  0  0  0  0  0  0  0  0  0  0
   50.3983  -17.0450  -11.4672 C   0  0  0  0  0  0  0  0  0  0  0  0
   46.0081  -18.7366   -5.9947 C   0  0  0  0  0  0  0  0  0  0  0  0
   47.6566  -15.0816   -6.7748 H   0  0  0  0  0  0  0  0  0  0  0  0
   49.0882  -14.5337   -8.5202 H   0  0  0  0  0  0  0  0  0  0  0  0
   52.7007  -16.9076   -6.5771 H   0  0  0  0  0  0  0  0  0  0  0  0
   52.6332  -17.9087   -8.0520 H   0  0  0  0  0  0  0  0  0  0  0  0
   50.1498  -17.9777   -4.6013 H   0  0  0  0  0  0  0  0  0  0  0  0
   50.5327  -19.7063   -4.9812 H   0  0  0  0  0  0  0  0  0  0  0  0
   53.5574  -19.8190   -6.9974 H   0  0  0  0  0  0  0  0  0  0  0  0
   54.5401  -18.4259   -6.4624 H   0  0  0  0  0  0  0  0  0  0  0  0
   52.0435  -18.9355   -3.2616 H   0  0  0  0  0  0  0  0  0  0  0  0
   52.5227  -17.4754   -4.2047 H   0  0  0  0  0  0  0  0  0  0  0  0
   48.8565  -20.4943   -6.5518 H   0  0  0  0  0  0  0  0  0  0  0  0
   51.1126  -19.6271   -9.3754 H   0  0  0  0  0  0  0  0  0  0  0  0
   54.2931  -19.8191   -3.1584 H   0  0  0  0  0  0  0  0  0  0  0  0
   54.9141  -18.3487   -4.0204 H   0  0  0  0  0  0  0  0  0  0  0  0
   55.2638  -20.0135   -4.6525 H   0  0  0  0  0  0  0  0  0  0  0  0
   49.4182  -15.2191  -10.9155 H   0  0  0  0  0  0  0  0  0  0  0  0
   45.7369  -16.6402   -6.3644 H   0  0  0  0  0  0  0  0  0  0  0  0
   51.3373  -18.9669  -11.7422 H   0  0  0  0  0  0  0  0  0  0  0  0
   46.5489  -20.8044   -5.7383 H   0  0  0  0  0  0  0  0  0  0  0  0
   50.4997  -16.7581  -12.5063 H   0  0  0  0  0  0  0  0  0  0  0  0
   44.9947  -18.8776   -5.6365 H   0  0  0  0  0  0  0  0  0  0  0  0
  2  1  1  0
  3  1  1  0
  4  1  2  3
  5  9  1  0
  6  8  1  0
  7 13  1  0
  8  3  2  0
  9  2  2  0
 10  4  1  0
 11  4  1  0
 12 10  1  0
 13 11  1  0
 14  2  1  0
 15  3  1  0
 16  7  1  0
 17  8  1  0
 18  9  1  0
 19 15  2  0
 20 14  2  0
 21 19  1  0
 22 20  1  0
  7 12  1  0
  6  5  2  0
 21 17  2  0
 22 18  2  0
  5 23  1  0
  6 24  1  0
 10 25  1  0
 10 26  1  0
 11 27  1  0
 11 28  1  0
 12 29  1  0
 12 30  1  0
 13 31  1  0
 13 32  1  0
 14 33  1  0
 15 34  1  0
 16 35  1  0
 16 36  1  0
 16 37  1  0
 17 38  1  0
 18 39  1  0
 19 40  1  0
 20 41  1  0
 21 42  1  0
 22 43  1  0
M  END
> <Uni-Dock RESULT> 
ENERGY=   -4.008  LOWER_BOUND=    2.171  UPPER_BOUND=    5.013
INTER + INTRA:          -4.008
INTER:                  -4.008
INTRA:                   0.000
UNBOUND:                 0.000

$$$$
