
     RDKit          3D

 43 46  0  0  0  0  0  0  0  0999 V2000
   50.1907  -17.3949   -7.5546 C   0  0  0  0  0  0  0  0  0  0  0  0
   51.1068  -16.7085   -6.6272 C   0  0  0  0  0  0  0  0  0  0  0  0
   48.7707  -17.3414   -7.1662 C   0  0  0  0  0  0  0  0  0  0  0  0
   50.6014  -17.8868   -8.7566 C   0  0  0  0  0  0  0  0  0  0  0  0
   50.0162  -14.4700   -7.1412 C   0  0  0  0  0  0  0  0  0  0  0  0
   48.7501  -14.8131   -7.4333 C   0  0  0  0  0  0  0  0  0  0  0  0
   51.3324  -18.2646  -11.4813 N   0  0  0  0  0  0  0  0  0  0  0  0
   48.0960  -16.1030   -7.0976 C   0  0  0  0  0  0  0  0  0  0  0  0
   51.0060  -15.3145   -6.4261 C   0  0  0  0  0  0  0  0  0  0  0  0
   49.5685  -18.3885   -9.7564 C   0  0  0  0  0  0  0  0  0  0  0  0
   52.0528  -17.7154   -9.1831 C   0  0  0  0  0  0  0  0  0  0  0  0
   50.1625  -19.0246  -11.0153 C   0  0  0  0  0  0  0  0  0  0  0  0
   52.4139  -18.4147  -10.4958 C   0  0  0  0  0  0  0  0  0  0  0  0
   52.0549  -17.4523   -5.9060 C   0  0  0  0  0  0  0  0  0  0  0  0
   48.0980  -18.5243   -6.8190 C   0  0  0  0  0  0  0  0  0  0  0  0
   51.7731  -18.7786  -12.7877 C   0  0  0  0  0  0  0  0  0  0  0  0
   46.7318  -16.0881   -6.7612 C   0  0  0  0  0  0  0  0  0  0  0  0
   51.9186  -14.6829   -5.5643 C   0  0  0  0  0  0  0  0  0  0  0  0
   46.7489  -18.4888   -6.4629 C   0  0  0  0  0  0  0  0  0  0  0  0
   52.9378  -16.8123   -5.0349 C   0  0  0  0  0  0  0  0  0  0  0  0
   46.0645  -17.2734   -6.4425 C   0  0  0  0  0  0  0  0  0  0  0  0
   52.8754  -15.4282   -4.8709 C   0  0  0  0  0  0  0  0  0  0  0  0
   50.3092  -13.4496   -7.3597 H   0  0  0  0  0  0  0  0  0  0  0  0
   48.1216  -14.0422   -7.8645 H   0  0  0  0  0  0  0  0  0  0  0  0
   48.9296  -17.5295  -10.0578 H   0  0  0  0  0  0  0  0  0  0  0  0
   48.9163  -19.1513   -9.2835 H   0  0  0  0  0  0  0  0  0  0  0  0
   52.2584  -16.6277   -9.2896 H   0  0  0  0  0  0  0  0  0  0  0  0
   52.7315  -18.1177   -8.4031 H   0  0  0  0  0  0  0  0  0  0  0  0
   50.4312  -20.0868  -10.8068 H   0  0  0  0  0  0  0  0  0  0  0  0
   49.3715  -19.0321  -11.7986 H   0  0  0  0  0  0  0  0  0  0  0  0
   52.6311  -19.4907  -10.2992 H   0  0  0  0  0  0  0  0  0  0  0  0
   53.3516  -17.9539  -10.8803 H   0  0  0  0  0  0  0  0  0  0  0  0
   52.1125  -18.5276   -6.0245 H   0  0  0  0  0  0  0  0  0  0  0  0
   48.6189  -19.4740   -6.8306 H   0  0  0  0  0  0  0  0  0  0  0  0
   52.6482  -18.1982  -13.1516 H   0  0  0  0  0  0  0  0  0  0  0  0
   50.9648  -18.6542  -13.5401 H   0  0  0  0  0  0  0  0  0  0  0  0
   52.0510  -19.8552  -12.7281 H   0  0  0  0  0  0  0  0  0  0  0  0
   46.1851  -15.1532   -6.7303 H   0  0  0  0  0  0  0  0  0  0  0  0
   51.8801  -13.6103   -5.4162 H   0  0  0  0  0  0  0  0  0  0  0  0
   46.2329  -19.4049   -6.2059 H   0  0  0  0  0  0  0  0  0  0  0  0
   53.6730  -17.3893   -4.4891 H   0  0  0  0  0  0  0  0  0  0  0  0
   45.0165  -17.2482   -6.1734 H   0  0  0  0  0  0  0  0  0  0  0  0
   53.5655  -14.9321   -4.2007 H   0  0  0  0  0  0  0  0  0  0  0  0
  2  1  1  0
  3  1  1  0
  4  1  2  3
  5  9  1  0
  6  8  1  0
  7 13  1  0
  8  3  2  0
  9  2  2  0
 10  4  1  0
 11  4  1  0
 12 10  1  0
 13 11  1  0
 14  2  1  0
 15  3  1  0
 16  7  1  0
 17  8  1  0
 18  9  1  0
 19 15  2  0
 20 14  2  0
 21 19  1  0
 22 20  1  0
  7 12  1  0
  6  5  2  0
 21 17  2  0
 22 18  2  0
  5 23  1  0
  6 24  1  0
 10 25  1  0
 10 26  1  0
 11 27  1  0
 11 28  1  0
 12 29  1  0
 12 30  1  0
 13 31  1  0
 13 32  1  0
 14 33  1  0
 15 34  1  0
 16 35  1  0
 16 36  1  0
 16 37  1  0
 17 38  1  0
 18 39  1  0
 19 40  1  0
 20 41  1  0
 21 42  1  0
 22 43  1  0
M  END
> <Uni-Dock RESULT> 
ENERGY=   -6.171  LOWER_BOUND=    0.000  UPPER_BOUND=    0.000
INTER + INTRA:          -6.171
INTER:                  -6.171
INTRA:                   0.000
UNBOUND:                 0.000

$$$$

     RDKit          3D

 43 46  0  0  0  0  0  0  0  0999 V2000
   50.5022  -17.3187   -7.4317 C   0  0  0  0  0  0  0  0  0  0  0  0
   49.0795  -16.9954   -7.2272 C   0  0  0  0  0  0  0  0  0  0  0  0
   51.2336  -17.6735   -6.2032 C   0  0  0  0  0  0  0  0  0  0  0  0
   51.0511  -17.4470   -8.6717 C   0  0  0  0  0  0  0  0  0  0  0  0
   48.6116  -19.3666   -6.4379 C   0  0  0  0  0  0  0  0  0  0  0  0
   49.7790  -19.7341   -5.8830 C   0  0  0  0  0  0  0  0  0  0  0  0
   51.9653  -18.3682  -11.2048 N   0  0  0  0  0  0  0  0  0  0  0  0
   50.8716  -18.8204   -5.4635 C   0  0  0  0  0  0  0  0  0  0  0  0
   48.1882  -17.9757   -6.7390 C   0  0  0  0  0  0  0  0  0  0  0  0
   52.4655  -17.9920   -8.8153 C   0  0  0  0  0  0  0  0  0  0  0  0
   50.1747  -17.2709   -9.9042 C   0  0  0  0  0  0  0  0  0  0  0  0
   53.0088  -17.9746  -10.2460 C   0  0  0  0  0  0  0  0  0  0  0  0
   50.9328  -17.3210  -11.2328 C   0  0  0  0  0  0  0  0  0  0  0  0
   48.6179  -15.6927   -7.4763 C   0  0  0  0  0  0  0  0  0  0  0  0
   52.2665  -16.8413   -5.7420 C   0  0  0  0  0  0  0  0  0  0  0  0
   52.5527  -18.5253  -12.5448 C   0  0  0  0  0  0  0  0  0  0  0  0
   51.6127  -19.1536   -4.3171 C   0  0  0  0  0  0  0  0  0  0  0  0
   46.8299  -17.6480   -6.5905 C   0  0  0  0  0  0  0  0  0  0  0  0
   52.9765  -17.1738   -4.5872 C   0  0  0  0  0  0  0  0  0  0  0  0
   47.2698  -15.3772   -7.2999 C   0  0  0  0  0  0  0  0  0  0  0  0
   52.6557  -18.3331   -3.8806 C   0  0  0  0  0  0  0  0  0  0  0  0
   46.3753  -16.3560   -6.8659 C   0  0  0  0  0  0  0  0  0  0  0  0
   47.8742  -20.1468   -6.5876 H   0  0  0  0  0  0  0  0  0  0  0  0
   49.8914  -20.7819   -5.6288 H   0  0  0  0  0  0  0  0  0  0  0  0
   52.4745  -19.0398   -8.4427 H   0  0  0  0  0  0  0  0  0  0  0  0
   53.1689  -17.4012   -8.1932 H   0  0  0  0  0  0  0  0  0  0  0  0
   49.4050  -18.0735   -9.9017 H   0  0  0  0  0  0  0  0  0  0  0  0
   49.6509  -16.2937   -9.8654 H   0  0  0  0  0  0  0  0  0  0  0  0
   53.4088  -16.9606  -10.4821 H   0  0  0  0  0  0  0  0  0  0  0  0
   53.8638  -18.6858  -10.2941 H   0  0  0  0  0  0  0  0  0  0  0  0
   51.3802  -16.3221  -11.4464 H   0  0  0  0  0  0  0  0  0  0  0  0
   50.1939  -17.5305  -12.0387 H   0  0  0  0  0  0  0  0  0  0  0  0
   49.3030  -14.9240   -7.8131 H   0  0  0  0  0  0  0  0  0  0  0  0
   52.5245  -15.9382   -6.2818 H   0  0  0  0  0  0  0  0  0  0  0  0
   51.7712  -18.8372  -13.2708 H   0  0  0  0  0  0  0  0  0  0  0  0
   53.3235  -19.3259  -12.5330 H   0  0  0  0  0  0  0  0  0  0  0  0
   53.0188  -17.5778  -12.8978 H   0  0  0  0  0  0  0  0  0  0  0  0
   51.3728  -20.0446   -3.7493 H   0  0  0  0  0  0  0  0  0  0  0  0
   46.1214  -18.3914   -6.2454 H   0  0  0  0  0  0  0  0  0  0  0  0
   53.7782  -16.5338   -4.2418 H   0  0  0  0  0  0  0  0  0  0  0  0
   46.9177  -14.3741   -7.5029 H   0  0  0  0  0  0  0  0  0  0  0  0
   53.2118  -18.5937   -2.9894 H   0  0  0  0  0  0  0  0  0  0  0  0
   45.3288  -16.1121   -6.7365 H   0  0  0  0  0  0  0  0  0  0  0  0
  2  1  1  0
  3  1  1  0
  4  1  2  3
  5  9  1  0
  6  8  1  0
  7 13  1  0
  8  3  2  0
  9  2  2  0
 10  4  1  0
 11  4  1  0
 12 10  1  0
 13 11  1  0
 14  2  1  0
 15  3  1  0
 16  7  1  0
 17  8  1  0
 18  9  1  0
 19 15  2  0
 20 14  2  0
 21 19  1  0
 22 20  1  0
  7 12  1  0
  6  5  2  0
 21 17  2  0
 22 18  2  0
  5 23  1  0
  6 24  1  0
 10 25  1  0
 10 26  1  0
 11 27  1  0
 11 28  1  0
 12 29  1  0
 12 30  1  0
 13 31  1  0
 13 32  1  0
 14 33  1  0
 15 34  1  0
 16 35  1  0
 16 36  1  0
 16 37  1  0
 17 38  1  0
 18 39  1  0
 19 40  1  0
 20 41  1  0
 21 42  1  0
 22 43  1  0
M  END
> <Uni-Dock RESULT> 
ENERGY=   -5.356  LOWER_BOUND=    1.201  UPPER_BOUND=    4.385
INTER + INTRA:          -5.356
INTER:                  -5.356
INTRA:                   0.000
UNBOUND:                 0.000

$$$$

     RDKit          3D

 43 46  0  0  0  0  0  0  0  0999 V2000
   48.1131  -17.1440   -8.0461 C   0  0  0  0  0  0  0  0  0  0  0  0
   47.5455  -18.1097   -7.0892 C   0  0  0  0  0  0  0  0  0  0  0  0
   49.0921  -16.2085   -7.4660 C   0  0  0  0  0  0  0  0  0  0  0  0
   47.8823  -17.2220   -9.3863 C   0  0  0  0  0  0  0  0  0  0  0  0
   49.8333  -19.1584   -6.7273 C   0  0  0  0  0  0  0  0  0  0  0  0
   50.6715  -18.1280   -6.9315 C   0  0  0  0  0  0  0  0  0  0  0  0
   47.9415  -17.8215  -12.1680 N   0  0  0  0  0  0  0  0  0  0  0  0
   50.3039  -16.6895   -6.9238 C   0  0  0  0  0  0  0  0  0  0  0  0
   48.3774  -19.0578   -6.4543 C   0  0  0  0  0  0  0  0  0  0  0  0
   48.6678  -16.3300  -10.3378 C   0  0  0  0  0  0  0  0  0  0  0  0
   47.0231  -18.3518   -9.9370 C   0  0  0  0  0  0  0  0  0  0  0  0
   48.2322  -16.4270  -11.8017 C   0  0  0  0  0  0  0  0  0  0  0  0
   46.7417  -18.2592  -11.4386 C   0  0  0  0  0  0  0  0  0  0  0  0
   46.1782  -18.0567   -6.7735 C   0  0  0  0  0  0  0  0  0  0  0  0
   48.7978  -14.8364   -7.4118 C   0  0  0  0  0  0  0  0  0  0  0  0
   47.7070  -17.9180  -13.6174 C   0  0  0  0  0  0  0  0  0  0  0  0
   51.2342  -15.7690   -6.4124 C   0  0  0  0  0  0  0  0  0  0  0  0
   47.8004  -19.9901   -5.5756 C   0  0  0  0  0  0  0  0  0  0  0  0
   49.7229  -13.9381   -6.8776 C   0  0  0  0  0  0  0  0  0  0  0  0
   45.6255  -18.9747   -5.8792 C   0  0  0  0  0  0  0  0  0  0  0  0
   50.9431  -14.4028   -6.3865 C   0  0  0  0  0  0  0  0  0  0  0  0
   46.4340  -19.9458   -5.2878 C   0  0  0  0  0  0  0  0  0  0  0  0
   50.2783  -20.1443   -6.6577 H   0  0  0  0  0  0  0  0  0  0  0  0
   51.7266  -18.3640   -7.0106 H   0  0  0  0  0  0  0  0  0  0  0  0
   49.7428  -16.6057  -10.2661 H   0  0  0  0  0  0  0  0  0  0  0  0
   48.5662  -15.2666  -10.0381 H   0  0  0  0  0  0  0  0  0  0  0  0
   47.5390  -19.3148   -9.7291 H   0  0  0  0  0  0  0  0  0  0  0  0
   46.0403  -18.3715   -9.4227 H   0  0  0  0  0  0  0  0  0  0  0  0
   47.3442  -15.7740  -11.9720 H   0  0  0  0  0  0  0  0  0  0  0  0
   49.0600  -16.0285  -12.4304 H   0  0  0  0  0  0  0  0  0  0  0  0
   45.8878  -17.5644  -11.6172 H   0  0  0  0  0  0  0  0  0  0  0  0
   46.4250  -19.2675  -11.7884 H   0  0  0  0  0  0  0  0  0  0  0  0
   45.5404  -17.3068   -7.2259 H   0  0  0  0  0  0  0  0  0  0  0  0
   47.8534  -14.4636   -7.7895 H   0  0  0  0  0  0  0  0  0  0  0  0
   47.5013  -18.9724  -13.9021 H   0  0  0  0  0  0  0  0  0  0  0  0
   48.6158  -17.6025  -14.1738 H   0  0  0  0  0  0  0  0  0  0  0  0
   46.8490  -17.2827  -13.9335 H   0  0  0  0  0  0  0  0  0  0  0  0
   52.1834  -16.1111   -6.0176 H   0  0  0  0  0  0  0  0  0  0  0  0
   48.4131  -20.7458   -5.0988 H   0  0  0  0  0  0  0  0  0  0  0  0
   49.4948  -12.8804   -6.8474 H   0  0  0  0  0  0  0  0  0  0  0  0
   44.5691  -18.9354   -5.6472 H   0  0  0  0  0  0  0  0  0  0  0  0
   51.6627  -13.7044   -5.9792 H   0  0  0  0  0  0  0  0  0  0  0  0
   46.0028  -20.6618   -4.6001 H   0  0  0  0  0  0  0  0  0  0  0  0
  2  1  1  0
  3  1  1  0
  4  1  2  3
  5  9  1  0
  6  8  1  0
  7 13  1  0
  8  3  2  0
  9  2  2  0
 10  4  1  0
 11  4  1  0
 12 10  1  0
 13 11  1  0
 14  2  1  0
 15  3  1  0
 16  7  1  0
 17  8  1  0
 18  9  1  0
 19 15  2  0
 20 14  2  0
 21 19  1  0
 22 20  1  0
  7 12  1  0
  6  5  2  0
 21 17  2  0
 22 18  2  0
  5 23  1  0
  6 24  1  0
 10 25  1  0
 10 26  1  0
 11 27  1  0
 11 28  1  0
 12 29  1  0
 12 30  1  0
 13 31  1  0
 13 32  1  0
 14 33  1  0
 15 34  1  0
 16 35  1  0
 16 36  1  0
 16 37  1  0
 17 38  1  0
 18 39  1  0
 19 40  1  0
 20 41  1  0
 21 42  1  0
 22 43  1  0
M  END
> <Uni-Dock RESULT> 
ENERGY=   -5.198  LOWER_BOUND=    2.108  UPPER_BOUND=    4.752
INTER + INTRA:          -5.198
INTER:                  -5.198
INTRA:                   0.000
UNBOUND:                 0.000

$$$$

     RDKit          3D

 43 46  0  0  0  0  0  0  0  0999 V2000
   47.0070  -15.9584  -10.6604 C   0  0  0  0  0  0  0  0  0  0  0  0
   45.7865  -15.6010  -11.4041 C   0  0  0  0  0  0  0  0  0  0  0  0
   46.7895  -16.2673   -9.2365 C   0  0  0  0  0  0  0  0  0  0  0  0
   48.2062  -16.1549  -11.2758 C   0  0  0  0  0  0  0  0  0  0  0  0
   44.8247  -17.9236  -11.0233 C   0  0  0  0  0  0  0  0  0  0  0  0
   45.3683  -18.2847   -9.8486 C   0  0  0  0  0  0  0  0  0  0  0  0
   50.4662  -17.2110  -12.6462 N   0  0  0  0  0  0  0  0  0  0  0  0
   45.9942  -17.3714   -8.8594 C   0  0  0  0  0  0  0  0  0  0  0  0
   44.7447  -16.5414  -11.5595 C   0  0  0  0  0  0  0  0  0  0  0  0
   49.3723  -16.7308  -10.4841 C   0  0  0  0  0  0  0  0  0  0  0  0
   48.3056  -16.0221  -12.7892 C   0  0  0  0  0  0  0  0  0  0  0  0
   50.6930  -16.7906  -11.2551 C   0  0  0  0  0  0  0  0  0  0  0  0
   49.7264  -16.1485  -13.3440 C   0  0  0  0  0  0  0  0  0  0  0  0
   45.6404  -14.3037  -11.9217 C   0  0  0  0  0  0  0  0  0  0  0  0
   47.3394  -15.4323   -8.2502 C   0  0  0  0  0  0  0  0  0  0  0  0
   51.7567  -17.4417  -13.3143 C   0  0  0  0  0  0  0  0  0  0  0  0
   45.8368  -17.6628   -7.4938 C   0  0  0  0  0  0  0  0  0  0  0  0
   43.6097  -16.1833  -12.3065 C   0  0  0  0  0  0  0  0  0  0  0  0
   47.1525  -15.7221   -6.8977 C   0  0  0  0  0  0  0  0  0  0  0  0
   44.4952  -13.9567  -12.6401 C   0  0  0  0  0  0  0  0  0  0  0  0
   46.4095  -16.8408   -6.5202 C   0  0  0  0  0  0  0  0  0  0  0  0
   43.4851  -14.8981  -12.8398 C   0  0  0  0  0  0  0  0  0  0  0  0
   44.3115  -18.6971  -11.5830 H   0  0  0  0  0  0  0  0  0  0  0  0
   45.2507  -19.3211   -9.5532 H   0  0  0  0  0  0  0  0  0  0  0  0
   49.1001  -17.7597  -10.1617 H   0  0  0  0  0  0  0  0  0  0  0  0
   49.5545  -16.1234   -9.5737 H   0  0  0  0  0  0  0  0  0  0  0  0
   47.6708  -16.8102  -13.2504 H   0  0  0  0  0  0  0  0  0  0  0  0
   47.9164  -15.0352  -13.1137 H   0  0  0  0  0  0  0  0  0  0  0  0
   51.1961  -15.7961  -11.2135 H   0  0  0  0  0  0  0  0  0  0  0  0
   51.3572  -17.5182  -10.7366 H   0  0  0  0  0  0  0  0  0  0  0  0
   50.2516  -15.1687  -13.2547 H   0  0  0  0  0  0  0  0  0  0  0  0
   49.6484  -16.3829  -14.4295 H   0  0  0  0  0  0  0  0  0  0  0  0
   46.4177  -13.5639  -11.7727 H   0  0  0  0  0  0  0  0  0  0  0  0
   47.9177  -14.5605   -8.5310 H   0  0  0  0  0  0  0  0  0  0  0  0
   51.5911  -17.7739  -14.3618 H   0  0  0  0  0  0  0  0  0  0  0  0
   52.3139  -18.2541  -12.7999 H   0  0  0  0  0  0  0  0  0  0  0  0
   52.3817  -16.5203  -13.3202 H   0  0  0  0  0  0  0  0  0  0  0  0
   45.2554  -18.5215   -7.1802 H   0  0  0  0  0  0  0  0  0  0  0  0
   42.8101  -16.8971  -12.4644 H   0  0  0  0  0  0  0  0  0  0  0  0
   47.5869  -15.0805   -6.1419 H   0  0  0  0  0  0  0  0  0  0  0  0
   44.3924  -12.9584  -13.0453 H   0  0  0  0  0  0  0  0  0  0  0  0
   46.2715  -17.0685   -5.4711 H   0  0  0  0  0  0  0  0  0  0  0  0
   42.6008  -14.6300  -13.4034 H   0  0  0  0  0  0  0  0  0  0  0  0
  2  1  1  0
  3  1  1  0
  4  1  2  3
  5  9  1  0
  6  8  1  0
  7 13  1  0
  8  3  2  0
  9  2  2  0
 10  4  1  0
 11  4  1  0
 12 10  1  0
 13 11  1  0
 14  2  1  0
 15  3  1  0
 16  7  1  0
 17  8  1  0
 18  9  1  0
 19 15  2  0
 20 14  2  0
 21 19  1  0
 22 20  1  0
  7 12  1  0
  6  5  2  0
 21 17  2  0
 22 18  2  0
  5 23  1  0
  6 24  1  0
 10 25  1  0
 10 26  1  0
 11 27  1  0
 11 28  1  0
 12 29  1  0
 12 30  1  0
 13 31  1  0
 13 32  1  0
 14 33  1  0
 15 34  1  0
 16 35  1  0
 16 36  1  0
 16 37  1  0
 17 38  1  0
 18 39  1  0
 19 40  1  0
 20 41  1  0
 21 42  1  0
 22 43  1  0
M  END
> <Uni-Dock RESULT> 
ENERGY=   -5.189  LOWER_BOUND=    3.868  UPPER_BOUND=    6.179
INTER + INTRA:          -5.189
INTER:                  -5.189
INTRA:                   0.000
UNBOUND:                 0.000

$$$$

     RDKit          3D

 43 46  0  0  0  0  0  0  0  0999 V2000
   46.3241  -16.0374  -10.9694 C   0  0  0  0  0  0  0  0  0  0  0  0
   47.3377  -16.0291   -9.9003 C   0  0  0  0  0  0  0  0  0  0  0  0
   46.6079  -15.1257  -12.0912 C   0  0  0  0  0  0  0  0  0  0  0  0
   45.3019  -16.9371  -10.9997 C   0  0  0  0  0  0  0  0  0  0  0  0
   49.0933  -16.9345  -11.5012 C   0  0  0  0  0  0  0  0  0  0  0  0
   48.6977  -16.4449  -12.6886 C   0  0  0  0  0  0  0  0  0  0  0  0
   43.6383  -19.2142  -11.3846 N   0  0  0  0  0  0  0  0  0  0  0  0
   47.7509  -15.3204  -12.8970 C   0  0  0  0  0  0  0  0  0  0  0  0
   48.6601  -16.4457  -10.1679 C   0  0  0  0  0  0  0  0  0  0  0  0
   44.4196  -17.0315  -12.2370 C   0  0  0  0  0  0  0  0  0  0  0  0
   45.1957  -17.9921   -9.9071 C   0  0  0  0  0  0  0  0  0  0  0  0
   43.2370  -17.9933  -12.0998 C   0  0  0  0  0  0  0  0  0  0  0  0
   43.9404  -18.8639   -9.9884 C   0  0  0  0  0  0  0  0  0  0  0  0
   46.9974  -15.5615   -8.6206 C   0  0  0  0  0  0  0  0  0  0  0  0
   45.7612  -14.0314  -12.3315 C   0  0  0  0  0  0  0  0  0  0  0  0
   42.5455  -20.1988  -11.4264 C   0  0  0  0  0  0  0  0  0  0  0  0
   47.9740  -14.4569  -13.9829 C   0  0  0  0  0  0  0  0  0  0  0  0
   49.5945  -16.4626   -9.1185 C   0  0  0  0  0  0  0  0  0  0  0  0
   46.0112  -13.1685  -13.3997 C   0  0  0  0  0  0  0  0  0  0  0  0
   47.9446  -15.5616   -7.5955 C   0  0  0  0  0  0  0  0  0  0  0  0
   47.1113  -13.3862  -14.2295 C   0  0  0  0  0  0  0  0  0  0  0  0
   49.2391  -16.0198   -7.8420 C   0  0  0  0  0  0  0  0  0  0  0  0
   49.8729  -17.6874  -11.5179 H   0  0  0  0  0  0  0  0  0  0  0  0
   49.1895  -16.8415  -13.5695 H   0  0  0  0  0  0  0  0  0  0  0  0
   45.0511  -17.3616  -13.0908 H   0  0  0  0  0  0  0  0  0  0  0  0
   44.0007  -16.0347  -12.4860 H   0  0  0  0  0  0  0  0  0  0  0  0
   46.0911  -18.6488   -9.9689 H   0  0  0  0  0  0  0  0  0  0  0  0
   45.1926  -17.5100   -8.9080 H   0  0  0  0  0  0  0  0  0  0  0  0
   42.3960  -17.4802  -11.5771 H   0  0  0  0  0  0  0  0  0  0  0  0
   42.8832  -18.2462  -13.1245 H   0  0  0  0  0  0  0  0  0  0  0  0
   43.0833  -18.3309   -9.5140 H   0  0  0  0  0  0  0  0  0  0  0  0
   44.1266  -19.7853   -9.3920 H   0  0  0  0  0  0  0  0  0  0  0  0
   45.9956  -15.2027   -8.4172 H   0  0  0  0  0  0  0  0  0  0  0  0
   44.9042  -13.8518  -11.6937 H   0  0  0  0  0  0  0  0  0  0  0  0
   42.8488  -21.1293  -10.9000 H   0  0  0  0  0  0  0  0  0  0  0  0
   42.3228  -20.4785  -12.4787 H   0  0  0  0  0  0  0  0  0  0  0  0
   41.6202  -19.7992  -10.9535 H   0  0  0  0  0  0  0  0  0  0  0  0
   48.8281  -14.6035  -14.6331 H   0  0  0  0  0  0  0  0  0  0  0  0
   50.6073  -16.8057   -9.2922 H   0  0  0  0  0  0  0  0  0  0  0  0
   45.3496  -12.3324  -13.5861 H   0  0  0  0  0  0  0  0  0  0  0  0
   47.6740  -15.2094   -6.6086 H   0  0  0  0  0  0  0  0  0  0  0  0
   47.2999  -12.7206  -15.0619 H   0  0  0  0  0  0  0  0  0  0  0  0
   49.9707  -16.0264   -7.0444 H   0  0  0  0  0  0  0  0  0  0  0  0
  2  1  1  0
  3  1  1  0
  4  1  2  3
  5  9  1  0
  6  8  1  0
  7 13  1  0
  8  3  2  0
  9  2  2  0
 10  4  1  0
 11  4  1  0
 12 10  1  0
 13 11  1  0
 14  2  1  0
 15  3  1  0
 16  7  1  0
 17  8  1  0
 18  9  1  0
 19 15  2  0
 20 14  2  0
 21 19  1  0
 22 20  1  0
  7 12  1  0
  6  5  2  0
 21 17  2  0
 22 18  2  0
  5 23  1  0
  6 24  1  0
 10 25  1  0
 10 26  1  0
 11 27  1  0
 11 28  1  0
 12 29  1  0
 12 30  1  0
 13 31  1  0
 13 32  1  0
 14 33  1  0
 15 34  1  0
 16 35  1  0
 16 36  1  0
 16 37  1  0
 17 38  1  0
 18 39  1  0
 19 40  1  0
 20 41  1  0
 21 42  1  0
 22 43  1  0
M  END
> <Uni-Dock RESULT> 
ENERGY=   -4.387  LOWER_BOUND=    4.783  UPPER_BOUND=    6.627
INTER + INTRA:          -4.387
INTER:                  -4.387
INTRA:                   0.000
UNBOUND:                 0.000

$$$$

     RDKit          3D

 43 46  0  0  0  0  0  0  0  0999 V2000
   49.6689  -18.1655   -7.7394 C   0  0  0  0  0  0  0  0  0  0  0  0
   48.4045  -18.5218   -7.0725 C   0  0  0  0  0  0  0  0  0  0  0  0
   49.5207  -17.7102   -9.1326 C   0  0  0  0  0  0  0  0  0  0  0  0
   50.8536  -18.0976   -7.0707 C   0  0  0  0  0  0  0  0  0  0  0  0
   47.5841  -16.1222   -7.2551 C   0  0  0  0  0  0  0  0  0  0  0  0
   48.1890  -15.6824   -8.3716 C   0  0  0  0  0  0  0  0  0  0  0  0
   53.1157  -17.3084   -5.5342 N   0  0  0  0  0  0  0  0  0  0  0  0
   48.8004  -16.5314   -9.4250 C   0  0  0  0  0  0  0  0  0  0  0  0
   47.4100  -17.5424   -6.8588 C   0  0  0  0  0  0  0  0  0  0  0  0
   52.0773  -17.5166   -7.7658 C   0  0  0  0  0  0  0  0  0  0  0  0
   50.8903  -18.3798   -5.5750 C   0  0  0  0  0  0  0  0  0  0  0  0
   53.3703  -17.6063   -6.9518 C   0  0  0  0  0  0  0  0  0  0  0  0
   52.2946  -18.3885   -4.9665 C   0  0  0  0  0  0  0  0  0  0  0  0
   48.1698  -19.8521   -6.6884 C   0  0  0  0  0  0  0  0  0  0  0  0
   50.0603  -18.4773  -10.1778 C   0  0  0  0  0  0  0  0  0  0  0  0
   54.3915  -17.2168   -4.8068 C   0  0  0  0  0  0  0  0  0  0  0  0
   48.7090  -16.1024  -10.7599 C   0  0  0  0  0  0  0  0  0  0  0  0
   46.2308  -17.9046   -6.1860 C   0  0  0  0  0  0  0  0  0  0  0  0
   49.9389  -18.0495  -11.5009 C   0  0  0  0  0  0  0  0  0  0  0  0
   46.9820  -20.1999   -6.0432 C   0  0  0  0  0  0  0  0  0  0  0  0
   49.2717  -16.8592  -11.7907 C   0  0  0  0  0  0  0  0  0  0  0  0
   46.0175  -19.2256   -5.7845 C   0  0  0  0  0  0  0  0  0  0  0  0
   47.0932  -15.3776   -6.6391 H   0  0  0  0  0  0  0  0  0  0  0  0
   48.1384  -14.6175   -8.5682 H   0  0  0  0  0  0  0  0  0  0  0  0
   51.8730  -16.4476   -7.9948 H   0  0  0  0  0  0  0  0  0  0  0  0
   52.2597  -18.0437   -8.7249 H   0  0  0  0  0  0  0  0  0  0  0  0
   50.2825  -17.6043   -5.0593 H   0  0  0  0  0  0  0  0  0  0  0  0
   50.4368  -19.3692   -5.3605 H   0  0  0  0  0  0  0  0  0  0  0  0
   53.8201  -18.6195   -7.0744 H   0  0  0  0  0  0  0  0  0  0  0  0
   54.0913  -16.8718   -7.3761 H   0  0  0  0  0  0  0  0  0  0  0  0
   52.7691  -19.3838   -5.1344 H   0  0  0  0  0  0  0  0  0  0  0  0
   52.1897  -18.2547   -3.8663 H   0  0  0  0  0  0  0  0  0  0  0  0
   48.9109  -20.6176   -6.8845 H   0  0  0  0  0  0  0  0  0  0  0  0
   50.5801  -19.4036   -9.9653 H   0  0  0  0  0  0  0  0  0  0  0  0
   54.2059  -16.9772   -3.7377 H   0  0  0  0  0  0  0  0  0  0  0  0
   55.0102  -16.3922   -5.2221 H   0  0  0  0  0  0  0  0  0  0  0  0
   54.9652  -18.1688   -4.8712 H   0  0  0  0  0  0  0  0  0  0  0  0
   48.1867  -15.1858  -11.0064 H   0  0  0  0  0  0  0  0  0  0  0  0
   45.4656  -17.1645   -5.9844 H   0  0  0  0  0  0  0  0  0  0  0  0
   50.3654  -18.6398  -12.3016 H   0  0  0  0  0  0  0  0  0  0  0  0
   46.8106  -21.2248   -5.7406 H   0  0  0  0  0  0  0  0  0  0  0  0
   49.1847  -16.5248  -12.8164 H   0  0  0  0  0  0  0  0  0  0  0  0
   45.1000  -19.4951   -5.2775 H   0  0  0  0  0  0  0  0  0  0  0  0
  2  1  1  0
  3  1  1  0
  4  1  2  3
  5  9  1  0
  6  8  1  0
  7 13  1  0
  8  3  2  0
  9  2  2  0
 10  4  1  0
 11  4  1  0
 12 10  1  0
 13 11  1  0
 14  2  1  0
 15  3  1  0
 16  7  1  0
 17  8  1  0
 18  9  1  0
 19 15  2  0
 20 14  2  0
 21 19  1  0
 22 20  1  0
  7 12  1  0
  6  5  2  0
 21 17  2  0
 22 18  2  0
  5 23  1  0
  6 24  1  0
 10 25  1  0
 10 26  1  0
 11 27  1  0
 11 28  1  0
 12 29  1  0
 12 30  1  0
 13 31  1  0
 13 32  1  0
 14 33  1  0
 15 34  1  0
 16 35  1  0
 16 36  1  0
 16 37  1  0
 17 38  1  0
 18 39  1  0
 19 40  1  0
 20 41  1  0
 21 42  1  0
 22 43  1  0
M  END
> <Uni-Dock RESULT> 
ENERGY=   -4.107  LOWER_BOUND=    2.143  UPPER_BOUND=    4.938
INTER + INTRA:          -4.107
INTER:                  -4.107
INTRA:                   0.000
UNBOUND:                 0.000

$$$$

     RDKit          3D

 43 46  0  0  0  0  0  0  0  0999 V2000
   45.1173  -13.9162  -12.3911 C   0  0  0  0  0  0  0  0  0  0  0  0
   43.8214  -13.2468  -12.1840 C   0  0  0  0  0  0  0  0  0  0  0  0
   45.2607  -15.2052  -11.6924 C   0  0  0  0  0  0  0  0  0  0  0  0
   46.0367  -13.4659  -13.2896 C   0  0  0  0  0  0  0  0  0  0  0  0
   42.6046  -15.1523  -13.3474 C   0  0  0  0  0  0  0  0  0  0  0  0
   43.3847  -16.2136  -13.0810 C   0  0  0  0  0  0  0  0  0  0  0  0
   47.5859  -12.9102  -15.6117 N   0  0  0  0  0  0  0  0  0  0  0  0
   44.4195  -16.2912  -12.0191 C   0  0  0  0  0  0  0  0  0  0  0  0
   42.6265  -13.8518  -12.6315 C   0  0  0  0  0  0  0  0  0  0  0  0
   47.2556  -14.3200  -13.6104 C   0  0  0  0  0  0  0  0  0  0  0  0
   45.7249  -12.2374  -14.1331 C   0  0  0  0  0  0  0  0  0  0  0  0
   48.2700  -13.6516  -14.5413 C   0  0  0  0  0  0  0  0  0  0  0  0
   46.8829  -11.7643  -15.0151 C   0  0  0  0  0  0  0  0  0  0  0  0
   43.7709  -12.0226  -11.4979 C   0  0  0  0  0  0  0  0  0  0  0  0
   46.2090  -15.3396  -10.6653 C   0  0  0  0  0  0  0  0  0  0  0  0
   48.5702  -12.4338  -16.5963 C   0  0  0  0  0  0  0  0  0  0  0  0
   44.6060  -17.5191  -11.3620 C   0  0  0  0  0  0  0  0  0  0  0  0
   41.4102  -13.1710  -12.4533 C   0  0  0  0  0  0  0  0  0  0  0  0
   46.3643  -16.5596  -10.0053 C   0  0  0  0  0  0  0  0  0  0  0  0
   42.5512  -11.3715  -11.3074 C   0  0  0  0  0  0  0  0  0  0  0  0
   45.5699  -17.6504  -10.3592 C   0  0  0  0  0  0  0  0  0  0  0  0
   41.3734  -11.9408  -11.7923 C   0  0  0  0  0  0  0  0  0  0  0  0
   41.8229  -15.2927  -14.0851 H   0  0  0  0  0  0  0  0  0  0  0  0
   43.1708  -17.1266  -13.6248 H   0  0  0  0  0  0  0  0  0  0  0  0
   46.9051  -15.2637  -14.0829 H   0  0  0  0  0  0  0  0  0  0  0  0
   47.7951  -14.5837  -12.6775 H   0  0  0  0  0  0  0  0  0  0  0  0
   44.8540  -12.4732  -14.7833 H   0  0  0  0  0  0  0  0  0  0  0  0
   45.4444  -11.3854  -13.4802 H   0  0  0  0  0  0  0  0  0  0  0  0
   48.9350  -12.9797  -13.9496 H   0  0  0  0  0  0  0  0  0  0  0  0
   48.9114  -14.4509  -14.9761 H   0  0  0  0  0  0  0  0  0  0  0  0
   47.5795  -11.1355  -14.4126 H   0  0  0  0  0  0  0  0  0  0  0  0
   46.4591  -11.1145  -15.8135 H   0  0  0  0  0  0  0  0  0  0  0  0
   44.6787  -11.5709  -11.1162 H   0  0  0  0  0  0  0  0  0  0  0  0
   46.8312  -14.4997  -10.3812 H   0  0  0  0  0  0  0  0  0  0  0  0
   48.0571  -11.8853  -17.4154 H   0  0  0  0  0  0  0  0  0  0  0  0
   49.0943  -13.2964  -17.0612 H   0  0  0  0  0  0  0  0  0  0  0  0
   49.3233  -11.7622  -16.1257 H   0  0  0  0  0  0  0  0  0  0  0  0
   43.9925  -18.3752  -11.6158 H   0  0  0  0  0  0  0  0  0  0  0  0
   40.4836  -13.6012  -12.8141 H   0  0  0  0  0  0  0  0  0  0  0  0
   47.1036  -16.6603   -9.2211 H   0  0  0  0  0  0  0  0  0  0  0  0
   42.5194  -10.4233  -10.7866 H   0  0  0  0  0  0  0  0  0  0  0  0
   45.6964  -18.5979   -9.8517 H   0  0  0  0  0  0  0  0  0  0  0  0
   40.4290  -11.4313  -11.6505 H   0  0  0  0  0  0  0  0  0  0  0  0
  2  1  1  0
  3  1  1  0
  4  1  2  3
  5  9  1  0
  6  8  1  0
  7 13  1  0
  8  3  2  0
  9  2  2  0
 10  4  1  0
 11  4  1  0
 12 10  1  0
 13 11  1  0
 14  2  1  0
 15  3  1  0
 16  7  1  0
 17  8  1  0
 18  9  1  0
 19 15  2  0
 20 14  2  0
 21 19  1  0
 22 20  1  0
  7 12  1  0
  6  5  2  0
 21 17  2  0
 22 18  2  0
  5 23  1  0
  6 24  1  0
 10 25  1  0
 10 26  1  0
 11 27  1  0
 11 28  1  0
 12 29  1  0
 12 30  1  0
 13 31  1  0
 13 32  1  0
 14 33  1  0
 15 34  1  0
 16 35  1  0
 16 36  1  0
 16 37  1  0
 17 38  1  0
 18 39  1  0
 19 40  1  0
 20 41  1  0
 21 42  1  0
 22 43  1  0
M  END
> <Uni-Dock RESULT> 
ENERGY=   -4.106  LOWER_BOUND=    6.772  UPPER_BOUND=    8.801
INTER + INTRA:          -4.106
INTER:                  -4.106
INTRA:                   0.000
UNBOUND:                 0.000

$$$$

     RDKit          3D

 43 46  0  0  0  0  0  0  0  0999 V2000
   48.0235  -16.4426  -10.3543 C   0  0  0  0  0  0  0  0  0  0  0  0
   47.4524  -16.5841   -9.0036 C   0  0  0  0  0  0  0  0  0  0  0  0
   49.1895  -17.3027  -10.6206 C   0  0  0  0  0  0  0  0  0  0  0  0
   47.4197  -15.7076  -11.3293 C   0  0  0  0  0  0  0  0  0  0  0  0
   46.8208  -19.0007   -9.4790 C   0  0  0  0  0  0  0  0  0  0  0  0
   47.7623  -19.3901  -10.3554 C   0  0  0  0  0  0  0  0  0  0  0  0
   45.8098  -14.7637  -13.4782 N   0  0  0  0  0  0  0  0  0  0  0  0
   49.0575  -18.7084  -10.6049 C   0  0  0  0  0  0  0  0  0  0  0  0
   46.8936  -17.8134   -8.5906 C   0  0  0  0  0  0  0  0  0  0  0  0
   47.9437  -15.7777  -12.7571 C   0  0  0  0  0  0  0  0  0  0  0  0
   46.0965  -15.0136  -11.0374 C   0  0  0  0  0  0  0  0  0  0  0  0
   47.2577  -14.8172  -13.7313 C   0  0  0  0  0  0  0  0  0  0  0  0
   45.5837  -14.1247  -12.1730 C   0  0  0  0  0  0  0  0  0  0  0  0
   47.5053  -15.5040   -8.1077 C   0  0  0  0  0  0  0  0  0  0  0  0
   50.4476  -16.7211  -10.8467 C   0  0  0  0  0  0  0  0  0  0  0  0
   45.1469  -13.9851  -14.5363 C   0  0  0  0  0  0  0  0  0  0  0  0
   50.1792  -19.5013  -10.9004 C   0  0  0  0  0  0  0  0  0  0  0  0
   46.3225  -17.9060   -7.3101 C   0  0  0  0  0  0  0  0  0  0  0  0
   51.5572  -17.5244  -11.1142 C   0  0  0  0  0  0  0  0  0  0  0  0
   46.9554  -15.6207   -6.8302 C   0  0  0  0  0  0  0  0  0  0  0  0
   51.4213  -18.9124  -11.1496 C   0  0  0  0  0  0  0  0  0  0  0  0
   46.3569  -16.8174   -6.4351 C   0  0  0  0  0  0  0  0  0  0  0  0
   45.9781  -19.6677   -9.3380 H   0  0  0  0  0  0  0  0  0  0  0  0
   47.6048  -20.3406  -10.8522 H   0  0  0  0  0  0  0  0  0  0  0  0
   47.8090  -16.8179  -13.1269 H   0  0  0  0  0  0  0  0  0  0  0  0
   49.0280  -15.5439  -12.7794 H   0  0  0  0  0  0  0  0  0  0  0  0
   45.3338  -15.7940  -10.8226 H   0  0  0  0  0  0  0  0  0  0  0  0
   46.1912  -14.3704  -10.1385 H   0  0  0  0  0  0  0  0  0  0  0  0
   47.7177  -13.8049  -13.6451 H   0  0  0  0  0  0  0  0  0  0  0  0
   47.4546  -15.1820  -14.7645 H   0  0  0  0  0  0  0  0  0  0  0  0
   46.0819  -13.1282  -12.1224 H   0  0  0  0  0  0  0  0  0  0  0  0
   44.4952  -13.9577  -12.0095 H   0  0  0  0  0  0  0  0  0  0  0  0
   47.9680  -14.5699   -8.4029 H   0  0  0  0  0  0  0  0  0  0  0  0
   50.5657  -15.6446  -10.8212 H   0  0  0  0  0  0  0  0  0  0  0  0
   44.0504  -13.9538  -14.3581 H   0  0  0  0  0  0  0  0  0  0  0  0
   45.3020  -14.4716  -15.5234 H   0  0  0  0  0  0  0  0  0  0  0  0
   45.5375  -12.9434  -14.5796 H   0  0  0  0  0  0  0  0  0  0  0  0
   50.0963  -20.5813  -10.9232 H   0  0  0  0  0  0  0  0  0  0  0  0
   45.8617  -18.8296   -6.9811 H   0  0  0  0  0  0  0  0  0  0  0  0
   52.5224  -17.0702  -11.2974 H   0  0  0  0  0  0  0  0  0  0  0  0
   46.9902  -14.7817   -6.1474 H   0  0  0  0  0  0  0  0  0  0  0  0
   52.2809  -19.5339  -11.3645 H   0  0  0  0  0  0  0  0  0  0  0  0
   45.9242  -16.9043   -5.4468 H   0  0  0  0  0  0  0  0  0  0  0  0
  2  1  1  0
  3  1  1  0
  4  1  2  3
  5  9  1  0
  6  8  1  0
  7 13  1  0
  8  3  2  0
  9  2  2  0
 10  4  1  0
 11  4  1  0
 12 10  1  0
 13 11  1  0
 14  2  1  0
 15  3  1  0
 16  7  1  0
 17  8  1  0
 18  9  1  0
 19 15  2  0
 20 14  2  0
 21 19  1  0
 22 20  1  0
  7 12  1  0
  6  5  2  0
 21 17  2  0
 22 18  2  0
  5 23  1  0
  6 24  1  0
 10 25  1  0
 10 26  1  0
 11 27  1  0
 11 28  1  0
 12 29  1  0
 12 30  1  0
 13 31  1  0
 13 32  1  0
 14 33  1  0
 15 34  1  0
 16 35  1  0
 16 36  1  0
 16 37  1  0
 17 38  1  0
 18 39  1  0
 19 40  1  0
 20 41  1  0
 21 42  1  0
 22 43  1  0
M  END
> <Uni-Dock RESULT> 
ENERGY=   -3.983  LOWER_BOUND=    3.511  UPPER_BOUND=    5.991
INTER + INTRA:          -3.983
INTER:                  -3.983
INTRA:                   0.000
UNBOUND:                 0.000

$$$$
