
     RDKit          3D

 43 46  0  0  0  0  0  0  0  0999 V2000
   50.2331  -17.2535   -7.5779 C   0  0  0  0  0  0  0  0  0  0  0  0
   51.1627  -16.6237   -6.6230 C   0  0  0  0  0  0  0  0  0  0  0  0
   48.8107  -17.1683   -7.2004 C   0  0  0  0  0  0  0  0  0  0  0  0
   50.6507  -17.8199   -8.7450 C   0  0  0  0  0  0  0  0  0  0  0  0
   50.1373  -14.3370   -7.0519 C   0  0  0  0  0  0  0  0  0  0  0  0
   48.8649  -14.6316   -7.3643 C   0  0  0  0  0  0  0  0  0  0  0  0
   51.5077  -18.8022  -11.3090 N   0  0  0  0  0  0  0  0  0  0  0  0
   48.1728  -15.9139   -7.0835 C   0  0  0  0  0  0  0  0  0  0  0  0
   51.0972  -15.2368   -6.3656 C   0  0  0  0  0  0  0  0  0  0  0  0
   52.1275  -17.9457   -9.0772 C   0  0  0  0  0  0  0  0  0  0  0  0
   49.6747  -18.5138   -9.6793 C   0  0  0  0  0  0  0  0  0  0  0  0
   52.3823  -17.8639  -10.5840 C   0  0  0  0  0  0  0  0  0  0  0  0
   50.1022  -18.3920  -11.1437 C   0  0  0  0  0  0  0  0  0  0  0  0
   52.0973  -17.4179   -5.9366 C   0  0  0  0  0  0  0  0  0  0  0  0
   48.0947  -18.3446   -6.9193 C   0  0  0  0  0  0  0  0  0  0  0  0
   51.8603  -18.8109  -12.7373 C   0  0  0  0  0  0  0  0  0  0  0  0
   46.8063  -15.8716   -6.7585 C   0  0  0  0  0  0  0  0  0  0  0  0
   52.0235  -14.6637   -5.4777 C   0  0  0  0  0  0  0  0  0  0  0  0
   46.7440  -18.2827   -6.5742 C   0  0  0  0  0  0  0  0  0  0  0  0
   52.9941  -16.8355   -5.0398 C   0  0  0  0  0  0  0  0  0  0  0  0
   46.0988  -17.0483   -6.5012 C   0  0  0  0  0  0  0  0  0  0  0  0
   52.9621  -15.4593   -4.8162 C   0  0  0  0  0  0  0  0  0  0  0  0
   50.4608  -13.3175   -7.2284 H   0  0  0  0  0  0  0  0  0  0  0  0
   48.2616  -13.8266   -7.7683 H   0  0  0  0  0  0  0  0  0  0  0  0
   52.7268  -17.1391   -8.6048 H   0  0  0  0  0  0  0  0  0  0  0  0
   52.4948  -18.9226   -8.6954 H   0  0  0  0  0  0  0  0  0  0  0  0
   49.6205  -19.5883   -9.4009 H   0  0  0  0  0  0  0  0  0  0  0  0
   48.6543  -18.0823   -9.6044 H   0  0  0  0  0  0  0  0  0  0  0  0
   52.2226  -16.8170  -10.9330 H   0  0  0  0  0  0  0  0  0  0  0  0
   53.4499  -18.1220  -10.7634 H   0  0  0  0  0  0  0  0  0  0  0  0
   49.9475  -17.3440  -11.4916 H   0  0  0  0  0  0  0  0  0  0  0  0
   49.4392  -19.0510  -11.7478 H   0  0  0  0  0  0  0  0  0  0  0  0
   52.1337  -18.4876   -6.1025 H   0  0  0  0  0  0  0  0  0  0  0  0
   48.5836  -19.3097   -6.9740 H   0  0  0  0  0  0  0  0  0  0  0  0
   51.7382  -17.8019  -13.1915 H   0  0  0  0  0  0  0  0  0  0  0  0
   52.9127  -19.1427  -12.8694 H   0  0  0  0  0  0  0  0  0  0  0  0
   51.2192  -19.5348  -13.2850 H   0  0  0  0  0  0  0  0  0  0  0  0
   46.2882  -14.9225   -6.6908 H   0  0  0  0  0  0  0  0  0  0  0  0
   52.0112  -13.5975   -5.2858 H   0  0  0  0  0  0  0  0  0  0  0  0
   46.1961  -19.1928   -6.3672 H   0  0  0  0  0  0  0  0  0  0  0  0
   53.7170  -17.4515   -4.5207 H   0  0  0  0  0  0  0  0  0  0  0  0
   45.0491  -17.0021   -6.2409 H   0  0  0  0  0  0  0  0  0  0  0  0
   53.6630  -15.0076   -4.1261 H   0  0  0  0  0  0  0  0  0  0  0  0
  2  1  1  0
  3  1  1  0
  4  1  2  3
  5  9  1  0
  6  8  1  0
  7 13  1  0
  8  3  2  0
  9  2  2  0
 10  4  1  0
 11  4  1  0
 12 10  1  0
 13 11  1  0
 14  2  1  0
 15  3  1  0
 16  7  1  0
 17  8  1  0
 18  9  1  0
 19 15  2  0
 20 14  2  0
 21 19  1  0
 22 20  1  0
  7 12  1  0
  6  5  2  0
 21 17  2  0
 22 18  2  0
  5 23  1  0
  6 24  1  0
 10 25  1  0
 10 26  1  0
 11 27  1  0
 11 28  1  0
 12 29  1  0
 12 30  1  0
 13 31  1  0
 13 32  1  0
 14 33  1  0
 15 34  1  0
 16 35  1  0
 16 36  1  0
 16 37  1  0
 17 38  1  0
 18 39  1  0
 19 40  1  0
 20 41  1  0
 21 42  1  0
 22 43  1  0
M  END
> <Uni-Dock RESULT> 
ENERGY=   -6.313  LOWER_BOUND=    0.000  UPPER_BOUND=    0.000
INTER + INTRA:          -6.313
INTER:                  -6.313
INTRA:                   0.000
UNBOUND:                 0.000

$$$$

     RDKit          3D

 43 46  0  0  0  0  0  0  0  0999 V2000
   50.4033  -17.4921   -7.3431 C   0  0  0  0  0  0  0  0  0  0  0  0
   48.9954  -17.0956   -7.1613 C   0  0  0  0  0  0  0  0  0  0  0  0
   51.0842  -17.9296   -6.1111 C   0  0  0  0  0  0  0  0  0  0  0  0
   51.0107  -17.5069   -8.5630 C   0  0  0  0  0  0  0  0  0  0  0  0
   48.3695  -19.4526   -6.4418 C   0  0  0  0  0  0  0  0  0  0  0  0
   49.4996  -19.9038   -5.8737 C   0  0  0  0  0  0  0  0  0  0  0  0
   52.2160  -17.7610  -11.1622 N   0  0  0  0  0  0  0  0  0  0  0  0
   50.6349  -19.0691   -5.4083 C   0  0  0  0  0  0  0  0  0  0  0  0
   48.0377  -18.0320   -6.7142 C   0  0  0  0  0  0  0  0  0  0  0  0
   50.3016  -16.9933   -9.8042 C   0  0  0  0  0  0  0  0  0  0  0  0
   52.4801  -17.8629   -8.7089 C   0  0  0  0  0  0  0  0  0  0  0  0
   50.7460  -17.7388  -11.0647 C   0  0  0  0  0  0  0  0  0  0  0  0
   52.7712  -18.5472  -10.0465 C   0  0  0  0  0  0  0  0  0  0  0  0
   48.6119  -15.7647   -7.4004 C   0  0  0  0  0  0  0  0  0  0  0  0
   52.1666  -17.1841   -5.6132 C   0  0  0  0  0  0  0  0  0  0  0  0
   52.6221  -18.3581  -12.4440 C   0  0  0  0  0  0  0  0  0  0  0  0
   51.3307  -19.4792   -4.2584 C   0  0  0  0  0  0  0  0  0  0  0  0
   46.6973  -17.6292   -6.5880 C   0  0  0  0  0  0  0  0  0  0  0  0
   52.8312  -17.5922   -4.4560 C   0  0  0  0  0  0  0  0  0  0  0  0
   47.2804  -15.3760   -7.2468 C   0  0  0  0  0  0  0  0  0  0  0  0
   52.4185  -18.7425   -3.7836 C   0  0  0  0  0  0  0  0  0  0  0  0
   46.3231  -16.3087   -6.8482 C   0  0  0  0  0  0  0  0  0  0  0  0
   47.5901  -20.1827   -6.6274 H   0  0  0  0  0  0  0  0  0  0  0  0
   49.5432  -20.9626   -5.6454 H   0  0  0  0  0  0  0  0  0  0  0  0
   49.2003  -17.1141   -9.7298 H   0  0  0  0  0  0  0  0  0  0  0  0
   50.5270  -15.9112   -9.9191 H   0  0  0  0  0  0  0  0  0  0  0  0
   53.0798  -16.9303   -8.6356 H   0  0  0  0  0  0  0  0  0  0  0  0
   52.8173  -18.5579   -7.9112 H   0  0  0  0  0  0  0  0  0  0  0  0
   50.3301  -18.7733  -11.0524 H   0  0  0  0  0  0  0  0  0  0  0  0
   50.3137  -17.2100  -11.9433 H   0  0  0  0  0  0  0  0  0  0  0  0
   52.3509  -19.5799  -10.0366 H   0  0  0  0  0  0  0  0  0  0  0  0
   53.8758  -18.6317  -10.1524 H   0  0  0  0  0  0  0  0  0  0  0  0
   49.3452  -15.0310   -7.7119 H   0  0  0  0  0  0  0  0  0  0  0  0
   52.4981  -16.2898   -6.1268 H   0  0  0  0  0  0  0  0  0  0  0  0
   52.2527  -19.4039  -12.5396 H   0  0  0  0  0  0  0  0  0  0  0  0
   52.2259  -17.7552  -13.2894 H   0  0  0  0  0  0  0  0  0  0  0  0
   53.7299  -18.3557  -12.5331 H   0  0  0  0  0  0  0  0  0  0  0  0
   51.0222  -20.3664   -3.7184 H   0  0  0  0  0  0  0  0  0  0  0  0
   45.9396  -18.3370   -6.2739 H   0  0  0  0  0  0  0  0  0  0  0  0
   53.6695  -17.0185   -4.0825 H   0  0  0  0  0  0  0  0  0  0  0  0
   46.9900  -14.3515   -7.4406 H   0  0  0  0  0  0  0  0  0  0  0  0
   52.9396  -19.0623   -2.8905 H   0  0  0  0  0  0  0  0  0  0  0  0
   45.2893  -16.0078   -6.7367 H   0  0  0  0  0  0  0  0  0  0  0  0
  2  1  1  0
  3  1  1  0
  4  1  2  3
  5  9  1  0
  6  8  1  0
  7 13  1  0
  8  3  2  0
  9  2  2  0
 10  4  1  0
 11  4  1  0
 12 10  1  0
 13 11  1  0
 14  2  1  0
 15  3  1  0
 16  7  1  0
 17  8  1  0
 18  9  1  0
 19 15  2  0
 20 14  2  0
 21 19  1  0
 22 20  1  0
  7 12  1  0
  6  5  2  0
 21 17  2  0
 22 18  2  0
  5 23  1  0
  6 24  1  0
 10 25  1  0
 10 26  1  0
 11 27  1  0
 11 28  1  0
 12 29  1  0
 12 30  1  0
 13 31  1  0
 13 32  1  0
 14 33  1  0
 15 34  1  0
 16 35  1  0
 16 36  1  0
 16 37  1  0
 17 38  1  0
 18 39  1  0
 19 40  1  0
 20 41  1  0
 21 42  1  0
 22 43  1  0
M  END
> <Uni-Dock RESULT> 
ENERGY=   -5.240  LOWER_BOUND=    1.291  UPPER_BOUND=    4.432
INTER + INTRA:          -5.240
INTER:                  -5.240
INTRA:                   0.000
UNBOUND:                 0.000

$$$$

     RDKit          3D

 43 46  0  0  0  0  0  0  0  0999 V2000
   48.0562  -17.2202   -8.0039 C   0  0  0  0  0  0  0  0  0  0  0  0
   47.5251  -18.1891   -7.0282 C   0  0  0  0  0  0  0  0  0  0  0  0
   49.0330  -16.2635   -7.4530 C   0  0  0  0  0  0  0  0  0  0  0  0
   47.7139  -17.2431   -9.3228 C   0  0  0  0  0  0  0  0  0  0  0  0
   49.8372  -19.1893   -6.6836 C   0  0  0  0  0  0  0  0  0  0  0  0
   50.6529  -18.1476   -6.9135 C   0  0  0  0  0  0  0  0  0  0  0  0
   47.1722  -17.4408  -12.1407 N   0  0  0  0  0  0  0  0  0  0  0  0
   50.2594  -16.7168   -6.9193 C   0  0  0  0  0  0  0  0  0  0  0  0
   48.3844  -19.1108   -6.3911 C   0  0  0  0  0  0  0  0  0  0  0  0
   46.6595  -18.2020   -9.8481 C   0  0  0  0  0  0  0  0  0  0  0  0
   48.2320  -16.1938  -10.2911 C   0  0  0  0  0  0  0  0  0  0  0  0
   46.9401  -18.6229  -11.2925 C   0  0  0  0  0  0  0  0  0  0  0  0
   48.4018  -16.7561  -11.7043 C   0  0  0  0  0  0  0  0  0  0  0  0
   46.1579  -18.1695   -6.7033 C   0  0  0  0  0  0  0  0  0  0  0  0
   48.7241  -14.8928   -7.4262 C   0  0  0  0  0  0  0  0  0  0  0  0
   47.3031  -17.8534  -13.5468 C   0  0  0  0  0  0  0  0  0  0  0  0
   51.1830  -15.7739   -6.4368 C   0  0  0  0  0  0  0  0  0  0  0  0
   47.8381  -20.0450   -5.4945 C   0  0  0  0  0  0  0  0  0  0  0  0
   49.6433  -13.9723   -6.9211 C   0  0  0  0  0  0  0  0  0  0  0  0
   45.6362  -19.0890   -5.7922 C   0  0  0  0  0  0  0  0  0  0  0  0
   50.8742  -14.4116   -6.4340 C   0  0  0  0  0  0  0  0  0  0  0  0
   46.4739  -20.0302   -5.1942 C   0  0  0  0  0  0  0  0  0  0  0  0
   50.3008  -20.1662   -6.6078 H   0  0  0  0  0  0  0  0  0  0  0  0
   51.7108  -18.3659   -7.0050 H   0  0  0  0  0  0  0  0  0  0  0  0
   46.6113  -19.1329   -9.2447 H   0  0  0  0  0  0  0  0  0  0  0  0
   45.6685  -17.7017   -9.7975 H   0  0  0  0  0  0  0  0  0  0  0  0
   47.5112  -15.3484  -10.3166 H   0  0  0  0  0  0  0  0  0  0  0  0
   49.2220  -15.7987   -9.9803 H   0  0  0  0  0  0  0  0  0  0  0  0
   47.8169  -19.3113  -11.3168 H   0  0  0  0  0  0  0  0  0  0  0  0
   46.0549  -19.1882  -11.6605 H   0  0  0  0  0  0  0  0  0  0  0  0
   49.2754  -17.4486  -11.7278 H   0  0  0  0  0  0  0  0  0  0  0  0
   48.6259  -15.9045  -12.3849 H   0  0  0  0  0  0  0  0  0  0  0  0
   45.4963  -17.4447   -7.1618 H   0  0  0  0  0  0  0  0  0  0  0  0
   47.7723  -14.5384   -7.8030 H   0  0  0  0  0  0  0  0  0  0  0  0
   48.1576  -18.5533  -13.6864 H   0  0  0  0  0  0  0  0  0  0  0  0
   46.3691  -18.3494  -13.8884 H   0  0  0  0  0  0  0  0  0  0  0  0
   47.4549  -16.9630  -14.1941 H   0  0  0  0  0  0  0  0  0  0  0  0
   52.1421  -16.0953   -6.0486 H   0  0  0  0  0  0  0  0  0  0  0  0
   48.4729  -20.7804   -5.0150 H   0  0  0  0  0  0  0  0  0  0  0  0
   49.4027  -12.9171   -6.9112 H   0  0  0  0  0  0  0  0  0  0  0  0
   44.5808  -19.0741   -5.5526 H   0  0  0  0  0  0  0  0  0  0  0  0
   51.5895  -13.6959   -6.0495 H   0  0  0  0  0  0  0  0  0  0  0  0
   46.0668  -20.7478   -4.4935 H   0  0  0  0  0  0  0  0  0  0  0  0
  2  1  1  0
  3  1  1  0
  4  1  2  3
  5  9  1  0
  6  8  1  0
  7 13  1  0
  8  3  2  0
  9  2  2  0
 10  4  1  0
 11  4  1  0
 12 10  1  0
 13 11  1  0
 14  2  1  0
 15  3  1  0
 16  7  1  0
 17  8  1  0
 18  9  1  0
 19 15  2  0
 20 14  2  0
 21 19  1  0
 22 20  1  0
  7 12  1  0
  6  5  2  0
 21 17  2  0
 22 18  2  0
  5 23  1  0
  6 24  1  0
 10 25  1  0
 10 26  1  0
 11 27  1  0
 11 28  1  0
 12 29  1  0
 12 30  1  0
 13 31  1  0
 13 32  1  0
 14 33  1  0
 15 34  1  0
 16 35  1  0
 16 36  1  0
 16 37  1  0
 17 38  1  0
 18 39  1  0
 19 40  1  0
 20 41  1  0
 21 42  1  0
 22 43  1  0
M  END
> <Uni-Dock RESULT> 
ENERGY=   -5.217  LOWER_BOUND=    2.198  UPPER_BOUND=    4.820
INTER + INTRA:          -5.217
INTER:                  -5.217
INTRA:                   0.000
UNBOUND:                 0.000

$$$$

     RDKit          3D

 43 46  0  0  0  0  0  0  0  0999 V2000
   46.8835  -16.1052  -10.5766 C   0  0  0  0  0  0  0  0  0  0  0  0
   45.6445  -15.8645  -11.3379 C   0  0  0  0  0  0  0  0  0  0  0  0
   46.6801  -16.4071   -9.1481 C   0  0  0  0  0  0  0  0  0  0  0  0
   48.1155  -16.1043  -11.1591 C   0  0  0  0  0  0  0  0  0  0  0  0
   44.8563  -18.2435  -10.9088 C   0  0  0  0  0  0  0  0  0  0  0  0
   45.4166  -18.5370   -9.7242 C   0  0  0  0  0  0  0  0  0  0  0  0
   50.6850  -16.3336  -12.4312 N   0  0  0  0  0  0  0  0  0  0  0  0
   45.9643  -17.5583   -8.7525 C   0  0  0  0  0  0  0  0  0  0  0  0
   44.6766  -16.8836  -11.4751 C   0  0  0  0  0  0  0  0  0  0  0  0
   48.2977  -15.7305  -12.6199 C   0  0  0  0  0  0  0  0  0  0  0  0
   49.3778  -16.2962  -10.3363 C   0  0  0  0  0  0  0  0  0  0  0  0
   49.4731  -16.4753  -13.2571 C   0  0  0  0  0  0  0  0  0  0  0  0
   50.4772  -17.0011  -11.1342 C   0  0  0  0  0  0  0  0  0  0  0  0
   45.4094  -14.5981  -11.9003 C   0  0  0  0  0  0  0  0  0  0  0  0
   47.1718  -15.5215   -8.1739 C   0  0  0  0  0  0  0  0  0  0  0  0
   51.8343  -16.9364  -13.1241 C   0  0  0  0  0  0  0  0  0  0  0  0
   45.8218  -17.8350   -7.3821 C   0  0  0  0  0  0  0  0  0  0  0  0
   43.5246  -16.6314  -12.2393 C   0  0  0  0  0  0  0  0  0  0  0  0
   47.0002  -15.7995   -6.8172 C   0  0  0  0  0  0  0  0  0  0  0  0
   44.2482  -14.3577  -12.6360 C   0  0  0  0  0  0  0  0  0  0  0  0
   46.3326  -16.9585   -6.4218 C   0  0  0  0  0  0  0  0  0  0  0  0
   43.3105  -15.3751  -12.8115 C   0  0  0  0  0  0  0  0  0  0  0  0
   44.4071  -19.0654  -11.4545 H   0  0  0  0  0  0  0  0  0  0  0  0
   45.3754  -19.5728   -9.4071 H   0  0  0  0  0  0  0  0  0  0  0  0
   47.3975  -15.9730  -13.2232 H   0  0  0  0  0  0  0  0  0  0  0  0
   48.4776  -14.6359  -12.6861 H   0  0  0  0  0  0  0  0  0  0  0  0
   49.7433  -15.2988  -10.0100 H   0  0  0  0  0  0  0  0  0  0  0  0
   49.1908  -16.9122   -9.4316 H   0  0  0  0  0  0  0  0  0  0  0  0
   49.2047  -17.5490  -13.3931 H   0  0  0  0  0  0  0  0  0  0  0  0
   49.6462  -16.0387  -14.2660 H   0  0  0  0  0  0  0  0  0  0  0  0
   50.2067  -18.0737  -11.2749 H   0  0  0  0  0  0  0  0  0  0  0  0
   51.4123  -16.9635  -10.5320 H   0  0  0  0  0  0  0  0  0  0  0  0
   46.1303  -13.7999  -11.7727 H   0  0  0  0  0  0  0  0  0  0  0  0
   47.6936  -14.6188   -8.4676 H   0  0  0  0  0  0  0  0  0  0  0  0
   51.6699  -18.0208  -13.3150 H   0  0  0  0  0  0  0  0  0  0  0  0
   52.0105  -16.4208  -14.0927 H   0  0  0  0  0  0  0  0  0  0  0  0
   52.7561  -16.8114  -12.5160 H   0  0  0  0  0  0  0  0  0  0  0  0
   45.3013  -18.7269   -7.0543 H   0  0  0  0  0  0  0  0  0  0  0  0
   42.7814  -17.4066  -12.3825 H   0  0  0  0  0  0  0  0  0  0  0  0
   47.3888  -15.1178   -6.0718 H   0  0  0  0  0  0  0  0  0  0  0  0
   44.0770  -13.3826  -13.0737 H   0  0  0  0  0  0  0  0  0  0  0  0
   46.2068  -17.1769   -5.3691 H   0  0  0  0  0  0  0  0  0  0  0  0
   42.4138  -15.1897  -13.3887 H   0  0  0  0  0  0  0  0  0  0  0  0
  2  1  1  0
  3  1  1  0
  4  1  2  3
  5  9  1  0
  6  8  1  0
  7 13  1  0
  8  3  2  0
  9  2  2  0
 10  4  1  0
 11  4  1  0
 12 10  1  0
 13 11  1  0
 14  2  1  0
 15  3  1  0
 16  7  1  0
 17  8  1  0
 18  9  1  0
 19 15  2  0
 20 14  2  0
 21 19  1  0
 22 20  1  0
  7 12  1  0
  6  5  2  0
 21 17  2  0
 22 18  2  0
  5 23  1  0
  6 24  1  0
 10 25  1  0
 10 26  1  0
 11 27  1  0
 11 28  1  0
 12 29  1  0
 12 30  1  0
 13 31  1  0
 13 32  1  0
 14 33  1  0
 15 34  1  0
 16 35  1  0
 16 36  1  0
 16 37  1  0
 17 38  1  0
 18 39  1  0
 19 40  1  0
 20 41  1  0
 21 42  1  0
 22 43  1  0
M  END
> <Uni-Dock RESULT> 
ENERGY=   -5.213  LOWER_BOUND=    3.838  UPPER_BOUND=    6.283
INTER + INTRA:          -5.213
INTER:                  -5.213
INTRA:                   0.000
UNBOUND:                 0.000

$$$$

     RDKit          3D

 43 46  0  0  0  0  0  0  0  0999 V2000
   49.5892  -17.8600   -7.6426 C   0  0  0  0  0  0  0  0  0  0  0  0
   50.1109  -16.5751   -7.1429 C   0  0  0  0  0  0  0  0  0  0  0  0
   48.3563  -18.3235   -6.9810 C   0  0  0  0  0  0  0  0  0  0  0  0
   50.1694  -18.5375   -8.6730 C   0  0  0  0  0  0  0  0  0  0  0  0
   48.0214  -15.3599   -7.9315 C   0  0  0  0  0  0  0  0  0  0  0  0
   47.0721  -16.3058   -7.8439 C   0  0  0  0  0  0  0  0  0  0  0  0
   51.2558  -19.8426  -10.9945 N   0  0  0  0  0  0  0  0  0  0  0  0
   47.1670  -17.5669   -7.0675 C   0  0  0  0  0  0  0  0  0  0  0  0
   49.3487  -15.3930   -7.2688 C   0  0  0  0  0  0  0  0  0  0  0  0
   51.4726  -18.0652   -9.2939 C   0  0  0  0  0  0  0  0  0  0  0  0
   49.6429  -19.8887   -9.1250 C   0  0  0  0  0  0  0  0  0  0  0  0
   51.5561  -18.4160  -10.7812 C   0  0  0  0  0  0  0  0  0  0  0  0
   49.8552  -20.1112  -10.6242 C   0  0  0  0  0  0  0  0  0  0  0  0
   51.3617  -16.5346   -6.5033 C   0  0  0  0  0  0  0  0  0  0  0  0
   48.3757  -19.5099   -6.2279 C   0  0  0  0  0  0  0  0  0  0  0  0
   51.4745  -20.1929  -12.4066 C   0  0  0  0  0  0  0  0  0  0  0  0
   46.0008  -18.0576   -6.4561 C   0  0  0  0  0  0  0  0  0  0  0  0
   49.8929  -14.1794   -6.8152 C   0  0  0  0  0  0  0  0  0  0  0  0
   47.2139  -19.9703   -5.6069 C   0  0  0  0  0  0  0  0  0  0  0  0
   51.8765  -15.3241   -6.0370 C   0  0  0  0  0  0  0  0  0  0  0  0
   46.0262  -19.2489   -5.7271 C   0  0  0  0  0  0  0  0  0  0  0  0
   51.1464  -14.1470   -6.1993 C   0  0  0  0  0  0  0  0  0  0  0  0
   47.7555  -14.4470   -8.4521 H   0  0  0  0  0  0  0  0  0  0  0  0
   46.1149  -16.0818   -8.3007 H   0  0  0  0  0  0  0  0  0  0  0  0
   51.5917  -16.9640   -9.2154 H   0  0  0  0  0  0  0  0  0  0  0  0
   52.3170  -18.5467   -8.7553 H   0  0  0  0  0  0  0  0  0  0  0  0
   50.1728  -20.6836   -8.5573 H   0  0  0  0  0  0  0  0  0  0  0  0
   48.5537  -19.9915   -8.9349 H   0  0  0  0  0  0  0  0  0  0  0  0
   50.8541  -17.7689  -11.3571 H   0  0  0  0  0  0  0  0  0  0  0  0
   52.5889  -18.1880  -11.1275 H   0  0  0  0  0  0  0  0  0  0  0  0
   49.1570  -19.4603  -11.2005 H   0  0  0  0  0  0  0  0  0  0  0  0
   49.5971  -21.1697  -10.8511 H   0  0  0  0  0  0  0  0  0  0  0  0
   51.9395  -17.4413   -6.3723 H   0  0  0  0  0  0  0  0  0  0  0  0
   49.2911  -20.0804   -6.1280 H   0  0  0  0  0  0  0  0  0  0  0  0
   50.8178  -19.5962  -13.0790 H   0  0  0  0  0  0  0  0  0  0  0  0
   52.5355  -20.0148  -12.6850 H   0  0  0  0  0  0  0  0  0  0  0  0
   51.2721  -21.2736  -12.5683 H   0  0  0  0  0  0  0  0  0  0  0  0
   45.0695  -17.5091   -6.5327 H   0  0  0  0  0  0  0  0  0  0  0  0
   49.3390  -13.2549   -6.9265 H   0  0  0  0  0  0  0  0  0  0  0  0
   47.2335  -20.8891   -5.0353 H   0  0  0  0  0  0  0  0  0  0  0  0
   52.8442  -15.2984   -5.5528 H   0  0  0  0  0  0  0  0  0  0  0  0
   45.1239  -19.6109   -5.2513 H   0  0  0  0  0  0  0  0  0  0  0  0
   51.5500  -13.2076   -5.8440 H   0  0  0  0  0  0  0  0  0  0  0  0
  2  1  1  0
  3  1  1  0
  4  1  2  3
  5  9  1  0
  6  8  1  0
  7 13  1  0
  8  3  2  0
  9  2  2  0
 10  4  1  0
 11  4  1  0
 12 10  1  0
 13 11  1  0
 14  2  1  0
 15  3  1  0
 16  7  1  0
 17  8  1  0
 18  9  1  0
 19 15  2  0
 20 14  2  0
 21 19  1  0
 22 20  1  0
  7 12  1  0
  6  5  2  0
 21 17  2  0
 22 18  2  0
  5 23  1  0
  6 24  1  0
 10 25  1  0
 10 26  1  0
 11 27  1  0
 11 28  1  0
 12 29  1  0
 12 30  1  0
 13 31  1  0
 13 32  1  0
 14 33  1  0
 15 34  1  0
 16 35  1  0
 16 36  1  0
 16 37  1  0
 17 38  1  0
 18 39  1  0
 19 40  1  0
 20 41  1  0
 21 42  1  0
 22 43  1  0
M  END
> <Uni-Dock RESULT> 
ENERGY=   -5.071  LOWER_BOUND=    1.124  UPPER_BOUND=    1.805
INTER + INTRA:          -5.071
INTER:                  -5.071
INTRA:                   0.000
UNBOUND:                 0.000

$$$$

     RDKit          3D

 43 46  0  0  0  0  0  0  0  0999 V2000
   46.3561  -16.1106  -10.9459 C   0  0  0  0  0  0  0  0  0  0  0  0
   47.3799  -16.0834   -9.8859 C   0  0  0  0  0  0  0  0  0  0  0  0
   46.6014  -15.1811  -12.0634 C   0  0  0  0  0  0  0  0  0  0  0  0
   45.2965  -16.9673  -10.9221 C   0  0  0  0  0  0  0  0  0  0  0  0
   49.1580  -16.9002  -11.5094 C   0  0  0  0  0  0  0  0  0  0  0  0
   48.7368  -16.4121  -12.6875 C   0  0  0  0  0  0  0  0  0  0  0  0
   43.1969  -18.9322  -10.9855 N   0  0  0  0  0  0  0  0  0  0  0  0
   47.7478  -15.3220  -12.8760 C   0  0  0  0  0  0  0  0  0  0  0  0
   48.7157  -16.4438  -10.1685 C   0  0  0  0  0  0  0  0  0  0  0  0
   45.0383  -17.8703   -9.7284 C   0  0  0  0  0  0  0  0  0  0  0  0
   44.2262  -16.9293  -11.9992 C   0  0  0  0  0  0  0  0  0  0  0  0
   44.3775  -19.1874  -10.1417 C   0  0  0  0  0  0  0  0  0  0  0  0
   43.6226  -18.3126  -12.2527 C   0  0  0  0  0  0  0  0  0  0  0  0
   47.0297  -15.6599   -8.5923 C   0  0  0  0  0  0  0  0  0  0  0  0
   45.7049  -14.1245  -12.2980 C   0  0  0  0  0  0  0  0  0  0  0  0
   42.4963  -20.1966  -11.2589 C   0  0  0  0  0  0  0  0  0  0  0  0
   47.9306  -14.4412  -13.9556 C   0  0  0  0  0  0  0  0  0  0  0  0
   49.6575  -16.4426   -9.1254 C   0  0  0  0  0  0  0  0  0  0  0  0
   45.9148  -13.2441  -13.3602 C   0  0  0  0  0  0  0  0  0  0  0  0
   47.9836  -15.6417   -7.5738 C   0  0  0  0  0  0  0  0  0  0  0  0
   47.0222  -13.4068  -14.1925 C   0  0  0  0  0  0  0  0  0  0  0  0
   49.2939  -16.0395   -7.8382 C   0  0  0  0  0  0  0  0  0  0  0  0
   49.9651  -17.6233  -11.5401 H   0  0  0  0  0  0  0  0  0  0  0  0
   49.2372  -16.7797  -13.5761 H   0  0  0  0  0  0  0  0  0  0  0  0
   45.9783  -18.1335   -9.1992 H   0  0  0  0  0  0  0  0  0  0  0  0
   44.3749  -17.3348   -9.0156 H   0  0  0  0  0  0  0  0  0  0  0  0
   43.4233  -16.2320  -11.6767 H   0  0  0  0  0  0  0  0  0  0  0  0
   44.6301  -16.5711  -12.9695 H   0  0  0  0  0  0  0  0  0  0  0  0
   45.1200  -19.8259  -10.6750 H   0  0  0  0  0  0  0  0  0  0  0  0
   44.0746  -19.7223   -9.2140 H   0  0  0  0  0  0  0  0  0  0  0  0
   44.3667  -18.9531  -12.7813 H   0  0  0  0  0  0  0  0  0  0  0  0
   42.7467  -18.1834  -12.9270 H   0  0  0  0  0  0  0  0  0  0  0  0
   46.0152  -15.3499   -8.3734 H   0  0  0  0  0  0  0  0  0  0  0  0
   44.8401  -13.9881  -11.6601 H   0  0  0  0  0  0  0  0  0  0  0  0
   43.1547  -20.9180  -11.7933 H   0  0  0  0  0  0  0  0  0  0  0  0
   42.1519  -20.6566  -10.3077 H   0  0  0  0  0  0  0  0  0  0  0  0
   41.5914  -20.0068  -11.8755 H   0  0  0  0  0  0  0  0  0  0  0  0
   48.7875  -14.5470  -14.6101 H   0  0  0  0  0  0  0  0  0  0  0  0
   50.6818  -16.7424   -9.3116 H   0  0  0  0  0  0  0  0  0  0  0  0
   45.2160  -12.4376  -13.5407 H   0  0  0  0  0  0  0  0  0  0  0  0
   47.7055  -15.3225   -6.5776 H   0  0  0  0  0  0  0  0  0  0  0  0
   47.1798  -12.7280  -15.0207 H   0  0  0  0  0  0  0  0  0  0  0  0
   50.0311  -16.0322   -7.0456 H   0  0  0  0  0  0  0  0  0  0  0  0
  2  1  1  0
  3  1  1  0
  4  1  2  3
  5  9  1  0
  6  8  1  0
  7 13  1  0
  8  3  2  0
  9  2  2  0
 10  4  1  0
 11  4  1  0
 12 10  1  0
 13 11  1  0
 14  2  1  0
 15  3  1  0
 16  7  1  0
 17  8  1  0
 18  9  1  0
 19 15  2  0
 20 14  2  0
 21 19  1  0
 22 20  1  0
  7 12  1  0
  6  5  2  0
 21 17  2  0
 22 18  2  0
  5 23  1  0
  6 24  1  0
 10 25  1  0
 10 26  1  0
 11 27  1  0
 11 28  1  0
 12 29  1  0
 12 30  1  0
 13 31  1  0
 13 32  1  0
 14 33  1  0
 15 34  1  0
 16 35  1  0
 16 36  1  0
 16 37  1  0
 17 38  1  0
 18 39  1  0
 19 40  1  0
 20 41  1  0
 21 42  1  0
 22 43  1  0
M  END
> <Uni-Dock RESULT> 
ENERGY=   -4.367  LOWER_BOUND=    4.696  UPPER_BOUND=    6.604
INTER + INTRA:          -4.367
INTER:                  -4.367
INTRA:                   0.000
UNBOUND:                 0.000

$$$$

     RDKit          3D

 43 46  0  0  0  0  0  0  0  0999 V2000
   44.9150  -14.1028  -12.3618 C   0  0  0  0  0  0  0  0  0  0  0  0
   43.6746  -13.3356  -12.1486 C   0  0  0  0  0  0  0  0  0  0  0  0
   44.8911  -15.4748  -11.8232 C   0  0  0  0  0  0  0  0  0  0  0  0
   45.9787  -13.6028  -13.0516 C   0  0  0  0  0  0  0  0  0  0  0  0
   42.3569  -14.9649  -13.5886 C   0  0  0  0  0  0  0  0  0  0  0  0
   43.0151  -16.1222  -13.4126 C   0  0  0  0  0  0  0  0  0  0  0  0
   48.1242  -12.6340  -14.7043 N   0  0  0  0  0  0  0  0  0  0  0  0
   43.9701  -16.4243  -12.3177 C   0  0  0  0  0  0  0  0  0  0  0  0
   42.4576  -13.7644  -12.7221 C   0  0  0  0  0  0  0  0  0  0  0  0
   45.9964  -12.1653  -13.5418 C   0  0  0  0  0  0  0  0  0  0  0  0
   47.2652  -14.3961  -13.2024 C   0  0  0  0  0  0  0  0  0  0  0  0
   46.7940  -12.0147  -14.8392 C   0  0  0  0  0  0  0  0  0  0  0  0
   47.9735  -14.0885  -14.5237 C   0  0  0  0  0  0  0  0  0  0  0  0
   43.6981  -12.1882  -11.3373 C   0  0  0  0  0  0  0  0  0  0  0  0
   45.7683  -15.8286  -10.7837 C   0  0  0  0  0  0  0  0  0  0  0  0
   48.9260  -12.3610  -15.9072 C   0  0  0  0  0  0  0  0  0  0  0  0
   44.0005  -17.7333  -11.8077 C   0  0  0  0  0  0  0  0  0  0  0  0
   41.3021  -12.9882  -12.5293 C   0  0  0  0  0  0  0  0  0  0  0  0
   45.7684  -17.1269  -10.2722 C   0  0  0  0  0  0  0  0  0  0  0  0
   42.5357  -11.4424  -11.1366 C   0  0  0  0  0  0  0  0  0  0  0  0
   44.8908  -18.0801  -10.7886 C   0  0  0  0  0  0  0  0  0  0  0  0
   41.3409  -11.8377  -11.7378 C   0  0  0  0  0  0  0  0  0  0  0  0
   41.6125  -14.9405  -14.3763 H   0  0  0  0  0  0  0  0  0  0  0  0
   42.7500  -16.9407  -14.0721 H   0  0  0  0  0  0  0  0  0  0  0  0
   44.9729  -11.7868  -13.7470 H   0  0  0  0  0  0  0  0  0  0  0  0
   46.4529  -11.5278  -12.7543 H   0  0  0  0  0  0  0  0  0  0  0  0
   47.9396  -14.1420  -12.3565 H   0  0  0  0  0  0  0  0  0  0  0  0
   47.0794  -15.4907  -13.1834 H   0  0  0  0  0  0  0  0  0  0  0  0
   46.2242  -12.4703  -15.6824 H   0  0  0  0  0  0  0  0  0  0  0  0
   46.8996  -10.9271  -15.0498 H   0  0  0  0  0  0  0  0  0  0  0  0
   47.4011  -14.5395  -15.3676 H   0  0  0  0  0  0  0  0  0  0  0  0
   48.9742  -14.5747  -14.4947 H   0  0  0  0  0  0  0  0  0  0  0  0
   44.6198  -11.8695  -10.8659 H   0  0  0  0  0  0  0  0  0  0  0  0
   46.4560  -15.0983  -10.3749 H   0  0  0  0  0  0  0  0  0  0  0  0
   48.4418  -12.7752  -16.8202 H   0  0  0  0  0  0  0  0  0  0  0  0
   49.0629  -11.2656  -16.0351 H   0  0  0  0  0  0  0  0  0  0  0  0
   49.9388  -12.8059  -15.8009 H   0  0  0  0  0  0  0  0  0  0  0  0
   43.3228  -18.4867  -12.1912 H   0  0  0  0  0  0  0  0  0  0  0  0
   40.3629  -13.2815  -12.9827 H   0  0  0  0  0  0  0  0  0  0  0  0
   46.4523  -17.3954   -9.4774 H   0  0  0  0  0  0  0  0  0  0  0  0
   42.5623  -10.5550  -10.5175 H   0  0  0  0  0  0  0  0  0  0  0  0
   44.8970  -19.0889  -10.3963 H   0  0  0  0  0  0  0  0  0  0  0  0
   40.4417  -11.2543  -11.5876 H   0  0  0  0  0  0  0  0  0  0  0  0
  2  1  1  0
  3  1  1  0
  4  1  2  3
  5  9  1  0
  6  8  1  0
  7 13  1  0
  8  3  2  0
  9  2  2  0
 10  4  1  0
 11  4  1  0
 12 10  1  0
 13 11  1  0
 14  2  1  0
 15  3  1  0
 16  7  1  0
 17  8  1  0
 18  9  1  0
 19 15  2  0
 20 14  2  0
 21 19  1  0
 22 20  1  0
  7 12  1  0
  6  5  2  0
 21 17  2  0
 22 18  2  0
  5 23  1  0
  6 24  1  0
 10 25  1  0
 10 26  1  0
 11 27  1  0
 11 28  1  0
 12 29  1  0
 12 30  1  0
 13 31  1  0
 13 32  1  0
 14 33  1  0
 15 34  1  0
 16 35  1  0
 16 36  1  0
 16 37  1  0
 17 38  1  0
 18 39  1  0
 19 40  1  0
 20 41  1  0
 21 42  1  0
 22 43  1  0
M  END
> <Uni-Dock RESULT> 
ENERGY=   -4.182  LOWER_BOUND=    6.772  UPPER_BOUND=    8.861
INTER + INTRA:          -4.182
INTER:                  -4.182
INTRA:                   0.000
UNBOUND:                 0.000

$$$$

     RDKit          3D

 43 46  0  0  0  0  0  0  0  0999 V2000
   50.1763  -18.2319   -7.3934 C   0  0  0  0  0  0  0  0  0  0  0  0
   48.7865  -18.3750   -6.9236 C   0  0  0  0  0  0  0  0  0  0  0  0
   50.3130  -17.9226   -8.8281 C   0  0  0  0  0  0  0  0  0  0  0  0
   51.2478  -18.3226   -6.5561 C   0  0  0  0  0  0  0  0  0  0  0  0
   48.2906  -15.9456   -7.4865 C   0  0  0  0  0  0  0  0  0  0  0  0
   49.1164  -15.7009   -8.5168 C   0  0  0  0  0  0  0  0  0  0  0  0
   53.4870  -18.2811   -4.7513 N   0  0  0  0  0  0  0  0  0  0  0  0
   49.7887  -16.7227   -9.3570 C   0  0  0  0  0  0  0  0  0  0  0  0
   47.8908  -17.2853   -6.9890 C   0  0  0  0  0  0  0  0  0  0  0  0
   51.0781  -18.7019   -5.0951 C   0  0  0  0  0  0  0  0  0  0  0  0
   52.6700  -18.2303   -7.0813 C   0  0  0  0  0  0  0  0  0  0  0  0
   52.1379  -18.0446   -4.2082 C   0  0  0  0  0  0  0  0  0  0  0  0
   53.6179  -17.6062   -6.0545 C   0  0  0  0  0  0  0  0  0  0  0  0
   48.3406  -19.6174   -6.4409 C   0  0  0  0  0  0  0  0  0  0  0  0
   50.9384  -18.8474   -9.6819 C   0  0  0  0  0  0  0  0  0  0  0  0
   54.4988  -17.7630   -3.8173 C   0  0  0  0  0  0  0  0  0  0  0  0
   49.9701  -16.4428  -10.7221 C   0  0  0  0  0  0  0  0  0  0  0  0
   46.5841  -17.4464   -6.4976 C   0  0  0  0  0  0  0  0  0  0  0  0
   51.0885  -18.5639  -11.0400 C   0  0  0  0  0  0  0  0  0  0  0  0
   47.0321  -19.7662   -5.9792 C   0  0  0  0  0  0  0  0  0  0  0  0
   50.6116  -17.3599  -11.5580 C   0  0  0  0  0  0  0  0  0  0  0  0
   46.1572  -18.6802   -6.0007 C   0  0  0  0  0  0  0  0  0  0  0  0
   47.7955  -15.0895   -7.0425 H   0  0  0  0  0  0  0  0  0  0  0  0
   49.2228  -14.6665   -8.8232 H   0  0  0  0  0  0  0  0  0  0  0  0
   50.0884  -18.3895   -4.7001 H   0  0  0  0  0  0  0  0  0  0  0  0
   51.1571  -19.8066   -5.0041 H   0  0  0  0  0  0  0  0  0  0  0  0
   53.0226  -19.2539   -7.3316 H   0  0  0  0  0  0  0  0  0  0  0  0
   52.7316  -17.6064   -7.9978 H   0  0  0  0  0  0  0  0  0  0  0  0
   51.9271  -16.9531   -4.1215 H   0  0  0  0  0  0  0  0  0  0  0  0
   52.0535  -18.4880   -3.1910 H   0  0  0  0  0  0  0  0  0  0  0  0
   53.4038  -16.5156   -5.9637 H   0  0  0  0  0  0  0  0  0  0  0  0
   54.6565  -17.7170   -6.4386 H   0  0  0  0  0  0  0  0  0  0  0  0
   49.0105  -20.4682   -6.4174 H   0  0  0  0  0  0  0  0  0  0  0  0
   51.3146  -19.7854   -9.2919 H   0  0  0  0  0  0  0  0  0  0  0  0
   54.3779  -16.6684   -3.6542 H   0  0  0  0  0  0  0  0  0  0  0  0
   54.4202  -18.2857   -2.8397 H   0  0  0  0  0  0  0  0  0  0  0  0
   55.5192  -17.9600   -4.2110 H   0  0  0  0  0  0  0  0  0  0  0  0
   49.6017  -15.5159  -11.1451 H   0  0  0  0  0  0  0  0  0  0  0  0
   45.8874  -16.6168   -6.5111 H   0  0  0  0  0  0  0  0  0  0  0  0
   51.5786  -19.2766  -11.6906 H   0  0  0  0  0  0  0  0  0  0  0  0
   46.6974  -20.7234   -5.6008 H   0  0  0  0  0  0  0  0  0  0  0  0
   50.7355  -17.1378  -12.6101 H   0  0  0  0  0  0  0  0  0  0  0  0
   45.1448  -18.7948   -5.6353 H   0  0  0  0  0  0  0  0  0  0  0  0
  2  1  1  0
  3  1  1  0
  4  1  2  3
  5  9  1  0
  6  8  1  0
  7 13  1  0
  8  3  2  0
  9  2  2  0
 10  4  1  0
 11  4  1  0
 12 10  1  0
 13 11  1  0
 14  2  1  0
 15  3  1  0
 16  7  1  0
 17  8  1  0
 18  9  1  0
 19 15  2  0
 20 14  2  0
 21 19  1  0
 22 20  1  0
  7 12  1  0
  6  5  2  0
 21 17  2  0
 22 18  2  0
  5 23  1  0
  6 24  1  0
 10 25  1  0
 10 26  1  0
 11 27  1  0
 11 28  1  0
 12 29  1  0
 12 30  1  0
 13 31  1  0
 13 32  1  0
 14 33  1  0
 15 34  1  0
 16 35  1  0
 16 36  1  0
 16 37  1  0
 17 38  1  0
 18 39  1  0
 19 40  1  0
 20 41  1  0
 21 42  1  0
 22 43  1  0
M  END
> <Uni-Dock RESULT> 
ENERGY=   -4.162  LOWER_BOUND=    2.189  UPPER_BOUND=    5.170
INTER + INTRA:          -4.162
INTER:                  -4.162
INTRA:                   0.000
UNBOUND:                 0.000

$$$$
