
     RDKit          3D

 43 46  0  0  0  0  0  0  0  0999 V2000
   50.1985  -17.2615   -7.6288 C   0  0  0  0  0  0  0  0  0  0  0  0
   48.7827  -17.1636   -7.2362 C   0  0  0  0  0  0  0  0  0  0  0  0
   51.1405  -16.6799   -6.6581 C   0  0  0  0  0  0  0  0  0  0  0  0
   50.5949  -17.7504   -8.8365 C   0  0  0  0  0  0  0  0  0  0  0  0
   48.8833  -14.6261   -7.3471 C   0  0  0  0  0  0  0  0  0  0  0  0
   50.1633  -14.3635   -7.0333 C   0  0  0  0  0  0  0  0  0  0  0  0
   51.4568  -19.0770  -11.2417 N   0  0  0  0  0  0  0  0  0  0  0  0
   51.1054  -15.2985   -6.3683 C   0  0  0  0  0  0  0  0  0  0  0  0
   48.1680  -15.9012   -7.0887 C   0  0  0  0  0  0  0  0  0  0  0  0
   52.0325  -17.6483   -9.3096 C   0  0  0  0  0  0  0  0  0  0  0  0
   49.5964  -18.1482   -9.9069 C   0  0  0  0  0  0  0  0  0  0  0  0
   52.4146  -18.8786  -10.1371 C   0  0  0  0  0  0  0  0  0  0  0  0
   50.1113  -19.3512  -10.7018 C   0  0  0  0  0  0  0  0  0  0  0  0
   48.0572  -18.3323   -6.9508 C   0  0  0  0  0  0  0  0  0  0  0  0
   52.0397  -17.5153   -5.9744 C   0  0  0  0  0  0  0  0  0  0  0  0
   51.8942  -20.1986  -12.0869 C   0  0  0  0  0  0  0  0  0  0  0  0
   52.0375  -14.7691   -5.4599 C   0  0  0  0  0  0  0  0  0  0  0  0
   46.8076  -15.8421   -6.7423 C   0  0  0  0  0  0  0  0  0  0  0  0
   52.9422  -16.9765   -5.0561 C   0  0  0  0  0  0  0  0  0  0  0  0
   46.7130  -18.2546   -6.5836 C   0  0  0  0  0  0  0  0  0  0  0  0
   52.9470  -15.6041   -4.8059 C   0  0  0  0  0  0  0  0  0  0  0  0
   46.0867  -17.0115   -6.4881 C   0  0  0  0  0  0  0  0  0  0  0  0
   48.2937  -13.8014   -7.7308 H   0  0  0  0  0  0  0  0  0  0  0  0
   50.5070  -13.3473   -7.1881 H   0  0  0  0  0  0  0  0  0  0  0  0
   52.1339  -16.7377   -9.9387 H   0  0  0  0  0  0  0  0  0  0  0  0
   52.7604  -17.5625   -8.4801 H   0  0  0  0  0  0  0  0  0  0  0  0
   49.4546  -17.2875  -10.5957 H   0  0  0  0  0  0  0  0  0  0  0  0
   48.6025  -18.4157   -9.4995 H   0  0  0  0  0  0  0  0  0  0  0  0
   53.4359  -18.7117  -10.5464 H   0  0  0  0  0  0  0  0  0  0  0  0
   52.4525  -19.7751   -9.4753 H   0  0  0  0  0  0  0  0  0  0  0  0
   50.1198  -20.2537  -10.0473 H   0  0  0  0  0  0  0  0  0  0  0  0
   49.3995  -19.5400  -11.5361 H   0  0  0  0  0  0  0  0  0  0  0  0
   48.5322  -19.3031   -7.0265 H   0  0  0  0  0  0  0  0  0  0  0  0
   52.0478  -18.5818   -6.1646 H   0  0  0  0  0  0  0  0  0  0  0  0
   52.8947  -19.9836  -12.5200 H   0  0  0  0  0  0  0  0  0  0  0  0
   51.9465  -21.1470  -11.5064 H   0  0  0  0  0  0  0  0  0  0  0  0
   51.1919  -20.3330  -12.9376 H   0  0  0  0  0  0  0  0  0  0  0  0
   52.0497  -13.7076   -5.2436 H   0  0  0  0  0  0  0  0  0  0  0  0
   46.3062  -14.8860   -6.6519 H   0  0  0  0  0  0  0  0  0  0  0  0
   53.6412  -17.6230   -4.5414 H   0  0  0  0  0  0  0  0  0  0  0  0
   46.1553  -19.1589   -6.3769 H   0  0  0  0  0  0  0  0  0  0  0  0
   53.6524  -15.1865   -4.0991 H   0  0  0  0  0  0  0  0  0  0  0  0
   45.0422  -16.9531   -6.2103 H   0  0  0  0  0  0  0  0  0  0  0  0
  2  1  1  0
  3  1  1  0
  4  1  2  3
  5  9  1  0
  6  8  1  0
  7 13  1  0
  8  3  2  0
  9  2  2  0
 10  4  1  0
 11  4  1  0
 12 10  1  0
 13 11  1  0
 14  2  1  0
 15  3  1  0
 16  7  1  0
 17  8  1  0
 18  9  1  0
 19 15  2  0
 20 14  2  0
 21 19  1  0
 22 20  1  0
  7 12  1  0
  6  5  2  0
 21 17  2  0
 22 18  2  0
  5 23  1  0
  6 24  1  0
 10 25  1  0
 10 26  1  0
 11 27  1  0
 11 28  1  0
 12 29  1  0
 12 30  1  0
 13 31  1  0
 13 32  1  0
 14 33  1  0
 15 34  1  0
 16 35  1  0
 16 36  1  0
 16 37  1  0
 17 38  1  0
 18 39  1  0
 19 40  1  0
 20 41  1  0
 21 42  1  0
 22 43  1  0
M  END
> <Uni-Dock RESULT> 
ENERGY=   -6.161  LOWER_BOUND=    0.000  UPPER_BOUND=    0.000
INTER + INTRA:          -6.161
INTER:                  -6.161
INTRA:                   0.000
UNBOUND:                 0.000

$$$$

     RDKit          3D

 43 46  0  0  0  0  0  0  0  0999 V2000
   50.1960  -17.2867   -7.6467 C   0  0  0  0  0  0  0  0  0  0  0  0
   48.7815  -17.2027   -7.2463 C   0  0  0  0  0  0  0  0  0  0  0  0
   51.1380  -16.7006   -6.6786 C   0  0  0  0  0  0  0  0  0  0  0  0
   50.5903  -17.7674   -8.8583 C   0  0  0  0  0  0  0  0  0  0  0  0
   48.8592  -14.6640   -7.3478 C   0  0  0  0  0  0  0  0  0  0  0  0
   50.1385  -14.3914   -7.0397 C   0  0  0  0  0  0  0  0  0  0  0  0
   51.4511  -19.0771  -11.2731 N   0  0  0  0  0  0  0  0  0  0  0  0
   51.0923  -15.3207   -6.3833 C   0  0  0  0  0  0  0  0  0  0  0  0
   48.1566  -15.9463   -7.0906 C   0  0  0  0  0  0  0  0  0  0  0  0
   52.0245  -17.6510   -9.3385 C   0  0  0  0  0  0  0  0  0  0  0  0
   49.5897  -18.1699   -9.9250 C   0  0  0  0  0  0  0  0  0  0  0  0
   52.4130  -18.8747  -10.1728 C   0  0  0  0  0  0  0  0  0  0  0  0
   50.1109  -19.3653  -10.7273 C   0  0  0  0  0  0  0  0  0  0  0  0
   48.0678  -18.3789   -6.9617 C   0  0  0  0  0  0  0  0  0  0  0  0
   52.0480  -17.5306   -6.0029 C   0  0  0  0  0  0  0  0  0  0  0  0
   51.8939  -20.1916  -12.1249 C   0  0  0  0  0  0  0  0  0  0  0  0
   52.0245  -14.7866   -5.4777 C   0  0  0  0  0  0  0  0  0  0  0  0
   46.7975  -15.9005   -6.7369 C   0  0  0  0  0  0  0  0  0  0  0  0
   52.9505  -16.9875   -5.0873 C   0  0  0  0  0  0  0  0  0  0  0  0
   46.7248  -18.3143   -6.5871 C   0  0  0  0  0  0  0  0  0  0  0  0
   52.9447  -15.6161   -4.8317 C   0  0  0  0  0  0  0  0  0  0  0  0
   46.0882  -17.0772   -6.4835 C   0  0  0  0  0  0  0  0  0  0  0  0
   48.2605  -13.8431   -7.7252 H   0  0  0  0  0  0  0  0  0  0  0  0
   50.4726  -13.3716   -7.1923 H   0  0  0  0  0  0  0  0  0  0  0  0
   52.1146  -16.7370   -9.9645 H   0  0  0  0  0  0  0  0  0  0  0  0
   52.7559  -17.5620   -8.5125 H   0  0  0  0  0  0  0  0  0  0  0  0
   49.4368  -17.3077  -10.6096 H   0  0  0  0  0  0  0  0  0  0  0  0
   48.6003  -18.4476   -9.5135 H   0  0  0  0  0  0  0  0  0  0  0  0
   53.4306  -18.6972  -10.5867 H   0  0  0  0  0  0  0  0  0  0  0  0
   52.4622  -19.7733   -9.5147 H   0  0  0  0  0  0  0  0  0  0  0  0
   50.1308  -20.2701  -10.0763 H   0  0  0  0  0  0  0  0  0  0  0  0
   49.3965  -19.5571  -11.5585 H   0  0  0  0  0  0  0  0  0  0  0  0
   48.5508  -19.3451   -7.0435 H   0  0  0  0  0  0  0  0  0  0  0  0
   52.0644  -18.5964   -6.1972 H   0  0  0  0  0  0  0  0  0  0  0  0
   52.8901  -19.9662  -12.5625 H   0  0  0  0  0  0  0  0  0  0  0  0
   51.9575  -21.1417  -11.5484 H   0  0  0  0  0  0  0  0  0  0  0  0
   51.1883  -20.3289  -12.9725 H   0  0  0  0  0  0  0  0  0  0  0  0
   52.0286  -13.7259   -5.2573 H   0  0  0  0  0  0  0  0  0  0  0  0
   46.2883  -14.9491   -6.6402 H   0  0  0  0  0  0  0  0  0  0  0  0
   53.6579  -17.6299   -4.5787 H   0  0  0  0  0  0  0  0  0  0  0  0
   46.1761  -19.2243   -6.3810 H   0  0  0  0  0  0  0  0  0  0  0  0
   53.6501  -15.1951   -4.1270 H   0  0  0  0  0  0  0  0  0  0  0  0
   45.0447  -17.0289   -6.2000 H   0  0  0  0  0  0  0  0  0  0  0  0
  2  1  1  0
  3  1  1  0
  4  1  2  3
  5  9  1  0
  6  8  1  0
  7 13  1  0
  8  3  2  0
  9  2  2  0
 10  4  1  0
 11  4  1  0
 12 10  1  0
 13 11  1  0
 14  2  1  0
 15  3  1  0
 16  7  1  0
 17  8  1  0
 18  9  1  0
 19 15  2  0
 20 14  2  0
 21 19  1  0
 22 20  1  0
  7 12  1  0
  6  5  2  0
 21 17  2  0
 22 18  2  0
  5 23  1  0
  6 24  1  0
 10 25  1  0
 10 26  1  0
 11 27  1  0
 11 28  1  0
 12 29  1  0
 12 30  1  0
 13 31  1  0
 13 32  1  0
 14 33  1  0
 15 34  1  0
 16 35  1  0
 16 36  1  0
 16 37  1  0
 17 38  1  0
 18 39  1  0
 19 40  1  0
 20 41  1  0
 21 42  1  0
 22 43  1  0
M  END
> <Uni-Dock RESULT> 
ENERGY=   -6.153  LOWER_BOUND=    0.040  UPPER_BOUND=    0.040
INTER + INTRA:          -6.153
INTER:                  -6.153
INTRA:                   0.000
UNBOUND:                 0.000

$$$$

     RDKit          3D

 43 46  0  0  0  0  0  0  0  0999 V2000
   49.9637  -17.5494   -8.0052 C   0  0  0  0  0  0  0  0  0  0  0  0
   48.5904  -17.6255   -7.4797 C   0  0  0  0  0  0  0  0  0  0  0  0
   50.9425  -16.9730   -7.0683 C   0  0  0  0  0  0  0  0  0  0  0  0
   50.2804  -17.8826   -9.2871 C   0  0  0  0  0  0  0  0  0  0  0  0
   48.4580  -15.0909   -7.3391 C   0  0  0  0  0  0  0  0  0  0  0  0
   49.7349  -14.7367   -7.1158 C   0  0  0  0  0  0  0  0  0  0  0  0
   51.0135  -18.8891  -11.8827 N   0  0  0  0  0  0  0  0  0  0  0  0
   50.8158  -15.6346   -6.6369 C   0  0  0  0  0  0  0  0  0  0  0  0
   47.8855  -16.4476   -7.1495 C   0  0  0  0  0  0  0  0  0  0  0  0
   51.6500  -17.5986   -9.8740 C   0  0  0  0  0  0  0  0  0  0  0  0
   49.2198  -18.2729  -10.2990 C   0  0  0  0  0  0  0  0  0  0  0  0
   52.0545  -18.7035  -10.8538 C   0  0  0  0  0  0  0  0  0  0  0  0
   49.7568  -19.3411  -11.2556 C   0  0  0  0  0  0  0  0  0  0  0  0
   48.0011  -18.8803   -7.2515 C   0  0  0  0  0  0  0  0  0  0  0  0
   51.9739  -17.7781   -6.5567 C   0  0  0  0  0  0  0  0  0  0  0  0
   51.4616  -19.8793  -12.8739 C   0  0  0  0  0  0  0  0  0  0  0  0
   51.7831  -15.1051   -5.7661 C   0  0  0  0  0  0  0  0  0  0  0  0
   46.5659  -16.5526   -6.6786 C   0  0  0  0  0  0  0  0  0  0  0  0
   52.9120  -17.2431   -5.6726 C   0  0  0  0  0  0  0  0  0  0  0  0
   46.6979  -18.9672   -6.7595 C   0  0  0  0  0  0  0  0  0  0  0  0
   52.8219  -15.9061   -5.2848 C   0  0  0  0  0  0  0  0  0  0  0  0
   45.9781  -17.8047   -6.4818 C   0  0  0  0  0  0  0  0  0  0  0  0
   47.7639  -14.2947   -7.5822 H   0  0  0  0  0  0  0  0  0  0  0  0
   49.9719  -13.6821   -7.1960 H   0  0  0  0  0  0  0  0  0  0  0  0
   51.6092  -16.6276  -10.4132 H   0  0  0  0  0  0  0  0  0  0  0  0
   52.4458  -17.5211   -9.1085 H   0  0  0  0  0  0  0  0  0  0  0  0
   48.9364  -17.3692  -10.8807 H   0  0  0  0  0  0  0  0  0  0  0  0
   48.2979  -18.6719   -9.8338 H   0  0  0  0  0  0  0  0  0  0  0  0
   53.0121  -18.4014  -11.3335 H   0  0  0  0  0  0  0  0  0  0  0  0
   52.2354  -19.6501  -10.2932 H   0  0  0  0  0  0  0  0  0  0  0  0
   49.9083  -20.2957  -10.7001 H   0  0  0  0  0  0  0  0  0  0  0  0
   48.9855  -19.5187  -12.0378 H   0  0  0  0  0  0  0  0  0  0  0  0
   48.5491  -19.7894   -7.4681 H   0  0  0  0  0  0  0  0  0  0  0  0
   52.0561  -18.8164   -6.8549 H   0  0  0  0  0  0  0  0  0  0  0  0
   52.3921  -19.5293  -13.3705 H   0  0  0  0  0  0  0  0  0  0  0  0
   51.6533  -20.8684  -12.4004 H   0  0  0  0  0  0  0  0  0  0  0  0
   50.6934  -20.0006  -13.6677 H   0  0  0  0  0  0  0  0  0  0  0  0
   51.7241  -14.0723   -5.4443 H   0  0  0  0  0  0  0  0  0  0  0  0
   45.9944  -15.6619   -6.4465 H   0  0  0  0  0  0  0  0  0  0  0  0
   53.7120  -17.8645   -5.2913 H   0  0  0  0  0  0  0  0  0  0  0  0
   46.2442  -19.9364   -6.5973 H   0  0  0  0  0  0  0  0  0  0  0  0
   53.5544  -15.4904   -4.6049 H   0  0  0  0  0  0  0  0  0  0  0  0
   44.9649  -17.8734   -6.1072 H   0  0  0  0  0  0  0  0  0  0  0  0
  2  1  1  0
  3  1  1  0
  4  1  2  3
  5  9  1  0
  6  8  1  0
  7 13  1  0
  8  3  2  0
  9  2  2  0
 10  4  1  0
 11  4  1  0
 12 10  1  0
 13 11  1  0
 14  2  1  0
 15  3  1  0
 16  7  1  0
 17  8  1  0
 18  9  1  0
 19 15  2  0
 20 14  2  0
 21 19  1  0
 22 20  1  0
  7 12  1  0
  6  5  2  0
 21 17  2  0
 22 18  2  0
  5 23  1  0
  6 24  1  0
 10 25  1  0
 10 26  1  0
 11 27  1  0
 11 28  1  0
 12 29  1  0
 12 30  1  0
 13 31  1  0
 13 32  1  0
 14 33  1  0
 15 34  1  0
 16 35  1  0
 16 36  1  0
 16 37  1  0
 17 38  1  0
 18 39  1  0
 19 40  1  0
 20 41  1  0
 21 42  1  0
 22 43  1  0
M  END
> <Uni-Dock RESULT> 
ENERGY=   -5.613  LOWER_BOUND=    0.658  UPPER_BOUND=    0.662
INTER + INTRA:          -5.613
INTER:                  -5.613
INTRA:                   0.000
UNBOUND:                 0.000

$$$$

     RDKit          3D

 43 46  0  0  0  0  0  0  0  0999 V2000
   48.0445  -17.1711   -8.0471 C   0  0  0  0  0  0  0  0  0  0  0  0
   49.0249  -16.2268   -7.4857 C   0  0  0  0  0  0  0  0  0  0  0  0
   47.5130  -18.1439   -7.0780 C   0  0  0  0  0  0  0  0  0  0  0  0
   47.7374  -17.2109   -9.3733 C   0  0  0  0  0  0  0  0  0  0  0  0
   50.6406  -18.1277   -6.9983 C   0  0  0  0  0  0  0  0  0  0  0  0
   49.8198  -19.1685   -6.7770 C   0  0  0  0  0  0  0  0  0  0  0  0
   46.8431  -17.0869  -12.1068 N   0  0  0  0  0  0  0  0  0  0  0  0
   48.3709  -19.0828   -6.4649 C   0  0  0  0  0  0  0  0  0  0  0  0
   50.2544  -16.6943   -6.9728 C   0  0  0  0  0  0  0  0  0  0  0  0
   46.8920  -18.3216   -9.9671 C   0  0  0  0  0  0  0  0  0  0  0  0
   48.4540  -16.3406  -10.3883 C   0  0  0  0  0  0  0  0  0  0  0  0
   46.0167  -17.7826  -11.1019 C   0  0  0  0  0  0  0  0  0  0  0  0
   47.4935  -15.9097  -11.5001 C   0  0  0  0  0  0  0  0  0  0  0  0
   48.7090  -14.8600   -7.4076 C   0  0  0  0  0  0  0  0  0  0  0  0
   46.1555  -18.0983   -6.7192 C   0  0  0  0  0  0  0  0  0  0  0  0
   46.0037  -16.6658  -13.2390 C   0  0  0  0  0  0  0  0  0  0  0  0
   47.8278  -20.0174   -5.5673 C   0  0  0  0  0  0  0  0  0  0  0  0
   51.1811  -15.7648   -6.4715 C   0  0  0  0  0  0  0  0  0  0  0  0
   45.6372  -19.0183   -5.8065 C   0  0  0  0  0  0  0  0  0  0  0  0
   49.6313  -13.9531   -6.8835 C   0  0  0  0  0  0  0  0  0  0  0  0
   46.4703  -19.9821   -5.2381 C   0  0  0  0  0  0  0  0  0  0  0  0
   50.8692  -14.4038   -6.4242 C   0  0  0  0  0  0  0  0  0  0  0  0
   51.6960  -18.3500   -7.1052 H   0  0  0  0  0  0  0  0  0  0  0  0
   50.2769  -20.1498   -6.7226 H   0  0  0  0  0  0  0  0  0  0  0  0
   47.5697  -19.1060  -10.3679 H   0  0  0  0  0  0  0  0  0  0  0  0
   46.2239  -18.8047   -9.2285 H   0  0  0  0  0  0  0  0  0  0  0  0
   49.2876  -16.9273  -10.8312 H   0  0  0  0  0  0  0  0  0  0  0  0
   48.8899  -15.4237   -9.9472 H   0  0  0  0  0  0  0  0  0  0  0  0
   45.4958  -18.6465  -11.5719 H   0  0  0  0  0  0  0  0  0  0  0  0
   45.2406  -17.1013  -10.6818 H   0  0  0  0  0  0  0  0  0  0  0  0
   46.7363  -15.2045  -11.0851 H   0  0  0  0  0  0  0  0  0  0  0  0
   48.0839  -15.3643  -12.2697 H   0  0  0  0  0  0  0  0  0  0  0  0
   47.7526  -14.4985   -7.7657 H   0  0  0  0  0  0  0  0  0  0  0  0
   45.4985  -17.3571   -7.1580 H   0  0  0  0  0  0  0  0  0  0  0  0
   45.5351  -17.5521  -13.7181 H   0  0  0  0  0  0  0  0  0  0  0  0
   45.2033  -15.9650  -12.9113 H   0  0  0  0  0  0  0  0  0  0  0  0
   46.6268  -16.1675  -14.0126 H   0  0  0  0  0  0  0  0  0  0  0  0
   48.4605  -20.7666   -5.1066 H   0  0  0  0  0  0  0  0  0  0  0  0
   52.1432  -16.0963   -6.0997 H   0  0  0  0  0  0  0  0  0  0  0  0
   44.5879  -18.9865   -5.5430 H   0  0  0  0  0  0  0  0  0  0  0  0
   49.3877  -12.8994   -6.8372 H   0  0  0  0  0  0  0  0  0  0  0  0
   46.0656  -20.6997   -4.5361 H   0  0  0  0  0  0  0  0  0  0  0  0
   51.5864  -13.6984   -6.0247 H   0  0  0  0  0  0  0  0  0  0  0  0
  2  1  1  0
  3  1  1  0
  4  1  2  3
  5  9  1  0
  6  8  1  0
  7 13  1  0
  8  3  2  0
  9  2  2  0
 10  4  1  0
 11  4  1  0
 12 10  1  0
 13 11  1  0
 14  2  1  0
 15  3  1  0
 16  7  1  0
 17  8  1  0
 18  9  1  0
 19 15  2  0
 20 14  2  0
 21 19  1  0
 22 20  1  0
  7 12  1  0
  6  5  2  0
 21 17  2  0
 22 18  2  0
  5 23  1  0
  6 24  1  0
 10 25  1  0
 10 26  1  0
 11 27  1  0
 11 28  1  0
 12 29  1  0
 12 30  1  0
 13 31  1  0
 13 32  1  0
 14 33  1  0
 15 34  1  0
 16 35  1  0
 16 36  1  0
 16 37  1  0
 17 38  1  0
 18 39  1  0
 19 40  1  0
 20 41  1  0
 21 42  1  0
 22 43  1  0
M  END
> <Uni-Dock RESULT> 
ENERGY=   -5.234  LOWER_BOUND=    2.397  UPPER_BOUND=    5.016
INTER + INTRA:          -5.234
INTER:                  -5.234
INTRA:                   0.000
UNBOUND:                 0.000

$$$$

     RDKit          3D

 43 46  0  0  0  0  0  0  0  0999 V2000
   50.4446  -17.4166   -7.6159 C   0  0  0  0  0  0  0  0  0  0  0  0
   51.2206  -17.6925   -6.3953 C   0  0  0  0  0  0  0  0  0  0  0  0
   49.0491  -17.0154   -7.3719 C   0  0  0  0  0  0  0  0  0  0  0  0
   50.9435  -17.6206   -8.8666 C   0  0  0  0  0  0  0  0  0  0  0  0
   49.7078  -19.6543   -5.8257 C   0  0  0  0  0  0  0  0  0  0  0  0
   48.5290  -19.2868   -6.3560 C   0  0  0  0  0  0  0  0  0  0  0  0
   52.0931  -17.7367  -11.5033 N   0  0  0  0  0  0  0  0  0  0  0  0
   48.1464  -17.9090   -6.7553 C   0  0  0  0  0  0  0  0  0  0  0  0
   50.8517  -18.7525   -5.5387 C   0  0  0  0  0  0  0  0  0  0  0  0
   50.0678  -17.5364  -10.1023 C   0  0  0  0  0  0  0  0  0  0  0  0
   52.3114  -18.2359   -9.0932 C   0  0  0  0  0  0  0  0  0  0  0  0
   50.8568  -16.9624  -11.2822 C   0  0  0  0  0  0  0  0  0  0  0  0
   52.9782  -17.6237  -10.3281 C   0  0  0  0  0  0  0  0  0  0  0  0
   52.2984  -16.8591   -6.0525 C   0  0  0  0  0  0  0  0  0  0  0  0
   48.6306  -15.7156   -7.7021 C   0  0  0  0  0  0  0  0  0  0  0  0
   52.7870  -17.2388  -12.7009 C   0  0  0  0  0  0  0  0  0  0  0  0
   46.8138  -17.5070   -6.5637 C   0  0  0  0  0  0  0  0  0  0  0  0
   51.6304  -19.0088   -4.3976 C   0  0  0  0  0  0  0  0  0  0  0  0
   47.3093  -15.3240   -7.4818 C   0  0  0  0  0  0  0  0  0  0  0  0
   53.0463  -17.1126   -4.9017 C   0  0  0  0  0  0  0  0  0  0  0  0
   46.3999  -16.2214   -6.9216 C   0  0  0  0  0  0  0  0  0  0  0  0
   52.7181  -18.1914   -4.0801 C   0  0  0  0  0  0  0  0  0  0  0  0
   49.7936  -20.6799   -5.4856 H   0  0  0  0  0  0  0  0  0  0  0  0
   47.7552  -20.0444   -6.4023 H   0  0  0  0  0  0  0  0  0  0  0  0
   49.7183  -18.5600  -10.3583 H   0  0  0  0  0  0  0  0  0  0  0  0
   49.1703  -16.9044   -9.9595 H   0  0  0  0  0  0  0  0  0  0  0  0
   52.1859  -19.3292   -9.2486 H   0  0  0  0  0  0  0  0  0  0  0  0
   52.9996  -18.0982   -8.2372 H   0  0  0  0  0  0  0  0  0  0  0  0
   50.2091  -17.0165  -12.1854 H   0  0  0  0  0  0  0  0  0  0  0  0
   51.0870  -15.8888  -11.0888 H   0  0  0  0  0  0  0  0  0  0  0  0
   53.2354  -16.5586  -10.1226 H   0  0  0  0  0  0  0  0  0  0  0  0
   53.9266  -18.1754  -10.5136 H   0  0  0  0  0  0  0  0  0  0  0  0
   52.5650  -16.0215   -6.6858 H   0  0  0  0  0  0  0  0  0  0  0  0
   49.3273  -15.0121   -8.1420 H   0  0  0  0  0  0  0  0  0  0  0  0
   52.1353  -17.3494  -13.5942 H   0  0  0  0  0  0  0  0  0  0  0  0
   53.0705  -16.1681  -12.5892 H   0  0  0  0  0  0  0  0  0  0  0  0
   53.7036  -17.8384  -12.8890 H   0  0  0  0  0  0  0  0  0  0  0  0
   46.0952  -18.1855   -6.1197 H   0  0  0  0  0  0  0  0  0  0  0  0
   51.3849  -19.8347   -3.7408 H   0  0  0  0  0  0  0  0  0  0  0  0
   46.9891  -14.3253   -7.7496 H   0  0  0  0  0  0  0  0  0  0  0  0
   53.8834  -16.4748   -4.6489 H   0  0  0  0  0  0  0  0  0  0  0  0
   45.3736  -15.9189   -6.7582 H   0  0  0  0  0  0  0  0  0  0  0  0
   53.3034  -18.3913   -3.1918 H   0  0  0  0  0  0  0  0  0  0  0  0
  2  1  1  0
  3  1  1  0
  4  1  2  3
  5  9  1  0
  6  8  1  0
  7 13  1  0
  8  3  2  0
  9  2  2  0
 10  4  1  0
 11  4  1  0
 12 10  1  0
 13 11  1  0
 14  2  1  0
 15  3  1  0
 16  7  1  0
 17  8  1  0
 18  9  1  0
 19 15  2  0
 20 14  2  0
 21 19  1  0
 22 20  1  0
  7 12  1  0
  6  5  2  0
 21 17  2  0
 22 18  2  0
  5 23  1  0
  6 24  1  0
 10 25  1  0
 10 26  1  0
 11 27  1  0
 11 28  1  0
 12 29  1  0
 12 30  1  0
 13 31  1  0
 13 32  1  0
 14 33  1  0
 15 34  1  0
 16 35  1  0
 16 36  1  0
 16 37  1  0
 17 38  1  0
 18 39  1  0
 19 40  1  0
 20 41  1  0
 21 42  1  0
 22 43  1  0
M  END
> <Uni-Dock RESULT> 
ENERGY=   -5.223  LOWER_BOUND=    1.380  UPPER_BOUND=    4.481
INTER + INTRA:          -5.223
INTER:                  -5.223
INTRA:                   0.000
UNBOUND:                 0.000

$$$$

     RDKit          3D

 43 46  0  0  0  0  0  0  0  0999 V2000
   47.1412  -16.1067  -10.7608 C   0  0  0  0  0  0  0  0  0  0  0  0
   46.9168  -16.3048   -9.3191 C   0  0  0  0  0  0  0  0  0  0  0  0
   45.9679  -15.6054  -11.4958 C   0  0  0  0  0  0  0  0  0  0  0  0
   48.3014  -16.4602  -11.3801 C   0  0  0  0  0  0  0  0  0  0  0  0
   45.1938  -18.1128   -9.7923 C   0  0  0  0  0  0  0  0  0  0  0  0
   44.6787  -17.7331  -10.9740 C   0  0  0  0  0  0  0  0  0  0  0  0
   50.8551  -16.8991  -12.6344 N   0  0  0  0  0  0  0  0  0  0  0  0
   44.7916  -16.3818  -11.5784 C   0  0  0  0  0  0  0  0  0  0  0  0
   45.9737  -17.2531   -8.8666 C   0  0  0  0  0  0  0  0  0  0  0  0
   48.4393  -16.4484  -12.8907 C   0  0  0  0  0  0  0  0  0  0  0  0
   49.4197  -17.1709  -10.6417 C   0  0  0  0  0  0  0  0  0  0  0  0
   49.8572  -16.0384  -13.2978 C   0  0  0  0  0  0  0  0  0  0  0  0
   50.7841  -16.7215  -11.1713 C   0  0  0  0  0  0  0  0  0  0  0  0
   47.6035  -15.5039   -8.3913 C   0  0  0  0  0  0  0  0  0  0  0  0
   46.0009  -14.3227  -12.0679 C   0  0  0  0  0  0  0  0  0  0  0  0
   52.2040  -16.5611  -13.1138 C   0  0  0  0  0  0  0  0  0  0  0  0
   43.6998  -15.8884  -12.3125 C   0  0  0  0  0  0  0  0  0  0  0  0
   45.8045  -17.4397   -7.4843 C   0  0  0  0  0  0  0  0  0  0  0  0
   44.8981  -13.8374  -12.7725 C   0  0  0  0  0  0  0  0  0  0  0  0
   47.4050  -15.6851   -7.0218 C   0  0  0  0  0  0  0  0  0  0  0  0
   43.7525  -14.6228  -12.9022 C   0  0  0  0  0  0  0  0  0  0  0  0
   46.5133  -16.6578   -6.5688 C   0  0  0  0  0  0  0  0  0  0  0  0
   44.9311  -19.1032   -9.4388 H   0  0  0  0  0  0  0  0  0  0  0  0
   44.0404  -18.4467  -11.4822 H   0  0  0  0  0  0  0  0  0  0  0  0
   48.2294  -17.4708  -13.2728 H   0  0  0  0  0  0  0  0  0  0  0  0
   47.7337  -15.7557  -13.3884 H   0  0  0  0  0  0  0  0  0  0  0  0
   49.3078  -18.2655  -10.7994 H   0  0  0  0  0  0  0  0  0  0  0  0
   49.4069  -16.9890   -9.5498 H   0  0  0  0  0  0  0  0  0  0  0  0
   49.9399  -16.1442  -14.4024 H   0  0  0  0  0  0  0  0  0  0  0  0
   50.0221  -14.9657  -13.0426 H   0  0  0  0  0  0  0  0  0  0  0  0
   50.9608  -15.6576  -10.8890 H   0  0  0  0  0  0  0  0  0  0  0  0
   51.5644  -17.3414  -10.6761 H   0  0  0  0  0  0  0  0  0  0  0  0
   48.3018  -14.7489   -8.7319 H   0  0  0  0  0  0  0  0  0  0  0  0
   46.8872  -13.7062  -11.9774 H   0  0  0  0  0  0  0  0  0  0  0  0
   52.2713  -16.7219  -14.2113 H   0  0  0  0  0  0  0  0  0  0  0  0
   52.4615  -15.5023  -12.8859 H   0  0  0  0  0  0  0  0  0  0  0  0
   52.9567  -17.2270  -12.6393 H   0  0  0  0  0  0  0  0  0  0  0  0
   42.7970  -16.4784  -12.4151 H   0  0  0  0  0  0  0  0  0  0  0  0
   45.1084  -18.1821   -7.1128 H   0  0  0  0  0  0  0  0  0  0  0  0
   44.9335  -12.8534  -13.2219 H   0  0  0  0  0  0  0  0  0  0  0  0
   47.9461  -15.0738   -6.3110 H   0  0  0  0  0  0  0  0  0  0  0  0
   42.9007  -14.2483  -13.4551 H   0  0  0  0  0  0  0  0  0  0  0  0
   46.3658  -16.8023   -5.5063 H   0  0  0  0  0  0  0  0  0  0  0  0
  2  1  1  0
  3  1  1  0
  4  1  2  3
  5  9  1  0
  6  8  1  0
  7 13  1  0
  8  3  2  0
  9  2  2  0
 10  4  1  0
 11  4  1  0
 12 10  1  0
 13 11  1  0
 14  2  1  0
 15  3  1  0
 16  7  1  0
 17  8  1  0
 18  9  1  0
 19 15  2  0
 20 14  2  0
 21 19  1  0
 22 20  1  0
  7 12  1  0
  6  5  2  0
 21 17  2  0
 22 18  2  0
  5 23  1  0
  6 24  1  0
 10 25  1  0
 10 26  1  0
 11 27  1  0
 11 28  1  0
 12 29  1  0
 12 30  1  0
 13 31  1  0
 13 32  1  0
 14 33  1  0
 15 34  1  0
 16 35  1  0
 16 36  1  0
 16 37  1  0
 17 38  1  0
 18 39  1  0
 19 40  1  0
 20 41  1  0
 21 42  1  0
 22 43  1  0
M  END
> <Uni-Dock RESULT> 
ENERGY=   -4.959  LOWER_BOUND=    3.935  UPPER_BOUND=    6.221
INTER + INTRA:          -4.959
INTER:                  -4.959
INTRA:                   0.000
UNBOUND:                 0.000

$$$$

     RDKit          3D

 43 46  0  0  0  0  0  0  0  0999 V2000
   46.3909  -16.4979  -10.3723 C   0  0  0  0  0  0  0  0  0  0  0  0
   46.5006  -15.6509  -11.5718 C   0  0  0  0  0  0  0  0  0  0  0  0
   47.3478  -16.1657   -9.3036 C   0  0  0  0  0  0  0  0  0  0  0  0
   45.5500  -17.5667  -10.3008 C   0  0  0  0  0  0  0  0  0  0  0  0
   48.8430  -16.5263  -12.0280 C   0  0  0  0  0  0  0  0  0  0  0  0
   49.3029  -16.8058  -10.7967 C   0  0  0  0  0  0  0  0  0  0  0  0
   43.5513  -19.6195  -10.0202 N   0  0  0  0  0  0  0  0  0  0  0  0
   48.7363  -16.3005   -9.5209 C   0  0  0  0  0  0  0  0  0  0  0  0
   47.6808  -15.6591  -12.3466 C   0  0  0  0  0  0  0  0  0  0  0  0
   45.6013  -18.5511   -9.1479 C   0  0  0  0  0  0  0  0  0  0  0  0
   44.7259  -18.0190  -11.4914 C   0  0  0  0  0  0  0  0  0  0  0  0
   44.1973  -19.0636   -8.8158 C   0  0  0  0  0  0  0  0  0  0  0  0
   43.3696  -18.5606  -11.0316 C   0  0  0  0  0  0  0  0  0  0  0  0
   45.4463  -14.7872  -11.9126 C   0  0  0  0  0  0  0  0  0  0  0  0
   46.8773  -15.6568   -8.0816 C   0  0  0  0  0  0  0  0  0  0  0  0
   42.2473  -20.2000   -9.6649 C   0  0  0  0  0  0  0  0  0  0  0  0
   49.6220  -16.0042   -8.4711 C   0  0  0  0  0  0  0  0  0  0  0  0
   47.7428  -14.8622  -13.5022 C   0  0  0  0  0  0  0  0  0  0  0  0
   47.7726  -15.3436   -7.0578 C   0  0  0  0  0  0  0  0  0  0  0  0
   45.5343  -13.9833  -13.0502 C   0  0  0  0  0  0  0  0  0  0  0  0
   49.1425  -15.5255   -7.2492 C   0  0  0  0  0  0  0  0  0  0  0  0
   46.6774  -14.0274  -13.8488 C   0  0  0  0  0  0  0  0  0  0  0  0
   49.4327  -16.8839  -12.8642 H   0  0  0  0  0  0  0  0  0  0  0  0
   50.2281  -17.3672  -10.7351 H   0  0  0  0  0  0  0  0  0  0  0  0
   46.2441  -19.4084   -9.4433 H   0  0  0  0  0  0  0  0  0  0  0  0
   46.0282  -18.1184   -8.2227 H   0  0  0  0  0  0  0  0  0  0  0  0
   45.2813  -18.8233  -12.0207 H   0  0  0  0  0  0  0  0  0  0  0  0
   44.5341  -17.2103  -12.2225 H   0  0  0  0  0  0  0  0  0  0  0  0
   44.2967  -19.8549   -8.0397 H   0  0  0  0  0  0  0  0  0  0  0  0
   43.5907  -18.2338   -8.3841 H   0  0  0  0  0  0  0  0  0  0  0  0
   42.7525  -17.7244  -10.6281 H   0  0  0  0  0  0  0  0  0  0  0  0
   42.8462  -18.9734  -11.9226 H   0  0  0  0  0  0  0  0  0  0  0  0
   44.5520  -14.7484  -11.3023 H   0  0  0  0  0  0  0  0  0  0  0  0
   45.8152  -15.5162   -7.9204 H   0  0  0  0  0  0  0  0  0  0  0  0
   42.3818  -21.0185   -8.9255 H   0  0  0  0  0  0  0  0  0  0  0  0
   41.5653  -19.4320   -9.2358 H   0  0  0  0  0  0  0  0  0  0  0  0
   41.7698  -20.6467  -10.5635 H   0  0  0  0  0  0  0  0  0  0  0  0
   50.6901  -16.1280   -8.6039 H   0  0  0  0  0  0  0  0  0  0  0  0
   48.6263  -14.8738  -14.1291 H   0  0  0  0  0  0  0  0  0  0  0  0
   47.4038  -14.9636   -6.1138 H   0  0  0  0  0  0  0  0  0  0  0  0
   44.7139  -13.3288  -13.3151 H   0  0  0  0  0  0  0  0  0  0  0  0
   49.8353  -15.2892   -6.4519 H   0  0  0  0  0  0  0  0  0  0  0  0
   46.7413  -13.4089  -14.7348 H   0  0  0  0  0  0  0  0  0  0  0  0
  2  1  1  0
  3  1  1  0
  4  1  2  3
  5  9  1  0
  6  8  1  0
  7 13  1  0
  8  3  2  0
  9  2  2  0
 10  4  1  0
 11  4  1  0
 12 10  1  0
 13 11  1  0
 14  2  1  0
 15  3  1  0
 16  7  1  0
 17  8  1  0
 18  9  1  0
 19 15  2  0
 20 14  2  0
 21 19  1  0
 22 20  1  0
  7 12  1  0
  6  5  2  0
 21 17  2  0
 22 18  2  0
  5 23  1  0
  6 24  1  0
 10 25  1  0
 10 26  1  0
 11 27  1  0
 11 28  1  0
 12 29  1  0
 12 30  1  0
 13 31  1  0
 13 32  1  0
 14 33  1  0
 15 34  1  0
 16 35  1  0
 16 36  1  0
 16 37  1  0
 17 38  1  0
 18 39  1  0
 19 40  1  0
 20 41  1  0
 21 42  1  0
 22 43  1  0
M  END
> <Uni-Dock RESULT> 
ENERGY=   -4.449  LOWER_BOUND=    4.288  UPPER_BOUND=    6.243
INTER + INTRA:          -4.449
INTER:                  -4.449
INTRA:                   0.000
UNBOUND:                 0.000

$$$$

     RDKit          3D

 43 46  0  0  0  0  0  0  0  0999 V2000
   45.0128  -14.3865  -12.5648 C   0  0  0  0  0  0  0  0  0  0  0  0
   45.1721  -15.5735  -11.7082 C   0  0  0  0  0  0  0  0  0  0  0  0
   43.7547  -13.6505  -12.3565 C   0  0  0  0  0  0  0  0  0  0  0  0
   45.9032  -14.0598  -13.5421 C   0  0  0  0  0  0  0  0  0  0  0  0
   43.1731  -16.6907  -12.8113 C   0  0  0  0  0  0  0  0  0  0  0  0
   42.4036  -15.6468  -13.1633 C   0  0  0  0  0  0  0  0  0  0  0  0
   47.9355  -13.1823  -15.3826 N   0  0  0  0  0  0  0  0  0  0  0  0
   42.5136  -14.2658  -12.6296 C   0  0  0  0  0  0  0  0  0  0  0  0
   44.2796  -16.6615  -11.8219 C   0  0  0  0  0  0  0  0  0  0  0  0
   45.6191  -12.9633  -14.5511 C   0  0  0  0  0  0  0  0  0  0  0  0
   47.0836  -14.9501  -13.8811 C   0  0  0  0  0  0  0  0  0  0  0  0
   46.9092  -12.2273  -14.9226 C   0  0  0  0  0  0  0  0  0  0  0  0
   48.2940  -14.1058  -14.2891 C   0  0  0  0  0  0  0  0  0  0  0  0
   46.1831  -15.5972  -10.7328 C   0  0  0  0  0  0  0  0  0  0  0  0
   43.7889  -12.3492  -11.8280 C   0  0  0  0  0  0  0  0  0  0  0  0
   49.1309  -12.4528  -15.8325 C   0  0  0  0  0  0  0  0  0  0  0  0
   41.3324  -13.5265  -12.4492 C   0  0  0  0  0  0  0  0  0  0  0  0
   44.4766  -17.7919  -11.0110 C   0  0  0  0  0  0  0  0  0  0  0  0
   42.6044  -11.6378  -11.6312 C   0  0  0  0  0  0  0  0  0  0  0  0
   46.3493  -16.7182   -9.9182 C   0  0  0  0  0  0  0  0  0  0  0  0
   41.3784  -12.2224  -11.9498 C   0  0  0  0  0  0  0  0  0  0  0  0
   45.5027  -17.8177  -10.0632 C   0  0  0  0  0  0  0  0  0  0  0  0
   42.8963  -17.6599  -13.2099 H   0  0  0  0  0  0  0  0  0  0  0  0
   41.5657  -15.8548  -13.8186 H   0  0  0  0  0  0  0  0  0  0  0  0
   45.1855  -13.4263  -15.4637 H   0  0  0  0  0  0  0  0  0  0  0  0
   44.8961  -12.2093  -14.1849 H   0  0  0  0  0  0  0  0  0  0  0  0
   46.7963  -15.6115  -14.7270 H   0  0  0  0  0  0  0  0  0  0  0  0
   47.3957  -15.6004  -13.0414 H   0  0  0  0  0  0  0  0  0  0  0  0
   46.6699  -11.5070  -15.7364 H   0  0  0  0  0  0  0  0  0  0  0  0
   47.2713  -11.6443  -14.0439 H   0  0  0  0  0  0  0  0  0  0  0  0
   48.6736  -13.5468  -13.4024 H   0  0  0  0  0  0  0  0  0  0  0  0
   49.0965  -14.7989  -14.6263 H   0  0  0  0  0  0  0  0  0  0  0  0
   46.8491  -14.7510  -10.6148 H   0  0  0  0  0  0  0  0  0  0  0  0
   44.7357  -11.8838  -11.5817 H   0  0  0  0  0  0  0  0  0  0  0  0
   48.8719  -11.7776  -16.6763 H   0  0  0  0  0  0  0  0  0  0  0  0
   49.5719  -11.8495  -15.0074 H   0  0  0  0  0  0  0  0  0  0  0  0
   49.8957  -13.1663  -16.2080 H   0  0  0  0  0  0  0  0  0  0  0  0
   40.3698  -13.9668  -12.6800 H   0  0  0  0  0  0  0  0  0  0  0  0
   43.8227  -18.6511  -11.1006 H   0  0  0  0  0  0  0  0  0  0  0  0
   42.6373  -10.6309  -11.2355 H   0  0  0  0  0  0  0  0  0  0  0  0
   47.1377  -16.7363   -9.1768 H   0  0  0  0  0  0  0  0  0  0  0  0
   40.4610  -11.6670  -11.8036 H   0  0  0  0  0  0  0  0  0  0  0  0
   45.6373  -18.6893   -9.4357 H   0  0  0  0  0  0  0  0  0  0  0  0
  2  1  1  0
  3  1  1  0
  4  1  2  3
  5  9  1  0
  6  8  1  0
  7 13  1  0
  8  3  2  0
  9  2  2  0
 10  4  1  0
 11  4  1  0
 12 10  1  0
 13 11  1  0
 14  2  1  0
 15  3  1  0
 16  7  1  0
 17  8  1  0
 18  9  1  0
 19 15  2  0
 20 14  2  0
 21 19  1  0
 22 20  1  0
  7 12  1  0
  6  5  2  0
 21 17  2  0
 22 18  2  0
  5 23  1  0
  6 24  1  0
 10 25  1  0
 10 26  1  0
 11 27  1  0
 11 28  1  0
 12 29  1  0
 12 30  1  0
 13 31  1  0
 13 32  1  0
 14 33  1  0
 15 34  1  0
 16 35  1  0
 16 36  1  0
 16 37  1  0
 17 38  1  0
 18 39  1  0
 19 40  1  0
 20 41  1  0
 21 42  1  0
 22 43  1  0
M  END
> <Uni-Dock RESULT> 
ENERGY=   -4.070  LOWER_BOUND=    6.721  UPPER_BOUND=    8.859
INTER + INTRA:          -4.070
INTER:                  -4.070
INTRA:                   0.000
UNBOUND:                 0.000

$$$$

     RDKit          3D

 43 46  0  0  0  0  0  0  0  0999 V2000
   47.9411  -16.5220  -10.4163 C   0  0  0  0  0  0  0  0  0  0  0  0
   49.1508  -17.3272  -10.6537 C   0  0  0  0  0  0  0  0  0  0  0  0
   47.4107  -16.6108   -9.0456 C   0  0  0  0  0  0  0  0  0  0  0  0
   47.3050  -15.8398  -11.4085 C   0  0  0  0  0  0  0  0  0  0  0  0
   47.8581  -19.4736  -10.2256 C   0  0  0  0  0  0  0  0  0  0  0  0
   46.9134  -19.0846   -9.3526 C   0  0  0  0  0  0  0  0  0  0  0  0
   46.1453  -14.1390  -13.4210 N   0  0  0  0  0  0  0  0  0  0  0  0
   46.9374  -17.8416   -8.5412 C   0  0  0  0  0  0  0  0  0  0  0  0
   49.1053  -18.7341  -10.5447 C   0  0  0  0  0  0  0  0  0  0  0  0
   45.9495  -15.1932  -11.1949 C   0  0  0  0  0  0  0  0  0  0  0  0
   47.7475  -15.9333  -12.8565 C   0  0  0  0  0  0  0  0  0  0  0  0
   45.8410  -13.8943  -11.9982 C   0  0  0  0  0  0  0  0  0  0  0  0
   47.5411  -14.5940  -13.5692 C   0  0  0  0  0  0  0  0  0  0  0  0
   50.3695  -16.6865  -10.9331 C   0  0  0  0  0  0  0  0  0  0  0  0
   47.4303  -15.4765   -8.2169 C   0  0  0  0  0  0  0  0  0  0  0  0
   45.9368  -12.9062  -14.1957 C   0  0  0  0  0  0  0  0  0  0  0  0
   46.4097  -17.8868   -7.2398 C   0  0  0  0  0  0  0  0  0  0  0  0
   50.2695  -19.4758  -10.8069 C   0  0  0  0  0  0  0  0  0  0  0  0
   46.9252  -15.5449   -6.9176 C   0  0  0  0  0  0  0  0  0  0  0  0
   51.5226  -17.4375  -11.1663 C   0  0  0  0  0  0  0  0  0  0  0  0
   46.4074  -16.7462   -6.4328 C   0  0  0  0  0  0  0  0  0  0  0  0
   51.4706  -18.8306  -11.1120 C   0  0  0  0  0  0  0  0  0  0  0  0
   47.7481  -20.4609  -10.6591 H   0  0  0  0  0  0  0  0  0  0  0  0
   46.1145  -19.7885   -9.1495 H   0  0  0  0  0  0  0  0  0  0  0  0
   45.1627  -15.9010  -11.5346 H   0  0  0  0  0  0  0  0  0  0  0  0
   45.7435  -14.9504  -10.1348 H   0  0  0  0  0  0  0  0  0  0  0  0
   47.1402  -16.7149  -13.3620 H   0  0  0  0  0  0  0  0  0  0  0  0
   48.8123  -16.2136  -12.9706 H   0  0  0  0  0  0  0  0  0  0  0  0
   44.8008  -13.5131  -11.8932 H   0  0  0  0  0  0  0  0  0  0  0  0
   46.5310  -13.1317  -11.5676 H   0  0  0  0  0  0  0  0  0  0  0  0
   48.2526  -13.8404  -13.1586 H   0  0  0  0  0  0  0  0  0  0  0  0
   47.7799  -14.7393  -14.6462 H   0  0  0  0  0  0  0  0  0  0  0  0
   50.4203  -15.6054  -10.9825 H   0  0  0  0  0  0  0  0  0  0  0  0
   47.8257  -14.5373   -8.5848 H   0  0  0  0  0  0  0  0  0  0  0  0
   44.8792  -12.5758  -14.1115 H   0  0  0  0  0  0  0  0  0  0  0  0
   46.6020  -12.0872  -13.8407 H   0  0  0  0  0  0  0  0  0  0  0  0
   46.1359  -13.0930  -15.2730 H   0  0  0  0  0  0  0  0  0  0  0  0
   46.0133  -18.8130   -6.8411 H   0  0  0  0  0  0  0  0  0  0  0  0
   50.2523  -20.5580  -10.7585 H   0  0  0  0  0  0  0  0  0  0  0  0
   46.9313  -14.6648   -6.2877 H   0  0  0  0  0  0  0  0  0  0  0  0
   52.4562  -16.9391  -11.3934 H   0  0  0  0  0  0  0  0  0  0  0  0
   46.0092  -16.7961   -5.4276 H   0  0  0  0  0  0  0  0  0  0  0  0
   52.3639  -19.4120  -11.3003 H   0  0  0  0  0  0  0  0  0  0  0  0
  2  1  1  0
  3  1  1  0
  4  1  2  3
  5  9  1  0
  6  8  1  0
  7 13  1  0
  8  3  2  0
  9  2  2  0
 10  4  1  0
 11  4  1  0
 12 10  1  0
 13 11  1  0
 14  2  1  0
 15  3  1  0
 16  7  1  0
 17  8  1  0
 18  9  1  0
 19 15  2  0
 20 14  2  0
 21 19  1  0
 22 20  1  0
  7 12  1  0
  6  5  2  0
 21 17  2  0
 22 18  2  0
  5 23  1  0
  6 24  1  0
 10 25  1  0
 10 26  1  0
 11 27  1  0
 11 28  1  0
 12 29  1  0
 12 30  1  0
 13 31  1  0
 13 32  1  0
 14 33  1  0
 15 34  1  0
 16 35  1  0
 16 36  1  0
 16 37  1  0
 17 38  1  0
 18 39  1  0
 19 40  1  0
 20 41  1  0
 21 42  1  0
 22 43  1  0
M  END
> <Uni-Dock RESULT> 
ENERGY=   -4.051  LOWER_BOUND=    3.558  UPPER_BOUND=    6.168
INTER + INTRA:          -4.051
INTER:                  -4.051
INTRA:                   0.000
UNBOUND:                 0.000

$$$$
