
     RDKit          3D

 43 46  0  0  0  0  0  0  0  0999 V2000
   50.2329  -17.2539   -7.5785 C   0  0  0  0  0  0  0  0  0  0  0  0
   51.1626  -16.6242   -6.6235 C   0  0  0  0  0  0  0  0  0  0  0  0
   48.8105  -17.1688   -7.2009 C   0  0  0  0  0  0  0  0  0  0  0  0
   50.6505  -17.8201   -8.7456 C   0  0  0  0  0  0  0  0  0  0  0  0
   50.1371  -14.3374   -7.0520 C   0  0  0  0  0  0  0  0  0  0  0  0
   48.8646  -14.6321   -7.3644 C   0  0  0  0  0  0  0  0  0  0  0  0
   51.5071  -18.8020  -11.3098 N   0  0  0  0  0  0  0  0  0  0  0  0
   48.1726  -15.9144   -7.0837 C   0  0  0  0  0  0  0  0  0  0  0  0
   51.0971  -15.2373   -6.3658 C   0  0  0  0  0  0  0  0  0  0  0  0
   49.6743  -18.5141   -9.6798 C   0  0  0  0  0  0  0  0  0  0  0  0
   52.1272  -17.9459   -9.0780 C   0  0  0  0  0  0  0  0  0  0  0  0
   50.1015  -18.3920  -11.1443 C   0  0  0  0  0  0  0  0  0  0  0  0
   52.3817  -17.8639  -10.5848 C   0  0  0  0  0  0  0  0  0  0  0  0
   52.0973  -17.4184   -5.9373 C   0  0  0  0  0  0  0  0  0  0  0  0
   48.0947  -18.3450   -6.9196 C   0  0  0  0  0  0  0  0  0  0  0  0
   51.8595  -18.8105  -12.7381 C   0  0  0  0  0  0  0  0  0  0  0  0
   46.8062  -15.8721   -6.7585 C   0  0  0  0  0  0  0  0  0  0  0  0
   52.0233  -14.6644   -5.4778 C   0  0  0  0  0  0  0  0  0  0  0  0
   46.7440  -18.2832   -6.5744 C   0  0  0  0  0  0  0  0  0  0  0  0
   52.9940  -16.8363   -5.0405 C   0  0  0  0  0  0  0  0  0  0  0  0
   46.0986  -17.0488   -6.5011 C   0  0  0  0  0  0  0  0  0  0  0  0
   52.9619  -15.4600   -4.8165 C   0  0  0  0  0  0  0  0  0  0  0  0
   50.4604  -13.3179   -7.2283 H   0  0  0  0  0  0  0  0  0  0  0  0
   48.2613  -13.8271   -7.7681 H   0  0  0  0  0  0  0  0  0  0  0  0
   48.6539  -18.0827   -9.6048 H   0  0  0  0  0  0  0  0  0  0  0  0
   49.6203  -19.5885   -9.4016 H   0  0  0  0  0  0  0  0  0  0  0  0
   52.4945  -18.9228   -8.6963 H   0  0  0  0  0  0  0  0  0  0  0  0
   52.7265  -17.1394   -8.6054 H   0  0  0  0  0  0  0  0  0  0  0  0
   49.4387  -19.0509  -11.7484 H   0  0  0  0  0  0  0  0  0  0  0  0
   49.9469  -17.3439  -11.4920 H   0  0  0  0  0  0  0  0  0  0  0  0
   53.4494  -18.1219  -10.7643 H   0  0  0  0  0  0  0  0  0  0  0  0
   52.2220  -16.8170  -10.9336 H   0  0  0  0  0  0  0  0  0  0  0  0
   52.1337  -18.4882   -6.1034 H   0  0  0  0  0  0  0  0  0  0  0  0
   48.5836  -19.3101   -6.9744 H   0  0  0  0  0  0  0  0  0  0  0  0
   51.2186  -19.5344  -13.2859 H   0  0  0  0  0  0  0  0  0  0  0  0
   52.9120  -19.1419  -12.8705 H   0  0  0  0  0  0  0  0  0  0  0  0
   51.7371  -17.8014  -13.1922 H   0  0  0  0  0  0  0  0  0  0  0  0
   46.2880  -14.9230   -6.6906 H   0  0  0  0  0  0  0  0  0  0  0  0
   52.0110  -13.5981   -5.2858 H   0  0  0  0  0  0  0  0  0  0  0  0
   46.1962  -19.1933   -6.3673 H   0  0  0  0  0  0  0  0  0  0  0  0
   53.7171  -17.4523   -4.5216 H   0  0  0  0  0  0  0  0  0  0  0  0
   45.0490  -17.0027   -6.2407 H   0  0  0  0  0  0  0  0  0  0  0  0
   53.6630  -15.0086   -4.1264 H   0  0  0  0  0  0  0  0  0  0  0  0
  2  1  1  0
  3  1  1  0
  4  1  2  3
  5  9  1  0
  6  8  1  0
  7 13  1  0
  8  3  2  0
  9  2  2  0
 10  4  1  0
 11  4  1  0
 12 10  1  0
 13 11  1  0
 14  2  1  0
 15  3  1  0
 16  7  1  0
 17  8  1  0
 18  9  1  0
 19 15  2  0
 20 14  2  0
 21 19  1  0
 22 20  1  0
  7 12  1  0
  6  5  2  0
 21 17  2  0
 22 18  2  0
  5 23  1  0
  6 24  1  0
 10 25  1  0
 10 26  1  0
 11 27  1  0
 11 28  1  0
 12 29  1  0
 12 30  1  0
 13 31  1  0
 13 32  1  0
 14 33  1  0
 15 34  1  0
 16 35  1  0
 16 36  1  0
 16 37  1  0
 17 38  1  0
 18 39  1  0
 19 40  1  0
 20 41  1  0
 21 42  1  0
 22 43  1  0
M  END
> <Uni-Dock RESULT> 
ENERGY=   -6.312  LOWER_BOUND=    0.000  UPPER_BOUND=    0.000
INTER + INTRA:          -6.312
INTER:                  -6.312
INTRA:                   0.000
UNBOUND:                 0.000

$$$$

     RDKit          3D

 43 46  0  0  0  0  0  0  0  0999 V2000
   50.4034  -17.4923   -7.3432 C   0  0  0  0  0  0  0  0  0  0  0  0
   48.9954  -17.0956   -7.1614 C   0  0  0  0  0  0  0  0  0  0  0  0
   51.0843  -17.9298   -6.1111 C   0  0  0  0  0  0  0  0  0  0  0  0
   51.0108  -17.5070   -8.5630 C   0  0  0  0  0  0  0  0  0  0  0  0
   48.3694  -19.4525   -6.4418 C   0  0  0  0  0  0  0  0  0  0  0  0
   49.4995  -19.9038   -5.8737 C   0  0  0  0  0  0  0  0  0  0  0  0
   52.2161  -17.7614  -11.1621 N   0  0  0  0  0  0  0  0  0  0  0  0
   50.6347  -19.0691   -5.4083 C   0  0  0  0  0  0  0  0  0  0  0  0
   48.0376  -18.0320   -6.7142 C   0  0  0  0  0  0  0  0  0  0  0  0
   52.4802  -17.8630   -8.7088 C   0  0  0  0  0  0  0  0  0  0  0  0
   50.3018  -16.9935   -9.8042 C   0  0  0  0  0  0  0  0  0  0  0  0
   52.7713  -18.5475  -10.0464 C   0  0  0  0  0  0  0  0  0  0  0  0
   50.7462  -17.7391  -11.0646 C   0  0  0  0  0  0  0  0  0  0  0  0
   48.6120  -15.7647   -7.4005 C   0  0  0  0  0  0  0  0  0  0  0  0
   52.1665  -17.1843   -5.6131 C   0  0  0  0  0  0  0  0  0  0  0  0
   52.6223  -18.3586  -12.4439 C   0  0  0  0  0  0  0  0  0  0  0  0
   51.3305  -19.4794   -4.2584 C   0  0  0  0  0  0  0  0  0  0  0  0
   46.6973  -17.6289   -6.5880 C   0  0  0  0  0  0  0  0  0  0  0  0
   52.8311  -17.5924   -4.4559 C   0  0  0  0  0  0  0  0  0  0  0  0
   47.2807  -15.3758   -7.2469 C   0  0  0  0  0  0  0  0  0  0  0  0
   52.4183  -18.7426   -3.7834 C   0  0  0  0  0  0  0  0  0  0  0  0
   46.3232  -16.3084   -6.8482 C   0  0  0  0  0  0  0  0  0  0  0  0
   47.5899  -20.1826   -6.6272 H   0  0  0  0  0  0  0  0  0  0  0  0
   49.5430  -20.9626   -5.6453 H   0  0  0  0  0  0  0  0  0  0  0  0
   52.8174  -18.5580   -7.9111 H   0  0  0  0  0  0  0  0  0  0  0  0
   53.0799  -16.9305   -8.6356 H   0  0  0  0  0  0  0  0  0  0  0  0
   50.5272  -15.9114   -9.9191 H   0  0  0  0  0  0  0  0  0  0  0  0
   49.2005  -17.1141   -9.7297 H   0  0  0  0  0  0  0  0  0  0  0  0
   53.8759  -18.6322  -10.1522 H   0  0  0  0  0  0  0  0  0  0  0  0
   52.3508  -19.5802  -10.0364 H   0  0  0  0  0  0  0  0  0  0  0  0
   50.3138  -17.2102  -11.9433 H   0  0  0  0  0  0  0  0  0  0  0  0
   50.3302  -18.7735  -11.0523 H   0  0  0  0  0  0  0  0  0  0  0  0
   49.3455  -15.0311   -7.7121 H   0  0  0  0  0  0  0  0  0  0  0  0
   52.4981  -16.2900   -6.1266 H   0  0  0  0  0  0  0  0  0  0  0  0
   53.7299  -18.3561  -12.5331 H   0  0  0  0  0  0  0  0  0  0  0  0
   52.2259  -17.7560  -13.2893 H   0  0  0  0  0  0  0  0  0  0  0  0
   52.2528  -19.4045  -12.5392 H   0  0  0  0  0  0  0  0  0  0  0  0
   51.0219  -20.3665   -3.7184 H   0  0  0  0  0  0  0  0  0  0  0  0
   45.9395  -18.3367   -6.2737 H   0  0  0  0  0  0  0  0  0  0  0  0
   53.6692  -17.0186   -4.0823 H   0  0  0  0  0  0  0  0  0  0  0  0
   46.9903  -14.3514   -7.4409 H   0  0  0  0  0  0  0  0  0  0  0  0
   52.9393  -19.0624   -2.8902 H   0  0  0  0  0  0  0  0  0  0  0  0
   45.2895  -16.0073   -6.7367 H   0  0  0  0  0  0  0  0  0  0  0  0
  2  1  1  0
  3  1  1  0
  4  1  2  3
  5  9  1  0
  6  8  1  0
  7 13  1  0
  8  3  2  0
  9  2  2  0
 10  4  1  0
 11  4  1  0
 12 10  1  0
 13 11  1  0
 14  2  1  0
 15  3  1  0
 16  7  1  0
 17  8  1  0
 18  9  1  0
 19 15  2  0
 20 14  2  0
 21 19  1  0
 22 20  1  0
  7 12  1  0
  6  5  2  0
 21 17  2  0
 22 18  2  0
  5 23  1  0
  6 24  1  0
 10 25  1  0
 10 26  1  0
 11 27  1  0
 11 28  1  0
 12 29  1  0
 12 30  1  0
 13 31  1  0
 13 32  1  0
 14 33  1  0
 15 34  1  0
 16 35  1  0
 16 36  1  0
 16 37  1  0
 17 38  1  0
 18 39  1  0
 19 40  1  0
 20 41  1  0
 21 42  1  0
 22 43  1  0
M  END
> <Uni-Dock RESULT> 
ENERGY=   -5.240  LOWER_BOUND=    1.292  UPPER_BOUND=    4.432
INTER + INTRA:          -5.240
INTER:                  -5.240
INTRA:                   0.000
UNBOUND:                 0.000

$$$$

     RDKit          3D

 43 46  0  0  0  0  0  0  0  0999 V2000
   48.0478  -17.2172   -8.0076 C   0  0  0  0  0  0  0  0  0  0  0  0
   47.5182  -18.1870   -7.0320 C   0  0  0  0  0  0  0  0  0  0  0  0
   49.0249  -16.2605   -7.4571 C   0  0  0  0  0  0  0  0  0  0  0  0
   47.7041  -17.2392   -9.3261 C   0  0  0  0  0  0  0  0  0  0  0  0
   49.8311  -19.1864   -6.6907 C   0  0  0  0  0  0  0  0  0  0  0  0
   50.6462  -18.1442   -6.9207 C   0  0  0  0  0  0  0  0  0  0  0  0
   47.1596  -17.4350  -12.1436 N   0  0  0  0  0  0  0  0  0  0  0  0
   50.2519  -16.7136   -6.9249 C   0  0  0  0  0  0  0  0  0  0  0  0
   48.3786  -19.1089   -6.3964 C   0  0  0  0  0  0  0  0  0  0  0  0
   48.2205  -16.1889  -10.2941 C   0  0  0  0  0  0  0  0  0  0  0  0
   46.6495  -18.1981   -9.8510 C   0  0  0  0  0  0  0  0  0  0  0  0
   48.3893  -16.7500  -11.7080 C   0  0  0  0  0  0  0  0  0  0  0  0
   46.9288  -18.6178  -11.2960 C   0  0  0  0  0  0  0  0  0  0  0  0
   46.1513  -18.1682   -6.7056 C   0  0  0  0  0  0  0  0  0  0  0  0
   48.7153  -14.8899   -7.4287 C   0  0  0  0  0  0  0  0  0  0  0  0
   47.2892  -17.8465  -13.5501 C   0  0  0  0  0  0  0  0  0  0  0  0
   51.1757  -15.7708   -6.4428 C   0  0  0  0  0  0  0  0  0  0  0  0
   47.8336  -20.0438   -5.5000 C   0  0  0  0  0  0  0  0  0  0  0  0
   49.6347  -13.9694   -6.9239 C   0  0  0  0  0  0  0  0  0  0  0  0
   45.6310  -19.0885   -5.7947 C   0  0  0  0  0  0  0  0  0  0  0  0
   50.8663  -14.4084   -6.4384 C   0  0  0  0  0  0  0  0  0  0  0  0
   46.4698  -20.0299   -5.1982 C   0  0  0  0  0  0  0  0  0  0  0  0
   50.2952  -20.1631   -6.6160 H   0  0  0  0  0  0  0  0  0  0  0  0
   51.7040  -18.3619   -7.0135 H   0  0  0  0  0  0  0  0  0  0  0  0
   49.2108  -15.7934   -9.9841 H   0  0  0  0  0  0  0  0  0  0  0  0
   47.4994  -15.3438  -10.3183 H   0  0  0  0  0  0  0  0  0  0  0  0
   45.6585  -17.6983   -9.7990 H   0  0  0  0  0  0  0  0  0  0  0  0
   46.6023  -19.1295   -9.2482 H   0  0  0  0  0  0  0  0  0  0  0  0
   48.6122  -15.8978  -12.3881 H   0  0  0  0  0  0  0  0  0  0  0  0
   49.2631  -17.4422  -11.7329 H   0  0  0  0  0  0  0  0  0  0  0  0
   46.0434  -19.1832  -11.6635 H   0  0  0  0  0  0  0  0  0  0  0  0
   47.8059  -19.3058  -11.3218 H   0  0  0  0  0  0  0  0  0  0  0  0
   45.4889  -17.4434   -7.1630 H   0  0  0  0  0  0  0  0  0  0  0  0
   47.7630  -14.5356   -7.8042 H   0  0  0  0  0  0  0  0  0  0  0  0
   47.4397  -16.9555  -14.1970 H   0  0  0  0  0  0  0  0  0  0  0  0
   46.3552  -18.3429  -13.8911 H   0  0  0  0  0  0  0  0  0  0  0  0
   48.1440  -18.5458  -13.6910 H   0  0  0  0  0  0  0  0  0  0  0  0
   52.1354  -16.0920   -6.0559 H   0  0  0  0  0  0  0  0  0  0  0  0
   48.4693  -20.7793   -5.0216 H   0  0  0  0  0  0  0  0  0  0  0  0
   49.3936  -12.9144   -6.9128 H   0  0  0  0  0  0  0  0  0  0  0  0
   44.5759  -19.0744   -5.5540 H   0  0  0  0  0  0  0  0  0  0  0  0
   51.5817  -13.6928   -6.0541 H   0  0  0  0  0  0  0  0  0  0  0  0
   46.0637  -20.7480   -4.4975 H   0  0  0  0  0  0  0  0  0  0  0  0
  2  1  1  0
  3  1  1  0
  4  1  2  3
  5  9  1  0
  6  8  1  0
  7 13  1  0
  8  3  2  0
  9  2  2  0
 10  4  1  0
 11  4  1  0
 12 10  1  0
 13 11  1  0
 14  2  1  0
 15  3  1  0
 16  7  1  0
 17  8  1  0
 18  9  1  0
 19 15  2  0
 20 14  2  0
 21 19  1  0
 22 20  1  0
  7 12  1  0
  6  5  2  0
 21 17  2  0
 22 18  2  0
  5 23  1  0
  6 24  1  0
 10 25  1  0
 10 26  1  0
 11 27  1  0
 11 28  1  0
 12 29  1  0
 12 30  1  0
 13 31  1  0
 13 32  1  0
 14 33  1  0
 15 34  1  0
 16 35  1  0
 16 36  1  0
 16 37  1  0
 17 38  1  0
 18 39  1  0
 19 40  1  0
 20 41  1  0
 21 42  1  0
 22 43  1  0
M  END
> <Uni-Dock RESULT> 
ENERGY=   -5.216  LOWER_BOUND=    2.202  UPPER_BOUND=    4.823
INTER + INTRA:          -5.216
INTER:                  -5.216
INTRA:                   0.000
UNBOUND:                 0.000

$$$$

     RDKit          3D

 43 46  0  0  0  0  0  0  0  0999 V2000
   46.8847  -16.1045  -10.5768 C   0  0  0  0  0  0  0  0  0  0  0  0
   45.6457  -15.8632  -11.3381 C   0  0  0  0  0  0  0  0  0  0  0  0
   46.6811  -16.4063   -9.1483 C   0  0  0  0  0  0  0  0  0  0  0  0
   48.1167  -16.1040  -11.1591 C   0  0  0  0  0  0  0  0  0  0  0  0
   44.8566  -18.2419  -10.9091 C   0  0  0  0  0  0  0  0  0  0  0  0
   45.4168  -18.5357   -9.7245 C   0  0  0  0  0  0  0  0  0  0  0  0
   50.6862  -16.3344  -12.4310 N   0  0  0  0  0  0  0  0  0  0  0  0
   45.9647  -17.5572   -8.7527 C   0  0  0  0  0  0  0  0  0  0  0  0
   44.6775  -16.8819  -11.4754 C   0  0  0  0  0  0  0  0  0  0  0  0
   49.3788  -16.2963  -10.3362 C   0  0  0  0  0  0  0  0  0  0  0  0
   48.2992  -15.7303  -12.6200 C   0  0  0  0  0  0  0  0  0  0  0  0
   50.4780  -17.0018  -11.1340 C   0  0  0  0  0  0  0  0  0  0  0  0
   49.4743  -16.4756  -13.2569 C   0  0  0  0  0  0  0  0  0  0  0  0
   45.4113  -14.5967  -11.9005 C   0  0  0  0  0  0  0  0  0  0  0  0
   47.1729  -15.5209   -8.1740 C   0  0  0  0  0  0  0  0  0  0  0  0
   51.8353  -16.9377  -13.1238 C   0  0  0  0  0  0  0  0  0  0  0  0
   45.8220  -17.8339   -7.3824 C   0  0  0  0  0  0  0  0  0  0  0  0
   43.5256  -16.6291  -12.2396 C   0  0  0  0  0  0  0  0  0  0  0  0
   47.0011  -15.7988   -6.8173 C   0  0  0  0  0  0  0  0  0  0  0  0
   44.2502  -14.3557  -12.6363 C   0  0  0  0  0  0  0  0  0  0  0  0
   46.3330  -16.9576   -6.4219 C   0  0  0  0  0  0  0  0  0  0  0  0
   43.3120  -15.3728  -12.8117 C   0  0  0  0  0  0  0  0  0  0  0  0
   44.4070  -19.0636  -11.4547 H   0  0  0  0  0  0  0  0  0  0  0  0
   45.3751  -19.5714   -9.4073 H   0  0  0  0  0  0  0  0  0  0  0  0
   49.1916  -16.9122   -9.4314 H   0  0  0  0  0  0  0  0  0  0  0  0
   49.7447  -15.2991  -10.0100 H   0  0  0  0  0  0  0  0  0  0  0  0
   48.4795  -14.6358  -12.6860 H   0  0  0  0  0  0  0  0  0  0  0  0
   47.3989  -15.9723  -13.2232 H   0  0  0  0  0  0  0  0  0  0  0  0
   51.4131  -16.9646  -10.5317 H   0  0  0  0  0  0  0  0  0  0  0  0
   50.2071  -18.0742  -11.2747 H   0  0  0  0  0  0  0  0  0  0  0  0
   49.6477  -16.0390  -14.2660 H   0  0  0  0  0  0  0  0  0  0  0  0
   49.2056  -17.5491  -13.3930 H   0  0  0  0  0  0  0  0  0  0  0  0
   46.1326  -13.7988  -11.7730 H   0  0  0  0  0  0  0  0  0  0  0  0
   47.6949  -14.6183   -8.4677 H   0  0  0  0  0  0  0  0  0  0  0  0
   52.7571  -16.8130  -12.5157 H   0  0  0  0  0  0  0  0  0  0  0  0
   52.0117  -16.4224  -14.0925 H   0  0  0  0  0  0  0  0  0  0  0  0
   51.6704  -18.0221  -13.3145 H   0  0  0  0  0  0  0  0  0  0  0  0
   45.3011  -18.7256   -7.0547 H   0  0  0  0  0  0  0  0  0  0  0  0
   42.7820  -17.4041  -12.3827 H   0  0  0  0  0  0  0  0  0  0  0  0
   47.3897  -15.1172   -6.0719 H   0  0  0  0  0  0  0  0  0  0  0  0
   44.0796  -13.3807  -13.0740 H   0  0  0  0  0  0  0  0  0  0  0  0
   46.2069  -17.1759   -5.3693 H   0  0  0  0  0  0  0  0  0  0  0  0
   42.4155  -15.1869  -13.3890 H   0  0  0  0  0  0  0  0  0  0  0  0
  2  1  1  0
  3  1  1  0
  4  1  2  3
  5  9  1  0
  6  8  1  0
  7 13  1  0
  8  3  2  0
  9  2  2  0
 10  4  1  0
 11  4  1  0
 12 10  1  0
 13 11  1  0
 14  2  1  0
 15  3  1  0
 16  7  1  0
 17  8  1  0
 18  9  1  0
 19 15  2  0
 20 14  2  0
 21 19  1  0
 22 20  1  0
  7 12  1  0
  6  5  2  0
 21 17  2  0
 22 18  2  0
  5 23  1  0
  6 24  1  0
 10 25  1  0
 10 26  1  0
 11 27  1  0
 11 28  1  0
 12 29  1  0
 12 30  1  0
 13 31  1  0
 13 32  1  0
 14 33  1  0
 15 34  1  0
 16 35  1  0
 16 36  1  0
 16 37  1  0
 17 38  1  0
 18 39  1  0
 19 40  1  0
 20 41  1  0
 21 42  1  0
 22 43  1  0
M  END
> <Uni-Dock RESULT> 
ENERGY=   -5.210  LOWER_BOUND=    3.837  UPPER_BOUND=    6.282
INTER + INTRA:          -5.210
INTER:                  -5.210
INTRA:                   0.000
UNBOUND:                 0.000

$$$$

     RDKit          3D

 43 46  0  0  0  0  0  0  0  0999 V2000
   46.3637  -16.1142  -10.8455 C   0  0  0  0  0  0  0  0  0  0  0  0
   47.3998  -16.0869   -9.7973 C   0  0  0  0  0  0  0  0  0  0  0  0
   46.5961  -15.1847  -11.9658 C   0  0  0  0  0  0  0  0  0  0  0  0
   45.3044  -16.9707  -10.8093 C   0  0  0  0  0  0  0  0  0  0  0  0
   49.1589  -16.9039  -11.4413 C   0  0  0  0  0  0  0  0  0  0  0  0
   48.7241  -16.4158  -12.6145 C   0  0  0  0  0  0  0  0  0  0  0  0
   43.2041  -18.9355  -10.8484 N   0  0  0  0  0  0  0  0  0  0  0  0
   47.7330  -15.3256  -12.7915 C   0  0  0  0  0  0  0  0  0  0  0  0
   48.7323  -16.4474  -10.0953 C   0  0  0  0  0  0  0  0  0  0  0  0
   44.2217  -16.9325  -11.8739 C   0  0  0  0  0  0  0  0  0  0  0  0
   45.0599  -17.8737   -9.6127 C   0  0  0  0  0  0  0  0  0  0  0  0
   43.6152  -18.3159  -12.1205 C   0  0  0  0  0  0  0  0  0  0  0  0
   44.3944  -19.1907  -10.0185 C   0  0  0  0  0  0  0  0  0  0  0  0
   47.0646  -15.6634   -8.4998 C   0  0  0  0  0  0  0  0  0  0  0  0
   45.6972  -14.1280  -12.1899 C   0  0  0  0  0  0  0  0  0  0  0  0
   42.5003  -20.1999  -11.1138 C   0  0  0  0  0  0  0  0  0  0  0  0
   47.9035  -14.4450  -13.8732 C   0  0  0  0  0  0  0  0  0  0  0  0
   49.6859  -16.4461   -9.0632 C   0  0  0  0  0  0  0  0  0  0  0  0
   45.8948  -13.2476  -13.2545 C   0  0  0  0  0  0  0  0  0  0  0  0
   48.0301  -15.6452   -7.4924 C   0  0  0  0  0  0  0  0  0  0  0  0
   46.9925  -13.4103  -14.0996 C   0  0  0  0  0  0  0  0  0  0  0  0
   49.3374  -16.0430   -7.7720 C   0  0  0  0  0  0  0  0  0  0  0  0
   49.9655  -17.6269  -11.4813 H   0  0  0  0  0  0  0  0  0  0  0  0
   49.2141  -16.7834  -13.5088 H   0  0  0  0  0  0  0  0  0  0  0  0
   44.6143  -16.5743  -12.8489 H   0  0  0  0  0  0  0  0  0  0  0  0
   43.4227  -16.2353  -11.5421 H   0  0  0  0  0  0  0  0  0  0  0  0
   44.4049  -17.3381   -8.8923 H   0  0  0  0  0  0  0  0  0  0  0  0
   46.0060  -18.1369   -9.0944 H   0  0  0  0  0  0  0  0  0  0  0  0
   42.7316  -18.1867  -12.7846 H   0  0  0  0  0  0  0  0  0  0  0  0
   44.3530  -18.9564  -12.6576 H   0  0  0  0  0  0  0  0  0  0  0  0
   44.1022  -19.7256   -9.0872 H   0  0  0  0  0  0  0  0  0  0  0  0
   45.1305  -19.8293  -10.5602 H   0  0  0  0  0  0  0  0  0  0  0  0
   46.0527  -15.3535   -8.2692 H   0  0  0  0  0  0  0  0  0  0  0  0
   44.8399  -13.9914  -11.5420 H   0  0  0  0  0  0  0  0  0  0  0  0
   41.5883  -20.0101  -11.7197 H   0  0  0  0  0  0  0  0  0  0  0  0
   42.1671  -20.6600  -10.1587 H   0  0  0  0  0  0  0  0  0  0  0  0
   43.1525  -20.9211  -11.6559 H   0  0  0  0  0  0  0  0  0  0  0  0
   48.7528  -14.5508  -14.5376 H   0  0  0  0  0  0  0  0  0  0  0  0
   50.7081  -16.7459   -9.2613 H   0  0  0  0  0  0  0  0  0  0  0  0
   45.1942  -12.4409  -13.4268 H   0  0  0  0  0  0  0  0  0  0  0  0
   47.7636  -15.3261   -6.4931 H   0  0  0  0  0  0  0  0  0  0  0  0
   47.1406  -12.7315  -14.9295 H   0  0  0  0  0  0  0  0  0  0  0  0
   50.0836  -16.0357   -6.9879 H   0  0  0  0  0  0  0  0  0  0  0  0
  2  1  1  0
  3  1  1  0
  4  1  2  3
  5  9  1  0
  6  8  1  0
  7 13  1  0
  8  3  2  0
  9  2  2  0
 10  4  1  0
 11  4  1  0
 12 10  1  0
 13 11  1  0
 14  2  1  0
 15  3  1  0
 16  7  1  0
 17  8  1  0
 18  9  1  0
 19 15  2  0
 20 14  2  0
 21 19  1  0
 22 20  1  0
  7 12  1  0
  6  5  2  0
 21 17  2  0
 22 18  2  0
  5 23  1  0
  6 24  1  0
 10 25  1  0
 10 26  1  0
 11 27  1  0
 11 28  1  0
 12 29  1  0
 12 30  1  0
 13 31  1  0
 13 32  1  0
 14 33  1  0
 15 34  1  0
 16 35  1  0
 16 36  1  0
 16 37  1  0
 17 38  1  0
 18 39  1  0
 19 40  1  0
 20 41  1  0
 21 42  1  0
 22 43  1  0
M  END
> <Uni-Dock RESULT> 
ENERGY=   -4.416  LOWER_BOUND=    4.635  UPPER_BOUND=    6.551
INTER + INTRA:          -4.416
INTER:                  -4.416
INTRA:                   0.000
UNBOUND:                 0.000

$$$$

     RDKit          3D

 43 46  0  0  0  0  0  0  0  0999 V2000
   49.3042  -16.8570   -8.5834 C   0  0  0  0  0  0  0  0  0  0  0  0
   50.1800  -16.2236   -7.5811 C   0  0  0  0  0  0  0  0  0  0  0  0
   49.9631  -17.1781   -9.8624 C   0  0  0  0  0  0  0  0  0  0  0  0
   48.0031  -17.1719   -8.3280 C   0  0  0  0  0  0  0  0  0  0  0  0
   51.6441  -18.2994   -7.4717 C   0  0  0  0  0  0  0  0  0  0  0  0
   51.5267  -18.8158   -8.7058 C   0  0  0  0  0  0  0  0  0  0  0  0
   45.3339  -18.0463   -7.7085 N   0  0  0  0  0  0  0  0  0  0  0  0
   51.0330  -18.0987   -9.9074 C   0  0  0  0  0  0  0  0  0  0  0  0
   51.3026  -16.9120   -7.0711 C   0  0  0  0  0  0  0  0  0  0  0  0
   47.1101  -17.7690   -9.4018 C   0  0  0  0  0  0  0  0  0  0  0  0
   47.3362  -16.7740   -7.0227 C   0  0  0  0  0  0  0  0  0  0  0  0
   46.0557  -18.7073   -8.8100 C   0  0  0  0  0  0  0  0  0  0  0  0
   46.2659  -17.7822   -6.5984 C   0  0  0  0  0  0  0  0  0  0  0  0
   49.9149  -14.9099   -7.1578 C   0  0  0  0  0  0  0  0  0  0  0  0
   49.5462  -16.5341  -11.0398 C   0  0  0  0  0  0  0  0  0  0  0  0
   44.2356  -18.9078   -7.2438 C   0  0  0  0  0  0  0  0  0  0  0  0
   51.6131  -18.4096  -11.1490 C   0  0  0  0  0  0  0  0  0  0  0  0
   52.0940  -16.2923   -6.0891 C   0  0  0  0  0  0  0  0  0  0  0  0
   50.1498  -16.8369  -12.2610 C   0  0  0  0  0  0  0  0  0  0  0  0
   50.7257  -14.3007   -6.1992 C   0  0  0  0  0  0  0  0  0  0  0  0
   51.1770  -17.7788  -12.3168 C   0  0  0  0  0  0  0  0  0  0  0  0
   51.8095  -14.9936   -5.6602 C   0  0  0  0  0  0  0  0  0  0  0  0
   52.1232  -18.9218   -6.7246 H   0  0  0  0  0  0  0  0  0  0  0  0
   51.9205  -19.8143   -8.8575 H   0  0  0  0  0  0  0  0  0  0  0  0
   47.6914  -18.3618  -10.1392 H   0  0  0  0  0  0  0  0  0  0  0  0
   46.6028  -16.9409   -9.9419 H   0  0  0  0  0  0  0  0  0  0  0  0
   46.8679  -15.7749   -7.1540 H   0  0  0  0  0  0  0  0  0  0  0  0
   48.0669  -16.7095   -6.1891 H   0  0  0  0  0  0  0  0  0  0  0  0
   45.3455  -18.9774   -9.6232 H   0  0  0  0  0  0  0  0  0  0  0  0
   46.5454  -19.6462   -8.4610 H   0  0  0  0  0  0  0  0  0  0  0  0
   45.7153  -17.3503   -5.7330 H   0  0  0  0  0  0  0  0  0  0  0  0
   46.7552  -18.7231   -6.2543 H   0  0  0  0  0  0  0  0  0  0  0  0
   49.0755  -14.3614   -7.5674 H   0  0  0  0  0  0  0  0  0  0  0  0
   48.7485  -15.8018  -11.0106 H   0  0  0  0  0  0  0  0  0  0  0  0
   43.5167  -19.0908   -8.0713 H   0  0  0  0  0  0  0  0  0  0  0  0
   43.6729  -18.4040   -6.4286 H   0  0  0  0  0  0  0  0  0  0  0  0
   44.6166  -19.8853   -6.8713 H   0  0  0  0  0  0  0  0  0  0  0  0
   52.4163  -19.1340  -11.2128 H   0  0  0  0  0  0  0  0  0  0  0  0
   52.9438  -16.8114   -5.6622 H   0  0  0  0  0  0  0  0  0  0  0  0
   49.8183  -16.3437  -13.1656 H   0  0  0  0  0  0  0  0  0  0  0  0
   50.5112  -13.2918   -5.8712 H   0  0  0  0  0  0  0  0  0  0  0  0
   51.6393  -18.0184  -13.2657 H   0  0  0  0  0  0  0  0  0  0  0  0
   52.4331  -14.5228   -4.9112 H   0  0  0  0  0  0  0  0  0  0  0  0
  2  1  1  0
  3  1  1  0
  4  1  2  3
  5  9  1  0
  6  8  1  0
  7 13  1  0
  8  3  2  0
  9  2  2  0
 10  4  1  0
 11  4  1  0
 12 10  1  0
 13 11  1  0
 14  2  1  0
 15  3  1  0
 16  7  1  0
 17  8  1  0
 18  9  1  0
 19 15  2  0
 20 14  2  0
 21 19  1  0
 22 20  1  0
  7 12  1  0
  6  5  2  0
 21 17  2  0
 22 18  2  0
  5 23  1  0
  6 24  1  0
 10 25  1  0
 10 26  1  0
 11 27  1  0
 11 28  1  0
 12 29  1  0
 12 30  1  0
 13 31  1  0
 13 32  1  0
 14 33  1  0
 15 34  1  0
 16 35  1  0
 16 36  1  0
 16 37  1  0
 17 38  1  0
 18 39  1  0
 19 40  1  0
 20 41  1  0
 21 42  1  0
 22 43  1  0
M  END
> <Uni-Dock RESULT> 
ENERGY=   -4.216  LOWER_BOUND=    2.126  UPPER_BOUND=    4.991
INTER + INTRA:          -4.216
INTER:                  -4.216
INTRA:                   0.000
UNBOUND:                 0.000

$$$$

     RDKit          3D

 43 46  0  0  0  0  0  0  0  0999 V2000
   49.8643  -18.1709   -7.4561 C   0  0  0  0  0  0  0  0  0  0  0  0
   48.5470  -18.5245   -6.8971 C   0  0  0  0  0  0  0  0  0  0  0  0
   49.8367  -17.7153   -8.8577 C   0  0  0  0  0  0  0  0  0  0  0  0
   51.0095  -18.2084   -6.7183 C   0  0  0  0  0  0  0  0  0  0  0  0
   47.7313  -16.1316   -7.1672 C   0  0  0  0  0  0  0  0  0  0  0  0
   48.4290  -15.6937   -8.2279 C   0  0  0  0  0  0  0  0  0  0  0  0
   53.3816  -18.0632   -5.0982 N   0  0  0  0  0  0  0  0  0  0  0  0
   49.1349  -16.5441   -9.2182 C   0  0  0  0  0  0  0  0  0  0  0  0
   47.5315  -17.5502   -6.7805 C   0  0  0  0  0  0  0  0  0  0  0  0
   52.3596  -17.8959   -7.3401 C   0  0  0  0  0  0  0  0  0  0  0  0
   51.0148  -18.7395   -5.2953 C   0  0  0  0  0  0  0  0  0  0  0  0
   53.3186  -17.2593   -6.3314 C   0  0  0  0  0  0  0  0  0  0  0  0
   52.0684  -18.0436   -4.4306 C   0  0  0  0  0  0  0  0  0  0  0  0
   48.2893  -19.8512   -6.5115 C   0  0  0  0  0  0  0  0  0  0  0  0
   50.4837  -18.4741   -9.8480 C   0  0  0  0  0  0  0  0  0  0  0  0
   54.4076  -17.5152   -4.1973 C   0  0  0  0  0  0  0  0  0  0  0  0
   49.1609  -16.1185  -10.5572 C   0  0  0  0  0  0  0  0  0  0  0  0
   46.3005  -17.9137   -6.2084 C   0  0  0  0  0  0  0  0  0  0  0  0
   50.4791  -18.0496  -11.1773 C   0  0  0  0  0  0  0  0  0  0  0  0
   47.0525  -20.2000   -5.9673 C   0  0  0  0  0  0  0  0  0  0  0  0
   49.8248  -16.8694  -11.5304 C   0  0  0  0  0  0  0  0  0  0  0  0
   46.0619  -19.2309   -5.8092 C   0  0  0  0  0  0  0  0  0  0  0  0
   47.1841  -15.3869   -6.6006 H   0  0  0  0  0  0  0  0  0  0  0  0
   48.3899  -14.6302   -8.4337 H   0  0  0  0  0  0  0  0  0  0  0  0
   52.2683  -17.1868   -8.1898 H   0  0  0  0  0  0  0  0  0  0  0  0
   52.8020  -18.8415   -7.7208 H   0  0  0  0  0  0  0  0  0  0  0  0
   51.2260  -19.8300   -5.3248 H   0  0  0  0  0  0  0  0  0  0  0  0
   50.0353  -18.5876   -4.7947 H   0  0  0  0  0  0  0  0  0  0  0  0
   54.3247  -17.2072   -6.8043 H   0  0  0  0  0  0  0  0  0  0  0  0
   52.9915  -16.2160   -6.1127 H   0  0  0  0  0  0  0  0  0  0  0  0
   52.1256  -18.5866   -3.4608 H   0  0  0  0  0  0  0  0  0  0  0  0
   51.7440  -16.9986   -4.2162 H   0  0  0  0  0  0  0  0  0  0  0  0
   49.0506  -20.6130   -6.6274 H   0  0  0  0  0  0  0  0  0  0  0  0
   50.9968  -19.3917   -9.5869 H   0  0  0  0  0  0  0  0  0  0  0  0
   55.4045  -17.5496   -4.6871 H   0  0  0  0  0  0  0  0  0  0  0  0
   54.4760  -18.1319   -3.2754 H   0  0  0  0  0  0  0  0  0  0  0  0
   54.1786  -16.4632   -3.9140 H   0  0  0  0  0  0  0  0  0  0  0  0
   48.6538  -15.2079  -10.8529 H   0  0  0  0  0  0  0  0  0  0  0  0
   45.5160  -17.1771   -6.0825 H   0  0  0  0  0  0  0  0  0  0  0  0
   50.9866  -18.6341  -11.9338 H   0  0  0  0  0  0  0  0  0  0  0  0
   46.8633  -21.2217   -5.6644 H   0  0  0  0  0  0  0  0  0  0  0  0
   49.8284  -16.5372  -12.5605 H   0  0  0  0  0  0  0  0  0  0  0  0
   45.1056  -19.5011   -5.3801 H   0  0  0  0  0  0  0  0  0  0  0  0
  2  1  1  0
  3  1  1  0
  4  1  2  3
  5  9  1  0
  6  8  1  0
  7 13  1  0
  8  3  2  0
  9  2  2  0
 10  4  1  0
 11  4  1  0
 12 10  1  0
 13 11  1  0
 14  2  1  0
 15  3  1  0
 16  7  1  0
 17  8  1  0
 18  9  1  0
 19 15  2  0
 20 14  2  0
 21 19  1  0
 22 20  1  0
  7 12  1  0
  6  5  2  0
 21 17  2  0
 22 18  2  0
  5 23  1  0
  6 24  1  0
 10 25  1  0
 10 26  1  0
 11 27  1  0
 11 28  1  0
 12 29  1  0
 12 30  1  0
 13 31  1  0
 13 32  1  0
 14 33  1  0
 15 34  1  0
 16 35  1  0
 16 36  1  0
 16 37  1  0
 17 38  1  0
 18 39  1  0
 19 40  1  0
 20 41  1  0
 21 42  1  0
 22 43  1  0
M  END
> <Uni-Dock RESULT> 
ENERGY=   -4.212  LOWER_BOUND=    2.135  UPPER_BOUND=    5.066
INTER + INTRA:          -4.212
INTER:                  -4.212
INTRA:                   0.000
UNBOUND:                 0.000

$$$$

     RDKit          3D

 43 46  0  0  0  0  0  0  0  0999 V2000
   44.9153  -14.1042  -12.3622 C   0  0  0  0  0  0  0  0  0  0  0  0
   43.6753  -13.3363  -12.1490 C   0  0  0  0  0  0  0  0  0  0  0  0
   44.8903  -15.4766  -11.8247 C   0  0  0  0  0  0  0  0  0  0  0  0
   45.9797  -13.6043  -13.0509 C   0  0  0  0  0  0  0  0  0  0  0  0
   42.3573  -14.9637  -13.5910 C   0  0  0  0  0  0  0  0  0  0  0  0
   43.0146  -16.1215  -13.4156 C   0  0  0  0  0  0  0  0  0  0  0  0
   48.1266  -12.6358  -14.7018 N   0  0  0  0  0  0  0  0  0  0  0  0
   43.9688  -16.4250  -12.3203 C   0  0  0  0  0  0  0  0  0  0  0  0
   42.4582  -13.7639  -12.7235 C   0  0  0  0  0  0  0  0  0  0  0  0
   47.2657  -14.3984  -13.2015 C   0  0  0  0  0  0  0  0  0  0  0  0
   45.9987  -12.1665  -13.5400 C   0  0  0  0  0  0  0  0  0  0  0  0
   47.9749  -14.0904  -14.5223 C   0  0  0  0  0  0  0  0  0  0  0  0
   46.7971  -12.0156  -14.8369 C   0  0  0  0  0  0  0  0  0  0  0  0
   43.6991  -12.1895  -11.3368 C   0  0  0  0  0  0  0  0  0  0  0  0
   45.7664  -15.8317  -10.7849 C   0  0  0  0  0  0  0  0  0  0  0  0
   48.9293  -12.3625  -15.9042 C   0  0  0  0  0  0  0  0  0  0  0  0
   43.9980  -17.7345  -11.8114 C   0  0  0  0  0  0  0  0  0  0  0  0
   41.3032  -12.9871  -12.5305 C   0  0  0  0  0  0  0  0  0  0  0  0
   45.7654  -17.1305  -10.2743 C   0  0  0  0  0  0  0  0  0  0  0  0
   42.5372  -11.4431  -11.1361 C   0  0  0  0  0  0  0  0  0  0  0  0
   44.8874  -18.0827  -10.7919 C   0  0  0  0  0  0  0  0  0  0  0  0
   41.3423  -11.8373  -11.7381 C   0  0  0  0  0  0  0  0  0  0  0  0
   41.6133  -14.9382  -14.3789 H   0  0  0  0  0  0  0  0  0  0  0  0
   42.7493  -16.9393  -14.0757 H   0  0  0  0  0  0  0  0  0  0  0  0
   47.0794  -15.4929  -13.1835 H   0  0  0  0  0  0  0  0  0  0  0  0
   47.9399  -14.1452  -12.3552 H   0  0  0  0  0  0  0  0  0  0  0  0
   46.4551  -11.5299  -12.7518 H   0  0  0  0  0  0  0  0  0  0  0  0
   44.9755  -11.7871  -13.7454 H   0  0  0  0  0  0  0  0  0  0  0  0
   48.9753  -14.5772  -14.4932 H   0  0  0  0  0  0  0  0  0  0  0  0
   47.4027  -14.5402  -15.3669 H   0  0  0  0  0  0  0  0  0  0  0  0
   46.9034  -10.9277  -15.0466 H   0  0  0  0  0  0  0  0  0  0  0  0
   46.2274  -12.4700  -15.6807 H   0  0  0  0  0  0  0  0  0  0  0  0
   44.6208  -11.8718  -10.8648 H   0  0  0  0  0  0  0  0  0  0  0  0
   46.4543  -15.1022  -10.3751 H   0  0  0  0  0  0  0  0  0  0  0  0
   49.9418  -12.8079  -15.7975 H   0  0  0  0  0  0  0  0  0  0  0  0
   49.0669  -11.2671  -16.0314 H   0  0  0  0  0  0  0  0  0  0  0  0
   48.4453  -12.7759  -16.8176 H   0  0  0  0  0  0  0  0  0  0  0  0
   43.3201  -18.4872  -12.1958 H   0  0  0  0  0  0  0  0  0  0  0  0
   40.3639  -13.2795  -12.9846 H   0  0  0  0  0  0  0  0  0  0  0  0
   46.4486  -17.4000   -9.4793 H   0  0  0  0  0  0  0  0  0  0  0  0
   42.5640  -10.5562  -10.5164 H   0  0  0  0  0  0  0  0  0  0  0  0
   44.8928  -19.0917  -10.4004 H   0  0  0  0  0  0  0  0  0  0  0  0
   40.4435  -11.2533  -11.5879 H   0  0  0  0  0  0  0  0  0  0  0  0
  2  1  1  0
  3  1  1  0
  4  1  2  3
  5  9  1  0
  6  8  1  0
  7 13  1  0
  8  3  2  0
  9  2  2  0
 10  4  1  0
 11  4  1  0
 12 10  1  0
 13 11  1  0
 14  2  1  0
 15  3  1  0
 16  7  1  0
 17  8  1  0
 18  9  1  0
 19 15  2  0
 20 14  2  0
 21 19  1  0
 22 20  1  0
  7 12  1  0
  6  5  2  0
 21 17  2  0
 22 18  2  0
  5 23  1  0
  6 24  1  0
 10 25  1  0
 10 26  1  0
 11 27  1  0
 11 28  1  0
 12 29  1  0
 12 30  1  0
 13 31  1  0
 13 32  1  0
 14 33  1  0
 15 34  1  0
 16 35  1  0
 16 36  1  0
 16 37  1  0
 17 38  1  0
 18 39  1  0
 19 40  1  0
 20 41  1  0
 21 42  1  0
 22 43  1  0
M  END
> <Uni-Dock RESULT> 
ENERGY=   -4.182  LOWER_BOUND=    6.772  UPPER_BOUND=    8.861
INTER + INTRA:          -4.182
INTER:                  -4.182
INTRA:                   0.000
UNBOUND:                 0.000

$$$$
