
     RDKit          3D

 43 46  0  0  0  0  0  0  0  0999 V2000
   50.2192  -17.3235   -7.5618 C   0  0  0  0  0  0  0  0  0  0  0  0
   51.1543  -16.7105   -6.6027 C   0  0  0  0  0  0  0  0  0  0  0  0
   48.7978  -17.2077   -7.1927 C   0  0  0  0  0  0  0  0  0  0  0  0
   50.6232  -17.8033   -8.7710 C   0  0  0  0  0  0  0  0  0  0  0  0
   50.1875  -14.4057   -7.0701 C   0  0  0  0  0  0  0  0  0  0  0  0
   48.9103  -14.6753   -7.3899 C   0  0  0  0  0  0  0  0  0  0  0  0
   51.3771  -18.1447  -11.4942 N   0  0  0  0  0  0  0  0  0  0  0  0
   48.1861  -15.9384   -7.0995 C   0  0  0  0  0  0  0  0  0  0  0  0
   51.1215  -15.3191   -6.3645 C   0  0  0  0  0  0  0  0  0  0  0  0
   52.0881  -17.6955   -9.1716 C   0  0  0  0  0  0  0  0  0  0  0  0
   49.5821  -18.2243   -9.7991 C   0  0  0  0  0  0  0  0  0  0  0  0
   52.4338  -18.3768  -10.4978 C   0  0  0  0  0  0  0  0  0  0  0  0
   50.1628  -18.8560  -11.0664 C   0  0  0  0  0  0  0  0  0  0  0  0
   52.0518  -17.5211   -5.8888 C   0  0  0  0  0  0  0  0  0  0  0  0
   48.0602  -18.3634   -6.8882 C   0  0  0  0  0  0  0  0  0  0  0  0
   51.8117  -18.6455  -12.8079 C   0  0  0  0  0  0  0  0  0  0  0  0
   46.8192  -15.8625   -6.7826 C   0  0  0  0  0  0  0  0  0  0  0  0
   52.0514  -14.7585   -5.4725 C   0  0  0  0  0  0  0  0  0  0  0  0
   46.7093  -18.2683   -6.5507 C   0  0  0  0  0  0  0  0  0  0  0  0
   52.9522  -16.9510   -4.9876 C   0  0  0  0  0  0  0  0  0  0  0  0
   46.0875  -17.0202   -6.5065 C   0  0  0  0  0  0  0  0  0  0  0  0
   52.9579  -15.5705   -4.7862 C   0  0  0  0  0  0  0  0  0  0  0  0
   50.5356  -13.3962   -7.2560 H   0  0  0  0  0  0  0  0  0  0  0  0
   48.3288  -13.8619   -7.8084 H   0  0  0  0  0  0  0  0  0  0  0  0
   52.3506  -16.6173   -9.2450 H   0  0  0  0  0  0  0  0  0  0  0  0
   52.7330  -18.1530   -8.3933 H   0  0  0  0  0  0  0  0  0  0  0  0
   48.9927  -17.3258  -10.0858 H   0  0  0  0  0  0  0  0  0  0  0  0
   48.8844  -18.9649   -9.3569 H   0  0  0  0  0  0  0  0  0  0  0  0
   52.5927  -19.4675  -10.3279 H   0  0  0  0  0  0  0  0  0  0  0  0
   53.3997  -17.9546  -10.8558 H   0  0  0  0  0  0  0  0  0  0  0  0
   49.3850  -18.8017  -11.8610 H   0  0  0  0  0  0  0  0  0  0  0  0
   50.3735  -19.9357  -10.8836 H   0  0  0  0  0  0  0  0  0  0  0  0
   52.0564  -18.5943   -6.0361 H   0  0  0  0  0  0  0  0  0  0  0  0
   48.5322  -19.3379   -6.9185 H   0  0  0  0  0  0  0  0  0  0  0  0
   51.0226  -18.4595  -13.5681 H   0  0  0  0  0  0  0  0  0  0  0  0
   52.0334  -19.7360  -12.7741 H   0  0  0  0  0  0  0  0  0  0  0  0
   52.7207  -18.1011  -13.1430 H   0  0  0  0  0  0  0  0  0  0  0  0
   46.3206  -14.9020   -6.7336 H   0  0  0  0  0  0  0  0  0  0  0  0
   52.0653  -13.6899   -5.2953 H   0  0  0  0  0  0  0  0  0  0  0  0
   46.1432  -19.1631   -6.3266 H   0  0  0  0  0  0  0  0  0  0  0  0
   53.6483  -17.5795   -4.4474 H   0  0  0  0  0  0  0  0  0  0  0  0
   45.0379  -16.9484   -6.2519 H   0  0  0  0  0  0  0  0  0  0  0  0
   53.6616  -15.1287   -4.0927 H   0  0  0  0  0  0  0  0  0  0  0  0
  2  1  1  0
  3  1  1  0
  4  1  2  3
  5  9  1  0
  6  8  1  0
  7 13  1  0
  8  3  2  0
  9  2  2  0
 10  4  1  0
 11  4  1  0
 12 10  1  0
 13 11  1  0
 14  2  1  0
 15  3  1  0
 16  7  1  0
 17  8  1  0
 18  9  1  0
 19 15  2  0
 20 14  2  0
 21 19  1  0
 22 20  1  0
  7 12  1  0
  6  5  2  0
 21 17  2  0
 22 18  2  0
  5 23  1  0
  6 24  1  0
 10 25  1  0
 10 26  1  0
 11 27  1  0
 11 28  1  0
 12 29  1  0
 12 30  1  0
 13 31  1  0
 13 32  1  0
 14 33  1  0
 15 34  1  0
 16 35  1  0
 16 36  1  0
 16 37  1  0
 17 38  1  0
 18 39  1  0
 19 40  1  0
 20 41  1  0
 21 42  1  0
 22 43  1  0
M  END
> <Uni-Dock RESULT> 
ENERGY=   -6.178  LOWER_BOUND=    0.000  UPPER_BOUND=    0.000
INTER + INTRA:          -6.178
INTER:                  -6.178
INTRA:                   0.000
UNBOUND:                 0.000

$$$$

     RDKit          3D

 43 46  0  0  0  0  0  0  0  0999 V2000
   50.1906  -17.3950   -7.5547 C   0  0  0  0  0  0  0  0  0  0  0  0
   51.1066  -16.7086   -6.6274 C   0  0  0  0  0  0  0  0  0  0  0  0
   48.7706  -17.3419   -7.1663 C   0  0  0  0  0  0  0  0  0  0  0  0
   50.6012  -17.8869   -8.7568 C   0  0  0  0  0  0  0  0  0  0  0  0
   50.0156  -14.4702   -7.1413 C   0  0  0  0  0  0  0  0  0  0  0  0
   48.7495  -14.8135   -7.4333 C   0  0  0  0  0  0  0  0  0  0  0  0
   51.3322  -18.2646  -11.4814 N   0  0  0  0  0  0  0  0  0  0  0  0
   48.0957  -16.1035   -7.0975 C   0  0  0  0  0  0  0  0  0  0  0  0
   51.0056  -15.3146   -6.4263 C   0  0  0  0  0  0  0  0  0  0  0  0
   52.0527  -17.7154   -9.1834 C   0  0  0  0  0  0  0  0  0  0  0  0
   49.5684  -18.3888   -9.7564 C   0  0  0  0  0  0  0  0  0  0  0  0
   52.4137  -18.4145  -10.4961 C   0  0  0  0  0  0  0  0  0  0  0  0
   50.1624  -19.0248  -11.0154 C   0  0  0  0  0  0  0  0  0  0  0  0
   52.0550  -17.4522   -5.9063 C   0  0  0  0  0  0  0  0  0  0  0  0
   48.0981  -18.5249   -6.8190 C   0  0  0  0  0  0  0  0  0  0  0  0
   51.7729  -18.7786  -12.7880 C   0  0  0  0  0  0  0  0  0  0  0  0
   46.7315  -16.0888   -6.7611 C   0  0  0  0  0  0  0  0  0  0  0  0
   51.9182  -14.6828   -5.5646 C   0  0  0  0  0  0  0  0  0  0  0  0
   46.7491  -18.4897   -6.4628 C   0  0  0  0  0  0  0  0  0  0  0  0
   52.9377  -16.8120   -5.0352 C   0  0  0  0  0  0  0  0  0  0  0  0
   46.0644  -17.2743   -6.4423 C   0  0  0  0  0  0  0  0  0  0  0  0
   52.8752  -15.4280   -4.8712 C   0  0  0  0  0  0  0  0  0  0  0  0
   50.3085  -13.4497   -7.3597 H   0  0  0  0  0  0  0  0  0  0  0  0
   48.1208  -14.0427   -7.8643 H   0  0  0  0  0  0  0  0  0  0  0  0
   52.2581  -16.6276   -9.2900 H   0  0  0  0  0  0  0  0  0  0  0  0
   52.7315  -18.1175   -8.4034 H   0  0  0  0  0  0  0  0  0  0  0  0
   48.9293  -17.5299  -10.0579 H   0  0  0  0  0  0  0  0  0  0  0  0
   48.9163  -19.1517   -9.2835 H   0  0  0  0  0  0  0  0  0  0  0  0
   52.6311  -19.4906  -10.2995 H   0  0  0  0  0  0  0  0  0  0  0  0
   53.3513  -17.9536  -10.8806 H   0  0  0  0  0  0  0  0  0  0  0  0
   49.3715  -19.0325  -11.7987 H   0  0  0  0  0  0  0  0  0  0  0  0
   50.4312  -20.0869  -10.8070 H   0  0  0  0  0  0  0  0  0  0  0  0
   52.1128  -18.5274   -6.0247 H   0  0  0  0  0  0  0  0  0  0  0  0
   48.6192  -19.4745   -6.8306 H   0  0  0  0  0  0  0  0  0  0  0  0
   50.9644  -18.6543  -13.5402 H   0  0  0  0  0  0  0  0  0  0  0  0
   52.0510  -19.8550  -12.7284 H   0  0  0  0  0  0  0  0  0  0  0  0
   52.6476  -18.1979  -13.1520 H   0  0  0  0  0  0  0  0  0  0  0  0
   46.1848  -15.1541   -6.7301 H   0  0  0  0  0  0  0  0  0  0  0  0
   51.8795  -13.6103   -5.4164 H   0  0  0  0  0  0  0  0  0  0  0  0
   46.2332  -19.4057   -6.2058 H   0  0  0  0  0  0  0  0  0  0  0  0
   53.6731  -17.3889   -4.4895 H   0  0  0  0  0  0  0  0  0  0  0  0
   45.0164  -17.2493   -6.1731 H   0  0  0  0  0  0  0  0  0  0  0  0
   53.5652  -14.9318   -4.2010 H   0  0  0  0  0  0  0  0  0  0  0  0
  2  1  1  0
  3  1  1  0
  4  1  2  3
  5  9  1  0
  6  8  1  0
  7 13  1  0
  8  3  2  0
  9  2  2  0
 10  4  1  0
 11  4  1  0
 12 10  1  0
 13 11  1  0
 14  2  1  0
 15  3  1  0
 16  7  1  0
 17  8  1  0
 18  9  1  0
 19 15  2  0
 20 14  2  0
 21 19  1  0
 22 20  1  0
  7 12  1  0
  6  5  2  0
 21 17  2  0
 22 18  2  0
  5 23  1  0
  6 24  1  0
 10 25  1  0
 10 26  1  0
 11 27  1  0
 11 28  1  0
 12 29  1  0
 12 30  1  0
 13 31  1  0
 13 32  1  0
 14 33  1  0
 15 34  1  0
 16 35  1  0
 16 36  1  0
 16 37  1  0
 17 38  1  0
 18 39  1  0
 19 40  1  0
 20 41  1  0
 21 42  1  0
 22 43  1  0
M  END
> <Uni-Dock RESULT> 
ENERGY=   -6.175  LOWER_BOUND=    0.163  UPPER_BOUND=    0.163
INTER + INTRA:          -6.175
INTER:                  -6.175
INTRA:                   0.000
UNBOUND:                 0.000

$$$$

     RDKit          3D

 43 46  0  0  0  0  0  0  0  0999 V2000
   50.5016  -17.3187   -7.4318 C   0  0  0  0  0  0  0  0  0  0  0  0
   49.0790  -16.9953   -7.2273 C   0  0  0  0  0  0  0  0  0  0  0  0
   51.2330  -17.6739   -6.2034 C   0  0  0  0  0  0  0  0  0  0  0  0
   51.0507  -17.4469   -8.6719 C   0  0  0  0  0  0  0  0  0  0  0  0
   48.6107  -19.3667   -6.4386 C   0  0  0  0  0  0  0  0  0  0  0  0
   49.7782  -19.7344   -5.8836 C   0  0  0  0  0  0  0  0  0  0  0  0
   51.9648  -18.3677  -11.2051 N   0  0  0  0  0  0  0  0  0  0  0  0
   50.8707  -18.8210   -5.4639 C   0  0  0  0  0  0  0  0  0  0  0  0
   48.1876  -17.9757   -6.7394 C   0  0  0  0  0  0  0  0  0  0  0  0
   50.1744  -17.2703   -9.9043 C   0  0  0  0  0  0  0  0  0  0  0  0
   52.4650  -17.9920   -8.8154 C   0  0  0  0  0  0  0  0  0  0  0  0
   50.9326  -17.3204  -11.2329 C   0  0  0  0  0  0  0  0  0  0  0  0
   53.0084  -17.9743  -10.2461 C   0  0  0  0  0  0  0  0  0  0  0  0
   48.6175  -15.6925   -7.4763 C   0  0  0  0  0  0  0  0  0  0  0  0
   52.2660  -16.8419   -5.7419 C   0  0  0  0  0  0  0  0  0  0  0  0
   52.5524  -18.5245  -12.5451 C   0  0  0  0  0  0  0  0  0  0  0  0
   51.6117  -19.1546   -4.3175 C   0  0  0  0  0  0  0  0  0  0  0  0
   46.8293  -17.6479   -6.5910 C   0  0  0  0  0  0  0  0  0  0  0  0
   52.9758  -17.1746   -4.5872 C   0  0  0  0  0  0  0  0  0  0  0  0
   47.2695  -15.3770   -7.2998 C   0  0  0  0  0  0  0  0  0  0  0  0
   52.6548  -18.3341   -3.8808 C   0  0  0  0  0  0  0  0  0  0  0  0
   46.3749  -16.3557   -6.8661 C   0  0  0  0  0  0  0  0  0  0  0  0
   47.8732  -20.1467   -6.5885 H   0  0  0  0  0  0  0  0  0  0  0  0
   49.8903  -20.7822   -5.6296 H   0  0  0  0  0  0  0  0  0  0  0  0
   49.4046  -18.0730   -9.9021 H   0  0  0  0  0  0  0  0  0  0  0  0
   49.6507  -16.2930   -9.8654 H   0  0  0  0  0  0  0  0  0  0  0  0
   52.4738  -19.0400   -8.4430 H   0  0  0  0  0  0  0  0  0  0  0  0
   53.1684  -17.4014   -8.1931 H   0  0  0  0  0  0  0  0  0  0  0  0
   51.3801  -16.3214  -11.4462 H   0  0  0  0  0  0  0  0  0  0  0  0
   50.1937  -17.5296  -12.0388 H   0  0  0  0  0  0  0  0  0  0  0  0
   53.8633  -18.6857  -10.2944 H   0  0  0  0  0  0  0  0  0  0  0  0
   53.4085  -16.9604  -10.4819 H   0  0  0  0  0  0  0  0  0  0  0  0
   49.3027  -14.9239   -7.8128 H   0  0  0  0  0  0  0  0  0  0  0  0
   52.5240  -15.9387   -6.2815 H   0  0  0  0  0  0  0  0  0  0  0  0
   53.3231  -19.3251  -12.5333 H   0  0  0  0  0  0  0  0  0  0  0  0
   53.0186  -17.5770  -12.8979 H   0  0  0  0  0  0  0  0  0  0  0  0
   51.7710  -18.8363  -13.2711 H   0  0  0  0  0  0  0  0  0  0  0  0
   51.3716  -20.0455   -3.7499 H   0  0  0  0  0  0  0  0  0  0  0  0
   46.1207  -18.3912   -6.2461 H   0  0  0  0  0  0  0  0  0  0  0  0
   53.7775  -16.5350   -4.2416 H   0  0  0  0  0  0  0  0  0  0  0  0
   46.9175  -14.3738   -7.5026 H   0  0  0  0  0  0  0  0  0  0  0  0
   53.2110  -18.5950   -2.9896 H   0  0  0  0  0  0  0  0  0  0  0  0
   45.3284  -16.1117   -6.7368 H   0  0  0  0  0  0  0  0  0  0  0  0
  2  1  1  0
  3  1  1  0
  4  1  2  3
  5  9  1  0
  6  8  1  0
  7 13  1  0
  8  3  2  0
  9  2  2  0
 10  4  1  0
 11  4  1  0
 12 10  1  0
 13 11  1  0
 14  2  1  0
 15  3  1  0
 16  7  1  0
 17  8  1  0
 18  9  1  0
 19 15  2  0
 20 14  2  0
 21 19  1  0
 22 20  1  0
  7 12  1  0
  6  5  2  0
 21 17  2  0
 22 18  2  0
  5 23  1  0
  6 24  1  0
 10 25  1  0
 10 26  1  0
 11 27  1  0
 11 28  1  0
 12 29  1  0
 12 30  1  0
 13 31  1  0
 13 32  1  0
 14 33  1  0
 15 34  1  0
 16 35  1  0
 16 36  1  0
 16 37  1  0
 17 38  1  0
 18 39  1  0
 19 40  1  0
 20 41  1  0
 21 42  1  0
 22 43  1  0
M  END
> <Uni-Dock RESULT> 
ENERGY=   -5.355  LOWER_BOUND=    1.161  UPPER_BOUND=    4.426
INTER + INTRA:          -5.355
INTER:                  -5.355
INTRA:                   0.000
UNBOUND:                 0.000

$$$$

     RDKit          3D

 43 46  0  0  0  0  0  0  0  0999 V2000
   48.1082  -17.1467   -8.0485 C   0  0  0  0  0  0  0  0  0  0  0  0
   47.5405  -18.1115   -7.0910 C   0  0  0  0  0  0  0  0  0  0  0  0
   49.0865  -16.2100   -7.4690 C   0  0  0  0  0  0  0  0  0  0  0  0
   47.8783  -17.2262   -9.3888 C   0  0  0  0  0  0  0  0  0  0  0  0
   49.8286  -19.1588   -6.7265 C   0  0  0  0  0  0  0  0  0  0  0  0
   50.6664  -18.1282   -6.9314 C   0  0  0  0  0  0  0  0  0  0  0  0
   47.9394  -17.8288  -12.1698 N   0  0  0  0  0  0  0  0  0  0  0  0
   50.2981  -16.6899   -6.9255 C   0  0  0  0  0  0  0  0  0  0  0  0
   48.3724  -19.0585   -6.4546 C   0  0  0  0  0  0  0  0  0  0  0  0
   47.0198  -18.3569   -9.9388 C   0  0  0  0  0  0  0  0  0  0  0  0
   48.6639  -16.3349  -10.3409 C   0  0  0  0  0  0  0  0  0  0  0  0
   46.7393  -18.2662  -11.4407 C   0  0  0  0  0  0  0  0  0  0  0  0
   48.2292  -16.4337  -11.8050 C   0  0  0  0  0  0  0  0  0  0  0  0
   46.1729  -18.0588   -6.7762 C   0  0  0  0  0  0  0  0  0  0  0  0
   48.7915  -14.8379   -7.4165 C   0  0  0  0  0  0  0  0  0  0  0  0
   47.7058  -17.9270  -13.6194 C   0  0  0  0  0  0  0  0  0  0  0  0
   51.2278  -15.7684   -6.4145 C   0  0  0  0  0  0  0  0  0  0  0  0
   47.7953  -19.9902   -5.5752 C   0  0  0  0  0  0  0  0  0  0  0  0
   49.7157  -13.9387   -6.8827 C   0  0  0  0  0  0  0  0  0  0  0  0
   45.6202  -18.9760   -5.8812 C   0  0  0  0  0  0  0  0  0  0  0  0
   50.9360  -14.4023   -6.3903 C   0  0  0  0  0  0  0  0  0  0  0  0
   46.4287  -19.9461   -5.2882 C   0  0  0  0  0  0  0  0  0  0  0  0
   50.2738  -20.1445   -6.6555 H   0  0  0  0  0  0  0  0  0  0  0  0
   51.7216  -18.3638   -7.0095 H   0  0  0  0  0  0  0  0  0  0  0  0
   47.5361  -19.3195   -9.7296 H   0  0  0  0  0  0  0  0  0  0  0  0
   46.0367  -18.3766   -9.4250 H   0  0  0  0  0  0  0  0  0  0  0  0
   49.7391  -16.6101  -10.2683 H   0  0  0  0  0  0  0  0  0  0  0  0
   48.5617  -15.2712  -10.0424 H   0  0  0  0  0  0  0  0  0  0  0  0
   45.8852  -17.5719  -11.6205 H   0  0  0  0  0  0  0  0  0  0  0  0
   46.4234  -19.2750  -11.7896 H   0  0  0  0  0  0  0  0  0  0  0  0
   49.0572  -16.0356  -12.4336 H   0  0  0  0  0  0  0  0  0  0  0  0
   47.3411  -15.7813  -11.9765 H   0  0  0  0  0  0  0  0  0  0  0  0
   45.5351  -17.3098   -7.2298 H   0  0  0  0  0  0  0  0  0  0  0  0
   47.8472  -14.4661   -7.7951 H   0  0  0  0  0  0  0  0  0  0  0  0
   48.6148  -17.6115  -14.1754 H   0  0  0  0  0  0  0  0  0  0  0  0
   46.8477  -17.2925  -13.9366 H   0  0  0  0  0  0  0  0  0  0  0  0
   47.5009  -18.9818  -13.9030 H   0  0  0  0  0  0  0  0  0  0  0  0
   52.1767  -16.1096   -6.0188 H   0  0  0  0  0  0  0  0  0  0  0  0
   48.4080  -20.7450   -5.0971 H   0  0  0  0  0  0  0  0  0  0  0  0
   49.4873  -12.8811   -6.8539 H   0  0  0  0  0  0  0  0  0  0  0  0
   44.5636  -18.9370   -5.6498 H   0  0  0  0  0  0  0  0  0  0  0  0
   51.6550  -13.7030   -5.9835 H   0  0  0  0  0  0  0  0  0  0  0  0
   45.9974  -20.6615   -4.6000 H   0  0  0  0  0  0  0  0  0  0  0  0
  2  1  1  0
  3  1  1  0
  4  1  2  3
  5  9  1  0
  6  8  1  0
  7 13  1  0
  8  3  2  0
  9  2  2  0
 10  4  1  0
 11  4  1  0
 12 10  1  0
 13 11  1  0
 14  2  1  0
 15  3  1  0
 16  7  1  0
 17  8  1  0
 18  9  1  0
 19 15  2  0
 20 14  2  0
 21 19  1  0
 22 20  1  0
  7 12  1  0
  6  5  2  0
 21 17  2  0
 22 18  2  0
  5 23  1  0
  6 24  1  0
 10 25  1  0
 10 26  1  0
 11 27  1  0
 11 28  1  0
 12 29  1  0
 12 30  1  0
 13 31  1  0
 13 32  1  0
 14 33  1  0
 15 34  1  0
 16 35  1  0
 16 36  1  0
 16 37  1  0
 17 38  1  0
 18 39  1  0
 19 40  1  0
 20 41  1  0
 21 42  1  0
 22 43  1  0
M  END
> <Uni-Dock RESULT> 
ENERGY=   -5.198  LOWER_BOUND=    2.124  UPPER_BOUND=    4.730
INTER + INTRA:          -5.198
INTER:                  -5.198
INTRA:                   0.000
UNBOUND:                 0.000

$$$$

     RDKit          3D

 43 46  0  0  0  0  0  0  0  0999 V2000
   47.0069  -15.9584  -10.6604 C   0  0  0  0  0  0  0  0  0  0  0  0
   45.7865  -15.6009  -11.4040 C   0  0  0  0  0  0  0  0  0  0  0  0
   46.7896  -16.2673   -9.2365 C   0  0  0  0  0  0  0  0  0  0  0  0
   48.2062  -16.1550  -11.2758 C   0  0  0  0  0  0  0  0  0  0  0  0
   44.8247  -17.9236  -11.0234 C   0  0  0  0  0  0  0  0  0  0  0  0
   45.3684  -18.2847   -9.8486 C   0  0  0  0  0  0  0  0  0  0  0  0
   50.4661  -17.2109  -12.6463 N   0  0  0  0  0  0  0  0  0  0  0  0
   45.9943  -17.3715   -8.8594 C   0  0  0  0  0  0  0  0  0  0  0  0
   44.7448  -16.5414  -11.5594 C   0  0  0  0  0  0  0  0  0  0  0  0
   48.3056  -16.0220  -12.7892 C   0  0  0  0  0  0  0  0  0  0  0  0
   49.3723  -16.7307  -10.4842 C   0  0  0  0  0  0  0  0  0  0  0  0
   49.7264  -16.1484  -13.3441 C   0  0  0  0  0  0  0  0  0  0  0  0
   50.6931  -16.7906  -11.2552 C   0  0  0  0  0  0  0  0  0  0  0  0
   45.6404  -14.3037  -11.9217 C   0  0  0  0  0  0  0  0  0  0  0  0
   47.3395  -15.4324   -8.2502 C   0  0  0  0  0  0  0  0  0  0  0  0
   51.7568  -17.4416  -13.3145 C   0  0  0  0  0  0  0  0  0  0  0  0
   45.8368  -17.6629   -7.4938 C   0  0  0  0  0  0  0  0  0  0  0  0
   43.6097  -16.1833  -12.3065 C   0  0  0  0  0  0  0  0  0  0  0  0
   47.1526  -15.7221   -6.8978 C   0  0  0  0  0  0  0  0  0  0  0  0
   44.4952  -13.9567  -12.6400 C   0  0  0  0  0  0  0  0  0  0  0  0
   46.4095  -16.8409   -6.5202 C   0  0  0  0  0  0  0  0  0  0  0  0
   43.4851  -14.8980  -12.8397 C   0  0  0  0  0  0  0  0  0  0  0  0
   44.3114  -18.6970  -11.5831 H   0  0  0  0  0  0  0  0  0  0  0  0
   45.2507  -19.3210   -9.5532 H   0  0  0  0  0  0  0  0  0  0  0  0
   47.6708  -16.8101  -13.2504 H   0  0  0  0  0  0  0  0  0  0  0  0
   47.9164  -15.0350  -13.1137 H   0  0  0  0  0  0  0  0  0  0  0  0
   49.1001  -17.7598  -10.1618 H   0  0  0  0  0  0  0  0  0  0  0  0
   49.5545  -16.1235   -9.5737 H   0  0  0  0  0  0  0  0  0  0  0  0
   50.2515  -15.1686  -13.2547 H   0  0  0  0  0  0  0  0  0  0  0  0
   49.6483  -16.3829  -14.4296 H   0  0  0  0  0  0  0  0  0  0  0  0
   51.3572  -17.5182  -10.7368 H   0  0  0  0  0  0  0  0  0  0  0  0
   51.1961  -15.7962  -11.2135 H   0  0  0  0  0  0  0  0  0  0  0  0
   46.4176  -13.5639  -11.7727 H   0  0  0  0  0  0  0  0  0  0  0  0
   47.9178  -14.5605   -8.5310 H   0  0  0  0  0  0  0  0  0  0  0  0
   52.3139  -18.2540  -12.8000 H   0  0  0  0  0  0  0  0  0  0  0  0
   52.3817  -16.5202  -13.3204 H   0  0  0  0  0  0  0  0  0  0  0  0
   51.5911  -17.7739  -14.3619 H   0  0  0  0  0  0  0  0  0  0  0  0
   45.2554  -18.5215   -7.1803 H   0  0  0  0  0  0  0  0  0  0  0  0
   42.8101  -16.8970  -12.4643 H   0  0  0  0  0  0  0  0  0  0  0  0
   47.5870  -15.0808   -6.1419 H   0  0  0  0  0  0  0  0  0  0  0  0
   44.3923  -12.9584  -13.0451 H   0  0  0  0  0  0  0  0  0  0  0  0
   46.2717  -17.0687   -5.4710 H   0  0  0  0  0  0  0  0  0  0  0  0
   42.6008  -14.6300  -13.4033 H   0  0  0  0  0  0  0  0  0  0  0  0
  2  1  1  0
  3  1  1  0
  4  1  2  3
  5  9  1  0
  6  8  1  0
  7 13  1  0
  8  3  2  0
  9  2  2  0
 10  4  1  0
 11  4  1  0
 12 10  1  0
 13 11  1  0
 14  2  1  0
 15  3  1  0
 16  7  1  0
 17  8  1  0
 18  9  1  0
 19 15  2  0
 20 14  2  0
 21 19  1  0
 22 20  1  0
  7 12  1  0
  6  5  2  0
 21 17  2  0
 22 18  2  0
  5 23  1  0
  6 24  1  0
 10 25  1  0
 10 26  1  0
 11 27  1  0
 11 28  1  0
 12 29  1  0
 12 30  1  0
 13 31  1  0
 13 32  1  0
 14 33  1  0
 15 34  1  0
 16 35  1  0
 16 36  1  0
 16 37  1  0
 17 38  1  0
 18 39  1  0
 19 40  1  0
 20 41  1  0
 21 42  1  0
 22 43  1  0
M  END
> <Uni-Dock RESULT> 
ENERGY=   -5.189  LOWER_BOUND=    3.829  UPPER_BOUND=    6.229
INTER + INTRA:          -5.189
INTER:                  -5.189
INTRA:                   0.000
UNBOUND:                 0.000

$$$$

     RDKit          3D

 43 46  0  0  0  0  0  0  0  0999 V2000
   46.1850  -15.9311  -10.9191 C   0  0  0  0  0  0  0  0  0  0  0  0
   47.2226  -15.9330   -9.8733 C   0  0  0  0  0  0  0  0  0  0  0  0
   46.4119  -14.9639  -12.0069 C   0  0  0  0  0  0  0  0  0  0  0  0
   45.1928  -16.8632  -10.9656 C   0  0  0  0  0  0  0  0  0  0  0  0
   48.9693  -16.7098  -11.5498 C   0  0  0  0  0  0  0  0  0  0  0  0
   48.5299  -16.1845  -12.7061 C   0  0  0  0  0  0  0  0  0  0  0  0
   43.5974  -19.1778  -11.4107 N   0  0  0  0  0  0  0  0  0  0  0  0
   47.5416  -15.0853  -12.8453 C   0  0  0  0  0  0  0  0  0  0  0  0
   48.5514  -16.2924  -10.1876 C   0  0  0  0  0  0  0  0  0  0  0  0
   45.1474  -17.9661   -9.9170 C   0  0  0  0  0  0  0  0  0  0  0  0
   44.2854  -16.9356  -12.1859 C   0  0  0  0  0  0  0  0  0  0  0  0
   43.9203  -18.8762  -10.0079 C   0  0  0  0  0  0  0  0  0  0  0  0
   43.1390  -17.9423  -12.0640 C   0  0  0  0  0  0  0  0  0  0  0  0
   46.8969  -15.5317   -8.5675 C   0  0  0  0  0  0  0  0  0  0  0  0
   45.5238  -13.8900  -12.1815 C   0  0  0  0  0  0  0  0  0  0  0  0
   42.5372  -20.1966  -11.4706 C   0  0  0  0  0  0  0  0  0  0  0  0
   47.7103  -14.1698  -13.8979 C   0  0  0  0  0  0  0  0  0  0  0  0
   49.5102  -16.3215   -9.1607 C   0  0  0  0  0  0  0  0  0  0  0  0
   45.7199  -12.9750  -13.2169 C   0  0  0  0  0  0  0  0  0  0  0  0
   47.8674  -15.5424   -7.5646 C   0  0  0  0  0  0  0  0  0  0  0  0
   46.8069  -13.1197  -14.0793 C   0  0  0  0  0  0  0  0  0  0  0  0
   49.1703  -15.9452   -7.8588 C   0  0  0  0  0  0  0  0  0  0  0  0
   49.7729  -17.4341  -11.6157 H   0  0  0  0  0  0  0  0  0  0  0  0
   49.0138  -16.5265  -13.6137 H   0  0  0  0  0  0  0  0  0  0  0  0
   46.0625  -18.5887  -10.0266 H   0  0  0  0  0  0  0  0  0  0  0  0
   45.1518  -17.5269   -8.8982 H   0  0  0  0  0  0  0  0  0  0  0  0
   44.9074  -17.2078  -13.0668 H   0  0  0  0  0  0  0  0  0  0  0  0
   43.8279  -15.9442  -12.3828 H   0  0  0  0  0  0  0  0  0  0  0  0
   43.0573  -18.3933   -9.4923 H   0  0  0  0  0  0  0  0  0  0  0  0
   44.1510  -19.8150   -9.4557 H   0  0  0  0  0  0  0  0  0  0  0  0
   42.7699  -18.1639  -13.0906 H   0  0  0  0  0  0  0  0  0  0  0  0
   42.2939  -17.4807  -11.5016 H   0  0  0  0  0  0  0  0  0  0  0  0
   45.8889  -15.2162   -8.3270 H   0  0  0  0  0  0  0  0  0  0  0  0
   44.6765  -13.7669  -11.5179 H   0  0  0  0  0  0  0  0  0  0  0  0
   42.2994  -20.4391  -12.5288 H   0  0  0  0  0  0  0  0  0  0  0  0
   41.6105  -19.8491  -10.9607 H   0  0  0  0  0  0  0  0  0  0  0  0
   42.8836  -21.1375  -10.9915 H   0  0  0  0  0  0  0  0  0  0  0  0
   48.5534  -14.2596  -14.5723 H   0  0  0  0  0  0  0  0  0  0  0  0
   50.5295  -16.6220   -9.3711 H   0  0  0  0  0  0  0  0  0  0  0  0
   45.0267  -12.1550  -13.3529 H   0  0  0  0  0  0  0  0  0  0  0  0
   47.6085  -15.2414   -6.5578 H   0  0  0  0  0  0  0  0  0  0  0  0
   46.9536  -12.4137  -14.8865 H   0  0  0  0  0  0  0  0  0  0  0  0
   49.9202  -15.9602   -7.0786 H   0  0  0  0  0  0  0  0  0  0  0  0
  2  1  1  0
  3  1  1  0
  4  1  2  3
  5  9  1  0
  6  8  1  0
  7 13  1  0
  8  3  2  0
  9  2  2  0
 10  4  1  0
 11  4  1  0
 12 10  1  0
 13 11  1  0
 14  2  1  0
 15  3  1  0
 16  7  1  0
 17  8  1  0
 18  9  1  0
 19 15  2  0
 20 14  2  0
 21 19  1  0
 22 20  1  0
  7 12  1  0
  6  5  2  0
 21 17  2  0
 22 18  2  0
  5 23  1  0
  6 24  1  0
 10 25  1  0
 10 26  1  0
 11 27  1  0
 11 28  1  0
 12 29  1  0
 12 30  1  0
 13 31  1  0
 13 32  1  0
 14 33  1  0
 15 34  1  0
 16 35  1  0
 16 36  1  0
 16 37  1  0
 17 38  1  0
 18 39  1  0
 19 40  1  0
 20 41  1  0
 21 42  1  0
 22 43  1  0
M  END
> <Uni-Dock RESULT> 
ENERGY=   -4.477  LOWER_BOUND=    4.831  UPPER_BOUND=    6.651
INTER + INTRA:          -4.477
INTER:                  -4.477
INTRA:                   0.000
UNBOUND:                 0.000

$$$$
