
     RDKit          3D

 43 46  0  0  0  0  0  0  0  0999 V2000
   50.2330  -17.2535   -7.5780 C   0  0  0  0  0  0  0  0  0  0  0  0
   51.1627  -16.6237   -6.6232 C   0  0  0  0  0  0  0  0  0  0  0  0
   48.8107  -17.1682   -7.2005 C   0  0  0  0  0  0  0  0  0  0  0  0
   50.6506  -17.8198   -8.7451 C   0  0  0  0  0  0  0  0  0  0  0  0
   50.1373  -14.3370   -7.0519 C   0  0  0  0  0  0  0  0  0  0  0  0
   48.8649  -14.6315   -7.3643 C   0  0  0  0  0  0  0  0  0  0  0  0
   51.5074  -18.8018  -11.3093 N   0  0  0  0  0  0  0  0  0  0  0  0
   48.1728  -15.9138   -7.0834 C   0  0  0  0  0  0  0  0  0  0  0  0
   51.0972  -15.2368   -6.3656 C   0  0  0  0  0  0  0  0  0  0  0  0
   52.1274  -17.9457   -9.0773 C   0  0  0  0  0  0  0  0  0  0  0  0
   49.6745  -18.5136   -9.6794 C   0  0  0  0  0  0  0  0  0  0  0  0
   52.3821  -17.8637  -10.5842 C   0  0  0  0  0  0  0  0  0  0  0  0
   50.1019  -18.3916  -11.1439 C   0  0  0  0  0  0  0  0  0  0  0  0
   52.0974  -17.4178   -5.9368 C   0  0  0  0  0  0  0  0  0  0  0  0
   48.0948  -18.3446   -6.9193 C   0  0  0  0  0  0  0  0  0  0  0  0
   51.8600  -18.8103  -12.7376 C   0  0  0  0  0  0  0  0  0  0  0  0
   46.8063  -15.8716   -6.7584 C   0  0  0  0  0  0  0  0  0  0  0  0
   52.0235  -14.6637   -5.4777 C   0  0  0  0  0  0  0  0  0  0  0  0
   46.7440  -18.2826   -6.5740 C   0  0  0  0  0  0  0  0  0  0  0  0
   52.9941  -16.8356   -5.0399 C   0  0  0  0  0  0  0  0  0  0  0  0
   46.0988  -17.0483   -6.5010 C   0  0  0  0  0  0  0  0  0  0  0  0
   52.9621  -15.4592   -4.8163 C   0  0  0  0  0  0  0  0  0  0  0  0
   50.4607  -13.3175   -7.2284 H   0  0  0  0  0  0  0  0  0  0  0  0
   48.2615  -13.8267   -7.7682 H   0  0  0  0  0  0  0  0  0  0  0  0
   52.7268  -17.1393   -8.6047 H   0  0  0  0  0  0  0  0  0  0  0  0
   52.4945  -18.9226   -8.6957 H   0  0  0  0  0  0  0  0  0  0  0  0
   48.6541  -18.0821   -9.6044 H   0  0  0  0  0  0  0  0  0  0  0  0
   49.6202  -19.5881   -9.4012 H   0  0  0  0  0  0  0  0  0  0  0  0
   52.2226  -16.8168  -10.9330 H   0  0  0  0  0  0  0  0  0  0  0  0
   53.4497  -18.1218  -10.7636 H   0  0  0  0  0  0  0  0  0  0  0  0
   49.9474  -17.3435  -11.4915 H   0  0  0  0  0  0  0  0  0  0  0  0
   49.4389  -19.0504  -11.7481 H   0  0  0  0  0  0  0  0  0  0  0  0
   52.1337  -18.4876   -6.1026 H   0  0  0  0  0  0  0  0  0  0  0  0
   48.5836  -19.3096   -6.9739 H   0  0  0  0  0  0  0  0  0  0  0  0
   51.2188  -19.5341  -13.2855 H   0  0  0  0  0  0  0  0  0  0  0  0
   51.7377  -17.8013  -13.1916 H   0  0  0  0  0  0  0  0  0  0  0  0
   52.9123  -19.1420  -12.8698 H   0  0  0  0  0  0  0  0  0  0  0  0
   46.2882  -14.9224   -6.6905 H   0  0  0  0  0  0  0  0  0  0  0  0
   52.0112  -13.5975   -5.2857 H   0  0  0  0  0  0  0  0  0  0  0  0
   46.1961  -19.1928   -6.3669 H   0  0  0  0  0  0  0  0  0  0  0  0
   53.7169  -17.4515   -4.5208 H   0  0  0  0  0  0  0  0  0  0  0  0
   45.0492  -17.0021   -6.2405 H   0  0  0  0  0  0  0  0  0  0  0  0
   53.6631  -15.0078   -4.1261 H   0  0  0  0  0  0  0  0  0  0  0  0
  2  1  1  0
  3  1  1  0
  4  1  2  3
  5  9  1  0
  6  8  1  0
  7 13  1  0
  8  3  2  0
  9  2  2  0
 10  4  1  0
 11  4  1  0
 12 10  1  0
 13 11  1  0
 14  2  1  0
 15  3  1  0
 16  7  1  0
 17  8  1  0
 18  9  1  0
 19 15  2  0
 20 14  2  0
 21 19  1  0
 22 20  1  0
  7 12  1  0
  6  5  2  0
 21 17  2  0
 22 18  2  0
  5 23  1  0
  6 24  1  0
 10 25  1  0
 10 26  1  0
 11 27  1  0
 11 28  1  0
 12 29  1  0
 12 30  1  0
 13 31  1  0
 13 32  1  0
 14 33  1  0
 15 34  1  0
 16 35  1  0
 16 36  1  0
 16 37  1  0
 17 38  1  0
 18 39  1  0
 19 40  1  0
 20 41  1  0
 21 42  1  0
 22 43  1  0
M  END
> <Uni-Dock RESULT> 
ENERGY=   -6.313  LOWER_BOUND=    0.000  UPPER_BOUND=    0.000
INTER + INTRA:          -6.313
INTER:                  -6.313
INTRA:                   0.000
UNBOUND:                 0.000

$$$$

     RDKit          3D

 43 46  0  0  0  0  0  0  0  0999 V2000
   50.4034  -17.4921   -7.3433 C   0  0  0  0  0  0  0  0  0  0  0  0
   48.9954  -17.0956   -7.1615 C   0  0  0  0  0  0  0  0  0  0  0  0
   51.0842  -17.9297   -6.1112 C   0  0  0  0  0  0  0  0  0  0  0  0
   51.0108  -17.5069   -8.5631 C   0  0  0  0  0  0  0  0  0  0  0  0
   48.3696  -19.4526   -6.4420 C   0  0  0  0  0  0  0  0  0  0  0  0
   49.4996  -19.9038   -5.8738 C   0  0  0  0  0  0  0  0  0  0  0  0
   52.2160  -17.7613  -11.1623 N   0  0  0  0  0  0  0  0  0  0  0  0
   50.6348  -19.0691   -5.4084 C   0  0  0  0  0  0  0  0  0  0  0  0
   48.0377  -18.0321   -6.7143 C   0  0  0  0  0  0  0  0  0  0  0  0
   50.3017  -16.9933   -9.8042 C   0  0  0  0  0  0  0  0  0  0  0  0
   52.4802  -17.8631   -8.7090 C   0  0  0  0  0  0  0  0  0  0  0  0
   50.7461  -17.7390  -11.0647 C   0  0  0  0  0  0  0  0  0  0  0  0
   52.7711  -18.5475  -10.0465 C   0  0  0  0  0  0  0  0  0  0  0  0
   48.6118  -15.7649   -7.4006 C   0  0  0  0  0  0  0  0  0  0  0  0
   52.1666  -17.1841   -5.6133 C   0  0  0  0  0  0  0  0  0  0  0  0
   52.6221  -18.3585  -12.4441 C   0  0  0  0  0  0  0  0  0  0  0  0
   51.3308  -19.4792   -4.2585 C   0  0  0  0  0  0  0  0  0  0  0  0
   46.6973  -17.6292   -6.5881 C   0  0  0  0  0  0  0  0  0  0  0  0
   52.8311  -17.5922   -4.4560 C   0  0  0  0  0  0  0  0  0  0  0  0
   47.2804  -15.3760   -7.2469 C   0  0  0  0  0  0  0  0  0  0  0  0
   52.4184  -18.7424   -3.7836 C   0  0  0  0  0  0  0  0  0  0  0  0
   46.3230  -16.3088   -6.8483 C   0  0  0  0  0  0  0  0  0  0  0  0
   47.5902  -20.1828   -6.6275 H   0  0  0  0  0  0  0  0  0  0  0  0
   49.5433  -20.9626   -5.6455 H   0  0  0  0  0  0  0  0  0  0  0  0
   49.2004  -17.1138   -9.7298 H   0  0  0  0  0  0  0  0  0  0  0  0
   50.5272  -15.9113   -9.9191 H   0  0  0  0  0  0  0  0  0  0  0  0
   52.8173  -18.5580   -7.9113 H   0  0  0  0  0  0  0  0  0  0  0  0
   53.0799  -16.9305   -8.6357 H   0  0  0  0  0  0  0  0  0  0  0  0
   50.3300  -18.7733  -11.0524 H   0  0  0  0  0  0  0  0  0  0  0  0
   50.3137  -17.2101  -11.9434 H   0  0  0  0  0  0  0  0  0  0  0  0
   52.3506  -19.5801  -10.0365 H   0  0  0  0  0  0  0  0  0  0  0  0
   53.8757  -18.6322  -10.1524 H   0  0  0  0  0  0  0  0  0  0  0  0
   49.3451  -15.0311   -7.7120 H   0  0  0  0  0  0  0  0  0  0  0  0
   52.4980  -16.2898   -6.1268 H   0  0  0  0  0  0  0  0  0  0  0  0
   53.7298  -18.3562  -12.5332 H   0  0  0  0  0  0  0  0  0  0  0  0
   52.2526  -19.4043  -12.5395 H   0  0  0  0  0  0  0  0  0  0  0  0
   52.2258  -17.7558  -13.2894 H   0  0  0  0  0  0  0  0  0  0  0  0
   51.0222  -20.3663   -3.7185 H   0  0  0  0  0  0  0  0  0  0  0  0
   45.9396  -18.3371   -6.2739 H   0  0  0  0  0  0  0  0  0  0  0  0
   53.6693  -17.0184   -4.0824 H   0  0  0  0  0  0  0  0  0  0  0  0
   46.9900  -14.3516   -7.4406 H   0  0  0  0  0  0  0  0  0  0  0  0
   52.9394  -19.0621   -2.8904 H   0  0  0  0  0  0  0  0  0  0  0  0
   45.2894  -16.0078   -6.7368 H   0  0  0  0  0  0  0  0  0  0  0  0
  2  1  1  0
  3  1  1  0
  4  1  2  3
  5  9  1  0
  6  8  1  0
  7 13  1  0
  8  3  2  0
  9  2  2  0
 10  4  1  0
 11  4  1  0
 12 10  1  0
 13 11  1  0
 14  2  1  0
 15  3  1  0
 16  7  1  0
 17  8  1  0
 18  9  1  0
 19 15  2  0
 20 14  2  0
 21 19  1  0
 22 20  1  0
  7 12  1  0
  6  5  2  0
 21 17  2  0
 22 18  2  0
  5 23  1  0
  6 24  1  0
 10 25  1  0
 10 26  1  0
 11 27  1  0
 11 28  1  0
 12 29  1  0
 12 30  1  0
 13 31  1  0
 13 32  1  0
 14 33  1  0
 15 34  1  0
 16 35  1  0
 16 36  1  0
 16 37  1  0
 17 38  1  0
 18 39  1  0
 19 40  1  0
 20 41  1  0
 21 42  1  0
 22 43  1  0
M  END
> <Uni-Dock RESULT> 
ENERGY=   -5.239  LOWER_BOUND=    1.291  UPPER_BOUND=    4.432
INTER + INTRA:          -5.239
INTER:                  -5.239
INTRA:                   0.000
UNBOUND:                 0.000

$$$$

     RDKit          3D

 43 46  0  0  0  0  0  0  0  0999 V2000
   46.8835  -16.1051  -10.5766 C   0  0  0  0  0  0  0  0  0  0  0  0
   45.6445  -15.8644  -11.3379 C   0  0  0  0  0  0  0  0  0  0  0  0
   46.6802  -16.4071   -9.1482 C   0  0  0  0  0  0  0  0  0  0  0  0
   48.1156  -16.1042  -11.1591 C   0  0  0  0  0  0  0  0  0  0  0  0
   44.8565  -18.2434  -10.9089 C   0  0  0  0  0  0  0  0  0  0  0  0
   45.4167  -18.5370   -9.7243 C   0  0  0  0  0  0  0  0  0  0  0  0
   50.6850  -16.3338  -12.4313 N   0  0  0  0  0  0  0  0  0  0  0  0
   45.9643  -17.5583   -8.7526 C   0  0  0  0  0  0  0  0  0  0  0  0
   44.6767  -16.8836  -11.4752 C   0  0  0  0  0  0  0  0  0  0  0  0
   48.2977  -15.7303  -12.6199 C   0  0  0  0  0  0  0  0  0  0  0  0
   49.3779  -16.2962  -10.3364 C   0  0  0  0  0  0  0  0  0  0  0  0
   49.4730  -16.4752  -13.2571 C   0  0  0  0  0  0  0  0  0  0  0  0
   50.4771  -17.0013  -11.1343 C   0  0  0  0  0  0  0  0  0  0  0  0
   45.4094  -14.5981  -11.9003 C   0  0  0  0  0  0  0  0  0  0  0  0
   47.1719  -15.5215   -8.1739 C   0  0  0  0  0  0  0  0  0  0  0  0
   51.8343  -16.9366  -13.1243 C   0  0  0  0  0  0  0  0  0  0  0  0
   45.8219  -17.8350   -7.3822 C   0  0  0  0  0  0  0  0  0  0  0  0
   43.5245  -16.6313  -12.2393 C   0  0  0  0  0  0  0  0  0  0  0  0
   47.0002  -15.7995   -6.8172 C   0  0  0  0  0  0  0  0  0  0  0  0
   44.2481  -14.3575  -12.6359 C   0  0  0  0  0  0  0  0  0  0  0  0
   46.3326  -16.9585   -6.4218 C   0  0  0  0  0  0  0  0  0  0  0  0
   43.3104  -15.3751  -12.8115 C   0  0  0  0  0  0  0  0  0  0  0  0
   44.4072  -19.0653  -11.4545 H   0  0  0  0  0  0  0  0  0  0  0  0
   45.3756  -19.5727   -9.4071 H   0  0  0  0  0  0  0  0  0  0  0  0
   47.3975  -15.9725  -13.2232 H   0  0  0  0  0  0  0  0  0  0  0  0
   48.4777  -14.6357  -12.6859 H   0  0  0  0  0  0  0  0  0  0  0  0
   49.1908  -16.9122   -9.4316 H   0  0  0  0  0  0  0  0  0  0  0  0
   49.7434  -15.2989  -10.0100 H   0  0  0  0  0  0  0  0  0  0  0  0
   49.2046  -17.5488  -13.3933 H   0  0  0  0  0  0  0  0  0  0  0  0
   49.6462  -16.0385  -14.2661 H   0  0  0  0  0  0  0  0  0  0  0  0
   50.2064  -18.0737  -11.2751 H   0  0  0  0  0  0  0  0  0  0  0  0
   51.4122  -16.9638  -10.5321 H   0  0  0  0  0  0  0  0  0  0  0  0
   46.1302  -13.7998  -11.7727 H   0  0  0  0  0  0  0  0  0  0  0  0
   47.6934  -14.6187   -8.4676 H   0  0  0  0  0  0  0  0  0  0  0  0
   52.7561  -16.8117  -12.5162 H   0  0  0  0  0  0  0  0  0  0  0  0
   51.6696  -18.0210  -13.3151 H   0  0  0  0  0  0  0  0  0  0  0  0
   52.0103  -16.4210  -14.0929 H   0  0  0  0  0  0  0  0  0  0  0  0
   45.3013  -18.7269   -7.0544 H   0  0  0  0  0  0  0  0  0  0  0  0
   42.7813  -17.4065  -12.3824 H   0  0  0  0  0  0  0  0  0  0  0  0
   47.3886  -15.1177   -6.0717 H   0  0  0  0  0  0  0  0  0  0  0  0
   44.0769  -13.3826  -13.0735 H   0  0  0  0  0  0  0  0  0  0  0  0
   46.2067  -17.1769   -5.3692 H   0  0  0  0  0  0  0  0  0  0  0  0
   42.4138  -15.1896  -13.3886 H   0  0  0  0  0  0  0  0  0  0  0  0
  2  1  1  0
  3  1  1  0
  4  1  2  3
  5  9  1  0
  6  8  1  0
  7 13  1  0
  8  3  2  0
  9  2  2  0
 10  4  1  0
 11  4  1  0
 12 10  1  0
 13 11  1  0
 14  2  1  0
 15  3  1  0
 16  7  1  0
 17  8  1  0
 18  9  1  0
 19 15  2  0
 20 14  2  0
 21 19  1  0
 22 20  1  0
  7 12  1  0
  6  5  2  0
 21 17  2  0
 22 18  2  0
  5 23  1  0
  6 24  1  0
 10 25  1  0
 10 26  1  0
 11 27  1  0
 11 28  1  0
 12 29  1  0
 12 30  1  0
 13 31  1  0
 13 32  1  0
 14 33  1  0
 15 34  1  0
 16 35  1  0
 16 36  1  0
 16 37  1  0
 17 38  1  0
 18 39  1  0
 19 40  1  0
 20 41  1  0
 21 42  1  0
 22 43  1  0
M  END
> <Uni-Dock RESULT> 
ENERGY=   -5.213  LOWER_BOUND=    3.838  UPPER_BOUND=    6.283
INTER + INTRA:          -5.213
INTER:                  -5.213
INTRA:                   0.000
UNBOUND:                 0.000

$$$$

     RDKit          3D

 43 46  0  0  0  0  0  0  0  0999 V2000
   48.0345  -17.2216   -8.0001 C   0  0  0  0  0  0  0  0  0  0  0  0
   47.5142  -18.1953   -7.0234 C   0  0  0  0  0  0  0  0  0  0  0  0
   49.0113  -16.2625   -7.4534 C   0  0  0  0  0  0  0  0  0  0  0  0
   47.6831  -17.2422   -9.3166 C   0  0  0  0  0  0  0  0  0  0  0  0
   49.8325  -19.1870   -6.6978 C   0  0  0  0  0  0  0  0  0  0  0  0
   50.6425  -18.1414   -6.9304 C   0  0  0  0  0  0  0  0  0  0  0  0
   47.1229  -17.4345  -12.1313 N   0  0  0  0  0  0  0  0  0  0  0  0
   50.2431  -16.7122   -6.9294 C   0  0  0  0  0  0  0  0  0  0  0  0
   48.3816  -19.1154   -6.3948 C   0  0  0  0  0  0  0  0  0  0  0  0
   46.6289  -18.2039   -9.8372 C   0  0  0  0  0  0  0  0  0  0  0  0
   48.1902  -16.1882  -10.2856 C   0  0  0  0  0  0  0  0  0  0  0  0
   46.9013  -18.6198  -11.2846 C   0  0  0  0  0  0  0  0  0  0  0  0
   48.3527  -16.7460  -11.7015 C   0  0  0  0  0  0  0  0  0  0  0  0
   46.1492  -18.1822   -6.6889 C   0  0  0  0  0  0  0  0  0  0  0  0
   48.6969  -14.8930   -7.4206 C   0  0  0  0  0  0  0  0  0  0  0  0
   47.2457  -17.8429  -13.5394 C   0  0  0  0  0  0  0  0  0  0  0  0
   51.1662  -15.7668   -6.4508 C   0  0  0  0  0  0  0  0  0  0  0  0
   47.8454  -20.0541   -5.4970 C   0  0  0  0  0  0  0  0  0  0  0  0
   49.6159  -13.9702   -6.9192 C   0  0  0  0  0  0  0  0  0  0  0  0
   45.6376  -19.1062   -5.7768 C   0  0  0  0  0  0  0  0  0  0  0  0
   50.8519  -14.4058   -6.4419 C   0  0  0  0  0  0  0  0  0  0  0  0
   46.4833  -20.0458   -5.1872 C   0  0  0  0  0  0  0  0  0  0  0  0
   50.3008  -20.1621   -6.6279 H   0  0  0  0  0  0  0  0  0  0  0  0
   51.7006  -18.3550   -7.0300 H   0  0  0  0  0  0  0  0  0  0  0  0
   46.5884  -19.1366   -9.2360 H   0  0  0  0  0  0  0  0  0  0  0  0
   45.6364  -17.7076   -9.7784 H   0  0  0  0  0  0  0  0  0  0  0  0
   49.1808  -15.7899   -9.9805 H   0  0  0  0  0  0  0  0  0  0  0  0
   47.4660  -15.3457  -10.3039 H   0  0  0  0  0  0  0  0  0  0  0  0
   47.7805  -19.3046  -11.3169 H   0  0  0  0  0  0  0  0  0  0  0  0
   46.0157  -19.1876  -11.6481 H   0  0  0  0  0  0  0  0  0  0  0  0
   49.2287  -17.4350  -11.7328 H   0  0  0  0  0  0  0  0  0  0  0  0
   48.5687  -15.8917  -12.3813 H   0  0  0  0  0  0  0  0  0  0  0  0
   45.4815  -17.4589   -7.1407 H   0  0  0  0  0  0  0  0  0  0  0  0
   47.7411  -14.5415   -7.7896 H   0  0  0  0  0  0  0  0  0  0  0  0
   47.3893  -16.9501  -14.1854 H   0  0  0  0  0  0  0  0  0  0  0  0
   48.1020  -18.5388  -13.6866 H   0  0  0  0  0  0  0  0  0  0  0  0
   46.3114  -18.3418  -13.8758 H   0  0  0  0  0  0  0  0  0  0  0  0
   52.1293  -16.0854   -6.0701 H   0  0  0  0  0  0  0  0  0  0  0  0
   48.4865  -20.7883   -5.0240 H   0  0  0  0  0  0  0  0  0  0  0  0
   49.3711  -12.9160   -6.9046 H   0  0  0  0  0  0  0  0  0  0  0  0
   44.5840  -19.0963   -5.5297 H   0  0  0  0  0  0  0  0  0  0  0  0
   51.5668  -13.6883   -6.0603 H   0  0  0  0  0  0  0  0  0  0  0  0
   46.0840  -20.7668   -4.4857 H   0  0  0  0  0  0  0  0  0  0  0  0
  2  1  1  0
  3  1  1  0
  4  1  2  3
  5  9  1  0
  6  8  1  0
  7 13  1  0
  8  3  2  0
  9  2  2  0
 10  4  1  0
 11  4  1  0
 12 10  1  0
 13 11  1  0
 14  2  1  0
 15  3  1  0
 16  7  1  0
 17  8  1  0
 18  9  1  0
 19 15  2  0
 20 14  2  0
 21 19  1  0
 22 20  1  0
  7 12  1  0
  6  5  2  0
 21 17  2  0
 22 18  2  0
  5 23  1  0
  6 24  1  0
 10 25  1  0
 10 26  1  0
 11 27  1  0
 11 28  1  0
 12 29  1  0
 12 30  1  0
 13 31  1  0
 13 32  1  0
 14 33  1  0
 15 34  1  0
 16 35  1  0
 16 36  1  0
 16 37  1  0
 17 38  1  0
 18 39  1  0
 19 40  1  0
 20 41  1  0
 21 42  1  0
 22 43  1  0
M  END
> <Uni-Dock RESULT> 
ENERGY=   -5.213  LOWER_BOUND=    2.210  UPPER_BOUND=    4.829
INTER + INTRA:          -5.213
INTER:                  -5.213
INTRA:                   0.000
UNBOUND:                 0.000

$$$$

     RDKit          3D

 43 46  0  0  0  0  0  0  0  0999 V2000
   48.7613  -17.1990   -7.9293 C   0  0  0  0  0  0  0  0  0  0  0  0
   47.9765  -18.0907   -7.0566 C   0  0  0  0  0  0  0  0  0  0  0  0
   49.7593  -16.3718   -7.2272 C   0  0  0  0  0  0  0  0  0  0  0  0
   48.6152  -17.1817   -9.2841 C   0  0  0  0  0  0  0  0  0  0  0  0
   50.0699  -19.3736   -6.3962 C   0  0  0  0  0  0  0  0  0  0  0  0
   51.0344  -18.4437   -6.4884 C   0  0  0  0  0  0  0  0  0  0  0  0
   48.4707  -17.3167  -12.1536 N   0  0  0  0  0  0  0  0  0  0  0  0
   50.8280  -16.9747   -6.5283 C   0  0  0  0  0  0  0  0  0  0  0  0
   48.6114  -19.1120   -6.3163 C   0  0  0  0  0  0  0  0  0  0  0  0
   47.5372  -18.0013   -9.9721 C   0  0  0  0  0  0  0  0  0  0  0  0
   49.3963  -16.2086  -10.1501 C   0  0  0  0  0  0  0  0  0  0  0  0
   47.9709  -18.4579  -11.3670 C   0  0  0  0  0  0  0  0  0  0  0  0
   49.6992  -16.7915  -11.5323 C   0  0  0  0  0  0  0  0  0  0  0  0
   46.5898  -17.8982   -6.9333 C   0  0  0  0  0  0  0  0  0  0  0  0
   49.6235  -14.9729   -7.2236 C   0  0  0  0  0  0  0  0  0  0  0  0
   48.7528  -17.7462  -13.5321 C   0  0  0  0  0  0  0  0  0  0  0  0
   51.7819  -16.1546   -5.9020 C   0  0  0  0  0  0  0  0  0  0  0  0
   47.8275  -19.9675   -5.5235 C   0  0  0  0  0  0  0  0  0  0  0  0
   50.5670  -14.1744   -6.5757 C   0  0  0  0  0  0  0  0  0  0  0  0
   45.8298  -18.7422   -6.1225 C   0  0  0  0  0  0  0  0  0  0  0  0
   51.6488  -14.7642   -5.9220 C   0  0  0  0  0  0  0  0  0  0  0  0
   46.4468  -19.7802   -5.4243 C   0  0  0  0  0  0  0  0  0  0  0  0
   50.3917  -20.4009   -6.2695 H   0  0  0  0  0  0  0  0  0  0  0  0
   52.0586  -18.7938   -6.4290 H   0  0  0  0  0  0  0  0  0  0  0  0
   47.2850  -18.9171   -9.3971 H   0  0  0  0  0  0  0  0  0  0  0  0
   46.6200  -17.3797  -10.0580 H   0  0  0  0  0  0  0  0  0  0  0  0
   50.3719  -15.9407   -9.6924 H   0  0  0  0  0  0  0  0  0  0  0  0
   48.7986  -15.2791  -10.2665 H   0  0  0  0  0  0  0  0  0  0  0  0
   48.7486  -19.2515  -11.2747 H   0  0  0  0  0  0  0  0  0  0  0  0
   47.0851  -18.9079  -11.8686 H   0  0  0  0  0  0  0  0  0  0  0  0
   50.4730  -17.5888  -11.4397 H   0  0  0  0  0  0  0  0  0  0  0  0
   50.1251  -15.9767  -12.1595 H   0  0  0  0  0  0  0  0  0  0  0  0
   46.0982  -17.0969   -7.4713 H   0  0  0  0  0  0  0  0  0  0  0  0
   48.7889  -14.5023   -7.7287 H   0  0  0  0  0  0  0  0  0  0  0  0
   49.1077  -16.8836  -14.1364 H   0  0  0  0  0  0  0  0  0  0  0  0
   49.5241  -18.5485  -13.5572 H   0  0  0  0  0  0  0  0  0  0  0  0
   47.8242  -18.1213  -14.0136 H   0  0  0  0  0  0  0  0  0  0  0  0
   52.6262  -16.5934   -5.3838 H   0  0  0  0  0  0  0  0  0  0  0  0
   48.2884  -20.7759   -4.9687 H   0  0  0  0  0  0  0  0  0  0  0  0
   50.4614  -13.0973   -6.5837 H   0  0  0  0  0  0  0  0  0  0  0  0
   44.7610  -18.5937   -6.0383 H   0  0  0  0  0  0  0  0  0  0  0  0
   52.3840  -14.1435   -5.4264 H   0  0  0  0  0  0  0  0  0  0  0  0
   45.8552  -20.4388   -4.8017 H   0  0  0  0  0  0  0  0  0  0  0  0
  2  1  1  0
  3  1  1  0
  4  1  2  3
  5  9  1  0
  6  8  1  0
  7 13  1  0
  8  3  2  0
  9  2  2  0
 10  4  1  0
 11  4  1  0
 12 10  1  0
 13 11  1  0
 14  2  1  0
 15  3  1  0
 16  7  1  0
 17  8  1  0
 18  9  1  0
 19 15  2  0
 20 14  2  0
 21 19  1  0
 22 20  1  0
  7 12  1  0
  6  5  2  0
 21 17  2  0
 22 18  2  0
  5 23  1  0
  6 24  1  0
 10 25  1  0
 10 26  1  0
 11 27  1  0
 11 28  1  0
 12 29  1  0
 12 30  1  0
 13 31  1  0
 13 32  1  0
 14 33  1  0
 15 34  1  0
 16 35  1  0
 16 36  1  0
 16 37  1  0
 17 38  1  0
 18 39  1  0
 19 40  1  0
 20 41  1  0
 21 42  1  0
 22 43  1  0
M  END
> <Uni-Dock RESULT> 
ENERGY=   -5.104  LOWER_BOUND=    1.787  UPPER_BOUND=    4.637
INTER + INTRA:          -5.104
INTER:                  -5.104
INTRA:                   0.000
UNBOUND:                 0.000

$$$$

     RDKit          3D

 43 46  0  0  0  0  0  0  0  0999 V2000
   46.2901  -16.0148  -10.8404 C   0  0  0  0  0  0  0  0  0  0  0  0
   47.3388  -15.9702   -9.8054 C   0  0  0  0  0  0  0  0  0  0  0  0
   46.4837  -15.0695  -11.9548 C   0  0  0  0  0  0  0  0  0  0  0  0
   45.2541  -16.8991  -10.7988 C   0  0  0  0  0  0  0  0  0  0  0  0
   49.0968  -16.7259  -11.4795 C   0  0  0  0  0  0  0  0  0  0  0  0
   48.6343  -16.2386  -12.6423 C   0  0  0  0  0  0  0  0  0  0  0  0
   43.2054  -18.9178  -10.8297 N   0  0  0  0  0  0  0  0  0  0  0  0
   47.6130  -15.1731  -12.7963 C   0  0  0  0  0  0  0  0  0  0  0  0
   48.6761  -16.2931  -10.1239 C   0  0  0  0  0  0  0  0  0  0  0  0
   45.0488  -17.8190   -9.6077 C   0  0  0  0  0  0  0  0  0  0  0  0
   44.1570  -16.8797  -11.8491 C   0  0  0  0  0  0  0  0  0  0  0  0
   44.4126  -19.1493  -10.0174 C   0  0  0  0  0  0  0  0  0  0  0  0
   43.5837  -18.2761  -12.1010 C   0  0  0  0  0  0  0  0  0  0  0  0
   47.0098  -15.5675   -8.4998 C   0  0  0  0  0  0  0  0  0  0  0  0
   45.5546  -14.0346  -12.1573 C   0  0  0  0  0  0  0  0  0  0  0  0
   42.5314  -20.1978  -11.0979 C   0  0  0  0  0  0  0  0  0  0  0  0
   47.7462  -14.2784  -13.8717 C   0  0  0  0  0  0  0  0  0  0  0  0
   49.6430  -16.2763   -9.1042 C   0  0  0  0  0  0  0  0  0  0  0  0
   45.7154  -13.1396  -13.2159 C   0  0  0  0  0  0  0  0  0  0  0  0
   47.9876  -15.5332   -7.5047 C   0  0  0  0  0  0  0  0  0  0  0  0
   46.8058  -13.2659  -14.0765 C   0  0  0  0  0  0  0  0  0  0  0  0
   49.3010  -15.8943   -7.8048 C   0  0  0  0  0  0  0  0  0  0  0  0
   49.9214  -17.4273  -11.5368 H   0  0  0  0  0  0  0  0  0  0  0  0
   49.1219  -16.5851  -13.5464 H   0  0  0  0  0  0  0  0  0  0  0  0
   46.0081  -18.0621   -9.1040 H   0  0  0  0  0  0  0  0  0  0  0  0
   44.3894  -17.3073   -8.8741 H   0  0  0  0  0  0  0  0  0  0  0  0
   44.5275  -16.5025  -12.8256 H   0  0  0  0  0  0  0  0  0  0  0  0
   43.3445  -16.2066  -11.5006 H   0  0  0  0  0  0  0  0  0  0  0  0
   45.1581  -19.7635  -10.5743 H   0  0  0  0  0  0  0  0  0  0  0  0
   44.1465  -19.7001   -9.0875 H   0  0  0  0  0  0  0  0  0  0  0  0
   44.3309  -18.8922  -12.6534 H   0  0  0  0  0  0  0  0  0  0  0  0
   42.6884  -18.1641  -12.7526 H   0  0  0  0  0  0  0  0  0  0  0  0
   45.9933  -15.2860   -8.2532 H   0  0  0  0  0  0  0  0  0  0  0  0
   44.7027  -13.9264  -11.4972 H   0  0  0  0  0  0  0  0  0  0  0  0
   41.6069  -20.0264  -11.6905 H   0  0  0  0  0  0  0  0  0  0  0  0
   43.1950  -20.8968  -11.6550 H   0  0  0  0  0  0  0  0  0  0  0  0
   42.2227  -20.6750  -10.1430 H   0  0  0  0  0  0  0  0  0  0  0  0
   48.5893  -14.3558  -14.5478 H   0  0  0  0  0  0  0  0  0  0  0  0
   50.6699  -16.5475   -9.3182 H   0  0  0  0  0  0  0  0  0  0  0  0
   44.9918  -12.3500  -13.3717 H   0  0  0  0  0  0  0  0  0  0  0  0
   47.7260  -15.2301   -6.4992 H   0  0  0  0  0  0  0  0  0  0  0  0
   46.9253  -12.5759  -14.9017 H   0  0  0  0  0  0  0  0  0  0  0  0
   50.0569  -15.8747   -7.0304 H   0  0  0  0  0  0  0  0  0  0  0  0
  2  1  1  0
  3  1  1  0
  4  1  2  3
  5  9  1  0
  6  8  1  0
  7 13  1  0
  8  3  2  0
  9  2  2  0
 10  4  1  0
 11  4  1  0
 12 10  1  0
 13 11  1  0
 14  2  1  0
 15  3  1  0
 16  7  1  0
 17  8  1  0
 18  9  1  0
 19 15  2  0
 20 14  2  0
 21 19  1  0
 22 20  1  0
  7 12  1  0
  6  5  2  0
 21 17  2  0
 22 18  2  0
  5 23  1  0
  6 24  1  0
 10 25  1  0
 10 26  1  0
 11 27  1  0
 11 28  1  0
 12 29  1  0
 12 30  1  0
 13 31  1  0
 13 32  1  0
 14 33  1  0
 15 34  1  0
 16 35  1  0
 16 36  1  0
 16 37  1  0
 17 38  1  0
 18 39  1  0
 19 40  1  0
 20 41  1  0
 21 42  1  0
 22 43  1  0
M  END
> <Uni-Dock RESULT> 
ENERGY=   -4.479  LOWER_BOUND=    4.692  UPPER_BOUND=    6.578
INTER + INTRA:          -4.479
INTER:                  -4.479
INTRA:                   0.000
UNBOUND:                 0.000

$$$$

     RDKit          3D

 43 46  0  0  0  0  0  0  0  0999 V2000
   46.4874  -16.0982  -10.6449 C   0  0  0  0  0  0  0  0  0  0  0  0
   47.5166  -16.0013   -9.5941 C   0  0  0  0  0  0  0  0  0  0  0  0
   46.7323  -15.2522  -11.8270 C   0  0  0  0  0  0  0  0  0  0  0  0
   45.4235  -16.9450  -10.5553 C   0  0  0  0  0  0  0  0  0  0  0  0
   49.2823  -16.9418  -11.1632 C   0  0  0  0  0  0  0  0  0  0  0  0
   48.8581  -16.5366  -12.3712 C   0  0  0  0  0  0  0  0  0  0  0  0
   43.3133  -18.8977  -10.4692 N   0  0  0  0  0  0  0  0  0  0  0  0
   47.8740  -15.4571  -12.6325 C   0  0  0  0  0  0  0  0  0  0  0  0
   48.8491  -16.3885   -9.8562 C   0  0  0  0  0  0  0  0  0  0  0  0
   45.1662  -17.7591   -9.2991 C   0  0  0  0  0  0  0  0  0  0  0  0
   44.3482  -16.9779  -11.6276 C   0  0  0  0  0  0  0  0  0  0  0  0
   44.4966  -19.0986   -9.6146 C   0  0  0  0  0  0  0  0  0  0  0  0
   43.7363  -18.3724  -11.7792 C   0  0  0  0  0  0  0  0  0  0  0  0
   47.1751  -15.4847   -8.3325 C   0  0  0  0  0  0  0  0  0  0  0  0
   45.8403  -14.2099  -12.1322 C   0  0  0  0  0  0  0  0  0  0  0  0
   42.6048  -20.1745  -10.6486 C   0  0  0  0  0  0  0  0  0  0  0  0
   48.0561  -14.6565  -13.7730 C   0  0  0  0  0  0  0  0  0  0  0  0
   49.7960  -16.3182   -8.8202 C   0  0  0  0  0  0  0  0  0  0  0  0
   46.0497  -13.4086  -13.2554 C   0  0  0  0  0  0  0  0  0  0  0  0
   48.1339  -15.3993   -7.3221 C   0  0  0  0  0  0  0  0  0  0  0  0
   47.1522  -13.6364  -14.0789 C   0  0  0  0  0  0  0  0  0  0  0  0
   49.4409  -15.8224   -7.5634 C   0  0  0  0  0  0  0  0  0  0  0  0
   50.0853  -17.6698  -11.1459 H   0  0  0  0  0  0  0  0  0  0  0  0
   49.3520  -16.9694  -13.2336 H   0  0  0  0  0  0  0  0  0  0  0  0
   46.1073  -17.9891   -8.7566 H   0  0  0  0  0  0  0  0  0  0  0  0
   44.5091  -17.1704   -8.6235 H   0  0  0  0  0  0  0  0  0  0  0  0
   44.7493  -16.6920  -12.6228 H   0  0  0  0  0  0  0  0  0  0  0  0
   43.5506  -16.2549  -11.3521 H   0  0  0  0  0  0  0  0  0  0  0  0
   45.2331  -19.7777  -10.1040 H   0  0  0  0  0  0  0  0  0  0  0  0
   44.1953  -19.5643   -8.6496 H   0  0  0  0  0  0  0  0  0  0  0  0
   44.4744  -19.0531  -12.2639 H   0  0  0  0  0  0  0  0  0  0  0  0
   42.8578  -18.2868  -12.4572 H   0  0  0  0  0  0  0  0  0  0  0  0
   46.1633  -15.1542   -8.1316 H   0  0  0  0  0  0  0  0  0  0  0  0
   44.9795  -14.0234  -11.5018 H   0  0  0  0  0  0  0  0  0  0  0  0
   41.6979  -20.0242  -11.2732 H   0  0  0  0  0  0  0  0  0  0  0  0
   43.2568  -20.9357  -11.1331 H   0  0  0  0  0  0  0  0  0  0  0  0
   42.2627  -20.5636   -9.6655 H   0  0  0  0  0  0  0  0  0  0  0  0
   48.9093  -14.8135  -14.4221 H   0  0  0  0  0  0  0  0  0  0  0  0
   50.8178  -16.6363   -8.9891 H   0  0  0  0  0  0  0  0  0  0  0  0
   45.3545  -12.6129  -13.4898 H   0  0  0  0  0  0  0  0  0  0  0  0
   47.8624  -15.0083   -6.3502 H   0  0  0  0  0  0  0  0  0  0  0  0
   47.3094  -13.0192  -14.9540 H   0  0  0  0  0  0  0  0  0  0  0  0
   50.1818  -15.7627   -6.7767 H   0  0  0  0  0  0  0  0  0  0  0  0
  2  1  1  0
  3  1  1  0
  4  1  2  3
  5  9  1  0
  6  8  1  0
  7 13  1  0
  8  3  2  0
  9  2  2  0
 10  4  1  0
 11  4  1  0
 12 10  1  0
 13 11  1  0
 14  2  1  0
 15  3  1  0
 16  7  1  0
 17  8  1  0
 18  9  1  0
 19 15  2  0
 20 14  2  0
 21 19  1  0
 22 20  1  0
  7 12  1  0
  6  5  2  0
 21 17  2  0
 22 18  2  0
  5 23  1  0
  6 24  1  0
 10 25  1  0
 10 26  1  0
 11 27  1  0
 11 28  1  0
 12 29  1  0
 12 30  1  0
 13 31  1  0
 13 32  1  0
 14 33  1  0
 15 34  1  0
 16 35  1  0
 16 36  1  0
 16 37  1  0
 17 38  1  0
 18 39  1  0
 19 40  1  0
 20 41  1  0
 21 42  1  0
 22 43  1  0
M  END
> <Uni-Dock RESULT> 
ENERGY=   -4.460  LOWER_BOUND=    4.438  UPPER_BOUND=    6.408
INTER + INTRA:          -4.460
INTER:                  -4.460
INTRA:                   0.000
UNBOUND:                 0.000

$$$$

     RDKit          3D

 43 46  0  0  0  0  0  0  0  0999 V2000
   49.8957  -18.1738   -7.4403 C   0  0  0  0  0  0  0  0  0  0  0  0
   48.5753  -18.5264   -6.8881 C   0  0  0  0  0  0  0  0  0  0  0  0
   49.8761  -17.7215   -8.8431 C   0  0  0  0  0  0  0  0  0  0  0  0
   51.0366  -18.2092   -6.6958 C   0  0  0  0  0  0  0  0  0  0  0  0
   47.7607  -16.1343   -7.1686 C   0  0  0  0  0  0  0  0  0  0  0  0
   48.4644  -15.6988   -8.2262 C   0  0  0  0  0  0  0  0  0  0  0  0
   53.3992  -18.0595   -5.0621 N   0  0  0  0  0  0  0  0  0  0  0  0
   49.1762  -16.5513   -9.2105 C   0  0  0  0  0  0  0  0  0  0  0  0
   47.5589  -17.5521   -6.7797 C   0  0  0  0  0  0  0  0  0  0  0  0
   51.0336  -18.7370   -5.2715 C   0  0  0  0  0  0  0  0  0  0  0  0
   52.3903  -17.8977   -7.3103 C   0  0  0  0  0  0  0  0  0  0  0  0
   52.0820  -18.0388   -4.4022 C   0  0  0  0  0  0  0  0  0  0  0  0
   53.3430  -17.2585   -6.2975 C   0  0  0  0  0  0  0  0  0  0  0  0
   48.3156  -19.8522   -6.5008 C   0  0  0  0  0  0  0  0  0  0  0  0
   50.5293  -18.4825   -9.8277 C   0  0  0  0  0  0  0  0  0  0  0  0
   54.4197  -17.5091   -4.1564 C   0  0  0  0  0  0  0  0  0  0  0  0
   49.2101  -16.1290  -10.5504 C   0  0  0  0  0  0  0  0  0  0  0  0
   46.3246  -17.9144   -6.2139 C   0  0  0  0  0  0  0  0  0  0  0  0
   50.5323  -18.0612  -11.1581 C   0  0  0  0  0  0  0  0  0  0  0  0
   47.0757  -20.2000   -5.9631 C   0  0  0  0  0  0  0  0  0  0  0  0
   49.8798  -16.8820  -11.5177 C   0  0  0  0  0  0  0  0  0  0  0  0
   46.0840  -19.2307   -5.8129 C   0  0  0  0  0  0  0  0  0  0  0  0
   47.2101  -15.3883   -6.6070 H   0  0  0  0  0  0  0  0  0  0  0  0
   48.4264  -14.6357   -8.4349 H   0  0  0  0  0  0  0  0  0  0  0  0
   50.0513  -18.5844   -4.7770 H   0  0  0  0  0  0  0  0  0  0  0  0
   51.2455  -19.8276   -5.2972 H   0  0  0  0  0  0  0  0  0  0  0  0
   52.3037  -17.1906   -8.1621 H   0  0  0  0  0  0  0  0  0  0  0  0
   52.8351  -18.8440   -7.6863 H   0  0  0  0  0  0  0  0  0  0  0  0
   51.7560  -16.9935   -4.1920 H   0  0  0  0  0  0  0  0  0  0  0  0
   52.1337  -18.5796   -3.4308 H   0  0  0  0  0  0  0  0  0  0  0  0
   53.0143  -16.2149   -6.0831 H   0  0  0  0  0  0  0  0  0  0  0  0
   54.3519  -17.2071   -6.7646 H   0  0  0  0  0  0  0  0  0  0  0  0
   49.0776  -20.6141   -6.6106 H   0  0  0  0  0  0  0  0  0  0  0  0
   51.0410  -19.3993   -9.5615 H   0  0  0  0  0  0  0  0  0  0  0  0
   55.4195  -17.5442   -4.6404 H   0  0  0  0  0  0  0  0  0  0  0  0
   54.1887  -16.4566   -3.8769 H   0  0  0  0  0  0  0  0  0  0  0  0
   54.4829  -18.1237   -3.2327 H   0  0  0  0  0  0  0  0  0  0  0  0
   48.7044  -15.2192  -10.8512 H   0  0  0  0  0  0  0  0  0  0  0  0
   45.5393  -17.1776   -6.0942 H   0  0  0  0  0  0  0  0  0  0  0  0
   51.0443  -18.6473  -11.9103 H   0  0  0  0  0  0  0  0  0  0  0  0
   46.8848  -21.2210   -5.6590 H   0  0  0  0  0  0  0  0  0  0  0  0
   49.8893  -16.5523  -12.5486 H   0  0  0  0  0  0  0  0  0  0  0  0
   45.1253  -19.5000   -5.3888 H   0  0  0  0  0  0  0  0  0  0  0  0
  2  1  1  0
  3  1  1  0
  4  1  2  3
  5  9  1  0
  6  8  1  0
  7 13  1  0
  8  3  2  0
  9  2  2  0
 10  4  1  0
 11  4  1  0
 12 10  1  0
 13 11  1  0
 14  2  1  0
 15  3  1  0
 16  7  1  0
 17  8  1  0
 18  9  1  0
 19 15  2  0
 20 14  2  0
 21 19  1  0
 22 20  1  0
  7 12  1  0
  6  5  2  0
 21 17  2  0
 22 18  2  0
  5 23  1  0
  6 24  1  0
 10 25  1  0
 10 26  1  0
 11 27  1  0
 11 28  1  0
 12 29  1  0
 12 30  1  0
 13 31  1  0
 13 32  1  0
 14 33  1  0
 15 34  1  0
 16 35  1  0
 16 36  1  0
 16 37  1  0
 17 38  1  0
 18 39  1  0
 19 40  1  0
 20 41  1  0
 21 42  1  0
 22 43  1  0
M  END
> <Uni-Dock RESULT> 
ENERGY=   -4.212  LOWER_BOUND=    2.136  UPPER_BOUND=    5.075
INTER + INTRA:          -4.212
INTER:                  -4.212
INTRA:                   0.000
UNBOUND:                 0.000

$$$$

     RDKit          3D

 43 46  0  0  0  0  0  0  0  0999 V2000
   44.9113  -14.1081  -12.3626 C   0  0  0  0  0  0  0  0  0  0  0  0
   43.6721  -13.3389  -12.1497 C   0  0  0  0  0  0  0  0  0  0  0  0
   44.8834  -15.4816  -11.8280 C   0  0  0  0  0  0  0  0  0  0  0  0
   45.9774  -13.6084  -13.0488 C   0  0  0  0  0  0  0  0  0  0  0  0
   42.3540  -14.9613  -13.5970 C   0  0  0  0  0  0  0  0  0  0  0  0
   43.0093  -16.1205  -13.4230 C   0  0  0  0  0  0  0  0  0  0  0  0
   48.1281  -12.6396  -14.6947 N   0  0  0  0  0  0  0  0  0  0  0  0
   43.9614  -16.4276  -12.3270 C   0  0  0  0  0  0  0  0  0  0  0  0
   42.4552  -13.7635  -12.7269 C   0  0  0  0  0  0  0  0  0  0  0  0
   45.9991  -12.1695  -13.5348 C   0  0  0  0  0  0  0  0  0  0  0  0
   47.2625  -14.4040  -13.1993 C   0  0  0  0  0  0  0  0  0  0  0  0
   46.7995  -12.0171  -14.8303 C   0  0  0  0  0  0  0  0  0  0  0  0
   47.9739  -14.0943  -14.5185 C   0  0  0  0  0  0  0  0  0  0  0  0
   43.6962  -12.1938  -11.3351 C   0  0  0  0  0  0  0  0  0  0  0  0
   45.7577  -15.8401  -10.7877 C   0  0  0  0  0  0  0  0  0  0  0  0
   48.9328  -12.3648  -15.8954 C   0  0  0  0  0  0  0  0  0  0  0  0
   43.9881  -17.7383  -11.8206 C   0  0  0  0  0  0  0  0  0  0  0  0
   41.3009  -12.9855  -12.5341 C   0  0  0  0  0  0  0  0  0  0  0  0
   45.7540  -17.1399  -10.2797 C   0  0  0  0  0  0  0  0  0  0  0  0
   42.5351  -11.4462  -11.1346 C   0  0  0  0  0  0  0  0  0  0  0  0
   44.8755  -18.0897  -10.8006 C   0  0  0  0  0  0  0  0  0  0  0  0
   41.3406  -11.8374  -11.7393 C   0  0  0  0  0  0  0  0  0  0  0  0
   41.6112  -14.9332  -14.3860 H   0  0  0  0  0  0  0  0  0  0  0  0
   42.7438  -16.9366  -14.0853 H   0  0  0  0  0  0  0  0  0  0  0  0
   44.9768  -11.7881  -13.7408 H   0  0  0  0  0  0  0  0  0  0  0  0
   46.4554  -11.5353  -12.7446 H   0  0  0  0  0  0  0  0  0  0  0  0
   47.0744  -15.4983  -13.1838 H   0  0  0  0  0  0  0  0  0  0  0  0
   47.9358  -14.1537  -12.3515 H   0  0  0  0  0  0  0  0  0  0  0  0
   46.2303  -12.4688  -15.6759 H   0  0  0  0  0  0  0  0  0  0  0  0
   46.9078  -10.9289  -15.0376 H   0  0  0  0  0  0  0  0  0  0  0  0
   47.4021  -14.5415  -15.3647 H   0  0  0  0  0  0  0  0  0  0  0  0
   48.9735  -14.5827  -14.4890 H   0  0  0  0  0  0  0  0  0  0  0  0
   44.6175  -11.8784  -10.8610 H   0  0  0  0  0  0  0  0  0  0  0  0
   46.4460  -15.1124  -10.3754 H   0  0  0  0  0  0  0  0  0  0  0  0
   49.9445  -12.8121  -15.7883 H   0  0  0  0  0  0  0  0  0  0  0  0
   48.4495  -12.7755  -16.8103 H   0  0  0  0  0  0  0  0  0  0  0  0
   49.0722  -11.2694  -16.0199 H   0  0  0  0  0  0  0  0  0  0  0  0
   43.3095  -18.4891  -12.2075 H   0  0  0  0  0  0  0  0  0  0  0  0
   40.3620  -13.2756  -12.9902 H   0  0  0  0  0  0  0  0  0  0  0  0
   46.4357  -17.4120   -9.4843 H   0  0  0  0  0  0  0  0  0  0  0  0
   42.5622  -10.5607  -10.5129 H   0  0  0  0  0  0  0  0  0  0  0  0
   44.8788  -19.0995  -10.4111 H   0  0  0  0  0  0  0  0  0  0  0  0
   40.4423  -11.2525  -11.5892 H   0  0  0  0  0  0  0  0  0  0  0  0
  2  1  1  0
  3  1  1  0
  4  1  2  3
  5  9  1  0
  6  8  1  0
  7 13  1  0
  8  3  2  0
  9  2  2  0
 10  4  1  0
 11  4  1  0
 12 10  1  0
 13 11  1  0
 14  2  1  0
 15  3  1  0
 16  7  1  0
 17  8  1  0
 18  9  1  0
 19 15  2  0
 20 14  2  0
 21 19  1  0
 22 20  1  0
  7 12  1  0
  6  5  2  0
 21 17  2  0
 22 18  2  0
  5 23  1  0
  6 24  1  0
 10 25  1  0
 10 26  1  0
 11 27  1  0
 11 28  1  0
 12 29  1  0
 12 30  1  0
 13 31  1  0
 13 32  1  0
 14 33  1  0
 15 34  1  0
 16 35  1  0
 16 36  1  0
 16 37  1  0
 17 38  1  0
 18 39  1  0
 19 40  1  0
 20 41  1  0
 21 42  1  0
 22 43  1  0
M  END
> <Uni-Dock RESULT> 
ENERGY=   -4.177  LOWER_BOUND=    6.774  UPPER_BOUND=    8.862
INTER + INTRA:          -4.177
INTER:                  -4.177
INTRA:                   0.000
UNBOUND:                 0.000

$$$$
