
     RDKit          3D

 43 46  0  0  0  0  0  0  0  0999 V2000
   50.2329  -17.2537   -7.5782 C   0  0  0  0  0  0  0  0  0  0  0  0
   48.8106  -17.1686   -7.2006 C   0  0  0  0  0  0  0  0  0  0  0  0
   51.1626  -16.6239   -6.6233 C   0  0  0  0  0  0  0  0  0  0  0  0
   50.6505  -17.8199   -8.7453 C   0  0  0  0  0  0  0  0  0  0  0  0
   48.8646  -14.6318   -7.3644 C   0  0  0  0  0  0  0  0  0  0  0  0
   50.1371  -14.3372   -7.0520 C   0  0  0  0  0  0  0  0  0  0  0  0
   51.5073  -18.8018  -11.3095 N   0  0  0  0  0  0  0  0  0  0  0  0
   51.0971  -15.2370   -6.3658 C   0  0  0  0  0  0  0  0  0  0  0  0
   48.1726  -15.9141   -7.0836 C   0  0  0  0  0  0  0  0  0  0  0  0
   52.1272  -17.9459   -9.0776 C   0  0  0  0  0  0  0  0  0  0  0  0
   49.6744  -18.5137   -9.6796 C   0  0  0  0  0  0  0  0  0  0  0  0
   52.3819  -17.8637  -10.5844 C   0  0  0  0  0  0  0  0  0  0  0  0
   50.1018  -18.3916  -11.1442 C   0  0  0  0  0  0  0  0  0  0  0  0
   48.0947  -18.3448   -6.9194 C   0  0  0  0  0  0  0  0  0  0  0  0
   52.0973  -17.4181   -5.9370 C   0  0  0  0  0  0  0  0  0  0  0  0
   51.8599  -18.8102  -12.7378 C   0  0  0  0  0  0  0  0  0  0  0  0
   52.0233  -14.6638   -5.4778 C   0  0  0  0  0  0  0  0  0  0  0  0
   46.8061  -15.8719   -6.7584 C   0  0  0  0  0  0  0  0  0  0  0  0
   52.9939  -16.8358   -5.0401 C   0  0  0  0  0  0  0  0  0  0  0  0
   46.7440  -18.2830   -6.5742 C   0  0  0  0  0  0  0  0  0  0  0  0
   52.9620  -15.4595   -4.8164 C   0  0  0  0  0  0  0  0  0  0  0  0
   46.0987  -17.0486   -6.5010 C   0  0  0  0  0  0  0  0  0  0  0  0
   48.2612  -13.8269   -7.7683 H   0  0  0  0  0  0  0  0  0  0  0  0
   50.4605  -13.3177   -7.2285 H   0  0  0  0  0  0  0  0  0  0  0  0
   52.7266  -17.1395   -8.6049 H   0  0  0  0  0  0  0  0  0  0  0  0
   52.4944  -18.9228   -8.6959 H   0  0  0  0  0  0  0  0  0  0  0  0
   49.6202  -19.5882   -9.4015 H   0  0  0  0  0  0  0  0  0  0  0  0
   48.6541  -18.0822   -9.6047 H   0  0  0  0  0  0  0  0  0  0  0  0
   53.4496  -18.1219  -10.7638 H   0  0  0  0  0  0  0  0  0  0  0  0
   52.2224  -16.8168  -10.9331 H   0  0  0  0  0  0  0  0  0  0  0  0
   49.4388  -19.0503  -11.7484 H   0  0  0  0  0  0  0  0  0  0  0  0
   49.9473  -17.3435  -11.4917 H   0  0  0  0  0  0  0  0  0  0  0  0
   48.5836  -19.3099   -6.9742 H   0  0  0  0  0  0  0  0  0  0  0  0
   52.1337  -18.4878   -6.1028 H   0  0  0  0  0  0  0  0  0  0  0  0
   51.7377  -17.8010  -13.1918 H   0  0  0  0  0  0  0  0  0  0  0  0
   52.9123  -19.1418  -12.8701 H   0  0  0  0  0  0  0  0  0  0  0  0
   51.2187  -19.5339  -13.2858 H   0  0  0  0  0  0  0  0  0  0  0  0
   52.0110  -13.5977   -5.2859 H   0  0  0  0  0  0  0  0  0  0  0  0
   46.2880  -14.9228   -6.6906 H   0  0  0  0  0  0  0  0  0  0  0  0
   53.7169  -17.4517   -4.5210 H   0  0  0  0  0  0  0  0  0  0  0  0
   46.1961  -19.1931   -6.3672 H   0  0  0  0  0  0  0  0  0  0  0  0
   53.6629  -15.0079   -4.1263 H   0  0  0  0  0  0  0  0  0  0  0  0
   45.0491  -17.0025   -6.2406 H   0  0  0  0  0  0  0  0  0  0  0  0
  2  1  1  0
  3  1  1  0
  4  1  2  3
  5  9  1  0
  6  8  1  0
  7 13  1  0
  8  3  2  0
  9  2  2  0
 10  4  1  0
 11  4  1  0
 12 10  1  0
 13 11  1  0
 14  2  1  0
 15  3  1  0
 16  7  1  0
 17  8  1  0
 18  9  1  0
 19 15  2  0
 20 14  2  0
 21 19  1  0
 22 20  1  0
  7 12  1  0
  6  5  2  0
 21 17  2  0
 22 18  2  0
  5 23  1  0
  6 24  1  0
 10 25  1  0
 10 26  1  0
 11 27  1  0
 11 28  1  0
 12 29  1  0
 12 30  1  0
 13 31  1  0
 13 32  1  0
 14 33  1  0
 15 34  1  0
 16 35  1  0
 16 36  1  0
 16 37  1  0
 17 38  1  0
 18 39  1  0
 19 40  1  0
 20 41  1  0
 21 42  1  0
 22 43  1  0
M  END
> <Uni-Dock RESULT> 
ENERGY=   -6.313  LOWER_BOUND=    0.000  UPPER_BOUND=    0.000
INTER + INTRA:          -6.313
INTER:                  -6.313
INTRA:                   0.000
UNBOUND:                 0.000

$$$$

     RDKit          3D

 43 46  0  0  0  0  0  0  0  0999 V2000
   50.2600  -17.2083   -7.5962 C   0  0  0  0  0  0  0  0  0  0  0  0
   48.8377  -17.1214   -7.2190 C   0  0  0  0  0  0  0  0  0  0  0  0
   51.1919  -16.5982   -6.6306 C   0  0  0  0  0  0  0  0  0  0  0  0
   50.6761  -17.7588   -8.7713 C   0  0  0  0  0  0  0  0  0  0  0  0
   48.9054  -14.5828   -7.3438 C   0  0  0  0  0  0  0  0  0  0  0  0
   50.1790  -14.2998   -7.0255 C   0  0  0  0  0  0  0  0  0  0  0  0
   51.5309  -18.7059  -11.3493 N   0  0  0  0  0  0  0  0  0  0  0  0
   51.1334  -15.2151   -6.3520 C   0  0  0  0  0  0  0  0  0  0  0  0
   48.2063  -15.8656   -7.0835 C   0  0  0  0  0  0  0  0  0  0  0  0
   52.1525  -17.8876   -9.1038 C   0  0  0  0  0  0  0  0  0  0  0  0
   49.6976  -18.4331   -9.7173 C   0  0  0  0  0  0  0  0  0  0  0  0
   52.4096  -17.7837  -10.6088 C   0  0  0  0  0  0  0  0  0  0  0  0
   50.1274  -18.2908  -11.1793 C   0  0  0  0  0  0  0  0  0  0  0  0
   48.1153  -18.2980   -6.9567 C   0  0  0  0  0  0  0  0  0  0  0  0
   52.1215  -17.4077   -5.9554 C   0  0  0  0  0  0  0  0  0  0  0  0
   51.8852  -18.6942  -12.7771 C   0  0  0  0  0  0  0  0  0  0  0  0
   52.0615  -14.6605   -5.4542 C   0  0  0  0  0  0  0  0  0  0  0  0
   46.8396  -15.8211   -6.7593 C   0  0  0  0  0  0  0  0  0  0  0  0
   53.0201  -16.8441   -5.0487 C   0  0  0  0  0  0  0  0  0  0  0  0
   46.7645  -18.2344   -6.6122 C   0  0  0  0  0  0  0  0  0  0  0  0
   52.9951  -15.4712   -4.8040 C   0  0  0  0  0  0  0  0  0  0  0  0
   46.1256  -16.9978   -6.5208 C   0  0  0  0  0  0  0  0  0  0  0  0
   48.3068  -13.7686   -7.7360 H   0  0  0  0  0  0  0  0  0  0  0  0
   50.5080  -13.2794   -7.1859 H   0  0  0  0  0  0  0  0  0  0  0  0
   52.7556  -17.0917   -8.6180 H   0  0  0  0  0  0  0  0  0  0  0  0
   52.5141  -18.8722   -8.7367 H   0  0  0  0  0  0  0  0  0  0  0  0
   49.6373  -19.5114   -9.4557 H   0  0  0  0  0  0  0  0  0  0  0  0
   48.6794  -17.9974   -9.6370 H   0  0  0  0  0  0  0  0  0  0  0  0
   53.4761  -18.0447  -10.7909 H   0  0  0  0  0  0  0  0  0  0  0  0
   52.2561  -16.7307  -10.9416 H   0  0  0  0  0  0  0  0  0  0  0  0
   49.4617  -18.9367  -11.7943 H   0  0  0  0  0  0  0  0  0  0  0  0
   49.9789  -17.2366  -11.5109 H   0  0  0  0  0  0  0  0  0  0  0  0
   48.5991  -19.2647   -7.0257 H   0  0  0  0  0  0  0  0  0  0  0  0
   52.1524  -18.4750   -6.1376 H   0  0  0  0  0  0  0  0  0  0  0  0
   51.7689  -17.6776  -13.2157 H   0  0  0  0  0  0  0  0  0  0  0  0
   52.9360  -19.0294  -12.9132 H   0  0  0  0  0  0  0  0  0  0  0  0
   51.2409  -19.4060  -13.3369 H   0  0  0  0  0  0  0  0  0  0  0  0
   52.0546  -13.5974   -5.2460 H   0  0  0  0  0  0  0  0  0  0  0  0
   46.3264  -14.8704   -6.6776 H   0  0  0  0  0  0  0  0  0  0  0  0
   53.7391  -17.4716   -4.5383 H   0  0  0  0  0  0  0  0  0  0  0  0
   46.2115  -19.1446   -6.4197 H   0  0  0  0  0  0  0  0  0  0  0  0
   53.6976  -15.0339   -4.1062 H   0  0  0  0  0  0  0  0  0  0  0  0
   45.0760  -16.9501   -6.2610 H   0  0  0  0  0  0  0  0  0  0  0  0
  2  1  1  0
  3  1  1  0
  4  1  2  3
  5  9  1  0
  6  8  1  0
  7 13  1  0
  8  3  2  0
  9  2  2  0
 10  4  1  0
 11  4  1  0
 12 10  1  0
 13 11  1  0
 14  2  1  0
 15  3  1  0
 16  7  1  0
 17  8  1  0
 18  9  1  0
 19 15  2  0
 20 14  2  0
 21 19  1  0
 22 20  1  0
  7 12  1  0
  6  5  2  0
 21 17  2  0
 22 18  2  0
  5 23  1  0
  6 24  1  0
 10 25  1  0
 10 26  1  0
 11 27  1  0
 11 28  1  0
 12 29  1  0
 12 30  1  0
 13 31  1  0
 13 32  1  0
 14 33  1  0
 15 34  1  0
 16 35  1  0
 16 36  1  0
 16 37  1  0
 17 38  1  0
 18 39  1  0
 19 40  1  0
 20 41  1  0
 21 42  1  0
 22 43  1  0
M  END
> <Uni-Dock RESULT> 
ENERGY=   -6.299  LOWER_BOUND=    0.070  UPPER_BOUND=    0.070
INTER + INTRA:          -6.299
INTER:                  -6.299
INTRA:                   0.000
UNBOUND:                 0.000

$$$$

     RDKit          3D

 43 46  0  0  0  0  0  0  0  0999 V2000
   50.4033  -17.4921   -7.3433 C   0  0  0  0  0  0  0  0  0  0  0  0
   51.0842  -17.9295   -6.1113 C   0  0  0  0  0  0  0  0  0  0  0  0
   48.9953  -17.0956   -7.1615 C   0  0  0  0  0  0  0  0  0  0  0  0
   51.0107  -17.5069   -8.5632 C   0  0  0  0  0  0  0  0  0  0  0  0
   49.4997  -19.9037   -5.8738 C   0  0  0  0  0  0  0  0  0  0  0  0
   48.3696  -19.4525   -6.4420 C   0  0  0  0  0  0  0  0  0  0  0  0
   52.2158  -17.7613  -11.1625 N   0  0  0  0  0  0  0  0  0  0  0  0
   48.0377  -18.0321   -6.7143 C   0  0  0  0  0  0  0  0  0  0  0  0
   50.6349  -19.0690   -5.4085 C   0  0  0  0  0  0  0  0  0  0  0  0
   50.3017  -16.9933   -9.8043 C   0  0  0  0  0  0  0  0  0  0  0  0
   52.4800  -17.8630   -8.7091 C   0  0  0  0  0  0  0  0  0  0  0  0
   50.7458  -17.7389  -11.0648 C   0  0  0  0  0  0  0  0  0  0  0  0
   52.7709  -18.5475  -10.0467 C   0  0  0  0  0  0  0  0  0  0  0  0
   52.1665  -17.1839   -5.6134 C   0  0  0  0  0  0  0  0  0  0  0  0
   48.6117  -15.7648   -7.4006 C   0  0  0  0  0  0  0  0  0  0  0  0
   52.6217  -18.3586  -12.4442 C   0  0  0  0  0  0  0  0  0  0  0  0
   46.6972  -17.6293   -6.5880 C   0  0  0  0  0  0  0  0  0  0  0  0
   51.3308  -19.4790   -4.2585 C   0  0  0  0  0  0  0  0  0  0  0  0
   47.2804  -15.3760   -7.2468 C   0  0  0  0  0  0  0  0  0  0  0  0
   52.8312  -17.5920   -4.4562 C   0  0  0  0  0  0  0  0  0  0  0  0
   46.3230  -16.3088   -6.8482 C   0  0  0  0  0  0  0  0  0  0  0  0
   52.4185  -18.7422   -3.7837 C   0  0  0  0  0  0  0  0  0  0  0  0
   49.5434  -20.9625   -5.6455 H   0  0  0  0  0  0  0  0  0  0  0  0
   47.5902  -20.1828   -6.6275 H   0  0  0  0  0  0  0  0  0  0  0  0
   49.2003  -17.1137   -9.7298 H   0  0  0  0  0  0  0  0  0  0  0  0
   50.5272  -15.9112   -9.9192 H   0  0  0  0  0  0  0  0  0  0  0  0
   53.0798  -16.9304   -8.6359 H   0  0  0  0  0  0  0  0  0  0  0  0
   52.8172  -18.5580   -7.9115 H   0  0  0  0  0  0  0  0  0  0  0  0
   50.3135  -17.2101  -11.9434 H   0  0  0  0  0  0  0  0  0  0  0  0
   50.3297  -18.7733  -11.0524 H   0  0  0  0  0  0  0  0  0  0  0  0
   53.8755  -18.6323  -10.1527 H   0  0  0  0  0  0  0  0  0  0  0  0
   52.3503  -19.5801  -10.0367 H   0  0  0  0  0  0  0  0  0  0  0  0
   52.4980  -16.2896   -6.1270 H   0  0  0  0  0  0  0  0  0  0  0  0
   49.3450  -15.0310   -7.7121 H   0  0  0  0  0  0  0  0  0  0  0  0
   52.2521  -19.4044  -12.5396 H   0  0  0  0  0  0  0  0  0  0  0  0
   52.2254  -17.7559  -13.2896 H   0  0  0  0  0  0  0  0  0  0  0  0
   53.7294  -18.3564  -12.5334 H   0  0  0  0  0  0  0  0  0  0  0  0
   45.9396  -18.3371   -6.2738 H   0  0  0  0  0  0  0  0  0  0  0  0
   51.0224  -20.3662   -3.7185 H   0  0  0  0  0  0  0  0  0  0  0  0
   46.9898  -14.3516   -7.4406 H   0  0  0  0  0  0  0  0  0  0  0  0
   53.6694  -17.0181   -4.0827 H   0  0  0  0  0  0  0  0  0  0  0  0
   45.2893  -16.0079   -6.7366 H   0  0  0  0  0  0  0  0  0  0  0  0
   52.9396  -19.0619   -2.8906 H   0  0  0  0  0  0  0  0  0  0  0  0
  2  1  1  0
  3  1  1  0
  4  1  2  3
  5  9  1  0
  6  8  1  0
  7 13  1  0
  8  3  2  0
  9  2  2  0
 10  4  1  0
 11  4  1  0
 12 10  1  0
 13 11  1  0
 14  2  1  0
 15  3  1  0
 16  7  1  0
 17  8  1  0
 18  9  1  0
 19 15  2  0
 20 14  2  0
 21 19  1  0
 22 20  1  0
  7 12  1  0
  6  5  2  0
 21 17  2  0
 22 18  2  0
  5 23  1  0
  6 24  1  0
 10 25  1  0
 10 26  1  0
 11 27  1  0
 11 28  1  0
 12 29  1  0
 12 30  1  0
 13 31  1  0
 13 32  1  0
 14 33  1  0
 15 34  1  0
 16 35  1  0
 16 36  1  0
 16 37  1  0
 17 38  1  0
 18 39  1  0
 19 40  1  0
 20 41  1  0
 21 42  1  0
 22 43  1  0
M  END
> <Uni-Dock RESULT> 
ENERGY=   -5.239  LOWER_BOUND=    1.291  UPPER_BOUND=    4.432
INTER + INTRA:          -5.239
INTER:                  -5.239
INTRA:                   0.000
UNBOUND:                 0.000

$$$$

     RDKit          3D

 43 46  0  0  0  0  0  0  0  0999 V2000
   48.0538  -17.2252   -7.9992 C   0  0  0  0  0  0  0  0  0  0  0  0
   49.0296  -16.2660   -7.4509 C   0  0  0  0  0  0  0  0  0  0  0  0
   47.5275  -18.1952   -7.0220 C   0  0  0  0  0  0  0  0  0  0  0  0
   47.7084  -17.2493   -9.3173 C   0  0  0  0  0  0  0  0  0  0  0  0
   50.6555  -18.1460   -6.9149 C   0  0  0  0  0  0  0  0  0  0  0  0
   49.8427  -19.1896   -6.6829 C   0  0  0  0  0  0  0  0  0  0  0  0
   47.1607  -17.4490  -12.1339 N   0  0  0  0  0  0  0  0  0  0  0  0
   48.3906  -19.1147   -6.3868 C   0  0  0  0  0  0  0  0  0  0  0  0
   50.2583  -16.7162   -6.9200 C   0  0  0  0  0  0  0  0  0  0  0  0
   46.6550  -18.2107   -9.8399 C   0  0  0  0  0  0  0  0  0  0  0  0
   48.2216  -16.1990  -10.2871 C   0  0  0  0  0  0  0  0  0  0  0  0
   46.9333  -18.6314  -11.2847 C   0  0  0  0  0  0  0  0  0  0  0  0
   48.3897  -16.7613  -11.7005 C   0  0  0  0  0  0  0  0  0  0  0  0
   48.7173  -14.8961   -7.4236 C   0  0  0  0  0  0  0  0  0  0  0  0
   46.1610  -18.1789   -6.6937 C   0  0  0  0  0  0  0  0  0  0  0  0
   47.2893  -17.8619  -13.5401 C   0  0  0  0  0  0  0  0  0  0  0  0
   47.8488  -20.0500   -5.4886 C   0  0  0  0  0  0  0  0  0  0  0  0
   51.1808  -15.7709   -6.4400 C   0  0  0  0  0  0  0  0  0  0  0  0
   45.6438  -19.0993   -5.7812 C   0  0  0  0  0  0  0  0  0  0  0  0
   49.6355  -13.9732   -6.9209 C   0  0  0  0  0  0  0  0  0  0  0  0
   46.4852  -20.0385   -5.1851 C   0  0  0  0  0  0  0  0  0  0  0  0
   50.8686  -14.4093   -6.4365 C   0  0  0  0  0  0  0  0  0  0  0  0
   51.7137  -18.3616   -7.0090 H   0  0  0  0  0  0  0  0  0  0  0  0
   50.3091  -20.1654   -6.6080 H   0  0  0  0  0  0  0  0  0  0  0  0
   46.6102  -19.1415   -9.2360 H   0  0  0  0  0  0  0  0  0  0  0  0
   45.6630  -17.7126   -9.7871 H   0  0  0  0  0  0  0  0  0  0  0  0
   47.4988  -15.3553  -10.3112 H   0  0  0  0  0  0  0  0  0  0  0  0
   49.2115  -15.8014   -9.9787 H   0  0  0  0  0  0  0  0  0  0  0  0
   46.0485  -19.1989  -11.6505 H   0  0  0  0  0  0  0  0  0  0  0  0
   47.8115  -19.3178  -11.3108 H   0  0  0  0  0  0  0  0  0  0  0  0
   48.6102  -15.9095  -12.3819 H   0  0  0  0  0  0  0  0  0  0  0  0
   49.2647  -17.4519  -11.7257 H   0  0  0  0  0  0  0  0  0  0  0  0
   47.7638  -14.5441   -7.7981 H   0  0  0  0  0  0  0  0  0  0  0  0
   45.4965  -17.4558   -7.1508 H   0  0  0  0  0  0  0  0  0  0  0  0
   48.1451  -18.5598  -13.6813 H   0  0  0  0  0  0  0  0  0  0  0  0
   46.3557  -18.3602  -13.8794 H   0  0  0  0  0  0  0  0  0  0  0  0
   47.4374  -16.9713  -14.1882 H   0  0  0  0  0  0  0  0  0  0  0  0
   48.4865  -20.7837   -5.0105 H   0  0  0  0  0  0  0  0  0  0  0  0
   52.1416  -16.0898   -6.0541 H   0  0  0  0  0  0  0  0  0  0  0  0
   44.5890  -19.0871   -5.5390 H   0  0  0  0  0  0  0  0  0  0  0  0
   49.3923  -12.9186   -6.9105 H   0  0  0  0  0  0  0  0  0  0  0  0
   46.0816  -20.7568   -4.4832 H   0  0  0  0  0  0  0  0  0  0  0  0
   51.5830  -13.6918   -6.0539 H   0  0  0  0  0  0  0  0  0  0  0  0
  2  1  1  0
  3  1  1  0
  4  1  2  3
  5  9  1  0
  6  8  1  0
  7 13  1  0
  8  3  2  0
  9  2  2  0
 10  4  1  0
 11  4  1  0
 12 10  1  0
 13 11  1  0
 14  2  1  0
 15  3  1  0
 16  7  1  0
 17  8  1  0
 18  9  1  0
 19 15  2  0
 20 14  2  0
 21 19  1  0
 22 20  1  0
  7 12  1  0
  6  5  2  0
 21 17  2  0
 22 18  2  0
  5 23  1  0
  6 24  1  0
 10 25  1  0
 10 26  1  0
 11 27  1  0
 11 28  1  0
 12 29  1  0
 12 30  1  0
 13 31  1  0
 13 32  1  0
 14 33  1  0
 15 34  1  0
 16 35  1  0
 16 36  1  0
 16 37  1  0
 17 38  1  0
 18 39  1  0
 19 40  1  0
 20 41  1  0
 21 42  1  0
 22 43  1  0
M  END
> <Uni-Dock RESULT> 
ENERGY=   -5.218  LOWER_BOUND=    2.199  UPPER_BOUND=    4.819
INTER + INTRA:          -5.218
INTER:                  -5.218
INTRA:                   0.000
UNBOUND:                 0.000

$$$$

     RDKit          3D

 43 46  0  0  0  0  0  0  0  0999 V2000
   46.8835  -16.1051  -10.5766 C   0  0  0  0  0  0  0  0  0  0  0  0
   46.6802  -16.4070   -9.1482 C   0  0  0  0  0  0  0  0  0  0  0  0
   45.6444  -15.8645  -11.3380 C   0  0  0  0  0  0  0  0  0  0  0  0
   48.1155  -16.1043  -11.1592 C   0  0  0  0  0  0  0  0  0  0  0  0
   45.4168  -18.5370   -9.7242 C   0  0  0  0  0  0  0  0  0  0  0  0
   44.8565  -18.2434  -10.9089 C   0  0  0  0  0  0  0  0  0  0  0  0
   50.6849  -16.3337  -12.4315 N   0  0  0  0  0  0  0  0  0  0  0  0
   44.6767  -16.8836  -11.4752 C   0  0  0  0  0  0  0  0  0  0  0  0
   45.9644  -17.5583   -8.7526 C   0  0  0  0  0  0  0  0  0  0  0  0
   48.2977  -15.7303  -12.6200 C   0  0  0  0  0  0  0  0  0  0  0  0
   49.3778  -16.2962  -10.3365 C   0  0  0  0  0  0  0  0  0  0  0  0
   49.4729  -16.4752  -13.2572 C   0  0  0  0  0  0  0  0  0  0  0  0
   50.4770  -17.0013  -11.1344 C   0  0  0  0  0  0  0  0  0  0  0  0
   47.1718  -15.5215   -8.1740 C   0  0  0  0  0  0  0  0  0  0  0  0
   45.4093  -14.5981  -11.9003 C   0  0  0  0  0  0  0  0  0  0  0  0
   51.8341  -16.9367  -13.1245 C   0  0  0  0  0  0  0  0  0  0  0  0
   43.5245  -16.6315  -12.2392 C   0  0  0  0  0  0  0  0  0  0  0  0
   45.8219  -17.8350   -7.3821 C   0  0  0  0  0  0  0  0  0  0  0  0
   44.2480  -14.3576  -12.6359 C   0  0  0  0  0  0  0  0  0  0  0  0
   47.0003  -15.7994   -6.8173 C   0  0  0  0  0  0  0  0  0  0  0  0
   43.3104  -15.3752  -12.8114 C   0  0  0  0  0  0  0  0  0  0  0  0
   46.3326  -16.9585   -6.4218 C   0  0  0  0  0  0  0  0  0  0  0  0
   45.3757  -19.5728   -9.4070 H   0  0  0  0  0  0  0  0  0  0  0  0
   44.4073  -19.0655  -11.4545 H   0  0  0  0  0  0  0  0  0  0  0  0
   47.3974  -15.9724  -13.2232 H   0  0  0  0  0  0  0  0  0  0  0  0
   48.4777  -14.6357  -12.6859 H   0  0  0  0  0  0  0  0  0  0  0  0
   49.7434  -15.2989  -10.0101 H   0  0  0  0  0  0  0  0  0  0  0  0
   49.1908  -16.9122   -9.4317 H   0  0  0  0  0  0  0  0  0  0  0  0
   49.6460  -16.0385  -14.2661 H   0  0  0  0  0  0  0  0  0  0  0  0
   49.2044  -17.5487  -13.3933 H   0  0  0  0  0  0  0  0  0  0  0  0
   51.4122  -16.9639  -10.5323 H   0  0  0  0  0  0  0  0  0  0  0  0
   50.2063  -18.0737  -11.2753 H   0  0  0  0  0  0  0  0  0  0  0  0
   47.6934  -14.6187   -8.4677 H   0  0  0  0  0  0  0  0  0  0  0  0
   46.1301  -13.7998  -11.7728 H   0  0  0  0  0  0  0  0  0  0  0  0
   51.6694  -18.0211  -13.3153 H   0  0  0  0  0  0  0  0  0  0  0  0
   52.0102  -16.4211  -14.0930 H   0  0  0  0  0  0  0  0  0  0  0  0
   52.7559  -16.8119  -12.5164 H   0  0  0  0  0  0  0  0  0  0  0  0
   42.7813  -17.4067  -12.3824 H   0  0  0  0  0  0  0  0  0  0  0  0
   45.3015  -18.7269   -7.0543 H   0  0  0  0  0  0  0  0  0  0  0  0
   44.0767  -13.3827  -13.0735 H   0  0  0  0  0  0  0  0  0  0  0  0
   47.3887  -15.1176   -6.0718 H   0  0  0  0  0  0  0  0  0  0  0  0
   42.4136  -15.1898  -13.3885 H   0  0  0  0  0  0  0  0  0  0  0  0
   46.2068  -17.1768   -5.3692 H   0  0  0  0  0  0  0  0  0  0  0  0
  2  1  1  0
  3  1  1  0
  4  1  2  3
  5  9  1  0
  6  8  1  0
  7 13  1  0
  8  3  2  0
  9  2  2  0
 10  4  1  0
 11  4  1  0
 12 10  1  0
 13 11  1  0
 14  2  1  0
 15  3  1  0
 16  7  1  0
 17  8  1  0
 18  9  1  0
 19 15  2  0
 20 14  2  0
 21 19  1  0
 22 20  1  0
  7 12  1  0
  6  5  2  0
 21 17  2  0
 22 18  2  0
  5 23  1  0
  6 24  1  0
 10 25  1  0
 10 26  1  0
 11 27  1  0
 11 28  1  0
 12 29  1  0
 12 30  1  0
 13 31  1  0
 13 32  1  0
 14 33  1  0
 15 34  1  0
 16 35  1  0
 16 36  1  0
 16 37  1  0
 17 38  1  0
 18 39  1  0
 19 40  1  0
 20 41  1  0
 21 42  1  0
 22 43  1  0
M  END
> <Uni-Dock RESULT> 
ENERGY=   -5.213  LOWER_BOUND=    3.837  UPPER_BOUND=    6.282
INTER + INTRA:          -5.213
INTER:                  -5.213
INTRA:                   0.000
UNBOUND:                 0.000

$$$$

     RDKit          3D

 43 46  0  0  0  0  0  0  0  0999 V2000
   48.7748  -17.2017   -7.9365 C   0  0  0  0  0  0  0  0  0  0  0  0
   49.7711  -16.3775   -7.2286 C   0  0  0  0  0  0  0  0  0  0  0  0
   47.9797  -18.0883   -7.0679 C   0  0  0  0  0  0  0  0  0  0  0  0
   48.6385  -17.1864   -9.2923 C   0  0  0  0  0  0  0  0  0  0  0  0
   51.0318  -18.4535   -6.4768 C   0  0  0  0  0  0  0  0  0  0  0  0
   50.0626  -19.3791   -6.3899 C   0  0  0  0  0  0  0  0  0  0  0  0
   48.5143  -17.3261  -12.1626 N   0  0  0  0  0  0  0  0  0  0  0  0
   48.6047  -19.1109   -6.3211 C   0  0  0  0  0  0  0  0  0  0  0  0
   50.8321  -16.9838   -6.5210 C   0  0  0  0  0  0  0  0  0  0  0  0
   47.5620  -18.0024   -9.9868 C   0  0  0  0  0  0  0  0  0  0  0  0
   49.4302  -16.2184  -10.1544 C   0  0  0  0  0  0  0  0  0  0  0  0
   48.0038  -18.4636  -11.3775 C   0  0  0  0  0  0  0  0  0  0  0  0
   49.7406  -16.8052  -11.5334 C   0  0  0  0  0  0  0  0  0  0  0  0
   49.6415  -14.9781   -7.2286 C   0  0  0  0  0  0  0  0  0  0  0  0
   46.5929  -17.8894   -6.9551 C   0  0  0  0  0  0  0  0  0  0  0  0
   48.8047  -17.7595  -13.5382 C   0  0  0  0  0  0  0  0  0  0  0  0
   47.8114  -19.9616   -5.5325 C   0  0  0  0  0  0  0  0  0  0  0  0
   51.7850  -16.1667   -5.8891 C   0  0  0  0  0  0  0  0  0  0  0  0
   45.8234  -18.7286   -6.1482 C   0  0  0  0  0  0  0  0  0  0  0  0
   50.5837  -14.1825   -6.5754 C   0  0  0  0  0  0  0  0  0  0  0  0
   46.4307  -19.7679   -5.4437 C   0  0  0  0  0  0  0  0  0  0  0  0
   51.6581  -14.7758   -5.9128 C   0  0  0  0  0  0  0  0  0  0  0  0
   52.0540  -18.8080   -6.4092 H   0  0  0  0  0  0  0  0  0  0  0  0
   50.3790  -20.4077   -6.2589 H   0  0  0  0  0  0  0  0  0  0  0  0
   47.3015  -18.9160   -9.4118 H   0  0  0  0  0  0  0  0  0  0  0  0
   46.6482  -17.3770  -10.0805 H   0  0  0  0  0  0  0  0  0  0  0  0
   48.8374  -15.2864  -10.2770 H   0  0  0  0  0  0  0  0  0  0  0  0
   50.4036  -15.9539   -9.6902 H   0  0  0  0  0  0  0  0  0  0  0  0
   47.1198  -18.9107  -11.8847 H   0  0  0  0  0  0  0  0  0  0  0  0
   48.7773  -19.2605  -11.2779 H   0  0  0  0  0  0  0  0  0  0  0  0
   50.1747  -15.9935  -12.1589 H   0  0  0  0  0  0  0  0  0  0  0  0
   50.5102  -17.6057  -11.4336 H   0  0  0  0  0  0  0  0  0  0  0  0
   48.8126  -14.5048   -7.7408 H   0  0  0  0  0  0  0  0  0  0  0  0
   46.1087  -17.0870   -7.4981 H   0  0  0  0  0  0  0  0  0  0  0  0
   49.5726  -18.5653  -13.5561 H   0  0  0  0  0  0  0  0  0  0  0  0
   47.8778  -18.1315  -14.0257 H   0  0  0  0  0  0  0  0  0  0  0  0
   49.1678  -16.8997  -14.1415 H   0  0  0  0  0  0  0  0  0  0  0  0
   48.2647  -20.7709   -4.9729 H   0  0  0  0  0  0  0  0  0  0  0  0
   52.6236  -16.6081   -5.3641 H   0  0  0  0  0  0  0  0  0  0  0  0
   44.7547  -18.5754   -6.0721 H   0  0  0  0  0  0  0  0  0  0  0  0
   50.4829  -13.1049   -6.5863 H   0  0  0  0  0  0  0  0  0  0  0  0
   45.8318  -20.4229   -4.8241 H   0  0  0  0  0  0  0  0  0  0  0  0
   52.3925  -14.1573   -5.4129 H   0  0  0  0  0  0  0  0  0  0  0  0
  2  1  1  0
  3  1  1  0
  4  1  2  3
  5  9  1  0
  6  8  1  0
  7 13  1  0
  8  3  2  0
  9  2  2  0
 10  4  1  0
 11  4  1  0
 12 10  1  0
 13 11  1  0
 14  2  1  0
 15  3  1  0
 16  7  1  0
 17  8  1  0
 18  9  1  0
 19 15  2  0
 20 14  2  0
 21 19  1  0
 22 20  1  0
  7 12  1  0
  6  5  2  0
 21 17  2  0
 22 18  2  0
  5 23  1  0
  6 24  1  0
 10 25  1  0
 10 26  1  0
 11 27  1  0
 11 28  1  0
 12 29  1  0
 12 30  1  0
 13 31  1  0
 13 32  1  0
 14 33  1  0
 15 34  1  0
 16 35  1  0
 16 36  1  0
 16 37  1  0
 17 38  1  0
 18 39  1  0
 19 40  1  0
 20 41  1  0
 21 42  1  0
 22 43  1  0
M  END
> <Uni-Dock RESULT> 
ENERGY=   -5.099  LOWER_BOUND=    1.776  UPPER_BOUND=    4.634
INTER + INTRA:          -5.099
INTER:                  -5.099
INTRA:                   0.000
UNBOUND:                 0.000

$$$$

     RDKit          3D

 43 46  0  0  0  0  0  0  0  0999 V2000
   46.3719  -16.0528  -10.7454 C   0  0  0  0  0  0  0  0  0  0  0  0
   46.5869  -15.1500  -11.8906 C   0  0  0  0  0  0  0  0  0  0  0  0
   47.4113  -15.9833   -9.7025 C   0  0  0  0  0  0  0  0  0  0  0  0
   45.3253  -16.9234  -10.6826 C   0  0  0  0  0  0  0  0  0  0  0  0
   48.7301  -16.3671  -12.5153 C   0  0  0  0  0  0  0  0  0  0  0  0
   49.1760  -16.8179  -11.3314 C   0  0  0  0  0  0  0  0  0  0  0  0
   43.2536  -18.9186  -10.6618 N   0  0  0  0  0  0  0  0  0  0  0  0
   48.7477  -16.3324   -9.9962 C   0  0  0  0  0  0  0  0  0  0  0  0
   47.7227  -15.2963  -12.7169 C   0  0  0  0  0  0  0  0  0  0  0  0
   45.0981  -17.7978   -9.4617 C   0  0  0  0  0  0  0  0  0  0  0  0
   44.2385  -16.9290  -11.7436 C   0  0  0  0  0  0  0  0  0  0  0  0
   44.4504  -19.1346   -9.8299 C   0  0  0  0  0  0  0  0  0  0  0  0
   43.6513  -18.3269  -11.9513 C   0  0  0  0  0  0  0  0  0  0  0  0
   45.6719  -14.1126  -12.1389 C   0  0  0  0  0  0  0  0  0  0  0  0
   47.0748  -15.5305   -8.4152 C   0  0  0  0  0  0  0  0  0  0  0  0
   42.5675  -20.1996  -10.8910 C   0  0  0  0  0  0  0  0  0  0  0  0
   49.7052  -16.2902   -8.9684 C   0  0  0  0  0  0  0  0  0  0  0  0
   47.8765  -14.4420  -13.8221 C   0  0  0  0  0  0  0  0  0  0  0  0
   48.0436  -15.4719   -7.4125 C   0  0  0  0  0  0  0  0  0  0  0  0
   45.8529  -13.2578  -13.2270 C   0  0  0  0  0  0  0  0  0  0  0  0
   49.3554  -15.8583   -7.6867 C   0  0  0  0  0  0  0  0  0  0  0  0
   46.9498  -13.4270  -14.0718 C   0  0  0  0  0  0  0  0  0  0  0  0
   49.2220  -16.7511  -13.4017 H   0  0  0  0  0  0  0  0  0  0  0  0
   49.9929  -17.5302  -11.3557 H   0  0  0  0  0  0  0  0  0  0  0  0
   46.0497  -18.0335   -8.9402 H   0  0  0  0  0  0  0  0  0  0  0  0
   44.4379  -17.2528   -8.7531 H   0  0  0  0  0  0  0  0  0  0  0  0
   43.4305  -16.2347  -11.4272 H   0  0  0  0  0  0  0  0  0  0  0  0
   44.6224  -16.5910  -12.7292 H   0  0  0  0  0  0  0  0  0  0  0  0
   44.1692  -19.6488   -8.8838 H   0  0  0  0  0  0  0  0  0  0  0  0
   45.1940  -19.7765  -10.3574 H   0  0  0  0  0  0  0  0  0  0  0  0
   42.7636  -18.2282  -12.6152 H   0  0  0  0  0  0  0  0  0  0  0  0
   44.3965  -18.9707  -12.4741 H   0  0  0  0  0  0  0  0  0  0  0  0
   44.8150  -13.9714  -11.4914 H   0  0  0  0  0  0  0  0  0  0  0  0
   46.0594  -15.2290   -8.1887 H   0  0  0  0  0  0  0  0  0  0  0  0
   43.2282  -20.9255  -11.4163 H   0  0  0  0  0  0  0  0  0  0  0  0
   42.2442  -20.6390   -9.9227 H   0  0  0  0  0  0  0  0  0  0  0  0
   41.6507  -20.0391  -11.4983 H   0  0  0  0  0  0  0  0  0  0  0  0
   50.7307  -16.5805   -9.1625 H   0  0  0  0  0  0  0  0  0  0  0  0
   48.7247  -14.5531  -14.4868 H   0  0  0  0  0  0  0  0  0  0  0  0
   47.7762  -15.1303   -6.4209 H   0  0  0  0  0  0  0  0  0  0  0  0
   45.1400  -12.4661  -13.4177 H   0  0  0  0  0  0  0  0  0  0  0  0
   50.1043  -15.8197   -6.9062 H   0  0  0  0  0  0  0  0  0  0  0  0
   47.0850  -12.7681  -14.9199 H   0  0  0  0  0  0  0  0  0  0  0  0
  2  1  1  0
  3  1  1  0
  4  1  2  3
  5  9  1  0
  6  8  1  0
  7 13  1  0
  8  3  2  0
  9  2  2  0
 10  4  1  0
 11  4  1  0
 12 10  1  0
 13 11  1  0
 14  2  1  0
 15  3  1  0
 16  7  1  0
 17  8  1  0
 18  9  1  0
 19 15  2  0
 20 14  2  0
 21 19  1  0
 22 20  1  0
  7 12  1  0
  6  5  2  0
 21 17  2  0
 22 18  2  0
  5 23  1  0
  6 24  1  0
 10 25  1  0
 10 26  1  0
 11 27  1  0
 11 28  1  0
 12 29  1  0
 12 30  1  0
 13 31  1  0
 13 32  1  0
 14 33  1  0
 15 34  1  0
 16 35  1  0
 16 36  1  0
 16 37  1  0
 17 38  1  0
 18 39  1  0
 19 40  1  0
 20 41  1  0
 21 42  1  0
 22 43  1  0
M  END
> <Uni-Dock RESULT> 
ENERGY=   -4.482  LOWER_BOUND=    4.577  UPPER_BOUND=    6.498
INTER + INTRA:          -4.482
INTER:                  -4.482
INTRA:                   0.000
UNBOUND:                 0.000

$$$$

     RDKit          3D

 43 46  0  0  0  0  0  0  0  0999 V2000
   46.5137  -16.1096  -10.6214 C   0  0  0  0  0  0  0  0  0  0  0  0
   46.7649  -15.2787  -11.8128 C   0  0  0  0  0  0  0  0  0  0  0  0
   47.5410  -16.0047   -9.5694 C   0  0  0  0  0  0  0  0  0  0  0  0
   45.4460  -16.9508  -10.5242 C   0  0  0  0  0  0  0  0  0  0  0  0
   48.8863  -16.5786  -12.3369 C   0  0  0  0  0  0  0  0  0  0  0  0
   49.3061  -16.9713  -11.1232 C   0  0  0  0  0  0  0  0  0  0  0  0
   43.3272  -18.8933  -10.4197 N   0  0  0  0  0  0  0  0  0  0  0  0
   48.8723  -16.4007   -9.8238 C   0  0  0  0  0  0  0  0  0  0  0  0
   47.9074  -15.4981  -12.6132 C   0  0  0  0  0  0  0  0  0  0  0  0
   45.1822  -17.7488   -9.2590 C   0  0  0  0  0  0  0  0  0  0  0  0
   44.3730  -16.9918  -11.5985 C   0  0  0  0  0  0  0  0  0  0  0  0
   44.5077  -19.0891   -9.5601 C   0  0  0  0  0  0  0  0  0  0  0  0
   43.7554  -18.3855  -11.7350 C   0  0  0  0  0  0  0  0  0  0  0  0
   45.8781  -14.2364  -12.1324 C   0  0  0  0  0  0  0  0  0  0  0  0
   47.1987  -15.4717   -8.3148 C   0  0  0  0  0  0  0  0  0  0  0  0
   42.6137  -20.1692  -10.5857 C   0  0  0  0  0  0  0  0  0  0  0  0
   49.8172  -16.3221   -8.7866 C   0  0  0  0  0  0  0  0  0  0  0  0
   48.0957  -14.7119  -13.7627 C   0  0  0  0  0  0  0  0  0  0  0  0
   48.1556  -15.3783   -7.3033 C   0  0  0  0  0  0  0  0  0  0  0  0
   46.0934  -13.4494  -13.2646 C   0  0  0  0  0  0  0  0  0  0  0  0
   49.4613  -15.8099   -7.5365 C   0  0  0  0  0  0  0  0  0  0  0  0
   47.1968  -13.6917  -14.0827 C   0  0  0  0  0  0  0  0  0  0  0  0
   49.3803  -17.0237  -13.1930 H   0  0  0  0  0  0  0  0  0  0  0  0
   50.1060  -17.7025  -11.0953 H   0  0  0  0  0  0  0  0  0  0  0  0
   46.1212  -17.9762   -8.7115 H   0  0  0  0  0  0  0  0  0  0  0  0
   44.5261  -17.1492   -8.5920 H   0  0  0  0  0  0  0  0  0  0  0  0
   43.5778  -16.2622  -11.3335 H   0  0  0  0  0  0  0  0  0  0  0  0
   44.7775  -16.7196  -12.5961 H   0  0  0  0  0  0  0  0  0  0  0  0
   44.2022  -19.5419   -8.5904 H   0  0  0  0  0  0  0  0  0  0  0  0
   45.2425  -19.7770  -10.0397 H   0  0  0  0  0  0  0  0  0  0  0  0
   42.8789  -18.3043  -12.4160 H   0  0  0  0  0  0  0  0  0  0  0  0
   44.4918  -19.0750  -12.2097 H   0  0  0  0  0  0  0  0  0  0  0  0
   45.0166  -14.0387  -11.5062 H   0  0  0  0  0  0  0  0  0  0  0  0
   46.1880  -15.1344   -8.1202 H   0  0  0  0  0  0  0  0  0  0  0  0
   43.2637  -20.9388  -11.0596 H   0  0  0  0  0  0  0  0  0  0  0  0
   42.2676  -20.5451   -9.5988 H   0  0  0  0  0  0  0  0  0  0  0  0
   41.7089  -20.0224  -11.2141 H   0  0  0  0  0  0  0  0  0  0  0  0
   50.8379  -16.6465   -8.9493 H   0  0  0  0  0  0  0  0  0  0  0  0
   48.9496  -14.8802  -14.4079 H   0  0  0  0  0  0  0  0  0  0  0  0
   47.8837  -14.9747   -6.3366 H   0  0  0  0  0  0  0  0  0  0  0  0
   45.4021  -12.6536  -13.5100 H   0  0  0  0  0  0  0  0  0  0  0  0
   50.2008  -15.7440   -6.7489 H   0  0  0  0  0  0  0  0  0  0  0  0
   47.3586  -13.0855  -14.9648 H   0  0  0  0  0  0  0  0  0  0  0  0
  2  1  1  0
  3  1  1  0
  4  1  2  3
  5  9  1  0
  6  8  1  0
  7 13  1  0
  8  3  2  0
  9  2  2  0
 10  4  1  0
 11  4  1  0
 12 10  1  0
 13 11  1  0
 14  2  1  0
 15  3  1  0
 16  7  1  0
 17  8  1  0
 18  9  1  0
 19 15  2  0
 20 14  2  0
 21 19  1  0
 22 20  1  0
  7 12  1  0
  6  5  2  0
 21 17  2  0
 22 18  2  0
  5 23  1  0
  6 24  1  0
 10 25  1  0
 10 26  1  0
 11 27  1  0
 11 28  1  0
 12 29  1  0
 12 30  1  0
 13 31  1  0
 13 32  1  0
 14 33  1  0
 15 34  1  0
 16 35  1  0
 16 36  1  0
 16 37  1  0
 17 38  1  0
 18 39  1  0
 19 40  1  0
 20 41  1  0
 21 42  1  0
 22 43  1  0
M  END
> <Uni-Dock RESULT> 
ENERGY=   -4.453  LOWER_BOUND=    4.405  UPPER_BOUND=    6.388
INTER + INTRA:          -4.453
INTER:                  -4.453
INTRA:                   0.000
UNBOUND:                 0.000

$$$$

     RDKit          3D

 43 46  0  0  0  0  0  0  0  0999 V2000
   44.9145  -14.1046  -12.3620 C   0  0  0  0  0  0  0  0  0  0  0  0
   44.8895  -15.4770  -11.8245 C   0  0  0  0  0  0  0  0  0  0  0  0
   43.6743  -13.3369  -12.1492 C   0  0  0  0  0  0  0  0  0  0  0  0
   45.9789  -13.6047  -13.0507 C   0  0  0  0  0  0  0  0  0  0  0  0
   43.0143  -16.1223  -13.4157 C   0  0  0  0  0  0  0  0  0  0  0  0
   42.3569  -14.9644  -13.5913 C   0  0  0  0  0  0  0  0  0  0  0  0
   48.1260  -12.6360  -14.7015 N   0  0  0  0  0  0  0  0  0  0  0  0
   42.4575  -13.7646  -12.7239 C   0  0  0  0  0  0  0  0  0  0  0  0
   43.9683  -16.4255  -12.3203 C   0  0  0  0  0  0  0  0  0  0  0  0
   45.9980  -12.1669  -13.5397 C   0  0  0  0  0  0  0  0  0  0  0  0
   47.2650  -14.3986  -13.2013 C   0  0  0  0  0  0  0  0  0  0  0  0
   46.7963  -12.0159  -14.8366 C   0  0  0  0  0  0  0  0  0  0  0  0
   47.9743  -14.0906  -14.5220 C   0  0  0  0  0  0  0  0  0  0  0  0
   45.7657  -15.8320  -10.7846 C   0  0  0  0  0  0  0  0  0  0  0  0
   43.6978  -12.1901  -11.3370 C   0  0  0  0  0  0  0  0  0  0  0  0
   48.9286  -12.3626  -15.9038 C   0  0  0  0  0  0  0  0  0  0  0  0
   41.3022  -12.9880  -12.5313 C   0  0  0  0  0  0  0  0  0  0  0  0
   43.9976  -17.7351  -11.8112 C   0  0  0  0  0  0  0  0  0  0  0  0
   42.5358  -11.4439  -11.1365 C   0  0  0  0  0  0  0  0  0  0  0  0
   45.7647  -17.1307  -10.2739 C   0  0  0  0  0  0  0  0  0  0  0  0
   41.3412  -11.8382  -11.7389 C   0  0  0  0  0  0  0  0  0  0  0  0
   44.8869  -18.0830  -10.7917 C   0  0  0  0  0  0  0  0  0  0  0  0
   42.7493  -16.9402  -14.0759 H   0  0  0  0  0  0  0  0  0  0  0  0
   41.6131  -14.9391  -14.3795 H   0  0  0  0  0  0  0  0  0  0  0  0
   44.9747  -11.7874  -13.7451 H   0  0  0  0  0  0  0  0  0  0  0  0
   46.4543  -11.5303  -12.7514 H   0  0  0  0  0  0  0  0  0  0  0  0
   47.9391  -14.1455  -12.3549 H   0  0  0  0  0  0  0  0  0  0  0  0
   47.0787  -15.4931  -13.1833 H   0  0  0  0  0  0  0  0  0  0  0  0
   46.9026  -10.9280  -15.0463 H   0  0  0  0  0  0  0  0  0  0  0  0
   46.2266  -12.4703  -15.6804 H   0  0  0  0  0  0  0  0  0  0  0  0
   48.9746  -14.5774  -14.4929 H   0  0  0  0  0  0  0  0  0  0  0  0
   47.4020  -14.5404  -15.3666 H   0  0  0  0  0  0  0  0  0  0  0  0
   46.4534  -15.1023  -10.3747 H   0  0  0  0  0  0  0  0  0  0  0  0
   44.6193  -11.8722  -10.8647 H   0  0  0  0  0  0  0  0  0  0  0  0
   48.4446  -12.7759  -16.8173 H   0  0  0  0  0  0  0  0  0  0  0  0
   49.0662  -11.2672  -16.0309 H   0  0  0  0  0  0  0  0  0  0  0  0
   49.9411  -12.8082  -15.7972 H   0  0  0  0  0  0  0  0  0  0  0  0
   40.3632  -13.2805  -12.9855 H   0  0  0  0  0  0  0  0  0  0  0  0
   43.3199  -18.4878  -12.1957 H   0  0  0  0  0  0  0  0  0  0  0  0
   42.5623  -10.5570  -10.5168 H   0  0  0  0  0  0  0  0  0  0  0  0
   46.4479  -17.4001   -9.4788 H   0  0  0  0  0  0  0  0  0  0  0  0
   40.4421  -11.2544  -11.5888 H   0  0  0  0  0  0  0  0  0  0  0  0
   44.8924  -19.0920  -10.4000 H   0  0  0  0  0  0  0  0  0  0  0  0
  2  1  1  0
  3  1  1  0
  4  1  2  3
  5  9  1  0
  6  8  1  0
  7 13  1  0
  8  3  2  0
  9  2  2  0
 10  4  1  0
 11  4  1  0
 12 10  1  0
 13 11  1  0
 14  2  1  0
 15  3  1  0
 16  7  1  0
 17  8  1  0
 18  9  1  0
 19 15  2  0
 20 14  2  0
 21 19  1  0
 22 20  1  0
  7 12  1  0
  6  5  2  0
 21 17  2  0
 22 18  2  0
  5 23  1  0
  6 24  1  0
 10 25  1  0
 10 26  1  0
 11 27  1  0
 11 28  1  0
 12 29  1  0
 12 30  1  0
 13 31  1  0
 13 32  1  0
 14 33  1  0
 15 34  1  0
 16 35  1  0
 16 36  1  0
 16 37  1  0
 17 38  1  0
 18 39  1  0
 19 40  1  0
 20 41  1  0
 21 42  1  0
 22 43  1  0
M  END
> <Uni-Dock RESULT> 
ENERGY=   -4.185  LOWER_BOUND=    6.772  UPPER_BOUND=    8.861
INTER + INTRA:          -4.185
INTER:                  -4.185
INTRA:                   0.000
UNBOUND:                 0.000

$$$$
