
     RDKit          3D

 43 46  0  0  0  0  0  0  0  0999 V2000
   50.2343  -17.2477   -7.5809 C   0  0  0  0  0  0  0  0  0  0  0  0
   48.8121  -17.1644   -7.2016 C   0  0  0  0  0  0  0  0  0  0  0  0
   51.1638  -16.6205   -6.6237 C   0  0  0  0  0  0  0  0  0  0  0  0
   50.6515  -17.8078   -8.7516 C   0  0  0  0  0  0  0  0  0  0  0  0
   48.8649  -14.6272   -7.3587 C   0  0  0  0  0  0  0  0  0  0  0  0
   50.1374  -14.3330   -7.0460 C   0  0  0  0  0  0  0  0  0  0  0  0
   51.5157  -18.7705  -11.3629 N   0  0  0  0  0  0  0  0  0  0  0  0
   51.0980  -15.2343   -6.3627 C   0  0  0  0  0  0  0  0  0  0  0  0
   48.1735  -15.9107   -7.0813 C   0  0  0  0  0  0  0  0  0  0  0  0
   52.1291  -17.9273   -9.0786 C   0  0  0  0  0  0  0  0  0  0  0  0
   49.6697  -18.4958   -9.6829 C   0  0  0  0  0  0  0  0  0  0  0  0
   52.4047  -17.8871  -10.5882 C   0  0  0  0  0  0  0  0  0  0  0  0
   50.1001  -18.4197  -11.1546 C   0  0  0  0  0  0  0  0  0  0  0  0
   48.0968  -18.3417   -6.9235 C   0  0  0  0  0  0  0  0  0  0  0  0
   52.0990  -17.4161   -5.9400 C   0  0  0  0  0  0  0  0  0  0  0  0
   51.7912  -20.1999  -11.1391 C   0  0  0  0  0  0  0  0  0  0  0  0
   52.0247  -14.6632   -5.4738 C   0  0  0  0  0  0  0  0  0  0  0  0
   46.8070  -15.8700   -6.7561 C   0  0  0  0  0  0  0  0  0  0  0  0
   52.9961  -16.8360   -5.0422 C   0  0  0  0  0  0  0  0  0  0  0  0
   46.7460  -18.2815   -6.5782 C   0  0  0  0  0  0  0  0  0  0  0  0
   52.9639  -15.4602   -4.8150 C   0  0  0  0  0  0  0  0  0  0  0  0
   46.1000  -17.0476   -6.5019 C   0  0  0  0  0  0  0  0  0  0  0  0
   48.2611  -13.8215   -7.7602 H   0  0  0  0  0  0  0  0  0  0  0  0
   50.4603  -13.3128   -7.2198 H   0  0  0  0  0  0  0  0  0  0  0  0
   52.7096  -17.0930   -8.6308 H   0  0  0  0  0  0  0  0  0  0  0  0
   52.5185  -18.8740   -8.6484 H   0  0  0  0  0  0  0  0  0  0  0  0
   49.5631  -19.5573   -9.3748 H   0  0  0  0  0  0  0  0  0  0  0  0
   48.6640  -18.0283   -9.6250 H   0  0  0  0  0  0  0  0  0  0  0  0
   52.2793  -16.8421  -10.9494 H   0  0  0  0  0  0  0  0  0  0  0  0
   53.4672  -18.1569  -10.7759 H   0  0  0  0  0  0  0  0  0  0  0  0
   49.4495  -19.0856  -11.7632 H   0  0  0  0  0  0  0  0  0  0  0  0
   49.9254  -17.3862  -11.5278 H   0  0  0  0  0  0  0  0  0  0  0  0
   48.5863  -19.3063   -6.9797 H   0  0  0  0  0  0  0  0  0  0  0  0
   52.1349  -18.4856   -6.1077 H   0  0  0  0  0  0  0  0  0  0  0  0
   51.6023  -20.5002  -10.0876 H   0  0  0  0  0  0  0  0  0  0  0  0
   52.8493  -20.4258  -11.3903 H   0  0  0  0  0  0  0  0  0  0  0  0
   51.1538  -20.8177  -11.8068 H   0  0  0  0  0  0  0  0  0  0  0  0
   52.0122  -13.5975   -5.2791 H   0  0  0  0  0  0  0  0  0  0  0  0
   46.2885  -14.9212   -6.6858 H   0  0  0  0  0  0  0  0  0  0  0  0
   53.7194  -17.4530   -4.5250 H   0  0  0  0  0  0  0  0  0  0  0  0
   46.1987  -19.1924   -6.3732 H   0  0  0  0  0  0  0  0  0  0  0  0
   53.6652  -15.0103   -4.1242 H   0  0  0  0  0  0  0  0  0  0  0  0
   45.0505  -17.0027   -6.2413 H   0  0  0  0  0  0  0  0  0  0  0  0
  2  1  1  0
  3  1  1  0
  4  1  2  3
  5  9  1  0
  6  8  1  0
  7 13  1  0
  8  3  2  0
  9  2  2  0
 10  4  1  0
 11  4  1  0
 12 10  1  0
 13 11  1  0
 14  2  1  0
 15  3  1  0
 16  7  1  0
 17  8  1  0
 18  9  1  0
 19 15  2  0
 20 14  2  0
 21 19  1  0
 22 20  1  0
  7 12  1  0
  6  5  2  0
 21 17  2  0
 22 18  2  0
  5 23  1  0
  6 24  1  0
 10 25  1  0
 10 26  1  0
 11 27  1  0
 11 28  1  0
 12 29  1  0
 12 30  1  0
 13 31  1  0
 13 32  1  0
 14 33  1  0
 15 34  1  0
 16 35  1  0
 16 36  1  0
 16 37  1  0
 17 38  1  0
 18 39  1  0
 19 40  1  0
 20 41  1  0
 21 42  1  0
 22 43  1  0
M  END
> <Uni-Dock RESULT> 
ENERGY=   -6.318  LOWER_BOUND=    0.000  UPPER_BOUND=    0.000
INTER + INTRA:          -6.318
INTER:                  -6.318
INTRA:                   0.000
UNBOUND:                 0.000

$$$$

     RDKit          3D

 43 46  0  0  0  0  0  0  0  0999 V2000
   50.3247  -17.3576   -7.7146 C   0  0  0  0  0  0  0  0  0  0  0  0
   51.1660  -17.5902   -6.5266 C   0  0  0  0  0  0  0  0  0  0  0  0
   48.9220  -17.0149   -7.4175 C   0  0  0  0  0  0  0  0  0  0  0  0
   50.7919  -17.5054   -8.9868 C   0  0  0  0  0  0  0  0  0  0  0  0
   49.7557  -19.5967   -5.8561 C   0  0  0  0  0  0  0  0  0  0  0  0
   48.5414  -19.2854   -6.3383 C   0  0  0  0  0  0  0  0  0  0  0  0
   51.7203  -18.0713  -11.6906 N   0  0  0  0  0  0  0  0  0  0  0  0
   48.0856  -17.9333   -6.7458 C   0  0  0  0  0  0  0  0  0  0  0  0
   50.8762  -18.6486   -5.6379 C   0  0  0  0  0  0  0  0  0  0  0  0
   49.9104  -17.1992  -10.1842 C   0  0  0  0  0  0  0  0  0  0  0  0
   52.2570  -17.8010   -9.2525 C   0  0  0  0  0  0  0  0  0  0  0  0
   50.2732  -18.0418  -11.4150 C   0  0  0  0  0  0  0  0  0  0  0  0
   52.4722  -18.6059  -10.5420 C   0  0  0  0  0  0  0  0  0  0  0  0
   52.2438  -16.7289   -6.2587 C   0  0  0  0  0  0  0  0  0  0  0  0
   48.4248  -15.7499   -7.7748 C   0  0  0  0  0  0  0  0  0  0  0  0
   52.2401  -16.7770  -12.1638 C   0  0  0  0  0  0  0  0  0  0  0  0
   46.7432  -17.5888   -6.5132 C   0  0  0  0  0  0  0  0  0  0  0  0
   51.7220  -18.8652   -4.5367 C   0  0  0  0  0  0  0  0  0  0  0  0
   47.0953  -15.4153   -7.5144 C   0  0  0  0  0  0  0  0  0  0  0  0
   53.0592  -16.9442   -5.1469 C   0  0  0  0  0  0  0  0  0  0  0  0
   46.2535  -16.3363   -6.8912 C   0  0  0  0  0  0  0  0  0  0  0  0
   52.8032  -18.0156   -4.2911 C   0  0  0  0  0  0  0  0  0  0  0  0
   49.8961  -20.6119   -5.5033 H   0  0  0  0  0  0  0  0  0  0  0  0
   47.7976  -20.0740   -6.3364 H   0  0  0  0  0  0  0  0  0  0  0  0
   48.8426  -17.4099   -9.9628 H   0  0  0  0  0  0  0  0  0  0  0  0
   49.9945  -16.1191  -10.4275 H   0  0  0  0  0  0  0  0  0  0  0  0
   52.8145  -16.8423   -9.3080 H   0  0  0  0  0  0  0  0  0  0  0  0
   52.7028  -18.3999   -8.4302 H   0  0  0  0  0  0  0  0  0  0  0  0
   49.9145  -19.0832  -11.2569 H   0  0  0  0  0  0  0  0  0  0  0  0
   49.7248  -17.6540  -12.3015 H   0  0  0  0  0  0  0  0  0  0  0  0
   53.5583  -18.6372  -10.7794 H   0  0  0  0  0  0  0  0  0  0  0  0
   52.1605  -19.6593  -10.3651 H   0  0  0  0  0  0  0  0  0  0  0  0
   52.4539  -15.8937   -6.9155 H   0  0  0  0  0  0  0  0  0  0  0  0
   49.0678  -15.0256   -8.2598 H   0  0  0  0  0  0  0  0  0  0  0  0
   52.1389  -15.9823  -11.3958 H   0  0  0  0  0  0  0  0  0  0  0  0
   51.6947  -16.4611  -13.0785 H   0  0  0  0  0  0  0  0  0  0  0  0
   53.3125  -16.8760  -12.4360 H   0  0  0  0  0  0  0  0  0  0  0  0
   46.0747  -18.2878   -6.0249 H   0  0  0  0  0  0  0  0  0  0  0  0
   51.5365  -19.6881   -3.8568 H   0  0  0  0  0  0  0  0  0  0  0  0
   46.7163  -14.4424   -7.7995 H   0  0  0  0  0  0  0  0  0  0  0  0
   53.8927  -16.2822   -4.9507 H   0  0  0  0  0  0  0  0  0  0  0  0
   45.2204  -16.0785   -6.6966 H   0  0  0  0  0  0  0  0  0  0  0  0
   53.4409  -18.1859   -3.4334 H   0  0  0  0  0  0  0  0  0  0  0  0
  2  1  1  0
  3  1  1  0
  4  1  2  3
  5  9  1  0
  6  8  1  0
  7 13  1  0
  8  3  2  0
  9  2  2  0
 10  4  1  0
 11  4  1  0
 12 10  1  0
 13 11  1  0
 14  2  1  0
 15  3  1  0
 16  7  1  0
 17  8  1  0
 18  9  1  0
 19 15  2  0
 20 14  2  0
 21 19  1  0
 22 20  1  0
  7 12  1  0
  6  5  2  0
 21 17  2  0
 22 18  2  0
  5 23  1  0
  6 24  1  0
 10 25  1  0
 10 26  1  0
 11 27  1  0
 11 28  1  0
 12 29  1  0
 12 30  1  0
 13 31  1  0
 13 32  1  0
 14 33  1  0
 15 34  1  0
 16 35  1  0
 16 36  1  0
 16 37  1  0
 17 38  1  0
 18 39  1  0
 19 40  1  0
 20 41  1  0
 21 42  1  0
 22 43  1  0
M  END
> <Uni-Dock RESULT> 
ENERGY=   -5.235  LOWER_BOUND=    1.149  UPPER_BOUND=    4.486
INTER + INTRA:          -5.235
INTER:                  -5.235
INTRA:                   0.000
UNBOUND:                 0.000

$$$$

     RDKit          3D

 43 46  0  0  0  0  0  0  0  0999 V2000
   47.9432  -17.2631   -7.9723 C   0  0  0  0  0  0  0  0  0  0  0  0
   48.9293  -16.2985   -7.4522 C   0  0  0  0  0  0  0  0  0  0  0  0
   47.4680  -18.2496   -6.9852 C   0  0  0  0  0  0  0  0  0  0  0  0
   47.5470  -17.2785   -9.2767 C   0  0  0  0  0  0  0  0  0  0  0  0
   50.5970  -18.1649   -7.0050 C   0  0  0  0  0  0  0  0  0  0  0  0
   49.8062  -19.2207   -6.7523 C   0  0  0  0  0  0  0  0  0  0  0  0
   46.8995  -17.4720  -12.1115 N   0  0  0  0  0  0  0  0  0  0  0  0
   48.3665  -19.1662   -6.3967 C   0  0  0  0  0  0  0  0  0  0  0  0
   50.1838  -16.7399   -6.9774 C   0  0  0  0  0  0  0  0  0  0  0  0
   46.4853  -18.2499   -9.7601 C   0  0  0  0  0  0  0  0  0  0  0  0
   48.0137  -16.2097  -10.2484 C   0  0  0  0  0  0  0  0  0  0  0  0
   46.6641  -18.6333  -11.2358 C   0  0  0  0  0  0  0  0  0  0  0  0
   48.0965  -16.7216  -11.6935 C   0  0  0  0  0  0  0  0  0  0  0  0
   48.6029  -14.9327   -7.3963 C   0  0  0  0  0  0  0  0  0  0  0  0
   46.1159  -18.2531   -6.6016 C   0  0  0  0  0  0  0  0  0  0  0  0
   45.7099  -16.6167  -12.2613 C   0  0  0  0  0  0  0  0  0  0  0  0
   47.8722  -20.1180   -5.4886 C   0  0  0  0  0  0  0  0  0  0  0  0
   51.1144  -15.7892   -6.5248 C   0  0  0  0  0  0  0  0  0  0  0  0
   45.6467  -19.1900   -5.6799 C   0  0  0  0  0  0  0  0  0  0  0  0
   49.5305  -14.0047   -6.9212 C   0  0  0  0  0  0  0  0  0  0  0  0
   46.5222  -20.1261   -5.1298 C   0  0  0  0  0  0  0  0  0  0  0  0
   50.7874  -14.4315   -6.4929 C   0  0  0  0  0  0  0  0  0  0  0  0
   51.6527  -18.3670   -7.1445 H   0  0  0  0  0  0  0  0  0  0  0  0
   50.2862  -20.1916   -6.7077 H   0  0  0  0  0  0  0  0  0  0  0  0
   46.5145  -19.1985   -9.1832 H   0  0  0  0  0  0  0  0  0  0  0  0
   45.4838  -17.7958   -9.6063 H   0  0  0  0  0  0  0  0  0  0  0  0
   47.3204  -15.3441  -10.1933 H   0  0  0  0  0  0  0  0  0  0  0  0
   49.0286  -15.8424   -9.9866 H   0  0  0  0  0  0  0  0  0  0  0  0
   47.5251  -19.3327  -11.3244 H   0  0  0  0  0  0  0  0  0  0  0  0
   45.7687  -19.1953  -11.5814 H   0  0  0  0  0  0  0  0  0  0  0  0
   48.2657  -15.8623  -12.3791 H   0  0  0  0  0  0  0  0  0  0  0  0
   48.9880  -17.3799  -11.7917 H   0  0  0  0  0  0  0  0  0  0  0  0
   47.6306  -14.5879   -7.7263 H   0  0  0  0  0  0  0  0  0  0  0  0
   45.4255  -17.5320   -7.0217 H   0  0  0  0  0  0  0  0  0  0  0  0
   45.4041  -16.1572  -11.2985 H   0  0  0  0  0  0  0  0  0  0  0  0
   44.8612  -17.2139  -12.6574 H   0  0  0  0  0  0  0  0  0  0  0  0
   45.9149  -15.8073  -12.9939 H   0  0  0  0  0  0  0  0  0  0  0  0
   48.5371  -20.8497   -5.0454 H   0  0  0  0  0  0  0  0  0  0  0  0
   52.0939  -16.1011   -6.1822 H   0  0  0  0  0  0  0  0  0  0  0  0
   44.6026  -19.1927   -5.3949 H   0  0  0  0  0  0  0  0  0  0  0  0
   49.2759  -12.9532   -6.8884 H   0  0  0  0  0  0  0  0  0  0  0  0
   46.1555  -20.8571   -4.4208 H   0  0  0  0  0  0  0  0  0  0  0  0
   51.5087  -13.7099   -6.1317 H   0  0  0  0  0  0  0  0  0  0  0  0
  2  1  1  0
  3  1  1  0
  4  1  2  3
  5  9  1  0
  6  8  1  0
  7 13  1  0
  8  3  2  0
  9  2  2  0
 10  4  1  0
 11  4  1  0
 12 10  1  0
 13 11  1  0
 14  2  1  0
 15  3  1  0
 16  7  1  0
 17  8  1  0
 18  9  1  0
 19 15  2  0
 20 14  2  0
 21 19  1  0
 22 20  1  0
  7 12  1  0
  6  5  2  0
 21 17  2  0
 22 18  2  0
  5 23  1  0
  6 24  1  0
 10 25  1  0
 10 26  1  0
 11 27  1  0
 11 28  1  0
 12 29  1  0
 12 30  1  0
 13 31  1  0
 13 32  1  0
 14 33  1  0
 15 34  1  0
 16 35  1  0
 16 36  1  0
 16 37  1  0
 17 38  1  0
 18 39  1  0
 19 40  1  0
 20 41  1  0
 21 42  1  0
 22 43  1  0
M  END
> <Uni-Dock RESULT> 
ENERGY=   -5.226  LOWER_BOUND=    2.299  UPPER_BOUND=    4.999
INTER + INTRA:          -5.226
INTER:                  -5.226
INTRA:                   0.000
UNBOUND:                 0.000

$$$$

     RDKit          3D

 43 46  0  0  0  0  0  0  0  0999 V2000
   48.8882  -17.2209   -7.8431 C   0  0  0  0  0  0  0  0  0  0  0  0
   49.9168  -16.4620   -7.1088 C   0  0  0  0  0  0  0  0  0  0  0  0
   48.0478  -18.0915   -7.0009 C   0  0  0  0  0  0  0  0  0  0  0  0
   48.7627  -17.1668   -9.1995 C   0  0  0  0  0  0  0  0  0  0  0  0
   51.0765  -18.6127   -6.4059 C   0  0  0  0  0  0  0  0  0  0  0  0
   50.0651  -19.4945   -6.3475 C   0  0  0  0  0  0  0  0  0  0  0  0
   48.6650  -17.2473  -12.1110 N   0  0  0  0  0  0  0  0  0  0  0  0
   48.6207  -19.1611   -6.2786 C   0  0  0  0  0  0  0  0  0  0  0  0
   50.9449  -17.1346   -6.4127 C   0  0  0  0  0  0  0  0  0  0  0  0
   47.6528  -17.9175   -9.9129 C   0  0  0  0  0  0  0  0  0  0  0  0
   49.6074  -16.2136  -10.0256 C   0  0  0  0  0  0  0  0  0  0  0  0
   48.0441  -18.3364  -11.3369 C   0  0  0  0  0  0  0  0  0  0  0  0
   49.8759  -16.7398  -11.4426 C   0  0  0  0  0  0  0  0  0  0  0  0
   49.8518  -15.0585   -7.0729 C   0  0  0  0  0  0  0  0  0  0  0  0
   46.6712  -17.8318   -6.8893 C   0  0  0  0  0  0  0  0  0  0  0  0
   47.7136  -16.1793  -12.4622 C   0  0  0  0  0  0  0  0  0  0  0  0
   47.7844  -19.9945   -5.5165 C   0  0  0  0  0  0  0  0  0  0  0  0
   51.9310  -16.3790   -5.7559 C   0  0  0  0  0  0  0  0  0  0  0  0
   45.8590  -18.6553   -6.1085 C   0  0  0  0  0  0  0  0  0  0  0  0
   50.8262  -14.3244   -6.3953 C   0  0  0  0  0  0  0  0  0  0  0  0
   46.4136  -19.7397   -5.4289 C   0  0  0  0  0  0  0  0  0  0  0  0
   51.8687  -14.9835   -5.7439 C   0  0  0  0  0  0  0  0  0  0  0  0
   52.0807  -19.0156   -6.3429 H   0  0  0  0  0  0  0  0  0  0  0  0
   50.3330  -20.5396   -6.2420 H   0  0  0  0  0  0  0  0  0  0  0  0
   47.3859  -18.8507   -9.3729 H   0  0  0  0  0  0  0  0  0  0  0  0
   46.7458  -17.2778   -9.9429 H   0  0  0  0  0  0  0  0  0  0  0  0
   49.0946  -15.2301  -10.0785 H   0  0  0  0  0  0  0  0  0  0  0  0
   50.6013  -16.0477   -9.5584 H   0  0  0  0  0  0  0  0  0  0  0  0
   48.7564  -19.1893  -11.2784 H   0  0  0  0  0  0  0  0  0  0  0  0
   47.1447  -18.7168  -11.8691 H   0  0  0  0  0  0  0  0  0  0  0  0
   50.3380  -15.9332  -12.0533 H   0  0  0  0  0  0  0  0  0  0  0  0
   50.6273  -17.5585  -11.3863 H   0  0  0  0  0  0  0  0  0  0  0  0
   49.0480  -14.5343   -7.5750 H   0  0  0  0  0  0  0  0  0  0  0  0
   46.2277  -16.9933   -7.4123 H   0  0  0  0  0  0  0  0  0  0  0  0
   47.3162  -15.6640  -11.5632 H   0  0  0  0  0  0  0  0  0  0  0  0
   46.8624  -16.6035  -13.0360 H   0  0  0  0  0  0  0  0  0  0  0  0
   48.2100  -15.4288  -13.1136 H   0  0  0  0  0  0  0  0  0  0  0  0
   48.1966  -20.8383   -4.9762 H   0  0  0  0  0  0  0  0  0  0  0  0
   52.7456  -16.8722   -5.2389 H   0  0  0  0  0  0  0  0  0  0  0  0
   44.7981  -18.4548   -6.0333 H   0  0  0  0  0  0  0  0  0  0  0  0
   50.7751  -13.2434   -6.3783 H   0  0  0  0  0  0  0  0  0  0  0  0
   45.7815  -20.3823   -4.8297 H   0  0  0  0  0  0  0  0  0  0  0  0
   52.6280  -14.4128   -5.2251 H   0  0  0  0  0  0  0  0  0  0  0  0
  2  1  1  0
  3  1  1  0
  4  1  2  3
  5  9  1  0
  6  8  1  0
  7 13  1  0
  8  3  2  0
  9  2  2  0
 10  4  1  0
 11  4  1  0
 12 10  1  0
 13 11  1  0
 14  2  1  0
 15  3  1  0
 16  7  1  0
 17  8  1  0
 18  9  1  0
 19 15  2  0
 20 14  2  0
 21 19  1  0
 22 20  1  0
  7 12  1  0
  6  5  2  0
 21 17  2  0
 22 18  2  0
  5 23  1  0
  6 24  1  0
 10 25  1  0
 10 26  1  0
 11 27  1  0
 11 28  1  0
 12 29  1  0
 12 30  1  0
 13 31  1  0
 13 32  1  0
 14 33  1  0
 15 34  1  0
 16 35  1  0
 16 36  1  0
 16 37  1  0
 17 38  1  0
 18 39  1  0
 19 40  1  0
 20 41  1  0
 21 42  1  0
 22 43  1  0
M  END
> <Uni-Dock RESULT> 
ENERGY=   -5.176  LOWER_BOUND=    1.809  UPPER_BOUND=    4.767
INTER + INTRA:          -5.176
INTER:                  -5.176
INTRA:                   0.000
UNBOUND:                 0.000

$$$$

     RDKit          3D

 43 46  0  0  0  0  0  0  0  0999 V2000
   47.2803  -16.1349  -10.6957 C   0  0  0  0  0  0  0  0  0  0  0  0
   47.0156  -16.2729   -9.2521 C   0  0  0  0  0  0  0  0  0  0  0  0
   46.1353  -15.6494  -11.4873 C   0  0  0  0  0  0  0  0  0  0  0  0
   48.4702  -16.4845  -11.2619 C   0  0  0  0  0  0  0  0  0  0  0  0
   45.2606  -18.0593   -9.6914 C   0  0  0  0  0  0  0  0  0  0  0  0
   44.7842  -17.7219  -10.9010 C   0  0  0  0  0  0  0  0  0  0  0  0
   50.9166  -17.4712  -12.5006 N   0  0  0  0  0  0  0  0  0  0  0  0
   44.9444  -16.4043  -11.5645 C   0  0  0  0  0  0  0  0  0  0  0  0
   46.0392  -17.1797   -8.7847 C   0  0  0  0  0  0  0  0  0  0  0  0
   48.7238  -16.2719  -12.7435 C   0  0  0  0  0  0  0  0  0  0  0  0
   49.6443  -16.9242  -10.4059 C   0  0  0  0  0  0  0  0  0  0  0  0
   49.7091  -17.2946  -13.3263 C   0  0  0  0  0  0  0  0  0  0  0  0
   50.5717  -17.9060  -11.1358 C   0  0  0  0  0  0  0  0  0  0  0  0
   47.7169  -15.4692   -8.3369 C   0  0  0  0  0  0  0  0  0  0  0  0
   46.2186  -14.4081  -12.1410 C   0  0  0  0  0  0  0  0  0  0  0  0
   51.8019  -16.2943  -12.5208 C   0  0  0  0  0  0  0  0  0  0  0  0
   43.8870  -15.9302  -12.3594 C   0  0  0  0  0  0  0  0  0  0  0  0
   45.8403  -17.3136   -7.4001 C   0  0  0  0  0  0  0  0  0  0  0  0
   45.1496  -13.9410  -12.9067 C   0  0  0  0  0  0  0  0  0  0  0  0
   47.4894  -15.5982   -6.9662 C   0  0  0  0  0  0  0  0  0  0  0  0
   43.9880  -14.7045  -13.0219 C   0  0  0  0  0  0  0  0  0  0  0  0
   46.5577  -16.5246   -6.4979 C   0  0  0  0  0  0  0  0  0  0  0  0
   44.9655  -19.0270   -9.3022 H   0  0  0  0  0  0  0  0  0  0  0  0
   44.1422  -18.4440  -11.3925 H   0  0  0  0  0  0  0  0  0  0  0  0
   47.7861  -16.3689  -13.3307 H   0  0  0  0  0  0  0  0  0  0  0  0
   49.1108  -15.2429  -12.8994 H   0  0  0  0  0  0  0  0  0  0  0  0
   50.2171  -16.0268  -10.0904 H   0  0  0  0  0  0  0  0  0  0  0  0
   49.3004  -17.4419   -9.4855 H   0  0  0  0  0  0  0  0  0  0  0  0
   49.1932  -18.2755  -13.4257 H   0  0  0  0  0  0  0  0  0  0  0  0
   49.9940  -16.9860  -14.3561 H   0  0  0  0  0  0  0  0  0  0  0  0
   51.4978  -18.0517  -10.5373 H   0  0  0  0  0  0  0  0  0  0  0  0
   50.0742  -18.8999  -11.1884 H   0  0  0  0  0  0  0  0  0  0  0  0
   48.4435  -14.7464   -8.6873 H   0  0  0  0  0  0  0  0  0  0  0  0
   47.1151  -13.8055  -12.0602 H   0  0  0  0  0  0  0  0  0  0  0  0
   51.3150  -15.4000  -12.0796 H   0  0  0  0  0  0  0  0  0  0  0  0
   52.0979  -16.0607  -13.5656 H   0  0  0  0  0  0  0  0  0  0  0  0
   52.7324  -16.5103  -11.9540 H   0  0  0  0  0  0  0  0  0  0  0  0
   42.9740  -16.5054  -12.4568 H   0  0  0  0  0  0  0  0  0  0  0  0
   45.1168  -18.0231   -7.0165 H   0  0  0  0  0  0  0  0  0  0  0  0
   45.2232  -12.9879  -13.4144 H   0  0  0  0  0  0  0  0  0  0  0  0
   48.0387  -14.9820   -6.2661 H   0  0  0  0  0  0  0  0  0  0  0  0
   43.1624  -14.3447  -13.6223 H   0  0  0  0  0  0  0  0  0  0  0  0
   46.3876  -16.6289   -5.4341 H   0  0  0  0  0  0  0  0  0  0  0  0
  2  1  1  0
  3  1  1  0
  4  1  2  3
  5  9  1  0
  6  8  1  0
  7 13  1  0
  8  3  2  0
  9  2  2  0
 10  4  1  0
 11  4  1  0
 12 10  1  0
 13 11  1  0
 14  2  1  0
 15  3  1  0
 16  7  1  0
 17  8  1  0
 18  9  1  0
 19 15  2  0
 20 14  2  0
 21 19  1  0
 22 20  1  0
  7 12  1  0
  6  5  2  0
 21 17  2  0
 22 18  2  0
  5 23  1  0
  6 24  1  0
 10 25  1  0
 10 26  1  0
 11 27  1  0
 11 28  1  0
 12 29  1  0
 12 30  1  0
 13 31  1  0
 13 32  1  0
 14 33  1  0
 15 34  1  0
 16 35  1  0
 16 36  1  0
 16 37  1  0
 17 38  1  0
 18 39  1  0
 19 40  1  0
 20 41  1  0
 21 42  1  0
 22 43  1  0
M  END
> <Uni-Dock RESULT> 
ENERGY=   -4.876  LOWER_BOUND=    3.746  UPPER_BOUND=    6.097
INTER + INTRA:          -4.876
INTER:                  -4.876
INTRA:                   0.000
UNBOUND:                 0.000

$$$$

     RDKit          3D

 43 46  0  0  0  0  0  0  0  0999 V2000
   47.2801  -16.1356  -10.6957 C   0  0  0  0  0  0  0  0  0  0  0  0
   47.0156  -16.2739   -9.2520 C   0  0  0  0  0  0  0  0  0  0  0  0
   46.1350  -15.6499  -11.4871 C   0  0  0  0  0  0  0  0  0  0  0  0
   48.4700  -16.4850  -11.2619 C   0  0  0  0  0  0  0  0  0  0  0  0
   45.2605  -18.0602   -9.6916 C   0  0  0  0  0  0  0  0  0  0  0  0
   44.7840  -17.7225  -10.9010 C   0  0  0  0  0  0  0  0  0  0  0  0
   50.9163  -17.4715  -12.5010 N   0  0  0  0  0  0  0  0  0  0  0  0
   44.9441  -16.4048  -11.5643 C   0  0  0  0  0  0  0  0  0  0  0  0
   46.0391  -17.1808   -8.7848 C   0  0  0  0  0  0  0  0  0  0  0  0
   48.7235  -16.2721  -12.7435 C   0  0  0  0  0  0  0  0  0  0  0  0
   49.6441  -16.9249  -10.4061 C   0  0  0  0  0  0  0  0  0  0  0  0
   49.7088  -17.2948  -13.3266 C   0  0  0  0  0  0  0  0  0  0  0  0
   50.5715  -17.9066  -11.1364 C   0  0  0  0  0  0  0  0  0  0  0  0
   47.7169  -15.4704   -8.3367 C   0  0  0  0  0  0  0  0  0  0  0  0
   46.2184  -14.4084  -12.1405 C   0  0  0  0  0  0  0  0  0  0  0  0
   51.8016  -16.2946  -12.5211 C   0  0  0  0  0  0  0  0  0  0  0  0
   43.8867  -15.9305  -12.3590 C   0  0  0  0  0  0  0  0  0  0  0  0
   45.8403  -17.3150   -7.4002 C   0  0  0  0  0  0  0  0  0  0  0  0
   45.1492  -13.9412  -12.9060 C   0  0  0  0  0  0  0  0  0  0  0  0
   47.4895  -15.5996   -6.9660 C   0  0  0  0  0  0  0  0  0  0  0  0
   43.9877  -14.7047  -13.0213 C   0  0  0  0  0  0  0  0  0  0  0  0
   46.5578  -16.5261   -6.4978 C   0  0  0  0  0  0  0  0  0  0  0  0
   44.9654  -19.0280   -9.3026 H   0  0  0  0  0  0  0  0  0  0  0  0
   44.1420  -18.4445  -11.3927 H   0  0  0  0  0  0  0  0  0  0  0  0
   47.7857  -16.3691  -13.3307 H   0  0  0  0  0  0  0  0  0  0  0  0
   49.1105  -15.2431  -12.8992 H   0  0  0  0  0  0  0  0  0  0  0  0
   50.2170  -16.0276  -10.0905 H   0  0  0  0  0  0  0  0  0  0  0  0
   49.3003  -17.4428   -9.4858 H   0  0  0  0  0  0  0  0  0  0  0  0
   49.1928  -18.2756  -13.4262 H   0  0  0  0  0  0  0  0  0  0  0  0
   49.9936  -16.9859  -14.3564 H   0  0  0  0  0  0  0  0  0  0  0  0
   51.4976  -18.0524  -10.5380 H   0  0  0  0  0  0  0  0  0  0  0  0
   50.0740  -18.9004  -11.1891 H   0  0  0  0  0  0  0  0  0  0  0  0
   48.4435  -14.7475   -8.6870 H   0  0  0  0  0  0  0  0  0  0  0  0
   47.1148  -13.8059  -12.0596 H   0  0  0  0  0  0  0  0  0  0  0  0
   51.3147  -15.4003  -12.0797 H   0  0  0  0  0  0  0  0  0  0  0  0
   52.0976  -16.0608  -13.5659 H   0  0  0  0  0  0  0  0  0  0  0  0
   52.7321  -16.5107  -11.9544 H   0  0  0  0  0  0  0  0  0  0  0  0
   42.9737  -16.5057  -12.4565 H   0  0  0  0  0  0  0  0  0  0  0  0
   45.1169  -18.0246   -7.0167 H   0  0  0  0  0  0  0  0  0  0  0  0
   45.2228  -12.9880  -13.4135 H   0  0  0  0  0  0  0  0  0  0  0  0
   48.0388  -14.9836   -6.2658 H   0  0  0  0  0  0  0  0  0  0  0  0
   43.1621  -14.3448  -13.6216 H   0  0  0  0  0  0  0  0  0  0  0  0
   46.3878  -16.6307   -5.4341 H   0  0  0  0  0  0  0  0  0  0  0  0
  2  1  1  0
  3  1  1  0
  4  1  2  3
  5  9  1  0
  6  8  1  0
  7 13  1  0
  8  3  2  0
  9  2  2  0
 10  4  1  0
 11  4  1  0
 12 10  1  0
 13 11  1  0
 14  2  1  0
 15  3  1  0
 16  7  1  0
 17  8  1  0
 18  9  1  0
 19 15  2  0
 20 14  2  0
 21 19  1  0
 22 20  1  0
  7 12  1  0
  6  5  2  0
 21 17  2  0
 22 18  2  0
  5 23  1  0
  6 24  1  0
 10 25  1  0
 10 26  1  0
 11 27  1  0
 11 28  1  0
 12 29  1  0
 12 30  1  0
 13 31  1  0
 13 32  1  0
 14 33  1  0
 15 34  1  0
 16 35  1  0
 16 36  1  0
 16 37  1  0
 17 38  1  0
 18 39  1  0
 19 40  1  0
 20 41  1  0
 21 42  1  0
 22 43  1  0
M  END
> <Uni-Dock RESULT> 
ENERGY=   -4.874  LOWER_BOUND=    3.746  UPPER_BOUND=    6.097
INTER + INTRA:          -4.874
INTER:                  -4.874
INTRA:                   0.000
UNBOUND:                 0.000

$$$$

     RDKit          3D

 43 46  0  0  0  0  0  0  0  0999 V2000
   46.2383  -16.4884  -10.2924 C   0  0  0  0  0  0  0  0  0  0  0  0
   46.2241  -15.5933  -11.4636 C   0  0  0  0  0  0  0  0  0  0  0  0
   47.2114  -16.1196   -9.2481 C   0  0  0  0  0  0  0  0  0  0  0  0
   45.4559  -17.6017  -10.2083 C   0  0  0  0  0  0  0  0  0  0  0  0
   48.6173  -16.2273  -12.0428 C   0  0  0  0  0  0  0  0  0  0  0  0
   49.1515  -16.5122  -10.8439 C   0  0  0  0  0  0  0  0  0  0  0  0
   43.9761  -20.1114  -10.1451 N   0  0  0  0  0  0  0  0  0  0  0  0
   48.5959  -16.1170   -9.5259 C   0  0  0  0  0  0  0  0  0  0  0  0
   47.3682  -15.4624  -12.2811 C   0  0  0  0  0  0  0  0  0  0  0  0
   45.4565  -18.4655   -8.9599 C   0  0  0  0  0  0  0  0  0  0  0  0
   44.4243  -17.9151  -11.2769 C   0  0  0  0  0  0  0  0  0  0  0  0
   45.1416  -19.9375   -9.2606 C   0  0  0  0  0  0  0  0  0  0  0  0
   44.1744  -19.4219  -11.4319 C   0  0  0  0  0  0  0  0  0  0  0  0
   45.0735  -14.8378  -11.7472 C   0  0  0  0  0  0  0  0  0  0  0  0
   46.7536  -15.7335   -7.9767 C   0  0  0  0  0  0  0  0  0  0  0  0
   42.7041  -19.7553   -9.4938 C   0  0  0  0  0  0  0  0  0  0  0  0
   49.4972  -15.7977   -8.4961 C   0  0  0  0  0  0  0  0  0  0  0  0
   47.3068  -14.6301  -13.4116 C   0  0  0  0  0  0  0  0  0  0  0  0
   47.6620  -15.3961   -6.9725 C   0  0  0  0  0  0  0  0  0  0  0  0
   45.0381  -13.9974  -12.8606 C   0  0  0  0  0  0  0  0  0  0  0  0
   49.0323  -15.4354   -7.2296 C   0  0  0  0  0  0  0  0  0  0  0  0
   46.1507  -13.8994  -13.6961 C   0  0  0  0  0  0  0  0  0  0  0  0
   49.2025  -16.4951  -12.9150 H   0  0  0  0  0  0  0  0  0  0  0  0
   50.1258  -16.9873  -10.8432 H   0  0  0  0  0  0  0  0  0  0  0  0
   46.4488  -18.4519   -8.4611 H   0  0  0  0  0  0  0  0  0  0  0  0
   44.7150  -18.0598   -8.2400 H   0  0  0  0  0  0  0  0  0  0  0  0
   43.4744  -17.3986  -11.0243 H   0  0  0  0  0  0  0  0  0  0  0  0
   44.7507  -17.5467  -12.2725 H   0  0  0  0  0  0  0  0  0  0  0  0
   46.0307  -20.4056   -9.7387 H   0  0  0  0  0  0  0  0  0  0  0  0
   44.9784  -20.4819   -8.3046 H   0  0  0  0  0  0  0  0  0  0  0  0
   43.2922  -19.5829  -12.0898 H   0  0  0  0  0  0  0  0  0  0  0  0
   45.0428  -19.8789  -11.9564 H   0  0  0  0  0  0  0  0  0  0  0  0
   44.2024  -14.9051  -11.1069 H   0  0  0  0  0  0  0  0  0  0  0  0
   45.6922  -15.6994   -7.7637 H   0  0  0  0  0  0  0  0  0  0  0  0
   42.6635  -18.6805   -9.2203 H   0  0  0  0  0  0  0  0  0  0  0  0
   42.5658  -20.3630   -8.5744 H   0  0  0  0  0  0  0  0  0  0  0  0
   41.8543  -19.9835  -10.1718 H   0  0  0  0  0  0  0  0  0  0  0  0
   50.5653  -15.8164   -8.6772 H   0  0  0  0  0  0  0  0  0  0  0  0
   48.1623  -14.5355  -14.0696 H   0  0  0  0  0  0  0  0  0  0  0  0
   47.3033  -15.1076   -5.9930 H   0  0  0  0  0  0  0  0  0  0  0  0
   44.1459  -13.4245  -13.0781 H   0  0  0  0  0  0  0  0  0  0  0  0
   49.7361  -15.1808   -6.4477 H   0  0  0  0  0  0  0  0  0  0  0  0
   46.1194  -13.2530  -14.5636 H   0  0  0  0  0  0  0  0  0  0  0  0
  2  1  1  0
  3  1  1  0
  4  1  2  3
  5  9  1  0
  6  8  1  0
  7 13  1  0
  8  3  2  0
  9  2  2  0
 10  4  1  0
 11  4  1  0
 12 10  1  0
 13 11  1  0
 14  2  1  0
 15  3  1  0
 16  7  1  0
 17  8  1  0
 18  9  1  0
 19 15  2  0
 20 14  2  0
 21 19  1  0
 22 20  1  0
  7 12  1  0
  6  5  2  0
 21 17  2  0
 22 18  2  0
  5 23  1  0
  6 24  1  0
 10 25  1  0
 10 26  1  0
 11 27  1  0
 11 28  1  0
 12 29  1  0
 12 30  1  0
 13 31  1  0
 13 32  1  0
 14 33  1  0
 15 34  1  0
 16 35  1  0
 16 36  1  0
 16 37  1  0
 17 38  1  0
 18 39  1  0
 19 40  1  0
 20 41  1  0
 21 42  1  0
 22 43  1  0
M  END
> <Uni-Dock RESULT> 
ENERGY=   -4.460  LOWER_BOUND=    4.292  UPPER_BOUND=    6.141
INTER + INTRA:          -4.460
INTER:                  -4.460
INTRA:                   0.000
UNBOUND:                 0.000

$$$$

     RDKit          3D

 43 46  0  0  0  0  0  0  0  0999 V2000
   49.9736  -18.1865   -7.4265 C   0  0  0  0  0  0  0  0  0  0  0  0
   50.0082  -17.7437   -8.8322 C   0  0  0  0  0  0  0  0  0  0  0  0
   48.6248  -18.4725   -6.9047 C   0  0  0  0  0  0  0  0  0  0  0  0
   51.0936  -18.2681   -6.6535 C   0  0  0  0  0  0  0  0  0  0  0  0
   48.6811  -15.6517   -8.2606 C   0  0  0  0  0  0  0  0  0  0  0  0
   47.9325  -16.0461   -7.2176 C   0  0  0  0  0  0  0  0  0  0  0  0
   53.4470  -18.1940   -4.9364 N   0  0  0  0  0  0  0  0  0  0  0  0
   47.6541  -17.4500   -6.8256 C   0  0  0  0  0  0  0  0  0  0  0  0
   49.3745  -16.5437   -9.2227 C   0  0  0  0  0  0  0  0  0  0  0  0
   51.0240  -18.7849   -5.2278 C   0  0  0  0  0  0  0  0  0  0  0  0
   52.4706  -18.0226   -7.2435 C   0  0  0  0  0  0  0  0  0  0  0  0
   52.1063  -18.1757   -4.3257 C   0  0  0  0  0  0  0  0  0  0  0  0
   53.4620  -17.4612   -6.2144 C   0  0  0  0  0  0  0  0  0  0  0  0
   50.6473  -18.5416   -9.7967 C   0  0  0  0  0  0  0  0  0  0  0  0
   48.2929  -19.7818   -6.5164 C   0  0  0  0  0  0  0  0  0  0  0  0
   54.0080  -19.5512   -5.0470 C   0  0  0  0  0  0  0  0  0  0  0  0
   46.3910  -17.7492   -6.2871 C   0  0  0  0  0  0  0  0  0  0  0  0
   49.4605  -16.1323  -10.5636 C   0  0  0  0  0  0  0  0  0  0  0  0
   47.0256  -20.0663   -6.0062 C   0  0  0  0  0  0  0  0  0  0  0  0
   50.7024  -18.1295  -11.1288 C   0  0  0  0  0  0  0  0  0  0  0  0
   46.0783  -19.0498   -5.8847 C   0  0  0  0  0  0  0  0  0  0  0  0
   50.1163  -16.9227  -11.5104 C   0  0  0  0  0  0  0  0  0  0  0  0
   48.6988  -14.5895   -8.4759 H   0  0  0  0  0  0  0  0  0  0  0  0
   47.4051  -15.2710   -6.6734 H   0  0  0  0  0  0  0  0  0  0  0  0
   50.0481  -18.5396   -4.7576 H   0  0  0  0  0  0  0  0  0  0  0  0
   51.1205  -19.8910   -5.2398 H   0  0  0  0  0  0  0  0  0  0  0  0
   52.8591  -18.9749   -7.6619 H   0  0  0  0  0  0  0  0  0  0  0  0
   52.4279  -17.2856   -8.0733 H   0  0  0  0  0  0  0  0  0  0  0  0
   51.8302  -17.1233   -4.0923 H   0  0  0  0  0  0  0  0  0  0  0  0
   52.1233  -18.7168   -3.3541 H   0  0  0  0  0  0  0  0  0  0  0  0
   54.4866  -17.4713   -6.6470 H   0  0  0  0  0  0  0  0  0  0  0  0
   53.2148  -16.3937   -6.0216 H   0  0  0  0  0  0  0  0  0  0  0  0
   51.1070  -19.4806   -9.5136 H   0  0  0  0  0  0  0  0  0  0  0  0
   49.0194  -20.5802   -6.6050 H   0  0  0  0  0  0  0  0  0  0  0  0
   53.4074  -20.1958   -5.7218 H   0  0  0  0  0  0  0  0  0  0  0  0
   54.0509  -20.0266   -4.0440 H   0  0  0  0  0  0  0  0  0  0  0  0
   55.0481  -19.5010   -5.4338 H   0  0  0  0  0  0  0  0  0  0  0  0
   45.6392  -16.9750   -6.1901 H   0  0  0  0  0  0  0  0  0  0  0  0
   49.0065  -15.2012  -10.8813 H   0  0  0  0  0  0  0  0  0  0  0  0
   46.7790  -21.0751   -5.7012 H   0  0  0  0  0  0  0  0  0  0  0  0
   51.2033  -18.7445  -11.8653 H   0  0  0  0  0  0  0  0  0  0  0  0
   45.0982  -19.2702   -5.4818 H   0  0  0  0  0  0  0  0  0  0  0  0
   50.1662  -16.6006  -12.5425 H   0  0  0  0  0  0  0  0  0  0  0  0
  2  1  1  0
  3  1  1  0
  4  1  2  3
  5  9  1  0
  6  8  1  0
  7 13  1  0
  8  3  2  0
  9  2  2  0
 10  4  1  0
 11  4  1  0
 12 10  1  0
 13 11  1  0
 14  2  1  0
 15  3  1  0
 16  7  1  0
 17  8  1  0
 18  9  1  0
 19 15  2  0
 20 14  2  0
 21 19  1  0
 22 20  1  0
  7 12  1  0
  6  5  2  0
 21 17  2  0
 22 18  2  0
  5 23  1  0
  6 24  1  0
 10 25  1  0
 10 26  1  0
 11 27  1  0
 11 28  1  0
 12 29  1  0
 12 30  1  0
 13 31  1  0
 13 32  1  0
 14 33  1  0
 15 34  1  0
 16 35  1  0
 16 36  1  0
 16 37  1  0
 17 38  1  0
 18 39  1  0
 19 40  1  0
 20 41  1  0
 21 42  1  0
 22 43  1  0
M  END
> <Uni-Dock RESULT> 
ENERGY=   -4.167  LOWER_BOUND=    2.178  UPPER_BOUND=    4.921
INTER + INTRA:          -4.167
INTER:                  -4.167
INTRA:                   0.000
UNBOUND:                 0.000

$$$$

     RDKit          3D

 43 46  0  0  0  0  0  0  0  0999 V2000
   44.9763  -14.2828  -12.5496 C   0  0  0  0  0  0  0  0  0  0  0  0
   45.2769  -15.4196  -11.6604 C   0  0  0  0  0  0  0  0  0  0  0  0
   43.6200  -13.7253  -12.3981 C   0  0  0  0  0  0  0  0  0  0  0  0
   45.8612  -13.8220  -13.4787 C   0  0  0  0  0  0  0  0  0  0  0  0
   43.4748  -16.8301  -12.7683 C   0  0  0  0  0  0  0  0  0  0  0  0
   42.5782  -15.9133  -13.1674 C   0  0  0  0  0  0  0  0  0  0  0  0
   47.6504  -13.0093  -15.6307 N   0  0  0  0  0  0  0  0  0  0  0  0
   42.4837  -14.5156  -12.6780 C   0  0  0  0  0  0  0  0  0  0  0  0
   44.5442  -16.6226  -11.7606 C   0  0  0  0  0  0  0  0  0  0  0  0
   45.5365  -12.6113  -14.3351 C   0  0  0  0  0  0  0  0  0  0  0  0
   47.2691  -14.3834  -13.5637 C   0  0  0  0  0  0  0  0  0  0  0  0
   46.2214  -12.6588  -15.7081 C   0  0  0  0  0  0  0  0  0  0  0  0
   47.8450  -14.3194  -14.9854 C   0  0  0  0  0  0  0  0  0  0  0  0
   46.2774  -15.2910  -10.6819 C   0  0  0  0  0  0  0  0  0  0  0  0
   43.4576  -12.4075  -11.9373 C   0  0  0  0  0  0  0  0  0  0  0  0
   48.4696  -11.9451  -15.0261 C   0  0  0  0  0  0  0  0  0  0  0  0
   41.2072  -13.9400  -12.5601 C   0  0  0  0  0  0  0  0  0  0  0  0
   44.8833  -17.6992  -10.9236 C   0  0  0  0  0  0  0  0  0  0  0  0
   42.1813  -11.8596  -11.8028 C   0  0  0  0  0  0  0  0  0  0  0  0
   46.5849  -16.3625   -9.8424 C   0  0  0  0  0  0  0  0  0  0  0  0
   41.0578  -12.6223  -12.1210 C   0  0  0  0  0  0  0  0  0  0  0  0
   45.8939  -17.5676   -9.9681 C   0  0  0  0  0  0  0  0  0  0  0  0
   43.3428  -17.8386  -13.1431 H   0  0  0  0  0  0  0  0  0  0  0  0
   41.7934  -16.2542  -13.8329 H   0  0  0  0  0  0  0  0  0  0  0  0
   44.4457  -12.5368  -14.5304 H   0  0  0  0  0  0  0  0  0  0  0  0
   45.8423  -11.6925  -13.7918 H   0  0  0  0  0  0  0  0  0  0  0  0
   47.9244  -13.8219  -12.8650 H   0  0  0  0  0  0  0  0  0  0  0  0
   47.2958  -15.4518  -13.2616 H   0  0  0  0  0  0  0  0  0  0  0  0
   45.7000  -13.4077  -16.3449 H   0  0  0  0  0  0  0  0  0  0  0  0
   46.0973  -11.6770  -16.2156 H   0  0  0  0  0  0  0  0  0  0  0  0
   48.9277  -14.5719  -14.9556 H   0  0  0  0  0  0  0  0  0  0  0  0
   47.3583  -15.1038  -15.6067 H   0  0  0  0  0  0  0  0  0  0  0  0
   46.8220  -14.3609  -10.5741 H   0  0  0  0  0  0  0  0  0  0  0  0
   44.3218  -11.8043  -11.6873 H   0  0  0  0  0  0  0  0  0  0  0  0
   48.1917  -11.7564  -13.9684 H   0  0  0  0  0  0  0  0  0  0  0  0
   48.3497  -11.0020  -15.6005 H   0  0  0  0  0  0  0  0  0  0  0  0
   49.5441  -12.2237  -15.0686 H   0  0  0  0  0  0  0  0  0  0  0  0
   40.3216  -14.5177  -12.7965 H   0  0  0  0  0  0  0  0  0  0  0  0
   44.3544  -18.6416  -11.0013 H   0  0  0  0  0  0  0  0  0  0  0  0
   42.0634  -10.8414  -11.4553 H   0  0  0  0  0  0  0  0  0  0  0  0
   47.3622  -16.2598   -9.0963 H   0  0  0  0  0  0  0  0  0  0  0  0
   40.0686  -12.1938  -12.0236 H   0  0  0  0  0  0  0  0  0  0  0  0
   46.1384  -18.4004   -9.3215 H   0  0  0  0  0  0  0  0  0  0  0  0
  2  1  1  0
  3  1  1  0
  4  1  2  3
  5  9  1  0
  6  8  1  0
  7 13  1  0
  8  3  2  0
  9  2  2  0
 10  4  1  0
 11  4  1  0
 12 10  1  0
 13 11  1  0
 14  2  1  0
 15  3  1  0
 16  7  1  0
 17  8  1  0
 18  9  1  0
 19 15  2  0
 20 14  2  0
 21 19  1  0
 22 20  1  0
  7 12  1  0
  6  5  2  0
 21 17  2  0
 22 18  2  0
  5 23  1  0
  6 24  1  0
 10 25  1  0
 10 26  1  0
 11 27  1  0
 11 28  1  0
 12 29  1  0
 12 30  1  0
 13 31  1  0
 13 32  1  0
 14 33  1  0
 15 34  1  0
 16 35  1  0
 16 36  1  0
 16 37  1  0
 17 38  1  0
 18 39  1  0
 19 40  1  0
 20 41  1  0
 21 42  1  0
 22 43  1  0
M  END
> <Uni-Dock RESULT> 
ENERGY=   -4.068  LOWER_BOUND=    6.696  UPPER_BOUND=    8.957
INTER + INTRA:          -4.068
INTER:                  -4.068
INTRA:                   0.000
UNBOUND:                 0.000

$$$$
