
     RDKit          3D

 43 46  0  0  0  0  0  0  0  0999 V2000
   50.2358  -17.2540   -7.5772 C   0  0  0  0  0  0  0  0  0  0  0  0
   48.8134  -17.1689   -7.1997 C   0  0  0  0  0  0  0  0  0  0  0  0
   51.1655  -16.6246   -6.6220 C   0  0  0  0  0  0  0  0  0  0  0  0
   50.6535  -17.8201   -8.7443 C   0  0  0  0  0  0  0  0  0  0  0  0
   48.8675  -14.6322   -7.3619 C   0  0  0  0  0  0  0  0  0  0  0  0
   50.1400  -14.3377   -7.0496 C   0  0  0  0  0  0  0  0  0  0  0  0
   51.5105  -18.8011  -11.3088 N   0  0  0  0  0  0  0  0  0  0  0  0
   51.1001  -15.2378   -6.3640 C   0  0  0  0  0  0  0  0  0  0  0  0
   48.1756  -15.9147   -7.0818 C   0  0  0  0  0  0  0  0  0  0  0  0
   49.6776  -18.5137   -9.6790 C   0  0  0  0  0  0  0  0  0  0  0  0
   52.1303  -17.9458   -9.0766 C   0  0  0  0  0  0  0  0  0  0  0  0
   50.1050  -18.3911  -11.1434 C   0  0  0  0  0  0  0  0  0  0  0  0
   52.3852  -17.8632  -10.5833 C   0  0  0  0  0  0  0  0  0  0  0  0
   48.0975  -18.3454   -6.9193 C   0  0  0  0  0  0  0  0  0  0  0  0
   52.1004  -17.4191   -5.9363 C   0  0  0  0  0  0  0  0  0  0  0  0
   51.8633  -18.8090  -12.7371 C   0  0  0  0  0  0  0  0  0  0  0  0
   52.0268  -14.6651   -5.4763 C   0  0  0  0  0  0  0  0  0  0  0  0
   46.8091  -15.8726   -6.7562 C   0  0  0  0  0  0  0  0  0  0  0  0
   52.9976  -16.8371   -5.0398 C   0  0  0  0  0  0  0  0  0  0  0  0
   46.7468  -18.2838   -6.5738 C   0  0  0  0  0  0  0  0  0  0  0  0
   52.9659  -15.4608   -4.8158 C   0  0  0  0  0  0  0  0  0  0  0  0
   46.1016  -17.0493   -6.4995 C   0  0  0  0  0  0  0  0  0  0  0  0
   48.2641  -13.8271   -7.7653 H   0  0  0  0  0  0  0  0  0  0  0  0
   50.4633  -13.3181   -7.2255 H   0  0  0  0  0  0  0  0  0  0  0  0
   48.6571  -18.0826   -9.6039 H   0  0  0  0  0  0  0  0  0  0  0  0
   49.6236  -19.5883   -9.4012 H   0  0  0  0  0  0  0  0  0  0  0  0
   52.4976  -18.9229   -8.6951 H   0  0  0  0  0  0  0  0  0  0  0  0
   52.7295  -17.1396   -8.6037 H   0  0  0  0  0  0  0  0  0  0  0  0
   49.9505  -17.3430  -11.4906 H   0  0  0  0  0  0  0  0  0  0  0  0
   49.4422  -19.0498  -11.7479 H   0  0  0  0  0  0  0  0  0  0  0  0
   53.4527  -18.1213  -10.7626 H   0  0  0  0  0  0  0  0  0  0  0  0
   52.2256  -16.8162  -10.9318 H   0  0  0  0  0  0  0  0  0  0  0  0
   48.5863  -19.3104   -6.9746 H   0  0  0  0  0  0  0  0  0  0  0  0
   52.1368  -18.4888   -6.1026 H   0  0  0  0  0  0  0  0  0  0  0  0
   52.9159  -19.1400  -12.8692 H   0  0  0  0  0  0  0  0  0  0  0  0
   51.2227  -19.5330  -13.2852 H   0  0  0  0  0  0  0  0  0  0  0  0
   51.7405  -17.7999  -13.1909 H   0  0  0  0  0  0  0  0  0  0  0  0
   52.0146  -13.5990   -5.2840 H   0  0  0  0  0  0  0  0  0  0  0  0
   46.2911  -14.9234   -6.6877 H   0  0  0  0  0  0  0  0  0  0  0  0
   53.7210  -17.4533   -4.5214 H   0  0  0  0  0  0  0  0  0  0  0  0
   46.1990  -19.1939   -6.3670 H   0  0  0  0  0  0  0  0  0  0  0  0
   53.6674  -15.0096   -4.1261 H   0  0  0  0  0  0  0  0  0  0  0  0
   45.0522  -17.0032   -6.2387 H   0  0  0  0  0  0  0  0  0  0  0  0
  2  1  1  0
  3  1  1  0
  4  1  2  3
  5  9  1  0
  6  8  1  0
  7 13  1  0
  8  3  2  0
  9  2  2  0
 10  4  1  0
 11  4  1  0
 12 10  1  0
 13 11  1  0
 14  2  1  0
 15  3  1  0
 16  7  1  0
 17  8  1  0
 18  9  1  0
 19 15  2  0
 20 14  2  0
 21 19  1  0
 22 20  1  0
  7 12  1  0
  6  5  2  0
 21 17  2  0
 22 18  2  0
  5 23  1  0
  6 24  1  0
 10 25  1  0
 10 26  1  0
 11 27  1  0
 11 28  1  0
 12 29  1  0
 12 30  1  0
 13 31  1  0
 13 32  1  0
 14 33  1  0
 15 34  1  0
 16 35  1  0
 16 36  1  0
 16 37  1  0
 17 38  1  0
 18 39  1  0
 19 40  1  0
 20 41  1  0
 21 42  1  0
 22 43  1  0
M  END
> <Uni-Dock RESULT> 
ENERGY=   -6.312  LOWER_BOUND=    0.000  UPPER_BOUND=    0.000
INTER + INTRA:          -6.312
INTER:                  -6.312
INTRA:                   0.000
UNBOUND:                 0.000

$$$$

     RDKit          3D

 43 46  0  0  0  0  0  0  0  0999 V2000
   50.4028  -17.4926   -7.3430 C   0  0  0  0  0  0  0  0  0  0  0  0
   51.0837  -17.9305   -6.1111 C   0  0  0  0  0  0  0  0  0  0  0  0
   48.9949  -17.0957   -7.1609 C   0  0  0  0  0  0  0  0  0  0  0  0
   51.0102  -17.5069   -8.5628 C   0  0  0  0  0  0  0  0  0  0  0  0
   49.4985  -19.9041   -5.8736 C   0  0  0  0  0  0  0  0  0  0  0  0
   48.3685  -19.4526   -6.4418 C   0  0  0  0  0  0  0  0  0  0  0  0
   52.2151  -17.7608  -11.1622 N   0  0  0  0  0  0  0  0  0  0  0  0
   48.0369  -18.0320   -6.7141 C   0  0  0  0  0  0  0  0  0  0  0  0
   50.6340  -19.0697   -5.4083 C   0  0  0  0  0  0  0  0  0  0  0  0
   52.4795  -17.8632   -8.7091 C   0  0  0  0  0  0  0  0  0  0  0  0
   50.3011  -16.9928   -9.8038 C   0  0  0  0  0  0  0  0  0  0  0  0
   52.7702  -18.5473  -10.0468 C   0  0  0  0  0  0  0  0  0  0  0  0
   50.7451  -17.7381  -11.0645 C   0  0  0  0  0  0  0  0  0  0  0  0
   52.1664  -17.1854   -5.6133 C   0  0  0  0  0  0  0  0  0  0  0  0
   48.6117  -15.7648   -7.4002 C   0  0  0  0  0  0  0  0  0  0  0  0
   52.6207  -18.3577  -12.4443 C   0  0  0  0  0  0  0  0  0  0  0  0
   46.6966  -17.6289   -6.5884 C   0  0  0  0  0  0  0  0  0  0  0  0
   51.3296  -19.4799   -4.2582 C   0  0  0  0  0  0  0  0  0  0  0  0
   47.2803  -15.3759   -7.2471 C   0  0  0  0  0  0  0  0  0  0  0  0
   52.8309  -17.5937   -4.4560 C   0  0  0  0  0  0  0  0  0  0  0  0
   46.3226  -16.3085   -6.8490 C   0  0  0  0  0  0  0  0  0  0  0  0
   52.4175  -18.7436   -3.7834 C   0  0  0  0  0  0  0  0  0  0  0  0
   49.5418  -20.9629   -5.6453 H   0  0  0  0  0  0  0  0  0  0  0  0
   47.5889  -20.1826   -6.6272 H   0  0  0  0  0  0  0  0  0  0  0  0
   52.8168  -18.5582   -7.9116 H   0  0  0  0  0  0  0  0  0  0  0  0
   53.0793  -16.9306   -8.6357 H   0  0  0  0  0  0  0  0  0  0  0  0
   50.5268  -15.9107   -9.9184 H   0  0  0  0  0  0  0  0  0  0  0  0
   49.1999  -17.1132   -9.7292 H   0  0  0  0  0  0  0  0  0  0  0  0
   52.3495  -19.5798  -10.0370 H   0  0  0  0  0  0  0  0  0  0  0  0
   53.8748  -18.6322  -10.1529 H   0  0  0  0  0  0  0  0  0  0  0  0
   50.3128  -17.2089  -11.9429 H   0  0  0  0  0  0  0  0  0  0  0  0
   50.3289  -18.7725  -11.0525 H   0  0  0  0  0  0  0  0  0  0  0  0
   52.4982  -16.2913   -6.1268 H   0  0  0  0  0  0  0  0  0  0  0  0
   49.3452  -15.0311   -7.7116 H   0  0  0  0  0  0  0  0  0  0  0  0
   52.2239  -17.7550  -13.2894 H   0  0  0  0  0  0  0  0  0  0  0  0
   53.7284  -18.3552  -12.5339 H   0  0  0  0  0  0  0  0  0  0  0  0
   52.2515  -19.4037  -12.5397 H   0  0  0  0  0  0  0  0  0  0  0  0
   45.9388  -18.3366   -6.2744 H   0  0  0  0  0  0  0  0  0  0  0  0
   51.0206  -20.3670   -3.7182 H   0  0  0  0  0  0  0  0  0  0  0  0
   46.9900  -14.3514   -7.4413 H   0  0  0  0  0  0  0  0  0  0  0  0
   53.6692  -17.0202   -4.0824 H   0  0  0  0  0  0  0  0  0  0  0  0
   45.2889  -16.0074   -6.7381 H   0  0  0  0  0  0  0  0  0  0  0  0
   52.9383  -19.0635   -2.8901 H   0  0  0  0  0  0  0  0  0  0  0  0
  2  1  1  0
  3  1  1  0
  4  1  2  3
  5  9  1  0
  6  8  1  0
  7 13  1  0
  8  3  2  0
  9  2  2  0
 10  4  1  0
 11  4  1  0
 12 10  1  0
 13 11  1  0
 14  2  1  0
 15  3  1  0
 16  7  1  0
 17  8  1  0
 18  9  1  0
 19 15  2  0
 20 14  2  0
 21 19  1  0
 22 20  1  0
  7 12  1  0
  6  5  2  0
 21 17  2  0
 22 18  2  0
  5 23  1  0
  6 24  1  0
 10 25  1  0
 10 26  1  0
 11 27  1  0
 11 28  1  0
 12 29  1  0
 12 30  1  0
 13 31  1  0
 13 32  1  0
 14 33  1  0
 15 34  1  0
 16 35  1  0
 16 36  1  0
 16 37  1  0
 17 38  1  0
 18 39  1  0
 19 40  1  0
 20 41  1  0
 21 42  1  0
 22 43  1  0
M  END
> <Uni-Dock RESULT> 
ENERGY=   -5.238  LOWER_BOUND=    1.291  UPPER_BOUND=    4.431
INTER + INTRA:          -5.238
INTER:                  -5.238
INTRA:                   0.000
UNBOUND:                 0.000

$$$$

     RDKit          3D

 43 46  0  0  0  0  0  0  0  0999 V2000
   48.0539  -17.2198   -8.0037 C   0  0  0  0  0  0  0  0  0  0  0  0
   49.0300  -16.2618   -7.4539 C   0  0  0  0  0  0  0  0  0  0  0  0
   47.5250  -18.1893   -7.0274 C   0  0  0  0  0  0  0  0  0  0  0  0
   47.7101  -17.2430   -9.3222 C   0  0  0  0  0  0  0  0  0  0  0  0
   50.6528  -18.1435   -6.9154 C   0  0  0  0  0  0  0  0  0  0  0  0
   49.8387  -19.1864   -6.6849 C   0  0  0  0  0  0  0  0  0  0  0  0
   47.1661  -17.4417  -12.1396 N   0  0  0  0  0  0  0  0  0  0  0  0
   48.3861  -19.1101   -6.3912 C   0  0  0  0  0  0  0  0  0  0  0  0
   50.2572  -16.7133   -6.9209 C   0  0  0  0  0  0  0  0  0  0  0  0
   48.2257  -16.1931  -10.2912 C   0  0  0  0  0  0  0  0  0  0  0  0
   46.6564  -18.2033   -9.8464 C   0  0  0  0  0  0  0  0  0  0  0  0
   48.3951  -16.7554  -11.7045 C   0  0  0  0  0  0  0  0  0  0  0  0
   46.9361  -18.6241  -11.2910 C   0  0  0  0  0  0  0  0  0  0  0  0
   48.7192  -14.8914   -7.4271 C   0  0  0  0  0  0  0  0  0  0  0  0
   46.1579  -18.1718   -6.7016 C   0  0  0  0  0  0  0  0  0  0  0  0
   47.2961  -17.8545  -13.5457 C   0  0  0  0  0  0  0  0  0  0  0  0
   47.8416  -20.0452   -5.4946 C   0  0  0  0  0  0  0  0  0  0  0  0
   51.1799  -15.7691   -6.4390 C   0  0  0  0  0  0  0  0  0  0  0  0
   45.6382  -19.0923   -5.7906 C   0  0  0  0  0  0  0  0  0  0  0  0
   49.6375  -13.9696   -6.9226 C   0  0  0  0  0  0  0  0  0  0  0  0
   46.4776  -20.0327   -5.1936 C   0  0  0  0  0  0  0  0  0  0  0  0
   50.8693  -14.4072   -6.4359 C   0  0  0  0  0  0  0  0  0  0  0  0
   51.7109  -18.3603   -7.0077 H   0  0  0  0  0  0  0  0  0  0  0  0
   50.3039  -20.1625   -6.6093 H   0  0  0  0  0  0  0  0  0  0  0  0
   49.2153  -15.7964   -9.9814 H   0  0  0  0  0  0  0  0  0  0  0  0
   47.5037  -15.3488  -10.3162 H   0  0  0  0  0  0  0  0  0  0  0  0
   45.6648  -17.7042   -9.7949 H   0  0  0  0  0  0  0  0  0  0  0  0
   46.6099  -19.1341   -9.2429 H   0  0  0  0  0  0  0  0  0  0  0  0
   49.2694  -17.4468  -11.7287 H   0  0  0  0  0  0  0  0  0  0  0  0
   48.6174  -15.9036  -12.3854 H   0  0  0  0  0  0  0  0  0  0  0  0
   46.0513  -19.1904  -11.6580 H   0  0  0  0  0  0  0  0  0  0  0  0
   47.8138  -19.3113  -11.3161 H   0  0  0  0  0  0  0  0  0  0  0  0
   47.7668  -14.5383   -7.8032 H   0  0  0  0  0  0  0  0  0  0  0  0
   45.4949  -17.4479   -7.1595 H   0  0  0  0  0  0  0  0  0  0  0  0
   46.3627  -18.3524  -13.8861 H   0  0  0  0  0  0  0  0  0  0  0  0
   47.4454  -16.9640  -14.1935 H   0  0  0  0  0  0  0  0  0  0  0  0
   48.1517  -18.5527  -13.6861 H   0  0  0  0  0  0  0  0  0  0  0  0
   48.4778  -20.7798   -5.0157 H   0  0  0  0  0  0  0  0  0  0  0  0
   52.1397  -16.0893   -6.0514 H   0  0  0  0  0  0  0  0  0  0  0  0
   44.5829  -19.0792   -5.5505 H   0  0  0  0  0  0  0  0  0  0  0  0
   49.3955  -12.9148   -6.9124 H   0  0  0  0  0  0  0  0  0  0  0  0
   46.0719  -20.7511   -4.4931 H   0  0  0  0  0  0  0  0  0  0  0  0
   51.5837  -13.6907   -6.0517 H   0  0  0  0  0  0  0  0  0  0  0  0
  2  1  1  0
  3  1  1  0
  4  1  2  3
  5  9  1  0
  6  8  1  0
  7 13  1  0
  8  3  2  0
  9  2  2  0
 10  4  1  0
 11  4  1  0
 12 10  1  0
 13 11  1  0
 14  2  1  0
 15  3  1  0
 16  7  1  0
 17  8  1  0
 18  9  1  0
 19 15  2  0
 20 14  2  0
 21 19  1  0
 22 20  1  0
  7 12  1  0
  6  5  2  0
 21 17  2  0
 22 18  2  0
  5 23  1  0
  6 24  1  0
 10 25  1  0
 10 26  1  0
 11 27  1  0
 11 28  1  0
 12 29  1  0
 12 30  1  0
 13 31  1  0
 13 32  1  0
 14 33  1  0
 15 34  1  0
 16 35  1  0
 16 36  1  0
 16 37  1  0
 17 38  1  0
 18 39  1  0
 19 40  1  0
 20 41  1  0
 21 42  1  0
 22 43  1  0
M  END
> <Uni-Dock RESULT> 
ENERGY=   -5.216  LOWER_BOUND=    2.200  UPPER_BOUND=    4.821
INTER + INTRA:          -5.216
INTER:                  -5.216
INTRA:                   0.000
UNBOUND:                 0.000

$$$$

     RDKit          3D

 43 46  0  0  0  0  0  0  0  0999 V2000
   46.8833  -16.1052  -10.5770 C   0  0  0  0  0  0  0  0  0  0  0  0
   46.6803  -16.4071   -9.1485 C   0  0  0  0  0  0  0  0  0  0  0  0
   45.6440  -15.8645  -11.3380 C   0  0  0  0  0  0  0  0  0  0  0  0
   48.1152  -16.1040  -11.1597 C   0  0  0  0  0  0  0  0  0  0  0  0
   45.4163  -18.5367   -9.7240 C   0  0  0  0  0  0  0  0  0  0  0  0
   44.8558  -18.2433  -10.9086 C   0  0  0  0  0  0  0  0  0  0  0  0
   50.6843  -16.3335  -12.4326 N   0  0  0  0  0  0  0  0  0  0  0  0
   44.6762  -16.8836  -11.4752 C   0  0  0  0  0  0  0  0  0  0  0  0
   45.9643  -17.5579   -8.7525 C   0  0  0  0  0  0  0  0  0  0  0  0
   49.3777  -16.2958  -10.3374 C   0  0  0  0  0  0  0  0  0  0  0  0
   48.2970  -15.7301  -12.6207 C   0  0  0  0  0  0  0  0  0  0  0  0
   50.4768  -17.0009  -11.1356 C   0  0  0  0  0  0  0  0  0  0  0  0
   49.4720  -16.4750  -13.2582 C   0  0  0  0  0  0  0  0  0  0  0  0
   47.1724  -15.5215   -8.1744 C   0  0  0  0  0  0  0  0  0  0  0  0
   45.4091  -14.5982  -11.9007 C   0  0  0  0  0  0  0  0  0  0  0  0
   51.8333  -16.9363  -13.1260 C   0  0  0  0  0  0  0  0  0  0  0  0
   43.5243  -16.6314  -12.2396 C   0  0  0  0  0  0  0  0  0  0  0  0
   45.8217  -17.8343   -7.3821 C   0  0  0  0  0  0  0  0  0  0  0  0
   44.2481  -14.3578  -12.6368 C   0  0  0  0  0  0  0  0  0  0  0  0
   47.0009  -15.7992   -6.8176 C   0  0  0  0  0  0  0  0  0  0  0  0
   43.3105  -15.3754  -12.8124 C   0  0  0  0  0  0  0  0  0  0  0  0
   46.3327  -16.9579   -6.4219 C   0  0  0  0  0  0  0  0  0  0  0  0
   45.3750  -19.5724   -9.4067 H   0  0  0  0  0  0  0  0  0  0  0  0
   44.4063  -19.0653  -11.4539 H   0  0  0  0  0  0  0  0  0  0  0  0
   49.1911  -16.9115   -9.4325 H   0  0  0  0  0  0  0  0  0  0  0  0
   49.7433  -15.2984  -10.0114 H   0  0  0  0  0  0  0  0  0  0  0  0
   48.4769  -14.6355  -12.6868 H   0  0  0  0  0  0  0  0  0  0  0  0
   47.3966  -15.9724  -13.2235 H   0  0  0  0  0  0  0  0  0  0  0  0
   50.2061  -18.0733  -11.2762 H   0  0  0  0  0  0  0  0  0  0  0  0
   51.4121  -16.9633  -10.5337 H   0  0  0  0  0  0  0  0  0  0  0  0
   49.6449  -16.0383  -14.2671 H   0  0  0  0  0  0  0  0  0  0  0  0
   49.2037  -17.5486  -13.3941 H   0  0  0  0  0  0  0  0  0  0  0  0
   47.6943  -14.6190   -8.4683 H   0  0  0  0  0  0  0  0  0  0  0  0
   46.1301  -13.7999  -11.7734 H   0  0  0  0  0  0  0  0  0  0  0  0
   52.0087  -16.4211  -14.0950 H   0  0  0  0  0  0  0  0  0  0  0  0
   52.7554  -16.8109  -12.5185 H   0  0  0  0  0  0  0  0  0  0  0  0
   51.6690  -18.0209  -13.3162 H   0  0  0  0  0  0  0  0  0  0  0  0
   42.7811  -17.4066  -12.3826 H   0  0  0  0  0  0  0  0  0  0  0  0
   45.3009  -18.7261   -7.0542 H   0  0  0  0  0  0  0  0  0  0  0  0
   44.0772  -13.3830  -13.0749 H   0  0  0  0  0  0  0  0  0  0  0  0
   47.3895  -15.1174   -6.0723 H   0  0  0  0  0  0  0  0  0  0  0  0
   42.4141  -15.1900  -13.3900 H   0  0  0  0  0  0  0  0  0  0  0  0
   46.2068  -17.1760   -5.3693 H   0  0  0  0  0  0  0  0  0  0  0  0
  2  1  1  0
  3  1  1  0
  4  1  2  3
  5  9  1  0
  6  8  1  0
  7 13  1  0
  8  3  2  0
  9  2  2  0
 10  4  1  0
 11  4  1  0
 12 10  1  0
 13 11  1  0
 14  2  1  0
 15  3  1  0
 16  7  1  0
 17  8  1  0
 18  9  1  0
 19 15  2  0
 20 14  2  0
 21 19  1  0
 22 20  1  0
  7 12  1  0
  6  5  2  0
 21 17  2  0
 22 18  2  0
  5 23  1  0
  6 24  1  0
 10 25  1  0
 10 26  1  0
 11 27  1  0
 11 28  1  0
 12 29  1  0
 12 30  1  0
 13 31  1  0
 13 32  1  0
 14 33  1  0
 15 34  1  0
 16 35  1  0
 16 36  1  0
 16 37  1  0
 17 38  1  0
 18 39  1  0
 19 40  1  0
 20 41  1  0
 21 42  1  0
 22 43  1  0
M  END
> <Uni-Dock RESULT> 
ENERGY=   -5.212  LOWER_BOUND=    3.840  UPPER_BOUND=    6.285
INTER + INTRA:          -5.212
INTER:                  -5.212
INTRA:                   0.000
UNBOUND:                 0.000

$$$$

     RDKit          3D

 43 46  0  0  0  0  0  0  0  0999 V2000
   46.8904  -16.1178  -10.5430 C   0  0  0  0  0  0  0  0  0  0  0  0
   46.6771  -16.4309   -9.1184 C   0  0  0  0  0  0  0  0  0  0  0  0
   45.6569  -15.8670  -11.3101 C   0  0  0  0  0  0  0  0  0  0  0  0
   48.1261  -16.1155  -11.1177 C   0  0  0  0  0  0  0  0  0  0  0  0
   45.4105  -18.5518   -9.7198 C   0  0  0  0  0  0  0  0  0  0  0  0
   44.8587  -18.2468  -10.9056 C   0  0  0  0  0  0  0  0  0  0  0  0
   50.7027  -16.3424  -12.3757 N   0  0  0  0  0  0  0  0  0  0  0  0
   44.6869  -16.8819  -11.4620 C   0  0  0  0  0  0  0  0  0  0  0  0
   45.9551  -17.5827   -8.7367 C   0  0  0  0  0  0  0  0  0  0  0  0
   49.3826  -16.3181  -10.2888 C   0  0  0  0  0  0  0  0  0  0  0  0
   48.3186  -15.7302  -12.5743 C   0  0  0  0  0  0  0  0  0  0  0  0
   50.4848  -17.0199  -11.0856 C   0  0  0  0  0  0  0  0  0  0  0  0
   49.4955  -16.4733  -13.2102 C   0  0  0  0  0  0  0  0  0  0  0  0
   47.1656  -15.5549   -8.1339 C   0  0  0  0  0  0  0  0  0  0  0  0
   45.4295  -14.5953  -11.8638 C   0  0  0  0  0  0  0  0  0  0  0  0
   51.8544  -16.9431  -13.0665 C   0  0  0  0  0  0  0  0  0  0  0  0
   43.5408  -16.6199  -12.2317 C   0  0  0  0  0  0  0  0  0  0  0  0
   45.8028  -17.8700   -7.3695 C   0  0  0  0  0  0  0  0  0  0  0  0
   44.2741  -14.3453  -12.6054 C   0  0  0  0  0  0  0  0  0  0  0  0
   46.9844  -15.8433   -6.7805 C   0  0  0  0  0  0  0  0  0  0  0  0
   43.3345  -15.3585  -12.7955 C   0  0  0  0  0  0  0  0  0  0  0  0
   46.3101  -17.0032   -6.3988 C   0  0  0  0  0  0  0  0  0  0  0  0
   45.3640  -19.5899   -9.4113 H   0  0  0  0  0  0  0  0  0  0  0  0
   44.4102  -19.0629  -11.4606 H   0  0  0  0  0  0  0  0  0  0  0  0
   49.1882  -16.9406   -9.3902 H   0  0  0  0  0  0  0  0  0  0  0  0
   49.7491  -15.3245   -9.9521 H   0  0  0  0  0  0  0  0  0  0  0  0
   48.5022  -14.6356  -12.6301 H   0  0  0  0  0  0  0  0  0  0  0  0
   47.4214  -15.9647  -13.1850 H   0  0  0  0  0  0  0  0  0  0  0  0
   50.2118  -18.0902  -11.2369 H   0  0  0  0  0  0  0  0  0  0  0  0
   51.4163  -16.9902  -10.4773 H   0  0  0  0  0  0  0  0  0  0  0  0
   49.6762  -16.0288  -14.2144 H   0  0  0  0  0  0  0  0  0  0  0  0
   49.2248  -17.5450  -13.3568 H   0  0  0  0  0  0  0  0  0  0  0  0
   47.6921  -14.6516   -8.4168 H   0  0  0  0  0  0  0  0  0  0  0  0
   46.1520  -13.8003  -11.7251 H   0  0  0  0  0  0  0  0  0  0  0  0
   52.0377  -16.4204  -14.0300 H   0  0  0  0  0  0  0  0  0  0  0  0
   52.7729  -16.8255  -12.4521 H   0  0  0  0  0  0  0  0  0  0  0  0
   51.6881  -18.0255  -13.2668 H   0  0  0  0  0  0  0  0  0  0  0  0
   42.7962  -17.3915  -12.3860 H   0  0  0  0  0  0  0  0  0  0  0  0
   45.2771  -18.7629   -7.0525 H   0  0  0  0  0  0  0  0  0  0  0  0
   44.1090  -13.3663  -13.0365 H   0  0  0  0  0  0  0  0  0  0  0  0
   47.3702  -15.1689   -6.0271 H   0  0  0  0  0  0  0  0  0  0  0  0
   42.4425  -15.1656  -13.3773 H   0  0  0  0  0  0  0  0  0  0  0  0
   46.1766  -17.2296   -5.3489 H   0  0  0  0  0  0  0  0  0  0  0  0
  2  1  1  0
  3  1  1  0
  4  1  2  3
  5  9  1  0
  6  8  1  0
  7 13  1  0
  8  3  2  0
  9  2  2  0
 10  4  1  0
 11  4  1  0
 12 10  1  0
 13 11  1  0
 14  2  1  0
 15  3  1  0
 16  7  1  0
 17  8  1  0
 18  9  1  0
 19 15  2  0
 20 14  2  0
 21 19  1  0
 22 20  1  0
  7 12  1  0
  6  5  2  0
 21 17  2  0
 22 18  2  0
  5 23  1  0
  6 24  1  0
 10 25  1  0
 10 26  1  0
 11 27  1  0
 11 28  1  0
 12 29  1  0
 12 30  1  0
 13 31  1  0
 13 32  1  0
 14 33  1  0
 15 34  1  0
 16 35  1  0
 16 36  1  0
 16 37  1  0
 17 38  1  0
 18 39  1  0
 19 40  1  0
 20 41  1  0
 21 42  1  0
 22 43  1  0
M  END
> <Uni-Dock RESULT> 
ENERGY=   -5.207  LOWER_BOUND=    3.819  UPPER_BOUND=    6.264
INTER + INTRA:          -5.207
INTER:                  -5.207
INTRA:                   0.000
UNBOUND:                 0.000

$$$$

     RDKit          3D

 43 46  0  0  0  0  0  0  0  0999 V2000
   46.3719  -16.1127  -10.7892 C   0  0  0  0  0  0  0  0  0  0  0  0
   46.6017  -15.1837  -11.9104 C   0  0  0  0  0  0  0  0  0  0  0  0
   47.4102  -16.0848   -9.7432 C   0  0  0  0  0  0  0  0  0  0  0  0
   45.3129  -16.9695  -10.7503 C   0  0  0  0  0  0  0  0  0  0  0  0
   48.7289  -16.4139  -12.5628 C   0  0  0  0  0  0  0  0  0  0  0  0
   49.1663  -16.9016  -11.3905 C   0  0  0  0  0  0  0  0  0  0  0  0
   43.2133  -18.9352  -10.7841 N   0  0  0  0  0  0  0  0  0  0  0  0
   48.7421  -16.4451  -10.0437 C   0  0  0  0  0  0  0  0  0  0  0  0
   47.7370  -15.3243  -12.7381 C   0  0  0  0  0  0  0  0  0  0  0  0
   44.2279  -16.9323  -11.8126 C   0  0  0  0  0  0  0  0  0  0  0  0
   45.0712  -17.8720   -9.5527 C   0  0  0  0  0  0  0  0  0  0  0  0
   43.6214  -18.3160  -12.0573 C   0  0  0  0  0  0  0  0  0  0  0  0
   44.4054  -19.1895   -9.9564 C   0  0  0  0  0  0  0  0  0  0  0  0
   45.7016  -14.1276  -12.1332 C   0  0  0  0  0  0  0  0  0  0  0  0
   47.0774  -15.6612   -8.4450 C   0  0  0  0  0  0  0  0  0  0  0  0
   42.5095  -20.2000  -11.0473 C   0  0  0  0  0  0  0  0  0  0  0  0
   49.6977  -16.4436   -9.0134 C   0  0  0  0  0  0  0  0  0  0  0  0
   47.9050  -14.4436  -13.8203 C   0  0  0  0  0  0  0  0  0  0  0  0
   48.0448  -15.6430   -7.4394 C   0  0  0  0  0  0  0  0  0  0  0  0
   45.8968  -13.2473  -13.1984 C   0  0  0  0  0  0  0  0  0  0  0  0
   49.3515  -16.0409   -7.7214 C   0  0  0  0  0  0  0  0  0  0  0  0
   46.9932  -13.4096  -14.0452 C   0  0  0  0  0  0  0  0  0  0  0  0
   49.2173  -16.7816  -13.4580 H   0  0  0  0  0  0  0  0  0  0  0  0
   49.9732  -17.6243  -11.4319 H   0  0  0  0  0  0  0  0  0  0  0  0
   44.6181  -16.5743  -12.7885 H   0  0  0  0  0  0  0  0  0  0  0  0
   43.4292  -16.2353  -11.4793 H   0  0  0  0  0  0  0  0  0  0  0  0
   44.4174  -17.3362   -8.8312 H   0  0  0  0  0  0  0  0  0  0  0  0
   46.0184  -18.1346   -9.0363 H   0  0  0  0  0  0  0  0  0  0  0  0
   44.3584  -18.9564  -12.5955 H   0  0  0  0  0  0  0  0  0  0  0  0
   42.7363  -18.1875  -12.7196 H   0  0  0  0  0  0  0  0  0  0  0  0
   44.1153  -19.7239   -9.0243 H   0  0  0  0  0  0  0  0  0  0  0  0
   45.1407  -19.8281  -10.4993 H   0  0  0  0  0  0  0  0  0  0  0  0
   44.8455  -13.9913  -11.4838 H   0  0  0  0  0  0  0  0  0  0  0  0
   46.0659  -15.3514   -8.2124 H   0  0  0  0  0  0  0  0  0  0  0  0
   42.1789  -20.6599  -10.0911 H   0  0  0  0  0  0  0  0  0  0  0  0
   41.5959  -20.0109  -11.6510 H   0  0  0  0  0  0  0  0  0  0  0  0
   43.1606  -20.9211  -11.5908 H   0  0  0  0  0  0  0  0  0  0  0  0
   50.7195  -16.7433   -9.2134 H   0  0  0  0  0  0  0  0  0  0  0  0
   48.7533  -14.5492  -14.4862 H   0  0  0  0  0  0  0  0  0  0  0  0
   47.7800  -15.3240   -6.4395 H   0  0  0  0  0  0  0  0  0  0  0  0
   45.1955  -12.4410  -13.3696 H   0  0  0  0  0  0  0  0  0  0  0  0
   50.0990  -16.0337   -6.9387 H   0  0  0  0  0  0  0  0  0  0  0  0
   47.1395  -12.7308  -14.8754 H   0  0  0  0  0  0  0  0  0  0  0  0
  2  1  1  0
  3  1  1  0
  4  1  2  3
  5  9  1  0
  6  8  1  0
  7 13  1  0
  8  3  2  0
  9  2  2  0
 10  4  1  0
 11  4  1  0
 12 10  1  0
 13 11  1  0
 14  2  1  0
 15  3  1  0
 16  7  1  0
 17  8  1  0
 18  9  1  0
 19 15  2  0
 20 14  2  0
 21 19  1  0
 22 20  1  0
  7 12  1  0
  6  5  2  0
 21 17  2  0
 22 18  2  0
  5 23  1  0
  6 24  1  0
 10 25  1  0
 10 26  1  0
 11 27  1  0
 11 28  1  0
 12 29  1  0
 12 30  1  0
 13 31  1  0
 13 32  1  0
 14 33  1  0
 15 34  1  0
 16 35  1  0
 16 36  1  0
 16 37  1  0
 17 38  1  0
 18 39  1  0
 19 40  1  0
 20 41  1  0
 21 42  1  0
 22 43  1  0
M  END
> <Uni-Dock RESULT> 
ENERGY=   -4.429  LOWER_BOUND=    4.603  UPPER_BOUND=    6.522
INTER + INTRA:          -4.429
INTER:                  -4.429
INTRA:                   0.000
UNBOUND:                 0.000

$$$$

     RDKit          3D

 43 46  0  0  0  0  0  0  0  0999 V2000
   49.8639  -18.1635   -7.4634 C   0  0  0  0  0  0  0  0  0  0  0  0
   49.8316  -17.7083   -8.8650 C   0  0  0  0  0  0  0  0  0  0  0  0
   48.5489  -18.5207   -6.9012 C   0  0  0  0  0  0  0  0  0  0  0  0
   51.0110  -18.1980   -6.7284 C   0  0  0  0  0  0  0  0  0  0  0  0
   48.4196  -15.6908   -8.2325 C   0  0  0  0  0  0  0  0  0  0  0  0
   47.7258  -16.1302   -7.1699 C   0  0  0  0  0  0  0  0  0  0  0  0
   53.3864  -18.0458   -5.1137 N   0  0  0  0  0  0  0  0  0  0  0  0
   47.5310  -17.5493   -6.7821 C   0  0  0  0  0  0  0  0  0  0  0  0
   49.1256  -16.5394   -9.2242 C   0  0  0  0  0  0  0  0  0  0  0  0
   52.3588  -17.8818   -7.3532 C   0  0  0  0  0  0  0  0  0  0  0  0
   51.0210  -18.7289   -5.3053 C   0  0  0  0  0  0  0  0  0  0  0  0
   53.3183  -17.2424   -6.3468 C   0  0  0  0  0  0  0  0  0  0  0  0
   52.0745  -18.0300   -4.4430 C   0  0  0  0  0  0  0  0  0  0  0  0
   50.4789  -18.4654   -9.8565 C   0  0  0  0  0  0  0  0  0  0  0  0
   48.2961  -19.8480   -6.5142 C   0  0  0  0  0  0  0  0  0  0  0  0
   54.4128  -17.4949   -4.2151 C   0  0  0  0  0  0  0  0  0  0  0  0
   46.3026  -17.9159   -6.2064 C   0  0  0  0  0  0  0  0  0  0  0  0
   49.1470  -16.1144  -10.5636 C   0  0  0  0  0  0  0  0  0  0  0  0
   47.0618  -20.2000   -5.9664 C   0  0  0  0  0  0  0  0  0  0  0  0
   50.4697  -18.0414  -11.1861 C   0  0  0  0  0  0  0  0  0  0  0  0
   46.0690  -19.2336   -5.8057 C   0  0  0  0  0  0  0  0  0  0  0  0
   49.8107  -16.8635  -11.5379 C   0  0  0  0  0  0  0  0  0  0  0  0
   48.3769  -14.6274   -8.4386 H   0  0  0  0  0  0  0  0  0  0  0  0
   47.1778  -15.3869   -6.6023 H   0  0  0  0  0  0  0  0  0  0  0  0
   52.2637  -17.1733   -8.2028 H   0  0  0  0  0  0  0  0  0  0  0  0
   52.8029  -18.8263   -7.7347 H   0  0  0  0  0  0  0  0  0  0  0  0
   51.2352  -19.8189   -5.3351 H   0  0  0  0  0  0  0  0  0  0  0  0
   50.0424  -18.5796   -4.8025 H   0  0  0  0  0  0  0  0  0  0  0  0
   52.9887  -16.2001   -6.1275 H   0  0  0  0  0  0  0  0  0  0  0  0
   54.3231  -17.1875   -6.8219 H   0  0  0  0  0  0  0  0  0  0  0  0
   52.1355  -18.5727   -3.4734 H   0  0  0  0  0  0  0  0  0  0  0  0
   51.7478  -16.9858   -4.2279 H   0  0  0  0  0  0  0  0  0  0  0  0
   50.9954  -19.3813   -9.5964 H   0  0  0  0  0  0  0  0  0  0  0  0
   49.0591  -20.6078   -6.6320 H   0  0  0  0  0  0  0  0  0  0  0  0
   54.4846  -18.1110   -3.2930 H   0  0  0  0  0  0  0  0  0  0  0  0
   55.4088  -17.5269   -4.7070 H   0  0  0  0  0  0  0  0  0  0  0  0
   54.1819  -16.4433   -3.9318 H   0  0  0  0  0  0  0  0  0  0  0  0
   45.5165  -17.1815   -6.0787 H   0  0  0  0  0  0  0  0  0  0  0  0
   48.6362  -15.2053  -10.8582 H   0  0  0  0  0  0  0  0  0  0  0  0
   46.8763  -21.2221   -5.6624 H   0  0  0  0  0  0  0  0  0  0  0  0
   50.9771  -18.6246  -11.9436 H   0  0  0  0  0  0  0  0  0  0  0  0
   45.1148  -19.5062   -5.3736 H   0  0  0  0  0  0  0  0  0  0  0  0
   49.8106  -16.5317  -12.5681 H   0  0  0  0  0  0  0  0  0  0  0  0
  2  1  1  0
  3  1  1  0
  4  1  2  3
  5  9  1  0
  6  8  1  0
  7 13  1  0
  8  3  2  0
  9  2  2  0
 10  4  1  0
 11  4  1  0
 12 10  1  0
 13 11  1  0
 14  2  1  0
 15  3  1  0
 16  7  1  0
 17  8  1  0
 18  9  1  0
 19 15  2  0
 20 14  2  0
 21 19  1  0
 22 20  1  0
  7 12  1  0
  6  5  2  0
 21 17  2  0
 22 18  2  0
  5 23  1  0
  6 24  1  0
 10 25  1  0
 10 26  1  0
 11 27  1  0
 11 28  1  0
 12 29  1  0
 12 30  1  0
 13 31  1  0
 13 32  1  0
 14 33  1  0
 15 34  1  0
 16 35  1  0
 16 36  1  0
 16 37  1  0
 17 38  1  0
 18 39  1  0
 19 40  1  0
 20 41  1  0
 21 42  1  0
 22 43  1  0
M  END
> <Uni-Dock RESULT> 
ENERGY=   -4.214  LOWER_BOUND=    2.132  UPPER_BOUND=    5.061
INTER + INTRA:          -4.214
INTER:                  -4.214
INTRA:                   0.000
UNBOUND:                 0.000

$$$$

     RDKit          3D

 43 46  0  0  0  0  0  0  0  0999 V2000
   44.9135  -14.1061  -12.3622 C   0  0  0  0  0  0  0  0  0  0  0  0
   44.8878  -15.4789  -11.8257 C   0  0  0  0  0  0  0  0  0  0  0  0
   43.6736  -13.3380  -12.1491 C   0  0  0  0  0  0  0  0  0  0  0  0
   45.9785  -13.6060  -13.0499 C   0  0  0  0  0  0  0  0  0  0  0  0
   43.0125  -16.1222  -13.4175 C   0  0  0  0  0  0  0  0  0  0  0  0
   42.3557  -14.9640  -13.5926 C   0  0  0  0  0  0  0  0  0  0  0  0
   48.1263  -12.6367  -14.6993 N   0  0  0  0  0  0  0  0  0  0  0  0
   42.4567  -13.7646  -12.7246 C   0  0  0  0  0  0  0  0  0  0  0  0
   43.9662  -16.4266  -12.3221 C   0  0  0  0  0  0  0  0  0  0  0  0
   47.2644  -14.4001  -13.2006 C   0  0  0  0  0  0  0  0  0  0  0  0
   45.9980  -12.1677  -13.5379 C   0  0  0  0  0  0  0  0  0  0  0  0
   47.9742  -14.0914  -14.5209 C   0  0  0  0  0  0  0  0  0  0  0  0
   46.7969  -12.0159  -14.8343 C   0  0  0  0  0  0  0  0  0  0  0  0
   45.7637  -15.8350  -10.7860 C   0  0  0  0  0  0  0  0  0  0  0  0
   43.6975  -12.1915  -11.3364 C   0  0  0  0  0  0  0  0  0  0  0  0
   48.9294  -12.3626  -15.9011 C   0  0  0  0  0  0  0  0  0  0  0  0
   41.3020  -12.9872  -12.5321 C   0  0  0  0  0  0  0  0  0  0  0  0
   43.9945  -17.7364  -11.8136 C   0  0  0  0  0  0  0  0  0  0  0  0
   42.5359  -11.4445  -11.1363 C   0  0  0  0  0  0  0  0  0  0  0  0
   45.7619  -17.1340  -10.2760 C   0  0  0  0  0  0  0  0  0  0  0  0
   41.3413  -11.8375  -11.7395 C   0  0  0  0  0  0  0  0  0  0  0  0
   44.8834  -18.0855  -10.7942 C   0  0  0  0  0  0  0  0  0  0  0  0
   42.7471  -16.9395  -14.0782 H   0  0  0  0  0  0  0  0  0  0  0  0
   41.6119  -14.9378  -14.3808 H   0  0  0  0  0  0  0  0  0  0  0  0
   47.0778  -15.4945  -13.1833 H   0  0  0  0  0  0  0  0  0  0  0  0
   47.9382  -14.1477  -12.3539 H   0  0  0  0  0  0  0  0  0  0  0  0
   46.4543  -11.5318  -12.7489 H   0  0  0  0  0  0  0  0  0  0  0  0
   44.9751  -11.7879  -13.7433 H   0  0  0  0  0  0  0  0  0  0  0  0
   47.4021  -14.5404  -15.3659 H   0  0  0  0  0  0  0  0  0  0  0  0
   48.9744  -14.5784  -14.4918 H   0  0  0  0  0  0  0  0  0  0  0  0
   46.9037  -10.9280  -15.0431 H   0  0  0  0  0  0  0  0  0  0  0  0
   46.2274  -12.4696  -15.6788 H   0  0  0  0  0  0  0  0  0  0  0  0
   46.4518  -15.1061  -10.3756 H   0  0  0  0  0  0  0  0  0  0  0  0
   44.6190  -11.8744  -10.8636 H   0  0  0  0  0  0  0  0  0  0  0  0
   49.0669  -11.2671  -16.0276 H   0  0  0  0  0  0  0  0  0  0  0  0
   49.9419  -12.8080  -15.7943 H   0  0  0  0  0  0  0  0  0  0  0  0
   48.4460  -12.7756  -16.8149 H   0  0  0  0  0  0  0  0  0  0  0  0
   40.3630  -13.2789  -12.9869 H   0  0  0  0  0  0  0  0  0  0  0  0
   43.3162  -18.4885  -12.1987 H   0  0  0  0  0  0  0  0  0  0  0  0
   42.5629  -10.5576  -10.5163 H   0  0  0  0  0  0  0  0  0  0  0  0
   46.4447  -17.4043   -9.4810 H   0  0  0  0  0  0  0  0  0  0  0  0
   40.4428  -11.2530  -11.5898 H   0  0  0  0  0  0  0  0  0  0  0  0
   44.8880  -19.0946  -10.4030 H   0  0  0  0  0  0  0  0  0  0  0  0
  2  1  1  0
  3  1  1  0
  4  1  2  3
  5  9  1  0
  6  8  1  0
  7 13  1  0
  8  3  2  0
  9  2  2  0
 10  4  1  0
 11  4  1  0
 12 10  1  0
 13 11  1  0
 14  2  1  0
 15  3  1  0
 16  7  1  0
 17  8  1  0
 18  9  1  0
 19 15  2  0
 20 14  2  0
 21 19  1  0
 22 20  1  0
  7 12  1  0
  6  5  2  0
 21 17  2  0
 22 18  2  0
  5 23  1  0
  6 24  1  0
 10 25  1  0
 10 26  1  0
 11 27  1  0
 11 28  1  0
 12 29  1  0
 12 30  1  0
 13 31  1  0
 13 32  1  0
 14 33  1  0
 15 34  1  0
 16 35  1  0
 16 36  1  0
 16 37  1  0
 17 38  1  0
 18 39  1  0
 19 40  1  0
 20 41  1  0
 21 42  1  0
 22 43  1  0
M  END
> <Uni-Dock RESULT> 
ENERGY=   -4.181  LOWER_BOUND=    6.775  UPPER_BOUND=    8.864
INTER + INTRA:          -4.181
INTER:                  -4.181
INTRA:                   0.000
UNBOUND:                 0.000

$$$$
