
     RDKit          3D

 73 77  0  0  0  0  0  0  0  0999 V2000
   44.5727    9.1708   12.6170 O   0  0  0  0  0  0  0  0  0  0  0  0
   46.6838   11.8930    9.3602 O   0  0  0  0  0  0  0  0  0  0  0  0
   46.7022    5.6157   13.0699 O   0  0  0  0  0  0  0  0  0  0  0  0
   46.3527   11.9457    6.7637 O   0  0  0  0  0  0  0  0  0  0  0  0
   44.7393    6.6632   12.9525 O   0  0  0  0  0  0  0  0  0  0  0  0
   44.2724   11.9438    5.9373 O   0  0  0  0  0  0  0  0  0  0  0  0
   46.5517   10.3808   12.0937 C   0  0  0  0  0  0  0  0  0  0  0  0
   44.7496   11.6667   10.7318 C   0  0  0  0  0  0  0  0  0  0  0  0
   47.9792   10.4213   11.9528 C   0  0  0  0  0  0  0  0  0  0  0  0
   43.3208   11.6292   10.8588 C   0  0  0  0  0  0  0  0  0  0  0  0
   45.9294    9.1528   12.4148 C   0  0  0  0  0  0  0  0  0  0  0  0
   45.3176   11.7787    9.4432 C   0  0  0  0  0  0  0  0  0  0  0  0
   45.6808   11.6307   11.9457 C   0  0  0  0  0  0  0  0  0  0  0  0
   48.7179    9.2182   12.1076 C   0  0  0  0  0  0  0  0  0  0  0  0
   42.5253   11.6741    9.6818 C   0  0  0  0  0  0  0  0  0  0  0  0
   46.6721    7.9726   12.5533 C   0  0  0  0  0  0  0  0  0  0  0  0
   44.5175   11.8059    8.2928 C   0  0  0  0  0  0  0  0  0  0  0  0
   48.0590    8.0180   12.3948 C   0  0  0  0  0  0  0  0  0  0  0  0
   43.1293   11.7500    8.4218 C   0  0  0  0  0  0  0  0  0  0  0  0
   48.7342   11.5878   11.6697 C   0  0  0  0  0  0  0  0  0  0  0  0
   42.6176   11.5552   12.0880 C   0  0  0  0  0  0  0  0  0  0  0  0
   46.0865    6.6474   12.8797 C   0  0  0  0  0  0  0  0  0  0  0  0
   45.1483   11.9034    6.9559 C   0  0  0  0  0  0  0  0  0  0  0  0
   50.1178    9.2127   11.9785 C   0  0  0  0  0  0  0  0  0  0  0  0
   41.1222   11.6470    9.7626 C   0  0  0  0  0  0  0  0  0  0  0  0
   50.1269   11.5700   11.5445 C   0  0  0  0  0  0  0  0  0  0  0  0
   41.2210   11.5298   12.1546 C   0  0  0  0  0  0  0  0  0  0  0  0
   50.8201   10.3810   11.6996 C   0  0  0  0  0  0  0  0  0  0  0  0
   40.4718   11.5773   10.9905 C   0  0  0  0  0  0  0  0  0  0  0  0
   47.5742    8.8978   13.9021 S   0  0  0  0  0  0  0  0  0  0  0  0
   44.6384   11.7526   10.1330 N   0  0  0  0  0  0  0  0  0  0  0  0
   43.2770   10.0148   11.0423 N   0  0  0  0  0  0  0  0  0  0  0  0
   44.3999   10.6639   10.9737 C   0  0  0  0  0  0  0  0  0  0  0  0
   45.4434   10.0980   11.8851 C   0  0  0  0  0  0  0  0  0  0  0  0
   47.7526    9.3582   12.2486 C   0  0  0  0  0  0  0  0  0  0  0  0
   46.7074    9.9402   11.4671 C   0  0  0  0  0  0  0  0  0  0  0  0
   43.5726   12.1836    9.2270 C   0  0  0  0  0  0  0  0  0  0  0  0
   42.1736   10.4251   10.1814 C   0  0  0  0  0  0  0  0  0  0  0  0
   42.6783   11.0129    8.8804 C   0  0  0  0  0  0  0  0  0  0  0  0
   49.0465    9.0887   11.8238 C   0  0  0  0  0  0  0  0  0  0  0  0
   45.4899   12.8566   10.5783 C   0  0  0  0  0  0  0  0  0  0  0  0
   49.1840    8.3450   14.0149 C   0  0  0  0  0  0  0  0  0  0  0  0
   49.8677    8.5083   12.8333 C   0  0  0  0  0  0  0  0  0  0  0  0
   44.2691    8.2492   12.7569 H   0  0  0  0  0  0  0  0  0  0  0  0
   46.9635   11.8803    8.4197 H   0  0  0  0  0  0  0  0  0  0  0  0
   44.5222    5.7258   13.1577 H   0  0  0  0  0  0  0  0  0  0  0  0
   44.8311   12.0066    5.1342 H   0  0  0  0  0  0  0  0  0  0  0  0
   46.2757   12.5483   11.9158 H   0  0  0  0  0  0  0  0  0  0  0  0
   45.1367   11.7495   12.8874 H   0  0  0  0  0  0  0  0  0  0  0  0
   48.6360    7.1006   12.5077 H   0  0  0  0  0  0  0  0  0  0  0  0
   42.5055   11.7762    7.5305 H   0  0  0  0  0  0  0  0  0  0  0  0
   48.2476   12.5469   11.5187 H   0  0  0  0  0  0  0  0  0  0  0  0
   43.1479   11.4988   13.0342 H   0  0  0  0  0  0  0  0  0  0  0  0
   50.6791    8.2873   12.0962 H   0  0  0  0  0  0  0  0  0  0  0  0
   40.5169   11.6843    8.8587 H   0  0  0  0  0  0  0  0  0  0  0  0
   50.6610   12.4892   11.3188 H   0  0  0  0  0  0  0  0  0  0  0  0
   40.7273   11.4682   13.1208 H   0  0  0  0  0  0  0  0  0  0  0  0
   51.9015   10.3606   11.6010 H   0  0  0  0  0  0  0  0  0  0  0  0
   39.3867   11.5585   11.0352 H   0  0  0  0  0  0  0  0  0  0  0  0
   45.0706    9.7377   12.8367 H   0  0  0  0  0  0  0  0  0  0  0  0
   46.9657   10.2476   10.4556 H   0  0  0  0  0  0  0  0  0  0  0  0
   44.0086   12.5946    8.3094 H   0  0  0  0  0  0  0  0  0  0  0  0
   42.9829   12.9789    9.7005 H   0  0  0  0  0  0  0  0  0  0  0  0
   41.5570    9.5465    9.9608 H   0  0  0  0  0  0  0  0  0  0  0  0
   41.5368   11.1384   10.7183 H   0  0  0  0  0  0  0  0  0  0  0  0
   43.2400   10.2578    8.3170 H   0  0  0  0  0  0  0  0  0  0  0  0
   41.8406   11.3412    8.2562 H   0  0  0  0  0  0  0  0  0  0  0  0
   49.3916    9.2971   10.8177 H   0  0  0  0  0  0  0  0  0  0  0  0
   45.6553   13.5701    9.7611 H   0  0  0  0  0  0  0  0  0  0  0  0
   45.0137   13.3915   11.4081 H   0  0  0  0  0  0  0  0  0  0  0  0
   46.4786   12.5206   10.8991 H   0  0  0  0  0  0  0  0  0  0  0  0
   49.5526    7.9301   14.9430 H   0  0  0  0  0  0  0  0  0  0  0  0
   50.9033    8.2224   12.6968 H   0  0  0  0  0  0  0  0  0  0  0  0
  1 11  1  0
  2 12  1  0
  3 22  2  0
  4 23  2  0
  5 22  1  0
  6 23  1  0
  7  9  1  0
  7 11  2  0
  7 13  1  0
  8 10  1  0
  8 12  2  0
  8 13  1  0
  9 14  2  0
  9 20  1  0
 10 15  2  0
 10 21  1  0
 11 16  1  0
 12 17  1  0
 14 18  1  0
 14 24  1  0
 15 19  1  0
 15 25  1  0
 16 18  2  0
 16 22  1  0
 17 19  2  0
 17 23  1  0
 20 26  2  0
 21 27  2  0
 24 28  2  0
 25 29  2  0
 26 28  1  0
 27 29  1  0
 30 35  1  0
 30 42  1  0
 31 33  1  0
 31 37  1  0
 31 41  1  0
 32 33  2  0
 32 38  1  0
 33 34  1  0
 34 36  2  0
 35 36  1  0
 35 40  2  0
 37 39  1  0
 38 39  1  0
 40 43  1  0
 42 43  2  0
  1 44  1  0
  2 45  1  0
  5 46  1  0
  6 47  1  0
 13 48  1  0
 13 49  1  0
 18 50  1  0
 19 51  1  0
 20 52  1  0
 21 53  1  0
 24 54  1  0
 25 55  1  0
 26 56  1  0
 27 57  1  0
 28 58  1  0
 29 59  1  0
 34 60  1  0
 36 61  1  0
 37 62  1  0
 37 63  1  0
 38 64  1  0
 38 65  1  0
 39 66  1  0
 39 67  1  0
 40 68  1  0
 41 69  1  0
 41 70  1  0
 41 71  1  0
 42 72  1  0
 43 73  1  0
M  END
> <Uni-Dock RESULT> 
ENERGY=   -6.060  LOWER_BOUND=    0.000  UPPER_BOUND=    0.000
INTER + INTRA:          -6.060
INTER:                  -6.060
INTRA:                   0.000
UNBOUND:                 0.000

$$$$

     RDKit          3D

 73 77  0  0  0  0  0  0  0  0999 V2000
   48.5761   10.0322   17.5780 O   0  0  0  0  0  0  0  0  0  0  0  0
   48.3490    5.3448   16.9071 O   0  0  0  0  0  0  0  0  0  0  0  0
   45.9385   11.1467   20.6078 O   0  0  0  0  0  0  0  0  0  0  0  0
   46.7623    3.9585   15.3531 O   0  0  0  0  0  0  0  0  0  0  0  0
   46.8635   11.5793   18.6276 O   0  0  0  0  0  0  0  0  0  0  0  0
   46.4466    4.6395   13.2443 O   0  0  0  0  0  0  0  0  0  0  0  0
   48.9593    7.9121   18.5843 C   0  0  0  0  0  0  0  0  0  0  0  0
   49.2532    7.3781   16.0576 C   0  0  0  0  0  0  0  0  0  0  0  0
   48.7529    7.0018   19.6743 C   0  0  0  0  0  0  0  0  0  0  0  0
   49.4531    8.2792   14.9588 C   0  0  0  0  0  0  0  0  0  0  0  0
   48.2934    9.1590   18.5975 C   0  0  0  0  0  0  0  0  0  0  0  0
   48.4558    6.2286   15.8613 C   0  0  0  0  0  0  0  0  0  0  0  0
   49.9064    7.5958   17.4243 C   0  0  0  0  0  0  0  0  0  0  0  0
   47.8594    7.3697   20.7152 C   0  0  0  0  0  0  0  0  0  0  0  0
   48.8163    8.0019   13.7187 C   0  0  0  0  0  0  0  0  0  0  0  0
   47.4065    9.5018   19.6268 C   0  0  0  0  0  0  0  0  0  0  0  0
   47.8231    5.9800   14.6357 C   0  0  0  0  0  0  0  0  0  0  0  0
   47.1968    8.6010   20.6734 C   0  0  0  0  0  0  0  0  0  0  0  0
   48.0060    6.8699   13.5767 C   0  0  0  0  0  0  0  0  0  0  0  0
   49.3826    5.7382   19.8068 C   0  0  0  0  0  0  0  0  0  0  0  0
   50.2554    9.4475   15.0040 C   0  0  0  0  0  0  0  0  0  0  0  0
   46.6661   10.7870   19.7018 C   0  0  0  0  0  0  0  0  0  0  0  0
   46.9772    4.7748   14.4717 C   0  0  0  0  0  0  0  0  0  0  0  0
   47.6285    6.5083   21.8019 C   0  0  0  0  0  0  0  0  0  0  0  0
   48.9919    8.8550   12.6155 C   0  0  0  0  0  0  0  0  0  0  0  0
   49.1456    4.8902   20.8933 C   0  0  0  0  0  0  0  0  0  0  0  0
   50.4225   10.2877   13.8986 C   0  0  0  0  0  0  0  0  0  0  0  0
   48.2677    5.2759   21.8928 C   0  0  0  0  0  0  0  0  0  0  0  0
   49.7912    9.9905   12.7020 C   0  0  0  0  0  0  0  0  0  0  0  0
   48.8811    9.2634   20.7484 S   0  0  0  0  0  0  0  0  0  0  0  0
   48.9470    7.0356   15.6485 N   0  0  0  0  0  0  0  0  0  0  0  0
   48.3452    9.3409   15.4948 N   0  0  0  0  0  0  0  0  0  0  0  0
   48.6801    8.2951   16.1884 C   0  0  0  0  0  0  0  0  0  0  0  0
   48.7246    8.5745   17.6580 C   0  0  0  0  0  0  0  0  0  0  0  0
   48.1557    7.9162   19.9504 C   0  0  0  0  0  0  0  0  0  0  0  0
   48.2068    7.7056   18.5379 C   0  0  0  0  0  0  0  0  0  0  0  0
   48.8056    6.8495   14.2036 C   0  0  0  0  0  0  0  0  0  0  0  0
   48.2207    9.2146   14.0473 C   0  0  0  0  0  0  0  0  0  0  0  0
   47.7843    7.8199   13.6508 C   0  0  0  0  0  0  0  0  0  0  0  0
   47.5454    7.0906   20.8848 C   0  0  0  0  0  0  0  0  0  0  0  0
   49.9852    6.1862   16.2343 C   0  0  0  0  0  0  0  0  0  0  0  0
   48.3663    8.7422   22.2888 C   0  0  0  0  0  0  0  0  0  0  0  0
   47.6645    7.5618   22.2243 C   0  0  0  0  0  0  0  0  0  0  0  0
   47.9949   10.8160   17.6726 H   0  0  0  0  0  0  0  0  0  0  0  0
   47.7089    4.6361   16.6815 H   0  0  0  0  0  0  0  0  0  0  0  0
   46.3030   12.3623   18.8297 H   0  0  0  0  0  0  0  0  0  0  0  0
   45.9231    3.8120   13.2919 H   0  0  0  0  0  0  0  0  0  0  0  0
   50.5249    6.7157   17.6235 H   0  0  0  0  0  0  0  0  0  0  0  0
   50.6553    8.3930   17.4019 H   0  0  0  0  0  0  0  0  0  0  0  0
   46.5108    8.8708   21.4759 H   0  0  0  0  0  0  0  0  0  0  0  0
   47.5200    6.6765   12.6224 H   0  0  0  0  0  0  0  0  0  0  0  0
   50.0668    5.3709   19.0474 H   0  0  0  0  0  0  0  0  0  0  0  0
   50.7631    9.7435   15.9173 H   0  0  0  0  0  0  0  0  0  0  0  0
   46.9410    6.7944   22.5963 H   0  0  0  0  0  0  0  0  0  0  0  0
   48.5044    8.6374   11.6668 H   0  0  0  0  0  0  0  0  0  0  0  0
   49.6463    3.9271   20.9466 H   0  0  0  0  0  0  0  0  0  0  0  0
   51.0444   11.1748   13.9834 H   0  0  0  0  0  0  0  0  0  0  0  0
   48.0777    4.6204   22.7377 H   0  0  0  0  0  0  0  0  0  0  0  0
   49.9172   10.6385   11.8394 H   0  0  0  0  0  0  0  0  0  0  0  0
   49.0972    9.5566   17.9242 H   0  0  0  0  0  0  0  0  0  0  0  0
   47.7674    6.7827   18.1644 H   0  0  0  0  0  0  0  0  0  0  0  0
   48.4868    5.8228   13.9907 H   0  0  0  0  0  0  0  0  0  0  0  0
   49.7751    7.0053   13.7134 H   0  0  0  0  0  0  0  0  0  0  0  0
   47.4739    9.9357   13.6964 H   0  0  0  0  0  0  0  0  0  0  0  0
   49.1731    9.4819   13.5738 H   0  0  0  0  0  0  0  0  0  0  0  0
   46.7908    7.6032   14.0623 H   0  0  0  0  0  0  0  0  0  0  0  0
   47.7214    7.7319   12.5611 H   0  0  0  0  0  0  0  0  0  0  0  0
   47.0250    6.1790   20.6148 H   0  0  0  0  0  0  0  0  0  0  0  0
   49.9889    5.1976   15.7581 H   0  0  0  0  0  0  0  0  0  0  0  0
   50.9725    6.6396   16.0888 H   0  0  0  0  0  0  0  0  0  0  0  0
   49.8326    6.0135   17.3022 H   0  0  0  0  0  0  0  0  0  0  0  0
   48.6060    9.3246   23.1679 H   0  0  0  0  0  0  0  0  0  0  0  0
   47.2527    7.0623   23.0925 H   0  0  0  0  0  0  0  0  0  0  0  0
  1 11  1  0
  2 12  1  0
  3 22  2  0
  4 23  2  0
  5 22  1  0
  6 23  1  0
  7  9  1  0
  7 11  2  0
  7 13  1  0
  8 10  1  0
  8 12  2  0
  8 13  1  0
  9 14  2  0
  9 20  1  0
 10 15  2  0
 10 21  1  0
 11 16  1  0
 12 17  1  0
 14 18  1  0
 14 24  1  0
 15 19  1  0
 15 25  1  0
 16 18  2  0
 16 22  1  0
 17 19  2  0
 17 23  1  0
 20 26  2  0
 21 27  2  0
 24 28  2  0
 25 29  2  0
 26 28  1  0
 27 29  1  0
 30 35  1  0
 30 42  1  0
 31 33  1  0
 31 37  1  0
 31 41  1  0
 32 33  2  0
 32 38  1  0
 33 34  1  0
 34 36  2  0
 35 36  1  0
 35 40  2  0
 37 39  1  0
 38 39  1  0
 40 43  1  0
 42 43  2  0
  1 44  1  0
  2 45  1  0
  5 46  1  0
  6 47  1  0
 13 48  1  0
 13 49  1  0
 18 50  1  0
 19 51  1  0
 20 52  1  0
 21 53  1  0
 24 54  1  0
 25 55  1  0
 26 56  1  0
 27 57  1  0
 28 58  1  0
 29 59  1  0
 34 60  1  0
 36 61  1  0
 37 62  1  0
 37 63  1  0
 38 64  1  0
 38 65  1  0
 39 66  1  0
 39 67  1  0
 40 68  1  0
 41 69  1  0
 41 70  1  0
 41 71  1  0
 42 72  1  0
 43 73  1  0
M  END
> <Uni-Dock RESULT> 
ENERGY=   -5.996  LOWER_BOUND=    5.539  UPPER_BOUND=    8.798
INTER + INTRA:          -5.996
INTER:                  -5.996
INTRA:                   0.000
UNBOUND:                 0.000

$$$$

     RDKit          3D

 73 77  0  0  0  0  0  0  0  0999 V2000
   49.4877   11.0157   15.9532 O   0  0  0  0  0  0  0  0  0  0  0  0
   48.2244    6.4616   16.3241 O   0  0  0  0  0  0  0  0  0  0  0  0
   46.8512   13.3874   18.1446 O   0  0  0  0  0  0  0  0  0  0  0  0
   46.5494    5.0727   14.8682 O   0  0  0  0  0  0  0  0  0  0  0  0
   48.0834   13.0961   16.3113 O   0  0  0  0  0  0  0  0  0  0  0  0
   46.6613    5.2346   12.6385 O   0  0  0  0  0  0  0  0  0  0  0  0
   49.2275    9.1959   17.4615 C   0  0  0  0  0  0  0  0  0  0  0  0
   49.6852    7.9784   15.2111 C   0  0  0  0  0  0  0  0  0  0  0  0
   48.6797    8.6601   18.6747 C   0  0  0  0  0  0  0  0  0  0  0  0
   50.2256    8.5046   13.9904 C   0  0  0  0  0  0  0  0  0  0  0  0
   48.8836   10.5122   17.0771 C   0  0  0  0  0  0  0  0  0  0  0  0
   48.6647    7.0040   15.1417 C   0  0  0  0  0  0  0  0  0  0  0  0
   50.2030    8.4048   16.5866 C   0  0  0  0  0  0  0  0  0  0  0  0
   47.7825    9.4581   19.4332 C   0  0  0  0  0  0  0  0  0  0  0  0
   49.6942    8.0514   12.7525 C   0  0  0  0  0  0  0  0  0  0  0  0
   47.9882   11.2822   17.8313 C   0  0  0  0  0  0  0  0  0  0  0  0
   48.1423    6.5807   13.9119 C   0  0  0  0  0  0  0  0  0  0  0  0
   47.4446   10.7448   19.0003 C   0  0  0  0  0  0  0  0  0  0  0  0
   48.6589    7.1102   12.7288 C   0  0  0  0  0  0  0  0  0  0  0  0
   48.9672    7.3731   19.1962 C   0  0  0  0  0  0  0  0  0  0  0  0
   51.2735    9.4568   13.9116 C   0  0  0  0  0  0  0  0  0  0  0  0
   47.5744   12.6657   17.4845 C   0  0  0  0  0  0  0  0  0  0  0  0
   47.0579    5.5720   13.8775 C   0  0  0  0  0  0  0  0  0  0  0  0
   47.2231    8.9727   20.6281 C   0  0  0  0  0  0  0  0  0  0  0  0
   50.2003    8.5361   11.5340 C   0  0  0  0  0  0  0  0  0  0  0  0
   48.4052    6.9014   20.3868 C   0  0  0  0  0  0  0  0  0  0  0  0
   51.7686    9.9303   12.6924 C   0  0  0  0  0  0  0  0  0  0  0  0
   47.5322    7.7024   21.1042 C   0  0  0  0  0  0  0  0  0  0  0  0
   51.2324    9.4684   11.5016 C   0  0  0  0  0  0  0  0  0  0  0  0
   49.2171   11.0476   19.2183 S   0  0  0  0  0  0  0  0  0  0  0  0
   49.3571    7.6114   14.8424 N   0  0  0  0  0  0  0  0  0  0  0  0
   49.3489    9.8709   14.0713 N   0  0  0  0  0  0  0  0  0  0  0  0
   49.3375    8.9947   15.0300 C   0  0  0  0  0  0  0  0  0  0  0  0
   49.2713    9.6295   16.3835 C   0  0  0  0  0  0  0  0  0  0  0  0
   48.2907    9.7163   18.6292 C   0  0  0  0  0  0  0  0  0  0  0  0
   48.4586    9.1417   17.3316 C   0  0  0  0  0  0  0  0  0  0  0  0
   49.3493    7.0906   13.4745 C   0  0  0  0  0  0  0  0  0  0  0  0
   49.3721    9.4025   12.6904 C   0  0  0  0  0  0  0  0  0  0  0  0
   48.6645    8.0715   12.5475 C   0  0  0  0  0  0  0  0  0  0  0  0
   47.3927    9.3022   19.6036 C   0  0  0  0  0  0  0  0  0  0  0  0
   50.0831    6.7499   15.7768 C   0  0  0  0  0  0  0  0  0  0  0  0
   48.4117   11.0584   20.7218 C   0  0  0  0  0  0  0  0  0  0  0  0
   47.4600   10.0694   20.8024 C   0  0  0  0  0  0  0  0  0  0  0  0
   49.1046   11.8984   15.7658 H   0  0  0  0  0  0  0  0  0  0  0  0
   47.4647    5.8639   16.1551 H   0  0  0  0  0  0  0  0  0  0  0  0
   47.7071   14.0016   16.2308 H   0  0  0  0  0  0  0  0  0  0  0  0
   45.9527    4.5716   12.7785 H   0  0  0  0  0  0  0  0  0  0  0  0
   50.5637    7.4996   17.0838 H   0  0  0  0  0  0  0  0  0  0  0  0
   51.1184    8.9998   16.5172 H   0  0  0  0  0  0  0  0  0  0  0  0
   46.7524   11.3464   19.5886 H   0  0  0  0  0  0  0  0  0  0  0  0
   48.2587    6.7794   11.7725 H   0  0  0  0  0  0  0  0  0  0  0  0
   49.6291    6.6909   18.6708 H   0  0  0  0  0  0  0  0  0  0  0  0
   51.7242    9.8694   14.8094 H   0  0  0  0  0  0  0  0  0  0  0  0
   46.5343    9.5878   21.2047 H   0  0  0  0  0  0  0  0  0  0  0  0
   49.7921    8.1842   10.5882 H   0  0  0  0  0  0  0  0  0  0  0  0
   48.6501    5.9040   20.7420 H   0  0  0  0  0  0  0  0  0  0  0  0
   52.5704   10.6638   12.6833 H   0  0  0  0  0  0  0  0  0  0  0  0
   47.0907    7.3405   22.0282 H   0  0  0  0  0  0  0  0  0  0  0  0
   51.6127    9.8317   10.5512 H   0  0  0  0  0  0  0  0  0  0  0  0
   49.8341   10.5502   16.4832 H   0  0  0  0  0  0  0  0  0  0  0  0
   47.8585    8.2628   17.1041 H   0  0  0  0  0  0  0  0  0  0  0  0
   48.8213    6.1307   13.4454 H   0  0  0  0  0  0  0  0  0  0  0  0
   50.3794    6.9141   13.1394 H   0  0  0  0  0  0  0  0  0  0  0  0
   48.8677   10.1445   12.0612 H   0  0  0  0  0  0  0  0  0  0  0  0
   50.4104    9.3391   12.3433 H   0  0  0  0  0  0  0  0  0  0  0  0
   47.6061    8.1750   12.8166 H   0  0  0  0  0  0  0  0  0  0  0  0
   48.7133    7.7194   11.5118 H   0  0  0  0  0  0  0  0  0  0  0  0
   46.7049    8.4772   19.4585 H   0  0  0  0  0  0  0  0  0  0  0  0
   49.9065    5.6924   15.5432 H   0  0  0  0  0  0  0  0  0  0  0  0
   51.1605    6.9399   15.7083 H   0  0  0  0  0  0  0  0  0  0  0  0
   49.7668    6.8940   16.8124 H   0  0  0  0  0  0  0  0  0  0  0  0
   48.6770   11.7870   21.4755 H   0  0  0  0  0  0  0  0  0  0  0  0
   46.8394    9.9059   21.6748 H   0  0  0  0  0  0  0  0  0  0  0  0
  1 11  1  0
  2 12  1  0
  3 22  2  0
  4 23  2  0
  5 22  1  0
  6 23  1  0
  7  9  1  0
  7 11  2  0
  7 13  1  0
  8 10  1  0
  8 12  2  0
  8 13  1  0
  9 14  2  0
  9 20  1  0
 10 15  2  0
 10 21  1  0
 11 16  1  0
 12 17  1  0
 14 18  1  0
 14 24  1  0
 15 19  1  0
 15 25  1  0
 16 18  2  0
 16 22  1  0
 17 19  2  0
 17 23  1  0
 20 26  2  0
 21 27  2  0
 24 28  2  0
 25 29  2  0
 26 28  1  0
 27 29  1  0
 30 35  1  0
 30 42  1  0
 31 33  1  0
 31 37  1  0
 31 41  1  0
 32 33  2  0
 32 38  1  0
 33 34  1  0
 34 36  2  0
 35 36  1  0
 35 40  2  0
 37 39  1  0
 38 39  1  0
 40 43  1  0
 42 43  2  0
  1 44  1  0
  2 45  1  0
  5 46  1  0
  6 47  1  0
 13 48  1  0
 13 49  1  0
 18 50  1  0
 19 51  1  0
 20 52  1  0
 21 53  1  0
 24 54  1  0
 25 55  1  0
 26 56  1  0
 27 57  1  0
 28 58  1  0
 29 59  1  0
 34 60  1  0
 36 61  1  0
 37 62  1  0
 37 63  1  0
 38 64  1  0
 38 65  1  0
 39 66  1  0
 39 67  1  0
 40 68  1  0
 41 69  1  0
 41 70  1  0
 41 71  1  0
 42 72  1  0
 43 73  1  0
M  END
> <Uni-Dock RESULT> 
ENERGY=   -5.733  LOWER_BOUND=    5.495  UPPER_BOUND=    8.217
INTER + INTRA:          -5.733
INTER:                  -5.733
INTRA:                   0.000
UNBOUND:                 0.000

$$$$

     RDKit          3D

 73 77  0  0  0  0  0  0  0  0999 V2000
   49.4953   11.0309   15.9391 O   0  0  0  0  0  0  0  0  0  0  0  0
   48.2270    6.4792   16.3212 O   0  0  0  0  0  0  0  0  0  0  0  0
   46.8558   13.4119   18.1170 O   0  0  0  0  0  0  0  0  0  0  0  0
   46.5541    5.0873   14.8657 O   0  0  0  0  0  0  0  0  0  0  0  0
   48.0920   13.1137   16.2875 O   0  0  0  0  0  0  0  0  0  0  0  0
   46.6713    5.2421   12.6357 O   0  0  0  0  0  0  0  0  0  0  0  0
   49.2299    9.2161   17.4524 C   0  0  0  0  0  0  0  0  0  0  0  0
   49.6917    7.9912   15.2069 C   0  0  0  0  0  0  0  0  0  0  0  0
   48.6787    8.6845   18.6661 C   0  0  0  0  0  0  0  0  0  0  0  0
   50.2355    8.5131   13.9859 C   0  0  0  0  0  0  0  0  0  0  0  0
   48.8881   10.5314   17.0632 C   0  0  0  0  0  0  0  0  0  0  0  0
   48.6705    7.0175   15.1382 C   0  0  0  0  0  0  0  0  0  0  0  0
   50.2066    8.4214   16.5824 C   0  0  0  0  0  0  0  0  0  0  0  0
   47.7804    9.4857   19.4199 C   0  0  0  0  0  0  0  0  0  0  0  0
   49.7066    8.0565   12.7481 C   0  0  0  0  0  0  0  0  0  0  0  0
   47.9916   11.3046   17.8129 C   0  0  0  0  0  0  0  0  0  0  0  0
   48.1506    6.5909   13.9085 C   0  0  0  0  0  0  0  0  0  0  0  0
   47.4448   10.7713   18.9822 C   0  0  0  0  0  0  0  0  0  0  0  0
   48.6705    7.1162   12.7250 C   0  0  0  0  0  0  0  0  0  0  0  0
   48.9638    7.3989   19.1922 C   0  0  0  0  0  0  0  0  0  0  0  0
   51.2844    9.4641   13.9065 C   0  0  0  0  0  0  0  0  0  0  0  0
   47.5799   12.6874   17.4608 C   0  0  0  0  0  0  0  0  0  0  0  0
   47.0653    5.5831   13.8746 C   0  0  0  0  0  0  0  0  0  0  0  0
   47.2178    9.0045   20.6150 C   0  0  0  0  0  0  0  0  0  0  0  0
   50.2159    8.5370   11.5293 C   0  0  0  0  0  0  0  0  0  0  0  0
   48.3986    6.9314   20.3829 C   0  0  0  0  0  0  0  0  0  0  0  0
   51.7828    9.9334   12.6871 C   0  0  0  0  0  0  0  0  0  0  0  0
   47.5247    7.7354   21.0958 C   0  0  0  0  0  0  0  0  0  0  0  0
   51.2490    9.4683   11.4965 C   0  0  0  0  0  0  0  0  0  0  0  0
   49.2171   11.0732   19.2035 S   0  0  0  0  0  0  0  0  0  0  0  0
   49.3641    7.6233   14.8386 N   0  0  0  0  0  0  0  0  0  0  0  0
   49.3598    9.8805   14.0605 N   0  0  0  0  0  0  0  0  0  0  0  0
   49.3454    9.0072   15.0218 C   0  0  0  0  0  0  0  0  0  0  0  0
   49.2766    9.6463   16.3733 C   0  0  0  0  0  0  0  0  0  0  0  0
   48.2908    9.7409   18.6163 C   0  0  0  0  0  0  0  0  0  0  0  0
   48.4612    9.1621   17.3209 C   0  0  0  0  0  0  0  0  0  0  0  0
   49.3591    7.0983   13.4723 C   0  0  0  0  0  0  0  0  0  0  0  0
   49.3858    9.4078   12.6811 C   0  0  0  0  0  0  0  0  0  0  0  0
   48.6773    8.0769   12.5406 C   0  0  0  0  0  0  0  0  0  0  0  0
   47.3901    9.3307   19.5899 C   0  0  0  0  0  0  0  0  0  0  0  0
   50.0872    6.7641   15.7773 C   0  0  0  0  0  0  0  0  0  0  0  0
   48.4081   11.0894   20.7051 C   0  0  0  0  0  0  0  0  0  0  0  0
   47.4554   10.1016   20.7865 C   0  0  0  0  0  0  0  0  0  0  0  0
   49.1134   11.9134   15.7481 H   0  0  0  0  0  0  0  0  0  0  0  0
   47.4671    5.8816   16.1523 H   0  0  0  0  0  0  0  0  0  0  0  0
   47.7167   14.0193   16.2033 H   0  0  0  0  0  0  0  0  0  0  0  0
   45.9618    4.5803   12.7761 H   0  0  0  0  0  0  0  0  0  0  0  0
   50.5654    7.5174   17.0831 H   0  0  0  0  0  0  0  0  0  0  0  0
   51.1228    9.0153   16.5132 H   0  0  0  0  0  0  0  0  0  0  0  0
   46.7517   11.3754   19.5671 H   0  0  0  0  0  0  0  0  0  0  0  0
   48.2722    6.7828   11.7688 H   0  0  0  0  0  0  0  0  0  0  0  0
   49.6263    6.7145   18.6704 H   0  0  0  0  0  0  0  0  0  0  0  0
   51.7334    9.8791   14.8042 H   0  0  0  0  0  0  0  0  0  0  0  0
   46.5282    9.6221   21.1881 H   0  0  0  0  0  0  0  0  0  0  0  0
   49.8096    8.1825   10.5837 H   0  0  0  0  0  0  0  0  0  0  0  0
   48.6417    5.9349   20.7418 H   0  0  0  0  0  0  0  0  0  0  0  0
   52.5853   10.6661   12.6776 H   0  0  0  0  0  0  0  0  0  0  0  0
   47.0807    7.3768   22.0199 H   0  0  0  0  0  0  0  0  0  0  0  0
   51.6318    9.8283   10.5458 H   0  0  0  0  0  0  0  0  0  0  0  0
   49.8400   10.5668   16.4714 H   0  0  0  0  0  0  0  0  0  0  0  0
   47.8608    8.2831   17.0948 H   0  0  0  0  0  0  0  0  0  0  0  0
   48.8303    6.1388   13.4449 H   0  0  0  0  0  0  0  0  0  0  0  0
   50.3898    6.9199   13.1402 H   0  0  0  0  0  0  0  0  0  0  0  0
   48.8836   10.1482   12.0484 H   0  0  0  0  0  0  0  0  0  0  0  0
   50.4249    9.3423   12.3367 H   0  0  0  0  0  0  0  0  0  0  0  0
   47.6185    8.1823   12.8069 H   0  0  0  0  0  0  0  0  0  0  0  0
   48.7282    7.7216   11.5062 H   0  0  0  0  0  0  0  0  0  0  0  0
   46.7020    8.5058   19.4458 H   0  0  0  0  0  0  0  0  0  0  0  0
   49.9102    5.7060   15.5466 H   0  0  0  0  0  0  0  0  0  0  0  0
   51.1649    6.9529   15.7108 H   0  0  0  0  0  0  0  0  0  0  0  0
   49.7686    6.9116   16.8118 H   0  0  0  0  0  0  0  0  0  0  0  0
   48.6723   11.8201   21.4571 H   0  0  0  0  0  0  0  0  0  0  0  0
   46.8325    9.9413   21.6579 H   0  0  0  0  0  0  0  0  0  0  0  0
  1 11  1  0
  2 12  1  0
  3 22  2  0
  4 23  2  0
  5 22  1  0
  6 23  1  0
  7  9  1  0
  7 11  2  0
  7 13  1  0
  8 10  1  0
  8 12  2  0
  8 13  1  0
  9 14  2  0
  9 20  1  0
 10 15  2  0
 10 21  1  0
 11 16  1  0
 12 17  1  0
 14 18  1  0
 14 24  1  0
 15 19  1  0
 15 25  1  0
 16 18  2  0
 16 22  1  0
 17 19  2  0
 17 23  1  0
 20 26  2  0
 21 27  2  0
 24 28  2  0
 25 29  2  0
 26 28  1  0
 27 29  1  0
 30 35  1  0
 30 42  1  0
 31 33  1  0
 31 37  1  0
 31 41  1  0
 32 33  2  0
 32 38  1  0
 33 34  1  0
 34 36  2  0
 35 36  1  0
 35 40  2  0
 37 39  1  0
 38 39  1  0
 40 43  1  0
 42 43  2  0
  1 44  1  0
  2 45  1  0
  5 46  1  0
  6 47  1  0
 13 48  1  0
 13 49  1  0
 18 50  1  0
 19 51  1  0
 20 52  1  0
 21 53  1  0
 24 54  1  0
 25 55  1  0
 26 56  1  0
 27 57  1  0
 28 58  1  0
 29 59  1  0
 34 60  1  0
 36 61  1  0
 37 62  1  0
 37 63  1  0
 38 64  1  0
 38 65  1  0
 39 66  1  0
 39 67  1  0
 40 68  1  0
 41 69  1  0
 41 70  1  0
 41 71  1  0
 42 72  1  0
 43 73  1  0
M  END
> <Uni-Dock RESULT> 
ENERGY=   -5.731  LOWER_BOUND=    5.498  UPPER_BOUND=    8.214
INTER + INTRA:          -5.731
INTER:                  -5.731
INTRA:                   0.000
UNBOUND:                 0.000

$$$$

     RDKit          3D

 73 77  0  0  0  0  0  0  0  0999 V2000
   47.3783    7.3802   19.9677 O   0  0  0  0  0  0  0  0  0  0  0  0
   50.5233    9.0167   16.8207 O   0  0  0  0  0  0  0  0  0  0  0  0
   47.3975    9.8013   23.3614 O   0  0  0  0  0  0  0  0  0  0  0  0
   53.0743    8.4793   16.5800 O   0  0  0  0  0  0  0  0  0  0  0  0
   47.2799    7.7618   22.4724 O   0  0  0  0  0  0  0  0  0  0  0  0
   53.7459    6.3466   16.6841 O   0  0  0  0  0  0  0  0  0  0  0  0
   47.9327    9.2147   18.5601 C   0  0  0  0  0  0  0  0  0  0  0  0
   49.0418    7.2191   17.3180 C   0  0  0  0  0  0  0  0  0  0  0  0
   48.1717   10.6196   18.3911 C   0  0  0  0  0  0  0  0  0  0  0  0
   48.8163    5.8116   17.4830 C   0  0  0  0  0  0  0  0  0  0  0  0
   47.6782    8.7142   19.8575 C   0  0  0  0  0  0  0  0  0  0  0  0
   50.3528    7.6739   17.0531 C   0  0  0  0  0  0  0  0  0  0  0  0
   47.9060    8.2429   17.3780 C   0  0  0  0  0  0  0  0  0  0  0  0
   48.1780   11.4570   19.5382 C   0  0  0  0  0  0  0  0  0  0  0  0
   49.9244    4.9249   17.4060 C   0  0  0  0  0  0  0  0  0  0  0  0
   47.6990    9.5526   20.9801 C   0  0  0  0  0  0  0  0  0  0  0  0
   51.4357    6.7859   16.9963 C   0  0  0  0  0  0  0  0  0  0  0  0
   47.9521   10.9153   20.8081 C   0  0  0  0  0  0  0  0  0  0  0  0
   51.2128    5.4203   17.1765 C   0  0  0  0  0  0  0  0  0  0  0  0
   48.4034   11.2596   17.1471 C   0  0  0  0  0  0  0  0  0  0  0  0
   47.5512    5.2150   17.7162 C   0  0  0  0  0  0  0  0  0  0  0  0
   47.4505    9.0964   22.3714 C   0  0  0  0  0  0  0  0  0  0  0  0
   52.8005    7.3004   16.7368 C   0  0  0  0  0  0  0  0  0  0  0  0
   48.4074   12.8388   19.4180 C   0  0  0  0  0  0  0  0  0  0  0  0
   49.7457    3.5386   17.5548 C   0  0  0  0  0  0  0  0  0  0  0  0
   48.6295   12.6356   17.0400 C   0  0  0  0  0  0  0  0  0  0  0  0
   47.3869    3.8338   17.8616 C   0  0  0  0  0  0  0  0  0  0  0  0
   48.6310   13.4266   18.1769 C   0  0  0  0  0  0  0  0  0  0  0  0
   48.4853    2.9940   17.7793 C   0  0  0  0  0  0  0  0  0  0  0  0
   46.3416   10.4856   20.0992 S   0  0  0  0  0  0  0  0  0  0  0  0
   49.6211    7.0549   17.1921 N   0  0  0  0  0  0  0  0  0  0  0  0
   48.7745    5.9045   19.1052 N   0  0  0  0  0  0  0  0  0  0  0  0
   48.8655    6.9663   18.3627 C   0  0  0  0  0  0  0  0  0  0  0  0
   48.0855    8.1180   18.9147 C   0  0  0  0  0  0  0  0  0  0  0  0
   47.9561   10.4979   19.4901 C   0  0  0  0  0  0  0  0  0  0  0  0
   48.6056    9.3535   18.9329 C   0  0  0  0  0  0  0  0  0  0  0  0
   50.4062    5.8916   16.7763 C   0  0  0  0  0  0  0  0  0  0  0  0
   49.5139    4.7090   18.7168 C   0  0  0  0  0  0  0  0  0  0  0  0
   50.7904    5.0638   17.9836 C   0  0  0  0  0  0  0  0  0  0  0  0
   48.4951   11.7711   19.6162 C   0  0  0  0  0  0  0  0  0  0  0  0
   49.1417    7.8530   16.0627 C   0  0  0  0  0  0  0  0  0  0  0  0
   46.3944   12.1364   20.5254 C   0  0  0  0  0  0  0  0  0  0  0  0
   47.6028   12.7107   20.2090 C   0  0  0  0  0  0  0  0  0  0  0  0
   47.2994    7.1591   20.9195 H   0  0  0  0  0  0  0  0  0  0  0  0
   51.4789    9.2217   16.7323 H   0  0  0  0  0  0  0  0  0  0  0  0
   47.1439    7.6329   23.4383 H   0  0  0  0  0  0  0  0  0  0  0  0
   54.5783    6.8340   16.5092 H   0  0  0  0  0  0  0  0  0  0  0  0
   47.8969    8.7626   16.4154 H   0  0  0  0  0  0  0  0  0  0  0  0
   46.9208    7.7672   17.3828 H   0  0  0  0  0  0  0  0  0  0  0  0
   47.9630   11.5671   21.6812 H   0  0  0  0  0  0  0  0  0  0  0  0
   52.0511    4.7282   17.1278 H   0  0  0  0  0  0  0  0  0  0  0  0
   48.4332   10.6916   16.2219 H   0  0  0  0  0  0  0  0  0  0  0  0
   46.6543    5.8207   17.8072 H   0  0  0  0  0  0  0  0  0  0  0  0
   48.4131   13.4760   20.3008 H   0  0  0  0  0  0  0  0  0  0  0  0
   50.5969    2.8629   17.4925 H   0  0  0  0  0  0  0  0  0  0  0  0
   48.8104   13.0792   16.0646 H   0  0  0  0  0  0  0  0  0  0  0  0
   46.3971    3.4238   18.0435 H   0  0  0  0  0  0  0  0  0  0  0  0
   48.8085   14.4954   18.1002 H   0  0  0  0  0  0  0  0  0  0  0  0
   48.3646    1.9202   17.8908 H   0  0  0  0  0  0  0  0  0  0  0  0
   47.1454    7.8496   19.3821 H   0  0  0  0  0  0  0  0  0  0  0  0
   49.6017    9.5075   18.5225 H   0  0  0  0  0  0  0  0  0  0  0  0
   51.3125    6.2218   16.2562 H   0  0  0  0  0  0  0  0  0  0  0  0
   49.8226    5.2827   16.0741 H   0  0  0  0  0  0  0  0  0  0  0  0
   49.7669    4.1451   19.6217 H   0  0  0  0  0  0  0  0  0  0  0  0
   48.8713    4.0643   18.1053 H   0  0  0  0  0  0  0  0  0  0  0  0
   51.4576    5.6350   18.6407 H   0  0  0  0  0  0  0  0  0  0  0  0
   51.3210    4.1572   17.6746 H   0  0  0  0  0  0  0  0  0  0  0  0
   49.5009   12.0193   19.2975 H   0  0  0  0  0  0  0  0  0  0  0  0
   49.9019    7.8991   15.2727 H   0  0  0  0  0  0  0  0  0  0  0  0
   48.2355    7.4045   15.6393 H   0  0  0  0  0  0  0  0  0  0  0  0
   48.9239    8.8864   16.3418 H   0  0  0  0  0  0  0  0  0  0  0  0
   45.5358   12.6071   20.9842 H   0  0  0  0  0  0  0  0  0  0  0  0
   47.8383   13.7509   20.3967 H   0  0  0  0  0  0  0  0  0  0  0  0
  1 11  1  0
  2 12  1  0
  3 22  2  0
  4 23  2  0
  5 22  1  0
  6 23  1  0
  7  9  1  0
  7 11  2  0
  7 13  1  0
  8 10  1  0
  8 12  2  0
  8 13  1  0
  9 14  2  0
  9 20  1  0
 10 15  2  0
 10 21  1  0
 11 16  1  0
 12 17  1  0
 14 18  1  0
 14 24  1  0
 15 19  1  0
 15 25  1  0
 16 18  2  0
 16 22  1  0
 17 19  2  0
 17 23  1  0
 20 26  2  0
 21 27  2  0
 24 28  2  0
 25 29  2  0
 26 28  1  0
 27 29  1  0
 30 35  1  0
 30 42  1  0
 31 33  1  0
 31 37  1  0
 31 41  1  0
 32 33  2  0
 32 38  1  0
 33 34  1  0
 34 36  2  0
 35 36  1  0
 35 40  2  0
 37 39  1  0
 38 39  1  0
 40 43  1  0
 42 43  2  0
  1 44  1  0
  2 45  1  0
  5 46  1  0
  6 47  1  0
 13 48  1  0
 13 49  1  0
 18 50  1  0
 19 51  1  0
 20 52  1  0
 21 53  1  0
 24 54  1  0
 25 55  1  0
 26 56  1  0
 27 57  1  0
 28 58  1  0
 29 59  1  0
 34 60  1  0
 36 61  1  0
 37 62  1  0
 37 63  1  0
 38 64  1  0
 38 65  1  0
 39 66  1  0
 39 67  1  0
 40 68  1  0
 41 69  1  0
 41 70  1  0
 41 71  1  0
 42 72  1  0
 43 73  1  0
M  END
> <Uni-Dock RESULT> 
ENERGY=   -5.710  LOWER_BOUND=    7.597  UPPER_BOUND=    9.995
INTER + INTRA:          -5.710
INTER:                  -5.710
INTRA:                   0.000
UNBOUND:                 0.000

$$$$

     RDKit          3D

 73 77  0  0  0  0  0  0  0  0999 V2000
   51.3174    4.3086   17.9802 O   0  0  0  0  0  0  0  0  0  0  0  0
   52.9467    4.2418   22.4315 O   0  0  0  0  0  0  0  0  0  0  0  0
   47.3581    3.0053   17.9142 O   0  0  0  0  0  0  0  0  0  0  0  0
   54.0876    2.2954   23.7596 O   0  0  0  0  0  0  0  0  0  0  0  0
   49.3766    3.0264   16.9713 O   0  0  0  0  0  0  0  0  0  0  0  0
   55.7060    1.1102   22.7663 O   0  0  0  0  0  0  0  0  0  0  0  0
   51.0558    5.2425   20.1513 C   0  0  0  0  0  0  0  0  0  0  0  0
   53.5621    4.5538   20.1517 C   0  0  0  0  0  0  0  0  0  0  0  0
   50.2153    5.5659   21.2686 C   0  0  0  0  0  0  0  0  0  0  0  0
   54.4102    4.2218   19.0428 C   0  0  0  0  0  0  0  0  0  0  0  0
   50.5034    4.5310   19.0617 C   0  0  0  0  0  0  0  0  0  0  0  0
   53.7170    3.8472   21.3651 C   0  0  0  0  0  0  0  0  0  0  0  0
   52.5224    5.6745   20.0805 C   0  0  0  0  0  0  0  0  0  0  0  0
   48.8633    5.1310   21.2583 C   0  0  0  0  0  0  0  0  0  0  0  0
   55.3562    3.1716   19.1922 C   0  0  0  0  0  0  0  0  0  0  0  0
   49.1702    4.0998   19.0724 C   0  0  0  0  0  0  0  0  0  0  0  0
   54.6447    2.8039   21.4887 C   0  0  0  0  0  0  0  0  0  0  0  0
   48.3653    4.4021   20.1731 C   0  0  0  0  0  0  0  0  0  0  0  0
   55.4535    2.4731   20.4009 C   0  0  0  0  0  0  0  0  0  0  0  0
   50.6273    6.3036   22.4074 C   0  0  0  0  0  0  0  0  0  0  0  0
   54.3885    4.8713   17.7824 C   0  0  0  0  0  0  0  0  0  0  0  0
   48.5258    3.3415   17.9700 C   0  0  0  0  0  0  0  0  0  0  0  0
   54.7659    2.0707   22.7703 C   0  0  0  0  0  0  0  0  0  0  0  0
   48.0052    5.4265   22.3318 C   0  0  0  0  0  0  0  0  0  0  0  0
   56.2107    2.8197   18.1330 C   0  0  0  0  0  0  0  0  0  0  0  0
   49.7639    6.5923   23.4690 C   0  0  0  0  0  0  0  0  0  0  0  0
   55.2449    4.5119   16.7369 C   0  0  0  0  0  0  0  0  0  0  0  0
   48.4507    6.1536   23.4312 C   0  0  0  0  0  0  0  0  0  0  0  0
   56.1586    3.4857   16.9126 C   0  0  0  0  0  0  0  0  0  0  0  0
   48.7614    5.9131   19.2560 S   0  0  0  0  0  0  0  0  0  0  0  0
   53.8982    4.1414   20.4604 N   0  0  0  0  0  0  0  0  0  0  0  0
   53.2688    3.3302   18.3049 N   0  0  0  0  0  0  0  0  0  0  0  0
   53.0163    4.0026   19.3871 C   0  0  0  0  0  0  0  0  0  0  0  0
   51.6453    4.6026   19.3800 C   0  0  0  0  0  0  0  0  0  0  0  0
   49.5307    5.0505   20.5374 C   0  0  0  0  0  0  0  0  0  0  0  0
   50.8692    4.5545   20.4721 C   0  0  0  0  0  0  0  0  0  0  0  0
   55.1892    3.4545   20.3985 C   0  0  0  0  0  0  0  0  0  0  0  0
   54.5544    2.6526   18.1818 C   0  0  0  0  0  0  0  0  0  0  0  0
   55.0803    2.2175   19.5334 C   0  0  0  0  0  0  0  0  0  0  0  0
   48.6612    4.9358   21.6136 C   0  0  0  0  0  0  0  0  0  0  0  0
   53.9550    5.3963   21.2117 C   0  0  0  0  0  0  0  0  0  0  0  0
   47.3103    6.1000   20.1329 C   0  0  0  0  0  0  0  0  0  0  0  0
   47.3893    5.5357   21.3841 C   0  0  0  0  0  0  0  0  0  0  0  0
   50.8327    3.7471   17.3392 H   0  0  0  0  0  0  0  0  0  0  0  0
   53.0815    3.6289   23.1859 H   0  0  0  0  0  0  0  0  0  0  0  0
   48.8031    2.5266   16.3474 H   0  0  0  0  0  0  0  0  0  0  0  0
   55.6663    0.7227   23.6660 H   0  0  0  0  0  0  0  0  0  0  0  0
   52.7795    6.3952   20.8624 H   0  0  0  0  0  0  0  0  0  0  0  0
   52.6296    6.2806   19.1761 H   0  0  0  0  0  0  0  0  0  0  0  0
   47.3273    4.0706   20.1780 H   0  0  0  0  0  0  0  0  0  0  0  0
   56.1782    1.6669   20.4958 H   0  0  0  0  0  0  0  0  0  0  0  0
   51.6489    6.6590   22.5051 H   0  0  0  0  0  0  0  0  0  0  0  0
   53.6842    5.6721   17.5770 H   0  0  0  0  0  0  0  0  0  0  0  0
   46.9701    5.0891   22.3198 H   0  0  0  0  0  0  0  0  0  0  0  0
   56.9356    2.0165   18.2527 H   0  0  0  0  0  0  0  0  0  0  0  0
   50.1285    7.1546   24.3246 H   0  0  0  0  0  0  0  0  0  0  0  0
   55.1877    5.0368   15.7871 H   0  0  0  0  0  0  0  0  0  0  0  0
   47.7763    6.3726   24.2539 H   0  0  0  0  0  0  0  0  0  0  0  0
   56.8271    3.2019   16.1048 H   0  0  0  0  0  0  0  0  0  0  0  0
   51.3107    4.9635   18.4145 H   0  0  0  0  0  0  0  0  0  0  0  0
   51.2616    4.0848   21.3720 H   0  0  0  0  0  0  0  0  0  0  0  0
   55.5063    3.1679   21.4077 H   0  0  0  0  0  0  0  0  0  0  0  0
   55.9501    4.1320   19.9905 H   0  0  0  0  0  0  0  0  0  0  0  0
   54.4240    1.7683   17.5479 H   0  0  0  0  0  0  0  0  0  0  0  0
   55.2675    3.3114   17.6719 H   0  0  0  0  0  0  0  0  0  0  0  0
   54.3957    1.4921   19.9900 H   0  0  0  0  0  0  0  0  0  0  0  0
   56.0576    1.7349   19.4286 H   0  0  0  0  0  0  0  0  0  0  0  0
   48.9281    4.4323   22.5356 H   0  0  0  0  0  0  0  0  0  0  0  0
   54.6186    5.2964   22.0799 H   0  0  0  0  0  0  0  0  0  0  0  0
   54.3421    6.2012   20.5762 H   0  0  0  0  0  0  0  0  0  0  0  0
   52.9796    5.6961   21.6018 H   0  0  0  0  0  0  0  0  0  0  0  0
   46.4704    6.6175   19.6901 H   0  0  0  0  0  0  0  0  0  0  0  0
   46.5753    5.5477   22.0983 H   0  0  0  0  0  0  0  0  0  0  0  0
  1 11  1  0
  2 12  1  0
  3 22  2  0
  4 23  2  0
  5 22  1  0
  6 23  1  0
  7  9  1  0
  7 11  2  0
  7 13  1  0
  8 10  1  0
  8 12  2  0
  8 13  1  0
  9 14  2  0
  9 20  1  0
 10 15  2  0
 10 21  1  0
 11 16  1  0
 12 17  1  0
 14 18  1  0
 14 24  1  0
 15 19  1  0
 15 25  1  0
 16 18  2  0
 16 22  1  0
 17 19  2  0
 17 23  1  0
 20 26  2  0
 21 27  2  0
 24 28  2  0
 25 29  2  0
 26 28  1  0
 27 29  1  0
 30 35  1  0
 30 42  1  0
 31 33  1  0
 31 37  1  0
 31 41  1  0
 32 33  2  0
 32 38  1  0
 33 34  1  0
 34 36  2  0
 35 36  1  0
 35 40  2  0
 37 39  1  0
 38 39  1  0
 40 43  1  0
 42 43  2  0
  1 44  1  0
  2 45  1  0
  5 46  1  0
  6 47  1  0
 13 48  1  0
 13 49  1  0
 18 50  1  0
 19 51  1  0
 20 52  1  0
 21 53  1  0
 24 54  1  0
 25 55  1  0
 26 56  1  0
 27 57  1  0
 28 58  1  0
 29 59  1  0
 34 60  1  0
 36 61  1  0
 37 62  1  0
 37 63  1  0
 38 64  1  0
 38 65  1  0
 39 66  1  0
 39 67  1  0
 40 68  1  0
 41 69  1  0
 41 70  1  0
 41 71  1  0
 42 72  1  0
 43 73  1  0
M  END
> <Uni-Dock RESULT> 
ENERGY=   -5.651  LOWER_BOUND=   10.738  UPPER_BOUND=   14.206
INTER + INTRA:          -5.651
INTER:                  -5.651
INTRA:                   0.000
UNBOUND:                 0.000

$$$$

     RDKit          3D

 73 77  0  0  0  0  0  0  0  0999 V2000
   48.8447   11.1370   16.4297 O   0  0  0  0  0  0  0  0  0  0  0  0
   47.9888    6.5947   15.3768 O   0  0  0  0  0  0  0  0  0  0  0  0
   46.4511   12.3108   19.6346 O   0  0  0  0  0  0  0  0  0  0  0  0
   46.1964    5.5655   13.7697 O   0  0  0  0  0  0  0  0  0  0  0  0
   47.3759   12.7932   17.6659 O   0  0  0  0  0  0  0  0  0  0  0  0
   45.9210    6.4639   11.7381 O   0  0  0  0  0  0  0  0  0  0  0  0
   48.9713    8.9051   17.2404 C   0  0  0  0  0  0  0  0  0  0  0  0
   49.1305    8.5616   14.6689 C   0  0  0  0  0  0  0  0  0  0  0  0
   48.6742    7.9368   18.2569 C   0  0  0  0  0  0  0  0  0  0  0  0
   49.4198    9.5225   13.6431 C   0  0  0  0  0  0  0  0  0  0  0  0
   48.4751   10.2213   17.3818 C   0  0  0  0  0  0  0  0  0  0  0  0
   48.1848    7.5458   14.4056 C   0  0  0  0  0  0  0  0  0  0  0  0
   49.8400    8.5728   16.0248 C   0  0  0  0  0  0  0  0  0  0  0  0
   47.8624    8.3236   19.3562 C   0  0  0  0  0  0  0  0  0  0  0  0
   48.7219    9.4392   12.4077 C   0  0  0  0  0  0  0  0  0  0  0  0
   47.6663   10.5835   18.4673 C   0  0  0  0  0  0  0  0  0  0  0  0
   47.4950    7.4890   13.1868 C   0  0  0  0  0  0  0  0  0  0  0  0
   47.3661    9.6287   19.4416 C   0  0  0  0  0  0  0  0  0  0  0  0
   47.7669    8.4376   12.2003 C   0  0  0  0  0  0  0  0  0  0  0  0
   49.1359    6.5960   18.2604 C   0  0  0  0  0  0  0  0  0  0  0  0
   50.3692   10.5696   13.7573 C   0  0  0  0  0  0  0  0  0  0  0  0
   47.1029   11.9416   18.6762 C   0  0  0  0  0  0  0  0  0  0  0  0
   46.4947    6.4217   12.9527 C   0  0  0  0  0  0  0  0  0  0  0  0
   47.5473    7.4070   20.3745 C   0  0  0  0  0  0  0  0  0  0  0  0
   48.9807   10.3563   11.3743 C   0  0  0  0  0  0  0  0  0  0  0  0
   48.8165    5.6935   19.2798 C   0  0  0  0  0  0  0  0  0  0  0  0
   50.6178   11.4750   12.7210 C   0  0  0  0  0  0  0  0  0  0  0  0
   48.0215    6.0995   20.3388 C   0  0  0  0  0  0  0  0  0  0  0  0
   49.9238   11.3676   11.5270 C   0  0  0  0  0  0  0  0  0  0  0  0
   49.1240   10.0601   19.5115 S   0  0  0  0  0  0  0  0  0  0  0  0
   48.7722    8.2985   14.2438 N   0  0  0  0  0  0  0  0  0  0  0  0
   48.4741   10.6665   14.3055 N   0  0  0  0  0  0  0  0  0  0  0  0
   48.6860    9.5296   14.8965 C   0  0  0  0  0  0  0  0  0  0  0  0
   48.8027    9.6709   16.3818 C   0  0  0  0  0  0  0  0  0  0  0  0
   48.2089    8.8925   18.6298 C   0  0  0  0  0  0  0  0  0  0  0  0
   48.1973    8.8018   17.2038 C   0  0  0  0  0  0  0  0  0  0  0  0
   48.5722    8.2597   12.7943 C   0  0  0  0  0  0  0  0  0  0  0  0
   48.2986   10.6848   12.8578 C   0  0  0  0  0  0  0  0  0  0  0  0
   47.6736    9.3980   12.3616 C   0  0  0  0  0  0  0  0  0  0  0  0
   47.5188    8.0733   19.5130 C   0  0  0  0  0  0  0  0  0  0  0  0
   49.7041    7.2747   14.7188 C   0  0  0  0  0  0  0  0  0  0  0  0
   48.5833    9.4762   21.0203 C   0  0  0  0  0  0  0  0  0  0  0  0
   47.7315    8.4059   20.8822 C   0  0  0  0  0  0  0  0  0  0  0  0
   48.3738   11.9776   16.6104 H   0  0  0  0  0  0  0  0  0  0  0  0
   47.2559    5.9966   15.1156 H   0  0  0  0  0  0  0  0  0  0  0  0
   46.9280   13.6209   17.9528 H   0  0  0  0  0  0  0  0  0  0  0  0
   45.2949    5.7095   11.7348 H   0  0  0  0  0  0  0  0  0  0  0  0
   50.3425    7.6065   16.1273 H   0  0  0  0  0  0  0  0  0  0  0  0
   50.6861    9.2660   16.0426 H   0  0  0  0  0  0  0  0  0  0  0  0
   46.7413    9.9129   20.2878 H   0  0  0  0  0  0  0  0  0  0  0  0
   47.2365    8.3927   11.2512 H   0  0  0  0  0  0  0  0  0  0  0  0
   49.7471    6.2120   17.4490 H   0  0  0  0  0  0  0  0  0  0  0  0
   50.9335   10.7166   14.6735 H   0  0  0  0  0  0  0  0  0  0  0  0
   46.9230    7.7082   21.2141 H   0  0  0  0  0  0  0  0  0  0  0  0
   48.4457   10.2871   10.4288 H   0  0  0  0  0  0  0  0  0  0  0  0
   49.1878    4.6731   19.2342 H   0  0  0  0  0  0  0  0  0  0  0  0
   51.3525   12.2640   12.8576 H   0  0  0  0  0  0  0  0  0  0  0  0
   47.7681    5.4023   21.1321 H   0  0  0  0  0  0  0  0  0  0  0  0
   50.1124   12.0673   10.7178 H   0  0  0  0  0  0  0  0  0  0  0  0
   49.3073   10.5698   16.7159 H   0  0  0  0  0  0  0  0  0  0  0  0
   47.6316    7.9794   16.7702 H   0  0  0  0  0  0  0  0  0  0  0  0
   48.1164    7.3051   12.5076 H   0  0  0  0  0  0  0  0  0  0  0  0
   49.5414    8.3321   12.2845 H   0  0  0  0  0  0  0  0  0  0  0  0
   47.6444   11.5239   12.5956 H   0  0  0  0  0  0  0  0  0  0  0  0
   49.2659   10.8681   12.3747 H   0  0  0  0  0  0  0  0  0  0  0  0
   46.6707    9.2754   12.7888 H   0  0  0  0  0  0  0  0  0  0  0  0
   47.5729    9.4148   11.2714 H   0  0  0  0  0  0  0  0  0  0  0  0
   46.8770    7.2634   19.1863 H   0  0  0  0  0  0  0  0  0  0  0  0
   49.5665    6.3395   14.1616 H   0  0  0  0  0  0  0  0  0  0  0  0
   50.7384    7.6085   14.5766 H   0  0  0  0  0  0  0  0  0  0  0  0
   49.5565    7.0300   15.7732 H   0  0  0  0  0  0  0  0  0  0  0  0
   48.9188    9.9435   21.9359 H   0  0  0  0  0  0  0  0  0  0  0  0
   47.2792    7.8893   21.7196 H   0  0  0  0  0  0  0  0  0  0  0  0
  1 11  1  0
  2 12  1  0
  3 22  2  0
  4 23  2  0
  5 22  1  0
  6 23  1  0
  7  9  1  0
  7 11  2  0
  7 13  1  0
  8 10  1  0
  8 12  2  0
  8 13  1  0
  9 14  2  0
  9 20  1  0
 10 15  2  0
 10 21  1  0
 11 16  1  0
 12 17  1  0
 14 18  1  0
 14 24  1  0
 15 19  1  0
 15 25  1  0
 16 18  2  0
 16 22  1  0
 17 19  2  0
 17 23  1  0
 20 26  2  0
 21 27  2  0
 24 28  2  0
 25 29  2  0
 26 28  1  0
 27 29  1  0
 30 35  1  0
 30 42  1  0
 31 33  1  0
 31 37  1  0
 31 41  1  0
 32 33  2  0
 32 38  1  0
 33 34  1  0
 34 36  2  0
 35 36  1  0
 35 40  2  0
 37 39  1  0
 38 39  1  0
 40 43  1  0
 42 43  2  0
  1 44  1  0
  2 45  1  0
  5 46  1  0
  6 47  1  0
 13 48  1  0
 13 49  1  0
 18 50  1  0
 19 51  1  0
 20 52  1  0
 21 53  1  0
 24 54  1  0
 25 55  1  0
 26 56  1  0
 27 57  1  0
 28 58  1  0
 29 59  1  0
 34 60  1  0
 36 61  1  0
 37 62  1  0
 37 63  1  0
 38 64  1  0
 38 65  1  0
 39 66  1  0
 39 67  1  0
 40 68  1  0
 41 69  1  0
 41 70  1  0
 41 71  1  0
 42 72  1  0
 43 73  1  0
M  END
> <Uni-Dock RESULT> 
ENERGY=   -5.645  LOWER_BOUND=    4.453  UPPER_BOUND=    7.544
INTER + INTRA:          -5.645
INTER:                  -5.645
INTRA:                   0.000
UNBOUND:                 0.000

$$$$

     RDKit          3D

 73 77  0  0  0  0  0  0  0  0999 V2000
   48.7609    5.7324   16.0860 O   0  0  0  0  0  0  0  0  0  0  0  0
   48.2589   10.1861   17.6305 O   0  0  0  0  0  0  0  0  0  0  0  0
   46.3915    5.1423   12.7072 O   0  0  0  0  0  0  0  0  0  0  0  0
   46.5049   11.1840   19.2984 O   0  0  0  0  0  0  0  0  0  0  0  0
   47.2011    4.3622   14.6307 O   0  0  0  0  0  0  0  0  0  0  0  0
   46.0815   10.0919   21.2059 O   0  0  0  0  0  0  0  0  0  0  0  0
   49.1064    8.0208   15.5402 C   0  0  0  0  0  0  0  0  0  0  0  0
   49.2026    8.0587   18.1373 C   0  0  0  0  0  0  0  0  0  0  0  0
   48.9295    9.1195   14.6341 C   0  0  0  0  0  0  0  0  0  0  0  0
   49.3720    6.9671   19.0533 C   0  0  0  0  0  0  0  0  0  0  0  0
   48.5049    6.7781   15.2360 C   0  0  0  0  0  0  0  0  0  0  0  0
   48.3383    9.1186   18.4910 C   0  0  0  0  0  0  0  0  0  0  0  0
   49.9564    8.1364   16.8078 C   0  0  0  0  0  0  0  0  0  0  0  0
   48.1273    8.9319   13.4772 C   0  0  0  0  0  0  0  0  0  0  0  0
   48.6403    6.9732   20.2717 C   0  0  0  0  0  0  0  0  0  0  0  0
   47.7074    6.6131   14.0957 C   0  0  0  0  0  0  0  0  0  0  0  0
   47.6129    9.0996   19.6901 C   0  0  0  0  0  0  0  0  0  0  0  0
   47.5247    7.6939   13.2300 C   0  0  0  0  0  0  0  0  0  0  0  0
   47.7675    8.0261   20.5680 C   0  0  0  0  0  0  0  0  0  0  0  0
   49.5038   10.4058   14.7962 C   0  0  0  0  0  0  0  0  0  0  0  0
   50.2320    5.8592   18.8441 C   0  0  0  0  0  0  0  0  0  0  0  0
   47.0379    5.3425   13.7181 C   0  0  0  0  0  0  0  0  0  0  0  0
   46.6997   10.2187   20.0192 C   0  0  0  0  0  0  0  0  0  0  0  0
   47.9281    9.9811   12.5629 C   0  0  0  0  0  0  0  0  0  0  0  0
   48.7828    5.9268   21.1994 C   0  0  0  0  0  0  0  0  0  0  0  0
   49.2991   11.4417   13.8792 C   0  0  0  0  0  0  0  0  0  0  0  0
   50.3653    4.8249   19.7759 C   0  0  0  0  0  0  0  0  0  0  0  0
   48.5106   11.2291   12.7605 C   0  0  0  0  0  0  0  0  0  0  0  0
   49.6410    4.8592   20.9560 C   0  0  0  0  0  0  0  0  0  0  0  0
   49.2407    7.1185   13.1563 S   0  0  0  0  0  0  0  0  0  0  0  0
   48.8531    8.3033   18.5804 N   0  0  0  0  0  0  0  0  0  0  0  0
   48.3563    5.9930   18.2399 N   0  0  0  0  0  0  0  0  0  0  0  0
   48.6854    7.1656   17.7888 C   0  0  0  0  0  0  0  0  0  0  0  0
   48.8425    7.1818   16.3006 C   0  0  0  0  0  0  0  0  0  0  0  0
   48.3979    8.2567   14.1422 C   0  0  0  0  0  0  0  0  0  0  0  0
   48.3432    8.1878   15.5685 C   0  0  0  0  0  0  0  0  0  0  0  0
   48.6056    8.1972   20.0192 C   0  0  0  0  0  0  0  0  0  0  0  0
   48.1285    5.8284   19.6710 C   0  0  0  0  0  0  0  0  0  0  0  0
   47.5983    7.1020   20.2952 C   0  0  0  0  0  0  0  0  0  0  0  0
   47.8121    9.2277   13.3413 C   0  0  0  0  0  0  0  0  0  0  0  0
   49.8854    9.2870   18.2501 C   0  0  0  0  0  0  0  0  0  0  0  0
   48.8060    7.9135   11.7110 C   0  0  0  0  0  0  0  0  0  0  0  0
   48.0443    9.0329   11.9490 C   0  0  0  0  0  0  0  0  0  0  0  0
   48.2266    4.9625   15.7981 H   0  0  0  0  0  0  0  0  0  0  0  0
   47.5710   10.8140   17.9397 H   0  0  0  0  0  0  0  0  0  0  0  0
   46.6946    3.6149   14.2394 H   0  0  0  0  0  0  0  0  0  0  0  0
   45.5224   10.8938   21.2795 H   0  0  0  0  0  0  0  0  0  0  0  0
   50.5429    9.0596   16.8297 H   0  0  0  0  0  0  0  0  0  0  0  0
   50.7404    7.3771   16.7323 H   0  0  0  0  0  0  0  0  0  0  0  0
   46.9085    7.5629   12.3409 H   0  0  0  0  0  0  0  0  0  0  0  0
   47.2094    8.0114   21.5020 H   0  0  0  0  0  0  0  0  0  0  0  0
   50.1163   10.6408   15.6618 H   0  0  0  0  0  0  0  0  0  0  0  0
   50.8141    5.7661   17.9319 H   0  0  0  0  0  0  0  0  0  0  0  0
   47.3107    9.8326   11.6786 H   0  0  0  0  0  0  0  0  0  0  0  0
   48.2223    5.9369   22.1326 H   0  0  0  0  0  0  0  0  0  0  0  0
   49.7544   12.4134   14.0510 H   0  0  0  0  0  0  0  0  0  0  0  0
   51.0344    3.9940   19.5686 H   0  0  0  0  0  0  0  0  0  0  0  0
   48.3461   12.0305   12.0462 H   0  0  0  0  0  0  0  0  0  0  0  0
   49.7402    4.0593   21.6842 H   0  0  0  0  0  0  0  0  0  0  0  0
   49.2801    6.2846   15.8787 H   0  0  0  0  0  0  0  0  0  0  0  0
   47.8347    9.0034   16.0788 H   0  0  0  0  0  0  0  0  0  0  0  0
   48.2231    9.1504   20.4016 H   0  0  0  0  0  0  0  0  0  0  0  0
   49.5463    7.9823   20.5420 H   0  0  0  0  0  0  0  0  0  0  0  0
   47.3960    5.0268   19.8184 H   0  0  0  0  0  0  0  0  0  0  0  0
   49.0587    5.5070   20.1546 H   0  0  0  0  0  0  0  0  0  0  0  0
   46.6254    7.3603   19.8593 H   0  0  0  0  0  0  0  0  0  0  0  0
   47.4578    6.9722   21.3734 H   0  0  0  0  0  0  0  0  0  0  0  0
   47.2305   10.0498   13.7422 H   0  0  0  0  0  0  0  0  0  0  0  0
   49.8084   10.1624   18.9072 H   0  0  0  0  0  0  0  0  0  0  0  0
   50.8817    8.8488   18.3796 H   0  0  0  0  0  0  0  0  0  0  0  0
   49.7968    9.6604   17.2273 H   0  0  0  0  0  0  0  0  0  0  0  0
   49.1328    7.5237   10.7567 H   0  0  0  0  0  0  0  0  0  0  0  0
   47.6679    9.6783   11.1650 H   0  0  0  0  0  0  0  0  0  0  0  0
  1 11  1  0
  2 12  1  0
  3 22  2  0
  4 23  2  0
  5 22  1  0
  6 23  1  0
  7  9  1  0
  7 11  2  0
  7 13  1  0
  8 10  1  0
  8 12  2  0
  8 13  1  0
  9 14  2  0
  9 20  1  0
 10 15  2  0
 10 21  1  0
 11 16  1  0
 12 17  1  0
 14 18  1  0
 14 24  1  0
 15 19  1  0
 15 25  1  0
 16 18  2  0
 16 22  1  0
 17 19  2  0
 17 23  1  0
 20 26  2  0
 21 27  2  0
 24 28  2  0
 25 29  2  0
 26 28  1  0
 27 29  1  0
 30 35  1  0
 30 42  1  0
 31 33  1  0
 31 37  1  0
 31 41  1  0
 32 33  2  0
 32 38  1  0
 33 34  1  0
 34 36  2  0
 35 36  1  0
 35 40  2  0
 37 39  1  0
 38 39  1  0
 40 43  1  0
 42 43  2  0
  1 44  1  0
  2 45  1  0
  5 46  1  0
  6 47  1  0
 13 48  1  0
 13 49  1  0
 18 50  1  0
 19 51  1  0
 20 52  1  0
 21 53  1  0
 24 54  1  0
 25 55  1  0
 26 56  1  0
 27 57  1  0
 28 58  1  0
 29 59  1  0
 34 60  1  0
 36 61  1  0
 37 62  1  0
 37 63  1  0
 38 64  1  0
 38 65  1  0
 39 66  1  0
 39 67  1  0
 40 68  1  0
 41 69  1  0
 41 70  1  0
 41 71  1  0
 42 72  1  0
 43 73  1  0
M  END
> <Uni-Dock RESULT> 
ENERGY=   -5.252  LOWER_BOUND=    5.002  UPPER_BOUND=    8.846
INTER + INTRA:          -5.252
INTER:                  -5.252
INTRA:                   0.000
UNBOUND:                 0.000

$$$$

     RDKit          3D

 73 77  0  0  0  0  0  0  0  0999 V2000
   49.7335    9.1727   16.4160 O   0  0  0  0  0  0  0  0  0  0  0  0
   46.8699    6.3630   13.8905 O   0  0  0  0  0  0  0  0  0  0  0  0
   48.5515    9.1535   20.4137 O   0  0  0  0  0  0  0  0  0  0  0  0
   44.6039    6.9253   12.7058 O   0  0  0  0  0  0  0  0  0  0  0  0
   49.3084   10.2889   18.6525 O   0  0  0  0  0  0  0  0  0  0  0  0
   44.4602    8.7875   11.4722 O   0  0  0  0  0  0  0  0  0  0  0  0
   49.0002    6.9319   16.1073 C   0  0  0  0  0  0  0  0  0  0  0  0
   48.6349    7.9559   13.7464 C   0  0  0  0  0  0  0  0  0  0  0  0
   48.4611    5.7180   16.6505 C   0  0  0  0  0  0  0  0  0  0  0  0
   49.1625    9.1710   13.1948 C   0  0  0  0  0  0  0  0  0  0  0  0
   49.1433    8.0564   16.9519 C   0  0  0  0  0  0  0  0  0  0  0  0
   47.3177    7.5699   13.4120 C   0  0  0  0  0  0  0  0  0  0  0  0
   49.4621    7.0409   14.6521 C   0  0  0  0  0  0  0  0  0  0  0  0
   48.0571    5.6960   18.0120 C   0  0  0  0  0  0  0  0  0  0  0  0
   48.3314    9.9620   12.3558 C   0  0  0  0  0  0  0  0  0  0  0  0
   48.7295    8.0211   18.2902 C   0  0  0  0  0  0  0  0  0  0  0  0
   46.5076    8.3708   12.5956 C   0  0  0  0  0  0  0  0  0  0  0  0
   48.1875    6.8412   18.8048 C   0  0  0  0  0  0  0  0  0  0  0  0
   47.0200    9.5608   12.0776 C   0  0  0  0  0  0  0  0  0  0  0  0
   48.2970    4.5084   15.9289 C   0  0  0  0  0  0  0  0  0  0  0  0
   50.4755    9.6588   13.4159 C   0  0  0  0  0  0  0  0  0  0  0  0
   48.8400    9.1641   19.2320 C   0  0  0  0  0  0  0  0  0  0  0  0
   45.1237    7.9449   12.2822 C   0  0  0  0  0  0  0  0  0  0  0  0
   47.5245    4.5279   18.5848 C   0  0  0  0  0  0  0  0  0  0  0  0
   48.8119   11.1554   11.7895 C   0  0  0  0  0  0  0  0  0  0  0  0
   47.7666    3.3522   16.5100 C   0  0  0  0  0  0  0  0  0  0  0  0
   50.9416   10.8476   12.8456 C   0  0  0  0  0  0  0  0  0  0  0  0
   47.3802    3.3615   17.8400 C   0  0  0  0  0  0  0  0  0  0  0  0
   50.1093   11.5964   12.0299 C   0  0  0  0  0  0  0  0  0  0  0  0
   49.9507    6.6174   18.4553 S   0  0  0  0  0  0  0  0  0  0  0  0
   48.1427    8.0769   13.3979 N   0  0  0  0  0  0  0  0  0  0  0  0
   48.9035   10.0215   14.5555 N   0  0  0  0  0  0  0  0  0  0  0  0
   48.6864    8.7423   14.4983 C   0  0  0  0  0  0  0  0  0  0  0  0
   49.0590    8.0423   15.7674 C   0  0  0  0  0  0  0  0  0  0  0  0
   48.5092    6.4249   17.5263 C   0  0  0  0  0  0  0  0  0  0  0  0
   48.2603    7.1025   16.2931 C   0  0  0  0  0  0  0  0  0  0  0  0
   47.7448    8.8650   12.2304 C   0  0  0  0  0  0  0  0  0  0  0  0
   48.5524   10.8467   13.4054 C   0  0  0  0  0  0  0  0  0  0  0  0
   47.3722   10.2698   12.6523 C   0  0  0  0  0  0  0  0  0  0  0  0
   47.6650    5.5183   18.1531 C   0  0  0  0  0  0  0  0  0  0  0  0
   48.6001    6.7311   13.0490 C   0  0  0  0  0  0  0  0  0  0  0  0
   49.4285    5.5258   19.6574 C   0  0  0  0  0  0  0  0  0  0  0  0
   48.1892    5.0025   19.3736 C   0  0  0  0  0  0  0  0  0  0  0  0
   49.7001    9.8901   17.0832 H   0  0  0  0  0  0  0  0  0  0  0  0
   45.9225    6.2444   13.6636 H   0  0  0  0  0  0  0  0  0  0  0  0
   49.3049   10.9335   19.3958 H   0  0  0  0  0  0  0  0  0  0  0  0
   43.5770    8.3772   11.3598 H   0  0  0  0  0  0  0  0  0  0  0  0
   49.5092    6.0655   14.1589 H   0  0  0  0  0  0  0  0  0  0  0  0
   50.5174    7.3284   14.6767 H   0  0  0  0  0  0  0  0  0  0  0  0
   47.8708    6.8134   19.8470 H   0  0  0  0  0  0  0  0  0  0  0  0
   46.3948   10.1820   11.4392 H   0  0  0  0  0  0  0  0  0  0  0  0
   48.5635    4.4425   14.8781 H   0  0  0  0  0  0  0  0  0  0  0  0
   51.1702    9.1260   14.0586 H   0  0  0  0  0  0  0  0  0  0  0  0
   47.2145    4.5170   19.6284 H   0  0  0  0  0  0  0  0  0  0  0  0
   48.1728   11.7567   11.1454 H   0  0  0  0  0  0  0  0  0  0  0  0
   47.6528    2.4509   15.9135 H   0  0  0  0  0  0  0  0  0  0  0  0
   51.9552   11.1828   13.0482 H   0  0  0  0  0  0  0  0  0  0  0  0
   46.9654    2.4673   18.2961 H   0  0  0  0  0  0  0  0  0  0  0  0
   50.4652   12.5205   11.5833 H   0  0  0  0  0  0  0  0  0  0  0  0
   49.9423    8.4313   16.2602 H   0  0  0  0  0  0  0  0  0  0  0  0
   47.3416    6.8449   15.7698 H   0  0  0  0  0  0  0  0  0  0  0  0
   46.8878    8.3921   11.7375 H   0  0  0  0  0  0  0  0  0  0  0  0
   48.5691    8.8968   11.5065 H   0  0  0  0  0  0  0  0  0  0  0  0
   48.2929   11.8501   13.7614 H   0  0  0  0  0  0  0  0  0  0  0  0
   49.4263   10.9535   12.7517 H   0  0  0  0  0  0  0  0  0  0  0  0
   46.4847   10.2515   13.2968 H   0  0  0  0  0  0  0  0  0  0  0  0
   47.1371   10.8842   11.7769 H   0  0  0  0  0  0  0  0  0  0  0  0
   46.6986    5.2378   17.7506 H   0  0  0  0  0  0  0  0  0  0  0  0
   47.9974    6.3191   12.2298 H   0  0  0  0  0  0  0  0  0  0  0  0
   49.6463    6.7591   12.7231 H   0  0  0  0  0  0  0  0  0  0  0  0
   48.5107    6.0289   13.8810 H   0  0  0  0  0  0  0  0  0  0  0  0
   50.0567    5.3176   20.5126 H   0  0  0  0  0  0  0  0  0  0  0  0
   47.6808    4.2892   20.0103 H   0  0  0  0  0  0  0  0  0  0  0  0
  1 11  1  0
  2 12  1  0
  3 22  2  0
  4 23  2  0
  5 22  1  0
  6 23  1  0
  7  9  1  0
  7 11  2  0
  7 13  1  0
  8 10  1  0
  8 12  2  0
  8 13  1  0
  9 14  2  0
  9 20  1  0
 10 15  2  0
 10 21  1  0
 11 16  1  0
 12 17  1  0
 14 18  1  0
 14 24  1  0
 15 19  1  0
 15 25  1  0
 16 18  2  0
 16 22  1  0
 17 19  2  0
 17 23  1  0
 20 26  2  0
 21 27  2  0
 24 28  2  0
 25 29  2  0
 26 28  1  0
 27 29  1  0
 30 35  1  0
 30 42  1  0
 31 33  1  0
 31 37  1  0
 31 41  1  0
 32 33  2  0
 32 38  1  0
 33 34  1  0
 34 36  2  0
 35 36  1  0
 35 40  2  0
 37 39  1  0
 38 39  1  0
 40 43  1  0
 42 43  2  0
  1 44  1  0
  2 45  1  0
  5 46  1  0
  6 47  1  0
 13 48  1  0
 13 49  1  0
 18 50  1  0
 19 51  1  0
 20 52  1  0
 21 53  1  0
 24 54  1  0
 25 55  1  0
 26 56  1  0
 27 57  1  0
 28 58  1  0
 29 59  1  0
 34 60  1  0
 36 61  1  0
 37 62  1  0
 37 63  1  0
 38 64  1  0
 38 65  1  0
 39 66  1  0
 39 67  1  0
 40 68  1  0
 41 69  1  0
 41 70  1  0
 41 71  1  0
 42 72  1  0
 43 73  1  0
M  END
> <Uni-Dock RESULT> 
ENERGY=   -5.156  LOWER_BOUND=    3.956  UPPER_BOUND=    7.124
INTER + INTRA:          -5.156
INTER:                  -5.156
INTRA:                   0.000
UNBOUND:                 0.000

$$$$
