
     RDKit          3D

 73 77  0  0  0  0  0  0  0  0999 V2000
   48.6313   10.5356   19.6573 O   0  0  0  0  0  0  0  0  0  0  0  0
   51.0353    8.2356   19.9748 O   0  0  0  0  0  0  0  0  0  0  0  0
   48.5238   12.4240   23.3785 O   0  0  0  0  0  0  0  0  0  0  0  0
   54.0847    5.4098   19.6600 O   0  0  0  0  0  0  0  0  0  0  0  0
   48.8530   12.5531   21.1786 O   0  0  0  0  0  0  0  0  0  0  0  0
   53.4154    7.4358   20.3026 O   0  0  0  0  0  0  0  0  0  0  0  0
   48.2260    8.4089   20.6498 C   0  0  0  0  0  0  0  0  0  0  0  0
   49.4374    6.7240   19.0591 C   0  0  0  0  0  0  0  0  0  0  0  0
   47.9071    7.6197   21.8002 C   0  0  0  0  0  0  0  0  0  0  0  0
   49.1429    5.4718   18.4204 C   0  0  0  0  0  0  0  0  0  0  0  0
   48.4123    9.8026   20.7982 C   0  0  0  0  0  0  0  0  0  0  0  0
   50.7665    6.9918   19.4637 C   0  0  0  0  0  0  0  0  0  0  0  0
   48.3553    7.7909   19.2558 C   0  0  0  0  0  0  0  0  0  0  0  0
   47.8562    8.2487   23.0709 C   0  0  0  0  0  0  0  0  0  0  0  0
   50.1781    4.5089   18.2930 C   0  0  0  0  0  0  0  0  0  0  0  0
   48.3618   10.4094   22.0601 C   0  0  0  0  0  0  0  0  0  0  0  0
   51.7758    6.0287   19.3297 C   0  0  0  0  0  0  0  0  0  0  0  0
   48.0927    9.6237   23.1846 C   0  0  0  0  0  0  0  0  0  0  0  0
   51.4668    4.7931   18.7561 C   0  0  0  0  0  0  0  0  0  0  0  0
   47.6234    6.2335   21.7649 C   0  0  0  0  0  0  0  0  0  0  0  0
   47.8770    5.1071   17.8924 C   0  0  0  0  0  0  0  0  0  0  0  0
   48.5756   11.8591   22.3016 C   0  0  0  0  0  0  0  0  0  0  0  0
   53.1848    6.2237   19.7584 C   0  0  0  0  0  0  0  0  0  0  0  0
   47.5641    7.5018   24.2250 C   0  0  0  0  0  0  0  0  0  0  0  0
   49.9291    3.2611   17.6963 C   0  0  0  0  0  0  0  0  0  0  0  0
   47.3315    5.5017   22.9194 C   0  0  0  0  0  0  0  0  0  0  0  0
   47.6431    3.8631   17.2971 C   0  0  0  0  0  0  0  0  0  0  0  0
   47.3057    6.1359   24.1515 C   0  0  0  0  0  0  0  0  0  0  0  0
   48.6692    2.9375   17.2030 C   0  0  0  0  0  0  0  0  0  0  0  0
   51.7995    4.4349   20.0759 S   0  0  0  0  0  0  0  0  0  0  0  0
   47.9497    7.7725   22.0195 N   0  0  0  0  0  0  0  0  0  0  0  0
   48.1199    8.3993   19.7329 N   0  0  0  0  0  0  0  0  0  0  0  0
   48.4938    7.6714   20.7406 C   0  0  0  0  0  0  0  0  0  0  0  0
   49.6188    6.7101   20.4723 C   0  0  0  0  0  0  0  0  0  0  0  0
   50.8865    5.3165   18.9061 C   0  0  0  0  0  0  0  0  0  0  0  0
   49.8384    6.2286   19.2394 C   0  0  0  0  0  0  0  0  0  0  0  0
   46.8534    8.7017   22.2638 C   0  0  0  0  0  0  0  0  0  0  0  0
   47.0386    9.3623   19.9143 C   0  0  0  0  0  0  0  0  0  0  0  0
   46.9812    9.8882   21.3324 C   0  0  0  0  0  0  0  0  0  0  0  0
   51.3116    4.9808   17.6283 C   0  0  0  0  0  0  0  0  0  0  0  0
   48.0852    6.7023   22.9992 C   0  0  0  0  0  0  0  0  0  0  0  0
   52.7367    3.6530   18.8836 C   0  0  0  0  0  0  0  0  0  0  0  0
   52.3749    4.0328   17.6132 C   0  0  0  0  0  0  0  0  0  0  0  0
   48.8154   11.4605   19.9215 H   0  0  0  0  0  0  0  0  0  0  0  0
   51.9806    8.2706   20.2272 H   0  0  0  0  0  0  0  0  0  0  0  0
   48.9660   13.4714   21.5136 H   0  0  0  0  0  0  0  0  0  0  0  0
   54.3696    7.3903   20.5375 H   0  0  0  0  0  0  0  0  0  0  0  0
   48.5406    8.5503   18.4872 H   0  0  0  0  0  0  0  0  0  0  0  0
   47.3556    7.4133   19.0275 H   0  0  0  0  0  0  0  0  0  0  0  0
   48.0550   10.0973   24.1653 H   0  0  0  0  0  0  0  0  0  0  0  0
   52.2532    4.0453   18.6539 H   0  0  0  0  0  0  0  0  0  0  0  0
   47.6171    5.6904   20.8253 H   0  0  0  0  0  0  0  0  0  0  0  0
   47.0332    5.7900   17.9237 H   0  0  0  0  0  0  0  0  0  0  0  0
   47.5310    7.9844   25.2001 H   0  0  0  0  0  0  0  0  0  0  0  0
   50.7256    2.5245   17.6042 H   0  0  0  0  0  0  0  0  0  0  0  0
   47.1252    4.4371   22.8474 H   0  0  0  0  0  0  0  0  0  0  0  0
   46.6568    3.6257   16.9068 H   0  0  0  0  0  0  0  0  0  0  0  0
   47.0816    5.5729   25.0530 H   0  0  0  0  0  0  0  0  0  0  0  0
   48.4950    1.9697   16.7410 H   0  0  0  0  0  0  0  0  0  0  0  0
   50.2312    6.4480   21.3232 H   0  0  0  0  0  0  0  0  0  0  0  0
   49.1971    6.5578   18.4237 H   0  0  0  0  0  0  0  0  0  0  0  0
   45.8955    8.1907   22.1078 H   0  0  0  0  0  0  0  0  0  0  0  0
   46.8769    9.0560   23.3011 H   0  0  0  0  0  0  0  0  0  0  0  0
   47.1991   10.2010   19.2280 H   0  0  0  0  0  0  0  0  0  0  0  0
   46.0878    8.8952   19.6306 H   0  0  0  0  0  0  0  0  0  0  0  0
   46.1315   10.5676   21.4567 H   0  0  0  0  0  0  0  0  0  0  0  0
   47.8946   10.4519   21.5609 H   0  0  0  0  0  0  0  0  0  0  0  0
   50.8755    5.4096   16.7327 H   0  0  0  0  0  0  0  0  0  0  0  0
   49.1300    6.5832   23.3020 H   0  0  0  0  0  0  0  0  0  0  0  0
   47.5123    6.9114   23.9095 H   0  0  0  0  0  0  0  0  0  0  0  0
   47.7205    5.7559   22.5871 H   0  0  0  0  0  0  0  0  0  0  0  0
   53.5074    2.9513   19.1711 H   0  0  0  0  0  0  0  0  0  0  0  0
   52.8472    3.6512   16.7164 H   0  0  0  0  0  0  0  0  0  0  0  0
  1 11  1  0
  2 12  1  0
  3 22  2  0
  4 23  2  0
  5 22  1  0
  6 23  1  0
  7  9  1  0
  7 11  2  0
  7 13  1  0
  8 10  1  0
  8 12  2  0
  8 13  1  0
  9 14  2  0
  9 20  1  0
 10 15  2  0
 10 21  1  0
 11 16  1  0
 12 17  1  0
 14 18  1  0
 14 24  1  0
 15 19  1  0
 15 25  1  0
 16 18  2  0
 16 22  1  0
 17 19  2  0
 17 23  1  0
 20 26  2  0
 21 27  2  0
 24 28  2  0
 25 29  2  0
 26 28  1  0
 27 29  1  0
 30 35  1  0
 30 42  1  0
 31 33  1  0
 31 37  1  0
 31 41  1  0
 32 33  2  0
 32 38  1  0
 33 34  1  0
 34 36  2  0
 35 36  1  0
 35 40  2  0
 37 39  1  0
 38 39  1  0
 40 43  1  0
 42 43  2  0
  1 44  1  0
  2 45  1  0
  5 46  1  0
  6 47  1  0
 13 48  1  0
 13 49  1  0
 18 50  1  0
 19 51  1  0
 20 52  1  0
 21 53  1  0
 24 54  1  0
 25 55  1  0
 26 56  1  0
 27 57  1  0
 28 58  1  0
 29 59  1  0
 34 60  1  0
 36 61  1  0
 37 62  1  0
 37 63  1  0
 38 64  1  0
 38 65  1  0
 39 66  1  0
 39 67  1  0
 40 68  1  0
 41 69  1  0
 41 70  1  0
 41 71  1  0
 42 72  1  0
 43 73  1  0
M  END
> <Uni-Dock RESULT> 
ENERGY=   -5.576  LOWER_BOUND=    0.000  UPPER_BOUND=    0.000
INTER + INTRA:          -5.576
INTER:                  -5.576
INTRA:                   0.000
UNBOUND:                 0.000

$$$$

     RDKit          3D

 73 77  0  0  0  0  0  0  0  0999 V2000
   46.2255   12.1818   18.6696 O   0  0  0  0  0  0  0  0  0  0  0  0
   47.8415    9.2777   18.3171 O   0  0  0  0  0  0  0  0  0  0  0  0
   48.6354   14.9430   16.6714 O   0  0  0  0  0  0  0  0  0  0  0  0
   49.2166    5.3563   17.9777 O   0  0  0  0  0  0  0  0  0  0  0  0
   46.6754   13.9000   16.8587 O   0  0  0  0  0  0  0  0  0  0  0  0
   48.7806    7.3187   17.0161 O   0  0  0  0  0  0  0  0  0  0  0  0
   48.0208   11.5498   20.1012 C   0  0  0  0  0  0  0  0  0  0  0  0
   47.5302    9.0448   20.6677 C   0  0  0  0  0  0  0  0  0  0  0  0
   49.3568   11.7490   20.5740 C   0  0  0  0  0  0  0  0  0  0  0  0
   47.5016    8.2091   21.8354 C   0  0  0  0  0  0  0  0  0  0  0  0
   47.5395   12.3446   19.0355 C   0  0  0  0  0  0  0  0  0  0  0  0
   47.9248    8.4821   19.4309 C   0  0  0  0  0  0  0  0  0  0  0  0
   47.0879   10.5107   20.7272 C   0  0  0  0  0  0  0  0  0  0  0  0
   50.1852   12.6916   19.9122 C   0  0  0  0  0  0  0  0  0  0  0  0
   47.9519    6.8673   21.7273 C   0  0  0  0  0  0  0  0  0  0  0  0
   48.3703   13.2697   18.3897 C   0  0  0  0  0  0  0  0  0  0  0  0
   48.3663    7.1549   19.3434 C   0  0  0  0  0  0  0  0  0  0  0  0
   49.6878   13.4269   18.8299 C   0  0  0  0  0  0  0  0  0  0  0  0
   48.3858    6.3658   20.4958 C   0  0  0  0  0  0  0  0  0  0  0  0
   49.9228   11.0706   21.6797 C   0  0  0  0  0  0  0  0  0  0  0  0
   47.0500    8.6189   23.1169 C   0  0  0  0  0  0  0  0  0  0  0  0
   47.9489   14.1187   17.2463 C   0  0  0  0  0  0  0  0  0  0  0  0
   48.8247    6.5034   18.0894 C   0  0  0  0  0  0  0  0  0  0  0  0
   51.5083   12.9005   20.3374 C   0  0  0  0  0  0  0  0  0  0  0  0
   47.9639    6.0208   22.8490 C   0  0  0  0  0  0  0  0  0  0  0  0
   51.2394   11.2887   22.0951 C   0  0  0  0  0  0  0  0  0  0  0  0
   47.0632    7.7654   24.2250 C   0  0  0  0  0  0  0  0  0  0  0  0
   52.0345   12.2019   21.4204 C   0  0  0  0  0  0  0  0  0  0  0  0
   47.5248    6.4662   24.0918 C   0  0  0  0  0  0  0  0  0  0  0  0
   49.7531    6.4621   20.1765 S   0  0  0  0  0  0  0  0  0  0  0  0
   49.4857   11.9044   20.3938 N   0  0  0  0  0  0  0  0  0  0  0  0
   47.2035   11.2395   20.3978 N   0  0  0  0  0  0  0  0  0  0  0  0
   48.4689   10.9523   20.3582 C   0  0  0  0  0  0  0  0  0  0  0  0
   48.8049    9.4933   20.2161 C   0  0  0  0  0  0  0  0  0  0  0  0
   48.2102    7.1401   20.5487 C   0  0  0  0  0  0  0  0  0  0  0  0
   47.9630    8.5437   20.6512 C   0  0  0  0  0  0  0  0  0  0  0  0
   49.1465   13.3145   20.5411 C   0  0  0  0  0  0  0  0  0  0  0  0
   46.7953   12.6346   20.5269 C   0  0  0  0  0  0  0  0  0  0  0  0
   47.8000   13.5784   19.9019 C   0  0  0  0  0  0  0  0  0  0  0  0
   47.2868    6.1237   20.7505 C   0  0  0  0  0  0  0  0  0  0  0  0
   50.8536   11.5549   20.7548 C   0  0  0  0  0  0  0  0  0  0  0  0
   49.1699    4.8614   20.2709 C   0  0  0  0  0  0  0  0  0  0  0  0
   47.8328    4.8182   20.5862 C   0  0  0  0  0  0  0  0  0  0  0  0
   46.0594   12.7365   17.8797 H   0  0  0  0  0  0  0  0  0  0  0  0
   48.1618    8.7671   17.5455 H   0  0  0  0  0  0  0  0  0  0  0  0
   46.5664   14.5274   16.1086 H   0  0  0  0  0  0  0  0  0  0  0  0
   49.1231    6.7453   16.2938 H   0  0  0  0  0  0  0  0  0  0  0  0
   46.0864   10.5394   20.2826 H   0  0  0  0  0  0  0  0  0  0  0  0
   46.9386   10.8564   21.7531 H   0  0  0  0  0  0  0  0  0  0  0  0
   50.3328   14.1462   18.3256 H   0  0  0  0  0  0  0  0  0  0  0  0
   48.7305    5.3342   20.4255 H   0  0  0  0  0  0  0  0  0  0  0  0
   49.3405   10.3550   22.2513 H   0  0  0  0  0  0  0  0  0  0  0  0
   46.6653    9.6201   23.2874 H   0  0  0  0  0  0  0  0  0  0  0  0
   52.1448   13.6197   19.8252 H   0  0  0  0  0  0  0  0  0  0  0  0
   48.3137    4.9935   22.7618 H   0  0  0  0  0  0  0  0  0  0  0  0
   51.6360   10.7416   22.9462 H   0  0  0  0  0  0  0  0  0  0  0  0
   46.7085    8.1222   25.1885 H   0  0  0  0  0  0  0  0  0  0  0  0
   53.0592   12.3749   21.7365 H   0  0  0  0  0  0  0  0  0  0  0  0
   47.5371    5.7974   24.9478 H   0  0  0  0  0  0  0  0  0  0  0  0
   49.7485    9.2686   19.7396 H   0  0  0  0  0  0  0  0  0  0  0  0
   47.0165    8.8435   21.0975 H   0  0  0  0  0  0  0  0  0  0  0  0
   49.1266   13.5795   21.6052 H   0  0  0  0  0  0  0  0  0  0  0  0
   49.9031   13.9421   20.0556 H   0  0  0  0  0  0  0  0  0  0  0  0
   45.8271   12.7626   20.0303 H   0  0  0  0  0  0  0  0  0  0  0  0
   46.6436   12.8695   21.5873 H   0  0  0  0  0  0  0  0  0  0  0  0
   47.4982   14.6195   20.0573 H   0  0  0  0  0  0  0  0  0  0  0  0
   47.8545   13.4054   18.8196 H   0  0  0  0  0  0  0  0  0  0  0  0
   46.2491    6.3144   21.0015 H   0  0  0  0  0  0  0  0  0  0  0  0
   51.3004   10.9031   19.9978 H   0  0  0  0  0  0  0  0  0  0  0  0
   51.4926   12.4420   20.8277 H   0  0  0  0  0  0  0  0  0  0  0  0
   50.8772   11.0477   21.7248 H   0  0  0  0  0  0  0  0  0  0  0  0
   49.8356    4.0283   20.0919 H   0  0  0  0  0  0  0  0  0  0  0  0
   47.2721    3.8979   20.6945 H   0  0  0  0  0  0  0  0  0  0  0  0
  1 11  1  0
  2 12  1  0
  3 22  2  0
  4 23  2  0
  5 22  1  0
  6 23  1  0
  7  9  1  0
  7 11  2  0
  7 13  1  0
  8 10  1  0
  8 12  2  0
  8 13  1  0
  9 14  2  0
  9 20  1  0
 10 15  2  0
 10 21  1  0
 11 16  1  0
 12 17  1  0
 14 18  1  0
 14 24  1  0
 15 19  1  0
 15 25  1  0
 16 18  2  0
 16 22  1  0
 17 19  2  0
 17 23  1  0
 20 26  2  0
 21 27  2  0
 24 28  2  0
 25 29  2  0
 26 28  1  0
 27 29  1  0
 30 35  1  0
 30 42  1  0
 31 33  1  0
 31 37  1  0
 31 41  1  0
 32 33  2  0
 32 38  1  0
 33 34  1  0
 34 36  2  0
 35 36  1  0
 35 40  2  0
 37 39  1  0
 38 39  1  0
 40 43  1  0
 42 43  2  0
  1 44  1  0
  2 45  1  0
  5 46  1  0
  6 47  1  0
 13 48  1  0
 13 49  1  0
 18 50  1  0
 19 51  1  0
 20 52  1  0
 21 53  1  0
 24 54  1  0
 25 55  1  0
 26 56  1  0
 27 57  1  0
 28 58  1  0
 29 59  1  0
 34 60  1  0
 36 61  1  0
 37 62  1  0
 37 63  1  0
 38 64  1  0
 38 65  1  0
 39 66  1  0
 39 67  1  0
 40 68  1  0
 41 69  1  0
 41 70  1  0
 41 71  1  0
 42 72  1  0
 43 73  1  0
M  END
> <Uni-Dock RESULT> 
ENERGY=   -5.456  LOWER_BOUND=    2.642  UPPER_BOUND=    5.077
INTER + INTRA:          -5.456
INTER:                  -5.456
INTRA:                   0.000
UNBOUND:                 0.000

$$$$

     RDKit          3D

 73 77  0  0  0  0  0  0  0  0999 V2000
   46.3147   12.1130   18.4833 O   0  0  0  0  0  0  0  0  0  0  0  0
   47.7868    9.2880   17.4724 O   0  0  0  0  0  0  0  0  0  0  0  0
   48.6374   15.1399   16.7901 O   0  0  0  0  0  0  0  0  0  0  0  0
   48.9834    5.4650   16.3165 O   0  0  0  0  0  0  0  0  0  0  0  0
   46.6650   14.1195   16.9717 O   0  0  0  0  0  0  0  0  0  0  0  0
   48.5357    7.5765   15.7629 O   0  0  0  0  0  0  0  0  0  0  0  0
   48.2052   11.1982   19.6063 C   0  0  0  0  0  0  0  0  0  0  0  0
   47.6759    8.6425   19.7632 C   0  0  0  0  0  0  0  0  0  0  0  0
   49.5840   11.2825   19.9801 C   0  0  0  0  0  0  0  0  0  0  0  0
   47.7202    7.6112   20.7618 C   0  0  0  0  0  0  0  0  0  0  0  0
   47.6609   12.1812   18.7481 C   0  0  0  0  0  0  0  0  0  0  0  0
   47.9391    8.3036   18.4149 C   0  0  0  0  0  0  0  0  0  0  0  0
   47.2942   10.0822   20.1226 C   0  0  0  0  0  0  0  0  0  0  0  0
   50.3845   12.3121   19.4215 C   0  0  0  0  0  0  0  0  0  0  0  0
   48.1103    6.3019   20.3759 C   0  0  0  0  0  0  0  0  0  0  0  0
   48.4644   13.1905   18.2017 C   0  0  0  0  0  0  0  0  0  0  0  0
   48.3227    7.0052   18.0527 C   0  0  0  0  0  0  0  0  0  0  0  0
   49.8205   13.2398   18.5379 C   0  0  0  0  0  0  0  0  0  0  0  0
   48.4153    6.0216   19.0401 C   0  0  0  0  0  0  0  0  0  0  0  0
   50.2205   10.4052   20.8904 C   0  0  0  0  0  0  0  0  0  0  0  0
   47.3987    7.7928   22.1321 C   0  0  0  0  0  0  0  0  0  0  0  0
   47.9748   14.2395   17.2714 C   0  0  0  0  0  0  0  0  0  0  0  0
   48.6448    6.5809   16.6658 C   0  0  0  0  0  0  0  0  0  0  0  0
   51.7467   12.4147   19.7516 C   0  0  0  0  0  0  0  0  0  0  0  0
   48.1905    5.2675   21.3238 C   0  0  0  0  0  0  0  0  0  0  0  0
   51.5757   10.5188   21.2130 C   0  0  0  0  0  0  0  0  0  0  0  0
   47.4787    6.7538   23.0652 C   0  0  0  0  0  0  0  0  0  0  0  0
   52.3407   11.5224   20.6397 C   0  0  0  0  0  0  0  0  0  0  0  0
   47.8793    5.4908   22.6613 C   0  0  0  0  0  0  0  0  0  0  0  0
   49.7517    6.1464   18.6166 S   0  0  0  0  0  0  0  0  0  0  0  0
   49.7022   11.4652   19.8191 N   0  0  0  0  0  0  0  0  0  0  0  0
   47.4066   10.8560   19.9182 N   0  0  0  0  0  0  0  0  0  0  0  0
   48.6523   10.5554   19.7104 C   0  0  0  0  0  0  0  0  0  0  0  0
   48.9213    9.1394   19.2812 C   0  0  0  0  0  0  0  0  0  0  0  0
   48.2732    6.7770   19.2455 C   0  0  0  0  0  0  0  0  0  0  0  0
   48.0871    8.1440   19.6177 C   0  0  0  0  0  0  0  0  0  0  0  0
   49.4287   12.8322   20.2450 C   0  0  0  0  0  0  0  0  0  0  0  0
   47.0623   12.2130   20.3301 C   0  0  0  0  0  0  0  0  0  0  0  0
   48.0414   13.2336   19.7912 C   0  0  0  0  0  0  0  0  0  0  0  0
   47.3349    5.7596   19.3493 C   0  0  0  0  0  0  0  0  0  0  0  0
   51.0830   11.0293   19.9831 C   0  0  0  0  0  0  0  0  0  0  0  0
   49.1213    4.5668   18.4798 C   0  0  0  0  0  0  0  0  0  0  0  0
   47.8166    4.4943   18.9059 C   0  0  0  0  0  0  0  0  0  0  0  0
   46.0998   12.8039   17.8233 H   0  0  0  0  0  0  0  0  0  0  0  0
   48.0189    8.9182   16.5961 H   0  0  0  0  0  0  0  0  0  0  0  0
   46.5130   14.8736   16.3581 H   0  0  0  0  0  0  0  0  0  0  0  0
   48.7921    7.1358   14.9216 H   0  0  0  0  0  0  0  0  0  0  0  0
   46.2590   10.2104   19.7855 H   0  0  0  0  0  0  0  0  0  0  0  0
   47.2486   10.2408   21.2028 H   0  0  0  0  0  0  0  0  0  0  0  0
   50.4441   14.0250   18.1111 H   0  0  0  0  0  0  0  0  0  0  0  0
   48.7147    5.0128   18.7561 H   0  0  0  0  0  0  0  0  0  0  0  0
   49.6653    9.6102   21.3779 H   0  0  0  0  0  0  0  0  0  0  0  0
   47.0671    8.7544   22.5125 H   0  0  0  0  0  0  0  0  0  0  0  0
   52.3612   13.2015   19.3179 H   0  0  0  0  0  0  0  0  0  0  0  0
   48.4937    4.2659   21.0236 H   0  0  0  0  0  0  0  0  0  0  0  0
   52.0257    9.8198   21.9130 H   0  0  0  0  0  0  0  0  0  0  0  0
   47.2236    6.9385   24.1055 H   0  0  0  0  0  0  0  0  0  0  0  0
   53.3949   11.6153   20.8844 H   0  0  0  0  0  0  0  0  0  0  0  0
   47.9428    4.6788   23.3803 H   0  0  0  0  0  0  0  0  0  0  0  0
   49.8104    8.9853   18.6864 H   0  0  0  0  0  0  0  0  0  0  0  0
   47.1952    8.3774   20.1965 H   0  0  0  0  0  0  0  0  0  0  0  0
   49.5124   12.9020   21.3364 H   0  0  0  0  0  0  0  0  0  0  0  0
   50.1617   13.5218   19.8100 H   0  0  0  0  0  0  0  0  0  0  0  0
   46.0593   12.4474   19.9566 H   0  0  0  0  0  0  0  0  0  0  0  0
   47.0134   12.2563   21.4248 H   0  0  0  0  0  0  0  0  0  0  0  0
   47.7926   14.2355   20.1562 H   0  0  0  0  0  0  0  0  0  0  0  0
   47.9939   13.2570   18.6951 H   0  0  0  0  0  0  0  0  0  0  0  0
   46.3311    5.9225   19.7259 H   0  0  0  0  0  0  0  0  0  0  0  0
   51.4372   10.5155   19.0842 H   0  0  0  0  0  0  0  0  0  0  0  0
   51.7577   11.8759   20.1521 H   0  0  0  0  0  0  0  0  0  0  0  0
   51.1737   10.3556   20.8413 H   0  0  0  0  0  0  0  0  0  0  0  0
   49.7379    3.7664   18.0947 H   0  0  0  0  0  0  0  0  0  0  0  0
   47.2346    3.5809   18.9012 H   0  0  0  0  0  0  0  0  0  0  0  0
  1 11  1  0
  2 12  1  0
  3 22  2  0
  4 23  2  0
  5 22  1  0
  6 23  1  0
  7  9  1  0
  7 11  2  0
  7 13  1  0
  8 10  1  0
  8 12  2  0
  8 13  1  0
  9 14  2  0
  9 20  1  0
 10 15  2  0
 10 21  1  0
 11 16  1  0
 12 17  1  0
 14 18  1  0
 14 24  1  0
 15 19  1  0
 15 25  1  0
 16 18  2  0
 16 22  1  0
 17 19  2  0
 17 23  1  0
 20 26  2  0
 21 27  2  0
 24 28  2  0
 25 29  2  0
 26 28  1  0
 27 29  1  0
 30 35  1  0
 30 42  1  0
 31 33  1  0
 31 37  1  0
 31 41  1  0
 32 33  2  0
 32 38  1  0
 33 34  1  0
 34 36  2  0
 35 36  1  0
 35 40  2  0
 37 39  1  0
 38 39  1  0
 40 43  1  0
 42 43  2  0
  1 44  1  0
  2 45  1  0
  5 46  1  0
  6 47  1  0
 13 48  1  0
 13 49  1  0
 18 50  1  0
 19 51  1  0
 20 52  1  0
 21 53  1  0
 24 54  1  0
 25 55  1  0
 26 56  1  0
 27 57  1  0
 28 58  1  0
 29 59  1  0
 34 60  1  0
 36 61  1  0
 37 62  1  0
 37 63  1  0
 38 64  1  0
 38 65  1  0
 39 66  1  0
 39 67  1  0
 40 68  1  0
 41 69  1  0
 41 70  1  0
 41 71  1  0
 42 72  1  0
 43 73  1  0
M  END
> <Uni-Dock RESULT> 
ENERGY=   -5.247  LOWER_BOUND=    2.827  UPPER_BOUND=    4.808
INTER + INTRA:          -5.247
INTER:                  -5.247
INTRA:                   0.000
UNBOUND:                 0.000

$$$$

     RDKit          3D

 73 77  0  0  0  0  0  0  0  0999 V2000
   49.7771    8.9746   17.0843 O   0  0  0  0  0  0  0  0  0  0  0  0
   52.2305    7.4761   18.7887 O   0  0  0  0  0  0  0  0  0  0  0  0
   48.2569   11.8024   19.7522 O   0  0  0  0  0  0  0  0  0  0  0  0
   55.5580    5.4485   20.2719 O   0  0  0  0  0  0  0  0  0  0  0  0
   49.2459   11.3469   17.8082 O   0  0  0  0  0  0  0  0  0  0  0  0
   54.4663    7.3679   19.9727 O   0  0  0  0  0  0  0  0  0  0  0  0
   49.3542    7.2019   18.6176 C   0  0  0  0  0  0  0  0  0  0  0  0
   51.2119    5.4416   18.0818 C   0  0  0  0  0  0  0  0  0  0  0  0
   48.7914    6.7370   19.8485 C   0  0  0  0  0  0  0  0  0  0  0  0
   51.2973    4.0240   17.8678 C   0  0  0  0  0  0  0  0  0  0  0  0
   49.3040    8.5817   18.3126 C   0  0  0  0  0  0  0  0  0  0  0  0
   52.2988    6.1098   18.6934 C   0  0  0  0  0  0  0  0  0  0  0  0
   49.9960    6.2458   17.6097 C   0  0  0  0  0  0  0  0  0  0  0  0
   48.2610    7.6847   20.7614 C   0  0  0  0  0  0  0  0  0  0  0  0
   52.4339    3.3263   18.3540 C   0  0  0  0  0  0  0  0  0  0  0  0
   48.7796    9.5063   19.2254 C   0  0  0  0  0  0  0  0  0  0  0  0
   53.4131    5.4041   19.1671 C   0  0  0  0  0  0  0  0  0  0  0  0
   48.2713    9.0482   20.4445 C   0  0  0  0  0  0  0  0  0  0  0  0
   53.4623    4.0179   19.0023 C   0  0  0  0  0  0  0  0  0  0  0  0
   48.7133    5.3758   20.2280 C   0  0  0  0  0  0  0  0  0  0  0  0
   50.3213    3.2436   17.1951 C   0  0  0  0  0  0  0  0  0  0  0  0
   48.7186   10.9717   18.9918 C   0  0  0  0  0  0  0  0  0  0  0  0
   54.5769    6.0299   19.8461 C   0  0  0  0  0  0  0  0  0  0  0  0
   47.7167    7.2663   21.9877 C   0  0  0  0  0  0  0  0  0  0  0  0
   52.5484    1.9355   18.1880 C   0  0  0  0  0  0  0  0  0  0  0  0
   48.1672    4.9714   21.4493 C   0  0  0  0  0  0  0  0  0  0  0  0
   50.4489    1.8602   17.0328 C   0  0  0  0  0  0  0  0  0  0  0  0
   47.6719    5.9183   22.3321 C   0  0  0  0  0  0  0  0  0  0  0  0
   51.5617    1.2048   17.5337 C   0  0  0  0  0  0  0  0  0  0  0  0
   53.4032    4.1503   20.4022 S   0  0  0  0  0  0  0  0  0  0  0  0
   48.7425    6.9533   20.0037 N   0  0  0  0  0  0  0  0  0  0  0  0
   49.5459    6.8983   17.7672 N   0  0  0  0  0  0  0  0  0  0  0  0
   49.6715    6.6046   19.0255 C   0  0  0  0  0  0  0  0  0  0  0  0
   50.9369    5.8870   19.4071 C   0  0  0  0  0  0  0  0  0  0  0  0
   52.8025    4.4170   18.8062 C   0  0  0  0  0  0  0  0  0  0  0  0
   51.5950    5.1255   18.5200 C   0  0  0  0  0  0  0  0  0  0  0  0
   47.5158    7.6405   19.6190 C   0  0  0  0  0  0  0  0  0  0  0  0
   48.3489    7.6017   17.3178 C   0  0  0  0  0  0  0  0  0  0  0  0
   47.7789    8.4958   18.3980 C   0  0  0  0  0  0  0  0  0  0  0  0
   53.6493    3.8240   17.8803 C   0  0  0  0  0  0  0  0  0  0  0  0
   48.6968    6.2798   21.2951 C   0  0  0  0  0  0  0  0  0  0  0  0
   54.7615    3.2840   19.8402 C   0  0  0  0  0  0  0  0  0  0  0  0
   54.7749    3.1796   18.4698 C   0  0  0  0  0  0  0  0  0  0  0  0
   49.7482    9.9529   17.0467 H   0  0  0  0  0  0  0  0  0  0  0  0
   53.0347    7.7966   19.2461 H   0  0  0  0  0  0  0  0  0  0  0  0
   49.1286   12.3238   17.8186 H   0  0  0  0  0  0  0  0  0  0  0  0
   55.2947    7.6105   20.4446 H   0  0  0  0  0  0  0  0  0  0  0  0
   50.3162    6.7656   16.6993 H   0  0  0  0  0  0  0  0  0  0  0  0
   49.1769    5.6020   17.2799 H   0  0  0  0  0  0  0  0  0  0  0  0
   47.8649    9.7690   21.1536 H   0  0  0  0  0  0  0  0  0  0  0  0
   54.3295    3.4711   19.3724 H   0  0  0  0  0  0  0  0  0  0  0  0
   49.0742    4.5926   19.5689 H   0  0  0  0  0  0  0  0  0  0  0  0
   49.4309    3.6963   16.7689 H   0  0  0  0  0  0  0  0  0  0  0  0
   47.3153    7.9948   22.6898 H   0  0  0  0  0  0  0  0  0  0  0  0
   53.4205    1.4043   18.5660 H   0  0  0  0  0  0  0  0  0  0  0  0
   48.1323    3.9153   21.7033 H   0  0  0  0  0  0  0  0  0  0  0  0
   49.6758    1.3018   16.5113 H   0  0  0  0  0  0  0  0  0  0  0  0
   47.2480    5.6113   23.2838 H   0  0  0  0  0  0  0  0  0  0  0  0
   51.6680    0.1306   17.4105 H   0  0  0  0  0  0  0  0  0  0  0  0
   51.2768    6.0333   20.4224 H   0  0  0  0  0  0  0  0  0  0  0  0
   51.2083    5.0454   17.5056 H   0  0  0  0  0  0  0  0  0  0  0  0
   46.7302    6.9038   19.4115 H   0  0  0  0  0  0  0  0  0  0  0  0
   47.1643    8.2810   20.4364 H   0  0  0  0  0  0  0  0  0  0  0  0
   48.6096    8.2138   16.4474 H   0  0  0  0  0  0  0  0  0  0  0  0
   47.6048    6.8695   16.9818 H   0  0  0  0  0  0  0  0  0  0  0  0
   46.8540    8.9713   18.0554 H   0  0  0  0  0  0  0  0  0  0  0  0
   48.4930    9.2927   18.6410 H   0  0  0  0  0  0  0  0  0  0  0  0
   53.4680    3.8591   16.8117 H   0  0  0  0  0  0  0  0  0  0  0  0
   49.5982    6.4946   21.8771 H   0  0  0  0  0  0  0  0  0  0  0  0
   47.8434    6.6133   21.8961 H   0  0  0  0  0  0  0  0  0  0  0  0
   48.6055    5.1971   21.1606 H   0  0  0  0  0  0  0  0  0  0  0  0
   55.4847    2.8914   20.5416 H   0  0  0  0  0  0  0  0  0  0  0  0
   55.5514    2.6671   17.9154 H   0  0  0  0  0  0  0  0  0  0  0  0
  1 11  1  0
  2 12  1  0
  3 22  2  0
  4 23  2  0
  5 22  1  0
  6 23  1  0
  7  9  1  0
  7 11  2  0
  7 13  1  0
  8 10  1  0
  8 12  2  0
  8 13  1  0
  9 14  2  0
  9 20  1  0
 10 15  2  0
 10 21  1  0
 11 16  1  0
 12 17  1  0
 14 18  1  0
 14 24  1  0
 15 19  1  0
 15 25  1  0
 16 18  2  0
 16 22  1  0
 17 19  2  0
 17 23  1  0
 20 26  2  0
 21 27  2  0
 24 28  2  0
 25 29  2  0
 26 28  1  0
 27 29  1  0
 30 35  1  0
 30 42  1  0
 31 33  1  0
 31 37  1  0
 31 41  1  0
 32 33  2  0
 32 38  1  0
 33 34  1  0
 34 36  2  0
 35 36  1  0
 35 40  2  0
 37 39  1  0
 38 39  1  0
 40 43  1  0
 42 43  2  0
  1 44  1  0
  2 45  1  0
  5 46  1  0
  6 47  1  0
 13 48  1  0
 13 49  1  0
 18 50  1  0
 19 51  1  0
 20 52  1  0
 21 53  1  0
 24 54  1  0
 25 55  1  0
 26 56  1  0
 27 57  1  0
 28 58  1  0
 29 59  1  0
 34 60  1  0
 36 61  1  0
 37 62  1  0
 37 63  1  0
 38 64  1  0
 38 65  1  0
 39 66  1  0
 39 67  1  0
 40 68  1  0
 41 69  1  0
 41 70  1  0
 41 71  1  0
 42 72  1  0
 43 73  1  0
M  END
> <Uni-Dock RESULT> 
ENERGY=   -5.081  LOWER_BOUND=    1.598  UPPER_BOUND=    2.582
INTER + INTRA:          -5.081
INTER:                  -5.081
INTRA:                   0.000
UNBOUND:                 0.000

$$$$

     RDKit          3D

 73 77  0  0  0  0  0  0  0  0999 V2000
   50.1057    5.0930   18.9679 O   0  0  0  0  0  0  0  0  0  0  0  0
   48.2448    5.7298   16.2659 O   0  0  0  0  0  0  0  0  0  0  0  0
   47.3618    5.0495   22.1133 O   0  0  0  0  0  0  0  0  0  0  0  0
   46.4494    6.2051   12.5331 O   0  0  0  0  0  0  0  0  0  0  0  0
   48.8823    3.9759   20.8887 O   0  0  0  0  0  0  0  0  0  0  0  0
   46.4671    5.2255   14.5344 O   0  0  0  0  0  0  0  0  0  0  0  0
   49.4739    7.3070   18.3585 C   0  0  0  0  0  0  0  0  0  0  0  0
   49.8771    7.3949   15.7766 C   0  0  0  0  0  0  0  0  0  0  0  0
   48.7333    8.5017   18.6270 C   0  0  0  0  0  0  0  0  0  0  0  0
   50.4954    8.2815   14.8310 C   0  0  0  0  0  0  0  0  0  0  0  0
   49.3132    6.1888   19.2089 C   0  0  0  0  0  0  0  0  0  0  0  0
   48.7477    6.6430   15.3751 C   0  0  0  0  0  0  0  0  0  0  0  0
   50.4511    7.2078   17.1850 C   0  0  0  0  0  0  0  0  0  0  0  0
   47.8043    8.5065   19.6993 C   0  0  0  0  0  0  0  0  0  0  0  0
   49.9018    8.4382   13.5511 C   0  0  0  0  0  0  0  0  0  0  0  0
   48.3898    6.2072   20.2624 C   0  0  0  0  0  0  0  0  0  0  0  0
   48.1754    6.8109   14.1069 C   0  0  0  0  0  0  0  0  0  0  0  0
   47.6385    7.3639   20.4908 C   0  0  0  0  0  0  0  0  0  0  0  0
   48.7527    7.7160   13.2132 C   0  0  0  0  0  0  0  0  0  0  0  0
   48.8666    9.7061   17.8957 C   0  0  0  0  0  0  0  0  0  0  0  0
   51.6767    9.0303   15.0715 C   0  0  0  0  0  0  0  0  0  0  0  0
   48.1420    5.0655   21.1793 C   0  0  0  0  0  0  0  0  0  0  0  0
   46.9739    6.0822   13.6247 C   0  0  0  0  0  0  0  0  0  0  0  0
   47.0463    9.6559   19.9809 C   0  0  0  0  0  0  0  0  0  0  0  0
   50.4591    9.3129   12.6028 C   0  0  0  0  0  0  0  0  0  0  0  0
   48.1089   10.8439   18.1868 C   0  0  0  0  0  0  0  0  0  0  0  0
   52.2239    9.8948   14.1177 C   0  0  0  0  0  0  0  0  0  0  0  0
   47.1947   10.8175   19.2282 C   0  0  0  0  0  0  0  0  0  0  0  0
   51.6118   10.0395   12.8836 C   0  0  0  0  0  0  0  0  0  0  0  0
   47.4963    8.3003   13.4602 S   0  0  0  0  0  0  0  0  0  0  0  0
   48.5433    8.4415   18.8101 N   0  0  0  0  0  0  0  0  0  0  0  0
   50.2559    7.0352   17.9500 N   0  0  0  0  0  0  0  0  0  0  0  0
   49.1987    7.7694   17.7804 C   0  0  0  0  0  0  0  0  0  0  0  0
   48.6595    7.8266   16.3777 C   0  0  0  0  0  0  0  0  0  0  0  0
   49.0232    7.6695   13.9600 C   0  0  0  0  0  0  0  0  0  0  0  0
   49.4615    7.6339   15.3196 C   0  0  0  0  0  0  0  0  0  0  0  0
   49.0818    8.3854   20.1636 C   0  0  0  0  0  0  0  0  0  0  0  0
   50.8359    6.9222   19.2843 C   0  0  0  0  0  0  0  0  0  0  0  0
   49.7905    7.0637   20.3697 C   0  0  0  0  0  0  0  0  0  0  0  0
   49.7400    7.2407   12.8515 C   0  0  0  0  0  0  0  0  0  0  0  0
   47.6389    9.5538   18.5485 C   0  0  0  0  0  0  0  0  0  0  0  0
   47.8048    7.9799   11.8129 C   0  0  0  0  0  0  0  0  0  0  0  0
   49.0418    7.4122   11.6216 C   0  0  0  0  0  0  0  0  0  0  0  0
   49.8321    4.3798   19.5808 H   0  0  0  0  0  0  0  0  0  0  0  0
   47.4612    5.3020   15.8638 H   0  0  0  0  0  0  0  0  0  0  0  0
   48.5972    3.3307   21.5748 H   0  0  0  0  0  0  0  0  0  0  0  0
   45.6876    4.8488   14.0673 H   0  0  0  0  0  0  0  0  0  0  0  0
   50.9750    6.2450   17.1690 H   0  0  0  0  0  0  0  0  0  0  0  0
   51.2320    7.9371   17.4137 H   0  0  0  0  0  0  0  0  0  0  0  0
   46.9200    7.3759   21.3101 H   0  0  0  0  0  0  0  0  0  0  0  0
   48.3052    7.8456   12.2278 H   0  0  0  0  0  0  0  0  0  0  0  0
   49.5769    9.7856   17.0789 H   0  0  0  0  0  0  0  0  0  0  0  0
   52.2122    8.9548   16.0133 H   0  0  0  0  0  0  0  0  0  0  0  0
   46.3297    9.6565   20.8002 H   0  0  0  0  0  0  0  0  0  0  0  0
   49.9980    9.4324   11.6238 H   0  0  0  0  0  0  0  0  0  0  0  0
   48.2391   11.7466   17.5957 H   0  0  0  0  0  0  0  0  0  0  0  0
   53.1303   10.4498   14.3455 H   0  0  0  0  0  0  0  0  0  0  0  0
   46.6012   11.6975   19.4587 H   0  0  0  0  0  0  0  0  0  0  0  0
   52.0317   10.7085   12.1375 H   0  0  0  0  0  0  0  0  0  0  0  0
   47.6003    8.0199   16.2848 H   0  0  0  0  0  0  0  0  0  0  0  0
   50.5145    7.4167   15.4897 H   0  0  0  0  0  0  0  0  0  0  0  0
   49.7736    9.2221   20.3200 H   0  0  0  0  0  0  0  0  0  0  0  0
   48.2750    8.4782   20.9000 H   0  0  0  0  0  0  0  0  0  0  0  0
   51.3151    5.9412   19.3748 H   0  0  0  0  0  0  0  0  0  0  0  0
   51.6252    7.6748   19.3996 H   0  0  0  0  0  0  0  0  0  0  0  0
   50.2567    7.0279   21.3598 H   0  0  0  0  0  0  0  0  0  0  0  0
   49.0726    6.2360   20.3094 H   0  0  0  0  0  0  0  0  0  0  0  0
   50.7328    6.8107   12.9246 H   0  0  0  0  0  0  0  0  0  0  0  0
   46.7463    9.2114   18.0161 H   0  0  0  0  0  0  0  0  0  0  0  0
   47.2949   10.0233   19.4768 H   0  0  0  0  0  0  0  0  0  0  0  0
   48.1395   10.3238   17.9525 H   0  0  0  0  0  0  0  0  0  0  0  0
   47.0650    8.2243   11.0633 H   0  0  0  0  0  0  0  0  0  0  0  0
   49.4292    7.1333   10.6494 H   0  0  0  0  0  0  0  0  0  0  0  0
  1 11  1  0
  2 12  1  0
  3 22  2  0
  4 23  2  0
  5 22  1  0
  6 23  1  0
  7  9  1  0
  7 11  2  0
  7 13  1  0
  8 10  1  0
  8 12  2  0
  8 13  1  0
  9 14  2  0
  9 20  1  0
 10 15  2  0
 10 21  1  0
 11 16  1  0
 12 17  1  0
 14 18  1  0
 14 24  1  0
 15 19  1  0
 15 25  1  0
 16 18  2  0
 16 22  1  0
 17 19  2  0
 17 23  1  0
 20 26  2  0
 21 27  2  0
 24 28  2  0
 25 29  2  0
 26 28  1  0
 27 29  1  0
 30 35  1  0
 30 42  1  0
 31 33  1  0
 31 37  1  0
 31 41  1  0
 32 33  2  0
 32 38  1  0
 33 34  1  0
 34 36  2  0
 35 36  1  0
 35 40  2  0
 37 39  1  0
 38 39  1  0
 40 43  1  0
 42 43  2  0
  1 44  1  0
  2 45  1  0
  5 46  1  0
  6 47  1  0
 13 48  1  0
 13 49  1  0
 18 50  1  0
 19 51  1  0
 20 52  1  0
 21 53  1  0
 24 54  1  0
 25 55  1  0
 26 56  1  0
 27 57  1  0
 28 58  1  0
 29 59  1  0
 34 60  1  0
 36 61  1  0
 37 62  1  0
 37 63  1  0
 38 64  1  0
 38 65  1  0
 39 66  1  0
 39 67  1  0
 40 68  1  0
 41 69  1  0
 41 70  1  0
 41 71  1  0
 42 72  1  0
 43 73  1  0
M  END
> <Uni-Dock RESULT> 
ENERGY=   -5.065  LOWER_BOUND=    4.323  UPPER_BOUND=    6.120
INTER + INTRA:          -5.065
INTER:                  -5.065
INTRA:                   0.000
UNBOUND:                 0.000

$$$$

     RDKit          3D

 73 77  0  0  0  0  0  0  0  0999 V2000
   47.5695    7.9882   14.2770 O   0  0  0  0  0  0  0  0  0  0  0  0
   48.3610    5.8985   16.7624 O   0  0  0  0  0  0  0  0  0  0  0  0
   50.5596    7.3716   11.4303 O   0  0  0  0  0  0  0  0  0  0  0  0
   48.6549    3.3251   20.0295 O   0  0  0  0  0  0  0  0  0  0  0  0
   48.4014    7.3058   11.9800 O   0  0  0  0  0  0  0  0  0  0  0  0
   48.7194    3.6271   17.8227 O   0  0  0  0  0  0  0  0  0  0  0  0
   49.1770    8.5515   15.9416 C   0  0  0  0  0  0  0  0  0  0  0  0
   48.0656    7.7889   18.1821 C   0  0  0  0  0  0  0  0  0  0  0  0
   50.5313    8.8283   16.3119 C   0  0  0  0  0  0  0  0  0  0  0  0
   47.8526    8.3285   19.4959 C   0  0  0  0  0  0  0  0  0  0  0  0
   48.8902    8.1604   14.6135 C   0  0  0  0  0  0  0  0  0  0  0  0
   48.2649    6.3957   18.0368 C   0  0  0  0  0  0  0  0  0  0  0  0
   48.0232    8.6828   16.9383 C   0  0  0  0  0  0  0  0  0  0  0  0
   51.5583    8.6339   15.3524 C   0  0  0  0  0  0  0  0  0  0  0  0
   47.9339    7.4580   20.6142 C   0  0  0  0  0  0  0  0  0  0  0  0
   49.9152    7.9696   13.6775 C   0  0  0  0  0  0  0  0  0  0  0  0
   48.3420    5.5515   19.1527 C   0  0  0  0  0  0  0  0  0  0  0  0
   51.2399    8.2003   14.0601 C   0  0  0  0  0  0  0  0  0  0  0  0
   48.1872    6.0948   20.4302 C   0  0  0  0  0  0  0  0  0  0  0  0
   50.9315    9.2999   17.5849 C   0  0  0  0  0  0  0  0  0  0  0  0
   47.5597    9.6882   19.7782 C   0  0  0  0  0  0  0  0  0  0  0  0
   49.6981    7.5322   12.2749 C   0  0  0  0  0  0  0  0  0  0  0  0
   48.5793    4.0866   19.0827 C   0  0  0  0  0  0  0  0  0  0  0  0
   52.9014    8.8782   15.6861 C   0  0  0  0  0  0  0  0  0  0  0  0
   47.7560    7.9469   21.9197 C   0  0  0  0  0  0  0  0  0  0  0  0
   52.2705    9.5420   17.9044 C   0  0  0  0  0  0  0  0  0  0  0  0
   47.3808   10.1617   21.0821 C   0  0  0  0  0  0  0  0  0  0  0  0
   53.2571    9.3269   16.9549 C   0  0  0  0  0  0  0  0  0  0  0  0
   47.4833    9.2908   22.1543 C   0  0  0  0  0  0  0  0  0  0  0  0
   49.5228    5.6515   20.4540 S   0  0  0  0  0  0  0  0  0  0  0  0
   50.6913    8.7382   16.1130 N   0  0  0  0  0  0  0  0  0  0  0  0
   48.3157    8.7718   16.1902 N   0  0  0  0  0  0  0  0  0  0  0  0
   49.4607    8.3772   16.6579 C   0  0  0  0  0  0  0  0  0  0  0  0
   49.4001    7.4358   17.8291 C   0  0  0  0  0  0  0  0  0  0  0  0
   48.2213    6.5752   19.7968 C   0  0  0  0  0  0  0  0  0  0  0  0
   48.3520    7.4397   18.6666 C   0  0  0  0  0  0  0  0  0  0  0  0
   50.7362    9.6588   14.9836 C   0  0  0  0  0  0  0  0  0  0  0  0
   48.2895    9.6808   15.0489 C   0  0  0  0  0  0  0  0  0  0  0  0
   49.4878    9.4884   14.1445 C   0  0  0  0  0  0  0  0  0  0  0  0
   47.0707    6.3629   20.5433 C   0  0  0  0  0  0  0  0  0  0  0  0
   51.9301    8.6280   16.8724 C   0  0  0  0  0  0  0  0  0  0  0  0
   48.5449    4.9858   21.6836 C   0  0  0  0  0  0  0  0  0  0  0  0
   47.2522    5.4487   21.6207 C   0  0  0  0  0  0  0  0  0  0  0  0
   47.5319    7.6484   13.3592 H   0  0  0  0  0  0  0  0  0  0  0  0
   48.5151    4.9331   16.8159 H   0  0  0  0  0  0  0  0  0  0  0  0
   48.4389    7.0280   11.0368 H   0  0  0  0  0  0  0  0  0  0  0  0
   48.8801    2.6661   17.9586 H   0  0  0  0  0  0  0  0  0  0  0  0
   47.0518    8.4936   16.4668 H   0  0  0  0  0  0  0  0  0  0  0  0
   47.9980    9.7451   17.1929 H   0  0  0  0  0  0  0  0  0  0  0  0
   52.0358    8.0504   13.3310 H   0  0  0  0  0  0  0  0  0  0  0  0
   48.2486    5.4365   21.2967 H   0  0  0  0  0  0  0  0  0  0  0  0
   50.1988    9.4975   18.3609 H   0  0  0  0  0  0  0  0  0  0  0  0
   47.4546   10.4207   18.9834 H   0  0  0  0  0  0  0  0  0  0  0  0
   53.6889    8.7231   14.9509 H   0  0  0  0  0  0  0  0  0  0  0  0
   47.8229    7.2758   22.7745 H   0  0  0  0  0  0  0  0  0  0  0  0
   52.5342    9.8985   18.8966 H   0  0  0  0  0  0  0  0  0  0  0  0
   47.1586   11.2121   21.2518 H   0  0  0  0  0  0  0  0  0  0  0  0
   54.2998    9.5110   17.1970 H   0  0  0  0  0  0  0  0  0  0  0  0
   47.3446    9.6513   23.1698 H   0  0  0  0  0  0  0  0  0  0  0  0
   50.2386    6.7631   17.9401 H   0  0  0  0  0  0  0  0  0  0  0  0
   47.5295    8.1271   18.4775 H   0  0  0  0  0  0  0  0  0  0  0  0
   50.8159   10.6892   15.3509 H   0  0  0  0  0  0  0  0  0  0  0  0
   51.6164    9.4578   14.3617 H   0  0  0  0  0  0  0  0  0  0  0  0
   47.3748    9.4949   14.4753 H   0  0  0  0  0  0  0  0  0  0  0  0
   48.2342   10.7142   15.4119 H   0  0  0  0  0  0  0  0  0  0  0  0
   49.4727   10.2155   13.3260 H   0  0  0  0  0  0  0  0  0  0  0  0
   49.4649    8.4855   13.6996 H   0  0  0  0  0  0  0  0  0  0  0  0
   46.1262    6.8452   20.3166 H   0  0  0  0  0  0  0  0  0  0  0  0
   52.1699    7.5795   17.0740 H   0  0  0  0  0  0  0  0  0  0  0  0
   52.7803    9.0488   16.3241 H   0  0  0  0  0  0  0  0  0  0  0  0
   51.8477    9.1667   17.8220 H   0  0  0  0  0  0  0  0  0  0  0  0
   48.9647    4.2878   22.3946 H   0  0  0  0  0  0  0  0  0  0  0  0
   46.4740    5.1486   22.3116 H   0  0  0  0  0  0  0  0  0  0  0  0
  1 11  1  0
  2 12  1  0
  3 22  2  0
  4 23  2  0
  5 22  1  0
  6 23  1  0
  7  9  1  0
  7 11  2  0
  7 13  1  0
  8 10  1  0
  8 12  2  0
  8 13  1  0
  9 14  2  0
  9 20  1  0
 10 15  2  0
 10 21  1  0
 11 16  1  0
 12 17  1  0
 14 18  1  0
 14 24  1  0
 15 19  1  0
 15 25  1  0
 16 18  2  0
 16 22  1  0
 17 19  2  0
 17 23  1  0
 20 26  2  0
 21 27  2  0
 24 28  2  0
 25 29  2  0
 26 28  1  0
 27 29  1  0
 30 35  1  0
 30 42  1  0
 31 33  1  0
 31 37  1  0
 31 41  1  0
 32 33  2  0
 32 38  1  0
 33 34  1  0
 34 36  2  0
 35 36  1  0
 35 40  2  0
 37 39  1  0
 38 39  1  0
 40 43  1  0
 42 43  2  0
  1 44  1  0
  2 45  1  0
  5 46  1  0
  6 47  1  0
 13 48  1  0
 13 49  1  0
 18 50  1  0
 19 51  1  0
 20 52  1  0
 21 53  1  0
 24 54  1  0
 25 55  1  0
 26 56  1  0
 27 57  1  0
 28 58  1  0
 29 59  1  0
 34 60  1  0
 36 61  1  0
 37 62  1  0
 37 63  1  0
 38 64  1  0
 38 65  1  0
 39 66  1  0
 39 67  1  0
 40 68  1  0
 41 69  1  0
 41 70  1  0
 41 71  1  0
 42 72  1  0
 43 73  1  0
M  END
> <Uni-Dock RESULT> 
ENERGY=   -5.051  LOWER_BOUND=    3.856  UPPER_BOUND=    6.644
INTER + INTRA:          -5.051
INTER:                  -5.051
INTRA:                   0.000
UNBOUND:                 0.000

$$$$

     RDKit          3D

 73 77  0  0  0  0  0  0  0  0999 V2000
   50.9975   10.1454   13.4668 O   0  0  0  0  0  0  0  0  0  0  0  0
   49.0117    9.9932   16.1507 O   0  0  0  0  0  0  0  0  0  0  0  0
   48.4496   11.3133   10.3734 O   0  0  0  0  0  0  0  0  0  0  0  0
   47.1345    9.9029   19.8724 O   0  0  0  0  0  0  0  0  0  0  0  0
   50.2336   11.7319   11.6410 O   0  0  0  0  0  0  0  0  0  0  0  0
   47.4941   10.9493   17.9382 O   0  0  0  0  0  0  0  0  0  0  0  0
   49.6550    8.2365   13.9421 C   0  0  0  0  0  0  0  0  0  0  0  0
   49.9869    7.8487   16.5065 C   0  0  0  0  0  0  0  0  0  0  0  0
   48.5582    7.3797   13.6088 C   0  0  0  0  0  0  0  0  0  0  0  0
   50.2651    6.7459   17.3835 C   0  0  0  0  0  0  0  0  0  0  0  0
   49.8849    9.3971   13.1681 C   0  0  0  0  0  0  0  0  0  0  0  0
   49.1726    8.9076   16.9730 C   0  0  0  0  0  0  0  0  0  0  0  0
   50.6004    7.9248   15.1044 C   0  0  0  0  0  0  0  0  0  0  0  0
   47.6891    7.7573   12.5528 C   0  0  0  0  0  0  0  0  0  0  0  0
   49.6443    6.7135   18.6596 C   0  0  0  0  0  0  0  0  0  0  0  0
   49.0163    9.7588   12.1299 C   0  0  0  0  0  0  0  0  0  0  0  0
   48.5682    8.8583   18.2364 C   0  0  0  0  0  0  0  0  0  0  0  0
   47.9220    8.9388   11.8391 C   0  0  0  0  0  0  0  0  0  0  0  0
   48.8018    7.7553   19.0610 C   0  0  0  0  0  0  0  0  0  0  0  0
   48.2744    6.1550   14.2589 C   0  0  0  0  0  0  0  0  0  0  0  0
   51.1283    5.6619   17.0770 C   0  0  0  0  0  0  0  0  0  0  0  0
   49.1726   10.9752   11.2923 C   0  0  0  0  0  0  0  0  0  0  0  0
   47.6775    9.9143   18.7830 C   0  0  0  0  0  0  0  0  0  0  0  0
   46.5913    6.9498   12.2096 C   0  0  0  0  0  0  0  0  0  0  0  0
   49.8689    5.6421   19.5409 C   0  0  0  0  0  0  0  0  0  0  0  0
   47.1809    5.3588   13.9069 C   0  0  0  0  0  0  0  0  0  0  0  0
   51.3467    4.6031   17.9647 C   0  0  0  0  0  0  0  0  0  0  0  0
   46.3359    5.7588   12.8835 C   0  0  0  0  0  0  0  0  0  0  0  0
   50.7129    4.5912   19.1962 C   0  0  0  0  0  0  0  0  0  0  0  0
   47.4240    7.6438   18.7963 S   0  0  0  0  0  0  0  0  0  0  0  0
   48.4007    7.5120   13.4328 N   0  0  0  0  0  0  0  0  0  0  0  0
   50.4798    8.2027   14.3552 N   0  0  0  0  0  0  0  0  0  0  0  0
   49.2364    7.8561   14.4935 C   0  0  0  0  0  0  0  0  0  0  0  0
   48.6993    7.8909   15.8977 C   0  0  0  0  0  0  0  0  0  0  0  0
   49.0776    7.7575   18.3146 C   0  0  0  0  0  0  0  0  0  0  0  0
   49.5120    7.7334   16.9535 C   0  0  0  0  0  0  0  0  0  0  0  0
   48.9365    7.4732   12.0777 C   0  0  0  0  0  0  0  0  0  0  0  0
   51.0736    8.2022   13.0221 C   0  0  0  0  0  0  0  0  0  0  0  0
   50.0491    8.4912   11.9462 C   0  0  0  0  0  0  0  0  0  0  0  0
   49.8888    7.8471   19.4372 C   0  0  0  0  0  0  0  0  0  0  0  0
   47.1737    6.7527   13.6363 C   0  0  0  0  0  0  0  0  0  0  0  0
   47.8105    7.7330   20.4558 C   0  0  0  0  0  0  0  0  0  0  0  0
   49.1649    7.8391   20.6642 C   0  0  0  0  0  0  0  0  0  0  0  0
   50.9834   10.9477   12.9054 H   0  0  0  0  0  0  0  0  0  0  0  0
   48.4143   10.6315   16.5915 H   0  0  0  0  0  0  0  0  0  0  0  0
   50.1863   12.4790   11.0024 H   0  0  0  0  0  0  0  0  0  0  0  0
   46.8830   11.5340   18.4406 H   0  0  0  0  0  0  0  0  0  0  0  0
   51.4169    8.6528   15.1742 H   0  0  0  0  0  0  0  0  0  0  0  0
   51.0929    6.9925   14.8172 H   0  0  0  0  0  0  0  0  0  0  0  0
   47.2470    9.2223   11.0320 H   0  0  0  0  0  0  0  0  0  0  0  0
   48.3299    7.7187   20.0428 H   0  0  0  0  0  0  0  0  0  0  0  0
   48.9109    5.7883   15.0578 H   0  0  0  0  0  0  0  0  0  0  0  0
   51.6646    5.6152   16.1338 H   0  0  0  0  0  0  0  0  0  0  0  0
   45.9219    7.2434   11.4031 H   0  0  0  0  0  0  0  0  0  0  0  0
   49.3876    5.6201   20.5172 H   0  0  0  0  0  0  0  0  0  0  0  0
   46.9964    4.4280   14.4366 H   0  0  0  0  0  0  0  0  0  0  0  0
   52.0160    3.7926   17.6877 H   0  0  0  0  0  0  0  0  0  0  0  0
   45.4831    5.1460   12.6061 H   0  0  0  0  0  0  0  0  0  0  0  0
   50.8786    3.7726   19.8911 H   0  0  0  0  0  0  0  0  0  0  0  0
   47.6361    8.0583   15.9943 H   0  0  0  0  0  0  0  0  0  0  0  0
   50.5780    7.5956   16.7815 H   0  0  0  0  0  0  0  0  0  0  0  0
   49.3083    6.4652   11.8571 H   0  0  0  0  0  0  0  0  0  0  0  0
   48.1505    7.7050   11.3494 H   0  0  0  0  0  0  0  0  0  0  0  0
   51.8549    8.9695   12.9875 H   0  0  0  0  0  0  0  0  0  0  0  0
   51.5653    7.2378   12.8465 H   0  0  0  0  0  0  0  0  0  0  0  0
   50.5072    8.4337   10.9533 H   0  0  0  0  0  0  0  0  0  0  0  0
   49.6502    9.5059   12.0707 H   0  0  0  0  0  0  0  0  0  0  0  0
   50.9689    7.9231   19.3767 H   0  0  0  0  0  0  0  0  0  0  0  0
   46.4440    7.3388   14.2033 H   0  0  0  0  0  0  0  0  0  0  0  0
   46.6986    6.4880   12.6851 H   0  0  0  0  0  0  0  0  0  0  0  0
   47.3826    5.8220   14.1737 H   0  0  0  0  0  0  0  0  0  0  0  0
   47.0263    7.7021   21.1995 H   0  0  0  0  0  0  0  0  0  0  0  0
   49.6166    7.9074   21.6462 H   0  0  0  0  0  0  0  0  0  0  0  0
  1 11  1  0
  2 12  1  0
  3 22  2  0
  4 23  2  0
  5 22  1  0
  6 23  1  0
  7  9  1  0
  7 11  2  0
  7 13  1  0
  8 10  1  0
  8 12  2  0
  8 13  1  0
  9 14  2  0
  9 20  1  0
 10 15  2  0
 10 21  1  0
 11 16  1  0
 12 17  1  0
 14 18  1  0
 14 24  1  0
 15 19  1  0
 15 25  1  0
 16 18  2  0
 16 22  1  0
 17 19  2  0
 17 23  1  0
 20 26  2  0
 21 27  2  0
 24 28  2  0
 25 29  2  0
 26 28  1  0
 27 29  1  0
 30 35  1  0
 30 42  1  0
 31 33  1  0
 31 37  1  0
 31 41  1  0
 32 33  2  0
 32 38  1  0
 33 34  1  0
 34 36  2  0
 35 36  1  0
 35 40  2  0
 37 39  1  0
 38 39  1  0
 40 43  1  0
 42 43  2  0
  1 44  1  0
  2 45  1  0
  5 46  1  0
  6 47  1  0
 13 48  1  0
 13 49  1  0
 18 50  1  0
 19 51  1  0
 20 52  1  0
 21 53  1  0
 24 54  1  0
 25 55  1  0
 26 56  1  0
 27 57  1  0
 28 58  1  0
 29 59  1  0
 34 60  1  0
 36 61  1  0
 37 62  1  0
 37 63  1  0
 38 64  1  0
 38 65  1  0
 39 66  1  0
 39 67  1  0
 40 68  1  0
 41 69  1  0
 41 70  1  0
 41 71  1  0
 42 72  1  0
 43 73  1  0
M  END
> <Uni-Dock RESULT> 
ENERGY=   -4.765  LOWER_BOUND=    4.690  UPPER_BOUND=    7.396
INTER + INTRA:          -4.765
INTER:                  -4.765
INTRA:                   0.000
UNBOUND:                 0.000

$$$$

     RDKit          3D

 73 77  0  0  0  0  0  0  0  0999 V2000
   47.9806    9.4887   13.4719 O   0  0  0  0  0  0  0  0  0  0  0  0
   48.0559    8.2084   16.5582 O   0  0  0  0  0  0  0  0  0  0  0  0
   50.8451    7.2874   11.3807 O   0  0  0  0  0  0  0  0  0  0  0  0
   47.4825    6.8593   20.4613 O   0  0  0  0  0  0  0  0  0  0  0  0
   48.7211    7.9141   11.6263 O   0  0  0  0  0  0  0  0  0  0  0  0
   47.7412    6.3949   18.2973 O   0  0  0  0  0  0  0  0  0  0  0  0
   49.5898   10.1741   15.0883 C   0  0  0  0  0  0  0  0  0  0  0  0
   48.1992   10.4738   17.2821 C   0  0  0  0  0  0  0  0  0  0  0  0
   50.9475   10.2314   15.5370 C   0  0  0  0  0  0  0  0  0  0  0  0
   48.0682   11.4493   18.3280 C   0  0  0  0  0  0  0  0  0  0  0  0
   49.2798    9.4470   13.9159 C   0  0  0  0  0  0  0  0  0  0  0  0
   48.0283    9.1047   17.5957 C   0  0  0  0  0  0  0  0  0  0  0  0
   48.4615   10.8925   15.8317 C   0  0  0  0  0  0  0  0  0  0  0  0
   51.9350    9.4972   14.8307 C   0  0  0  0  0  0  0  0  0  0  0  0
   47.8561   11.0015   19.6582 C   0  0  0  0  0  0  0  0  0  0  0  0
   50.2652    8.7244   13.2304 C   0  0  0  0  0  0  0  0  0  0  0  0
   47.8193    8.6812   18.9151 C   0  0  0  0  0  0  0  0  0  0  0  0
   51.5814    8.7504   13.7007 C   0  0  0  0  0  0  0  0  0  0  0  0
   47.7473    9.6345   19.9335 C   0  0  0  0  0  0  0  0  0  0  0  0
   51.3909   10.9875   16.6483 C   0  0  0  0  0  0  0  0  0  0  0  0
   48.1328   12.8546   18.1410 C   0  0  0  0  0  0  0  0  0  0  0  0
   50.0140    7.9141   12.0114 C   0  0  0  0  0  0  0  0  0  0  0  0
   47.6620    7.2624   19.3268 C   0  0  0  0  0  0  0  0  0  0  0  0
   53.2752    9.5153   15.2532 C   0  0  0  0  0  0  0  0  0  0  0  0
   47.7459   11.9196   20.7164 C   0  0  0  0  0  0  0  0  0  0  0  0
   52.7273   10.9998   17.0575 C   0  0  0  0  0  0  0  0  0  0  0  0
   48.0176   13.7585   19.2023 C   0  0  0  0  0  0  0  0  0  0  0  0
   53.6699   10.2595   16.3614 C   0  0  0  0  0  0  0  0  0  0  0  0
   47.8283   13.2902   20.4920 C   0  0  0  0  0  0  0  0  0  0  0  0
   48.9138    8.9235   20.2719 S   0  0  0  0  0  0  0  0  0  0  0  0
   51.0881   10.0461   15.3985 N   0  0  0  0  0  0  0  0  0  0  0  0
   48.8062   10.6594   15.1389 N   0  0  0  0  0  0  0  0  0  0  0  0
   49.7788   10.1836   15.8552 C   0  0  0  0  0  0  0  0  0  0  0  0
   49.4085    9.7217   17.2376 C   0  0  0  0  0  0  0  0  0  0  0  0
   47.9412    9.8578   19.1948 C   0  0  0  0  0  0  0  0  0  0  0  0
   48.3565   10.2464   17.8840 C   0  0  0  0  0  0  0  0  0  0  0  0
   51.4355   10.5064   14.0597 C   0  0  0  0  0  0  0  0  0  0  0  0
   49.0828   11.1220   13.7828 C   0  0  0  0  0  0  0  0  0  0  0  0
   50.2328   10.3675   13.1510 C   0  0  0  0  0  0  0  0  0  0  0  0
   46.7378   10.1789   19.8072 C   0  0  0  0  0  0  0  0  0  0  0  0
   52.2112    9.9043   16.3162 C   0  0  0  0  0  0  0  0  0  0  0  0
   47.7307    8.9481   21.5011 C   0  0  0  0  0  0  0  0  0  0  0  0
   46.6128    9.6541   21.1258 C   0  0  0  0  0  0  0  0  0  0  0  0
   47.9025    8.8850   12.7047 H   0  0  0  0  0  0  0  0  0  0  0  0
   47.9449    7.3067   16.9231 H   0  0  0  0  0  0  0  0  0  0  0  0
   48.7332    7.3411   10.8264 H   0  0  0  0  0  0  0  0  0  0  0  0
   47.6333    5.5228   18.7395 H   0  0  0  0  0  0  0  0  0  0  0  0
   47.5010   10.7924   15.3129 H   0  0  0  0  0  0  0  0  0  0  0  0
   48.7062   11.9541   15.7453 H   0  0  0  0  0  0  0  0  0  0  0  0
   52.3462    8.1869   13.1668 H   0  0  0  0  0  0  0  0  0  0  0  0
   47.5857    9.3027   20.9591 H   0  0  0  0  0  0  0  0  0  0  0  0
   50.6972   11.5952   17.2205 H   0  0  0  0  0  0  0  0  0  0  0  0
   48.2682   13.2882   17.1545 H   0  0  0  0  0  0  0  0  0  0  0  0
   54.0308    8.9470   14.7139 H   0  0  0  0  0  0  0  0  0  0  0  0
   47.5869   11.5710   21.7355 H   0  0  0  0  0  0  0  0  0  0  0  0
   53.0235   11.5903   17.9205 H   0  0  0  0  0  0  0  0  0  0  0  0
   48.0740   14.8273   19.0128 H   0  0  0  0  0  0  0  0  0  0  0  0
   54.7098   10.2629   16.6751 H   0  0  0  0  0  0  0  0  0  0  0  0
   47.7370   13.9864   21.3211 H   0  0  0  0  0  0  0  0  0  0  0  0
   50.0310    8.9461   17.6606 H   0  0  0  0  0  0  0  0  0  0  0  0
   47.7574   11.0061   17.3850 H   0  0  0  0  0  0  0  0  0  0  0  0
   51.7668   11.5511   14.1036 H   0  0  0  0  0  0  0  0  0  0  0  0
   52.2622    9.9117   13.6538 H   0  0  0  0  0  0  0  0  0  0  0  0
   48.1832   10.9780   13.1743 H   0  0  0  0  0  0  0  0  0  0  0  0
   49.2851   12.1997   13.8033 H   0  0  0  0  0  0  0  0  0  0  0  0
   50.4548   10.7672   12.1560 H   0  0  0  0  0  0  0  0  0  0  0  0
   49.9677    9.3092   13.0333 H   0  0  0  0  0  0  0  0  0  0  0  0
   45.9688   10.7672   19.3186 H   0  0  0  0  0  0  0  0  0  0  0  0
   52.1527    8.9551   16.8576 H   0  0  0  0  0  0  0  0  0  0  0  0
   53.1703    9.9095   15.7865 H   0  0  0  0  0  0  0  0  0  0  0  0
   52.2249   10.7286   17.0366 H   0  0  0  0  0  0  0  0  0  0  0  0
   47.9118    8.4448   22.4408 H   0  0  0  0  0  0  0  0  0  0  0  0
   45.7475    9.7892   21.7629 H   0  0  0  0  0  0  0  0  0  0  0  0
  1 11  1  0
  2 12  1  0
  3 22  2  0
  4 23  2  0
  5 22  1  0
  6 23  1  0
  7  9  1  0
  7 11  2  0
  7 13  1  0
  8 10  1  0
  8 12  2  0
  8 13  1  0
  9 14  2  0
  9 20  1  0
 10 15  2  0
 10 21  1  0
 11 16  1  0
 12 17  1  0
 14 18  1  0
 14 24  1  0
 15 19  1  0
 15 25  1  0
 16 18  2  0
 16 22  1  0
 17 19  2  0
 17 23  1  0
 20 26  2  0
 21 27  2  0
 24 28  2  0
 25 29  2  0
 26 28  1  0
 27 29  1  0
 30 35  1  0
 30 42  1  0
 31 33  1  0
 31 37  1  0
 31 41  1  0
 32 33  2  0
 32 38  1  0
 33 34  1  0
 34 36  2  0
 35 36  1  0
 35 40  2  0
 37 39  1  0
 38 39  1  0
 40 43  1  0
 42 43  2  0
  1 44  1  0
  2 45  1  0
  5 46  1  0
  6 47  1  0
 13 48  1  0
 13 49  1  0
 18 50  1  0
 19 51  1  0
 20 52  1  0
 21 53  1  0
 24 54  1  0
 25 55  1  0
 26 56  1  0
 27 57  1  0
 28 58  1  0
 29 59  1  0
 34 60  1  0
 36 61  1  0
 37 62  1  0
 37 63  1  0
 38 64  1  0
 38 65  1  0
 39 66  1  0
 39 67  1  0
 40 68  1  0
 41 69  1  0
 41 70  1  0
 41 71  1  0
 42 72  1  0
 43 73  1  0
M  END
> <Uni-Dock RESULT> 
ENERGY=   -4.679  LOWER_BOUND=    4.630  UPPER_BOUND=    7.860
INTER + INTRA:          -4.679
INTER:                  -4.679
INTRA:                   0.000
UNBOUND:                 0.000

$$$$

     RDKit          3D

 73 77  0  0  0  0  0  0  0  0999 V2000
   47.2509    8.9140   15.3816 O   0  0  0  0  0  0  0  0  0  0  0  0
   47.5716    7.2930   18.2866 O   0  0  0  0  0  0  0  0  0  0  0  0
   49.4978    6.6473   12.6913 O   0  0  0  0  0  0  0  0  0  0  0  0
   47.3555    5.5865   22.0846 O   0  0  0  0  0  0  0  0  0  0  0  0
   47.5258    7.4833   13.3052 O   0  0  0  0  0  0  0  0  0  0  0  0
   47.2592    5.3430   19.8717 O   0  0  0  0  0  0  0  0  0  0  0  0
   49.1377    9.2219   16.8019 C   0  0  0  0  0  0  0  0  0  0  0  0
   48.1046    9.4302   19.1948 C   0  0  0  0  0  0  0  0  0  0  0  0
   50.5390    9.0709   17.0495 C   0  0  0  0  0  0  0  0  0  0  0  0
   48.2432   10.2897   20.3370 C   0  0  0  0  0  0  0  0  0  0  0  0
   48.5813    8.6727   15.6238 C   0  0  0  0  0  0  0  0  0  0  0  0
   47.8003    8.0633   19.3978 C   0  0  0  0  0  0  0  0  0  0  0  0
   48.2225    9.9771   17.7683 C   0  0  0  0  0  0  0  0  0  0  0  0
   51.3187    8.3121   16.1388 C   0  0  0  0  0  0  0  0  0  0  0  0
   48.1548    9.7219   21.6350 C   0  0  0  0  0  0  0  0  0  0  0  0
   49.3632    7.9232   14.7349 C   0  0  0  0  0  0  0  0  0  0  0  0
   47.7167    7.5203   20.6870 C   0  0  0  0  0  0  0  0  0  0  0  0
   50.7227    7.7437   15.0070 C   0  0  0  0  0  0  0  0  0  0  0  0
   47.9067    8.3543   21.7913 C   0  0  0  0  0  0  0  0  0  0  0  0
   51.2220    9.6402   18.1507 C   0  0  0  0  0  0  0  0  0  0  0  0
   48.4647   11.6903   20.2777 C   0  0  0  0  0  0  0  0  0  0  0  0
   48.8475    7.2904   13.4943 C   0  0  0  0  0  0  0  0  0  0  0  0
   47.4324    6.0918   20.9797 C   0  0  0  0  0  0  0  0  0  0  0  0
   52.6943    8.1275   16.3595 C   0  0  0  0  0  0  0  0  0  0  0  0
   48.3080   10.5211   22.7807 C   0  0  0  0  0  0  0  0  0  0  0  0
   52.5913    9.4517   18.3583 C   0  0  0  0  0  0  0  0  0  0  0  0
   48.6116   12.4755   21.4259 C   0  0  0  0  0  0  0  0  0  0  0  0
   53.3276    8.6910   17.4637 C   0  0  0  0  0  0  0  0  0  0  0  0
   48.5374   11.8894   22.6787 C   0  0  0  0  0  0  0  0  0  0  0  0
   49.0053    7.4797   21.8851 S   0  0  0  0  0  0  0  0  0  0  0  0
   50.6344    8.8874   16.8748 N   0  0  0  0  0  0  0  0  0  0  0  0
   48.4379    9.7856   17.0133 N   0  0  0  0  0  0  0  0  0  0  0  0
   49.4273    9.1227   17.5300 C   0  0  0  0  0  0  0  0  0  0  0  0
   49.1886    8.5533   18.9013 C   0  0  0  0  0  0  0  0  0  0  0  0
   48.0272    8.6358   21.0569 C   0  0  0  0  0  0  0  0  0  0  0  0
   48.3101    9.1195   19.7424 C   0  0  0  0  0  0  0  0  0  0  0  0
   50.8563    9.4529   15.5497 C   0  0  0  0  0  0  0  0  0  0  0  0
   48.5882   10.3635   15.6817 C   0  0  0  0  0  0  0  0  0  0  0  0
   49.5349    9.5575   14.8186 C   0  0  0  0  0  0  0  0  0  0  0  0
   46.9690    9.0224   21.8674 C   0  0  0  0  0  0  0  0  0  0  0  0
   51.8422    8.5140   17.5996 C   0  0  0  0  0  0  0  0  0  0  0  0
   48.0110    7.5016   23.2715 C   0  0  0  0  0  0  0  0  0  0  0  0
   46.9544    8.3699   23.1337 C   0  0  0  0  0  0  0  0  0  0  0  0
   46.9927    8.4140   14.5800 H   0  0  0  0  0  0  0  0  0  0  0  0
   47.3939    6.3746   18.5760 H   0  0  0  0  0  0  0  0  0  0  0  0
   47.3558    7.0069   12.4612 H   0  0  0  0  0  0  0  0  0  0  0  0
   47.0988    4.4448   20.2395 H   0  0  0  0  0  0  0  0  0  0  0  0
   47.1963   10.0478   17.3892 H   0  0  0  0  0  0  0  0  0  0  0  0
   48.5896   11.0062   17.7488 H   0  0  0  0  0  0  0  0  0  0  0  0
   51.3290    7.1596   14.3150 H   0  0  0  0  0  0  0  0  0  0  0  0
   47.8421    7.9296   22.7930 H   0  0  0  0  0  0  0  0  0  0  0  0
   50.6965   10.2553   18.8741 H   0  0  0  0  0  0  0  0  0  0  0  0
   48.5221   12.2140   19.3280 H   0  0  0  0  0  0  0  0  0  0  0  0
   53.2903    7.5403   15.6633 H   0  0  0  0  0  0  0  0  0  0  0  0
   48.2429   10.0801   23.7741 H   0  0  0  0  0  0  0  0  0  0  0  0
   53.0749    9.9026   19.2209 H   0  0  0  0  0  0  0  0  0  0  0  0
   48.7809   13.5452   21.3332 H   0  0  0  0  0  0  0  0  0  0  0  0
   54.3916    8.5388   17.6200 H   0  0  0  0  0  0  0  0  0  0  0  0
   48.6496   12.4933   23.5749 H   0  0  0  0  0  0  0  0  0  0  0  0
   49.7557    7.6682   19.1521 H   0  0  0  0  0  0  0  0  0  0  0  0
   47.7537    9.9948   19.4119 H   0  0  0  0  0  0  0  0  0  0  0  0
   51.3237   10.4407   15.6441 H   0  0  0  0  0  0  0  0  0  0  0  0
   51.5365    8.8164   14.9717 H   0  0  0  0  0  0  0  0  0  0  0  0
   47.6041   10.3940   15.2012 H   0  0  0  0  0  0  0  0  0  0  0  0
   48.9300   11.4013   15.7752 H   0  0  0  0  0  0  0  0  0  0  0  0
   49.6717   10.0388   13.8446 H   0  0  0  0  0  0  0  0  0  0  0  0
   49.1208    8.5570   14.6406 H   0  0  0  0  0  0  0  0  0  0  0  0
   46.2247    9.7470   21.5556 H   0  0  0  0  0  0  0  0  0  0  0  0
   51.7336    7.5229   18.0505 H   0  0  0  0  0  0  0  0  0  0  0  0
   52.7141    8.4683   16.9377 H   0  0  0  0  0  0  0  0  0  0  0  0
   52.0597    9.2444   18.3857 H   0  0  0  0  0  0  0  0  0  0  0  0
   48.2492    6.8778   24.1218 H   0  0  0  0  0  0  0  0  0  0  0  0
   46.2074    8.5312   23.9011 H   0  0  0  0  0  0  0  0  0  0  0  0
  1 11  1  0
  2 12  1  0
  3 22  2  0
  4 23  2  0
  5 22  1  0
  6 23  1  0
  7  9  1  0
  7 11  2  0
  7 13  1  0
  8 10  1  0
  8 12  2  0
  8 13  1  0
  9 14  2  0
  9 20  1  0
 10 15  2  0
 10 21  1  0
 11 16  1  0
 12 17  1  0
 14 18  1  0
 14 24  1  0
 15 19  1  0
 15 25  1  0
 16 18  2  0
 16 22  1  0
 17 19  2  0
 17 23  1  0
 20 26  2  0
 21 27  2  0
 24 28  2  0
 25 29  2  0
 26 28  1  0
 27 29  1  0
 30 35  1  0
 30 42  1  0
 31 33  1  0
 31 37  1  0
 31 41  1  0
 32 33  2  0
 32 38  1  0
 33 34  1  0
 34 36  2  0
 35 36  1  0
 35 40  2  0
 37 39  1  0
 38 39  1  0
 40 43  1  0
 42 43  2  0
  1 44  1  0
  2 45  1  0
  5 46  1  0
  6 47  1  0
 13 48  1  0
 13 49  1  0
 18 50  1  0
 19 51  1  0
 20 52  1  0
 21 53  1  0
 24 54  1  0
 25 55  1  0
 26 56  1  0
 27 57  1  0
 28 58  1  0
 29 59  1  0
 34 60  1  0
 36 61  1  0
 37 62  1  0
 37 63  1  0
 38 64  1  0
 38 65  1  0
 39 66  1  0
 39 67  1  0
 40 68  1  0
 41 69  1  0
 41 70  1  0
 41 71  1  0
 42 72  1  0
 43 73  1  0
M  END
> <Uni-Dock RESULT> 
ENERGY=   -4.652  LOWER_BOUND=    3.443  UPPER_BOUND=    6.863
INTER + INTRA:          -4.652
INTER:                  -4.652
INTRA:                   0.000
UNBOUND:                 0.000

$$$$
