
     RDKit          3D

 73 77  0  0  0  0  0  0  0  0999 V2000
   47.9949    5.9878   15.1356 O   0  0  0  0  0  0  0  0  0  0  0  0
   50.0711    5.0722   17.5986 O   0  0  0  0  0  0  0  0  0  0  0  0
   45.8761    6.7802   11.6345 O   0  0  0  0  0  0  0  0  0  0  0  0
   47.6698    5.1114   21.0133 O   0  0  0  0  0  0  0  0  0  0  0  0
   45.9971    5.7374   13.6002 O   0  0  0  0  0  0  0  0  0  0  0  0
   48.9689    3.9758   19.6027 O   0  0  0  0  0  0  0  0  0  0  0  0
   49.7147    7.5224   14.5319 C   0  0  0  0  0  0  0  0  0  0  0  0
   49.5676    7.3537   17.1373 C   0  0  0  0  0  0  0  0  0  0  0  0
   50.3134    8.3875   13.5539 C   0  0  0  0  0  0  0  0  0  0  0  0
   48.9597    8.5904   17.5230 C   0  0  0  0  0  0  0  0  0  0  0  0
   48.4853    6.8915   14.2280 C   0  0  0  0  0  0  0  0  0  0  0  0
   49.4020    6.2163   17.9605 C   0  0  0  0  0  0  0  0  0  0  0  0
   50.4096    7.2287   15.8656 C   0  0  0  0  0  0  0  0  0  0  0  0
   49.6107    8.6464   12.3479 C   0  0  0  0  0  0  0  0  0  0  0  0
   48.1489    8.6224   18.6865 C   0  0  0  0  0  0  0  0  0  0  0  0
   47.8037    7.1623   13.0339 C   0  0  0  0  0  0  0  0  0  0  0  0
   48.5966    6.2623   19.1058 C   0  0  0  0  0  0  0  0  0  0  0  0
   48.3699    8.0452   12.1115 C   0  0  0  0  0  0  0  0  0  0  0  0
   47.9711    7.4637   19.4517 C   0  0  0  0  0  0  0  0  0  0  0  0
   51.5771    9.0184   13.6928 C   0  0  0  0  0  0  0  0  0  0  0  0
   49.1171    9.8109   16.8233 C   0  0  0  0  0  0  0  0  0  0  0  0
   46.4934    6.5696   12.6621 C   0  0  0  0  0  0  0  0  0  0  0  0
   48.3510    5.1058   20.0048 C   0  0  0  0  0  0  0  0  0  0  0  0
   50.1497    9.5024   11.3726 C   0  0  0  0  0  0  0  0  0  0  0  0
   47.5222    9.8150   19.0865 C   0  0  0  0  0  0  0  0  0  0  0  0
   52.1035    9.8669   12.7139 C   0  0  0  0  0  0  0  0  0  0  0  0
   48.4898   10.9910   17.2320 C   0  0  0  0  0  0  0  0  0  0  0  0
   51.3874   10.1119   11.5539 C   0  0  0  0  0  0  0  0  0  0  0  0
   47.6882   10.9923   18.3629 C   0  0  0  0  0  0  0  0  0  0  0  0
   49.5686    9.5073   19.0332 S   0  0  0  0  0  0  0  0  0  0  0  0
   49.8363    7.8529   13.8354 N   0  0  0  0  0  0  0  0  0  0  0  0
   47.6798    7.1483   14.5354 N   0  0  0  0  0  0  0  0  0  0  0  0
   48.8123    7.7381   14.7718 C   0  0  0  0  0  0  0  0  0  0  0  0
   48.9591    8.3535   16.1367 C   0  0  0  0  0  0  0  0  0  0  0  0
   48.3140    8.4495   18.4995 C   0  0  0  0  0  0  0  0  0  0  0  0
   48.2336    7.9150   17.1769 C   0  0  0  0  0  0  0  0  0  0  0  0
   49.6842    7.2632   12.5128 C   0  0  0  0  0  0  0  0  0  0  0  0
   47.4614    6.5289   13.2322 C   0  0  0  0  0  0  0  0  0  0  0  0
   48.2192    7.2427   12.1334 C   0  0  0  0  0  0  0  0  0  0  0  0
   47.4378    8.1951   19.5452 C   0  0  0  0  0  0  0  0  0  0  0  0
   51.1952    8.2232   14.2059 C   0  0  0  0  0  0  0  0  0  0  0  0
   48.9248    9.6169   20.6100 C   0  0  0  0  0  0  0  0  0  0  0  0
   47.7826    8.8667   20.7534 C   0  0  0  0  0  0  0  0  0  0  0  0
   47.1240    5.6713   14.8194 H   0  0  0  0  0  0  0  0  0  0  0  0
   49.8074    4.3580   18.2148 H   0  0  0  0  0  0  0  0  0  0  0  0
   45.1388    5.4582   13.2101 H   0  0  0  0  0  0  0  0  0  0  0  0
   48.7049    3.3268   20.2932 H   0  0  0  0  0  0  0  0  0  0  0  0
   50.8490    6.2297   15.7608 H   0  0  0  0  0  0  0  0  0  0  0  0
   51.2660    7.8850   16.0381 H   0  0  0  0  0  0  0  0  0  0  0  0
   47.8381    8.2544   11.1833 H   0  0  0  0  0  0  0  0  0  0  0  0
   47.3443    7.4977   20.3424 H   0  0  0  0  0  0  0  0  0  0  0  0
   52.1954    8.8590   14.5712 H   0  0  0  0  0  0  0  0  0  0  0  0
   49.7438    9.8697   15.9393 H   0  0  0  0  0  0  0  0  0  0  0  0
   49.6058    9.6999   10.4505 H   0  0  0  0  0  0  0  0  0  0  0  0
   46.8959    9.8370   19.9766 H   0  0  0  0  0  0  0  0  0  0  0  0
   53.0760   10.3297   12.8630 H   0  0  0  0  0  0  0  0  0  0  0  0
   48.6335   11.9053   16.6624 H   0  0  0  0  0  0  0  0  0  0  0  0
   51.7912   10.7679   10.7877 H   0  0  0  0  0  0  0  0  0  0  0  0
   47.1973   11.9061   18.6852 H   0  0  0  0  0  0  0  0  0  0  0  0
   49.6698    9.1633   16.2186 H   0  0  0  0  0  0  0  0  0  0  0  0
   47.5189    7.1094   17.0176 H   0  0  0  0  0  0  0  0  0  0  0  0
   50.2374    7.8464   11.7680 H   0  0  0  0  0  0  0  0  0  0  0  0
   50.0965    6.2476   12.5145 H   0  0  0  0  0  0  0  0  0  0  0  0
   47.7468    5.4718   13.2818 H   0  0  0  0  0  0  0  0  0  0  0  0
   46.3899    6.5608   13.0076 H   0  0  0  0  0  0  0  0  0  0  0  0
   47.8438    8.2682   12.0241 H   0  0  0  0  0  0  0  0  0  0  0  0
   48.0762    6.7340   11.1745 H   0  0  0  0  0  0  0  0  0  0  0  0
   46.5718    7.5501   19.4422 H   0  0  0  0  0  0  0  0  0  0  0  0
   51.2360    9.2740   14.5098 H   0  0  0  0  0  0  0  0  0  0  0  0
   51.5584    7.5974   15.0285 H   0  0  0  0  0  0  0  0  0  0  0  0
   51.8923    8.1012   13.3697 H   0  0  0  0  0  0  0  0  0  0  0  0
   49.4154   10.2256   21.3567 H   0  0  0  0  0  0  0  0  0  0  0  0
   47.2208    8.8000   21.6772 H   0  0  0  0  0  0  0  0  0  0  0  0
  1 11  1  0
  2 12  1  0
  3 22  2  0
  4 23  2  0
  5 22  1  0
  6 23  1  0
  7  9  1  0
  7 11  2  0
  7 13  1  0
  8 10  1  0
  8 12  2  0
  8 13  1  0
  9 14  2  0
  9 20  1  0
 10 15  2  0
 10 21  1  0
 11 16  1  0
 12 17  1  0
 14 18  1  0
 14 24  1  0
 15 19  1  0
 15 25  1  0
 16 18  2  0
 16 22  1  0
 17 19  2  0
 17 23  1  0
 20 26  2  0
 21 27  2  0
 24 28  2  0
 25 29  2  0
 26 28  1  0
 27 29  1  0
 30 35  1  0
 30 42  1  0
 31 33  1  0
 31 37  1  0
 31 41  1  0
 32 33  2  0
 32 38  1  0
 33 34  1  0
 34 36  2  0
 35 36  1  0
 35 40  2  0
 37 39  1  0
 38 39  1  0
 40 43  1  0
 42 43  2  0
  1 44  1  0
  2 45  1  0
  5 46  1  0
  6 47  1  0
 13 48  1  0
 13 49  1  0
 18 50  1  0
 19 51  1  0
 20 52  1  0
 21 53  1  0
 24 54  1  0
 25 55  1  0
 26 56  1  0
 27 57  1  0
 28 58  1  0
 29 59  1  0
 34 60  1  0
 36 61  1  0
 37 62  1  0
 37 63  1  0
 38 64  1  0
 38 65  1  0
 39 66  1  0
 39 67  1  0
 40 68  1  0
 41 69  1  0
 41 70  1  0
 41 71  1  0
 42 72  1  0
 43 73  1  0
M  END
> <Uni-Dock RESULT> 
ENERGY=   -5.826  LOWER_BOUND=    0.000  UPPER_BOUND=    0.000
INTER + INTRA:          -5.826
INTER:                  -5.826
INTRA:                   0.000
UNBOUND:                 0.000

$$$$

     RDKit          3D

 73 77  0  0  0  0  0  0  0  0999 V2000
   47.3193    7.7329   14.6098 O   0  0  0  0  0  0  0  0  0  0  0  0
   49.3858    6.1720   16.7331 O   0  0  0  0  0  0  0  0  0  0  0  0
   45.1591    9.3798   11.4481 O   0  0  0  0  0  0  0  0  0  0  0  0
   47.1300    5.7595   20.2215 O   0  0  0  0  0  0  0  0  0  0  0  0
   45.2503    7.9670   13.1691 O   0  0  0  0  0  0  0  0  0  0  0  0
   48.2567    4.8090   18.5500 O   0  0  0  0  0  0  0  0  0  0  0  0
   49.1584    9.1952   14.2145 C   0  0  0  0  0  0  0  0  0  0  0  0
   49.0932    8.5354   16.7440 C   0  0  0  0  0  0  0  0  0  0  0  0
   49.8025   10.1772   13.3874 C   0  0  0  0  0  0  0  0  0  0  0  0
   48.6254    9.7226   17.3918 C   0  0  0  0  0  0  0  0  0  0  0  0
   47.8622    8.7485   13.8652 C   0  0  0  0  0  0  0  0  0  0  0  0
   48.8471    7.2788   17.3433 C   0  0  0  0  0  0  0  0  0  0  0  0
   49.8704    8.5859   15.4268 C   0  0  0  0  0  0  0  0  0  0  0  0
   49.0840   10.7284   12.2941 C   0  0  0  0  0  0  0  0  0  0  0  0
   47.8659    9.5995   18.5836 C   0  0  0  0  0  0  0  0  0  0  0  0
   47.1663    9.3072   12.7846 C   0  0  0  0  0  0  0  0  0  0  0  0
   48.0937    7.1725   18.5195 C   0  0  0  0  0  0  0  0  0  0  0  0
   47.7819   10.2986   12.0172 C   0  0  0  0  0  0  0  0  0  0  0  0
   47.6034    8.3345   19.1225 C   0  0  0  0  0  0  0  0  0  0  0  0
   51.1266   10.6531   13.5731 C   0  0  0  0  0  0  0  0  0  0  0  0
   48.8762   11.0370   16.9299 C   0  0  0  0  0  0  0  0  0  0  0  0
   45.7908    8.9183   12.3805 C   0  0  0  0  0  0  0  0  0  0  0  0
   47.7690    5.8897   19.1939 C   0  0  0  0  0  0  0  0  0  0  0  0
   49.6680   11.7063   11.4713 C   0  0  0  0  0  0  0  0  0  0  0  0
   47.3756   10.7425   19.2380 C   0  0  0  0  0  0  0  0  0  0  0  0
   51.6971   11.6255   12.7460 C   0  0  0  0  0  0  0  0  0  0  0  0
   48.3844   12.1661   17.5905 C   0  0  0  0  0  0  0  0  0  0  0  0
   50.9657   12.1553   11.6959 C   0  0  0  0  0  0  0  0  0  0  0  0
   47.6298   12.0186   18.7439 C   0  0  0  0  0  0  0  0  0  0  0  0
   49.3781   10.2689   19.0126 S   0  0  0  0  0  0  0  0  0  0  0  0
   49.2858    9.6430   13.5881 N   0  0  0  0  0  0  0  0  0  0  0  0
   47.0980    9.0116   14.2605 N   0  0  0  0  0  0  0  0  0  0  0  0
   48.2913    9.4400   14.5413 C   0  0  0  0  0  0  0  0  0  0  0  0
   48.5493    9.7617   15.9880 C   0  0  0  0  0  0  0  0  0  0  0  0
   48.0060    9.4524   18.3581 C   0  0  0  0  0  0  0  0  0  0  0  0
   47.8237    9.1955   16.9645 C   0  0  0  0  0  0  0  0  0  0  0  0
   49.0266    9.3387   12.1879 C   0  0  0  0  0  0  0  0  0  0  0  0
   46.7708    8.6805   12.8774 C   0  0  0  0  0  0  0  0  0  0  0  0
   47.5535    9.5241   11.8942 C   0  0  0  0  0  0  0  0  0  0  0  0
   47.1489    9.0784   19.3835 C   0  0  0  0  0  0  0  0  0  0  0  0
   50.6876    9.8105   13.9458 C   0  0  0  0  0  0  0  0  0  0  0  0
   48.8080   10.1261   20.6149 C   0  0  0  0  0  0  0  0  0  0  0  0
   47.6034    9.4678   20.6763 C   0  0  0  0  0  0  0  0  0  0  0  0
   46.4101    7.5636   14.2883 H   0  0  0  0  0  0  0  0  0  0  0  0
   49.0762    5.3779   17.2156 H   0  0  0  0  0  0  0  0  0  0  0  0
   44.3545    7.8474   12.7816 H   0  0  0  0  0  0  0  0  0  0  0  0
   47.9560    4.0641   19.1177 H   0  0  0  0  0  0  0  0  0  0  0  0
   50.2047    7.5912   15.1091 H   0  0  0  0  0  0  0  0  0  0  0  0
   50.7933    9.1165   15.6730 H   0  0  0  0  0  0  0  0  0  0  0  0
   47.2389   10.7317   11.1771 H   0  0  0  0  0  0  0  0  0  0  0  0
   47.0169    8.2502   20.0371 H   0  0  0  0  0  0  0  0  0  0  0  0
   51.7587   10.2706   14.3690 H   0  0  0  0  0  0  0  0  0  0  0  0
   49.4720   11.2106   16.0396 H   0  0  0  0  0  0  0  0  0  0  0  0
   49.1119   12.1279   10.6356 H   0  0  0  0  0  0  0  0  0  0  0  0
   46.7884   10.6466   20.1495 H   0  0  0  0  0  0  0  0  0  0  0  0
   52.7155   11.9612   12.9260 H   0  0  0  0  0  0  0  0  0  0  0  0
   48.5962   13.1573   17.1984 H   0  0  0  0  0  0  0  0  0  0  0  0
   51.4034   12.9092   11.0474 H   0  0  0  0  0  0  0  0  0  0  0  0
   47.2440   12.8923   19.2615 H   0  0  0  0  0  0  0  0  0  0  0  0
   49.3391   10.4728   16.1829 H   0  0  0  0  0  0  0  0  0  0  0  0
   47.0273    8.5039   16.6947 H   0  0  0  0  0  0  0  0  0  0  0  0
   49.6064   10.0040   11.5382 H   0  0  0  0  0  0  0  0  0  0  0  0
   49.3364    8.3095   11.9729 H   0  0  0  0  0  0  0  0  0  0  0  0
   46.9520    7.6128   12.7086 H   0  0  0  0  0  0  0  0  0  0  0  0
   45.6999    8.8516   12.7233 H   0  0  0  0  0  0  0  0  0  0  0  0
   47.2775   10.5806   12.0035 H   0  0  0  0  0  0  0  0  0  0  0  0
   47.3251    9.2271   10.8654 H   0  0  0  0  0  0  0  0  0  0  0  0
   46.2202    8.5463   19.2080 H   0  0  0  0  0  0  0  0  0  0  0  0
   50.8434   10.7739   14.4417 H   0  0  0  0  0  0  0  0  0  0  0  0
   51.0178    9.0063   14.6124 H   0  0  0  0  0  0  0  0  0  0  0  0
   51.3373    9.7920   13.0640 H   0  0  0  0  0  0  0  0  0  0  0  0
   49.3840   10.5309   21.4353 H   0  0  0  0  0  0  0  0  0  0  0  0
   47.0729    9.2728   21.6004 H   0  0  0  0  0  0  0  0  0  0  0  0
  1 11  1  0
  2 12  1  0
  3 22  2  0
  4 23  2  0
  5 22  1  0
  6 23  1  0
  7  9  1  0
  7 11  2  0
  7 13  1  0
  8 10  1  0
  8 12  2  0
  8 13  1  0
  9 14  2  0
  9 20  1  0
 10 15  2  0
 10 21  1  0
 11 16  1  0
 12 17  1  0
 14 18  1  0
 14 24  1  0
 15 19  1  0
 15 25  1  0
 16 18  2  0
 16 22  1  0
 17 19  2  0
 17 23  1  0
 20 26  2  0
 21 27  2  0
 24 28  2  0
 25 29  2  0
 26 28  1  0
 27 29  1  0
 30 35  1  0
 30 42  1  0
 31 33  1  0
 31 37  1  0
 31 41  1  0
 32 33  2  0
 32 38  1  0
 33 34  1  0
 34 36  2  0
 35 36  1  0
 35 40  2  0
 37 39  1  0
 38 39  1  0
 40 43  1  0
 42 43  2  0
  1 44  1  0
  2 45  1  0
  5 46  1  0
  6 47  1  0
 13 48  1  0
 13 49  1  0
 18 50  1  0
 19 51  1  0
 20 52  1  0
 21 53  1  0
 24 54  1  0
 25 55  1  0
 26 56  1  0
 27 57  1  0
 28 58  1  0
 29 59  1  0
 34 60  1  0
 36 61  1  0
 37 62  1  0
 37 63  1  0
 38 64  1  0
 38 65  1  0
 39 66  1  0
 39 67  1  0
 40 68  1  0
 41 69  1  0
 41 70  1  0
 41 71  1  0
 42 72  1  0
 43 73  1  0
M  END
> <Uni-Dock RESULT> 
ENERGY=   -5.569  LOWER_BOUND=    1.508  UPPER_BOUND=    1.702
INTER + INTRA:          -5.569
INTER:                  -5.569
INTRA:                   0.000
UNBOUND:                 0.000

$$$$

     RDKit          3D

 73 77  0  0  0  0  0  0  0  0999 V2000
   47.8770    6.8273   20.1804 O   0  0  0  0  0  0  0  0  0  0  0  0
   47.9295    5.3789   17.1613 O   0  0  0  0  0  0  0  0  0  0  0  0
   47.1403    8.8373   23.7570 O   0  0  0  0  0  0  0  0  0  0  0  0
   50.7988    2.3695   17.5324 O   0  0  0  0  0  0  0  0  0  0  0  0
   47.4894    6.9174   22.6810 O   0  0  0  0  0  0  0  0  0  0  0  0
   48.6883    2.9589   17.1259 O   0  0  0  0  0  0  0  0  0  0  0  0
   48.0450    8.8761   18.9757 C   0  0  0  0  0  0  0  0  0  0  0  0
   49.5018    7.0490   17.8020 C   0  0  0  0  0  0  0  0  0  0  0  0
   47.8947   10.3040   18.9365 C   0  0  0  0  0  0  0  0  0  0  0  0
   50.8439    7.4291   18.1213 C   0  0  0  0  0  0  0  0  0  0  0  0
   47.8340    8.1979   20.1994 C   0  0  0  0  0  0  0  0  0  0  0  0
   49.2112    5.6891   17.5466 C   0  0  0  0  0  0  0  0  0  0  0  0
   48.3707    8.0756   17.7103 C   0  0  0  0  0  0  0  0  0  0  0  0
   47.6212   10.9966   20.1452 C   0  0  0  0  0  0  0  0  0  0  0  0
   51.8326    6.4190   18.2412 C   0  0  0  0  0  0  0  0  0  0  0  0
   47.5688    8.8986   21.3837 C   0  0  0  0  0  0  0  0  0  0  0  0
   50.1976    4.7022   17.6708 C   0  0  0  0  0  0  0  0  0  0  0  0
   47.4755   10.2917   21.3447 C   0  0  0  0  0  0  0  0  0  0  0  0
   51.4967    5.0773   18.0257 C   0  0  0  0  0  0  0  0  0  0  0  0
   47.9969   11.0996   17.7657 C   0  0  0  0  0  0  0  0  0  0  0  0
   51.2705    8.7641   18.3211 C   0  0  0  0  0  0  0  0  0  0  0  0
   47.3741    8.2607   22.7110 C   0  0  0  0  0  0  0  0  0  0  0  0
   49.9655    3.2523   17.4470 C   0  0  0  0  0  0  0  0  0  0  0  0
   47.4866   12.3953   20.1564 C   0  0  0  0  0  0  0  0  0  0  0  0
   53.1574    6.7532   18.5702 C   0  0  0  0  0  0  0  0  0  0  0  0
   47.8591   12.4909   17.7898 C   0  0  0  0  0  0  0  0  0  0  0  0
   52.5915    9.0840   18.6464 C   0  0  0  0  0  0  0  0  0  0  0  0
   47.6071   13.1399   18.9871 C   0  0  0  0  0  0  0  0  0  0  0  0
   53.5354    8.0771   18.7749 C   0  0  0  0  0  0  0  0  0  0  0  0
   52.1880    7.3116   16.8284 S   0  0  0  0  0  0  0  0  0  0  0  0
   47.8355    9.5888   19.2150 N   0  0  0  0  0  0  0  0  0  0  0  0
   48.4829    7.8883   20.7402 N   0  0  0  0  0  0  0  0  0  0  0  0
   48.6580    8.5466   19.6347 C   0  0  0  0  0  0  0  0  0  0  0  0
   49.8575    8.1501   18.8179 C   0  0  0  0  0  0  0  0  0  0  0  0
   51.5390    6.4794   18.1938 C   0  0  0  0  0  0  0  0  0  0  0  0
   50.4002    6.9281   18.9309 C   0  0  0  0  0  0  0  0  0  0  0  0
   46.6814    9.9741   20.0149 C   0  0  0  0  0  0  0  0  0  0  0  0
   47.3416    8.2173   21.5881 C   0  0  0  0  0  0  0  0  0  0  0  0
   46.9544    9.6760   21.4734 C   0  0  0  0  0  0  0  0  0  0  0  0
   52.2720    5.3254   18.4323 C   0  0  0  0  0  0  0  0  0  0  0  0
   47.8499   10.0932   17.8488 C   0  0  0  0  0  0  0  0  0  0  0  0
   53.4178    6.1512   16.5961 C   0  0  0  0  0  0  0  0  0  0  0  0
   53.3516    5.1380   17.5219 C   0  0  0  0  0  0  0  0  0  0  0  0
   47.7637    6.5002   21.0963 H   0  0  0  0  0  0  0  0  0  0  0  0
   47.8610    4.4046   17.0896 H   0  0  0  0  0  0  0  0  0  0  0  0
   47.3556    6.6672   23.6225 H   0  0  0  0  0  0  0  0  0  0  0  0
   48.7111    1.9816   17.0166 H   0  0  0  0  0  0  0  0  0  0  0  0
   47.4259    7.6183   17.3937 H   0  0  0  0  0  0  0  0  0  0  0  0
   48.6532    8.7210   16.8751 H   0  0  0  0  0  0  0  0  0  0  0  0
   47.2691   10.8347   22.2670 H   0  0  0  0  0  0  0  0  0  0  0  0
   52.2627    4.3083   18.1226 H   0  0  0  0  0  0  0  0  0  0  0  0
   48.1803   10.6534   16.7928 H   0  0  0  0  0  0  0  0  0  0  0  0
   50.5763    9.5920   18.2199 H   0  0  0  0  0  0  0  0  0  0  0  0
   47.2795   12.9221   21.0864 H   0  0  0  0  0  0  0  0  0  0  0  0
   53.9141    5.9768   18.6671 H   0  0  0  0  0  0  0  0  0  0  0  0
   47.9459   13.0607   16.8679 H   0  0  0  0  0  0  0  0  0  0  0  0
   52.8754   10.1223   18.7964 H   0  0  0  0  0  0  0  0  0  0  0  0
   47.4963   14.2204   19.0132 H   0  0  0  0  0  0  0  0  0  0  0  0
   54.5636    8.3192   19.0284 H   0  0  0  0  0  0  0  0  0  0  0  0
   50.2497    8.9055   18.1524 H   0  0  0  0  0  0  0  0  0  0  0  0
   49.9670    6.2233   19.6386 H   0  0  0  0  0  0  0  0  0  0  0  0
   46.4778   11.0449   19.9017 H   0  0  0  0  0  0  0  0  0  0  0  0
   45.7963    9.4279   19.6686 H   0  0  0  0  0  0  0  0  0  0  0  0
   46.4986    7.5666   21.3282 H   0  0  0  0  0  0  0  0  0  0  0  0
   47.6066    7.9975   22.6279 H   0  0  0  0  0  0  0  0  0  0  0  0
   47.7706   10.3107   21.8414 H   0  0  0  0  0  0  0  0  0  0  0  0
   46.0697    9.8882   22.0825 H   0  0  0  0  0  0  0  0  0  0  0  0
   52.0420    4.6402   19.2411 H   0  0  0  0  0  0  0  0  0  0  0  0
   48.7820   10.6313   17.6495 H   0  0  0  0  0  0  0  0  0  0  0  0
   47.7486    9.2726   17.1301 H   0  0  0  0  0  0  0  0  0  0  0  0
   47.0271   10.7926   17.6648 H   0  0  0  0  0  0  0  0  0  0  0  0
   54.1298    6.2671   15.7909 H   0  0  0  0  0  0  0  0  0  0  0  0
   54.0408    4.3027   17.5471 H   0  0  0  0  0  0  0  0  0  0  0  0
  1 11  1  0
  2 12  1  0
  3 22  2  0
  4 23  2  0
  5 22  1  0
  6 23  1  0
  7  9  1  0
  7 11  2  0
  7 13  1  0
  8 10  1  0
  8 12  2  0
  8 13  1  0
  9 14  2  0
  9 20  1  0
 10 15  2  0
 10 21  1  0
 11 16  1  0
 12 17  1  0
 14 18  1  0
 14 24  1  0
 15 19  1  0
 15 25  1  0
 16 18  2  0
 16 22  1  0
 17 19  2  0
 17 23  1  0
 20 26  2  0
 21 27  2  0
 24 28  2  0
 25 29  2  0
 26 28  1  0
 27 29  1  0
 30 35  1  0
 30 42  1  0
 31 33  1  0
 31 37  1  0
 31 41  1  0
 32 33  2  0
 32 38  1  0
 33 34  1  0
 34 36  2  0
 35 36  1  0
 35 40  2  0
 37 39  1  0
 38 39  1  0
 40 43  1  0
 42 43  2  0
  1 44  1  0
  2 45  1  0
  5 46  1  0
  6 47  1  0
 13 48  1  0
 13 49  1  0
 18 50  1  0
 19 51  1  0
 20 52  1  0
 21 53  1  0
 24 54  1  0
 25 55  1  0
 26 56  1  0
 27 57  1  0
 28 58  1  0
 29 59  1  0
 34 60  1  0
 36 61  1  0
 37 62  1  0
 37 63  1  0
 38 64  1  0
 38 65  1  0
 39 66  1  0
 39 67  1  0
 40 68  1  0
 41 69  1  0
 41 70  1  0
 41 71  1  0
 42 72  1  0
 43 73  1  0
M  END
> <Uni-Dock RESULT> 
ENERGY=   -5.306  LOWER_BOUND=    3.707  UPPER_BOUND=    6.364
INTER + INTRA:          -5.306
INTER:                  -5.306
INTRA:                   0.000
UNBOUND:                 0.000

$$$$

     RDKit          3D

 73 77  0  0  0  0  0  0  0  0999 V2000
   47.9944   10.5851   15.7638 O   0  0  0  0  0  0  0  0  0  0  0  0
   48.2877   11.2953   12.5042 O   0  0  0  0  0  0  0  0  0  0  0  0
   48.2380   10.0893   19.8954 O   0  0  0  0  0  0  0  0  0  0  0  0
   44.3965   10.9344   11.0359 O   0  0  0  0  0  0  0  0  0  0  0  0
   47.1829   10.9546   18.1337 O   0  0  0  0  0  0  0  0  0  0  0  0
   46.1952   12.2009   11.3930 O   0  0  0  0  0  0  0  0  0  0  0  0
   49.8416    9.1238   15.4035 C   0  0  0  0  0  0  0  0  0  0  0  0
   48.2566    9.0597   13.3245 C   0  0  0  0  0  0  0  0  0  0  0  0
   50.9316    8.3536   15.9344 C   0  0  0  0  0  0  0  0  0  0  0  0
   47.6077    7.7889   13.4323 C   0  0  0  0  0  0  0  0  0  0  0  0
   48.9577    9.7694   16.3000 C   0  0  0  0  0  0  0  0  0  0  0  0
   47.5962   10.1183   12.6597 C   0  0  0  0  0  0  0  0  0  0  0  0
   49.6562    9.3037   13.8931 C   0  0  0  0  0  0  0  0  0  0  0  0
   51.0372    8.1971   17.3414 C   0  0  0  0  0  0  0  0  0  0  0  0
   46.2890    7.6474   12.9292 C   0  0  0  0  0  0  0  0  0  0  0  0
   49.0748    9.6000   17.6863 C   0  0  0  0  0  0  0  0  0  0  0  0
   46.2929    9.9646   12.1695 C   0  0  0  0  0  0  0  0  0  0  0  0
   50.1080    8.8069   18.1907 C   0  0  0  0  0  0  0  0  0  0  0  0
   45.6497    8.7323   12.3176 C   0  0  0  0  0  0  0  0  0  0  0  0
   51.9359    7.7230   15.1547 C   0  0  0  0  0  0  0  0  0  0  0  0
   48.1971    6.6365   14.0056 C   0  0  0  0  0  0  0  0  0  0  0  0
   48.1640   10.2129   18.6869 C   0  0  0  0  0  0  0  0  0  0  0  0
   45.5229   11.0348   11.4856 C   0  0  0  0  0  0  0  0  0  0  0  0
   52.0758    7.4352   17.9029 C   0  0  0  0  0  0  0  0  0  0  0  0
   45.6140    6.4191   13.0327 C   0  0  0  0  0  0  0  0  0  0  0  0
   52.9656    6.9688   15.7258 C   0  0  0  0  0  0  0  0  0  0  0  0
   47.5161    5.4198   14.1015 C   0  0  0  0  0  0  0  0  0  0  0  0
   53.0338    6.8219   17.1013 C   0  0  0  0  0  0  0  0  0  0  0  0
   46.2215    5.3120   13.6179 C   0  0  0  0  0  0  0  0  0  0  0  0
   47.3208    6.7466   11.9081 S   0  0  0  0  0  0  0  0  0  0  0  0
   50.3494    8.8573   15.9328 N   0  0  0  0  0  0  0  0  0  0  0  0
   48.1336    9.4799   16.5158 N   0  0  0  0  0  0  0  0  0  0  0  0
   48.9726    8.8805   15.7264 C   0  0  0  0  0  0  0  0  0  0  0  0
   48.3673    8.1477   14.5603 C   0  0  0  0  0  0  0  0  0  0  0  0
   46.5203    7.8375   12.9790 C   0  0  0  0  0  0  0  0  0  0  0  0
   47.1616    8.4865   14.0785 C   0  0  0  0  0  0  0  0  0  0  0  0
   50.9282    9.5607   17.0687 C   0  0  0  0  0  0  0  0  0  0  0  0
   48.6451   10.2106   17.6708 C   0  0  0  0  0  0  0  0  0  0  0  0
   49.9257    9.6030   18.2018 C   0  0  0  0  0  0  0  0  0  0  0  0
   45.1971    7.9913   12.5898 C   0  0  0  0  0  0  0  0  0  0  0  0
   51.2887    8.4665   14.8906 C   0  0  0  0  0  0  0  0  0  0  0  0
   45.9142    6.4925   10.9755 C   0  0  0  0  0  0  0  0  0  0  0  0
   44.8462    7.2180   11.4460 C   0  0  0  0  0  0  0  0  0  0  0  0
   47.4319   10.9214   16.4913 H   0  0  0  0  0  0  0  0  0  0  0  0
   47.6854   11.9499   12.0944 H   0  0  0  0  0  0  0  0  0  0  0  0
   46.6741   11.2605   18.9176 H   0  0  0  0  0  0  0  0  0  0  0  0
   45.5549   12.7840   10.9265 H   0  0  0  0  0  0  0  0  0  0  0  0
   50.0223   10.3115   13.6643 H   0  0  0  0  0  0  0  0  0  0  0  0
   50.3060    8.6415   13.3158 H   0  0  0  0  0  0  0  0  0  0  0  0
   50.1973    8.6766   19.2692 H   0  0  0  0  0  0  0  0  0  0  0  0
   44.6356    8.6145   11.9364 H   0  0  0  0  0  0  0  0  0  0  0  0
   51.9488    7.8087   14.0723 H   0  0  0  0  0  0  0  0  0  0  0  0
   49.2125    6.6613   14.3877 H   0  0  0  0  0  0  0  0  0  0  0  0
   52.1510    7.3159   18.9824 H   0  0  0  0  0  0  0  0  0  0  0  0
   44.6001    6.3132   12.6510 H   0  0  0  0  0  0  0  0  0  0  0  0
   53.7137    6.5024   15.0894 H   0  0  0  0  0  0  0  0  0  0  0  0
   48.0043    4.5608   14.5540 H   0  0  0  0  0  0  0  0  0  0  0  0
   53.8325    6.2396   17.5523 H   0  0  0  0  0  0  0  0  0  0  0  0
   45.6866    4.3692   13.6902 H   0  0  0  0  0  0  0  0  0  0  0  0
   48.9556    7.3396   14.1500 H   0  0  0  0  0  0  0  0  0  0  0  0
   46.6134    9.2973   14.5552 H   0  0  0  0  0  0  0  0  0  0  0  0
   51.8346    9.0502   17.4133 H   0  0  0  0  0  0  0  0  0  0  0  0
   51.2115   10.5754   16.7661 H   0  0  0  0  0  0  0  0  0  0  0  0
   48.7942   11.2614   17.3970 H   0  0  0  0  0  0  0  0  0  0  0  0
   47.8850   10.1902   18.4592 H   0  0  0  0  0  0  0  0  0  0  0  0
   49.7337    8.5884   18.5732 H   0  0  0  0  0  0  0  0  0  0  0  0
   50.3138   10.1937   19.0381 H   0  0  0  0  0  0  0  0  0  0  0  0
   44.5013    8.6359   13.1160 H   0  0  0  0  0  0  0  0  0  0  0  0
   51.2120    7.3932   14.6894 H   0  0  0  0  0  0  0  0  0  0  0  0
   51.0952    9.0197   13.9651 H   0  0  0  0  0  0  0  0  0  0  0  0
   52.3255    8.6676   15.1814 H   0  0  0  0  0  0  0  0  0  0  0  0
   45.9380    5.8240   10.1263 H   0  0  0  0  0  0  0  0  0  0  0  0
   43.8620    7.1980   10.9941 H   0  0  0  0  0  0  0  0  0  0  0  0
  1 11  1  0
  2 12  1  0
  3 22  2  0
  4 23  2  0
  5 22  1  0
  6 23  1  0
  7  9  1  0
  7 11  2  0
  7 13  1  0
  8 10  1  0
  8 12  2  0
  8 13  1  0
  9 14  2  0
  9 20  1  0
 10 15  2  0
 10 21  1  0
 11 16  1  0
 12 17  1  0
 14 18  1  0
 14 24  1  0
 15 19  1  0
 15 25  1  0
 16 18  2  0
 16 22  1  0
 17 19  2  0
 17 23  1  0
 20 26  2  0
 21 27  2  0
 24 28  2  0
 25 29  2  0
 26 28  1  0
 27 29  1  0
 30 35  1  0
 30 42  1  0
 31 33  1  0
 31 37  1  0
 31 41  1  0
 32 33  2  0
 32 38  1  0
 33 34  1  0
 34 36  2  0
 35 36  1  0
 35 40  2  0
 37 39  1  0
 38 39  1  0
 40 43  1  0
 42 43  2  0
  1 44  1  0
  2 45  1  0
  5 46  1  0
  6 47  1  0
 13 48  1  0
 13 49  1  0
 18 50  1  0
 19 51  1  0
 20 52  1  0
 21 53  1  0
 24 54  1  0
 25 55  1  0
 26 56  1  0
 27 57  1  0
 28 58  1  0
 29 59  1  0
 34 60  1  0
 36 61  1  0
 37 62  1  0
 37 63  1  0
 38 64  1  0
 38 65  1  0
 39 66  1  0
 39 67  1  0
 40 68  1  0
 41 69  1  0
 41 70  1  0
 41 71  1  0
 42 72  1  0
 43 73  1  0
M  END
> <Uni-Dock RESULT> 
ENERGY=   -5.039  LOWER_BOUND=    2.947  UPPER_BOUND=    6.542
INTER + INTRA:          -5.039
INTER:                  -5.039
INTRA:                   0.000
UNBOUND:                 0.000

$$$$

     RDKit          3D

 73 77  0  0  0  0  0  0  0  0999 V2000
   49.1941   10.6001   17.6843 O   0  0  0  0  0  0  0  0  0  0  0  0
   51.9208   10.6947   15.7422 O   0  0  0  0  0  0  0  0  0  0  0  0
   46.2263   10.1328   20.5738 O   0  0  0  0  0  0  0  0  0  0  0  0
   51.2481   13.9458   13.2113 O   0  0  0  0  0  0  0  0  0  0  0  0
   47.5786   11.4802   19.4242 O   0  0  0  0  0  0  0  0  0  0  0  0
   52.4953   12.9699   14.7795 O   0  0  0  0  0  0  0  0  0  0  0  0
   49.1375    8.2805   17.1423 C   0  0  0  0  0  0  0  0  0  0  0  0
   49.8963    9.6502   15.0480 C   0  0  0  0  0  0  0  0  0  0  0  0
   48.6735    6.9529   17.4343 C   0  0  0  0  0  0  0  0  0  0  0  0
   48.7543    9.6123   14.1864 C   0  0  0  0  0  0  0  0  0  0  0  0
   48.6509    9.3619   17.9141 C   0  0  0  0  0  0  0  0  0  0  0  0
   50.7938   10.7389   14.9578 C   0  0  0  0  0  0  0  0  0  0  0  0
   50.1867    8.5352   16.0550 C   0  0  0  0  0  0  0  0  0  0  0  0
   47.6791    6.7797   18.4325 C   0  0  0  0  0  0  0  0  0  0  0  0
   48.5174   10.7049   13.3134 C   0  0  0  0  0  0  0  0  0  0  0  0
   47.6659    9.1726   18.8929 C   0  0  0  0  0  0  0  0  0  0  0  0
   50.5458   11.8120   14.0921 C   0  0  0  0  0  0  0  0  0  0  0  0
   47.1838    7.8841   19.1339 C   0  0  0  0  0  0  0  0  0  0  0  0
   49.4046   11.7874   13.2851 C   0  0  0  0  0  0  0  0  0  0  0  0
   49.1361    5.7724   16.7967 C   0  0  0  0  0  0  0  0  0  0  0  0
   47.8300    8.5415   14.1311 C   0  0  0  0  0  0  0  0  0  0  0  0
   47.0793   10.2617   19.7153 C   0  0  0  0  0  0  0  0  0  0  0  0
   51.4238   13.0026   13.9601 C   0  0  0  0  0  0  0  0  0  0  0  0
   47.1818    5.5011   18.7362 C   0  0  0  0  0  0  0  0  0  0  0  0
   47.3969   10.7102   12.4653 C   0  0  0  0  0  0  0  0  0  0  0  0
   48.6344    4.5051   17.1093 C   0  0  0  0  0  0  0  0  0  0  0  0
   46.7200    8.5577   13.2820 C   0  0  0  0  0  0  0  0  0  0  0  0
   47.6536    4.3697   18.0778 C   0  0  0  0  0  0  0  0  0  0  0  0
   46.5009    9.6451   12.4508 C   0  0  0  0  0  0  0  0  0  0  0  0
   48.9717    9.3720   12.3460 S   0  0  0  0  0  0  0  0  0  0  0  0
   48.7958    7.7050   17.5437 N   0  0  0  0  0  0  0  0  0  0  0  0
   48.0202    9.9465   17.6495 N   0  0  0  0  0  0  0  0  0  0  0  0
   48.4502    8.9262   16.9710 C   0  0  0  0  0  0  0  0  0  0  0  0
   48.5196    9.1122   15.4798 C   0  0  0  0  0  0  0  0  0  0  0  0
   48.6931   10.5924   13.5338 C   0  0  0  0  0  0  0  0  0  0  0  0
   48.6255   10.3350   14.9376 C   0  0  0  0  0  0  0  0  0  0  0  0
   48.7173    7.5283   18.9869 C   0  0  0  0  0  0  0  0  0  0  0  0
   47.9228    9.8420   19.1019 C   0  0  0  0  0  0  0  0  0  0  0  0
   47.6346    8.4247   19.5482 C   0  0  0  0  0  0  0  0  0  0  0  0
   48.5735   11.8297   12.9167 C   0  0  0  0  0  0  0  0  0  0  0  0
   49.5662    6.6973   16.8282 C   0  0  0  0  0  0  0  0  0  0  0  0
   48.9125   10.4897   11.0576 C   0  0  0  0  0  0  0  0  0  0  0  0
   48.6936   11.7727   11.4983 C   0  0  0  0  0  0  0  0  0  0  0  0
   48.7317   11.2520   18.2499 H   0  0  0  0  0  0  0  0  0  0  0  0
   52.4048   11.5382   15.6267 H   0  0  0  0  0  0  0  0  0  0  0  0
   47.0784   12.0702   20.0312 H   0  0  0  0  0  0  0  0  0  0  0  0
   52.9560   13.8129   14.5679 H   0  0  0  0  0  0  0  0  0  0  0  0
   51.1333    8.6964   16.5842 H   0  0  0  0  0  0  0  0  0  0  0  0
   50.3669    7.6502   15.4400 H   0  0  0  0  0  0  0  0  0  0  0  0
   46.4178    7.7391   19.8957 H   0  0  0  0  0  0  0  0  0  0  0  0
   49.2126   12.6233   12.6128 H   0  0  0  0  0  0  0  0  0  0  0  0
   49.9123    5.8062   16.0380 H   0  0  0  0  0  0  0  0  0  0  0  0
   47.9606    7.6600   14.7504 H   0  0  0  0  0  0  0  0  0  0  0  0
   46.4172    5.3737   19.5007 H   0  0  0  0  0  0  0  0  0  0  0  0
   47.2132   11.5516   11.7996 H   0  0  0  0  0  0  0  0  0  0  0  0
   49.0180    3.6276   16.5945 H   0  0  0  0  0  0  0  0  0  0  0  0
   46.0320    7.7164   13.2750 H   0  0  0  0  0  0  0  0  0  0  0  0
   47.2609    3.3880   18.3278 H   0  0  0  0  0  0  0  0  0  0  0  0
   45.6395    9.6640   11.7892 H   0  0  0  0  0  0  0  0  0  0  0  0
   48.4712    8.2108   14.8860 H   0  0  0  0  0  0  0  0  0  0  0  0
   48.6462   11.2023   15.5954 H   0  0  0  0  0  0  0  0  0  0  0  0
   48.4810    6.4869   19.2326 H   0  0  0  0  0  0  0  0  0  0  0  0
   49.6874    7.7657   19.4387 H   0  0  0  0  0  0  0  0  0  0  0  0
   48.8491   10.2144   19.5542 H   0  0  0  0  0  0  0  0  0  0  0  0
   47.1140   10.4968   19.4437 H   0  0  0  0  0  0  0  0  0  0  0  0
   46.6521    8.1069   19.1766 H   0  0  0  0  0  0  0  0  0  0  0  0
   47.6109    8.3629   20.6411 H   0  0  0  0  0  0  0  0  0  0  0  0
   48.3990   12.7469   13.4687 H   0  0  0  0  0  0  0  0  0  0  0  0
   48.9651    6.2524   16.0289 H   0  0  0  0  0  0  0  0  0  0  0  0
   50.4719    7.1353   16.3946 H   0  0  0  0  0  0  0  0  0  0  0  0
   49.8810    5.8816   17.4882 H   0  0  0  0  0  0  0  0  0  0  0  0
   49.0422   10.1526   10.0387 H   0  0  0  0  0  0  0  0  0  0  0  0
   48.6235   12.6294   10.8392 H   0  0  0  0  0  0  0  0  0  0  0  0
  1 11  1  0
  2 12  1  0
  3 22  2  0
  4 23  2  0
  5 22  1  0
  6 23  1  0
  7  9  1  0
  7 11  2  0
  7 13  1  0
  8 10  1  0
  8 12  2  0
  8 13  1  0
  9 14  2  0
  9 20  1  0
 10 15  2  0
 10 21  1  0
 11 16  1  0
 12 17  1  0
 14 18  1  0
 14 24  1  0
 15 19  1  0
 15 25  1  0
 16 18  2  0
 16 22  1  0
 17 19  2  0
 17 23  1  0
 20 26  2  0
 21 27  2  0
 24 28  2  0
 25 29  2  0
 26 28  1  0
 27 29  1  0
 30 35  1  0
 30 42  1  0
 31 33  1  0
 31 37  1  0
 31 41  1  0
 32 33  2  0
 32 38  1  0
 33 34  1  0
 34 36  2  0
 35 36  1  0
 35 40  2  0
 37 39  1  0
 38 39  1  0
 40 43  1  0
 42 43  2  0
  1 44  1  0
  2 45  1  0
  5 46  1  0
  6 47  1  0
 13 48  1  0
 13 49  1  0
 18 50  1  0
 19 51  1  0
 20 52  1  0
 21 53  1  0
 24 54  1  0
 25 55  1  0
 26 56  1  0
 27 57  1  0
 28 58  1  0
 29 59  1  0
 34 60  1  0
 36 61  1  0
 37 62  1  0
 37 63  1  0
 38 64  1  0
 38 65  1  0
 39 66  1  0
 39 67  1  0
 40 68  1  0
 41 69  1  0
 41 70  1  0
 41 71  1  0
 42 72  1  0
 43 73  1  0
M  END
> <Uni-Dock RESULT> 
ENERGY=   -5.037  LOWER_BOUND=    3.340  UPPER_BOUND=    6.747
INTER + INTRA:          -5.037
INTER:                  -5.037
INTRA:                   0.000
UNBOUND:                 0.000

$$$$

     RDKit          3D

 73 77  0  0  0  0  0  0  0  0999 V2000
   49.0969   12.0876    9.7741 O   0  0  0  0  0  0  0  0  0  0  0  0
   50.8608   11.8200   12.6083 O   0  0  0  0  0  0  0  0  0  0  0  0
   46.9982   13.1352    6.3284 O   0  0  0  0  0  0  0  0  0  0  0  0
   52.4434    7.9601   12.4547 O   0  0  0  0  0  0  0  0  0  0  0  0
   48.7783   12.1749    7.2637 O   0  0  0  0  0  0  0  0  0  0  0  0
   52.7788   10.1615   12.5465 O   0  0  0  0  0  0  0  0  0  0  0  0
   47.3525   12.9049   11.1763 C   0  0  0  0  0  0  0  0  0  0  0  0
   48.6383   10.9886   12.4061 C   0  0  0  0  0  0  0  0  0  0  0  0
   46.1159   13.6208   11.3227 C   0  0  0  0  0  0  0  0  0  0  0  0
   47.7282    9.8853   12.3588 C   0  0  0  0  0  0  0  0  0  0  0  0
   47.8624   12.6762    9.8765 C   0  0  0  0  0  0  0  0  0  0  0  0
   50.0274   10.7355   12.4794 C   0  0  0  0  0  0  0  0  0  0  0  0
   48.1514   12.4392   12.3982 C   0  0  0  0  0  0  0  0  0  0  0  0
   45.4040   14.0025   10.1553 C   0  0  0  0  0  0  0  0  0  0  0  0
   48.2502    8.5670   12.3162 C   0  0  0  0  0  0  0  0  0  0  0  0
   47.1436   13.0564    8.7352 C   0  0  0  0  0  0  0  0  0  0  0  0
   50.5286    9.4281   12.4344 C   0  0  0  0  0  0  0  0  0  0  0  0
   45.9169   13.7067    8.8879 C   0  0  0  0  0  0  0  0  0  0  0  0
   49.6341    8.3576   12.3443 C   0  0  0  0  0  0  0  0  0  0  0  0
   45.5327   13.9892   12.5630 C   0  0  0  0  0  0  0  0  0  0  0  0
   46.3182   10.0115   12.3611 C   0  0  0  0  0  0  0  0  0  0  0  0
   47.5947   12.8167    7.3404 C   0  0  0  0  0  0  0  0  0  0  0  0
   51.9723    9.0820   12.4782 C   0  0  0  0  0  0  0  0  0  0  0  0
   44.1803   14.6863   10.2522 C   0  0  0  0  0  0  0  0  0  0  0  0
   47.3871    7.4598   12.2522 C   0  0  0  0  0  0  0  0  0  0  0  0
   44.3149   14.6714   12.6461 C   0  0  0  0  0  0  0  0  0  0  0  0
   45.4701    8.9025   12.2987 C   0  0  0  0  0  0  0  0  0  0  0  0
   43.6362   15.0174   11.4893 C   0  0  0  0  0  0  0  0  0  0  0  0
   46.0052    7.6251   12.2402 C   0  0  0  0  0  0  0  0  0  0  0  0
   47.5189    8.7738   13.8463 S   0  0  0  0  0  0  0  0  0  0  0  0
   46.7470   13.3532   10.9725 N   0  0  0  0  0  0  0  0  0  0  0  0
   47.8121   11.8976    9.4284 N   0  0  0  0  0  0  0  0  0  0  0  0
   47.3158   12.1367   10.6044 C   0  0  0  0  0  0  0  0  0  0  0  0
   47.3427   10.9868   11.5740 C   0  0  0  0  0  0  0  0  0  0  0  0
   48.3152    8.8635   12.3180 C   0  0  0  0  0  0  0  0  0  0  0  0
   48.2299    9.9888   11.4418 C   0  0  0  0  0  0  0  0  0  0  0  0
   46.7156   14.4594   10.0261 C   0  0  0  0  0  0  0  0  0  0  0  0
   47.8197   12.9637    8.4319 C   0  0  0  0  0  0  0  0  0  0  0  0
   46.6576   13.9161    8.6147 C   0  0  0  0  0  0  0  0  0  0  0  0
   49.0481    7.7050   12.1018 C   0  0  0  0  0  0  0  0  0  0  0  0
   46.4927   13.7075   12.3620 C   0  0  0  0  0  0  0  0  0  0  0  0
   48.1396    7.2186   14.1765 C   0  0  0  0  0  0  0  0  0  0  0  0
   48.9449    6.7594   13.1622 C   0  0  0  0  0  0  0  0  0  0  0  0
   49.2971   11.9486    8.8258 H   0  0  0  0  0  0  0  0  0  0  0  0
   51.7853   11.4986   12.5756 H   0  0  0  0  0  0  0  0  0  0  0  0
   48.9124   12.0823    6.2940 H   0  0  0  0  0  0  0  0  0  0  0  0
   53.6768    9.7605   12.5662 H   0  0  0  0  0  0  0  0  0  0  0  0
   48.9790   13.1506   12.5038 H   0  0  0  0  0  0  0  0  0  0  0  0
   47.5841   12.5432   13.3262 H   0  0  0  0  0  0  0  0  0  0  0  0
   45.3595   14.0016    7.9989 H   0  0  0  0  0  0  0  0  0  0  0  0
   50.0256    7.3412   12.3086 H   0  0  0  0  0  0  0  0  0  0  0  0
   46.0185   13.7601   13.5068 H   0  0  0  0  0  0  0  0  0  0  0  0
   45.8461   10.9870   12.4188 H   0  0  0  0  0  0  0  0  0  0  0  0
   43.6367   14.9745    9.3540 H   0  0  0  0  0  0  0  0  0  0  0  0
   47.7890    6.4489   12.2142 H   0  0  0  0  0  0  0  0  0  0  0  0
   43.9047   14.9329   13.6185 H   0  0  0  0  0  0  0  0  0  0  0  0
   44.3927    9.0448   12.2975 H   0  0  0  0  0  0  0  0  0  0  0  0
   42.6908   15.5498   11.5460 H   0  0  0  0  0  0  0  0  0  0  0  0
   45.3512    6.7591   12.1907 H   0  0  0  0  0  0  0  0  0  0  0  0
   46.6069   11.0151   12.3647 H   0  0  0  0  0  0  0  0  0  0  0  0
   48.9287   10.0130   10.6074 H   0  0  0  0  0  0  0  0  0  0  0  0
   45.8361   15.0888   10.2025 H   0  0  0  0  0  0  0  0  0  0  0  0
   47.6057   15.0842   10.1628 H   0  0  0  0  0  0  0  0  0  0  0  0
   48.7755   13.4980    8.4812 H   0  0  0  0  0  0  0  0  0  0  0  0
   47.7580   12.5097    7.4370 H   0  0  0  0  0  0  0  0  0  0  0  0
   45.7099   13.3868    8.4532 H   0  0  0  0  0  0  0  0  0  0  0  0
   46.7099   14.7311    7.8854 H   0  0  0  0  0  0  0  0  0  0  0  0
   49.6357    7.5406   11.2050 H   0  0  0  0  0  0  0  0  0  0  0  0
   45.6758   13.1022   12.7678 H   0  0  0  0  0  0  0  0  0  0  0  0
   47.3894   13.5554   12.9726 H   0  0  0  0  0  0  0  0  0  0  0  0
   46.1997   14.7578   12.4668 H   0  0  0  0  0  0  0  0  0  0  0  0
   47.8850    6.7160   15.0991 H   0  0  0  0  0  0  0  0  0  0  0  0
   49.4373    5.7947   13.1775 H   0  0  0  0  0  0  0  0  0  0  0  0
  1 11  1  0
  2 12  1  0
  3 22  2  0
  4 23  2  0
  5 22  1  0
  6 23  1  0
  7  9  1  0
  7 11  2  0
  7 13  1  0
  8 10  1  0
  8 12  2  0
  8 13  1  0
  9 14  2  0
  9 20  1  0
 10 15  2  0
 10 21  1  0
 11 16  1  0
 12 17  1  0
 14 18  1  0
 14 24  1  0
 15 19  1  0
 15 25  1  0
 16 18  2  0
 16 22  1  0
 17 19  2  0
 17 23  1  0
 20 26  2  0
 21 27  2  0
 24 28  2  0
 25 29  2  0
 26 28  1  0
 27 29  1  0
 30 35  1  0
 30 42  1  0
 31 33  1  0
 31 37  1  0
 31 41  1  0
 32 33  2  0
 32 38  1  0
 33 34  1  0
 34 36  2  0
 35 36  1  0
 35 40  2  0
 37 39  1  0
 38 39  1  0
 40 43  1  0
 42 43  2  0
  1 44  1  0
  2 45  1  0
  5 46  1  0
  6 47  1  0
 13 48  1  0
 13 49  1  0
 18 50  1  0
 19 51  1  0
 20 52  1  0
 21 53  1  0
 24 54  1  0
 25 55  1  0
 26 56  1  0
 27 57  1  0
 28 58  1  0
 29 59  1  0
 34 60  1  0
 36 61  1  0
 37 62  1  0
 37 63  1  0
 38 64  1  0
 38 65  1  0
 39 66  1  0
 39 67  1  0
 40 68  1  0
 41 69  1  0
 41 70  1  0
 41 71  1  0
 42 72  1  0
 43 73  1  0
M  END
> <Uni-Dock RESULT> 
ENERGY=   -5.015  LOWER_BOUND=    4.995  UPPER_BOUND=    7.513
INTER + INTRA:          -5.015
INTER:                  -5.015
INTRA:                   0.000
UNBOUND:                 0.000

$$$$

     RDKit          3D

 73 77  0  0  0  0  0  0  0  0999 V2000
   48.1113    5.9780   15.5223 O   0  0  0  0  0  0  0  0  0  0  0  0
   48.0021    9.0422   14.1752 O   0  0  0  0  0  0  0  0  0  0  0  0
   47.5687    2.3041   17.4151 O   0  0  0  0  0  0  0  0  0  0  0  0
   50.8687    8.9172   11.1429 O   0  0  0  0  0  0  0  0  0  0  0  0
   47.8514    3.4594   15.5306 O   0  0  0  0  0  0  0  0  0  0  0  0
   48.7438    9.1961   11.7546 O   0  0  0  0  0  0  0  0  0  0  0  0
   48.2301    7.1213   17.6094 C   0  0  0  0  0  0  0  0  0  0  0  0
   49.6147    8.4273   15.8163 C   0  0  0  0  0  0  0  0  0  0  0  0
   48.0866    7.1055   19.0385 C   0  0  0  0  0  0  0  0  0  0  0  0
   50.9736    8.1642   16.1799 C   0  0  0  0  0  0  0  0  0  0  0  0
   48.0774    5.9116   16.8917 C   0  0  0  0  0  0  0  0  0  0  0  0
   49.3035    8.7124   14.4670 C   0  0  0  0  0  0  0  0  0  0  0  0
   48.4866    8.4274   16.8502 C   0  0  0  0  0  0  0  0  0  0  0  0
   47.8787    5.8622   19.6916 C   0  0  0  0  0  0  0  0  0  0  0  0
   51.9611    8.1283   15.1622 C   0  0  0  0  0  0  0  0  0  0  0  0
   47.8768    4.6927   17.5537 C   0  0  0  0  0  0  0  0  0  0  0  0
   50.2891    8.6714   13.4723 C   0  0  0  0  0  0  0  0  0  0  0  0
   47.7898    4.6809   18.9477 C   0  0  0  0  0  0  0  0  0  0  0  0
   51.6067    8.3707   13.8298 C   0  0  0  0  0  0  0  0  0  0  0  0
   48.1340    8.2530   19.8722 C   0  0  0  0  0  0  0  0  0  0  0  0
   51.4176    7.9423   17.5056 C   0  0  0  0  0  0  0  0  0  0  0  0
   47.7458    3.3791   16.8727 C   0  0  0  0  0  0  0  0  0  0  0  0
   50.0373    8.9309   12.0317 C   0  0  0  0  0  0  0  0  0  0  0  0
   47.7532    5.7979   21.0896 C   0  0  0  0  0  0  0  0  0  0  0  0
   53.3028    7.8562   15.4796 C   0  0  0  0  0  0  0  0  0  0  0  0
   48.0059    8.1759   21.2626 C   0  0  0  0  0  0  0  0  0  0  0  0
   52.7553    7.6742   17.8089 C   0  0  0  0  0  0  0  0  0  0  0  0
   47.8187    6.9465   21.8723 C   0  0  0  0  0  0  0  0  0  0  0  0
   53.6985    7.6272   16.7942 C   0  0  0  0  0  0  0  0  0  0  0  0
   52.2497    9.5270   16.0998 S   0  0  0  0  0  0  0  0  0  0  0  0
   48.0373    6.8482   18.3147 N   0  0  0  0  0  0  0  0  0  0  0  0
   48.7510    5.4149   16.5615 N   0  0  0  0  0  0  0  0  0  0  0  0
   48.8738    6.5056   17.2556 C   0  0  0  0  0  0  0  0  0  0  0  0
   50.0280    7.3949   16.8814 C   0  0  0  0  0  0  0  0  0  0  0  0
   51.6657    8.1587   15.2254 C   0  0  0  0  0  0  0  0  0  0  0  0
   50.5685    7.3502   15.6540 C   0  0  0  0  0  0  0  0  0  0  0  0
   46.9275    5.9784   18.6780 C   0  0  0  0  0  0  0  0  0  0  0  0
   47.6561    4.4997   16.8669 C   0  0  0  0  0  0  0  0  0  0  0  0
   47.2723    4.5463   18.3302 C   0  0  0  0  0  0  0  0  0  0  0  0
   52.4031    7.9960   14.0609 C   0  0  0  0  0  0  0  0  0  0  0  0
   47.9854    8.1959   18.8642 C   0  0  0  0  0  0  0  0  0  0  0  0
   53.4592    9.8598   14.9426 C   0  0  0  0  0  0  0  0  0  0  0  0
   53.4341    8.9658   13.8995 C   0  0  0  0  0  0  0  0  0  0  0  0
   48.0426    5.0689   15.1654 H   0  0  0  0  0  0  0  0  0  0  0  0
   47.9243    9.1425   13.2041 H   0  0  0  0  0  0  0  0  0  0  0  0
   47.7640    2.5211   15.2498 H   0  0  0  0  0  0  0  0  0  0  0  0
   48.7552    9.3388   10.7813 H   0  0  0  0  0  0  0  0  0  0  0  0
   47.5243    8.7105   16.4078 H   0  0  0  0  0  0  0  0  0  0  0  0
   48.7302    9.2541   17.5219 H   0  0  0  0  0  0  0  0  0  0  0  0
   47.6337    3.7318   19.4605 H   0  0  0  0  0  0  0  0  0  0  0  0
   52.3720    8.3384   13.0547 H   0  0  0  0  0  0  0  0  0  0  0  0
   48.2653    9.2482   19.4579 H   0  0  0  0  0  0  0  0  0  0  0  0
   50.7241    7.9807   18.3394 H   0  0  0  0  0  0  0  0  0  0  0  0
   47.5966    4.8417   21.5860 H   0  0  0  0  0  0  0  0  0  0  0  0
   54.0588    7.8236   14.6971 H   0  0  0  0  0  0  0  0  0  0  0  0
   48.0493    9.0817   21.8624 H   0  0  0  0  0  0  0  0  0  0  0  0
   53.0526    7.5045   18.8404 H   0  0  0  0  0  0  0  0  0  0  0  0
   47.7158    6.8791   22.9518 H   0  0  0  0  0  0  0  0  0  0  0  0
   54.7396    7.4185   17.0235 H   0  0  0  0  0  0  0  0  0  0  0  0
   50.3905    8.0542   17.6570 H   0  0  0  0  0  0  0  0  0  0  0  0
   50.1676    6.6450   14.9279 H   0  0  0  0  0  0  0  0  0  0  0  0
   46.7248    6.0455   19.7528 H   0  0  0  0  0  0  0  0  0  0  0  0
   46.0228    6.2971   18.1474 H   0  0  0  0  0  0  0  0  0  0  0  0
   46.7972    4.7378   16.2289 H   0  0  0  0  0  0  0  0  0  0  0  0
   47.9722    3.4826   16.6115 H   0  0  0  0  0  0  0  0  0  0  0  0
   48.1098    4.1994   18.9489 H   0  0  0  0  0  0  0  0  0  0  0  0
   46.4209    3.8862   18.5258 H   0  0  0  0  0  0  0  0  0  0  0  0
   52.2102    7.1998   13.3501 H   0  0  0  0  0  0  0  0  0  0  0  0
   48.9095    8.4244   19.4048 H   0  0  0  0  0  0  0  0  0  0  0  0
   47.8430    8.9353   18.0685 H   0  0  0  0  0  0  0  0  0  0  0  0
   47.1585    8.3146   19.5729 H   0  0  0  0  0  0  0  0  0  0  0  0
   54.1301   10.6959   15.0823 H   0  0  0  0  0  0  0  0  0  0  0  0
   54.1186    9.0034   13.0608 H   0  0  0  0  0  0  0  0  0  0  0  0
  1 11  1  0
  2 12  1  0
  3 22  2  0
  4 23  2  0
  5 22  1  0
  6 23  1  0
  7  9  1  0
  7 11  2  0
  7 13  1  0
  8 10  1  0
  8 12  2  0
  8 13  1  0
  9 14  2  0
  9 20  1  0
 10 15  2  0
 10 21  1  0
 11 16  1  0
 12 17  1  0
 14 18  1  0
 14 24  1  0
 15 19  1  0
 15 25  1  0
 16 18  2  0
 16 22  1  0
 17 19  2  0
 17 23  1  0
 20 26  2  0
 21 27  2  0
 24 28  2  0
 25 29  2  0
 26 28  1  0
 27 29  1  0
 30 35  1  0
 30 42  1  0
 31 33  1  0
 31 37  1  0
 31 41  1  0
 32 33  2  0
 32 38  1  0
 33 34  1  0
 34 36  2  0
 35 36  1  0
 35 40  2  0
 37 39  1  0
 38 39  1  0
 40 43  1  0
 42 43  2  0
  1 44  1  0
  2 45  1  0
  5 46  1  0
  6 47  1  0
 13 48  1  0
 13 49  1  0
 18 50  1  0
 19 51  1  0
 20 52  1  0
 21 53  1  0
 24 54  1  0
 25 55  1  0
 26 56  1  0
 27 57  1  0
 28 58  1  0
 29 59  1  0
 34 60  1  0
 36 61  1  0
 37 62  1  0
 37 63  1  0
 38 64  1  0
 38 65  1  0
 39 66  1  0
 39 67  1  0
 40 68  1  0
 41 69  1  0
 41 70  1  0
 41 71  1  0
 42 72  1  0
 43 73  1  0
M  END
> <Uni-Dock RESULT> 
ENERGY=   -4.917  LOWER_BOUND=    2.189  UPPER_BOUND=    6.323
INTER + INTRA:          -4.917
INTER:                  -4.917
INTRA:                   0.000
UNBOUND:                 0.000

$$$$

     RDKit          3D

 73 77  0  0  0  0  0  0  0  0999 V2000
   50.8573    3.8563   17.2669 O   0  0  0  0  0  0  0  0  0  0  0  0
   53.9157    5.0388   16.5862 O   0  0  0  0  0  0  0  0  0  0  0  0
   46.8326    2.8153   17.5722 O   0  0  0  0  0  0  0  0  0  0  0  0
   56.4875    2.0881   18.0377 O   0  0  0  0  0  0  0  0  0  0  0  0
   48.9248    2.2316   17.0743 O   0  0  0  0  0  0  0  0  0  0  0  0
   55.7281    3.2847   16.3177 O   0  0  0  0  0  0  0  0  0  0  0  0
   50.4444    6.0205   18.1741 C   0  0  0  0  0  0  0  0  0  0  0  0
   52.8959    5.2948   18.7231 C   0  0  0  0  0  0  0  0  0  0  0  0
   49.5111    7.0251   18.6020 C   0  0  0  0  0  0  0  0  0  0  0  0
   52.8534    4.9874   20.1200 C   0  0  0  0  0  0  0  0  0  0  0  0
   49.9539    4.7554   17.7732 C   0  0  0  0  0  0  0  0  0  0  0  0
   53.8526    4.6532   17.9034 C   0  0  0  0  0  0  0  0  0  0  0  0
   51.9460    6.3140   18.0902 C   0  0  0  0  0  0  0  0  0  0  0  0
   48.1348    6.6880   18.6880 C   0  0  0  0  0  0  0  0  0  0  0  0
   53.7281    3.9941   20.6305 C   0  0  0  0  0  0  0  0  0  0  0  0
   48.5920    4.4390   17.8689 C   0  0  0  0  0  0  0  0  0  0  0  0
   54.7087    3.6727   18.4211 C   0  0  0  0  0  0  0  0  0  0  0  0
   47.6990    5.4065   18.3351 C   0  0  0  0  0  0  0  0  0  0  0  0
   54.6309    3.3472   19.7784 C   0  0  0  0  0  0  0  0  0  0  0  0
   49.8551    8.3566   18.9525 C   0  0  0  0  0  0  0  0  0  0  0  0
   51.9946    5.6187   21.0516 C   0  0  0  0  0  0  0  0  0  0  0  0
   48.0083    3.1226   17.5042 C   0  0  0  0  0  0  0  0  0  0  0  0
   55.7193    2.9349   17.6208 C   0  0  0  0  0  0  0  0  0  0  0  0
   47.1899    7.6335   19.1212 C   0  0  0  0  0  0  0  0  0  0  0  0
   53.7027    3.6538   21.9937 C   0  0  0  0  0  0  0  0  0  0  0  0
   48.9049    9.2889   19.3806 C   0  0  0  0  0  0  0  0  0  0  0  0
   51.9798    5.2727   22.4056 C   0  0  0  0  0  0  0  0  0  0  0  0
   47.5712    8.9259   19.4683 C   0  0  0  0  0  0  0  0  0  0  0  0
   52.8322    4.2862   22.8766 C   0  0  0  0  0  0  0  0  0  0  0  0
   54.2596    5.4993   21.2392 S   0  0  0  0  0  0  0  0  0  0  0  0
   49.7546    6.3708   18.2776 N   0  0  0  0  0  0  0  0  0  0  0  0
   49.9780    4.0071   18.2721 N   0  0  0  0  0  0  0  0  0  0  0  0
   50.3871    5.1839   18.6382 C   0  0  0  0  0  0  0  0  0  0  0  0
   51.5923    5.2089   19.5382 C   0  0  0  0  0  0  0  0  0  0  0  0
   53.6298    4.1399   20.3830 C   0  0  0  0  0  0  0  0  0  0  0  0
   52.4663    4.1908   19.5554 C   0  0  0  0  0  0  0  0  0  0  0  0
   48.5828    6.3392   17.4139 C   0  0  0  0  0  0  0  0  0  0  0  0
   48.8126    3.9011   17.4002 C   0  0  0  0  0  0  0  0  0  0  0  0
   47.8377    5.0379   17.6195 C   0  0  0  0  0  0  0  0  0  0  0  0
   54.4325    3.0303   20.6080 C   0  0  0  0  0  0  0  0  0  0  0  0
   50.3940    7.6713   18.4220 C   0  0  0  0  0  0  0  0  0  0  0  0
   55.5534    4.5984   21.8930 C   0  0  0  0  0  0  0  0  0  0  0  0
   55.5316    3.2891   21.4766 C   0  0  0  0  0  0  0  0  0  0  0  0
   50.3888    3.0172   17.0795 H   0  0  0  0  0  0  0  0  0  0  0  0
   54.5674    4.4655   16.1325 H   0  0  0  0  0  0  0  0  0  0  0  0
   48.3828    1.4299   16.9000 H   0  0  0  0  0  0  0  0  0  0  0  0
   56.4369    2.7138   15.9446 H   0  0  0  0  0  0  0  0  0  0  0  0
   52.1616    6.4710   17.0268 H   0  0  0  0  0  0  0  0  0  0  0  0
   52.2079    7.2636   18.5632 H   0  0  0  0  0  0  0  0  0  0  0  0
   46.6401    5.1583   18.4086 H   0  0  0  0  0  0  0  0  0  0  0  0
   55.2970    2.5836   20.1795 H   0  0  0  0  0  0  0  0  0  0  0  0
   50.8802    8.7101   18.8939 H   0  0  0  0  0  0  0  0  0  0  0  0
   51.3166    6.4065   20.7395 H   0  0  0  0  0  0  0  0  0  0  0  0
   46.1358    7.3694   19.1880 H   0  0  0  0  0  0  0  0  0  0  0  0
   54.3706    2.8877   22.3833 H   0  0  0  0  0  0  0  0  0  0  0  0
   49.2140   10.2986   19.6399 H   0  0  0  0  0  0  0  0  0  0  0  0
   51.3005    5.7793   23.0860 H   0  0  0  0  0  0  0  0  0  0  0  0
   46.8269    9.6457   19.7975 H   0  0  0  0  0  0  0  0  0  0  0  0
   52.8248    4.0122   23.9278 H   0  0  0  0  0  0  0  0  0  0  0  0
   51.6996    6.0831   20.1640 H   0  0  0  0  0  0  0  0  0  0  0  0
   52.2840    3.3301   18.9143 H   0  0  0  0  0  0  0  0  0  0  0  0
   47.9129    7.1745   17.6472 H   0  0  0  0  0  0  0  0  0  0  0  0
   48.8949    6.4441   16.3684 H   0  0  0  0  0  0  0  0  0  0  0  0
   49.1442    3.8653   16.3560 H   0  0  0  0  0  0  0  0  0  0  0  0
   48.3083    2.9513   17.6083 H   0  0  0  0  0  0  0  0  0  0  0  0
   47.4320    4.9929   18.6382 H   0  0  0  0  0  0  0  0  0  0  0  0
   46.9954    4.9618   16.9241 H   0  0  0  0  0  0  0  0  0  0  0  0
   54.2312    2.0605   20.1659 H   0  0  0  0  0  0  0  0  0  0  0  0
   50.4843    7.9379   19.4798 H   0  0  0  0  0  0  0  0  0  0  0  0
   51.3904    7.6677   17.9667 H   0  0  0  0  0  0  0  0  0  0  0  0
   49.8155    8.4650   17.9369 H   0  0  0  0  0  0  0  0  0  0  0  0
   56.2687    5.0724   22.5505 H   0  0  0  0  0  0  0  0  0  0  0  0
   56.2661    2.5519   21.7772 H   0  0  0  0  0  0  0  0  0  0  0  0
  1 11  1  0
  2 12  1  0
  3 22  2  0
  4 23  2  0
  5 22  1  0
  6 23  1  0
  7  9  1  0
  7 11  2  0
  7 13  1  0
  8 10  1  0
  8 12  2  0
  8 13  1  0
  9 14  2  0
  9 20  1  0
 10 15  2  0
 10 21  1  0
 11 16  1  0
 12 17  1  0
 14 18  1  0
 14 24  1  0
 15 19  1  0
 15 25  1  0
 16 18  2  0
 16 22  1  0
 17 19  2  0
 17 23  1  0
 20 26  2  0
 21 27  2  0
 24 28  2  0
 25 29  2  0
 26 28  1  0
 27 29  1  0
 30 35  1  0
 30 42  1  0
 31 33  1  0
 31 37  1  0
 31 41  1  0
 32 33  2  0
 32 38  1  0
 33 34  1  0
 34 36  2  0
 35 36  1  0
 35 40  2  0
 37 39  1  0
 38 39  1  0
 40 43  1  0
 42 43  2  0
  1 44  1  0
  2 45  1  0
  5 46  1  0
  6 47  1  0
 13 48  1  0
 13 49  1  0
 18 50  1  0
 19 51  1  0
 20 52  1  0
 21 53  1  0
 24 54  1  0
 25 55  1  0
 26 56  1  0
 27 57  1  0
 28 58  1  0
 29 59  1  0
 34 60  1  0
 36 61  1  0
 37 62  1  0
 37 63  1  0
 38 64  1  0
 38 65  1  0
 39 66  1  0
 39 67  1  0
 40 68  1  0
 41 69  1  0
 41 70  1  0
 41 71  1  0
 42 72  1  0
 43 73  1  0
M  END
> <Uni-Dock RESULT> 
ENERGY=   -4.848  LOWER_BOUND=    4.250  UPPER_BOUND=    6.671
INTER + INTRA:          -4.848
INTER:                  -4.848
INTRA:                   0.000
UNBOUND:                 0.000

$$$$

     RDKit          3D

 73 77  0  0  0  0  0  0  0  0999 V2000
   47.3761   10.1854   13.2214 O   0  0  0  0  0  0  0  0  0  0  0  0
   48.0891   13.2393   14.3967 O   0  0  0  0  0  0  0  0  0  0  0  0
   46.9703    6.1524   12.2493 O   0  0  0  0  0  0  0  0  0  0  0  0
   44.7125   15.5029   13.4465 O   0  0  0  0  0  0  0  0  0  0  0  0
   46.0855    8.0101   13.1047 O   0  0  0  0  0  0  0  0  0  0  0  0
   46.0840   14.6729   14.9948 O   0  0  0  0  0  0  0  0  0  0  0  0
   49.5389   10.2855   12.2267 C   0  0  0  0  0  0  0  0  0  0  0  0
   48.4140   12.6434   12.1139 C   0  0  0  0  0  0  0  0  0  0  0  0
   50.6593    9.6118   11.6318 C   0  0  0  0  0  0  0  0  0  0  0  0
   48.0595   12.7841   10.7346 C   0  0  0  0  0  0  0  0  0  0  0  0
   48.3845    9.5366   12.5558 C   0  0  0  0  0  0  0  0  0  0  0  0
   47.6641   13.3339   13.0936 C   0  0  0  0  0  0  0  0  0  0  0  0
   49.5954   11.7798   12.5611 C   0  0  0  0  0  0  0  0  0  0  0  0
   50.5401    8.2326   11.3173 C   0  0  0  0  0  0  0  0  0  0  0  0
   46.9206   13.5583   10.3947 C   0  0  0  0  0  0  0  0  0  0  0  0
   48.2829    8.1764   12.2340 C   0  0  0  0  0  0  0  0  0  0  0  0
   46.5403   14.0934   12.7432 C   0  0  0  0  0  0  0  0  0  0  0  0
   49.3589    7.5422   11.6088 C   0  0  0  0  0  0  0  0  0  0  0  0
   46.1753   14.1902   11.3973 C   0  0  0  0  0  0  0  0  0  0  0  0
   51.9044   10.2206   11.3263 C   0  0  0  0  0  0  0  0  0  0  0  0
   48.7792   12.2058    9.6614 C   0  0  0  0  0  0  0  0  0  0  0  0
   47.0912    7.3345   12.5123 C   0  0  0  0  0  0  0  0  0  0  0  0
   45.6864   14.8239   13.7144 C   0  0  0  0  0  0  0  0  0  0  0  0
   51.6039    7.5388   10.7160 C   0  0  0  0  0  0  0  0  0  0  0  0
   46.5324   13.7047    9.0520 C   0  0  0  0  0  0  0  0  0  0  0  0
   52.9562    9.5187   10.7295 C   0  0  0  0  0  0  0  0  0  0  0  0
   48.3841   12.3599    8.3298 C   0  0  0  0  0  0  0  0  0  0  0  0
   52.8046    8.1770   10.4208 C   0  0  0  0  0  0  0  0  0  0  0  0
   47.2570   13.1070    8.0249 C   0  0  0  0  0  0  0  0  0  0  0  0
   48.2967   14.4207    9.8643 S   0  0  0  0  0  0  0  0  0  0  0  0
   49.9889    9.6887   12.0022 N   0  0  0  0  0  0  0  0  0  0  0  0
   47.6217    9.5214   12.0790 N   0  0  0  0  0  0  0  0  0  0  0  0
   48.7033   10.1711   11.7714 C   0  0  0  0  0  0  0  0  0  0  0  0
   48.5008   11.4968   11.0898 C   0  0  0  0  0  0  0  0  0  0  0  0
   47.0901   13.4454   10.6197 C   0  0  0  0  0  0  0  0  0  0  0  0
   47.3580   12.1845   11.2361 C   0  0  0  0  0  0  0  0  0  0  0  0
   50.1781    8.4003   12.6539 C   0  0  0  0  0  0  0  0  0  0  0  0
   47.7369    8.2260   12.7409 C   0  0  0  0  0  0  0  0  0  0  0  0
   49.0030    7.4986   12.3427 C   0  0  0  0  0  0  0  0  0  0  0  0
   45.8596   14.0834   10.5505 C   0  0  0  0  0  0  0  0  0  0  0  0
   51.1653   10.5456   11.9505 C   0  0  0  0  0  0  0  0  0  0  0  0
   47.1770   15.6414    9.4535 C   0  0  0  0  0  0  0  0  0  0  0  0
   45.9058   15.3386    9.8785 C   0  0  0  0  0  0  0  0  0  0  0  0
   46.6298    9.5625   13.3380 H   0  0  0  0  0  0  0  0  0  0  0  0
   47.4395   13.7048   14.9628 H   0  0  0  0  0  0  0  0  0  0  0  0
   45.3871    7.3238   13.1953 H   0  0  0  0  0  0  0  0  0  0  0  0
   45.4245   15.2079   15.4913 H   0  0  0  0  0  0  0  0  0  0  0  0
   49.7603   11.8385   13.6434 H   0  0  0  0  0  0  0  0  0  0  0  0
   50.4714   12.2672   12.1264 H   0  0  0  0  0  0  0  0  0  0  0  0
   49.2778    6.4842   11.3593 H   0  0  0  0  0  0  0  0  0  0  0  0
   45.3004   14.7807   11.1264 H   0  0  0  0  0  0  0  0  0  0  0  0
   52.0941   11.2654   11.5538 H   0  0  0  0  0  0  0  0  0  0  0  0
   49.6761   11.6222    9.8422 H   0  0  0  0  0  0  0  0  0  0  0  0
   51.5066    6.4818   10.4743 H   0  0  0  0  0  0  0  0  0  0  0  0
   45.6552   14.2947    8.7929 H   0  0  0  0  0  0  0  0  0  0  0  0
   53.8930   10.0262   10.5124 H   0  0  0  0  0  0  0  0  0  0  0  0
   48.9627   11.8942    7.5365 H   0  0  0  0  0  0  0  0  0  0  0  0
   53.6184    7.6245    9.9594 H   0  0  0  0  0  0  0  0  0  0  0  0
   46.9443   13.2299    6.9918 H   0  0  0  0  0  0  0  0  0  0  0  0
   49.3206   11.8469   10.4791 H   0  0  0  0  0  0  0  0  0  0  0  0
   46.5639   11.7612   11.8489 H   0  0  0  0  0  0  0  0  0  0  0  0
   51.0980    7.9230   12.2980 H   0  0  0  0  0  0  0  0  0  0  0  0
   50.2756    8.5474   13.7357 H   0  0  0  0  0  0  0  0  0  0  0  0
   47.6925    8.3695   13.8267 H   0  0  0  0  0  0  0  0  0  0  0  0
   46.8706    7.6159   12.4633 H   0  0  0  0  0  0  0  0  0  0  0  0
   48.9803    7.2657   11.2705 H   0  0  0  0  0  0  0  0  0  0  0  0
   49.0894    6.5515   12.8853 H   0  0  0  0  0  0  0  0  0  0  0  0
   44.9527   13.6569   10.9655 H   0  0  0  0  0  0  0  0  0  0  0  0
   51.3703   10.8522   10.9199 H   0  0  0  0  0  0  0  0  0  0  0  0
   51.0236   11.4386   12.5691 H   0  0  0  0  0  0  0  0  0  0  0  0
   52.0597   10.0311   12.3187 H   0  0  0  0  0  0  0  0  0  0  0  0
   47.5047   16.5231    8.9208 H   0  0  0  0  0  0  0  0  0  0  0  0
   45.0503   15.9833    9.7179 H   0  0  0  0  0  0  0  0  0  0  0  0
  1 11  1  0
  2 12  1  0
  3 22  2  0
  4 23  2  0
  5 22  1  0
  6 23  1  0
  7  9  1  0
  7 11  2  0
  7 13  1  0
  8 10  1  0
  8 12  2  0
  8 13  1  0
  9 14  2  0
  9 20  1  0
 10 15  2  0
 10 21  1  0
 11 16  1  0
 12 17  1  0
 14 18  1  0
 14 24  1  0
 15 19  1  0
 15 25  1  0
 16 18  2  0
 16 22  1  0
 17 19  2  0
 17 23  1  0
 20 26  2  0
 21 27  2  0
 24 28  2  0
 25 29  2  0
 26 28  1  0
 27 29  1  0
 30 35  1  0
 30 42  1  0
 31 33  1  0
 31 37  1  0
 31 41  1  0
 32 33  2  0
 32 38  1  0
 33 34  1  0
 34 36  2  0
 35 36  1  0
 35 40  2  0
 37 39  1  0
 38 39  1  0
 40 43  1  0
 42 43  2  0
  1 44  1  0
  2 45  1  0
  5 46  1  0
  6 47  1  0
 13 48  1  0
 13 49  1  0
 18 50  1  0
 19 51  1  0
 20 52  1  0
 21 53  1  0
 24 54  1  0
 25 55  1  0
 26 56  1  0
 27 57  1  0
 28 58  1  0
 29 59  1  0
 34 60  1  0
 36 61  1  0
 37 62  1  0
 37 63  1  0
 38 64  1  0
 38 65  1  0
 39 66  1  0
 39 67  1  0
 40 68  1  0
 41 69  1  0
 41 70  1  0
 41 71  1  0
 42 72  1  0
 43 73  1  0
M  END
> <Uni-Dock RESULT> 
ENERGY=   -4.800  LOWER_BOUND=    4.796  UPPER_BOUND=    7.347
INTER + INTRA:          -4.800
INTER:                  -4.800
INTRA:                   0.000
UNBOUND:                 0.000

$$$$
