
     RDKit          3D

 73 77  0  0  0  0  0  0  0  0999 V2000
   47.1441   10.4636   12.4188 O   0  0  0  0  0  0  0  0  0  0  0  0
   48.0365    7.9567   16.3772 O   0  0  0  0  0  0  0  0  0  0  0  0
   44.8693   10.9580   11.2186 O   0  0  0  0  0  0  0  0  0  0  0  0
   47.4333    8.4781   18.8726 O   0  0  0  0  0  0  0  0  0  0  0  0
   43.4028    9.2894   10.9478 O   0  0  0  0  0  0  0  0  0  0  0  0
   47.7368   10.5551   19.6493 O   0  0  0  0  0  0  0  0  0  0  0  0
   47.4970    8.2770   13.2940 C   0  0  0  0  0  0  0  0  0  0  0  0
   48.7764    9.7566   15.0043 C   0  0  0  0  0  0  0  0  0  0  0  0
   47.0670    6.9147   13.4295 C   0  0  0  0  0  0  0  0  0  0  0  0
   49.1776   11.1278   14.8728 C   0  0  0  0  0  0  0  0  0  0  0  0
   46.6682    9.1883   12.6023 C   0  0  0  0  0  0  0  0  0  0  0  0
   48.3384    9.2920   16.2645 C   0  0  0  0  0  0  0  0  0  0  0  0
   48.8402    8.7692   13.8373 C   0  0  0  0  0  0  0  0  0  0  0  0
   45.8064    6.5362   12.8932 C   0  0  0  0  0  0  0  0  0  0  0  0
   49.0848   11.9821   16.0043 C   0  0  0  0  0  0  0  0  0  0  0  0
   45.4214    8.8002   12.0932 C   0  0  0  0  0  0  0  0  0  0  0  0
   48.2446   10.1517   17.3676 C   0  0  0  0  0  0  0  0  0  0  0  0
   44.9998    7.4791   12.2461 C   0  0  0  0  0  0  0  0  0  0  0  0
   48.6134   11.4898   17.2263 C   0  0  0  0  0  0  0  0  0  0  0  0
   47.8126    5.8878   14.0626 C   0  0  0  0  0  0  0  0  0  0  0  0
   49.6752   11.7161   13.6826 C   0  0  0  0  0  0  0  0  0  0  0  0
   44.5687    9.7882   11.3919 C   0  0  0  0  0  0  0  0  0  0  0  0
   47.7694    9.6337   18.6717 C   0  0  0  0  0  0  0  0  0  0  0  0
   45.3497    5.2112   12.9999 C   0  0  0  0  0  0  0  0  0  0  0  0
   49.4667   13.3319   15.9180 C   0  0  0  0  0  0  0  0  0  0  0  0
   47.3475    4.5725   14.1606 C   0  0  0  0  0  0  0  0  0  0  0  0
   50.0539   13.0602   13.6098 C   0  0  0  0  0  0  0  0  0  0  0  0
   46.1150    4.2335   13.6275 C   0  0  0  0  0  0  0  0  0  0  0  0
   49.9497   13.8693   14.7292 C   0  0  0  0  0  0  0  0  0  0  0  0
   46.6909    6.5629   11.7400 S   0  0  0  0  0  0  0  0  0  0  0  0
   48.4588   10.5430   15.0961 N   0  0  0  0  0  0  0  0  0  0  0  0
   48.7240    8.4970   16.2967 N   0  0  0  0  0  0  0  0  0  0  0  0
   48.3453    9.1602   15.2473 C   0  0  0  0  0  0  0  0  0  0  0  0
   47.7323    8.2805   14.2040 C   0  0  0  0  0  0  0  0  0  0  0  0
   45.9331    7.8469   12.6062 C   0  0  0  0  0  0  0  0  0  0  0  0
   46.6102    8.6519   13.5706 C   0  0  0  0  0  0  0  0  0  0  0  0
   48.9959   11.3295   16.2078 C   0  0  0  0  0  0  0  0  0  0  0  0
   49.3088    9.2289   17.4152 C   0  0  0  0  0  0  0  0  0  0  0  0
   48.7335   10.6249   17.5213 C   0  0  0  0  0  0  0  0  0  0  0  0
   44.6168    7.9836   12.1906 C   0  0  0  0  0  0  0  0  0  0  0  0
   48.7747   11.1185   13.7884 C   0  0  0  0  0  0  0  0  0  0  0  0
   45.2710    6.1960   10.8687 C   0  0  0  0  0  0  0  0  0  0  0  0
   44.2335    7.0351   11.1982 C   0  0  0  0  0  0  0  0  0  0  0  0
   46.4573   11.0174   11.9892 H   0  0  0  0  0  0  0  0  0  0  0  0
   47.6986    7.7668   17.2783 H   0  0  0  0  0  0  0  0  0  0  0  0
   42.9564   10.0500   10.5198 H   0  0  0  0  0  0  0  0  0  0  0  0
   47.4069   10.0707   20.4351 H   0  0  0  0  0  0  0  0  0  0  0  0
   49.4832    7.9439   14.1557 H   0  0  0  0  0  0  0  0  0  0  0  0
   49.3990    9.1707   12.9869 H   0  0  0  0  0  0  0  0  0  0  0  0
   44.0344    7.1737   11.8475 H   0  0  0  0  0  0  0  0  0  0  0  0
   48.5457   12.1589   18.0818 H   0  0  0  0  0  0  0  0  0  0  0  0
   48.7782    6.0942   14.5151 H   0  0  0  0  0  0  0  0  0  0  0  0
   49.7631   11.1383   12.7673 H   0  0  0  0  0  0  0  0  0  0  0  0
   44.3828    4.9263   12.5892 H   0  0  0  0  0  0  0  0  0  0  0  0
   49.3905   13.9835   16.7864 H   0  0  0  0  0  0  0  0  0  0  0  0
   47.9525    3.8213   14.6613 H   0  0  0  0  0  0  0  0  0  0  0  0
   50.4222   13.4683   12.6727 H   0  0  0  0  0  0  0  0  0  0  0  0
   45.7468    3.2142   13.7022 H   0  0  0  0  0  0  0  0  0  0  0  0
   50.2389   14.9150   14.6787 H   0  0  0  0  0  0  0  0  0  0  0  0
   48.1931    7.3060   14.0928 H   0  0  0  0  0  0  0  0  0  0  0  0
   46.1530    9.6060   13.8250 H   0  0  0  0  0  0  0  0  0  0  0  0
   48.5251   12.3192   16.2234 H   0  0  0  0  0  0  0  0  0  0  0  0
   50.0752   11.4775   16.0717 H   0  0  0  0  0  0  0  0  0  0  0  0
   50.3993    9.2549   17.3039 H   0  0  0  0  0  0  0  0  0  0  0  0
   49.0940    8.6829   18.3406 H   0  0  0  0  0  0  0  0  0  0  0  0
   49.1979   11.1708   18.3491 H   0  0  0  0  0  0  0  0  0  0  0  0
   47.6548   10.5768   17.7167 H   0  0  0  0  0  0  0  0  0  0  0  0
   43.9460    8.7320   12.5950 H   0  0  0  0  0  0  0  0  0  0  0  0
   48.1348   10.7359   12.9891 H   0  0  0  0  0  0  0  0  0  0  0  0
   48.6387   12.2063   13.8058 H   0  0  0  0  0  0  0  0  0  0  0  0
   49.8179   10.9080   13.5264 H   0  0  0  0  0  0  0  0  0  0  0  0
   45.2654    5.3848   10.1535 H   0  0  0  0  0  0  0  0  0  0  0  0
   43.2475    6.9714   10.7545 H   0  0  0  0  0  0  0  0  0  0  0  0
  1 11  1  0
  2 12  1  0
  3 22  2  0
  4 23  2  0
  5 22  1  0
  6 23  1  0
  7  9  1  0
  7 11  2  0
  7 13  1  0
  8 10  1  0
  8 12  2  0
  8 13  1  0
  9 14  2  0
  9 20  1  0
 10 15  2  0
 10 21  1  0
 11 16  1  0
 12 17  1  0
 14 18  1  0
 14 24  1  0
 15 19  1  0
 15 25  1  0
 16 18  2  0
 16 22  1  0
 17 19  2  0
 17 23  1  0
 20 26  2  0
 21 27  2  0
 24 28  2  0
 25 29  2  0
 26 28  1  0
 27 29  1  0
 30 35  1  0
 30 42  1  0
 31 33  1  0
 31 37  1  0
 31 41  1  0
 32 33  2  0
 32 38  1  0
 33 34  1  0
 34 36  2  0
 35 36  1  0
 35 40  2  0
 37 39  1  0
 38 39  1  0
 40 43  1  0
 42 43  2  0
  1 44  1  0
  2 45  1  0
  5 46  1  0
  6 47  1  0
 13 48  1  0
 13 49  1  0
 18 50  1  0
 19 51  1  0
 20 52  1  0
 21 53  1  0
 24 54  1  0
 25 55  1  0
 26 56  1  0
 27 57  1  0
 28 58  1  0
 29 59  1  0
 34 60  1  0
 36 61  1  0
 37 62  1  0
 37 63  1  0
 38 64  1  0
 38 65  1  0
 39 66  1  0
 39 67  1  0
 40 68  1  0
 41 69  1  0
 41 70  1  0
 41 71  1  0
 42 72  1  0
 43 73  1  0
M  END
> <Uni-Dock RESULT> 
ENERGY=   -6.560  LOWER_BOUND=    0.000  UPPER_BOUND=    0.000
INTER + INTRA:          -6.560
INTER:                  -6.560
INTRA:                   0.000
UNBOUND:                 0.000

$$$$

     RDKit          3D

 73 77  0  0  0  0  0  0  0  0999 V2000
   48.3880    7.8800   18.5046 O   0  0  0  0  0  0  0  0  0  0  0  0
   48.3305    8.4743   13.7724 O   0  0  0  0  0  0  0  0  0  0  0  0
   46.9045    8.9884   20.3567 O   0  0  0  0  0  0  0  0  0  0  0  0
   46.5248    7.7729   12.0089 O   0  0  0  0  0  0  0  0  0  0  0  0
   46.5130   11.1895   20.2571 O   0  0  0  0  0  0  0  0  0  0  0  0
   45.5958    5.7420   12.1585 O   0  0  0  0  0  0  0  0  0  0  0  0
   49.1485    9.2488   16.7103 C   0  0  0  0  0  0  0  0  0  0  0  0
   48.8219    6.9531   15.5379 C   0  0  0  0  0  0  0  0  0  0  0  0
   49.2845   10.5486   16.1180 C   0  0  0  0  0  0  0  0  0  0  0  0
   48.6575    5.6605   16.1382 C   0  0  0  0  0  0  0  0  0  0  0  0
   48.4313    9.1225   17.9208 C   0  0  0  0  0  0  0  0  0  0  0  0
   48.0923    7.2593   14.3675 C   0  0  0  0  0  0  0  0  0  0  0  0
   49.7868    7.9998   16.0987 C   0  0  0  0  0  0  0  0  0  0  0  0
   48.6641   11.6598   16.7508 C   0  0  0  0  0  0  0  0  0  0  0  0
   47.7381    4.7457   15.5581 C   0  0  0  0  0  0  0  0  0  0  0  0
   47.8135   10.2274   18.5225 C   0  0  0  0  0  0  0  0  0  0  0  0
   47.1827    6.3476   13.8145 C   0  0  0  0  0  0  0  0  0  0  0  0
   47.9321   11.4852   17.9307 C   0  0  0  0  0  0  0  0  0  0  0  0
   47.0098    5.1014   14.4176 C   0  0  0  0  0  0  0  0  0  0  0  0
   50.0073   10.8273   14.9300 C   0  0  0  0  0  0  0  0  0  0  0  0
   49.3544    5.2054   17.2860 C   0  0  0  0  0  0  0  0  0  0  0  0
   47.0508   10.0541   19.7808 C   0  0  0  0  0  0  0  0  0  0  0  0
   46.4249    6.7063   12.5930 C   0  0  0  0  0  0  0  0  0  0  0  0
   48.7768   12.9508   16.2066 C   0  0  0  0  0  0  0  0  0  0  0  0
   47.5465    3.4698   16.1154 C   0  0  0  0  0  0  0  0  0  0  0  0
   50.1132   12.1171   14.3996 C   0  0  0  0  0  0  0  0  0  0  0  0
   49.1565    3.9325   17.8301 C   0  0  0  0  0  0  0  0  0  0  0  0
   49.4982   13.1803   15.0394 C   0  0  0  0  0  0  0  0  0  0  0  0
   48.2514    3.0633   17.2438 C   0  0  0  0  0  0  0  0  0  0  0  0
   49.8777   11.4429   17.5209 S   0  0  0  0  0  0  0  0  0  0  0  0
   48.2139    6.4648   15.8836 N   0  0  0  0  0  0  0  0  0  0  0  0
   48.7029    7.6883   13.8931 N   0  0  0  0  0  0  0  0  0  0  0  0
   48.6047    7.6079   15.1848 C   0  0  0  0  0  0  0  0  0  0  0  0
   48.9291    8.9001   15.8654 C   0  0  0  0  0  0  0  0  0  0  0  0
   48.3731   10.6007   17.5319 C   0  0  0  0  0  0  0  0  0  0  0  0
   48.1651    9.3536   16.8699 C   0  0  0  0  0  0  0  0  0  0  0  0
   47.8352    5.2722   15.1239 C   0  0  0  0  0  0  0  0  0  0  0  0
   48.3811    6.5127   13.0912 C   0  0  0  0  0  0  0  0  0  0  0  0
   47.3179    5.6657   13.7570 C   0  0  0  0  0  0  0  0  0  0  0  0
   47.4495   11.2956   18.2987 C   0  0  0  0  0  0  0  0  0  0  0  0
   48.8228    6.1458   17.1754 C   0  0  0  0  0  0  0  0  0  0  0  0
   49.2747   12.7108   18.4897 C   0  0  0  0  0  0  0  0  0  0  0  0
   47.9625   12.5081   18.8447 C   0  0  0  0  0  0  0  0  0  0  0  0
   47.8094    7.9035   19.2969 H   0  0  0  0  0  0  0  0  0  0  0  0
   47.7324    8.5913   13.0038 H   0  0  0  0  0  0  0  0  0  0  0  0
   46.0441   10.9166   21.0736 H   0  0  0  0  0  0  0  0  0  0  0  0
   45.1727    6.1210   11.3596 H   0  0  0  0  0  0  0  0  0  0  0  0
   50.4878    8.2462   15.2963 H   0  0  0  0  0  0  0  0  0  0  0  0
   50.4552    7.5810   16.8566 H   0  0  0  0  0  0  0  0  0  0  0  0
   47.4577   12.3458   18.3982 H   0  0  0  0  0  0  0  0  0  0  0  0
   46.3075    4.3896   13.9883 H   0  0  0  0  0  0  0  0  0  0  0  0
   50.4970   10.0337   14.3731 H   0  0  0  0  0  0  0  0  0  0  0  0
   50.0635    5.8469   17.8010 H   0  0  0  0  0  0  0  0  0  0  0  0
   48.2984   13.7985   16.6939 H   0  0  0  0  0  0  0  0  0  0  0  0
   46.8385    2.7736   15.6697 H   0  0  0  0  0  0  0  0  0  0  0  0
   50.6729   12.2798   13.4824 H   0  0  0  0  0  0  0  0  0  0  0  0
   49.7084    3.6313   18.7162 H   0  0  0  0  0  0  0  0  0  0  0  0
   49.5746   14.1842   14.6315 H   0  0  0  0  0  0  0  0  0  0  0  0
   48.0903    2.0745   17.6633 H   0  0  0  0  0  0  0  0  0  0  0  0
   49.7353    9.4686   15.4169 H   0  0  0  0  0  0  0  0  0  0  0  0
   47.3059    8.7652   17.1853 H   0  0  0  0  0  0  0  0  0  0  0  0
   47.0577    4.7199   15.6639 H   0  0  0  0  0  0  0  0  0  0  0  0
   48.7024    4.6072   15.0185 H   0  0  0  0  0  0  0  0  0  0  0  0
   49.2946    5.9343   12.9087 H   0  0  0  0  0  0  0  0  0  0  0  0
   48.0123    6.8460   12.1147 H   0  0  0  0  0  0  0  0  0  0  0  0
   47.1033    4.7752   13.1570 H   0  0  0  0  0  0  0  0  0  0  0  0
   46.3850    6.2352   13.8544 H   0  0  0  0  0  0  0  0  0  0  0  0
   46.4337   10.9517   18.4525 H   0  0  0  0  0  0  0  0  0  0  0  0
   48.8191    6.9912   17.8682 H   0  0  0  0  0  0  0  0  0  0  0  0
   48.2738    5.3342   17.6675 H   0  0  0  0  0  0  0  0  0  0  0  0
   49.8597    5.8205   17.0328 H   0  0  0  0  0  0  0  0  0  0  0  0
   49.9121   13.5429   18.7560 H   0  0  0  0  0  0  0  0  0  0  0  0
   47.3957   13.1949   19.4612 H   0  0  0  0  0  0  0  0  0  0  0  0
  1 11  1  0
  2 12  1  0
  3 22  2  0
  4 23  2  0
  5 22  1  0
  6 23  1  0
  7  9  1  0
  7 11  2  0
  7 13  1  0
  8 10  1  0
  8 12  2  0
  8 13  1  0
  9 14  2  0
  9 20  1  0
 10 15  2  0
 10 21  1  0
 11 16  1  0
 12 17  1  0
 14 18  1  0
 14 24  1  0
 15 19  1  0
 15 25  1  0
 16 18  2  0
 16 22  1  0
 17 19  2  0
 17 23  1  0
 20 26  2  0
 21 27  2  0
 24 28  2  0
 25 29  2  0
 26 28  1  0
 27 29  1  0
 30 35  1  0
 30 42  1  0
 31 33  1  0
 31 37  1  0
 31 41  1  0
 32 33  2  0
 32 38  1  0
 33 34  1  0
 34 36  2  0
 35 36  1  0
 35 40  2  0
 37 39  1  0
 38 39  1  0
 40 43  1  0
 42 43  2  0
  1 44  1  0
  2 45  1  0
  5 46  1  0
  6 47  1  0
 13 48  1  0
 13 49  1  0
 18 50  1  0
 19 51  1  0
 20 52  1  0
 21 53  1  0
 24 54  1  0
 25 55  1  0
 26 56  1  0
 27 57  1  0
 28 58  1  0
 29 59  1  0
 34 60  1  0
 36 61  1  0
 37 62  1  0
 37 63  1  0
 38 64  1  0
 38 65  1  0
 39 66  1  0
 39 67  1  0
 40 68  1  0
 41 69  1  0
 41 70  1  0
 41 71  1  0
 42 72  1  0
 43 73  1  0
M  END
> <Uni-Dock RESULT> 
ENERGY=   -6.014  LOWER_BOUND=    2.262  UPPER_BOUND=    7.052
INTER + INTRA:          -6.014
INTER:                  -6.014
INTRA:                   0.000
UNBOUND:                 0.000

$$$$

     RDKit          3D

 73 77  0  0  0  0  0  0  0  0999 V2000
   48.6555    5.6357   16.0170 O   0  0  0  0  0  0  0  0  0  0  0  0
   52.1062    8.5902   14.5632 O   0  0  0  0  0  0  0  0  0  0  0  0
   47.1815    3.9650   14.6401 O   0  0  0  0  0  0  0  0  0  0  0  0
   54.4988    8.0591   13.6379 O   0  0  0  0  0  0  0  0  0  0  0  0
   46.3041    4.6435   12.6964 O   0  0  0  0  0  0  0  0  0  0  0  0
   55.7303    6.4911   14.6549 O   0  0  0  0  0  0  0  0  0  0  0  0
   49.1103    7.7724   15.0686 C   0  0  0  0  0  0  0  0  0  0  0  0
   51.2967    7.2897   16.3869 C   0  0  0  0  0  0  0  0  0  0  0  0
   48.8792    8.7420   14.0365 C   0  0  0  0  0  0  0  0  0  0  0  0
   51.5282    6.2984   17.3978 C   0  0  0  0  0  0  0  0  0  0  0  0
   48.4798    6.5117   14.9738 C   0  0  0  0  0  0  0  0  0  0  0  0
   52.3299    7.5816   15.4687 C   0  0  0  0  0  0  0  0  0  0  0  0
   49.9836    8.0691   16.2896 C   0  0  0  0  0  0  0  0  0  0  0  0
   48.0514    8.3894   12.9362 C   0  0  0  0  0  0  0  0  0  0  0  0
   52.7743    5.6161   17.4181 C   0  0  0  0  0  0  0  0  0  0  0  0
   47.6788    6.1766   13.8736 C   0  0  0  0  0  0  0  0  0  0  0  0
   53.5496    6.8916   15.4981 C   0  0  0  0  0  0  0  0  0  0  0  0
   47.4745    7.1165   12.8630 C   0  0  0  0  0  0  0  0  0  0  0  0
   53.7588    5.9116   16.4688 C   0  0  0  0  0  0  0  0  0  0  0  0
   49.4139   10.0555   14.0227 C   0  0  0  0  0  0  0  0  0  0  0  0
   50.5989    5.9361   18.4055 C   0  0  0  0  0  0  0  0  0  0  0  0
   47.0506    4.8370   13.7967 C   0  0  0  0  0  0  0  0  0  0  0  0
   54.6069    7.2147   14.5120 C   0  0  0  0  0  0  0  0  0  0  0  0
   47.7953    9.3110   11.9063 C   0  0  0  0  0  0  0  0  0  0  0  0
   53.0411    4.6374   18.3910 C   0  0  0  0  0  0  0  0  0  0  0  0
   49.1499   10.9638   12.9925 C   0  0  0  0  0  0  0  0  0  0  0  0
   50.8770    4.9619   19.3694 C   0  0  0  0  0  0  0  0  0  0  0  0
   48.3386   10.5915   11.9336 C   0  0  0  0  0  0  0  0  0  0  0  0
   52.0999    4.3118   19.3623 C   0  0  0  0  0  0  0  0  0  0  0  0
   47.1136    8.7076   14.0003 S   0  0  0  0  0  0  0  0  0  0  0  0
   51.4882    6.4617   16.4596 N   0  0  0  0  0  0  0  0  0  0  0  0
   52.2683    8.4621   15.4167 N   0  0  0  0  0  0  0  0  0  0  0  0
   51.3268    7.6089   15.6813 C   0  0  0  0  0  0  0  0  0  0  0  0
   50.0290    7.9674   15.0294 C   0  0  0  0  0  0  0  0  0  0  0  0
   48.0699    7.2989   13.7280 C   0  0  0  0  0  0  0  0  0  0  0  0
   49.2885    7.0298   14.4203 C   0  0  0  0  0  0  0  0  0  0  0  0
   52.8184    6.1514   16.9862 C   0  0  0  0  0  0  0  0  0  0  0  0
   53.6026    8.2234   15.9564 C   0  0  0  0  0  0  0  0  0  0  0  0
   53.8859    6.7426   16.0907 C   0  0  0  0  0  0  0  0  0  0  0  0
   47.4541    6.4854   12.7883 C   0  0  0  0  0  0  0  0  0  0  0  0
   50.4096    6.0091   17.3388 C   0  0  0  0  0  0  0  0  0  0  0  0
   45.9368    8.2357   12.8591 C   0  0  0  0  0  0  0  0  0  0  0  0
   46.2336    7.0227   12.2851 C   0  0  0  0  0  0  0  0  0  0  0  0
   48.2294    4.7770   15.8070 H   0  0  0  0  0  0  0  0  0  0  0  0
   52.8698    8.6639   13.9519 H   0  0  0  0  0  0  0  0  0  0  0  0
   45.9671    3.7273   12.7852 H   0  0  0  0  0  0  0  0  0  0  0  0
   56.3237    6.8123   13.9438 H   0  0  0  0  0  0  0  0  0  0  0  0
   50.2387    9.1298   16.3658 H   0  0  0  0  0  0  0  0  0  0  0  0
   49.3536    7.9282   17.1727 H   0  0  0  0  0  0  0  0  0  0  0  0
   46.8490    6.8609   12.0101 H   0  0  0  0  0  0  0  0  0  0  0  0
   54.7061    5.3770   16.4971 H   0  0  0  0  0  0  0  0  0  0  0  0
   50.0708   10.4012   14.8156 H   0  0  0  0  0  0  0  0  0  0  0  0
   49.6167    6.3970   18.4526 H   0  0  0  0  0  0  0  0  0  0  0  0
   47.1621    9.0359   11.0648 H   0  0  0  0  0  0  0  0  0  0  0  0
   53.9957    4.1147   18.4004 H   0  0  0  0  0  0  0  0  0  0  0  0
   49.5883   11.9577   13.0229 H   0  0  0  0  0  0  0  0  0  0  0  0
   50.1295    4.7124   20.1175 H   0  0  0  0  0  0  0  0  0  0  0  0
   48.1314   11.2913   11.1291 H   0  0  0  0  0  0  0  0  0  0  0  0
   52.3212    3.5517   20.1060 H   0  0  0  0  0  0  0  0  0  0  0  0
   49.8066    9.0275   14.9954 H   0  0  0  0  0  0  0  0  0  0  0  0
   49.6448    6.0017   14.4100 H   0  0  0  0  0  0  0  0  0  0  0  0
   52.9503    5.0649   17.0439 H   0  0  0  0  0  0  0  0  0  0  0  0
   52.9189    6.5525   18.0032 H   0  0  0  0  0  0  0  0  0  0  0  0
   53.7039    8.7372   16.9196 H   0  0  0  0  0  0  0  0  0  0  0  0
   54.3389    8.6675   15.2772 H   0  0  0  0  0  0  0  0  0  0  0  0
   54.8802    6.5780   16.5188 H   0  0  0  0  0  0  0  0  0  0  0  0
   53.8630    6.2610   15.1050 H   0  0  0  0  0  0  0  0  0  0  0  0
   47.8724    5.5407   12.4624 H   0  0  0  0  0  0  0  0  0  0  0  0
   49.4438    5.9476   16.8307 H   0  0  0  0  0  0  0  0  0  0  0  0
   50.6257    5.0058   17.7247 H   0  0  0  0  0  0  0  0  0  0  0  0
   50.3085    6.6896   18.1919 H   0  0  0  0  0  0  0  0  0  0  0  0
   45.0812    8.8684   12.6659 H   0  0  0  0  0  0  0  0  0  0  0  0
   45.6108    6.5446   11.5390 H   0  0  0  0  0  0  0  0  0  0  0  0
  1 11  1  0
  2 12  1  0
  3 22  2  0
  4 23  2  0
  5 22  1  0
  6 23  1  0
  7  9  1  0
  7 11  2  0
  7 13  1  0
  8 10  1  0
  8 12  2  0
  8 13  1  0
  9 14  2  0
  9 20  1  0
 10 15  2  0
 10 21  1  0
 11 16  1  0
 12 17  1  0
 14 18  1  0
 14 24  1  0
 15 19  1  0
 15 25  1  0
 16 18  2  0
 16 22  1  0
 17 19  2  0
 17 23  1  0
 20 26  2  0
 21 27  2  0
 24 28  2  0
 25 29  2  0
 26 28  1  0
 27 29  1  0
 30 35  1  0
 30 42  1  0
 31 33  1  0
 31 37  1  0
 31 41  1  0
 32 33  2  0
 32 38  1  0
 33 34  1  0
 34 36  2  0
 35 36  1  0
 35 40  2  0
 37 39  1  0
 38 39  1  0
 40 43  1  0
 42 43  2  0
  1 44  1  0
  2 45  1  0
  5 46  1  0
  6 47  1  0
 13 48  1  0
 13 49  1  0
 18 50  1  0
 19 51  1  0
 20 52  1  0
 21 53  1  0
 24 54  1  0
 25 55  1  0
 26 56  1  0
 27 57  1  0
 28 58  1  0
 29 59  1  0
 34 60  1  0
 36 61  1  0
 37 62  1  0
 37 63  1  0
 38 64  1  0
 38 65  1  0
 39 66  1  0
 39 67  1  0
 40 68  1  0
 41 69  1  0
 41 70  1  0
 41 71  1  0
 42 72  1  0
 43 73  1  0
M  END
> <Uni-Dock RESULT> 
ENERGY=   -5.760  LOWER_BOUND=    3.766  UPPER_BOUND=    5.913
INTER + INTRA:          -5.760
INTER:                  -5.760
INTRA:                   0.000
UNBOUND:                 0.000

$$$$

     RDKit          3D

 73 77  0  0  0  0  0  0  0  0999 V2000
   52.5421    8.6914    8.8595 O   0  0  0  0  0  0  0  0  0  0  0  0
   51.8622    7.9118   13.5157 O   0  0  0  0  0  0  0  0  0  0  0  0
   52.4780    7.0163    6.8472 O   0  0  0  0  0  0  0  0  0  0  0  0
   49.6835    7.2524   14.8122 O   0  0  0  0  0  0  0  0  0  0  0  0
   53.5026    5.0373    7.0526 O   0  0  0  0  0  0  0  0  0  0  0  0
   47.7657    8.2896   14.3061 O   0  0  0  0  0  0  0  0  0  0  0  0
   53.5797    7.9759   10.8802 C   0  0  0  0  0  0  0  0  0  0  0  0
   51.6808    9.5141   11.7630 C   0  0  0  0  0  0  0  0  0  0  0  0
   54.3524    7.0016   11.5961 C   0  0  0  0  0  0  0  0  0  0  0  0
   50.8925   10.4658   11.0341 C   0  0  0  0  0  0  0  0  0  0  0  0
   53.2108    7.7057    9.5435 C   0  0  0  0  0  0  0  0  0  0  0  0
   51.0639    8.7568   12.7837 C   0  0  0  0  0  0  0  0  0  0  0  0
   53.1748    9.3153   11.4996 C   0  0  0  0  0  0  0  0  0  0  0  0
   54.6912    5.7829   10.9479 C   0  0  0  0  0  0  0  0  0  0  0  0
   49.5097   10.5876   11.3368 C   0  0  0  0  0  0  0  0  0  0  0  0
   53.5412    6.4918    8.9257 C   0  0  0  0  0  0  0  0  0  0  0  0
   49.6961    8.8838   13.0621 C   0  0  0  0  0  0  0  0  0  0  0  0
   54.2751    5.5399    9.6341 C   0  0  0  0  0  0  0  0  0  0  0  0
   48.9304    9.7939   12.3328 C   0  0  0  0  0  0  0  0  0  0  0  0
   54.8233    7.1565   12.9248 C   0  0  0  0  0  0  0  0  0  0  0  0
   51.3887   11.3189   10.0162 C   0  0  0  0  0  0  0  0  0  0  0  0
   53.1190    6.2335    7.5293 C   0  0  0  0  0  0  0  0  0  0  0  0
   49.0791    8.0649   14.1315 C   0  0  0  0  0  0  0  0  0  0  0  0
   55.4508    4.8040   11.6115 C   0  0  0  0  0  0  0  0  0  0  0  0
   48.7018   11.5070   10.6458 C   0  0  0  0  0  0  0  0  0  0  0  0
   55.5800    6.1753   13.5734 C   0  0  0  0  0  0  0  0  0  0  0  0
   50.5751   12.2312    9.3371 C   0  0  0  0  0  0  0  0  0  0  0  0
   55.8952    4.9981   12.9154 C   0  0  0  0  0  0  0  0  0  0  0  0
   49.2297   12.3256    9.6525 C   0  0  0  0  0  0  0  0  0  0  0  0
   55.6475    6.7438   10.4231 S   0  0  0  0  0  0  0  0  0  0  0  0
   50.9915    9.5454   11.2614 N   0  0  0  0  0  0  0  0  0  0  0  0
   51.6917    8.7663   13.4063 N   0  0  0  0  0  0  0  0  0  0  0  0
   51.8404    8.8447   12.1193 C   0  0  0  0  0  0  0  0  0  0  0  0
   53.0209    8.0664   11.6306 C   0  0  0  0  0  0  0  0  0  0  0  0
   53.9872    6.4837   10.0370 C   0  0  0  0  0  0  0  0  0  0  0  0
   52.9270    7.2990   10.5349 C   0  0  0  0  0  0  0  0  0  0  0  0
   49.8137   10.2074   11.8248 C   0  0  0  0  0  0  0  0  0  0  0  0
   50.5588    9.4473   14.0238 C   0  0  0  0  0  0  0  0  0  0  0  0
   49.3707    9.5002   13.0875 C   0  0  0  0  0  0  0  0  0  0  0  0
   53.8687    5.4144    9.1614 C   0  0  0  0  0  0  0  0  0  0  0  0
   51.5340   10.2458   10.0968 C   0  0  0  0  0  0  0  0  0  0  0  0
   56.1662    5.4320    9.4639 C   0  0  0  0  0  0  0  0  0  0  0  0
   55.1160    4.8067    8.8354 C   0  0  0  0  0  0  0  0  0  0  0  0
   52.2822    8.3639    7.9717 H   0  0  0  0  0  0  0  0  0  0  0  0
   51.3150    7.4077   14.1549 H   0  0  0  0  0  0  0  0  0  0  0  0
   53.1505    5.0120    6.1381 H   0  0  0  0  0  0  0  0  0  0  0  0
   47.5056    7.6848   15.0324 H   0  0  0  0  0  0  0  0  0  0  0  0
   53.6909    9.5048   12.4450 H   0  0  0  0  0  0  0  0  0  0  0  0
   53.5891   10.0996   10.8594 H   0  0  0  0  0  0  0  0  0  0  0  0
   54.5374    4.5985    9.1553 H   0  0  0  0  0  0  0  0  0  0  0  0
   47.8690    9.8980   12.5494 H   0  0  0  0  0  0  0  0  0  0  0  0
   54.5948    8.0494   13.4996 H   0  0  0  0  0  0  0  0  0  0  0  0
   52.4303   11.2793    9.7114 H   0  0  0  0  0  0  0  0  0  0  0  0
   55.7064    3.8715   11.1115 H   0  0  0  0  0  0  0  0  0  0  0  0
   47.6422   11.5943   10.8785 H   0  0  0  0  0  0  0  0  0  0  0  0
   55.9129    6.3372   14.5952 H   0  0  0  0  0  0  0  0  0  0  0  0
   50.9993   12.8589    8.5583 H   0  0  0  0  0  0  0  0  0  0  0  0
   56.4806    4.2309   13.4142 H   0  0  0  0  0  0  0  0  0  0  0  0
   48.5913   13.0296    9.1267 H   0  0  0  0  0  0  0  0  0  0  0  0
   53.8887    8.0876   12.2793 H   0  0  0  0  0  0  0  0  0  0  0  0
   51.9785    7.2531   10.0036 H   0  0  0  0  0  0  0  0  0  0  0  0
   48.9970   10.1964   11.0940 H   0  0  0  0  0  0  0  0  0  0  0  0
   50.0470   11.2571   12.0461 H   0  0  0  0  0  0  0  0  0  0  0  0
   50.8641   10.4527   14.3371 H   0  0  0  0  0  0  0  0  0  0  0  0
   50.2748    8.9015   14.9305 H   0  0  0  0  0  0  0  0  0  0  0  0
   48.5364   10.0344   13.5539 H   0  0  0  0  0  0  0  0  0  0  0  0
   49.0273    8.4849   12.8526 H   0  0  0  0  0  0  0  0  0  0  0  0
   52.9159    5.0705    8.7771 H   0  0  0  0  0  0  0  0  0  0  0  0
   52.1938    9.6185    9.4920 H   0  0  0  0  0  0  0  0  0  0  0  0
   50.7233   10.5764    9.4368 H   0  0  0  0  0  0  0  0  0  0  0  0
   52.0965   11.1301   10.4176 H   0  0  0  0  0  0  0  0  0  0  0  0
   57.2171    5.1838    9.4035 H   0  0  0  0  0  0  0  0  0  0  0  0
   55.2332    3.9541    8.1778 H   0  0  0  0  0  0  0  0  0  0  0  0
  1 11  1  0
  2 12  1  0
  3 22  2  0
  4 23  2  0
  5 22  1  0
  6 23  1  0
  7  9  1  0
  7 11  2  0
  7 13  1  0
  8 10  1  0
  8 12  2  0
  8 13  1  0
  9 14  2  0
  9 20  1  0
 10 15  2  0
 10 21  1  0
 11 16  1  0
 12 17  1  0
 14 18  1  0
 14 24  1  0
 15 19  1  0
 15 25  1  0
 16 18  2  0
 16 22  1  0
 17 19  2  0
 17 23  1  0
 20 26  2  0
 21 27  2  0
 24 28  2  0
 25 29  2  0
 26 28  1  0
 27 29  1  0
 30 35  1  0
 30 42  1  0
 31 33  1  0
 31 37  1  0
 31 41  1  0
 32 33  2  0
 32 38  1  0
 33 34  1  0
 34 36  2  0
 35 36  1  0
 35 40  2  0
 37 39  1  0
 38 39  1  0
 40 43  1  0
 42 43  2  0
  1 44  1  0
  2 45  1  0
  5 46  1  0
  6 47  1  0
 13 48  1  0
 13 49  1  0
 18 50  1  0
 19 51  1  0
 20 52  1  0
 21 53  1  0
 24 54  1  0
 25 55  1  0
 26 56  1  0
 27 57  1  0
 28 58  1  0
 29 59  1  0
 34 60  1  0
 36 61  1  0
 37 62  1  0
 37 63  1  0
 38 64  1  0
 38 65  1  0
 39 66  1  0
 39 67  1  0
 40 68  1  0
 41 69  1  0
 41 70  1  0
 41 71  1  0
 42 72  1  0
 43 73  1  0
M  END
> <Uni-Dock RESULT> 
ENERGY=   -5.706  LOWER_BOUND=    5.730  UPPER_BOUND=    7.150
INTER + INTRA:          -5.706
INTER:                  -5.706
INTRA:                   0.000
UNBOUND:                 0.000

$$$$

     RDKit          3D

 73 77  0  0  0  0  0  0  0  0999 V2000
   46.6995   12.3742    9.4057 O   0  0  0  0  0  0  0  0  0  0  0  0
   48.3901    9.5688   12.8728 O   0  0  0  0  0  0  0  0  0  0  0  0
   47.5044   12.6580    6.9295 O   0  0  0  0  0  0  0  0  0  0  0  0
   48.3330    6.9602   13.1066 O   0  0  0  0  0  0  0  0  0  0  0  0
   49.6974   12.8264    6.5164 O   0  0  0  0  0  0  0  0  0  0  0  0
   46.4435    5.8688   12.6080 O   0  0  0  0  0  0  0  0  0  0  0  0
   48.3551   12.1718   11.1056 C   0  0  0  0  0  0  0  0  0  0  0  0
   46.4513   10.6596   12.0224 C   0  0  0  0  0  0  0  0  0  0  0  0
   49.7333   12.2204   11.5019 C   0  0  0  0  0  0  0  0  0  0  0  0
   45.0814   10.5963   11.6009 C   0  0  0  0  0  0  0  0  0  0  0  0
   48.0310   12.3445    9.7415 C   0  0  0  0  0  0  0  0  0  0  0  0
   47.1048    9.4652   12.3993 C   0  0  0  0  0  0  0  0  0  0  0  0
   47.2199   11.9795   12.1136 C   0  0  0  0  0  0  0  0  0  0  0  0
   50.7283   12.4063   10.5042 C   0  0  0  0  0  0  0  0  0  0  0  0
   44.4394    9.3303   11.5398 C   0  0  0  0  0  0  0  0  0  0  0  0
   49.0270   12.5119    8.7697 C   0  0  0  0  0  0  0  0  0  0  0  0
   46.4583    8.2238   12.3236 C   0  0  0  0  0  0  0  0  0  0  0  0
   50.3666   12.5377    9.1587 C   0  0  0  0  0  0  0  0  0  0  0  0
   45.1336    8.1669   11.8897 C   0  0  0  0  0  0  0  0  0  0  0  0
   50.1984   12.1019   12.8364 C   0  0  0  0  0  0  0  0  0  0  0  0
   44.2931   11.7169   11.2358 C   0  0  0  0  0  0  0  0  0  0  0  0
   48.6516   12.6686    7.3451 C   0  0  0  0  0  0  0  0  0  0  0  0
   47.1777    6.9893   12.7151 C   0  0  0  0  0  0  0  0  0  0  0  0
   52.0894   12.4647   10.8500 C   0  0  0  0  0  0  0  0  0  0  0  0
   43.0988    9.2241   11.1313 C   0  0  0  0  0  0  0  0  0  0  0  0
   51.5558   12.1634   13.1676 C   0  0  0  0  0  0  0  0  0  0  0  0
   42.9593   11.5985   10.8329 C   0  0  0  0  0  0  0  0  0  0  0  0
   52.5024   12.3463   12.1732 C   0  0  0  0  0  0  0  0  0  0  0  0
   42.3612   10.3504   10.7808 C   0  0  0  0  0  0  0  0  0  0  0  0
   50.1996   13.7408   10.7335 S   0  0  0  0  0  0  0  0  0  0  0  0
   45.9682   10.2978   11.4196 N   0  0  0  0  0  0  0  0  0  0  0  0
   47.5604    9.7359   13.1070 N   0  0  0  0  0  0  0  0  0  0  0  0
   47.1910   10.4355   12.0781 C   0  0  0  0  0  0  0  0  0  0  0  0
   48.2417   11.4051   11.6376 C   0  0  0  0  0  0  0  0  0  0  0  0
   49.5559   12.4143    9.8395 C   0  0  0  0  0  0  0  0  0  0  0  0
   48.5311   11.5544   10.3367 C   0  0  0  0  0  0  0  0  0  0  0  0
   45.0384    9.2624   11.8740 C   0  0  0  0  0  0  0  0  0  0  0  0
   46.6505    8.7216   13.6282 C   0  0  0  0  0  0  0  0  0  0  0  0
   45.7981    8.1279   12.5273 C   0  0  0  0  0  0  0  0  0  0  0  0
   50.1523   12.3550    8.5886 C   0  0  0  0  0  0  0  0  0  0  0  0
   45.2876   11.4728   10.8744 C   0  0  0  0  0  0  0  0  0  0  0  0
   51.2652   14.1833    9.4770 C   0  0  0  0  0  0  0  0  0  0  0  0
   51.1361   13.3651    8.3804 C   0  0  0  0  0  0  0  0  0  0  0  0
   46.6024   12.4304    8.4307 H   0  0  0  0  0  0  0  0  0  0  0  0
   48.7517    8.6747   13.0522 H   0  0  0  0  0  0  0  0  0  0  0  0
   49.2959   12.9095    5.6259 H   0  0  0  0  0  0  0  0  0  0  0  0
   47.0452    5.1504   12.8957 H   0  0  0  0  0  0  0  0  0  0  0  0
   47.5659   12.0735   13.1468 H   0  0  0  0  0  0  0  0  0  0  0  0
   46.5614   12.8480   12.0201 H   0  0  0  0  0  0  0  0  0  0  0  0
   51.1418   12.6724    8.4070 H   0  0  0  0  0  0  0  0  0  0  0  0
   44.6274    7.2052   11.8338 H   0  0  0  0  0  0  0  0  0  0  0  0
   49.5071   11.9398   13.6583 H   0  0  0  0  0  0  0  0  0  0  0  0
   44.7106   12.7194   11.2389 H   0  0  0  0  0  0  0  0  0  0  0  0
   52.8480   12.6055   10.0823 H   0  0  0  0  0  0  0  0  0  0  0  0
   42.6122    8.2518   11.0825 H   0  0  0  0  0  0  0  0  0  0  0  0
   51.8643   12.0607   14.2046 H   0  0  0  0  0  0  0  0  0  0  0  0
   42.3976   12.4860   10.5547 H   0  0  0  0  0  0  0  0  0  0  0  0
   53.5585   12.3927   12.4233 H   0  0  0  0  0  0  0  0  0  0  0  0
   41.3265   10.2509   10.4655 H   0  0  0  0  0  0  0  0  0  0  0  0
   48.8037   11.8723   12.4378 H   0  0  0  0  0  0  0  0  0  0  0  0
   47.9872   10.9609    9.6046 H   0  0  0  0  0  0  0  0  0  0  0  0
   44.4673    8.8769   11.0216 H   0  0  0  0  0  0  0  0  0  0  0  0
   44.3221    9.6921   12.5864 H   0  0  0  0  0  0  0  0  0  0  0  0
   46.0306    9.1595   14.4196 H   0  0  0  0  0  0  0  0  0  0  0  0
   47.2435    7.9242   14.0899 H   0  0  0  0  0  0  0  0  0  0  0  0
   45.1038    7.3861   12.9354 H   0  0  0  0  0  0  0  0  0  0  0  0
   46.4316    7.6211   11.7884 H   0  0  0  0  0  0  0  0  0  0  0  0
   49.9003   11.6028    7.8508 H   0  0  0  0  0  0  0  0  0  0  0  0
   45.9416   12.0965   10.2596 H   0  0  0  0  0  0  0  0  0  0  0  0
   44.4514   11.1682   10.2340 H   0  0  0  0  0  0  0  0  0  0  0  0
   44.8886   12.0884   11.6887 H   0  0  0  0  0  0  0  0  0  0  0  0
   51.9332   15.0248    9.6008 H   0  0  0  0  0  0  0  0  0  0  0  0
   51.7192   13.4803    7.4750 H   0  0  0  0  0  0  0  0  0  0  0  0
  1 11  1  0
  2 12  1  0
  3 22  2  0
  4 23  2  0
  5 22  1  0
  6 23  1  0
  7  9  1  0
  7 11  2  0
  7 13  1  0
  8 10  1  0
  8 12  2  0
  8 13  1  0
  9 14  2  0
  9 20  1  0
 10 15  2  0
 10 21  1  0
 11 16  1  0
 12 17  1  0
 14 18  1  0
 14 24  1  0
 15 19  1  0
 15 25  1  0
 16 18  2  0
 16 22  1  0
 17 19  2  0
 17 23  1  0
 20 26  2  0
 21 27  2  0
 24 28  2  0
 25 29  2  0
 26 28  1  0
 27 29  1  0
 30 35  1  0
 30 42  1  0
 31 33  1  0
 31 37  1  0
 31 41  1  0
 32 33  2  0
 32 38  1  0
 33 34  1  0
 34 36  2  0
 35 36  1  0
 35 40  2  0
 37 39  1  0
 38 39  1  0
 40 43  1  0
 42 43  2  0
  1 44  1  0
  2 45  1  0
  5 46  1  0
  6 47  1  0
 13 48  1  0
 13 49  1  0
 18 50  1  0
 19 51  1  0
 20 52  1  0
 21 53  1  0
 24 54  1  0
 25 55  1  0
 26 56  1  0
 27 57  1  0
 28 58  1  0
 29 59  1  0
 34 60  1  0
 36 61  1  0
 37 62  1  0
 37 63  1  0
 38 64  1  0
 38 65  1  0
 39 66  1  0
 39 67  1  0
 40 68  1  0
 41 69  1  0
 41 70  1  0
 41 71  1  0
 42 72  1  0
 43 73  1  0
M  END
> <Uni-Dock RESULT> 
ENERGY=   -5.639  LOWER_BOUND=    3.427  UPPER_BOUND=    6.721
INTER + INTRA:          -5.639
INTER:                  -5.639
INTRA:                   0.000
UNBOUND:                 0.000

$$$$

     RDKit          3D

 73 77  0  0  0  0  0  0  0  0999 V2000
   51.9957    8.1300   13.4387 O   0  0  0  0  0  0  0  0  0  0  0  0
   52.5612    8.5518    8.7214 O   0  0  0  0  0  0  0  0  0  0  0  0
   49.8417    7.6072   14.8339 O   0  0  0  0  0  0  0  0  0  0  0  0
   52.4162    6.7358    6.8389 O   0  0  0  0  0  0  0  0  0  0  0  0
   47.9351    8.6590   14.3173 O   0  0  0  0  0  0  0  0  0  0  0  0
   53.3913    4.7490    7.1727 O   0  0  0  0  0  0  0  0  0  0  0  0
   51.7971    9.6108   11.5841 C   0  0  0  0  0  0  0  0  0  0  0  0
   53.6316    7.9626   10.7657 C   0  0  0  0  0  0  0  0  0  0  0  0
   51.0100   10.5322   10.8158 C   0  0  0  0  0  0  0  0  0  0  0  0
   54.3945    7.0232   11.5363 C   0  0  0  0  0  0  0  0  0  0  0  0
   51.1953    8.9428   12.6737 C   0  0  0  0  0  0  0  0  0  0  0  0
   53.2214    7.6023    9.4628 C   0  0  0  0  0  0  0  0  0  0  0  0
   53.2770    9.3555   11.2903 C   0  0  0  0  0  0  0  0  0  0  0  0
   49.6422   10.7160   11.1555 C   0  0  0  0  0  0  0  0  0  0  0  0
   54.6791    5.7478   10.9784 C   0  0  0  0  0  0  0  0  0  0  0  0
   49.8409    9.1256   12.9845 C   0  0  0  0  0  0  0  0  0  0  0  0
   53.5033    6.3359    8.9323 C   0  0  0  0  0  0  0  0  0  0  0  0
   49.0755   10.0074   12.2209 C   0  0  0  0  0  0  0  0  0  0  0  0
   54.2248    5.4184    9.6967 C   0  0  0  0  0  0  0  0  0  0  0  0
   51.4928   11.2979    9.7241 C   0  0  0  0  0  0  0  0  0  0  0  0
   54.9049    7.2664   12.8365 C   0  0  0  0  0  0  0  0  0  0  0  0
   49.2373    8.3919   14.1214 C   0  0  0  0  0  0  0  0  0  0  0  0
   53.0472    5.9869    7.5667 C   0  0  0  0  0  0  0  0  0  0  0  0
   48.8371   11.6126   10.4319 C   0  0  0  0  0  0  0  0  0  0  0  0
   55.4225    4.7982   11.7002 C   0  0  0  0  0  0  0  0  0  0  0  0
   50.6816   12.1881    9.0132 C   0  0  0  0  0  0  0  0  0  0  0  0
   55.6452    6.3139   13.5438 C   0  0  0  0  0  0  0  0  0  0  0  0
   49.3524   12.3465    9.3684 C   0  0  0  0  0  0  0  0  0  0  0  0
   55.9045    5.0781   12.9748 C   0  0  0  0  0  0  0  0  0  0  0  0
   50.3624   11.5207   12.1285 S   0  0  0  0  0  0  0  0  0  0  0  0
   53.5670    7.1757   11.0886 N   0  0  0  0  0  0  0  0  0  0  0  0
   53.3620    8.3574    9.0247 N   0  0  0  0  0  0  0  0  0  0  0  0
   53.0765    8.2031   10.2814 C   0  0  0  0  0  0  0  0  0  0  0  0
   52.1234    9.2410   10.7838 C   0  0  0  0  0  0  0  0  0  0  0  0
   50.1092    9.8172   12.0446 C   0  0  0  0  0  0  0  0  0  0  0  0
   51.0931    8.8983   11.5709 C   0  0  0  0  0  0  0  0  0  0  0  0
   54.4288    6.1582   10.4844 C   0  0  0  0  0  0  0  0  0  0  0  0
   54.2541    7.3960    8.3854 C   0  0  0  0  0  0  0  0  0  0  0  0
   54.1220    6.0229    9.0084 C   0  0  0  0  0  0  0  0  0  0  0  0
   48.8508    9.5028   12.5361 C   0  0  0  0  0  0  0  0  0  0  0  0
   53.8879    7.4306   12.4933 C   0  0  0  0  0  0  0  0  0  0  0  0
   48.8092   11.8078   12.7727 C   0  0  0  0  0  0  0  0  0  0  0  0
   48.1018   10.6428   12.9494 C   0  0  0  0  0  0  0  0  0  0  0  0
   51.4547    7.6724   14.1177 H   0  0  0  0  0  0  0  0  0  0  0  0
   52.2854    8.1697    7.8611 H   0  0  0  0  0  0  0  0  0  0  0  0
   47.6826    8.1044   15.0852 H   0  0  0  0  0  0  0  0  0  0  0  0
   53.0251    4.6668    6.2671 H   0  0  0  0  0  0  0  0  0  0  0  0
   53.6856   10.0761   10.5762 H   0  0  0  0  0  0  0  0  0  0  0  0
   53.8296    9.6070   12.2002 H   0  0  0  0  0  0  0  0  0  0  0  0
   48.0248   10.1550   12.4630 H   0  0  0  0  0  0  0  0  0  0  0  0
   54.4490    4.4359    9.2862 H   0  0  0  0  0  0  0  0  0  0  0  0
   52.5210   11.2056    9.3864 H   0  0  0  0  0  0  0  0  0  0  0  0
   54.7196    8.2091   13.3430 H   0  0  0  0  0  0  0  0  0  0  0  0
   47.7896   11.7487   10.6947 H   0  0  0  0  0  0  0  0  0  0  0  0
   55.6350    3.8211   11.2703 H   0  0  0  0  0  0  0  0  0  0  0  0
   51.0957   12.7483    8.1791 H   0  0  0  0  0  0  0  0  0  0  0  0
   56.0089    6.5436   14.5416 H   0  0  0  0  0  0  0  0  0  0  0  0
   48.7162   13.0346    8.8189 H   0  0  0  0  0  0  0  0  0  0  0  0
   56.4759    4.3325   13.5200 H   0  0  0  0  0  0  0  0  0  0  0  0
   52.2677   10.2355   10.3783 H   0  0  0  0  0  0  0  0  0  0  0  0
   50.9622    7.8526   11.8417 H   0  0  0  0  0  0  0  0  0  0  0  0
   54.2687    5.1943   10.9809 H   0  0  0  0  0  0  0  0  0  0  0  0
   55.4826    6.4325   10.6239 H   0  0  0  0  0  0  0  0  0  0  0  0
   55.2861    7.7618    8.4428 H   0  0  0  0  0  0  0  0  0  0  0  0
   53.9952    7.3322    7.3226 H   0  0  0  0  0  0  0  0  0  0  0  0
   54.8135    5.3175    8.5359 H   0  0  0  0  0  0  0  0  0  0  0  0
   53.1042    5.6382    8.8666 H   0  0  0  0  0  0  0  0  0  0  0  0
   48.4741    8.4882   12.5854 H   0  0  0  0  0  0  0  0  0  0  0  0
   53.0799    7.9344   13.0299 H   0  0  0  0  0  0  0  0  0  0  0  0
   54.0747    6.4876   13.0206 H   0  0  0  0  0  0  0  0  0  0  0  0
   54.7898    8.0487   12.5673 H   0  0  0  0  0  0  0  0  0  0  0  0
   48.4899   12.8170   12.9948 H   0  0  0  0  0  0  0  0  0  0  0  0
   47.0964   10.6075   13.3508 H   0  0  0  0  0  0  0  0  0  0  0  0
  1 11  1  0
  2 12  1  0
  3 22  2  0
  4 23  2  0
  5 22  1  0
  6 23  1  0
  7  9  1  0
  7 11  2  0
  7 13  1  0
  8 10  1  0
  8 12  2  0
  8 13  1  0
  9 14  2  0
  9 20  1  0
 10 15  2  0
 10 21  1  0
 11 16  1  0
 12 17  1  0
 14 18  1  0
 14 24  1  0
 15 19  1  0
 15 25  1  0
 16 18  2  0
 16 22  1  0
 17 19  2  0
 17 23  1  0
 20 26  2  0
 21 27  2  0
 24 28  2  0
 25 29  2  0
 26 28  1  0
 27 29  1  0
 30 35  1  0
 30 42  1  0
 31 33  1  0
 31 37  1  0
 31 41  1  0
 32 33  2  0
 32 38  1  0
 33 34  1  0
 34 36  2  0
 35 36  1  0
 35 40  2  0
 37 39  1  0
 38 39  1  0
 40 43  1  0
 42 43  2  0
  1 44  1  0
  2 45  1  0
  5 46  1  0
  6 47  1  0
 13 48  1  0
 13 49  1  0
 18 50  1  0
 19 51  1  0
 20 52  1  0
 21 53  1  0
 24 54  1  0
 25 55  1  0
 26 56  1  0
 27 57  1  0
 28 58  1  0
 29 59  1  0
 34 60  1  0
 36 61  1  0
 37 62  1  0
 37 63  1  0
 38 64  1  0
 38 65  1  0
 39 66  1  0
 39 67  1  0
 40 68  1  0
 41 69  1  0
 41 70  1  0
 41 71  1  0
 42 72  1  0
 43 73  1  0
M  END
> <Uni-Dock RESULT> 
ENERGY=   -5.626  LOWER_BOUND=    5.663  UPPER_BOUND=    8.216
INTER + INTRA:          -5.626
INTER:                  -5.626
INTRA:                   0.000
UNBOUND:                 0.000

$$$$

     RDKit          3D

 73 77  0  0  0  0  0  0  0  0999 V2000
   46.2385   14.2644   16.8285 O   0  0  0  0  0  0  0  0  0  0  0  0
   49.8993   11.7533   15.0842 O   0  0  0  0  0  0  0  0  0  0  0  0
   44.0343   15.0582   15.6577 O   0  0  0  0  0  0  0  0  0  0  0  0
   50.0156    9.2467   14.3319 O   0  0  0  0  0  0  0  0  0  0  0  0
   44.1562   15.9434   13.6060 O   0  0  0  0  0  0  0  0  0  0  0  0
   49.0453    7.6859   15.6095 O   0  0  0  0  0  0  0  0  0  0  0  0
   48.2720   14.3971   15.5961 C   0  0  0  0  0  0  0  0  0  0  0  0
   48.6572   12.2767   17.0477 C   0  0  0  0  0  0  0  0  0  0  0  0
   48.9836   14.8262   14.4262 C   0  0  0  0  0  0  0  0  0  0  0  0
   47.9226   11.8391   18.1997 C   0  0  0  0  0  0  0  0  0  0  0  0
   46.8774   14.6119   15.6633 C   0  0  0  0  0  0  0  0  0  0  0  0
   49.1326   11.3097   16.1342 C   0  0  0  0  0  0  0  0  0  0  0  0
   48.9761   13.7510   16.7913 C   0  0  0  0  0  0  0  0  0  0  0  0
   48.2562   15.4216   13.3602 C   0  0  0  0  0  0  0  0  0  0  0  0
   47.6647   10.4515   18.3635 C   0  0  0  0  0  0  0  0  0  0  0  0
   46.1747   15.1872   14.5958 C   0  0  0  0  0  0  0  0  0  0  0  0
   48.8605    9.9456   16.3071 C   0  0  0  0  0  0  0  0  0  0  0  0
   46.8692   15.5836   13.4526 C   0  0  0  0  0  0  0  0  0  0  0  0
   48.1247    9.5294   17.4170 C   0  0  0  0  0  0  0  0  0  0  0  0
   50.3847   14.7097   14.2406 C   0  0  0  0  0  0  0  0  0  0  0  0
   47.4241   12.6934   19.2156 C   0  0  0  0  0  0  0  0  0  0  0  0
   44.7086   15.3776   14.6922 C   0  0  0  0  0  0  0  0  0  0  0  0
   49.3642    8.9595   15.3228 C   0  0  0  0  0  0  0  0  0  0  0  0
   48.9150   15.8603   12.1987 C   0  0  0  0  0  0  0  0  0  0  0  0
   46.9481    9.9811   19.4773 C   0  0  0  0  0  0  0  0  0  0  0  0
   51.0286   15.1519   13.0804 C   0  0  0  0  0  0  0  0  0  0  0  0
   46.7140   12.2128   20.3203 C   0  0  0  0  0  0  0  0  0  0  0  0
   50.2929   15.7290   12.0587 C   0  0  0  0  0  0  0  0  0  0  0  0
   46.4759   10.8547   20.4515 C   0  0  0  0  0  0  0  0  0  0  0  0
   48.4040   16.4920   14.3326 S   0  0  0  0  0  0  0  0  0  0  0  0
   47.9445   11.8525   17.2469 N   0  0  0  0  0  0  0  0  0  0  0  0
   49.9374   11.6276   15.9525 N   0  0  0  0  0  0  0  0  0  0  0  0
   48.8773   12.2883   16.3047 C   0  0  0  0  0  0  0  0  0  0  0  0
   48.7333   13.5788   15.5616 C   0  0  0  0  0  0  0  0  0  0  0  0
   47.3346   15.1397   14.3024 C   0  0  0  0  0  0  0  0  0  0  0  0
   47.5438   13.9546   15.0695 C   0  0  0  0  0  0  0  0  0  0  0  0
   48.1279   10.5359   17.8601 C   0  0  0  0  0  0  0  0  0  0  0  0
   50.1913   10.3296   16.5683 C   0  0  0  0  0  0  0  0  0  0  0  0
   48.8990    9.6276   16.9267 C   0  0  0  0  0  0  0  0  0  0  0  0
   46.2582   15.4082   13.4698 C   0  0  0  0  0  0  0  0  0  0  0  0
   47.2985   12.8116   18.1435 C   0  0  0  0  0  0  0  0  0  0  0  0
   47.4515   17.3805   13.2310 C   0  0  0  0  0  0  0  0  0  0  0  0
   46.3256   16.6902   12.8505 C   0  0  0  0  0  0  0  0  0  0  0  0
   45.2710   14.3961   16.7306 H   0  0  0  0  0  0  0  0  0  0  0  0
   50.1254   11.0013   14.4963 H   0  0  0  0  0  0  0  0  0  0  0  0
   43.2000   15.9966   13.8151 H   0  0  0  0  0  0  0  0  0  0  0  0
   49.4397    7.1621   14.8808 H   0  0  0  0  0  0  0  0  0  0  0  0
   50.0645   13.8319   16.7213 H   0  0  0  0  0  0  0  0  0  0  0  0
   48.7625   14.3772   17.6624 H   0  0  0  0  0  0  0  0  0  0  0  0
   46.3270   16.0351   12.6241 H   0  0  0  0  0  0  0  0  0  0  0  0
   47.9153    8.4707   17.5565 H   0  0  0  0  0  0  0  0  0  0  0  0
   51.0139   14.2506   14.9976 H   0  0  0  0  0  0  0  0  0  0  0  0
   47.5629   13.7690   19.1601 H   0  0  0  0  0  0  0  0  0  0  0  0
   48.3535   16.3142   11.3842 H   0  0  0  0  0  0  0  0  0  0  0  0
   46.7497    8.9176   19.5967 H   0  0  0  0  0  0  0  0  0  0  0  0
   52.1045   15.0348   12.9815 H   0  0  0  0  0  0  0  0  0  0  0  0
   46.3445   12.9075   21.0696 H   0  0  0  0  0  0  0  0  0  0  0  0
   50.7865   16.0725   11.1540 H   0  0  0  0  0  0  0  0  0  0  0  0
   45.9221   10.4751   21.3053 H   0  0  0  0  0  0  0  0  0  0  0  0
   49.6603   14.1048   15.3659 H   0  0  0  0  0  0  0  0  0  0  0  0
   46.6825   13.3073   15.2217 H   0  0  0  0  0  0  0  0  0  0  0  0
   47.1512   10.0899   18.0800 H   0  0  0  0  0  0  0  0  0  0  0  0
   48.6669   10.6400   18.8108 H   0  0  0  0  0  0  0  0  0  0  0  0
   50.8300   10.4625   17.4496 H   0  0  0  0  0  0  0  0  0  0  0  0
   50.7496    9.7092   15.8584 H   0  0  0  0  0  0  0  0  0  0  0  0
   49.1040    8.6664   17.4094 H   0  0  0  0  0  0  0  0  0  0  0  0
   48.3120    9.4280   16.0214 H   0  0  0  0  0  0  0  0  0  0  0  0
   45.4543   14.7022   13.2999 H   0  0  0  0  0  0  0  0  0  0  0  0
   46.8788   13.6719   17.6158 H   0  0  0  0  0  0  0  0  0  0  0  0
   46.4681   12.3361   18.6788 H   0  0  0  0  0  0  0  0  0  0  0  0
   48.0181   13.1782   18.8844 H   0  0  0  0  0  0  0  0  0  0  0  0
   47.7606   18.3683   12.9174 H   0  0  0  0  0  0  0  0  0  0  0  0
   45.5881   17.0809   12.1602 H   0  0  0  0  0  0  0  0  0  0  0  0
  1 11  1  0
  2 12  1  0
  3 22  2  0
  4 23  2  0
  5 22  1  0
  6 23  1  0
  7  9  1  0
  7 11  2  0
  7 13  1  0
  8 10  1  0
  8 12  2  0
  8 13  1  0
  9 14  2  0
  9 20  1  0
 10 15  2  0
 10 21  1  0
 11 16  1  0
 12 17  1  0
 14 18  1  0
 14 24  1  0
 15 19  1  0
 15 25  1  0
 16 18  2  0
 16 22  1  0
 17 19  2  0
 17 23  1  0
 20 26  2  0
 21 27  2  0
 24 28  2  0
 25 29  2  0
 26 28  1  0
 27 29  1  0
 30 35  1  0
 30 42  1  0
 31 33  1  0
 31 37  1  0
 31 41  1  0
 32 33  2  0
 32 38  1  0
 33 34  1  0
 34 36  2  0
 35 36  1  0
 35 40  2  0
 37 39  1  0
 38 39  1  0
 40 43  1  0
 42 43  2  0
  1 44  1  0
  2 45  1  0
  5 46  1  0
  6 47  1  0
 13 48  1  0
 13 49  1  0
 18 50  1  0
 19 51  1  0
 20 52  1  0
 21 53  1  0
 24 54  1  0
 25 55  1  0
 26 56  1  0
 27 57  1  0
 28 58  1  0
 29 59  1  0
 34 60  1  0
 36 61  1  0
 37 62  1  0
 37 63  1  0
 38 64  1  0
 38 65  1  0
 39 66  1  0
 39 67  1  0
 40 68  1  0
 41 69  1  0
 41 70  1  0
 41 71  1  0
 42 72  1  0
 43 73  1  0
M  END
> <Uni-Dock RESULT> 
ENERGY=   -5.618  LOWER_BOUND=    4.070  UPPER_BOUND=    6.712
INTER + INTRA:          -5.618
INTER:                  -5.618
INTRA:                   0.000
UNBOUND:                 0.000

$$$$

     RDKit          3D

 73 77  0  0  0  0  0  0  0  0999 V2000
   47.2000    4.8353   15.7616 O   0  0  0  0  0  0  0  0  0  0  0  0
   47.7872    8.7230   13.0614 O   0  0  0  0  0  0  0  0  0  0  0  0
   46.8536    4.6216   18.3489 O   0  0  0  0  0  0  0  0  0  0  0  0
   46.0936   10.6304   12.4647 O   0  0  0  0  0  0  0  0  0  0  0  0
   48.1363    5.8421   19.7176 O   0  0  0  0  0  0  0  0  0  0  0  0
   43.9962   10.0820   11.9083 O   0  0  0  0  0  0  0  0  0  0  0  0
   48.7831    6.4293   14.9712 C   0  0  0  0  0  0  0  0  0  0  0  0
   46.9822    6.4819   13.0989 C   0  0  0  0  0  0  0  0  0  0  0  0
   49.8234    7.3791   15.2437 C   0  0  0  0  0  0  0  0  0  0  0  0
   45.9265    5.5427   12.8503 C   0  0  0  0  0  0  0  0  0  0  0  0
   48.1340    5.7985   16.0558 C   0  0  0  0  0  0  0  0  0  0  0  0
   46.7345    7.8571   12.8910 C   0  0  0  0  0  0  0  0  0  0  0  0
   48.3785    6.0448   13.5463 C   0  0  0  0  0  0  0  0  0  0  0  0
   50.1423    7.6789   16.5960 C   0  0  0  0  0  0  0  0  0  0  0  0
   44.6563    6.0297   12.4404 C   0  0  0  0  0  0  0  0  0  0  0  0
   48.4516    6.1180   17.3830 C   0  0  0  0  0  0  0  0  0  0  0  0
   45.4721    8.3202   12.4954 C   0  0  0  0  0  0  0  0  0  0  0  0
   49.4500    7.0576   17.6415 C   0  0  0  0  0  0  0  0  0  0  0  0
   44.4432    7.4032   12.2788 C   0  0  0  0  0  0  0  0  0  0  0  0
   50.5830    8.0562   14.2559 C   0  0  0  0  0  0  0  0  0  0  0  0
   46.0469    4.1356   12.9772 C   0  0  0  0  0  0  0  0  0  0  0  0
   47.7352    5.4524   18.4959 C   0  0  0  0  0  0  0  0  0  0  0  0
   45.2439    9.7707   12.2984 C   0  0  0  0  0  0  0  0  0  0  0  0
   51.1578    8.5996   16.9069 C   0  0  0  0  0  0  0  0  0  0  0  0
   43.5951    5.1436   12.1873 C   0  0  0  0  0  0  0  0  0  0  0  0
   51.5923    8.9691   14.5786 C   0  0  0  0  0  0  0  0  0  0  0  0
   44.9840    3.2640   12.7206 C   0  0  0  0  0  0  0  0  0  0  0  0
   51.8808    9.2402   15.9057 C   0  0  0  0  0  0  0  0  0  0  0  0
   43.7564    3.7687   12.3248 C   0  0  0  0  0  0  0  0  0  0  0  0
   50.8125    6.4140   16.3437 S   0  0  0  0  0  0  0  0  0  0  0  0
   46.1925    6.2994   13.3650 N   0  0  0  0  0  0  0  0  0  0  0  0
   47.4897    8.1103   12.5071 N   0  0  0  0  0  0  0  0  0  0  0  0
   47.3068    7.1396   13.3490 C   0  0  0  0  0  0  0  0  0  0  0  0
   48.4189    7.0265   14.3433 C   0  0  0  0  0  0  0  0  0  0  0  0
   49.1542    6.7645   16.6604 C   0  0  0  0  0  0  0  0  0  0  0  0
   48.1554    6.8270   15.6430 C   0  0  0  0  0  0  0  0  0  0  0  0
   45.1159    6.5421   12.4033 C   0  0  0  0  0  0  0  0  0  0  0  0
   46.4672    8.3651   11.4981 C   0  0  0  0  0  0  0  0  0  0  0  0
   45.0885    8.0026   12.0070 C   0  0  0  0  0  0  0  0  0  0  0  0
   48.9589    6.9276   18.0240 C   0  0  0  0  0  0  0  0  0  0  0  0
   46.3405    4.8844   13.7068 C   0  0  0  0  0  0  0  0  0  0  0  0
   51.2396    6.5178   17.9919 C   0  0  0  0  0  0  0  0  0  0  0  0
   50.1539    6.7916   18.7889 C   0  0  0  0  0  0  0  0  0  0  0  0
   46.7731    4.5212   16.5875 H   0  0  0  0  0  0  0  0  0  0  0  0
   47.4811    9.6469   12.9396 H   0  0  0  0  0  0  0  0  0  0  0  0
   47.5765    5.3279   20.3366 H   0  0  0  0  0  0  0  0  0  0  0  0
   44.0001   11.0585   11.8225 H   0  0  0  0  0  0  0  0  0  0  0  0
   49.0831    6.4249   12.8012 H   0  0  0  0  0  0  0  0  0  0  0  0
   48.5215    4.9641   13.4561 H   0  0  0  0  0  0  0  0  0  0  0  0
   49.7022    7.3040   18.6710 H   0  0  0  0  0  0  0  0  0  0  0  0
   43.4631    7.7590   11.9675 H   0  0  0  0  0  0  0  0  0  0  0  0
   50.3929    7.8995   13.1981 H   0  0  0  0  0  0  0  0  0  0  0  0
   46.9784    3.6808   13.3012 H   0  0  0  0  0  0  0  0  0  0  0  0
   51.3972    8.8273   17.9440 H   0  0  0  0  0  0  0  0  0  0  0  0
   42.6228    5.5215   11.8770 H   0  0  0  0  0  0  0  0  0  0  0  0
   52.1430    9.4684   13.7857 H   0  0  0  0  0  0  0  0  0  0  0  0
   45.1221    2.1929   12.8394 H   0  0  0  0  0  0  0  0  0  0  0  0
   52.6620    9.9499   16.1632 H   0  0  0  0  0  0  0  0  0  0  0  0
   42.9256    3.0975   12.1271 H   0  0  0  0  0  0  0  0  0  0  0  0
   49.4097    7.2265   13.9527 H   0  0  0  0  0  0  0  0  0  0  0  0
   47.1189    6.7452   15.9638 H   0  0  0  0  0  0  0  0  0  0  0  0
   44.1527    6.2657   12.8473 H   0  0  0  0  0  0  0  0  0  0  0  0
   45.2634    5.9158   11.5138 H   0  0  0  0  0  0  0  0  0  0  0  0
   46.7119    7.8128   10.5831 H   0  0  0  0  0  0  0  0  0  0  0  0
   46.4850    9.4308   11.2438 H   0  0  0  0  0  0  0  0  0  0  0  0
   44.3343    8.1759   11.2323 H   0  0  0  0  0  0  0  0  0  0  0  0
   44.8276    8.6252   12.8721 H   0  0  0  0  0  0  0  0  0  0  0  0
   47.9917    7.1505   18.4581 H   0  0  0  0  0  0  0  0  0  0  0  0
   46.9047    4.7260   14.6295 H   0  0  0  0  0  0  0  0  0  0  0  0
   45.3578    4.4218   13.8564 H   0  0  0  0  0  0  0  0  0  0  0  0
   46.8495    4.3522   12.8951 H   0  0  0  0  0  0  0  0  0  0  0  0
   52.2661    6.3695   18.2987 H   0  0  0  0  0  0  0  0  0  0  0  0
   50.2116    6.8936   19.8656 H   0  0  0  0  0  0  0  0  0  0  0  0
  1 11  1  0
  2 12  1  0
  3 22  2  0
  4 23  2  0
  5 22  1  0
  6 23  1  0
  7  9  1  0
  7 11  2  0
  7 13  1  0
  8 10  1  0
  8 12  2  0
  8 13  1  0
  9 14  2  0
  9 20  1  0
 10 15  2  0
 10 21  1  0
 11 16  1  0
 12 17  1  0
 14 18  1  0
 14 24  1  0
 15 19  1  0
 15 25  1  0
 16 18  2  0
 16 22  1  0
 17 19  2  0
 17 23  1  0
 20 26  2  0
 21 27  2  0
 24 28  2  0
 25 29  2  0
 26 28  1  0
 27 29  1  0
 30 35  1  0
 30 42  1  0
 31 33  1  0
 31 37  1  0
 31 41  1  0
 32 33  2  0
 32 38  1  0
 33 34  1  0
 34 36  2  0
 35 36  1  0
 35 40  2  0
 37 39  1  0
 38 39  1  0
 40 43  1  0
 42 43  2  0
  1 44  1  0
  2 45  1  0
  5 46  1  0
  6 47  1  0
 13 48  1  0
 13 49  1  0
 18 50  1  0
 19 51  1  0
 20 52  1  0
 21 53  1  0
 24 54  1  0
 25 55  1  0
 26 56  1  0
 27 57  1  0
 28 58  1  0
 29 59  1  0
 34 60  1  0
 36 61  1  0
 37 62  1  0
 37 63  1  0
 38 64  1  0
 38 65  1  0
 39 66  1  0
 39 67  1  0
 40 68  1  0
 41 69  1  0
 41 70  1  0
 41 71  1  0
 42 72  1  0
 43 73  1  0
M  END
> <Uni-Dock RESULT> 
ENERGY=   -5.601  LOWER_BOUND=    2.783  UPPER_BOUND=    7.008
INTER + INTRA:          -5.601
INTER:                  -5.601
INTRA:                   0.000
UNBOUND:                 0.000

$$$$

     RDKit          3D

 73 77  0  0  0  0  0  0  0  0999 V2000
   48.5567    9.7811   20.7078 O   0  0  0  0  0  0  0  0  0  0  0  0
   48.7363    7.7126   16.4137 O   0  0  0  0  0  0  0  0  0  0  0  0
   50.1582    9.5276   22.7646 O   0  0  0  0  0  0  0  0  0  0  0  0
   50.4480    8.0387   14.4576 O   0  0  0  0  0  0  0  0  0  0  0  0
   50.8414    7.4812   23.3593 O   0  0  0  0  0  0  0  0  0  0  0  0
   51.0957   10.1124   13.9192 O   0  0  0  0  0  0  0  0  0  0  0  0
   48.0025    7.8226   19.4714 C   0  0  0  0  0  0  0  0  0  0  0  0
   48.0299    9.6426   17.6171 C   0  0  0  0  0  0  0  0  0  0  0  0
   48.0469    6.3954   19.3299 C   0  0  0  0  0  0  0  0  0  0  0  0
   48.0145   11.0693   17.7675 C   0  0  0  0  0  0  0  0  0  0  0  0
   48.6853    8.4224   20.5529 C   0  0  0  0  0  0  0  0  0  0  0  0
   48.8044    9.0743   16.5813 C   0  0  0  0  0  0  0  0  0  0  0  0
   47.2085    8.7155   18.5154 C   0  0  0  0  0  0  0  0  0  0  0  0
   48.8045    5.6363   20.2626 C   0  0  0  0  0  0  0  0  0  0  0  0
   48.8085   11.8605   16.8945 C   0  0  0  0  0  0  0  0  0  0  0  0
   49.4398    7.6589   21.4541 C   0  0  0  0  0  0  0  0  0  0  0  0
   49.5890    9.8701   15.7353 C   0  0  0  0  0  0  0  0  0  0  0  0
   49.4958    6.2735   21.2992 C   0  0  0  0  0  0  0  0  0  0  0  0
   49.5882   11.2552   15.9028 C   0  0  0  0  0  0  0  0  0  0  0  0
   47.3787    5.6591   18.3186 C   0  0  0  0  0  0  0  0  0  0  0  0
   47.2525   11.7742   18.7333 C   0  0  0  0  0  0  0  0  0  0  0  0
   50.1609    8.3240   22.5643 C   0  0  0  0  0  0  0  0  0  0  0  0
   50.3990    9.2398   14.6670 C   0  0  0  0  0  0  0  0  0  0  0  0
   48.8704    4.2358   20.1630 C   0  0  0  0  0  0  0  0  0  0  0  0
   48.8227   13.2613   17.0086 C   0  0  0  0  0  0  0  0  0  0  0  0
   47.4510    4.2651   18.2315 C   0  0  0  0  0  0  0  0  0  0  0  0
   47.2735   13.1687   18.8355 C   0  0  0  0  0  0  0  0  0  0  0  0
   48.1968    3.5525   19.1556 C   0  0  0  0  0  0  0  0  0  0  0  0
   48.0595   13.9133   17.9718 C   0  0  0  0  0  0  0  0  0  0  0  0
   47.5658    5.9297   20.9644 S   0  0  0  0  0  0  0  0  0  0  0  0
   48.5639   10.2904   17.7678 N   0  0  0  0  0  0  0  0  0  0  0  0
   48.2611    8.4405   16.2899 N   0  0  0  0  0  0  0  0  0  0  0  0
   48.3358    8.9431   17.4842 C   0  0  0  0  0  0  0  0  0  0  0  0
   48.1810    7.9071   18.5524 C   0  0  0  0  0  0  0  0  0  0  0  0
   48.9441    6.9183   20.6543 C   0  0  0  0  0  0  0  0  0  0  0  0
   48.9895    7.9028   19.6222 C   0  0  0  0  0  0  0  0  0  0  0  0
   48.7867   11.2147   16.6546 C   0  0  0  0  0  0  0  0  0  0  0  0
   48.4301    9.3279   15.1442 C   0  0  0  0  0  0  0  0  0  0  0  0
   49.3644   10.4739   15.4679 C   0  0  0  0  0  0  0  0  0  0  0  0
   49.9454    6.6320   21.5706 C   0  0  0  0  0  0  0  0  0  0  0  0
   47.9061   10.9253   18.9103 C   0  0  0  0  0  0  0  0  0  0  0  0
   48.3241    5.1291   22.2658 C   0  0  0  0  0  0  0  0  0  0  0  0
   49.5941    5.6031   22.4923 C   0  0  0  0  0  0  0  0  0  0  0  0
   49.1261   10.0882   21.4457 H   0  0  0  0  0  0  0  0  0  0  0  0
   49.3516    7.4336   15.7025 H   0  0  0  0  0  0  0  0  0  0  0  0
   51.2621    8.0600   24.0294 H   0  0  0  0  0  0  0  0  0  0  0  0
   51.5729    9.5553   13.2689 H   0  0  0  0  0  0  0  0  0  0  0  0
   46.5540    8.1361   17.8582 H   0  0  0  0  0  0  0  0  0  0  0  0
   46.4832    9.2651   19.1226 H   0  0  0  0  0  0  0  0  0  0  0  0
   50.0767    5.6776   22.0003 H   0  0  0  0  0  0  0  0  0  0  0  0
   50.1930   11.8762   15.2450 H   0  0  0  0  0  0  0  0  0  0  0  0
   46.7923    6.1615   17.5547 H   0  0  0  0  0  0  0  0  0  0  0  0
   46.6310   11.2457   19.4500 H   0  0  0  0  0  0  0  0  0  0  0  0
   49.4534    3.6588   20.8786 H   0  0  0  0  0  0  0  0  0  0  0  0
   49.4353   13.8632   16.3399 H   0  0  0  0  0  0  0  0  0  0  0  0
   46.9265    3.7456   17.4340 H   0  0  0  0  0  0  0  0  0  0  0  0
   46.6783   13.6642   19.5976 H   0  0  0  0  0  0  0  0  0  0  0  0
   48.2590    2.4698   19.0924 H   0  0  0  0  0  0  0  0  0  0  0  0
   48.0832   14.9966   18.0479 H   0  0  0  0  0  0  0  0  0  0  0  0
   47.4621    7.1253   18.3367 H   0  0  0  0  0  0  0  0  0  0  0  0
   49.7595    8.6674   19.7036 H   0  0  0  0  0  0  0  0  0  0  0  0
   49.4784   12.0069   16.9631 H   0  0  0  0  0  0  0  0  0  0  0  0
   47.8394   11.6924   16.3724 H   0  0  0  0  0  0  0  0  0  0  0  0
   47.4492    9.6936   14.8182 H   0  0  0  0  0  0  0  0  0  0  0  0
   48.8490    8.7496   14.3131 H   0  0  0  0  0  0  0  0  0  0  0  0
   49.4634   11.1446   14.6081 H   0  0  0  0  0  0  0  0  0  0  0  0
   50.3641   10.0916   15.7099 H   0  0  0  0  0  0  0  0  0  0  0  0
   50.9046    7.1356   21.5716 H   0  0  0  0  0  0  0  0  0  0  0  0
   48.0165   10.3549   19.8361 H   0  0  0  0  0  0  0  0  0  0  0  0
   48.3371   11.9158   19.0985 H   0  0  0  0  0  0  0  0  0  0  0  0
   46.8364   11.0504   18.7071 H   0  0  0  0  0  0  0  0  0  0  0  0
   47.8013    4.3512   22.8055 H   0  0  0  0  0  0  0  0  0  0  0  0
   50.2420    5.2300   23.2759 H   0  0  0  0  0  0  0  0  0  0  0  0
  1 11  1  0
  2 12  1  0
  3 22  2  0
  4 23  2  0
  5 22  1  0
  6 23  1  0
  7  9  1  0
  7 11  2  0
  7 13  1  0
  8 10  1  0
  8 12  2  0
  8 13  1  0
  9 14  2  0
  9 20  1  0
 10 15  2  0
 10 21  1  0
 11 16  1  0
 12 17  1  0
 14 18  1  0
 14 24  1  0
 15 19  1  0
 15 25  1  0
 16 18  2  0
 16 22  1  0
 17 19  2  0
 17 23  1  0
 20 26  2  0
 21 27  2  0
 24 28  2  0
 25 29  2  0
 26 28  1  0
 27 29  1  0
 30 35  1  0
 30 42  1  0
 31 33  1  0
 31 37  1  0
 31 41  1  0
 32 33  2  0
 32 38  1  0
 33 34  1  0
 34 36  2  0
 35 36  1  0
 35 40  2  0
 37 39  1  0
 38 39  1  0
 40 43  1  0
 42 43  2  0
  1 44  1  0
  2 45  1  0
  5 46  1  0
  6 47  1  0
 13 48  1  0
 13 49  1  0
 18 50  1  0
 19 51  1  0
 20 52  1  0
 21 53  1  0
 24 54  1  0
 25 55  1  0
 26 56  1  0
 27 57  1  0
 28 58  1  0
 29 59  1  0
 34 60  1  0
 36 61  1  0
 37 62  1  0
 37 63  1  0
 38 64  1  0
 38 65  1  0
 39 66  1  0
 39 67  1  0
 40 68  1  0
 41 69  1  0
 41 70  1  0
 41 71  1  0
 42 72  1  0
 43 73  1  0
M  END
> <Uni-Dock RESULT> 
ENERGY=   -5.353  LOWER_BOUND=    3.695  UPPER_BOUND=    6.947
INTER + INTRA:          -5.353
INTER:                  -5.353
INTRA:                   0.000
UNBOUND:                 0.000

$$$$
