
     RDKit          3D

 73 77  0  0  0  0  0  0  0  0999 V2000
   52.0674    9.0972   14.0622 O   0  0  0  0  0  0  0  0  0  0  0  0
   49.6954    5.3200   17.3629 O   0  0  0  0  0  0  0  0  0  0  0  0
   50.8530   10.4981   10.3245 O   0  0  0  0  0  0  0  0  0  0  0  0
   47.0754    5.8508   20.5658 O   0  0  0  0  0  0  0  0  0  0  0  0
   52.3310   10.5290   11.9936 O   0  0  0  0  0  0  0  0  0  0  0  0
   48.2756    4.4790   19.2796 O   0  0  0  0  0  0  0  0  0  0  0  0
   50.0980    7.7759   14.2935 C   0  0  0  0  0  0  0  0  0  0  0  0
   49.7002    7.6535   16.8822 C   0  0  0  0  0  0  0  0  0  0  0  0
   48.8918    7.2516   13.7255 C   0  0  0  0  0  0  0  0  0  0  0  0
   49.3301    8.9880   17.2467 C   0  0  0  0  0  0  0  0  0  0  0  0
   50.8726    8.6790   13.5267 C   0  0  0  0  0  0  0  0  0  0  0  0
   49.2506    6.5794   17.6873 C   0  0  0  0  0  0  0  0  0  0  0  0
   50.6041    7.3540   15.6790 C   0  0  0  0  0  0  0  0  0  0  0  0
   48.4626    7.7241   12.4567 C   0  0  0  0  0  0  0  0  0  0  0  0
   48.4463    9.1854   18.3406 C   0  0  0  0  0  0  0  0  0  0  0  0
   50.4394    9.1323   12.2725 C   0  0  0  0  0  0  0  0  0  0  0  0
   48.3820    6.7887   18.7674 C   0  0  0  0  0  0  0  0  0  0  0  0
   49.2301    8.6608   11.7583 C   0  0  0  0  0  0  0  0  0  0  0  0
   47.9764    8.0901   19.0728 C   0  0  0  0  0  0  0  0  0  0  0  0
   48.0848    6.2606   14.3313 C   0  0  0  0  0  0  0  0  0  0  0  0
   49.8030   10.1553   16.6028 C   0  0  0  0  0  0  0  0  0  0  0  0
   51.1855   10.0979   11.4252 C   0  0  0  0  0  0  0  0  0  0  0  0
   47.8410    5.7077   19.6300 C   0  0  0  0  0  0  0  0  0  0  0  0
   47.2724    7.2493   11.8798 C   0  0  0  0  0  0  0  0  0  0  0  0
   48.0423   10.4797   18.7108 C   0  0  0  0  0  0  0  0  0  0  0  0
   46.9029    5.7927   13.7477 C   0  0  0  0  0  0  0  0  0  0  0  0
   49.3983   11.4393   16.9816 C   0  0  0  0  0  0  0  0  0  0  0  0
   46.4925    6.2929   12.5229 C   0  0  0  0  0  0  0  0  0  0  0  0
   48.5100   11.6015   18.0321 C   0  0  0  0  0  0  0  0  0  0  0  0
   49.6492    8.3640   19.1970 S   0  0  0  0  0  0  0  0  0  0  0  0
   50.3626    7.9640   13.7911 N   0  0  0  0  0  0  0  0  0  0  0  0
   48.0016    8.0101   14.0455 N   0  0  0  0  0  0  0  0  0  0  0  0
   49.1970    8.0216   14.5531 C   0  0  0  0  0  0  0  0  0  0  0  0
   49.2733    8.0573   16.0569 C   0  0  0  0  0  0  0  0  0  0  0  0
   48.2250    8.4927   18.2306 C   0  0  0  0  0  0  0  0  0  0  0  0
   48.2256    8.4447   16.8019 C   0  0  0  0  0  0  0  0  0  0  0  0
   50.2800    7.8931   12.3379 C   0  0  0  0  0  0  0  0  0  0  0  0
   47.8486    7.9753   12.5952 C   0  0  0  0  0  0  0  0  0  0  0  0
   48.9831    7.2264   11.9312 C   0  0  0  0  0  0  0  0  0  0  0  0
   47.1168    8.6669   19.0476 C   0  0  0  0  0  0  0  0  0  0  0  0
   51.6568    8.3718   14.3215 C   0  0  0  0  0  0  0  0  0  0  0  0
   48.7785    8.5233   20.6552 C   0  0  0  0  0  0  0  0  0  0  0  0
   47.4307    8.6790   20.4365 C   0  0  0  0  0  0  0  0  0  0  0  0
   52.4782    9.7318   13.4368 H   0  0  0  0  0  0  0  0  0  0  0  0
   49.3146    4.6845   18.0050 H   0  0  0  0  0  0  0  0  0  0  0  0
   52.6936   11.1383   11.3091 H   0  0  0  0  0  0  0  0  0  0  0  0
   47.8219    3.8970   19.9306 H   0  0  0  0  0  0  0  0  0  0  0  0
   50.8351    6.2845   15.6011 H   0  0  0  0  0  0  0  0  0  0  0  0
   51.5748    7.8074   15.9137 H   0  0  0  0  0  0  0  0  0  0  0  0
   48.8928    9.0149   10.7846 H   0  0  0  0  0  0  0  0  0  0  0  0
   47.2977    8.2523   19.9100 H   0  0  0  0  0  0  0  0  0  0  0  0
   48.3727    5.8117   15.2749 H   0  0  0  0  0  0  0  0  0  0  0  0
   50.5243   10.0890   15.7966 H   0  0  0  0  0  0  0  0  0  0  0  0
   46.9413    7.6199   10.9110 H   0  0  0  0  0  0  0  0  0  0  0  0
   47.3589   10.6265   19.5456 H   0  0  0  0  0  0  0  0  0  0  0  0
   46.3121    5.0340   14.2556 H   0  0  0  0  0  0  0  0  0  0  0  0
   49.7872   12.3066   16.4541 H   0  0  0  0  0  0  0  0  0  0  0  0
   45.5765    5.9338   12.0627 H   0  0  0  0  0  0  0  0  0  0  0  0
   48.1913   12.5957   18.3332 H   0  0  0  0  0  0  0  0  0  0  0  0
   50.2092    7.7384   16.4938 H   0  0  0  0  0  0  0  0  0  0  0  0
   47.3004    8.7282   16.3025 H   0  0  0  0  0  0  0  0  0  0  0  0
   51.1197    7.3143   11.9378 H   0  0  0  0  0  0  0  0  0  0  0  0
   50.3397    8.9033   11.9152 H   0  0  0  0  0  0  0  0  0  0  0  0
   47.7768    9.0004   12.2137 H   0  0  0  0  0  0  0  0  0  0  0  0
   46.9022    7.4772   12.3565 H   0  0  0  0  0  0  0  0  0  0  0  0
   48.9788    6.1778   12.2537 H   0  0  0  0  0  0  0  0  0  0  0  0
   48.8697    7.2388   10.8421 H   0  0  0  0  0  0  0  0  0  0  0  0
   46.1111    8.7765   18.6573 H   0  0  0  0  0  0  0  0  0  0  0  0
   51.9937    7.6780   15.0982 H   0  0  0  0  0  0  0  0  0  0  0  0
   51.6009    9.3819   14.7417 H   0  0  0  0  0  0  0  0  0  0  0  0
   52.4286    8.3795   13.5430 H   0  0  0  0  0  0  0  0  0  0  0  0
   49.2964    8.4960   21.6038 H   0  0  0  0  0  0  0  0  0  0  0  0
   46.7047    8.7977   21.2312 H   0  0  0  0  0  0  0  0  0  0  0  0
  1 11  1  0
  2 12  1  0
  3 22  2  0
  4 23  2  0
  5 22  1  0
  6 23  1  0
  7  9  1  0
  7 11  2  0
  7 13  1  0
  8 10  1  0
  8 12  2  0
  8 13  1  0
  9 14  2  0
  9 20  1  0
 10 15  2  0
 10 21  1  0
 11 16  1  0
 12 17  1  0
 14 18  1  0
 14 24  1  0
 15 19  1  0
 15 25  1  0
 16 18  2  0
 16 22  1  0
 17 19  2  0
 17 23  1  0
 20 26  2  0
 21 27  2  0
 24 28  2  0
 25 29  2  0
 26 28  1  0
 27 29  1  0
 30 35  1  0
 30 42  1  0
 31 33  1  0
 31 37  1  0
 31 41  1  0
 32 33  2  0
 32 38  1  0
 33 34  1  0
 34 36  2  0
 35 36  1  0
 35 40  2  0
 37 39  1  0
 38 39  1  0
 40 43  1  0
 42 43  2  0
  1 44  1  0
  2 45  1  0
  5 46  1  0
  6 47  1  0
 13 48  1  0
 13 49  1  0
 18 50  1  0
 19 51  1  0
 20 52  1  0
 21 53  1  0
 24 54  1  0
 25 55  1  0
 26 56  1  0
 27 57  1  0
 28 58  1  0
 29 59  1  0
 34 60  1  0
 36 61  1  0
 37 62  1  0
 37 63  1  0
 38 64  1  0
 38 65  1  0
 39 66  1  0
 39 67  1  0
 40 68  1  0
 41 69  1  0
 41 70  1  0
 41 71  1  0
 42 72  1  0
 43 73  1  0
M  END
> <Uni-Dock RESULT> 
ENERGY=   -5.378  LOWER_BOUND=    0.000  UPPER_BOUND=    0.000
INTER + INTRA:          -5.378
INTER:                  -5.378
INTRA:                   0.000
UNBOUND:                 0.000

$$$$

     RDKit          3D

 73 77  0  0  0  0  0  0  0  0999 V2000
   50.0972   11.6134   14.3295 O   0  0  0  0  0  0  0  0  0  0  0  0
   50.7156    6.4803   16.3438 O   0  0  0  0  0  0  0  0  0  0  0  0
   47.3672   13.0567   11.5237 O   0  0  0  0  0  0  0  0  0  0  0  0
   49.1806    4.7850   19.8330 O   0  0  0  0  0  0  0  0  0  0  0  0
   49.0882   13.4328   12.8906 O   0  0  0  0  0  0  0  0  0  0  0  0
   50.4376    4.5895   18.0004 O   0  0  0  0  0  0  0  0  0  0  0  0
   49.0808    9.4582   14.3253 C   0  0  0  0  0  0  0  0  0  0  0  0
   49.5438    8.5188   16.7289 C   0  0  0  0  0  0  0  0  0  0  0  0
   48.1270    8.5464   13.7672 C   0  0  0  0  0  0  0  0  0  0  0  0
   48.7420    9.3362   17.5888 C   0  0  0  0  0  0  0  0  0  0  0  0
   49.1153   10.7867   13.8378 C   0  0  0  0  0  0  0  0  0  0  0  0
   49.8720    7.2074   17.1494 C   0  0  0  0  0  0  0  0  0  0  0  0
   50.0969    9.0320   15.3929 C   0  0  0  0  0  0  0  0  0  0  0  0
   47.1873    9.0251   12.8160 C   0  0  0  0  0  0  0  0  0  0  0  0
   48.2198    8.7760   18.7848 C   0  0  0  0  0  0  0  0  0  0  0  0
   48.1849   11.2440   12.8937 C   0  0  0  0  0  0  0  0  0  0  0  0
   49.3535    6.6683   18.3349 C   0  0  0  0  0  0  0  0  0  0  0  0
   47.2206   10.3607   12.4047 C   0  0  0  0  0  0  0  0  0  0  0  0
   48.5192    7.4547   19.1329 C   0  0  0  0  0  0  0  0  0  0  0  0
   48.0577    7.1685   14.0785 C   0  0  0  0  0  0  0  0  0  0  0  0
   48.4386   10.6966   17.3478 C   0  0  0  0  0  0  0  0  0  0  0  0
   48.1443   12.6289   12.3576 C   0  0  0  0  0  0  0  0  0  0  0  0
   49.6238    5.2903   18.8178 C   0  0  0  0  0  0  0  0  0  0  0  0
   46.2226    8.1643   12.2653 C   0  0  0  0  0  0  0  0  0  0  0  0
   47.4086    9.5416   19.6399 C   0  0  0  0  0  0  0  0  0  0  0  0
   47.0950    6.3193   13.5230 C   0  0  0  0  0  0  0  0  0  0  0  0
   47.6339   11.4512   18.2074 C   0  0  0  0  0  0  0  0  0  0  0  0
   46.1715    6.8196   12.6199 C   0  0  0  0  0  0  0  0  0  0  0  0
   47.1110   10.8705   19.3512 C   0  0  0  0  0  0  0  0  0  0  0  0
   49.8520    8.5093   19.1311 S   0  0  0  0  0  0  0  0  0  0  0  0
   49.0767    9.8719   13.8933 N   0  0  0  0  0  0  0  0  0  0  0  0
   47.1271    8.6339   14.4475 N   0  0  0  0  0  0  0  0  0  0  0  0
   48.2822    9.1335   14.7684 C   0  0  0  0  0  0  0  0  0  0  0  0
   48.7645    8.8335   16.1633 C   0  0  0  0  0  0  0  0  0  0  0  0
   48.3084    8.1198   18.4647 C   0  0  0  0  0  0  0  0  0  0  0  0
   47.9184    8.4308   17.1251 C   0  0  0  0  0  0  0  0  0  0  0  0
   48.6194   10.1273   12.5335 C   0  0  0  0  0  0  0  0  0  0  0  0
   46.5948    8.8820   13.1121 C   0  0  0  0  0  0  0  0  0  0  0  0
   47.6985    9.0123   12.0856 C   0  0  0  0  0  0  0  0  0  0  0  0
   47.5265    7.4932   19.4249 C   0  0  0  0  0  0  0  0  0  0  0  0
   50.1461   10.7425   14.3638 C   0  0  0  0  0  0  0  0  0  0  0  0
   49.4630    7.8354   20.6491 C   0  0  0  0  0  0  0  0  0  0  0  0
   48.1876    7.3241   20.6747 C   0  0  0  0  0  0  0  0  0  0  0  0
   49.9833   12.4995   13.9239 H   0  0  0  0  0  0  0  0  0  0  0  0
   50.8601    5.6048   16.7606 H   0  0  0  0  0  0  0  0  0  0  0  0
   48.9276   14.2878   12.4274 H   0  0  0  0  0  0  0  0  0  0  0  0
   50.4991    3.7183   18.4538 H   0  0  0  0  0  0  0  0  0  0  0  0
   50.7457    8.2907   14.9104 H   0  0  0  0  0  0  0  0  0  0  0  0
   50.7863    9.8463   15.6473 H   0  0  0  0  0  0  0  0  0  0  0  0
   46.4965   10.7170   11.6725 H   0  0  0  0  0  0  0  0  0  0  0  0
   48.1127    7.0340   20.0524 H   0  0  0  0  0  0  0  0  0  0  0  0
   48.7733    6.7162   14.7553 H   0  0  0  0  0  0  0  0  0  0  0  0
   48.8474   11.2104   16.4856 H   0  0  0  0  0  0  0  0  0  0  0  0
   45.4978    8.5362   11.5428 H   0  0  0  0  0  0  0  0  0  0  0  0
   47.0044    9.1064   20.5524 H   0  0  0  0  0  0  0  0  0  0  0  0
   47.0775    5.2675   13.7987 H   0  0  0  0  0  0  0  0  0  0  0  0
   47.4262   12.4933   17.9780 H   0  0  0  0  0  0  0  0  0  0  0  0
   45.4216    6.1664   12.1833 H   0  0  0  0  0  0  0  0  0  0  0  0
   46.4857   11.4501   20.0247 H   0  0  0  0  0  0  0  0  0  0  0  0
   49.8259    8.9454   16.3345 H   0  0  0  0  0  0  0  0  0  0  0  0
   46.8638    8.3106   16.8821 H   0  0  0  0  0  0  0  0  0  0  0  0
   49.4735   10.1813   11.8495 H   0  0  0  0  0  0  0  0  0  0  0  0
   48.0992   11.0920   12.4941 H   0  0  0  0  0  0  0  0  0  0  0  0
   45.9683    9.7813   13.1332 H   0  0  0  0  0  0  0  0  0  0  0  0
   45.9447    8.0446   12.8350 H   0  0  0  0  0  0  0  0  0  0  0  0
   48.2539    8.0691   12.0115 H   0  0  0  0  0  0  0  0  0  0  0  0
   47.2829    9.2311   11.0965 H   0  0  0  0  0  0  0  0  0  0  0  0
   46.5123    7.1619   19.2314 H   0  0  0  0  0  0  0  0  0  0  0  0
   50.9640   10.1550   14.7927 H   0  0  0  0  0  0  0  0  0  0  0  0
   49.7709   11.4411   15.1195 H   0  0  0  0  0  0  0  0  0  0  0  0
   50.5729   11.3363   13.5471 H   0  0  0  0  0  0  0  0  0  0  0  0
   50.1879    7.8467   21.4512 H   0  0  0  0  0  0  0  0  0  0  0  0
   47.7482    6.8537   21.5454 H   0  0  0  0  0  0  0  0  0  0  0  0
  1 11  1  0
  2 12  1  0
  3 22  2  0
  4 23  2  0
  5 22  1  0
  6 23  1  0
  7  9  1  0
  7 11  2  0
  7 13  1  0
  8 10  1  0
  8 12  2  0
  8 13  1  0
  9 14  2  0
  9 20  1  0
 10 15  2  0
 10 21  1  0
 11 16  1  0
 12 17  1  0
 14 18  1  0
 14 24  1  0
 15 19  1  0
 15 25  1  0
 16 18  2  0
 16 22  1  0
 17 19  2  0
 17 23  1  0
 20 26  2  0
 21 27  2  0
 24 28  2  0
 25 29  2  0
 26 28  1  0
 27 29  1  0
 30 35  1  0
 30 42  1  0
 31 33  1  0
 31 37  1  0
 31 41  1  0
 32 33  2  0
 32 38  1  0
 33 34  1  0
 34 36  2  0
 35 36  1  0
 35 40  2  0
 37 39  1  0
 38 39  1  0
 40 43  1  0
 42 43  2  0
  1 44  1  0
  2 45  1  0
  5 46  1  0
  6 47  1  0
 13 48  1  0
 13 49  1  0
 18 50  1  0
 19 51  1  0
 20 52  1  0
 21 53  1  0
 24 54  1  0
 25 55  1  0
 26 56  1  0
 27 57  1  0
 28 58  1  0
 29 59  1  0
 34 60  1  0
 36 61  1  0
 37 62  1  0
 37 63  1  0
 38 64  1  0
 38 65  1  0
 39 66  1  0
 39 67  1  0
 40 68  1  0
 41 69  1  0
 41 70  1  0
 41 71  1  0
 42 72  1  0
 43 73  1  0
M  END
> <Uni-Dock RESULT> 
ENERGY=   -5.190  LOWER_BOUND=    1.810  UPPER_BOUND=    2.073
INTER + INTRA:          -5.190
INTER:                  -5.190
INTRA:                   0.000
UNBOUND:                 0.000

$$$$

     RDKit          3D

 73 77  0  0  0  0  0  0  0  0999 V2000
   50.2120    5.6114   19.0123 O   0  0  0  0  0  0  0  0  0  0  0  0
   51.2213   10.0238   15.8029 O   0  0  0  0  0  0  0  0  0  0  0  0
   47.5061    5.1761   22.1582 O   0  0  0  0  0  0  0  0  0  0  0  0
   49.6772   10.9986   12.0519 O   0  0  0  0  0  0  0  0  0  0  0  0
   49.1076    4.3042   20.8751 O   0  0  0  0  0  0  0  0  0  0  0  0
   51.0422   11.4867   13.7475 O   0  0  0  0  0  0  0  0  0  0  0  0
   49.4125    7.8025   18.5248 C   0  0  0  0  0  0  0  0  0  0  0  0
   49.8375    8.0902   15.9536 C   0  0  0  0  0  0  0  0  0  0  0  0
   48.5831    8.9176   18.8728 C   0  0  0  0  0  0  0  0  0  0  0  0
   48.9154    7.1833   15.3390 C   0  0  0  0  0  0  0  0  0  0  0  0
   49.3428    6.6317   19.3172 C   0  0  0  0  0  0  0  0  0  0  0  0
   50.2695    9.2215   15.2203 C   0  0  0  0  0  0  0  0  0  0  0  0
   50.4076    7.8519   17.3581 C   0  0  0  0  0  0  0  0  0  0  0  0
   47.6527    8.7819   19.9372 C   0  0  0  0  0  0  0  0  0  0  0  0
   48.3881    7.4968   14.0582 C   0  0  0  0  0  0  0  0  0  0  0  0
   48.4234    6.5138   20.3693 C   0  0  0  0  0  0  0  0  0  0  0  0
   49.7443    9.5167   13.9547 C   0  0  0  0  0  0  0  0  0  0  0  0
   47.5771    7.5861   20.6574 C   0  0  0  0  0  0  0  0  0  0  0  0
   48.7962    8.6578   13.3935 C   0  0  0  0  0  0  0  0  0  0  0  0
   48.6323   10.1818   18.2403 C   0  0  0  0  0  0  0  0  0  0  0  0
   48.4938    5.9594   15.9093 C   0  0  0  0  0  0  0  0  0  0  0  0
   48.2762    5.3081   21.2245 C   0  0  0  0  0  0  0  0  0  0  0  0
   50.1219   10.7038   13.1463 C   0  0  0  0  0  0  0  0  0  0  0  0
   46.8070    9.8472   20.2906 C   0  0  0  0  0  0  0  0  0  0  0  0
   47.4620    6.6420   13.4359 C   0  0  0  0  0  0  0  0  0  0  0  0
   47.7877   11.2368   18.6012 C   0  0  0  0  0  0  0  0  0  0  0  0
   47.5750    5.1136   15.2799 C   0  0  0  0  0  0  0  0  0  0  0  0
   46.8688   11.0670   19.6236 C   0  0  0  0  0  0  0  0  0  0  0  0
   47.0518    5.4593   14.0448 C   0  0  0  0  0  0  0  0  0  0  0  0
   50.0179    7.4968   13.6124 S   0  0  0  0  0  0  0  0  0  0  0  0
   49.3909    7.5059   19.0438 N   0  0  0  0  0  0  0  0  0  0  0  0
   47.5449    8.7794   18.2617 N   0  0  0  0  0  0  0  0  0  0  0  0
   48.6271    8.0969   18.0389 C   0  0  0  0  0  0  0  0  0  0  0  0
   49.0621    8.0041   16.5999 C   0  0  0  0  0  0  0  0  0  0  0  0
   48.5570    8.1967   14.2080 C   0  0  0  0  0  0  0  0  0  0  0  0
   48.2098    8.2558   15.5933 C   0  0  0  0  0  0  0  0  0  0  0  0
   48.9833    7.6307   20.4372 C   0  0  0  0  0  0  0  0  0  0  0  0
   47.0622    8.9135   19.6318 C   0  0  0  0  0  0  0  0  0  0  0  0
   48.2005    8.9124   20.6283 C   0  0  0  0  0  0  0  0  0  0  0  0
   47.7904    8.6582   13.1471 C   0  0  0  0  0  0  0  0  0  0  0  0
   50.3438    6.4389   18.7676 C   0  0  0  0  0  0  0  0  0  0  0  0
   49.6170    7.8295   11.9881 C   0  0  0  0  0  0  0  0  0  0  0  0
   48.3980    8.4541   11.8755 C   0  0  0  0  0  0  0  0  0  0  0  0
   50.0338    4.8642   19.6226 H   0  0  0  0  0  0  0  0  0  0  0  0
   51.4284   10.7548   15.1833 H   0  0  0  0  0  0  0  0  0  0  0  0
   48.8890    3.6057   21.5351 H   0  0  0  0  0  0  0  0  0  0  0  0
   51.1644   12.2138   13.0958 H   0  0  0  0  0  0  0  0  0  0  0  0
   51.1502    8.6122   17.6293 H   0  0  0  0  0  0  0  0  0  0  0  0
   50.9998    6.9313   17.2885 H   0  0  0  0  0  0  0  0  0  0  0  0
   46.8614    7.4935   21.4737 H   0  0  0  0  0  0  0  0  0  0  0  0
   48.3847    8.8898   12.4113 H   0  0  0  0  0  0  0  0  0  0  0  0
   49.3519   10.3812   17.4547 H   0  0  0  0  0  0  0  0  0  0  0  0
   48.8955    5.6237   16.8584 H   0  0  0  0  0  0  0  0  0  0  0  0
   46.0886    9.7372   21.1014 H   0  0  0  0  0  0  0  0  0  0  0  0
   47.0546    6.8893   12.4570 H   0  0  0  0  0  0  0  0  0  0  0  0
   47.8584   12.1889   18.0805 H   0  0  0  0  0  0  0  0  0  0  0  0
   47.2790    4.1840   15.7596 H   0  0  0  0  0  0  0  0  0  0  0  0
   46.2103   11.8817   19.9105 H   0  0  0  0  0  0  0  0  0  0  0  0
   46.3382    4.8072   13.5487 H   0  0  0  0  0  0  0  0  0  0  0  0
   50.0970    7.7414   16.4313 H   0  0  0  0  0  0  0  0  0  0  0  0
   47.1862    8.5428   15.8294 H   0  0  0  0  0  0  0  0  0  0  0  0
   49.8629    7.6490   21.0899 H   0  0  0  0  0  0  0  0  0  0  0  0
   48.3741    6.7645   20.7226 H   0  0  0  0  0  0  0  0  0  0  0  0
   46.3507    8.1075   19.8458 H   0  0  0  0  0  0  0  0  0  0  0  0
   46.5124    9.8576   19.7168 H   0  0  0  0  0  0  0  0  0  0  0  0
   48.8484    9.7810   20.4573 H   0  0  0  0  0  0  0  0  0  0  0  0
   47.8183    8.9803   21.6522 H   0  0  0  0  0  0  0  0  0  0  0  0
   46.8251    9.1328   13.2832 H   0  0  0  0  0  0  0  0  0  0  0  0
   51.1914    6.8166   18.1871 H   0  0  0  0  0  0  0  0  0  0  0  0
   49.8628    5.6256   18.2134 H   0  0  0  0  0  0  0  0  0  0  0  0
   50.7531    6.0133   19.6912 H   0  0  0  0  0  0  0  0  0  0  0  0
   50.2939    7.5506   11.1926 H   0  0  0  0  0  0  0  0  0  0  0  0
   47.9613    8.7492   10.9296 H   0  0  0  0  0  0  0  0  0  0  0  0
  1 11  1  0
  2 12  1  0
  3 22  2  0
  4 23  2  0
  5 22  1  0
  6 23  1  0
  7  9  1  0
  7 11  2  0
  7 13  1  0
  8 10  1  0
  8 12  2  0
  8 13  1  0
  9 14  2  0
  9 20  1  0
 10 15  2  0
 10 21  1  0
 11 16  1  0
 12 17  1  0
 14 18  1  0
 14 24  1  0
 15 19  1  0
 15 25  1  0
 16 18  2  0
 16 22  1  0
 17 19  2  0
 17 23  1  0
 20 26  2  0
 21 27  2  0
 24 28  2  0
 25 29  2  0
 26 28  1  0
 27 29  1  0
 30 35  1  0
 30 42  1  0
 31 33  1  0
 31 37  1  0
 31 41  1  0
 32 33  2  0
 32 38  1  0
 33 34  1  0
 34 36  2  0
 35 36  1  0
 35 40  2  0
 37 39  1  0
 38 39  1  0
 40 43  1  0
 42 43  2  0
  1 44  1  0
  2 45  1  0
  5 46  1  0
  6 47  1  0
 13 48  1  0
 13 49  1  0
 18 50  1  0
 19 51  1  0
 20 52  1  0
 21 53  1  0
 24 54  1  0
 25 55  1  0
 26 56  1  0
 27 57  1  0
 28 58  1  0
 29 59  1  0
 34 60  1  0
 36 61  1  0
 37 62  1  0
 37 63  1  0
 38 64  1  0
 38 65  1  0
 39 66  1  0
 39 67  1  0
 40 68  1  0
 41 69  1  0
 41 70  1  0
 41 71  1  0
 42 72  1  0
 43 73  1  0
M  END
> <Uni-Dock RESULT> 
ENERGY=   -5.167  LOWER_BOUND=    1.871  UPPER_BOUND=    6.995
INTER + INTRA:          -5.167
INTER:                  -5.167
INTRA:                   0.000
UNBOUND:                 0.000

$$$$

     RDKit          3D

 73 77  0  0  0  0  0  0  0  0999 V2000
   44.0484   12.7555   11.7462 O   0  0  0  0  0  0  0  0  0  0  0  0
   47.5180   15.7010    8.5723 O   0  0  0  0  0  0  0  0  0  0  0  0
   41.3169    9.7949   10.6594 O   0  0  0  0  0  0  0  0  0  0  0  0
   51.5403   15.0313    7.6907 O   0  0  0  0  0  0  0  0  0  0  0  0
   42.2451   11.0540   12.2482 O   0  0  0  0  0  0  0  0  0  0  0  0
   49.7200   16.3042    7.4841 O   0  0  0  0  0  0  0  0  0  0  0  0
   44.8795   12.9159    9.5188 C   0  0  0  0  0  0  0  0  0  0  0  0
   47.3734   13.6707    9.8106 C   0  0  0  0  0  0  0  0  0  0  0  0
   44.7801   12.5511    8.1370 C   0  0  0  0  0  0  0  0  0  0  0  0
   48.0203   12.5356   10.3968 C   0  0  0  0  0  0  0  0  0  0  0  0
   43.9873   12.3219   10.4434 C   0  0  0  0  0  0  0  0  0  0  0  0
   48.1490   14.5759    9.0468 C   0  0  0  0  0  0  0  0  0  0  0  0
   45.8820   13.9629   10.0215 C   0  0  0  0  0  0  0  0  0  0  0  0
   43.8593   11.5401    7.7532 C   0  0  0  0  0  0  0  0  0  0  0  0
   49.3917   12.2994   10.1135 C   0  0  0  0  0  0  0  0  0  0  0  0
   43.0789   11.3292   10.0491 C   0  0  0  0  0  0  0  0  0  0  0  0
   49.5032   14.3331    8.7786 C   0  0  0  0  0  0  0  0  0  0  0  0
   43.0363   10.9382    8.7095 C   0  0  0  0  0  0  0  0  0  0  0  0
   50.1065   13.1874    9.3030 C   0  0  0  0  0  0  0  0  0  0  0  0
   45.5280   13.1465    7.0946 C   0  0  0  0  0  0  0  0  0  0  0  0
   47.3936   11.6203   11.2745 C   0  0  0  0  0  0  0  0  0  0  0  0
   42.1329   10.6443   10.9673 C   0  0  0  0  0  0  0  0  0  0  0  0
   50.3665   15.2174    7.9553 C   0  0  0  0  0  0  0  0  0  0  0  0
   43.7517   11.1406    6.4102 C   0  0  0  0  0  0  0  0  0  0  0  0
   50.0523   11.1816   10.6517 C   0  0  0  0  0  0  0  0  0  0  0  0
   45.4118   12.7433    5.7603 C   0  0  0  0  0  0  0  0  0  0  0  0
   48.0610   10.5133   11.8083 C   0  0  0  0  0  0  0  0  0  0  0  0
   44.5270   11.7339    5.4185 C   0  0  0  0  0  0  0  0  0  0  0  0
   49.3903   10.2887   11.4899 C   0  0  0  0  0  0  0  0  0  0  0  0
   49.5848   13.8384   10.7838 S   0  0  0  0  0  0  0  0  0  0  0  0
   44.3413   12.7303    9.7023 N   0  0  0  0  0  0  0  0  0  0  0  0
   45.5221   11.6058    7.9754 N   0  0  0  0  0  0  0  0  0  0  0  0
   45.5064   12.3571    9.0347 C   0  0  0  0  0  0  0  0  0  0  0  0
   46.8456   12.8624    9.5033 C   0  0  0  0  0  0  0  0  0  0  0  0
   49.2931   12.7096    9.5111 C   0  0  0  0  0  0  0  0  0  0  0  0
   47.9898   12.2772    9.1142 C   0  0  0  0  0  0  0  0  0  0  0  0
   43.0460   12.2670    9.2215 C   0  0  0  0  0  0  0  0  0  0  0  0
   44.2621   11.0794    7.4621 C   0  0  0  0  0  0  0  0  0  0  0  0
   43.1114   12.0247    7.7285 C   0  0  0  0  0  0  0  0  0  0  0  0
   50.4999   12.2894    8.9699 C   0  0  0  0  0  0  0  0  0  0  0  0
   44.3567   13.2199   11.0745 C   0  0  0  0  0  0  0  0  0  0  0  0
   51.2769   13.7595   10.5827 C   0  0  0  0  0  0  0  0  0  0  0  0
   51.6370   12.8935    9.5781 C   0  0  0  0  0  0  0  0  0  0  0  0
   43.3963   12.2434   12.2707 H   0  0  0  0  0  0  0  0  0  0  0  0
   48.1732   16.2342    8.0748 H   0  0  0  0  0  0  0  0  0  0  0  0
   41.5554   10.5188   12.7054 H   0  0  0  0  0  0  0  0  0  0  0  0
   50.4191   16.7613    6.9639 H   0  0  0  0  0  0  0  0  0  0  0  0
   45.5842   14.9107    9.5566 H   0  0  0  0  0  0  0  0  0  0  0  0
   45.7640   14.1577   11.0944 H   0  0  0  0  0  0  0  0  0  0  0  0
   42.3316   10.1653    8.4039 H   0  0  0  0  0  0  0  0  0  0  0  0
   51.1584   12.9966    9.0909 H   0  0  0  0  0  0  0  0  0  0  0  0
   46.2131   13.9611    7.2991 H   0  0  0  0  0  0  0  0  0  0  0  0
   46.3649   11.7654   11.5832 H   0  0  0  0  0  0  0  0  0  0  0  0
   43.0511   10.3591    6.1203 H   0  0  0  0  0  0  0  0  0  0  0  0
   51.1019   11.0000   10.4265 H   0  0  0  0  0  0  0  0  0  0  0  0
   46.0137   13.2270    4.9945 H   0  0  0  0  0  0  0  0  0  0  0  0
   47.5357    9.8356   12.4767 H   0  0  0  0  0  0  0  0  0  0  0  0
   44.4302   11.4160    4.3844 H   0  0  0  0  0  0  0  0  0  0  0  0
   49.9163    9.4316   11.9012 H   0  0  0  0  0  0  0  0  0  0  0  0
   46.8280   13.7269   10.1519 H   0  0  0  0  0  0  0  0  0  0  0  0
   47.9420   11.4257    8.4370 H   0  0  0  0  0  0  0  0  0  0  0  0
   42.2741   13.0164    9.4281 H   0  0  0  0  0  0  0  0  0  0  0  0
   42.7655   11.3458    9.7464 H   0  0  0  0  0  0  0  0  0  0  0  0
   44.0736   10.0947    7.9051 H   0  0  0  0  0  0  0  0  0  0  0  0
   44.3611   10.9311    6.3809 H   0  0  0  0  0  0  0  0  0  0  0  0
   43.2740   12.9711    7.1980 H   0  0  0  0  0  0  0  0  0  0  0  0
   42.1696   11.5992    7.3667 H   0  0  0  0  0  0  0  0  0  0  0  0
   50.5615   11.5736    8.1577 H   0  0  0  0  0  0  0  0  0  0  0  0
   44.8398   14.2005   11.1309 H   0  0  0  0  0  0  0  0  0  0  0  0
   44.8877   12.5196   11.7283 H   0  0  0  0  0  0  0  0  0  0  0  0
   43.3422   13.3398   11.4723 H   0  0  0  0  0  0  0  0  0  0  0  0
   51.9277   14.3513   11.2113 H   0  0  0  0  0  0  0  0  0  0  0  0
   52.6636   12.7002    9.2932 H   0  0  0  0  0  0  0  0  0  0  0  0
  1 11  1  0
  2 12  1  0
  3 22  2  0
  4 23  2  0
  5 22  1  0
  6 23  1  0
  7  9  1  0
  7 11  2  0
  7 13  1  0
  8 10  1  0
  8 12  2  0
  8 13  1  0
  9 14  2  0
  9 20  1  0
 10 15  2  0
 10 21  1  0
 11 16  1  0
 12 17  1  0
 14 18  1  0
 14 24  1  0
 15 19  1  0
 15 25  1  0
 16 18  2  0
 16 22  1  0
 17 19  2  0
 17 23  1  0
 20 26  2  0
 21 27  2  0
 24 28  2  0
 25 29  2  0
 26 28  1  0
 27 29  1  0
 30 35  1  0
 30 42  1  0
 31 33  1  0
 31 37  1  0
 31 41  1  0
 32 33  2  0
 32 38  1  0
 33 34  1  0
 34 36  2  0
 35 36  1  0
 35 40  2  0
 37 39  1  0
 38 39  1  0
 40 43  1  0
 42 43  2  0
  1 44  1  0
  2 45  1  0
  5 46  1  0
  6 47  1  0
 13 48  1  0
 13 49  1  0
 18 50  1  0
 19 51  1  0
 20 52  1  0
 21 53  1  0
 24 54  1  0
 25 55  1  0
 26 56  1  0
 27 57  1  0
 28 58  1  0
 29 59  1  0
 34 60  1  0
 36 61  1  0
 37 62  1  0
 37 63  1  0
 38 64  1  0
 38 65  1  0
 39 66  1  0
 39 67  1  0
 40 68  1  0
 41 69  1  0
 41 70  1  0
 41 71  1  0
 42 72  1  0
 43 73  1  0
M  END
> <Uni-Dock RESULT> 
ENERGY=   -5.006  LOWER_BOUND=    6.446  UPPER_BOUND=    9.964
INTER + INTRA:          -5.006
INTER:                  -5.006
INTRA:                   0.000
UNBOUND:                 0.000

$$$$

     RDKit          3D

 73 77  0  0  0  0  0  0  0  0999 V2000
   45.1668   13.4812   12.0765 O   0  0  0  0  0  0  0  0  0  0  0  0
   50.1724   11.6904   13.6657 O   0  0  0  0  0  0  0  0  0  0  0  0
   43.8259   14.6080    8.2896 O   0  0  0  0  0  0  0  0  0  0  0  0
   51.5829    7.7919   14.1310 O   0  0  0  0  0  0  0  0  0  0  0  0
   43.4153   14.3368   10.4643 O   0  0  0  0  0  0  0  0  0  0  0  0
   51.9394    9.9888   14.2813 O   0  0  0  0  0  0  0  0  0  0  0  0
   47.2839   12.8105   11.2128 C   0  0  0  0  0  0  0  0  0  0  0  0
   48.0764   10.9140   12.8406 C   0  0  0  0  0  0  0  0  0  0  0  0
   48.1996   12.7380   10.1134 C   0  0  0  0  0  0  0  0  0  0  0  0
   47.1786    9.8286   12.5830 C   0  0  0  0  0  0  0  0  0  0  0  0
   45.9924   13.3437   10.9862 C   0  0  0  0  0  0  0  0  0  0  0  0
   49.3669   10.6238   13.3452 C   0  0  0  0  0  0  0  0  0  0  0  0
   47.6707   12.3792   12.6334 C   0  0  0  0  0  0  0  0  0  0  0  0
   47.7552   13.1121    8.8174 C   0  0  0  0  0  0  0  0  0  0  0  0
   47.6413    8.4959   12.7459 C   0  0  0  0  0  0  0  0  0  0  0  0
   45.5691   13.7149    9.7020 C   0  0  0  0  0  0  0  0  0  0  0  0
   49.8094    9.3035   13.5057 C   0  0  0  0  0  0  0  0  0  0  0  0
   46.4514   13.5798    8.6285 C   0  0  0  0  0  0  0  0  0  0  0  0
   48.9455    8.2524   13.1889 C   0  0  0  0  0  0  0  0  0  0  0  0
   49.5510   12.3346   10.2207 C   0  0  0  0  0  0  0  0  0  0  0  0
   45.8281    9.9810   12.1909 C   0  0  0  0  0  0  0  0  0  0  0  0
   44.2222   14.2558    9.3856 C   0  0  0  0  0  0  0  0  0  0  0  0
   51.1604    8.9254   13.9926 C   0  0  0  0  0  0  0  0  0  0  0  0
   48.6192   13.0315    7.7120 C   0  0  0  0  0  0  0  0  0  0  0  0
   46.7952    7.4060   12.4782 C   0  0  0  0  0  0  0  0  0  0  0  0
   50.4038   12.2601    9.1145 C   0  0  0  0  0  0  0  0  0  0  0  0
   44.9929    8.8898   11.9311 C   0  0  0  0  0  0  0  0  0  0  0  0
   49.9351   12.6026    7.8569 C   0  0  0  0  0  0  0  0  0  0  0  0
   45.4795    7.6000   12.0669 C   0  0  0  0  0  0  0  0  0  0  0  0
   47.9366    9.0083   14.3287 S   0  0  0  0  0  0  0  0  0  0  0  0
   46.8998   13.2095   10.9869 N   0  0  0  0  0  0  0  0  0  0  0  0
   48.0353   11.6526    9.5985 N   0  0  0  0  0  0  0  0  0  0  0  0
   47.5528   12.0007   10.7529 C   0  0  0  0  0  0  0  0  0  0  0  0
   47.7751   11.0266   11.8800 C   0  0  0  0  0  0  0  0  0  0  0  0
   48.3198    8.7675   12.6632 C   0  0  0  0  0  0  0  0  0  0  0  0
   48.0858    9.7418   11.6437 C   0  0  0  0  0  0  0  0  0  0  0  0
   46.7205   14.1629    9.8995 C   0  0  0  0  0  0  0  0  0  0  0  0
   47.8593   12.5464    8.4591 C   0  0  0  0  0  0  0  0  0  0  0  0
   47.8327   13.9976    8.8858 C   0  0  0  0  0  0  0  0  0  0  0  0
   48.8561    7.5002   12.4828 C   0  0  0  0  0  0  0  0  0  0  0  0
   46.0346   13.4127   12.1414 C   0  0  0  0  0  0  0  0  0  0  0  0
   48.4957    7.4585   14.7707 C   0  0  0  0  0  0  0  0  0  0  0  0
   48.9631    6.7511   13.6891 C   0  0  0  0  0  0  0  0  0  0  0  0
   44.3063   13.8364   11.7666 H   0  0  0  0  0  0  0  0  0  0  0  0
   51.0225   11.3419   14.0077 H   0  0  0  0  0  0  0  0  0  0  0  0
   42.5882   14.7154   10.0851 H   0  0  0  0  0  0  0  0  0  0  0  0
   52.7802    9.5671   14.5705 H   0  0  0  0  0  0  0  0  0  0  0  0
   48.4627   13.0686   12.9509 H   0  0  0  0  0  0  0  0  0  0  0  0
   46.8639   12.5708   13.3513 H   0  0  0  0  0  0  0  0  0  0  0  0
   46.1214   13.8665    7.6304 H   0  0  0  0  0  0  0  0  0  0  0  0
   49.2912    7.2259   13.3097 H   0  0  0  0  0  0  0  0  0  0  0  0
   49.9801   12.0842   11.1840 H   0  0  0  0  0  0  0  0  0  0  0  0
   45.3859   10.9664   12.1007 H   0  0  0  0  0  0  0  0  0  0  0  0
   48.2730   13.3106    6.7182 H   0  0  0  0  0  0  0  0  0  0  0  0
   47.1558    6.3856   12.5974 H   0  0  0  0  0  0  0  0  0  0  0  0
   51.4340   11.9374    9.2463 H   0  0  0  0  0  0  0  0  0  0  0  0
   43.9621    9.0575   11.6291 H   0  0  0  0  0  0  0  0  0  0  0  0
   50.5915   12.5484    6.9932 H   0  0  0  0  0  0  0  0  0  0  0  0
   44.8368    6.7468   11.8678 H   0  0  0  0  0  0  0  0  0  0  0  0
   47.6861   11.4271   12.8800 H   0  0  0  0  0  0  0  0  0  0  0  0
   48.1881    9.4057   10.6130 H   0  0  0  0  0  0  0  0  0  0  0  0
   46.7393   15.1877   10.2862 H   0  0  0  0  0  0  0  0  0  0  0  0
   45.7444   14.0030    9.4257 H   0  0  0  0  0  0  0  0  0  0  0  0
   46.9410   12.2760    7.9250 H   0  0  0  0  0  0  0  0  0  0  0  0
   48.6920   12.3926    7.7636 H   0  0  0  0  0  0  0  0  0  0  0  0
   48.7960   14.2743    9.3319 H   0  0  0  0  0  0  0  0  0  0  0  0
   47.6667   14.6514    8.0232 H   0  0  0  0  0  0  0  0  0  0  0  0
   49.1668    7.1268   11.5134 H   0  0  0  0  0  0  0  0  0  0  0  0
   46.6183   13.4172   13.0674 H   0  0  0  0  0  0  0  0  0  0  0  0
   45.2758   12.6248   12.1988 H   0  0  0  0  0  0  0  0  0  0  0  0
   45.5102   14.3740   12.0894 H   0  0  0  0  0  0  0  0  0  0  0  0
   48.4545    7.1392   15.8028 H   0  0  0  0  0  0  0  0  0  0  0  0
   49.3605    5.7462   13.7570 H   0  0  0  0  0  0  0  0  0  0  0  0
  1 11  1  0
  2 12  1  0
  3 22  2  0
  4 23  2  0
  5 22  1  0
  6 23  1  0
  7  9  1  0
  7 11  2  0
  7 13  1  0
  8 10  1  0
  8 12  2  0
  8 13  1  0
  9 14  2  0
  9 20  1  0
 10 15  2  0
 10 21  1  0
 11 16  1  0
 12 17  1  0
 14 18  1  0
 14 24  1  0
 15 19  1  0
 15 25  1  0
 16 18  2  0
 16 22  1  0
 17 19  2  0
 17 23  1  0
 20 26  2  0
 21 27  2  0
 24 28  2  0
 25 29  2  0
 26 28  1  0
 27 29  1  0
 30 35  1  0
 30 42  1  0
 31 33  1  0
 31 37  1  0
 31 41  1  0
 32 33  2  0
 32 38  1  0
 33 34  1  0
 34 36  2  0
 35 36  1  0
 35 40  2  0
 37 39  1  0
 38 39  1  0
 40 43  1  0
 42 43  2  0
  1 44  1  0
  2 45  1  0
  5 46  1  0
  6 47  1  0
 13 48  1  0
 13 49  1  0
 18 50  1  0
 19 51  1  0
 20 52  1  0
 21 53  1  0
 24 54  1  0
 25 55  1  0
 26 56  1  0
 27 57  1  0
 28 58  1  0
 29 59  1  0
 34 60  1  0
 36 61  1  0
 37 62  1  0
 37 63  1  0
 38 64  1  0
 38 65  1  0
 39 66  1  0
 39 67  1  0
 40 68  1  0
 41 69  1  0
 41 70  1  0
 41 71  1  0
 42 72  1  0
 43 73  1  0
M  END
> <Uni-Dock RESULT> 
ENERGY=   -4.882  LOWER_BOUND=    4.377  UPPER_BOUND=    6.980
INTER + INTRA:          -4.882
INTER:                  -4.882
INTRA:                   0.000
UNBOUND:                 0.000

$$$$

     RDKit          3D

 73 77  0  0  0  0  0  0  0  0999 V2000
   52.2342   10.6815   11.3281 O   0  0  0  0  0  0  0  0  0  0  0  0
   48.0448   13.1107   14.0365 O   0  0  0  0  0  0  0  0  0  0  0  0
   52.7358    6.6838   10.2441 O   0  0  0  0  0  0  0  0  0  0  0  0
   44.7062   15.1117   12.5351 O   0  0  0  0  0  0  0  0  0  0  0  0
   53.5215    8.7700   10.2850 O   0  0  0  0  0  0  0  0  0  0  0  0
   45.9009   14.4284   14.2906 O   0  0  0  0  0  0  0  0  0  0  0  0
   50.0454   10.2596   12.1701 C   0  0  0  0  0  0  0  0  0  0  0  0
   48.7770   12.5311   11.8446 C   0  0  0  0  0  0  0  0  0  0  0  0
   49.0143    9.3246   12.5091 C   0  0  0  0  0  0  0  0  0  0  0  0
   48.6402   12.6597   10.4250 C   0  0  0  0  0  0  0  0  0  0  0  0
   51.2281    9.7747   11.5621 C   0  0  0  0  0  0  0  0  0  0  0  0
   47.8354   13.1792   12.6798 C   0  0  0  0  0  0  0  0  0  0  0  0
   49.9340   11.7562   12.4891 C   0  0  0  0  0  0  0  0  0  0  0  0
   49.1684    7.9616   12.1406 C   0  0  0  0  0  0  0  0  0  0  0  0
   47.5138   13.3461    9.8989 C   0  0  0  0  0  0  0  0  0  0  0  0
   51.3690    8.4249   11.2093 C   0  0  0  0  0  0  0  0  0  0  0  0
   46.7304   13.8576   12.1472 C   0  0  0  0  0  0  0  0  0  0  0  0
   50.3295    7.5359   11.4890 C   0  0  0  0  0  0  0  0  0  0  0  0
   46.5734   13.9202   10.7605 C   0  0  0  0  0  0  0  0  0  0  0  0
   47.8354    9.6530   13.2181 C   0  0  0  0  0  0  0  0  0  0  0  0
   49.5710   12.1647    9.4818 C   0  0  0  0  0  0  0  0  0  0  0  0
   52.5682    7.8513   10.5462 C   0  0  0  0  0  0  0  0  0  0  0  0
   45.6846   14.5264   12.9622 C   0  0  0  0  0  0  0  0  0  0  0  0
   48.1667    7.0213   12.4362 C   0  0  0  0  0  0  0  0  0  0  0  0
   47.3345   13.4699    8.5103 C   0  0  0  0  0  0  0  0  0  0  0  0
   46.8453    8.7090   13.5097 C   0  0  0  0  0  0  0  0  0  0  0  0
   49.3856   12.2969    8.1019 C   0  0  0  0  0  0  0  0  0  0  0  0
   47.0082    7.3922   13.1121 C   0  0  0  0  0  0  0  0  0  0  0  0
   48.2613   12.9433    7.6150 C   0  0  0  0  0  0  0  0  0  0  0  0
   48.1184   14.6255   10.8222 S   0  0  0  0  0  0  0  0  0  0  0  0
   50.5017    9.8772   12.1127 N   0  0  0  0  0  0  0  0  0  0  0  0
   48.2801    9.2565   11.5464 N   0  0  0  0  0  0  0  0  0  0  0  0
   49.1978   10.1608   11.7104 C   0  0  0  0  0  0  0  0  0  0  0  0
   48.7664   11.5855   11.4812 C   0  0  0  0  0  0  0  0  0  0  0  0
   47.1822   13.2034   10.5396 C   0  0  0  0  0  0  0  0  0  0  0  0
   47.6552   11.8772   10.7860 C   0  0  0  0  0  0  0  0  0  0  0  0
   50.9019    8.4994   12.3677 C   0  0  0  0  0  0  0  0  0  0  0  0
   48.6240    7.8538   11.7516 C   0  0  0  0  0  0  0  0  0  0  0  0
   49.6991    7.6897   12.8033 C   0  0  0  0  0  0  0  0  0  0  0  0
   45.9400   13.5524   10.0285 C   0  0  0  0  0  0  0  0  0  0  0  0
   51.5974   10.8158   11.9098 C   0  0  0  0  0  0  0  0  0  0  0  0
   46.8714   15.6579   10.2847 C   0  0  0  0  0  0  0  0  0  0  0  0
   45.7577   14.9576    9.8870 C   0  0  0  0  0  0  0  0  0  0  0  0
   52.9733   10.2119   10.8855 H   0  0  0  0  0  0  0  0  0  0  0  0
   47.3271   13.6068   14.4838 H   0  0  0  0  0  0  0  0  0  0  0  0
   54.2306    8.2294    9.8652 H   0  0  0  0  0  0  0  0  0  0  0  0
   45.1270   14.9032   14.6699 H   0  0  0  0  0  0  0  0  0  0  0  0
   49.9114   11.8287   13.5833 H   0  0  0  0  0  0  0  0  0  0  0  0
   50.8468   12.2999   12.2168 H   0  0  0  0  0  0  0  0  0  0  0  0
   50.4386    6.4875   11.2129 H   0  0  0  0  0  0  0  0  0  0  0  0
   45.7119   14.4440   10.3466 H   0  0  0  0  0  0  0  0  0  0  0  0
   47.6687   10.6610   13.5801 H   0  0  0  0  0  0  0  0  0  0  0  0
   50.4838   11.6795    9.8072 H   0  0  0  0  0  0  0  0  0  0  0  0
   48.2837    5.9788   12.1447 H   0  0  0  0  0  0  0  0  0  0  0  0
   46.4660   13.9908    8.1107 H   0  0  0  0  0  0  0  0  0  0  0  0
   45.9523    9.0113   14.0518 H   0  0  0  0  0  0  0  0  0  0  0  0
   50.1279   11.8970    7.4157 H   0  0  0  0  0  0  0  0  0  0  0  0
   46.2444    6.6530   13.3357 H   0  0  0  0  0  0  0  0  0  0  0  0
   48.1103   13.0510    6.5444 H   0  0  0  0  0  0  0  0  0  0  0  0
   49.3920   12.3492   11.9215 H   0  0  0  0  0  0  0  0  0  0  0  0
   47.0519   11.0613   10.3910 H   0  0  0  0  0  0  0  0  0  0  0  0
   51.6607    8.4643   13.1570 H   0  0  0  0  0  0  0  0  0  0  0  0
   51.3440    8.0696   11.4606 H   0  0  0  0  0  0  0  0  0  0  0  0
   48.9363    7.4140   10.7973 H   0  0  0  0  0  0  0  0  0  0  0  0
   47.7239    7.3176   12.0726 H   0  0  0  0  0  0  0  0  0  0  0  0
   49.3320    8.0485   13.7729 H   0  0  0  0  0  0  0  0  0  0  0  0
   49.9680    6.6347   12.9203 H   0  0  0  0  0  0  0  0  0  0  0  0
   45.1845   12.8189    9.7699 H   0  0  0  0  0  0  0  0  0  0  0  0
   51.4725   11.7002   12.5425 H   0  0  0  0  0  0  0  0  0  0  0  0
   51.6489   11.1285   10.8613 H   0  0  0  0  0  0  0  0  0  0  0  0
   52.5648   10.3704   12.1702 H   0  0  0  0  0  0  0  0  0  0  0  0
   47.0142   16.7295   10.2850 H   0  0  0  0  0  0  0  0  0  0  0  0
   44.8572   15.4273    9.5116 H   0  0  0  0  0  0  0  0  0  0  0  0
  1 11  1  0
  2 12  1  0
  3 22  2  0
  4 23  2  0
  5 22  1  0
  6 23  1  0
  7  9  1  0
  7 11  2  0
  7 13  1  0
  8 10  1  0
  8 12  2  0
  8 13  1  0
  9 14  2  0
  9 20  1  0
 10 15  2  0
 10 21  1  0
 11 16  1  0
 12 17  1  0
 14 18  1  0
 14 24  1  0
 15 19  1  0
 15 25  1  0
 16 18  2  0
 16 22  1  0
 17 19  2  0
 17 23  1  0
 20 26  2  0
 21 27  2  0
 24 28  2  0
 25 29  2  0
 26 28  1  0
 27 29  1  0
 30 35  1  0
 30 42  1  0
 31 33  1  0
 31 37  1  0
 31 41  1  0
 32 33  2  0
 32 38  1  0
 33 34  1  0
 34 36  2  0
 35 36  1  0
 35 40  2  0
 37 39  1  0
 38 39  1  0
 40 43  1  0
 42 43  2  0
  1 44  1  0
  2 45  1  0
  5 46  1  0
  6 47  1  0
 13 48  1  0
 13 49  1  0
 18 50  1  0
 19 51  1  0
 20 52  1  0
 21 53  1  0
 24 54  1  0
 25 55  1  0
 26 56  1  0
 27 57  1  0
 28 58  1  0
 29 59  1  0
 34 60  1  0
 36 61  1  0
 37 62  1  0
 37 63  1  0
 38 64  1  0
 38 65  1  0
 39 66  1  0
 39 67  1  0
 40 68  1  0
 41 69  1  0
 41 70  1  0
 41 71  1  0
 42 72  1  0
 43 73  1  0
M  END
> <Uni-Dock RESULT> 
ENERGY=   -4.871  LOWER_BOUND=    4.603  UPPER_BOUND=    7.125
INTER + INTRA:          -4.871
INTER:                  -4.871
INTRA:                   0.000
UNBOUND:                 0.000

$$$$

     RDKit          3D

 73 77  0  0  0  0  0  0  0  0999 V2000
   48.0683   11.2811   17.5213 O   0  0  0  0  0  0  0  0  0  0  0  0
   48.6926    5.7716   17.3124 O   0  0  0  0  0  0  0  0  0  0  0  0
   46.9967   13.7146   20.7365 O   0  0  0  0  0  0  0  0  0  0  0  0
   52.1465    3.4651   17.7067 O   0  0  0  0  0  0  0  0  0  0  0  0
   47.5409   13.5154   18.5835 O   0  0  0  0  0  0  0  0  0  0  0  0
   49.9499    3.5771   17.3340 O   0  0  0  0  0  0  0  0  0  0  0  0
   48.1209    9.3422   18.9055 C   0  0  0  0  0  0  0  0  0  0  0  0
   49.8914    7.7801   17.7656 C   0  0  0  0  0  0  0  0  0  0  0  0
   47.8731    8.7276   20.1756 C   0  0  0  0  0  0  0  0  0  0  0  0
   51.1396    8.4509   17.9713 C   0  0  0  0  0  0  0  0  0  0  0  0
   47.9063   10.7350   18.7723 C   0  0  0  0  0  0  0  0  0  0  0  0
   49.8947    6.3745   17.5963 C   0  0  0  0  0  0  0  0  0  0  0  0
   48.5598    8.5372   17.6754 C   0  0  0  0  0  0  0  0  0  0  0  0
   47.5139    9.5442   21.2807 C   0  0  0  0  0  0  0  0  0  0  0  0
   52.3255    7.6799   18.0983 C   0  0  0  0  0  0  0  0  0  0  0  0
   47.5457   11.5282   19.8709 C   0  0  0  0  0  0  0  0  0  0  0  0
   51.0734    5.6259   17.7195 C   0  0  0  0  0  0  0  0  0  0  0  0
   47.3687   10.9250   21.1175 C   0  0  0  0  0  0  0  0  0  0  0  0
   52.2752    6.2866   17.9851 C   0  0  0  0  0  0  0  0  0  0  0  0
   47.9375    7.3358   20.4192 C   0  0  0  0  0  0  0  0  0  0  0  0
   51.2936    9.8554   18.0381 C   0  0  0  0  0  0  0  0  0  0  0  0
   47.3300   12.9968   19.8113 C   0  0  0  0  0  0  0  0  0  0  0  0
   51.1451    4.1481   17.5924 C   0  0  0  0  0  0  0  0  0  0  0  0
   47.2862    8.9781   22.5467 C   0  0  0  0  0  0  0  0  0  0  0  0
   53.5645    8.3033   18.3256 C   0  0  0  0  0  0  0  0  0  0  0  0
   47.7067    6.7818   21.6826 C   0  0  0  0  0  0  0  0  0  0  0  0
   52.5318   10.4664   18.2603 C   0  0  0  0  0  0  0  0  0  0  0  0
   47.3871    7.6051   22.7497 C   0  0  0  0  0  0  0  0  0  0  0  0
   53.6681    9.6888   18.4127 C   0  0  0  0  0  0  0  0  0  0  0  0
   51.8896    7.1305   16.5610 S   0  0  0  0  0  0  0  0  0  0  0  0
   47.8118    9.8480   18.9858 N   0  0  0  0  0  0  0  0  0  0  0  0
   48.9187    8.7678   20.7883 N   0  0  0  0  0  0  0  0  0  0  0  0
   48.7979    9.0207   19.5202 C   0  0  0  0  0  0  0  0  0  0  0  0
   49.7772    8.3224   18.6136 C   0  0  0  0  0  0  0  0  0  0  0  0
   51.8888    7.1190   18.2869 C   0  0  0  0  0  0  0  0  0  0  0  0
   50.9211    7.8023   19.0869 C   0  0  0  0  0  0  0  0  0  0  0  0
   46.8452   10.4915   19.8661 C   0  0  0  0  0  0  0  0  0  0  0  0
   48.0044    9.4077   21.7279 C   0  0  0  0  0  0  0  0  0  0  0  0
   46.6455    9.6500   21.1087 C   0  0  0  0  0  0  0  0  0  0  0  0
   52.9646    6.3761   18.7524 C   0  0  0  0  0  0  0  0  0  0  0  0
   47.9254   10.4304   17.6551 C   0  0  0  0  0  0  0  0  0  0  0  0
   53.2844    6.1528   16.4690 C   0  0  0  0  0  0  0  0  0  0  0  0
   53.7618    5.8172   17.7133 C   0  0  0  0  0  0  0  0  0  0  0  0
   47.9123   12.2475   17.5862 H   0  0  0  0  0  0  0  0  0  0  0  0
   48.8475    4.8085   17.2134 H   0  0  0  0  0  0  0  0  0  0  0  0
   47.3482   14.4724   18.7193 H   0  0  0  0  0  0  0  0  0  0  0  0
   50.1734    2.6196   17.2942 H   0  0  0  0  0  0  0  0  0  0  0  0
   47.7251    7.8643   17.4439 H   0  0  0  0  0  0  0  0  0  0  0  0
   48.6340    9.1677   16.7810 H   0  0  0  0  0  0  0  0  0  0  0  0
   47.0905   11.5419   21.9714 H   0  0  0  0  0  0  0  0  0  0  0  0
   53.1908    5.7041   18.0850 H   0  0  0  0  0  0  0  0  0  0  0  0
   48.1534    6.6416   19.6153 H   0  0  0  0  0  0  0  0  0  0  0  0
   50.4441   10.5127   17.8935 H   0  0  0  0  0  0  0  0  0  0  0  0
   47.0195    9.6077   23.3940 H   0  0  0  0  0  0  0  0  0  0  0  0
   54.4704    7.7084   18.4295 H   0  0  0  0  0  0  0  0  0  0  0  0
   47.7746    5.7054   21.8220 H   0  0  0  0  0  0  0  0  0  0  0  0
   52.5995   11.5504   18.3067 H   0  0  0  0  0  0  0  0  0  0  0  0
   47.2054    7.1824   23.7336 H   0  0  0  0  0  0  0  0  0  0  0  0
   54.6340   10.1558   18.5846 H   0  0  0  0  0  0  0  0  0  0  0  0
   49.4957    8.2526   17.5723 H   0  0  0  0  0  0  0  0  0  0  0  0
   51.1345    7.8813   20.1518 H   0  0  0  0  0  0  0  0  0  0  0  0
   45.8833   10.6064   19.3545 H   0  0  0  0  0  0  0  0  0  0  0  0
   47.2012   11.4932   20.1358 H   0  0  0  0  0  0  0  0  0  0  0  0
   48.4479   10.3449   22.0836 H   0  0  0  0  0  0  0  0  0  0  0  0
   47.8893    8.7557   22.6010 H   0  0  0  0  0  0  0  0  0  0  0  0
   46.1775    8.6930   20.8469 H   0  0  0  0  0  0  0  0  0  0  0  0
   45.9835   10.1603   21.8162 H   0  0  0  0  0  0  0  0  0  0  0  0
   53.1677    6.2351   19.8082 H   0  0  0  0  0  0  0  0  0  0  0  0
   47.8540    9.6555   16.8853 H   0  0  0  0  0  0  0  0  0  0  0  0
   48.8784   10.9592   17.5452 H   0  0  0  0  0  0  0  0  0  0  0  0
   47.1226   11.1508   17.4592 H   0  0  0  0  0  0  0  0  0  0  0  0
   53.6887    5.8711   15.5067 H   0  0  0  0  0  0  0  0  0  0  0  0
   54.6395    5.2034   17.8725 H   0  0  0  0  0  0  0  0  0  0  0  0
  1 11  1  0
  2 12  1  0
  3 22  2  0
  4 23  2  0
  5 22  1  0
  6 23  1  0
  7  9  1  0
  7 11  2  0
  7 13  1  0
  8 10  1  0
  8 12  2  0
  8 13  1  0
  9 14  2  0
  9 20  1  0
 10 15  2  0
 10 21  1  0
 11 16  1  0
 12 17  1  0
 14 18  1  0
 14 24  1  0
 15 19  1  0
 15 25  1  0
 16 18  2  0
 16 22  1  0
 17 19  2  0
 17 23  1  0
 20 26  2  0
 21 27  2  0
 24 28  2  0
 25 29  2  0
 26 28  1  0
 27 29  1  0
 30 35  1  0
 30 42  1  0
 31 33  1  0
 31 37  1  0
 31 41  1  0
 32 33  2  0
 32 38  1  0
 33 34  1  0
 34 36  2  0
 35 36  1  0
 35 40  2  0
 37 39  1  0
 38 39  1  0
 40 43  1  0
 42 43  2  0
  1 44  1  0
  2 45  1  0
  5 46  1  0
  6 47  1  0
 13 48  1  0
 13 49  1  0
 18 50  1  0
 19 51  1  0
 20 52  1  0
 21 53  1  0
 24 54  1  0
 25 55  1  0
 26 56  1  0
 27 57  1  0
 28 58  1  0
 29 59  1  0
 34 60  1  0
 36 61  1  0
 37 62  1  0
 37 63  1  0
 38 64  1  0
 38 65  1  0
 39 66  1  0
 39 67  1  0
 40 68  1  0
 41 69  1  0
 41 70  1  0
 41 71  1  0
 42 72  1  0
 43 73  1  0
M  END
> <Uni-Dock RESULT> 
ENERGY=   -4.870  LOWER_BOUND=    3.990  UPPER_BOUND=    6.507
INTER + INTRA:          -4.870
INTER:                  -4.870
INTRA:                   0.000
UNBOUND:                 0.000

$$$$

     RDKit          3D

 73 77  0  0  0  0  0  0  0  0999 V2000
   50.6625    5.4826   16.8159 O   0  0  0  0  0  0  0  0  0  0  0  0
   50.9978   10.8685   15.5243 O   0  0  0  0  0  0  0  0  0  0  0  0
   48.4276    3.5972   19.7921 O   0  0  0  0  0  0  0  0  0  0  0  0
   48.9173   13.0511   12.6411 O   0  0  0  0  0  0  0  0  0  0  0  0
   49.8878    3.4540   18.1133 O   0  0  0  0  0  0  0  0  0  0  0  0
   50.4683   12.9839   14.2431 O   0  0  0  0  0  0  0  0  0  0  0  0
   49.6894    7.5991   17.3171 C   0  0  0  0  0  0  0  0  0  0  0  0
   49.7517    8.8965   15.0395 C   0  0  0  0  0  0  0  0  0  0  0  0
   48.8555    8.4038   18.1594 C   0  0  0  0  0  0  0  0  0  0  0  0
   48.8055    8.2080   14.2141 C   0  0  0  0  0  0  0  0  0  0  0  0
   49.7886    6.2129   17.5855 C   0  0  0  0  0  0  0  0  0  0  0  0
   50.0210   10.2605   14.7724 C   0  0  0  0  0  0  0  0  0  0  0  0
   50.5159    8.1947   16.1698 C   0  0  0  0  0  0  0  0  0  0  0  0
   48.0840    7.7749   19.1725 C   0  0  0  0  0  0  0  0  0  0  0  0
   48.0960    8.9354   13.2220 C   0  0  0  0  0  0  0  0  0  0  0  0
   49.0254    5.6063   18.5933 C   0  0  0  0  0  0  0  0  0  0  0  0
   49.3166   10.9656   13.7868 C   0  0  0  0  0  0  0  0  0  0  0  0
   48.1690    6.3931   19.3658 C   0  0  0  0  0  0  0  0  0  0  0  0
   48.3493   10.2979   13.0318 C   0  0  0  0  0  0  0  0  0  0  0  0
   48.7523    9.8120   18.0759 C   0  0  0  0  0  0  0  0  0  0  0  0
   48.5297    6.8229   14.2947 C   0  0  0  0  0  0  0  0  0  0  0  0
   49.0581    4.1560   18.9132 C   0  0  0  0  0  0  0  0  0  0  0  0
   49.5192   12.4041   13.4788 C   0  0  0  0  0  0  0  0  0  0  0  0
   47.2373    8.5302   20.0018 C   0  0  0  0  0  0  0  0  0  0  0  0
   47.1422    8.2973   12.4106 C   0  0  0  0  0  0  0  0  0  0  0  0
   47.9084   10.5550   18.9078 C   0  0  0  0  0  0  0  0  0  0  0  0
   47.5816    6.1964   13.4796 C   0  0  0  0  0  0  0  0  0  0  0  0
   47.1445    9.9122   19.8680 C   0  0  0  0  0  0  0  0  0  0  0  0
   46.8805    6.9363   12.5415 C   0  0  0  0  0  0  0  0  0  0  0  0
   49.6495    9.2725   12.6491 S   0  0  0  0  0  0  0  0  0  0  0  0
   49.7531    7.1249   17.6760 N   0  0  0  0  0  0  0  0  0  0  0  0
   47.7539    8.4071   17.6526 N   0  0  0  0  0  0  0  0  0  0  0  0
   48.8316    7.9767   17.0694 C   0  0  0  0  0  0  0  0  0  0  0  0
   49.0751    8.4900   15.6745 C   0  0  0  0  0  0  0  0  0  0  0  0
   48.2458    9.5369   13.6179 C   0  0  0  0  0  0  0  0  0  0  0  0
   48.0839    9.0222   14.9416 C   0  0  0  0  0  0  0  0  0  0  0  0
   49.5289    6.6613   19.0392 C   0  0  0  0  0  0  0  0  0  0  0  0
   47.4518    7.9534   19.0057 C   0  0  0  0  0  0  0  0  0  0  0  0
   48.7113    7.6840   19.7993 C   0  0  0  0  0  0  0  0  0  0  0  0
   47.3211   10.2911   12.9093 C   0  0  0  0  0  0  0  0  0  0  0  0
   50.7161    6.3493   16.9056 C   0  0  0  0  0  0  0  0  0  0  0  0
   49.0183   10.1627   11.3380 C   0  0  0  0  0  0  0  0  0  0  0  0
   47.7636   10.6554   11.6058 C   0  0  0  0  0  0  0  0  0  0  0  0
   50.6074    4.5441   17.0964 H   0  0  0  0  0  0  0  0  0  0  0  0
   51.0811   11.7987   15.2260 H   0  0  0  0  0  0  0  0  0  0  0  0
   49.7968    2.5369   18.4624 H   0  0  0  0  0  0  0  0  0  0  0  0
   50.4635   13.9143   13.9226 H   0  0  0  0  0  0  0  0  0  0  0  0
   51.2464    8.8630   16.6420 H   0  0  0  0  0  0  0  0  0  0  0  0
   51.1418    7.4372   15.6826 H   0  0  0  0  0  0  0  0  0  0  0  0
   47.5746    5.9210   20.1475 H   0  0  0  0  0  0  0  0  0  0  0  0
   47.7987   10.8473   12.2684 H   0  0  0  0  0  0  0  0  0  0  0  0
   49.3491   10.3704   17.3640 H   0  0  0  0  0  0  0  0  0  0  0  0
   49.0717    6.1902   14.9879 H   0  0  0  0  0  0  0  0  0  0  0  0
   46.6404    8.0442   20.7719 H   0  0  0  0  0  0  0  0  0  0  0  0
   46.5952    8.8599   11.6558 H   0  0  0  0  0  0  0  0  0  0  0  0
   47.8581   11.6361   18.8010 H   0  0  0  0  0  0  0  0  0  0  0  0
   47.4022    5.1290   13.5808 H   0  0  0  0  0  0  0  0  0  0  0  0
   46.4876   10.4823   20.5186 H   0  0  0  0  0  0  0  0  0  0  0  0
   46.1430    6.4569   11.9038 H   0  0  0  0  0  0  0  0  0  0  0  0
   50.0908    8.4189   15.3116 H   0  0  0  0  0  0  0  0  0  0  0  0
   47.0872    9.0907   15.3746 H   0  0  0  0  0  0  0  0  0  0  0  0
   50.4855    6.5158   19.5529 H   0  0  0  0  0  0  0  0  0  0  0  0
   49.0103    5.6951   19.0198 H   0  0  0  0  0  0  0  0  0  0  0  0
   46.8193    7.0596   18.9553 H   0  0  0  0  0  0  0  0  0  0  0  0
   46.8688    8.7309   19.5119 H   0  0  0  0  0  0  0  0  0  0  0  0
   49.2834    8.6123   19.9201 H   0  0  0  0  0  0  0  0  0  0  0  0
   48.4661    7.3130   20.8000 H   0  0  0  0  0  0  0  0  0  0  0  0
   46.3586   10.5762   13.3192 H   0  0  0  0  0  0  0  0  0  0  0  0
   51.4574    7.0053   16.4384 H   0  0  0  0  0  0  0  0  0  0  0  0
   50.2096    5.7679   16.1275 H   0  0  0  0  0  0  0  0  0  0  0  0
   51.2671    5.6445   17.5393 H   0  0  0  0  0  0  0  0  0  0  0  0
   49.5970   10.2819   10.4326 H   0  0  0  0  0  0  0  0  0  0  0  0
   47.1895   11.2461   10.9030 H   0  0  0  0  0  0  0  0  0  0  0  0
  1 11  1  0
  2 12  1  0
  3 22  2  0
  4 23  2  0
  5 22  1  0
  6 23  1  0
  7  9  1  0
  7 11  2  0
  7 13  1  0
  8 10  1  0
  8 12  2  0
  8 13  1  0
  9 14  2  0
  9 20  1  0
 10 15  2  0
 10 21  1  0
 11 16  1  0
 12 17  1  0
 14 18  1  0
 14 24  1  0
 15 19  1  0
 15 25  1  0
 16 18  2  0
 16 22  1  0
 17 19  2  0
 17 23  1  0
 20 26  2  0
 21 27  2  0
 24 28  2  0
 25 29  2  0
 26 28  1  0
 27 29  1  0
 30 35  1  0
 30 42  1  0
 31 33  1  0
 31 37  1  0
 31 41  1  0
 32 33  2  0
 32 38  1  0
 33 34  1  0
 34 36  2  0
 35 36  1  0
 35 40  2  0
 37 39  1  0
 38 39  1  0
 40 43  1  0
 42 43  2  0
  1 44  1  0
  2 45  1  0
  5 46  1  0
  6 47  1  0
 13 48  1  0
 13 49  1  0
 18 50  1  0
 19 51  1  0
 20 52  1  0
 21 53  1  0
 24 54  1  0
 25 55  1  0
 26 56  1  0
 27 57  1  0
 28 58  1  0
 29 59  1  0
 34 60  1  0
 36 61  1  0
 37 62  1  0
 37 63  1  0
 38 64  1  0
 38 65  1  0
 39 66  1  0
 39 67  1  0
 40 68  1  0
 41 69  1  0
 41 70  1  0
 41 71  1  0
 42 72  1  0
 43 73  1  0
M  END
> <Uni-Dock RESULT> 
ENERGY=   -4.730  LOWER_BOUND=    2.090  UPPER_BOUND=    6.679
INTER + INTRA:          -4.730
INTER:                  -4.730
INTRA:                   0.000
UNBOUND:                 0.000

$$$$

     RDKit          3D

 73 77  0  0  0  0  0  0  0  0999 V2000
   46.9459   11.9552   18.2946 O   0  0  0  0  0  0  0  0  0  0  0  0
   46.3670    8.7003   22.7509 O   0  0  0  0  0  0  0  0  0  0  0  0
   49.3008   15.3604   17.7782 O   0  0  0  0  0  0  0  0  0  0  0  0
   48.3123    5.1390   23.7194 O   0  0  0  0  0  0  0  0  0  0  0  0
   47.8236   13.9100   16.9503 O   0  0  0  0  0  0  0  0  0  0  0  0
   46.7890    6.6885   24.2245 O   0  0  0  0  0  0  0  0  0  0  0  0
   47.8370   11.5739   20.4715 C   0  0  0  0  0  0  0  0  0  0  0  0
   47.6874    8.9754   20.7868 C   0  0  0  0  0  0  0  0  0  0  0  0
   48.6487   12.0165   21.5658 C   0  0  0  0  0  0  0  0  0  0  0  0
   48.6493    8.4511   19.8648 C   0  0  0  0  0  0  0  0  0  0  0  0
   47.7997   12.3581   19.2936 C   0  0  0  0  0  0  0  0  0  0  0  0
   47.3574    8.2119   21.9325 C   0  0  0  0  0  0  0  0  0  0  0  0
   46.9697   10.3108   20.5507 C   0  0  0  0  0  0  0  0  0  0  0  0
   49.4605   13.1704   21.4023 C   0  0  0  0  0  0  0  0  0  0  0  0
   49.3133    7.2349   20.1761 C   0  0  0  0  0  0  0  0  0  0  0  0
   48.6022   13.4988   19.1483 C   0  0  0  0  0  0  0  0  0  0  0  0
   48.0173    7.0104   22.2255 C   0  0  0  0  0  0  0  0  0  0  0  0
   49.4361   13.8832   20.2000 C   0  0  0  0  0  0  0  0  0  0  0  0
   49.0005    6.5425   21.3505 C   0  0  0  0  0  0  0  0  0  0  0  0
   48.6916   11.3944   22.8353 C   0  0  0  0  0  0  0  0  0  0  0  0
   48.9840    9.0505   18.6280 C   0  0  0  0  0  0  0  0  0  0  0  0
   48.6348   14.3531   17.9335 C   0  0  0  0  0  0  0  0  0  0  0  0
   47.7503    6.1785   23.4263 C   0  0  0  0  0  0  0  0  0  0  0  0
   50.2868   13.6197   22.4465 C   0  0  0  0  0  0  0  0  0  0  0  0
   50.2811    6.7039   19.3061 C   0  0  0  0  0  0  0  0  0  0  0  0
   49.5158   11.8509   23.8692 C   0  0  0  0  0  0  0  0  0  0  0  0
   49.9455    8.5117   17.7671 C   0  0  0  0  0  0  0  0  0  0  0  0
   50.3198   12.9615   23.6721 C   0  0  0  0  0  0  0  0  0  0  0  0
   50.6012    7.3409   18.1104 C   0  0  0  0  0  0  0  0  0  0  0  0
   47.7389    6.6226   20.2146 S   0  0  0  0  0  0  0  0  0  0  0  0
   47.7984   12.0895   20.1707 N   0  0  0  0  0  0  0  0  0  0  0  0
   49.7416   11.5152   21.4097 N   0  0  0  0  0  0  0  0  0  0  0  0
   48.6745   11.1748   20.7523 C   0  0  0  0  0  0  0  0  0  0  0  0
   48.3895    9.6977   20.6794 C   0  0  0  0  0  0  0  0  0  0  0  0
   49.1442    7.3730   20.8784 C   0  0  0  0  0  0  0  0  0  0  0  0
   49.3468    8.7874   20.9199 C   0  0  0  0  0  0  0  0  0  0  0  0
   48.0616   13.5188   20.2765 C   0  0  0  0  0  0  0  0  0  0  0  0
   50.0821   12.9292   21.5234 C   0  0  0  0  0  0  0  0  0  0  0  0
   48.8466   13.8022   21.5396 C   0  0  0  0  0  0  0  0  0  0  0  0
   50.0262    6.4017   21.3309 C   0  0  0  0  0  0  0  0  0  0  0  0
   46.8575   11.7059   19.1265 C   0  0  0  0  0  0  0  0  0  0  0  0
   48.3132    5.0519   20.5504 C   0  0  0  0  0  0  0  0  0  0  0  0
   49.5499    5.0721   21.1493 C   0  0  0  0  0  0  0  0  0  0  0  0
   47.0443   12.5736   17.5393 H   0  0  0  0  0  0  0  0  0  0  0  0
   46.2406    8.0695   23.4907 H   0  0  0  0  0  0  0  0  0  0  0  0
   47.9579   14.5824   16.2425 H   0  0  0  0  0  0  0  0  0  0  0  0
   46.7502    6.0345   24.9588 H   0  0  0  0  0  0  0  0  0  0  0  0
   46.2188   10.5107   21.3249 H   0  0  0  0  0  0  0  0  0  0  0  0
   46.3689   10.1715   19.6437 H   0  0  0  0  0  0  0  0  0  0  0  0
   50.0610   14.7685   20.0860 H   0  0  0  0  0  0  0  0  0  0  0  0
   49.5165    5.6105   21.5806 H   0  0  0  0  0  0  0  0  0  0  0  0
   48.0618   10.5404   23.0559 H   0  0  0  0  0  0  0  0  0  0  0  0
   48.4791    9.9495   18.2942 H   0  0  0  0  0  0  0  0  0  0  0  0
   50.9146   14.4995   22.3152 H   0  0  0  0  0  0  0  0  0  0  0  0
   50.7930    5.7749   19.5517 H   0  0  0  0  0  0  0  0  0  0  0  0
   49.5193   11.3347   24.8264 H   0  0  0  0  0  0  0  0  0  0  0  0
   50.1708    9.0107   16.8279 H   0  0  0  0  0  0  0  0  0  0  0  0
   50.9617   13.3227   24.4704 H   0  0  0  0  0  0  0  0  0  0  0  0
   51.3489    6.9153   17.4467 H   0  0  0  0  0  0  0  0  0  0  0  0
   47.3725    9.4203   20.4403 H   0  0  0  0  0  0  0  0  0  0  0  0
   50.3460    9.1310   21.1830 H   0  0  0  0  0  0  0  0  0  0  0  0
   47.1194   14.0770   20.3090 H   0  0  0  0  0  0  0  0  0  0  0  0
   48.6197   13.8576   19.3953 H   0  0  0  0  0  0  0  0  0  0  0  0
   50.7507   13.2081   20.7007 H   0  0  0  0  0  0  0  0  0  0  0  0
   50.6395   13.0796   22.4547 H   0  0  0  0  0  0  0  0  0  0  0  0
   48.2381   13.5731   22.4232 H   0  0  0  0  0  0  0  0  0  0  0  0
   49.1217   14.8608   21.5917 H   0  0  0  0  0  0  0  0  0  0  0  0
   50.9818    6.6417   21.7836 H   0  0  0  0  0  0  0  0  0  0  0  0
   46.0827   11.0442   19.5267 H   0  0  0  0  0  0  0  0  0  0  0  0
   47.3764   11.1969   18.3070 H   0  0  0  0  0  0  0  0  0  0  0  0
   46.3457   12.5781   18.7031 H   0  0  0  0  0  0  0  0  0  0  0  0
   47.7169    4.1878   20.2919 H   0  0  0  0  0  0  0  0  0  0  0  0
   50.0886    4.1794   21.4417 H   0  0  0  0  0  0  0  0  0  0  0  0
  1 11  1  0
  2 12  1  0
  3 22  2  0
  4 23  2  0
  5 22  1  0
  6 23  1  0
  7  9  1  0
  7 11  2  0
  7 13  1  0
  8 10  1  0
  8 12  2  0
  8 13  1  0
  9 14  2  0
  9 20  1  0
 10 15  2  0
 10 21  1  0
 11 16  1  0
 12 17  1  0
 14 18  1  0
 14 24  1  0
 15 19  1  0
 15 25  1  0
 16 18  2  0
 16 22  1  0
 17 19  2  0
 17 23  1  0
 20 26  2  0
 21 27  2  0
 24 28  2  0
 25 29  2  0
 26 28  1  0
 27 29  1  0
 30 35  1  0
 30 42  1  0
 31 33  1  0
 31 37  1  0
 31 41  1  0
 32 33  2  0
 32 38  1  0
 33 34  1  0
 34 36  2  0
 35 36  1  0
 35 40  2  0
 37 39  1  0
 38 39  1  0
 40 43  1  0
 42 43  2  0
  1 44  1  0
  2 45  1  0
  5 46  1  0
  6 47  1  0
 13 48  1  0
 13 49  1  0
 18 50  1  0
 19 51  1  0
 20 52  1  0
 21 53  1  0
 24 54  1  0
 25 55  1  0
 26 56  1  0
 27 57  1  0
 28 58  1  0
 29 59  1  0
 34 60  1  0
 36 61  1  0
 37 62  1  0
 37 63  1  0
 38 64  1  0
 38 65  1  0
 39 66  1  0
 39 67  1  0
 40 68  1  0
 41 69  1  0
 41 70  1  0
 41 71  1  0
 42 72  1  0
 43 73  1  0
M  END
> <Uni-Dock RESULT> 
ENERGY=   -4.703  LOWER_BOUND=    4.516  UPPER_BOUND=    7.333
INTER + INTRA:          -4.703
INTER:                  -4.703
INTRA:                   0.000
UNBOUND:                 0.000

$$$$
