
     RDKit          3D

 73 77  0  0  0  0  0  0  0  0999 V2000
   48.2069    5.4174   14.8496 O   0  0  0  0  0  0  0  0  0  0  0  0
   49.8625    7.0047   12.4659 O   0  0  0  0  0  0  0  0  0  0  0  0
   47.2714    3.0574   14.1872 O   0  0  0  0  0  0  0  0  0  0  0  0
   51.4929    7.2024   10.4228 O   0  0  0  0  0  0  0  0  0  0  0  0
   45.5315    2.9388   12.7837 O   0  0  0  0  0  0  0  0  0  0  0  0
   52.5076    9.1621   10.0476 O   0  0  0  0  0  0  0  0  0  0  0  0
   47.2771    7.3264   13.7624 C   0  0  0  0  0  0  0  0  0  0  0  0
   49.2718    9.0065   13.6248 C   0  0  0  0  0  0  0  0  0  0  0  0
   46.2825    7.8991   12.9073 C   0  0  0  0  0  0  0  0  0  0  0  0
   49.4780   10.4096   13.8519 C   0  0  0  0  0  0  0  0  0  0  0  0
   47.2958    5.9265   13.9527 C   0  0  0  0  0  0  0  0  0  0  0  0
   50.0131    8.3632   12.6066 C   0  0  0  0  0  0  0  0  0  0  0  0
   48.3132    8.1842   14.4925 C   0  0  0  0  0  0  0  0  0  0  0  0
   45.3909    7.0383   12.2146 C   0  0  0  0  0  0  0  0  0  0  0  0
   50.3630   11.1202   12.9966 C   0  0  0  0  0  0  0  0  0  0  0  0
   46.4081    5.0892   13.2621 C   0  0  0  0  0  0  0  0  0  0  0  0
   50.8885    9.0807   11.7793 C   0  0  0  0  0  0  0  0  0  0  0  0
   45.4719    5.6513   12.3899 C   0  0  0  0  0  0  0  0  0  0  0  0
   51.0469   10.4534   11.9740 C   0  0  0  0  0  0  0  0  0  0  0  0
   46.1099    9.2885   12.7051 C   0  0  0  0  0  0  0  0  0  0  0  0
   48.8557   11.1642   14.8794 C   0  0  0  0  0  0  0  0  0  0  0  0
   46.4660    3.6224   13.4649 C   0  0  0  0  0  0  0  0  0  0  0  0
   51.6330    8.3816   10.7054 C   0  0  0  0  0  0  0  0  0  0  0  0
   44.4147    7.5685   11.3530 C   0  0  0  0  0  0  0  0  0  0  0  0
   50.5673   12.5005   13.1638 C   0  0  0  0  0  0  0  0  0  0  0  0
   45.1321    9.8035   11.8493 C   0  0  0  0  0  0  0  0  0  0  0  0
   49.0693   12.5371   15.0354 C   0  0  0  0  0  0  0  0  0  0  0  0
   44.2866    8.9418   11.1689 C   0  0  0  0  0  0  0  0  0  0  0  0
   49.9219   13.2069   14.1737 C   0  0  0  0  0  0  0  0  0  0  0  0
   44.0888    7.9395   11.3183 S   0  0  0  0  0  0  0  0  0  0  0  0
   49.9244    8.7493   13.8753 N   0  0  0  0  0  0  0  0  0  0  0  0
   48.9593    9.8207   11.9870 N   0  0  0  0  0  0  0  0  0  0  0  0
   48.9301    8.9120   12.9129 C   0  0  0  0  0  0  0  0  0  0  0  0
   47.7549    7.9743   12.8727 C   0  0  0  0  0  0  0  0  0  0  0  0
   45.4720    7.4534   12.2336 C   0  0  0  0  0  0  0  0  0  0  0  0
   46.6014    8.3243   12.2834 C   0  0  0  0  0  0  0  0  0  0  0  0
   51.0529    9.6717   13.9070 C   0  0  0  0  0  0  0  0  0  0  0  0
   50.0676   10.7688   11.9543 C   0  0  0  0  0  0  0  0  0  0  0  0
   51.3414   10.1666   12.5061 C   0  0  0  0  0  0  0  0  0  0  0  0
   45.2430    6.2145   12.8147 C   0  0  0  0  0  0  0  0  0  0  0  0
   49.6896    8.0176   15.1135 C   0  0  0  0  0  0  0  0  0  0  0  0
   43.2293    6.5161   11.7016 C   0  0  0  0  0  0  0  0  0  0  0  0
   43.9574    5.6769   12.5113 C   0  0  0  0  0  0  0  0  0  0  0  0
   48.1772    4.4373   14.8263 H   0  0  0  0  0  0  0  0  0  0  0  0
   50.3729    6.6883   11.6904 H   0  0  0  0  0  0  0  0  0  0  0  0
   45.6912    2.0016   13.0216 H   0  0  0  0  0  0  0  0  0  0  0  0
   52.9138    8.5662    9.3828 H   0  0  0  0  0  0  0  0  0  0  0  0
   47.7335    8.8047   15.1802 H   0  0  0  0  0  0  0  0  0  0  0  0
   48.9510    7.5816   15.1502 H   0  0  0  0  0  0  0  0  0  0  0  0
   44.7845    5.0033   11.8495 H   0  0  0  0  0  0  0  0  0  0  0  0
   51.7216   11.0122   11.3281 H   0  0  0  0  0  0  0  0  0  0  0  0
   46.7353   10.0075   13.2229 H   0  0  0  0  0  0  0  0  0  0  0  0
   48.1808   10.6993   15.5924 H   0  0  0  0  0  0  0  0  0  0  0  0
   43.7357    6.9084   10.8158 H   0  0  0  0  0  0  0  0  0  0  0  0
   51.2397   13.0436   12.5027 H   0  0  0  0  0  0  0  0  0  0  0  0
   45.0374   10.8784   11.7217 H   0  0  0  0  0  0  0  0  0  0  0  0
   48.5656   13.0764   15.8328 H   0  0  0  0  0  0  0  0  0  0  0  0
   43.5255    9.3348   10.5010 H   0  0  0  0  0  0  0  0  0  0  0  0
   50.0887   14.2739   14.2861 H   0  0  0  0  0  0  0  0  0  0  0  0
   47.9012    7.0091   13.3341 H   0  0  0  0  0  0  0  0  0  0  0  0
   46.5182    9.3051   11.8177 H   0  0  0  0  0  0  0  0  0  0  0  0
   50.8236   10.5125   14.5730 H   0  0  0  0  0  0  0  0  0  0  0  0
   51.9447    9.1688   14.2990 H   0  0  0  0  0  0  0  0  0  0  0  0
   50.2363   11.0725   10.9156 H   0  0  0  0  0  0  0  0  0  0  0  0
   49.7874   11.6707   12.5107 H   0  0  0  0  0  0  0  0  0  0  0  0
   51.6679    9.3336   11.8701 H   0  0  0  0  0  0  0  0  0  0  0  0
   52.1444   10.9107   12.5187 H   0  0  0  0  0  0  0  0  0  0  0  0
   45.9639    5.7021   13.4397 H   0  0  0  0  0  0  0  0  0  0  0  0
   49.5081    6.9574   14.9099 H   0  0  0  0  0  0  0  0  0  0  0  0
   48.8297    8.4333   15.6486 H   0  0  0  0  0  0  0  0  0  0  0  0
   50.5548    8.0670   15.7842 H   0  0  0  0  0  0  0  0  0  0  0  0
   42.2307    6.3637   11.3161 H   0  0  0  0  0  0  0  0  0  0  0  0
   43.5896    4.7225   12.8683 H   0  0  0  0  0  0  0  0  0  0  0  0
  1 11  1  0
  2 12  1  0
  3 22  2  0
  4 23  2  0
  5 22  1  0
  6 23  1  0
  7  9  1  0
  7 11  2  0
  7 13  1  0
  8 10  1  0
  8 12  2  0
  8 13  1  0
  9 14  2  0
  9 20  1  0
 10 15  2  0
 10 21  1  0
 11 16  1  0
 12 17  1  0
 14 18  1  0
 14 24  1  0
 15 19  1  0
 15 25  1  0
 16 18  2  0
 16 22  1  0
 17 19  2  0
 17 23  1  0
 20 26  2  0
 21 27  2  0
 24 28  2  0
 25 29  2  0
 26 28  1  0
 27 29  1  0
 30 35  1  0
 30 42  1  0
 31 33  1  0
 31 37  1  0
 31 41  1  0
 32 33  2  0
 32 38  1  0
 33 34  1  0
 34 36  2  0
 35 36  1  0
 35 40  2  0
 37 39  1  0
 38 39  1  0
 40 43  1  0
 42 43  2  0
  1 44  1  0
  2 45  1  0
  5 46  1  0
  6 47  1  0
 13 48  1  0
 13 49  1  0
 18 50  1  0
 19 51  1  0
 20 52  1  0
 21 53  1  0
 24 54  1  0
 25 55  1  0
 26 56  1  0
 27 57  1  0
 28 58  1  0
 29 59  1  0
 34 60  1  0
 36 61  1  0
 37 62  1  0
 37 63  1  0
 38 64  1  0
 38 65  1  0
 39 66  1  0
 39 67  1  0
 40 68  1  0
 41 69  1  0
 41 70  1  0
 41 71  1  0
 42 72  1  0
 43 73  1  0
M  END
> <Uni-Dock RESULT> 
ENERGY=   -6.221  LOWER_BOUND=    0.000  UPPER_BOUND=    0.000
INTER + INTRA:          -6.221
INTER:                  -6.221
INTRA:                   0.000
UNBOUND:                 0.000

$$$$

     RDKit          3D

 73 77  0  0  0  0  0  0  0  0999 V2000
   49.1551    6.0274   16.6887 O   0  0  0  0  0  0  0  0  0  0  0  0
   47.2442    7.6577   14.5363 O   0  0  0  0  0  0  0  0  0  0  0  0
   47.8688    4.6582   18.5201 O   0  0  0  0  0  0  0  0  0  0  0  0
   45.1624    7.9985   12.9802 O   0  0  0  0  0  0  0  0  0  0  0  0
   46.8205    5.7642   20.1599 O   0  0  0  0  0  0  0  0  0  0  0  0
   45.3388    9.4046   11.2474 O   0  0  0  0  0  0  0  0  0  0  0  0
   48.9782    8.4056   16.7505 C   0  0  0  0  0  0  0  0  0  0  0  0
   49.1137    9.1125   14.2400 C   0  0  0  0  0  0  0  0  0  0  0  0
   48.5556    9.5961   17.4232 C   0  0  0  0  0  0  0  0  0  0  0  0
   49.7825   10.1243   13.4706 C   0  0  0  0  0  0  0  0  0  0  0  0
   48.6580    7.1491   17.3118 C   0  0  0  0  0  0  0  0  0  0  0  0
   47.8270    8.6866   13.8364 C   0  0  0  0  0  0  0  0  0  0  0  0
   49.7820    8.4489   15.4488 C   0  0  0  0  0  0  0  0  0  0  0  0
   47.7615    9.4809   18.5943 C   0  0  0  0  0  0  0  0  0  0  0  0
   49.0985   10.7172   12.3752 C   0  0  0  0  0  0  0  0  0  0  0  0
   47.8734    7.0513   18.4698 C   0  0  0  0  0  0  0  0  0  0  0  0
   47.1727    9.2782   12.7466 C   0  0  0  0  0  0  0  0  0  0  0  0
   47.4217    8.2174   19.0937 C   0  0  0  0  0  0  0  0  0  0  0  0
   47.8089   10.2950   12.0335 C   0  0  0  0  0  0  0  0  0  0  0  0
   48.8866   10.9068   17.0064 C   0  0  0  0  0  0  0  0  0  0  0  0
   51.0973   10.5949   13.7200 C   0  0  0  0  0  0  0  0  0  0  0  0
   47.5348    5.7189   19.0230 C   0  0  0  0  0  0  0  0  0  0  0  0
   45.8145    8.8257   12.3633 C   0  0  0  0  0  0  0  0  0  0  0  0
   47.3150   10.6312   19.2679 C   0  0  0  0  0  0  0  0  0  0  0  0
   49.7044   11.7337   11.6172 C   0  0  0  0  0  0  0  0  0  0  0  0
   48.4404   12.0428   17.6876 C   0  0  0  0  0  0  0  0  0  0  0  0
   51.6889   11.6060   12.9566 C   0  0  0  0  0  0  0  0  0  0  0  0
   47.6496   11.9045   18.8172 C   0  0  0  0  0  0  0  0  0  0  0  0
   50.9899   12.1796   11.9075 C   0  0  0  0  0  0  0  0  0  0  0  0
   47.4673   11.0799   19.4112 S   0  0  0  0  0  0  0  0  0  0  0  0
   49.1465    8.5516   13.7512 N   0  0  0  0  0  0  0  0  0  0  0  0
   47.9424   10.5511   14.1956 N   0  0  0  0  0  0  0  0  0  0  0  0
   48.4807    9.4395   14.5938 C   0  0  0  0  0  0  0  0  0  0  0  0
   48.3076    9.1138   16.0518 C   0  0  0  0  0  0  0  0  0  0  0  0
   47.9116    9.7912   18.3488 C   0  0  0  0  0  0  0  0  0  0  0  0
   48.0777   10.0745   16.9599 C   0  0  0  0  0  0  0  0  0  0  0  0
   49.3141    8.8855   12.3420 C   0  0  0  0  0  0  0  0  0  0  0  0
   48.0631   10.9392   12.7945 C   0  0  0  0  0  0  0  0  0  0  0  0
   48.1498    9.7357   11.8814 C   0  0  0  0  0  0  0  0  0  0  0  0
   48.0490    8.6121   19.0670 C   0  0  0  0  0  0  0  0  0  0  0  0
   50.0686    7.5454   14.2617 C   0  0  0  0  0  0  0  0  0  0  0  0
   47.4614   10.0621   20.7808 C   0  0  0  0  0  0  0  0  0  0  0  0
   47.7923    8.7665   20.4613 C   0  0  0  0  0  0  0  0  0  0  0  0
   48.7938    5.2248   17.1214 H   0  0  0  0  0  0  0  0  0  0  0  0
   46.3342    7.4996   14.2063 H   0  0  0  0  0  0  0  0  0  0  0  0
   46.6838    4.8242   20.4011 H   0  0  0  0  0  0  0  0  0  0  0  0
   44.4497    9.0084   11.1274 H   0  0  0  0  0  0  0  0  0  0  0  0
   50.7294    8.9228   15.7164 H   0  0  0  0  0  0  0  0  0  0  0  0
   50.0709    7.4453   15.1143 H   0  0  0  0  0  0  0  0  0  0  0  0
   46.8091    8.1441   19.9902 H   0  0  0  0  0  0  0  0  0  0  0  0
   47.2991   10.7590   11.1912 H   0  0  0  0  0  0  0  0  0  0  0  0
   49.5135   11.0720   16.1370 H   0  0  0  0  0  0  0  0  0  0  0  0
   51.7020   10.1838   14.5233 H   0  0  0  0  0  0  0  0  0  0  0  0
   46.6997   10.5434   20.1618 H   0  0  0  0  0  0  0  0  0  0  0  0
   49.1755   12.1913   10.7835 H   0  0  0  0  0  0  0  0  0  0  0  0
   48.7165   13.0309   17.3296 H   0  0  0  0  0  0  0  0  0  0  0  0
   52.6963   11.9402   13.1882 H   0  0  0  0  0  0  0  0  0  0  0  0
   47.2979   12.7828   19.3507 H   0  0  0  0  0  0  0  0  0  0  0  0
   51.4414   12.9685   11.3137 H   0  0  0  0  0  0  0  0  0  0  0  0
   48.3691    8.0686   16.3157 H   0  0  0  0  0  0  0  0  0  0  0  0
   48.0074   11.1105   16.6321 H   0  0  0  0  0  0  0  0  0  0  0  0
   50.2614    9.4198   12.1996 H   0  0  0  0  0  0  0  0  0  0  0  0
   49.3514    7.9724   11.7364 H   0  0  0  0  0  0  0  0  0  0  0  0
   47.1851   11.5337   12.5203 H   0  0  0  0  0  0  0  0  0  0  0  0
   48.9393   11.5867   12.6737 H   0  0  0  0  0  0  0  0  0  0  0  0
   47.2169    9.1594   11.9320 H   0  0  0  0  0  0  0  0  0  0  0  0
   48.2908   10.0508   10.8425 H   0  0  0  0  0  0  0  0  0  0  0  0
   48.3259    7.6654   18.6197 H   0  0  0  0  0  0  0  0  0  0  0  0
   49.5380    6.8032   14.8666 H   0  0  0  0  0  0  0  0  0  0  0  0
   50.8497    8.0129   14.8699 H   0  0  0  0  0  0  0  0  0  0  0  0
   50.5614    6.9979   13.4503 H   0  0  0  0  0  0  0  0  0  0  0  0
   47.2171   10.4629   21.7548 H   0  0  0  0  0  0  0  0  0  0  0  0
   47.8461    7.9661   21.1892 H   0  0  0  0  0  0  0  0  0  0  0  0
  1 11  1  0
  2 12  1  0
  3 22  2  0
  4 23  2  0
  5 22  1  0
  6 23  1  0
  7  9  1  0
  7 11  2  0
  7 13  1  0
  8 10  1  0
  8 12  2  0
  8 13  1  0
  9 14  2  0
  9 20  1  0
 10 15  2  0
 10 21  1  0
 11 16  1  0
 12 17  1  0
 14 18  1  0
 14 24  1  0
 15 19  1  0
 15 25  1  0
 16 18  2  0
 16 22  1  0
 17 19  2  0
 17 23  1  0
 20 26  2  0
 21 27  2  0
 24 28  2  0
 25 29  2  0
 26 28  1  0
 27 29  1  0
 30 35  1  0
 30 42  1  0
 31 33  1  0
 31 37  1  0
 31 41  1  0
 32 33  2  0
 32 38  1  0
 33 34  1  0
 34 36  2  0
 35 36  1  0
 35 40  2  0
 37 39  1  0
 38 39  1  0
 40 43  1  0
 42 43  2  0
  1 44  1  0
  2 45  1  0
  5 46  1  0
  6 47  1  0
 13 48  1  0
 13 49  1  0
 18 50  1  0
 19 51  1  0
 20 52  1  0
 21 53  1  0
 24 54  1  0
 25 55  1  0
 26 56  1  0
 27 57  1  0
 28 58  1  0
 29 59  1  0
 34 60  1  0
 36 61  1  0
 37 62  1  0
 37 63  1  0
 38 64  1  0
 38 65  1  0
 39 66  1  0
 39 67  1  0
 40 68  1  0
 41 69  1  0
 41 70  1  0
 41 71  1  0
 42 72  1  0
 43 73  1  0
M  END
> <Uni-Dock RESULT> 
ENERGY=   -5.490  LOWER_BOUND=    3.350  UPPER_BOUND=    5.366
INTER + INTRA:          -5.490
INTER:                  -5.490
INTRA:                   0.000
UNBOUND:                 0.000

$$$$

     RDKit          3D

 73 77  0  0  0  0  0  0  0  0999 V2000
   47.8657   13.4862   11.6736 O   0  0  0  0  0  0  0  0  0  0  0  0
   46.1649   12.1496    9.1710 O   0  0  0  0  0  0  0  0  0  0  0  0
   50.4740   13.2555   11.5092 O   0  0  0  0  0  0  0  0  0  0  0  0
   45.7068   11.5227    6.6673 O   0  0  0  0  0  0  0  0  0  0  0  0
   51.4049   11.2465   11.8389 O   0  0  0  0  0  0  0  0  0  0  0  0
   43.5930   11.1695    6.0208 O   0  0  0  0  0  0  0  0  0  0  0  0
   46.5906   11.4926   11.9738 C   0  0  0  0  0  0  0  0  0  0  0  0
   44.3538   11.9805   10.7170 C   0  0  0  0  0  0  0  0  0  0  0  0
   46.5388   10.0872   12.2398 C   0  0  0  0  0  0  0  0  0  0  0  0
   42.9513   11.7908   10.9614 C   0  0  0  0  0  0  0  0  0  0  0  0
   47.8492   12.1203   11.8399 C   0  0  0  0  0  0  0  0  0  0  0  0
   44.8360   11.8790    9.3914 C   0  0  0  0  0  0  0  0  0  0  0  0
   45.3246   12.3430   11.8459 C   0  0  0  0  0  0  0  0  0  0  0  0
   47.7509    9.3495   12.2860 C   0  0  0  0  0  0  0  0  0  0  0  0
   42.1079   11.4326    9.8751 C   0  0  0  0  0  0  0  0  0  0  0  0
   49.0381   11.3784   11.8888 C   0  0  0  0  0  0  0  0  0  0  0  0
   43.9855   11.5334    8.3317 C   0  0  0  0  0  0  0  0  0  0  0  0
   48.9779    9.9981   12.0989 C   0  0  0  0  0  0  0  0  0  0  0  0
   42.6328   11.3024    8.5845 C   0  0  0  0  0  0  0  0  0  0  0  0
   45.3459    9.3647   12.4768 C   0  0  0  0  0  0  0  0  0  0  0  0
   42.3229   11.9305   12.2256 C   0  0  0  0  0  0  0  0  0  0  0  0
   50.3429   12.0610   11.7227 C   0  0  0  0  0  0  0  0  0  0  0  0
   44.5263   11.4117    6.9573 C   0  0  0  0  0  0  0  0  0  0  0  0
   47.7329    7.9646   12.5269 C   0  0  0  0  0  0  0  0  0  0  0  0
   40.7360   11.2053   10.0775 C   0  0  0  0  0  0  0  0  0  0  0  0
   45.3415    7.9882   12.7200 C   0  0  0  0  0  0  0  0  0  0  0  0
   40.9561   11.7030   12.4124 C   0  0  0  0  0  0  0  0  0  0  0  0
   46.5364    7.2867   12.7403 C   0  0  0  0  0  0  0  0  0  0  0  0
   40.1628   11.3350   11.3385 C   0  0  0  0  0  0  0  0  0  0  0  0
   47.5103    7.6230   12.8078 S   0  0  0  0  0  0  0  0  0  0  0  0
   44.3240   12.6329   10.3589 N   0  0  0  0  0  0  0  0  0  0  0  0
   43.9530   10.3120   10.0109 N   0  0  0  0  0  0  0  0  0  0  0  0
   44.6667   11.2879   10.4822 C   0  0  0  0  0  0  0  0  0  0  0  0
   45.9541   10.8933   11.1520 C   0  0  0  0  0  0  0  0  0  0  0  0
   47.3361    9.2695   12.3119 C   0  0  0  0  0  0  0  0  0  0  0  0
   46.1250    9.6674   11.6703 C   0  0  0  0  0  0  0  0  0  0  0  0
   43.0684   12.9993    9.7150 C   0  0  0  0  0  0  0  0  0  0  0  0
   42.6903   10.6104    9.3439 C   0  0  0  0  0  0  0  0  0  0  0  0
   42.7153   11.9643    8.6686 C   0  0  0  0  0  0  0  0  0  0  0  0
   48.4760    9.9869   12.6448 C   0  0  0  0  0  0  0  0  0  0  0  0
   44.9008   13.6595   11.2173 C   0  0  0  0  0  0  0  0  0  0  0  0
   49.0727    7.8901   13.4398 C   0  0  0  0  0  0  0  0  0  0  0  0
   49.4716    9.1974   13.2924 C   0  0  0  0  0  0  0  0  0  0  0  0
   48.7851   13.7852   11.5083 H   0  0  0  0  0  0  0  0  0  0  0  0
   46.3910   11.9817    8.2314 H   0  0  0  0  0  0  0  0  0  0  0  0
   52.1793   11.8341   11.7142 H   0  0  0  0  0  0  0  0  0  0  0  0
   44.0977   11.1177    5.1815 H   0  0  0  0  0  0  0  0  0  0  0  0
   44.8550   12.3023   12.8316 H   0  0  0  0  0  0  0  0  0  0  0  0
   45.5592   13.4050   11.7059 H   0  0  0  0  0  0  0  0  0  0  0  0
   49.8990    9.4194   12.1331 H   0  0  0  0  0  0  0  0  0  0  0  0
   41.9732   11.0280    7.7633 H   0  0  0  0  0  0  0  0  0  0  0  0
   44.3845    9.8665   12.4855 H   0  0  0  0  0  0  0  0  0  0  0  0
   42.8860   12.2223   13.1074 H   0  0  0  0  0  0  0  0  0  0  0  0
   48.6616    7.3972   12.5549 H   0  0  0  0  0  0  0  0  0  0  0  0
   40.0939   10.9238    9.2452 H   0  0  0  0  0  0  0  0  0  0  0  0
   44.4007    7.4732   12.8937 H   0  0  0  0  0  0  0  0  0  0  0  0
   40.5186   11.8151   13.4005 H   0  0  0  0  0  0  0  0  0  0  0  0
   46.5406    6.2168   12.9271 H   0  0  0  0  0  0  0  0  0  0  0  0
   39.1017   11.1521   11.4774 H   0  0  0  0  0  0  0  0  0  0  0  0
   46.7262   11.6475   11.1793 H   0  0  0  0  0  0  0  0  0  0  0  0
   45.3168    8.9414   11.5967 H   0  0  0  0  0  0  0  0  0  0  0  0
   42.2747   13.0716   10.4686 H   0  0  0  0  0  0  0  0  0  0  0  0
   43.1603   13.9791    9.2318 H   0  0  0  0  0  0  0  0  0  0  0  0
   42.5029    9.8382    8.5902 H   0  0  0  0  0  0  0  0  0  0  0  0
   41.8742   10.5513   10.0734 H   0  0  0  0  0  0  0  0  0  0  0  0
   43.4631   11.9681    7.8651 H   0  0  0  0  0  0  0  0  0  0  0  0
   41.7424   12.1879    8.2194 H   0  0  0  0  0  0  0  0  0  0  0  0
   48.6027   11.0425   12.4383 H   0  0  0  0  0  0  0  0  0  0  0  0
   45.9743   13.7642   11.0304 H   0  0  0  0  0  0  0  0  0  0  0  0
   44.7419   13.4127   12.2720 H   0  0  0  0  0  0  0  0  0  0  0  0
   44.4508   14.6416   11.0337 H   0  0  0  0  0  0  0  0  0  0  0  0
   49.6231    7.0759   13.8907 H   0  0  0  0  0  0  0  0  0  0  0  0
   50.4307    9.5717   13.6293 H   0  0  0  0  0  0  0  0  0  0  0  0
  1 11  1  0
  2 12  1  0
  3 22  2  0
  4 23  2  0
  5 22  1  0
  6 23  1  0
  7  9  1  0
  7 11  2  0
  7 13  1  0
  8 10  1  0
  8 12  2  0
  8 13  1  0
  9 14  2  0
  9 20  1  0
 10 15  2  0
 10 21  1  0
 11 16  1  0
 12 17  1  0
 14 18  1  0
 14 24  1  0
 15 19  1  0
 15 25  1  0
 16 18  2  0
 16 22  1  0
 17 19  2  0
 17 23  1  0
 20 26  2  0
 21 27  2  0
 24 28  2  0
 25 29  2  0
 26 28  1  0
 27 29  1  0
 30 35  1  0
 30 42  1  0
 31 33  1  0
 31 37  1  0
 31 41  1  0
 32 33  2  0
 32 38  1  0
 33 34  1  0
 34 36  2  0
 35 36  1  0
 35 40  2  0
 37 39  1  0
 38 39  1  0
 40 43  1  0
 42 43  2  0
  1 44  1  0
  2 45  1  0
  5 46  1  0
  6 47  1  0
 13 48  1  0
 13 49  1  0
 18 50  1  0
 19 51  1  0
 20 52  1  0
 21 53  1  0
 24 54  1  0
 25 55  1  0
 26 56  1  0
 27 57  1  0
 28 58  1  0
 29 59  1  0
 34 60  1  0
 36 61  1  0
 37 62  1  0
 37 63  1  0
 38 64  1  0
 38 65  1  0
 39 66  1  0
 39 67  1  0
 40 68  1  0
 41 69  1  0
 41 70  1  0
 41 71  1  0
 42 72  1  0
 43 73  1  0
M  END
> <Uni-Dock RESULT> 
ENERGY=   -5.472  LOWER_BOUND=    3.825  UPPER_BOUND=    7.136
INTER + INTRA:          -5.472
INTER:                  -5.472
INTRA:                   0.000
UNBOUND:                 0.000

$$$$

     RDKit          3D

 73 77  0  0  0  0  0  0  0  0999 V2000
   50.2121    5.6240   18.2024 O   0  0  0  0  0  0  0  0  0  0  0  0
   48.1750    6.3378   15.6958 O   0  0  0  0  0  0  0  0  0  0  0  0
   49.1661    4.1734   20.1219 O   0  0  0  0  0  0  0  0  0  0  0  0
   46.2716    5.8532   13.9598 O   0  0  0  0  0  0  0  0  0  0  0  0
   47.6697    5.1142   21.4956 O   0  0  0  0  0  0  0  0  0  0  0  0
   46.2387    7.0231   12.0516 O   0  0  0  0  0  0  0  0  0  0  0  0
   49.3652    7.8323   17.8909 C   0  0  0  0  0  0  0  0  0  0  0  0
   49.5787    8.2316   15.3189 C   0  0  0  0  0  0  0  0  0  0  0  0
   48.5505    8.9185   18.3435 C   0  0  0  0  0  0  0  0  0  0  0  0
   50.0173    9.2925   14.4557 C   0  0  0  0  0  0  0  0  0  0  0  0
   49.3514    6.6168   18.6111 C   0  0  0  0  0  0  0  0  0  0  0  0
   48.5189    7.3981   14.8924 C   0  0  0  0  0  0  0  0  0  0  0  0
   50.2659    7.9499   16.6592 C   0  0  0  0  0  0  0  0  0  0  0  0
   47.6940    8.7195   19.4582 C   0  0  0  0  0  0  0  0  0  0  0  0
   49.3223    9.5167   13.2366 C   0  0  0  0  0  0  0  0  0  0  0  0
   48.5006    6.4355   19.7109 C   0  0  0  0  0  0  0  0  0  0  0  0
   47.8519    7.6305   13.6812 C   0  0  0  0  0  0  0  0  0  0  0  0
   47.6705    7.4840   20.1170 C   0  0  0  0  0  0  0  0  0  0  0  0
   48.2516    8.6935   12.8704 C   0  0  0  0  0  0  0  0  0  0  0  0
   48.5429   10.2064   17.7584 C   0  0  0  0  0  0  0  0  0  0  0  0
   51.1087   10.1577   14.7254 C   0  0  0  0  0  0  0  0  0  0  0  0
   48.4915    5.1417   20.4333 C   0  0  0  0  0  0  0  0  0  0  0  0
   46.7291    6.7532   13.2736 C   0  0  0  0  0  0  0  0  0  0  0  0
   46.8677    9.7606   19.9160 C   0  0  0  0  0  0  0  0  0  0  0  0
   49.6982   10.5650   12.3795 C   0  0  0  0  0  0  0  0  0  0  0  0
   47.7200   11.2349   18.2259 C   0  0  0  0  0  0  0  0  0  0  0  0
   51.4732   11.1958   13.8627 C   0  0  0  0  0  0  0  0  0  0  0  0
   46.8779   11.0100   19.3033 C   0  0  0  0  0  0  0  0  0  0  0  0
   50.7641   11.4030   12.6911 C   0  0  0  0  0  0  0  0  0  0  0  0
   46.8699   10.2484   20.0004 S   0  0  0  0  0  0  0  0  0  0  0  0
   49.8236    7.6495   14.9241 N   0  0  0  0  0  0  0  0  0  0  0  0
   48.0618    9.2429   14.9729 N   0  0  0  0  0  0  0  0  0  0  0  0
   48.8434    8.3981   15.5724 C   0  0  0  0  0  0  0  0  0  0  0  0
   48.6055    8.2187   17.0465 C   0  0  0  0  0  0  0  0  0  0  0  0
   47.7772    9.0275   19.1800 C   0  0  0  0  0  0  0  0  0  0  0  0
   48.0126    9.1732   17.7799 C   0  0  0  0  0  0  0  0  0  0  0  0
   50.0485    7.8411   13.4965 C   0  0  0  0  0  0  0  0  0  0  0  0
   48.2258    9.4730   13.5417 C   0  0  0  0  0  0  0  0  0  0  0  0
   48.7514    8.2456   12.8297 C   0  0  0  0  0  0  0  0  0  0  0  0
   48.1597    8.0399   20.0762 C   0  0  0  0  0  0  0  0  0  0  0  0
   50.9284    7.0318   15.6462 C   0  0  0  0  0  0  0  0  0  0  0  0
   46.9966    9.4518   21.5041 C   0  0  0  0  0  0  0  0  0  0  0  0
   47.7138    8.2827   21.4090 C   0  0  0  0  0  0  0  0  0  0  0  0
   50.0455    4.8104   18.7242 H   0  0  0  0  0  0  0  0  0  0  0  0
   47.3900    5.8783   15.3287 H   0  0  0  0  0  0  0  0  0  0  0  0
   47.7775    4.2131   21.8657 H   0  0  0  0  0  0  0  0  0  0  0  0
   45.5172    6.3703   11.9289 H   0  0  0  0  0  0  0  0  0  0  0  0
   51.0045    8.7118   16.9198 H   0  0  0  0  0  0  0  0  0  0  0  0
   50.8623    7.0431   16.5020 H   0  0  0  0  0  0  0  0  0  0  0  0
   47.0062    7.3444   20.9676 H   0  0  0  0  0  0  0  0  0  0  0  0
   47.7302    8.8783   11.9330 H   0  0  0  0  0  0  0  0  0  0  0  0
   49.1918   10.4406   16.9216 H   0  0  0  0  0  0  0  0  0  0  0  0
   51.7099   10.0461   15.6232 H   0  0  0  0  0  0  0  0  0  0  0  0
   46.2052    9.6062   20.7660 H   0  0  0  0  0  0  0  0  0  0  0  0
   49.1595   10.7391   11.4502 H   0  0  0  0  0  0  0  0  0  0  0  0
   47.7446   12.2083   17.7435 H   0  0  0  0  0  0  0  0  0  0  0  0
   52.3124   11.8387   14.1132 H   0  0  0  0  0  0  0  0  0  0  0  0
   46.2346   11.8041   19.6710 H   0  0  0  0  0  0  0  0  0  0  0  0
   51.0386   12.2103   12.0191 H   0  0  0  0  0  0  0  0  0  0  0  0
   48.9293    7.2794   17.4693 H   0  0  0  0  0  0  0  0  0  0  0  0
   47.6902   10.0933   17.2950 H   0  0  0  0  0  0  0  0  0  0  0  0
   50.8162    8.6095   13.3438 H   0  0  0  0  0  0  0  0  0  0  0  0
   50.4103    6.9122   13.0402 H   0  0  0  0  0  0  0  0  0  0  0  0
   47.2525    9.7429   13.1180 H   0  0  0  0  0  0  0  0  0  0  0  0
   48.8913   10.3303   13.3880 H   0  0  0  0  0  0  0  0  0  0  0  0
   48.0196    7.4303   12.8993 H   0  0  0  0  0  0  0  0  0  0  0  0
   48.9143    8.4573   11.7680 H   0  0  0  0  0  0  0  0  0  0  0  0
   48.7413    7.1695   19.7984 H   0  0  0  0  0  0  0  0  0  0  0  0
   50.5640    6.2467   16.3164 H   0  0  0  0  0  0  0  0  0  0  0  0
   51.4717    7.7807   16.2315 H   0  0  0  0  0  0  0  0  0  0  0  0
   51.6442    6.5584   14.9647 H   0  0  0  0  0  0  0  0  0  0  0  0
   46.5406    9.8798   22.3861 H   0  0  0  0  0  0  0  0  0  0  0  0
   47.9086    7.6304   22.2515 H   0  0  0  0  0  0  0  0  0  0  0  0
  1 11  1  0
  2 12  1  0
  3 22  2  0
  4 23  2  0
  5 22  1  0
  6 23  1  0
  7  9  1  0
  7 11  2  0
  7 13  1  0
  8 10  1  0
  8 12  2  0
  8 13  1  0
  9 14  2  0
  9 20  1  0
 10 15  2  0
 10 21  1  0
 11 16  1  0
 12 17  1  0
 14 18  1  0
 14 24  1  0
 15 19  1  0
 15 25  1  0
 16 18  2  0
 16 22  1  0
 17 19  2  0
 17 23  1  0
 20 26  2  0
 21 27  2  0
 24 28  2  0
 25 29  2  0
 26 28  1  0
 27 29  1  0
 30 35  1  0
 30 42  1  0
 31 33  1  0
 31 37  1  0
 31 41  1  0
 32 33  2  0
 32 38  1  0
 33 34  1  0
 34 36  2  0
 35 36  1  0
 35 40  2  0
 37 39  1  0
 38 39  1  0
 40 43  1  0
 42 43  2  0
  1 44  1  0
  2 45  1  0
  5 46  1  0
  6 47  1  0
 13 48  1  0
 13 49  1  0
 18 50  1  0
 19 51  1  0
 20 52  1  0
 21 53  1  0
 24 54  1  0
 25 55  1  0
 26 56  1  0
 27 57  1  0
 28 58  1  0
 29 59  1  0
 34 60  1  0
 36 61  1  0
 37 62  1  0
 37 63  1  0
 38 64  1  0
 38 65  1  0
 39 66  1  0
 39 67  1  0
 40 68  1  0
 41 69  1  0
 41 70  1  0
 41 71  1  0
 42 72  1  0
 43 73  1  0
M  END
> <Uni-Dock RESULT> 
ENERGY=   -5.466  LOWER_BOUND=    3.760  UPPER_BOUND=    5.784
INTER + INTRA:          -5.466
INTER:                  -5.466
INTRA:                   0.000
UNBOUND:                 0.000

$$$$

     RDKit          3D

 73 77  0  0  0  0  0  0  0  0999 V2000
   46.9849    8.8474   21.9455 O   0  0  0  0  0  0  0  0  0  0  0  0
   49.8615   10.2409   21.0939 O   0  0  0  0  0  0  0  0  0  0  0  0
   47.1717    6.4920   23.0859 O   0  0  0  0  0  0  0  0  0  0  0  0
   52.3917   10.8574   21.3929 O   0  0  0  0  0  0  0  0  0  0  0  0
   47.7522    4.7281   21.8357 O   0  0  0  0  0  0  0  0  0  0  0  0
   53.1790   12.6816   20.3617 O   0  0  0  0  0  0  0  0  0  0  0  0
   47.6386    9.0297   19.6585 C   0  0  0  0  0  0  0  0  0  0  0  0
   48.5987   11.4510   19.4692 C   0  0  0  0  0  0  0  0  0  0  0  0
   48.0302    8.4050   18.4318 C   0  0  0  0  0  0  0  0  0  0  0  0
   48.4990   12.5491   18.5487 C   0  0  0  0  0  0  0  0  0  0  0  0
   47.4472    8.2287   20.8066 C   0  0  0  0  0  0  0  0  0  0  0  0
   49.8177   11.2435   20.1554 C   0  0  0  0  0  0  0  0  0  0  0  0
   47.4036   10.5383   19.7639 C   0  0  0  0  0  0  0  0  0  0  0  0
   48.2892    7.0092   18.4213 C   0  0  0  0  0  0  0  0  0  0  0  0
   49.6509   13.3436   18.3014 C   0  0  0  0  0  0  0  0  0  0  0  0
   47.7062    6.8509   20.7805 C   0  0  0  0  0  0  0  0  0  0  0  0
   50.9404   12.0448   19.9039 C   0  0  0  0  0  0  0  0  0  0  0  0
   48.1367    6.2555   19.5917 C   0  0  0  0  0  0  0  0  0  0  0  0
   50.8505   13.0793   18.9718 C   0  0  0  0  0  0  0  0  0  0  0  0
   48.1702    9.0865   17.2000 C   0  0  0  0  0  0  0  0  0  0  0  0
   47.3214   12.9135   17.8466 C   0  0  0  0  0  0  0  0  0  0  0  0
   47.5179    6.0398   22.0064 C   0  0  0  0  0  0  0  0  0  0  0  0
   52.2107   11.7865   20.6222 C   0  0  0  0  0  0  0  0  0  0  0  0
   48.6932    6.3689   17.2368 C   0  0  0  0  0  0  0  0  0  0  0  0
   49.6050   14.4066   17.3833 C   0  0  0  0  0  0  0  0  0  0  0  0
   48.5681    8.4375   16.0278 C   0  0  0  0  0  0  0  0  0  0  0  0
   47.2892   13.9749   16.9371 C   0  0  0  0  0  0  0  0  0  0  0  0
   48.8345    7.0777   16.0476 C   0  0  0  0  0  0  0  0  0  0  0  0
   48.4333   14.7189   16.7013 C   0  0  0  0  0  0  0  0  0  0  0  0
   48.6002    6.3587   16.7507 S   0  0  0  0  0  0  0  0  0  0  0  0
   48.6280   11.8342   20.1071 N   0  0  0  0  0  0  0  0  0  0  0  0
   49.9857   11.2071   18.2609 N   0  0  0  0  0  0  0  0  0  0  0  0
   49.1106   10.9183   19.1745 C   0  0  0  0  0  0  0  0  0  0  0  0
   48.6568    9.4851   19.2164 C   0  0  0  0  0  0  0  0  0  0  0  0
   48.3118    7.3325   18.1491 C   0  0  0  0  0  0  0  0  0  0  0  0
   48.7372    8.6947   18.1351 C   0  0  0  0  0  0  0  0  0  0  0  0
   49.0704   13.2221   20.0481 C   0  0  0  0  0  0  0  0  0  0  0  0
   50.4793   12.5758   18.1547 C   0  0  0  0  0  0  0  0  0  0  0  0
   50.4774   13.2815   19.4933 C   0  0  0  0  0  0  0  0  0  0  0  0
   47.6658    6.5836   19.1220 C   0  0  0  0  0  0  0  0  0  0  0  0
   47.3875   11.6118   20.8387 C   0  0  0  0  0  0  0  0  0  0  0  0
   47.8777    4.9828   17.4554 C   0  0  0  0  0  0  0  0  0  0  0  0
   47.4154    5.2369   18.7250 C   0  0  0  0  0  0  0  0  0  0  0  0
   46.9768    8.2054   22.6870 H   0  0  0  0  0  0  0  0  0  0  0  0
   50.7713   10.1530   21.4499 H   0  0  0  0  0  0  0  0  0  0  0  0
   47.5823    4.3322   22.7160 H   0  0  0  0  0  0  0  0  0  0  0  0
   53.9405   12.3810   20.9019 H   0  0  0  0  0  0  0  0  0  0  0  0
   46.5517   10.7388   19.1097 H   0  0  0  0  0  0  0  0  0  0  0  0
   47.0483   10.8271   20.7604 H   0  0  0  0  0  0  0  0  0  0  0  0
   48.3425    5.1871   19.5699 H   0  0  0  0  0  0  0  0  0  0  0  0
   51.7235   13.6978   18.7714 H   0  0  0  0  0  0  0  0  0  0  0  0
   47.9615   10.1481   17.1252 H   0  0  0  0  0  0  0  0  0  0  0  0
   46.3887   12.3754   17.9898 H   0  0  0  0  0  0  0  0  0  0  0  0
   48.8992    5.2998   17.2300 H   0  0  0  0  0  0  0  0  0  0  0  0
   50.4906   15.0087   17.1903 H   0  0  0  0  0  0  0  0  0  0  0  0
   48.6659    9.0016   15.1043 H   0  0  0  0  0  0  0  0  0  0  0  0
   46.3661   14.2140   16.4164 H   0  0  0  0  0  0  0  0  0  0  0  0
   49.1457    6.5670   15.1409 H   0  0  0  0  0  0  0  0  0  0  0  0
   48.4167   15.5413   15.9927 H   0  0  0  0  0  0  0  0  0  0  0  0
   48.2764    9.1346   20.1643 H   0  0  0  0  0  0  0  0  0  0  0  0
   49.1471    9.0983   17.2105 H   0  0  0  0  0  0  0  0  0  0  0  0
   48.3836   13.8018   19.4195 H   0  0  0  0  0  0  0  0  0  0  0  0
   49.0624   13.6670   21.0501 H   0  0  0  0  0  0  0  0  0  0  0  0
   51.5031   12.5483   17.7664 H   0  0  0  0  0  0  0  0  0  0  0  0
   49.8733   13.1222   17.4227 H   0  0  0  0  0  0  0  0  0  0  0  0
   51.1760   12.7852   20.1792 H   0  0  0  0  0  0  0  0  0  0  0  0
   50.8027   14.3207   19.3805 H   0  0  0  0  0  0  0  0  0  0  0  0
   47.3755    6.9771   20.0884 H   0  0  0  0  0  0  0  0  0  0  0  0
   47.4818   10.7535   21.5116 H   0  0  0  0  0  0  0  0  0  0  0  0
   46.5585   11.4359   20.1455 H   0  0  0  0  0  0  0  0  0  0  0  0
   47.1236   12.4740   21.4614 H   0  0  0  0  0  0  0  0  0  0  0  0
   47.8250    4.0540   16.9043 H   0  0  0  0  0  0  0  0  0  0  0  0
   46.9236    4.4947   19.3420 H   0  0  0  0  0  0  0  0  0  0  0  0
  1 11  1  0
  2 12  1  0
  3 22  2  0
  4 23  2  0
  5 22  1  0
  6 23  1  0
  7  9  1  0
  7 11  2  0
  7 13  1  0
  8 10  1  0
  8 12  2  0
  8 13  1  0
  9 14  2  0
  9 20  1  0
 10 15  2  0
 10 21  1  0
 11 16  1  0
 12 17  1  0
 14 18  1  0
 14 24  1  0
 15 19  1  0
 15 25  1  0
 16 18  2  0
 16 22  1  0
 17 19  2  0
 17 23  1  0
 20 26  2  0
 21 27  2  0
 24 28  2  0
 25 29  2  0
 26 28  1  0
 27 29  1  0
 30 35  1  0
 30 42  1  0
 31 33  1  0
 31 37  1  0
 31 41  1  0
 32 33  2  0
 32 38  1  0
 33 34  1  0
 34 36  2  0
 35 36  1  0
 35 40  2  0
 37 39  1  0
 38 39  1  0
 40 43  1  0
 42 43  2  0
  1 44  1  0
  2 45  1  0
  5 46  1  0
  6 47  1  0
 13 48  1  0
 13 49  1  0
 18 50  1  0
 19 51  1  0
 20 52  1  0
 21 53  1  0
 24 54  1  0
 25 55  1  0
 26 56  1  0
 27 57  1  0
 28 58  1  0
 29 59  1  0
 34 60  1  0
 36 61  1  0
 37 62  1  0
 37 63  1  0
 38 64  1  0
 38 65  1  0
 39 66  1  0
 39 67  1  0
 40 68  1  0
 41 69  1  0
 41 70  1  0
 41 71  1  0
 42 72  1  0
 43 73  1  0
M  END
> <Uni-Dock RESULT> 
ENERGY=   -5.364  LOWER_BOUND=    5.566  UPPER_BOUND=    7.289
INTER + INTRA:          -5.364
INTER:                  -5.364
INTRA:                   0.000
UNBOUND:                 0.000

$$$$

     RDKit          3D

 73 77  0  0  0  0  0  0  0  0999 V2000
   50.0789    2.5959   17.2225 O   0  0  0  0  0  0  0  0  0  0  0  0
   49.2607    4.3412   19.9108 O   0  0  0  0  0  0  0  0  0  0  0  0
   51.4938    0.4333   17.6749 O   0  0  0  0  0  0  0  0  0  0  0  0
   48.5169    4.6711   22.4026 O   0  0  0  0  0  0  0  0  0  0  0  0
   53.6357    0.6510   18.2883 O   0  0  0  0  0  0  0  0  0  0  0  0
   47.4753    6.5703   22.9673 O   0  0  0  0  0  0  0  0  0  0  0  0
   51.0951    4.7048   17.6811 C   0  0  0  0  0  0  0  0  0  0  0  0
   49.1019    6.2131   18.4377 C   0  0  0  0  0  0  0  0  0  0  0  0
   52.2564    5.4687   18.0224 C   0  0  0  0  0  0  0  0  0  0  0  0
   48.6445    7.5508   18.1842 C   0  0  0  0  0  0  0  0  0  0  0  0
   51.1877    3.2955   17.6405 C   0  0  0  0  0  0  0  0  0  0  0  0
   48.8929    5.6511   19.7185 C   0  0  0  0  0  0  0  0  0  0  0  0
   49.7575    5.3665   17.3416 C   0  0  0  0  0  0  0  0  0  0  0  0
   53.4478    4.7868   18.3846 C   0  0  0  0  0  0  0  0  0  0  0  0
   48.0662    8.2916   19.2501 C   0  0  0  0  0  0  0  0  0  0  0  0
   52.3717    2.6362   18.0001 C   0  0  0  0  0  0  0  0  0  0  0  0
   48.3117    6.3959   20.7545 C   0  0  0  0  0  0  0  0  0  0  0  0
   53.4873    3.3870   18.3809 C   0  0  0  0  0  0  0  0  0  0  0  0
   47.9144    7.7118   20.5145 C   0  0  0  0  0  0  0  0  0  0  0  0
   52.3107    6.8823   18.0145 C   0  0  0  0  0  0  0  0  0  0  0  0
   48.7267    8.2114   16.9314 C   0  0  0  0  0  0  0  0  0  0  0  0
   52.4323    1.1558   17.9694 C   0  0  0  0  0  0  0  0  0  0  0  0
   48.1281    5.7858   22.0926 C   0  0  0  0  0  0  0  0  0  0  0  0
   54.6001    5.5080   18.7428 C   0  0  0  0  0  0  0  0  0  0  0  0
   47.6363    9.6149   19.0527 C   0  0  0  0  0  0  0  0  0  0  0  0
   53.4643    7.5879   18.3682 C   0  0  0  0  0  0  0  0  0  0  0  0
   48.2933    9.5281   16.7486 C   0  0  0  0  0  0  0  0  0  0  0  0
   54.6089    6.8996   18.7373 C   0  0  0  0  0  0  0  0  0  0  0  0
   47.7524   10.2323   17.8114 C   0  0  0  0  0  0  0  0  0  0  0  0
   54.8636    5.9066   18.6133 S   0  0  0  0  0  0  0  0  0  0  0  0
   48.4425    5.8704   18.4874 N   0  0  0  0  0  0  0  0  0  0  0  0
   49.9040    7.2623   19.7412 N   0  0  0  0  0  0  0  0  0  0  0  0
   49.6974    6.2438   18.9640 C   0  0  0  0  0  0  0  0  0  0  0  0
   50.9109    5.4228   18.6245 C   0  0  0  0  0  0  0  0  0  0  0  0
   53.3124    5.1872   18.3616 C   0  0  0  0  0  0  0  0  0  0  0  0
   52.1458    5.9449   18.6803 C   0  0  0  0  0  0  0  0  0  0  0  0
   47.2769    6.6814   18.8177 C   0  0  0  0  0  0  0  0  0  0  0  0
   48.7780    8.1089   20.1202 C   0  0  0  0  0  0  0  0  0  0  0  0
   47.4799    7.3327   20.1688 C   0  0  0  0  0  0  0  0  0  0  0  0
   53.4625    3.9057   17.8515 C   0  0  0  0  0  0  0  0  0  0  0  0
   48.2827    5.0025   17.3278 C   0  0  0  0  0  0  0  0  0  0  0  0
   55.6904    4.5228   18.0538 C   0  0  0  0  0  0  0  0  0  0  0  0
   54.8252    3.5243   17.6736 C   0  0  0  0  0  0  0  0  0  0  0  0
   50.2423    1.6337   17.3205 H   0  0  0  0  0  0  0  0  0  0  0  0
   49.1286    4.0891   20.8494 H   0  0  0  0  0  0  0  0  0  0  0  0
   53.5207   -0.3198   18.2176 H   0  0  0  0  0  0  0  0  0  0  0  0
   47.4329    6.0363   23.7889 H   0  0  0  0  0  0  0  0  0  0  0  0
   49.9469    5.9365   16.4288 H   0  0  0  0  0  0  0  0  0  0  0  0
   49.0019    4.6296   17.0439 H   0  0  0  0  0  0  0  0  0  0  0  0
   54.4061    2.8775   18.6646 H   0  0  0  0  0  0  0  0  0  0  0  0
   47.4689    8.2927   21.3201 H   0  0  0  0  0  0  0  0  0  0  0  0
   51.4479    7.4701   17.7209 H   0  0  0  0  0  0  0  0  0  0  0  0
   49.1347    7.7143   16.0560 H   0  0  0  0  0  0  0  0  0  0  0  0
   55.5117    4.9855   19.0279 H   0  0  0  0  0  0  0  0  0  0  0  0
   47.2006   10.1825   19.8726 H   0  0  0  0  0  0  0  0  0  0  0  0
   53.4597    8.6743   18.3510 H   0  0  0  0  0  0  0  0  0  0  0  0
   48.3821    9.9968   15.7725 H   0  0  0  0  0  0  0  0  0  0  0  0
   55.5085    7.4412   19.0149 H   0  0  0  0  0  0  0  0  0  0  0  0
   47.4184   11.2567   17.6777 H   0  0  0  0  0  0  0  0  0  0  0  0
   50.7272    4.3958   18.3465 H   0  0  0  0  0  0  0  0  0  0  0  0
   52.2713    6.9826   18.9856 H   0  0  0  0  0  0  0  0  0  0  0  0
   47.1250    7.4421   18.0422 H   0  0  0  0  0  0  0  0  0  0  0  0
   46.3765    6.0569   18.8538 H   0  0  0  0  0  0  0  0  0  0  0  0
   48.9782    8.5332   21.1099 H   0  0  0  0  0  0  0  0  0  0  0  0
   48.7063    8.9489   19.4196 H   0  0  0  0  0  0  0  0  0  0  0  0
   47.5305    6.5674   20.9541 H   0  0  0  0  0  0  0  0  0  0  0  0
   46.6430    7.9977   20.4049 H   0  0  0  0  0  0  0  0  0  0  0  0
   52.6315    3.2552   17.6081 H   0  0  0  0  0  0  0  0  0  0  0  0
   48.6640    3.9982   17.5386 H   0  0  0  0  0  0  0  0  0  0  0  0
   48.8133    5.4143   16.4632 H   0  0  0  0  0  0  0  0  0  0  0  0
   47.2292    4.8884   17.0486 H   0  0  0  0  0  0  0  0  0  0  0  0
   56.7712    4.5083   18.0290 H   0  0  0  0  0  0  0  0  0  0  0  0
   55.1506    2.5655   17.2887 H   0  0  0  0  0  0  0  0  0  0  0  0
  1 11  1  0
  2 12  1  0
  3 22  2  0
  4 23  2  0
  5 22  1  0
  6 23  1  0
  7  9  1  0
  7 11  2  0
  7 13  1  0
  8 10  1  0
  8 12  2  0
  8 13  1  0
  9 14  2  0
  9 20  1  0
 10 15  2  0
 10 21  1  0
 11 16  1  0
 12 17  1  0
 14 18  1  0
 14 24  1  0
 15 19  1  0
 15 25  1  0
 16 18  2  0
 16 22  1  0
 17 19  2  0
 17 23  1  0
 20 26  2  0
 21 27  2  0
 24 28  2  0
 25 29  2  0
 26 28  1  0
 27 29  1  0
 30 35  1  0
 30 42  1  0
 31 33  1  0
 31 37  1  0
 31 41  1  0
 32 33  2  0
 32 38  1  0
 33 34  1  0
 34 36  2  0
 35 36  1  0
 35 40  2  0
 37 39  1  0
 38 39  1  0
 40 43  1  0
 42 43  2  0
  1 44  1  0
  2 45  1  0
  5 46  1  0
  6 47  1  0
 13 48  1  0
 13 49  1  0
 18 50  1  0
 19 51  1  0
 20 52  1  0
 21 53  1  0
 24 54  1  0
 25 55  1  0
 26 56  1  0
 27 57  1  0
 28 58  1  0
 29 59  1  0
 34 60  1  0
 36 61  1  0
 37 62  1  0
 37 63  1  0
 38 64  1  0
 38 65  1  0
 39 66  1  0
 39 67  1  0
 40 68  1  0
 41 69  1  0
 41 70  1  0
 41 71  1  0
 42 72  1  0
 43 73  1  0
M  END
> <Uni-Dock RESULT> 
ENERGY=   -5.076  LOWER_BOUND=    5.870  UPPER_BOUND=    8.914
INTER + INTRA:          -5.076
INTER:                  -5.076
INTRA:                   0.000
UNBOUND:                 0.000

$$$$

     RDKit          3D

 73 77  0  0  0  0  0  0  0  0999 V2000
   47.2128   11.8126   11.4251 O   0  0  0  0  0  0  0  0  0  0  0  0
   48.3838   11.3243   14.4801 O   0  0  0  0  0  0  0  0  0  0  0  0
   44.6553   12.3793   11.2797 O   0  0  0  0  0  0  0  0  0  0  0  0
   48.5866   11.7738   17.0546 O   0  0  0  0  0  0  0  0  0  0  0  0
   43.1639   10.7592   11.6829 O   0  0  0  0  0  0  0  0  0  0  0  0
   50.4818   11.1968   18.0969 O   0  0  0  0  0  0  0  0  0  0  0  0
   47.8271    9.6338   12.1776 C   0  0  0  0  0  0  0  0  0  0  0  0
   50.0843   10.0150   13.4347 C   0  0  0  0  0  0  0  0  0  0  0  0
   47.4541    8.2985   12.5329 C   0  0  0  0  0  0  0  0  0  0  0  0
   51.3670    9.3724   13.5039 C   0  0  0  0  0  0  0  0  0  0  0  0
   46.8165   10.5645   11.8481 C   0  0  0  0  0  0  0  0  0  0  0  0
   49.5713   10.6425   14.5935 C   0  0  0  0  0  0  0  0  0  0  0  0
   49.2892   10.0833   12.1266 C   0  0  0  0  0  0  0  0  0  0  0  0
   46.0762    7.9675   12.6183 C   0  0  0  0  0  0  0  0  0  0  0  0
   52.0428    9.3227   14.7530 C   0  0  0  0  0  0  0  0  0  0  0  0
   45.4595   10.2226   11.9363 C   0  0  0  0  0  0  0  0  0  0  0  0
   50.2583   10.5900   15.8147 C   0  0  0  0  0  0  0  0  0  0  0  0
   45.1011    8.9312   12.3325 C   0  0  0  0  0  0  0  0  0  0  0  0
   51.4811    9.9215   15.8862 C   0  0  0  0  0  0  0  0  0  0  0  0
   48.3751    7.2583   12.7997 C   0  0  0  0  0  0  0  0  0  0  0  0
   52.0298    8.7660   12.4060 C   0  0  0  0  0  0  0  0  0  0  0  0
   44.4210   11.2268   11.6059 C   0  0  0  0  0  0  0  0  0  0  0  0
   49.6824   11.2374   17.0170 C   0  0  0  0  0  0  0  0  0  0  0  0
   45.6768    6.6697   12.9825 C   0  0  0  0  0  0  0  0  0  0  0  0
   53.2842    8.6746   14.8711 C   0  0  0  0  0  0  0  0  0  0  0  0
   47.9653    5.9705   13.1564 C   0  0  0  0  0  0  0  0  0  0  0  0
   53.2659    8.1260   12.5372 C   0  0  0  0  0  0  0  0  0  0  0  0
   46.6143    5.6774   13.2524 C   0  0  0  0  0  0  0  0  0  0  0  0
   53.8914    8.0757   13.7719 C   0  0  0  0  0  0  0  0  0  0  0  0
   45.7899    6.1938   12.9064 S   0  0  0  0  0  0  0  0  0  0  0  0
   50.3048   10.7244   13.4881 N   0  0  0  0  0  0  0  0  0  0  0  0
   49.9472    8.7919   14.8234 N   0  0  0  0  0  0  0  0  0  0  0  0
   49.5719    9.6085   13.8873 C   0  0  0  0  0  0  0  0  0  0  0  0
   48.2372    9.3154   13.2593 C   0  0  0  0  0  0  0  0  0  0  0  0
   46.4475    7.7775   12.6903 C   0  0  0  0  0  0  0  0  0  0  0  0
   47.7110    8.0812   13.2804 C   0  0  0  0  0  0  0  0  0  0  0  0
   51.6011   10.9903   14.0999 C   0  0  0  0  0  0  0  0  0  0  0  0
   51.2292    9.0079   15.4853 C   0  0  0  0  0  0  0  0  0  0  0  0
   51.6050   10.4732   15.5224 C   0  0  0  0  0  0  0  0  0  0  0  0
   45.5853    8.5470   11.9226 C   0  0  0  0  0  0  0  0  0  0  0  0
   50.0819   11.3769   12.2044 C   0  0  0  0  0  0  0  0  0  0  0  0
   44.3937    6.5571   11.9952 C   0  0  0  0  0  0  0  0  0  0  0  0
   44.4082    7.8481   11.5227 C   0  0  0  0  0  0  0  0  0  0  0  0
   46.4250   12.3857   11.3116 H   0  0  0  0  0  0  0  0  0  0  0  0
   48.1012   11.6562   15.3588 H   0  0  0  0  0  0  0  0  0  0  0  0
   42.6026   11.5231   11.4341 H   0  0  0  0  0  0  0  0  0  0  0  0
   49.9708   11.6578   18.7957 H   0  0  0  0  0  0  0  0  0  0  0  0
   49.7411    9.4876   11.3298 H   0  0  0  0  0  0  0  0  0  0  0  0
   49.3859   11.1172   11.7742 H   0  0  0  0  0  0  0  0  0  0  0  0
   44.0485    8.6646   12.4058 H   0  0  0  0  0  0  0  0  0  0  0  0
   52.0119    9.8750   16.8353 H   0  0  0  0  0  0  0  0  0  0  0  0
   49.4435    7.4294   12.7261 H   0  0  0  0  0  0  0  0  0  0  0  0
   51.5972    8.7750   11.4096 H   0  0  0  0  0  0  0  0  0  0  0  0
   44.6203    6.4176   13.0555 H   0  0  0  0  0  0  0  0  0  0  0  0
   53.7960    8.6315   15.8305 H   0  0  0  0  0  0  0  0  0  0  0  0
   48.7081    5.2029   13.3558 H   0  0  0  0  0  0  0  0  0  0  0  0
   53.7338    7.6687   11.6699 H   0  0  0  0  0  0  0  0  0  0  0  0
   46.2886    4.6793   13.5305 H   0  0  0  0  0  0  0  0  0  0  0  0
   54.8490    7.5761   13.8820 H   0  0  0  0  0  0  0  0  0  0  0  0
   47.7313   10.1542   12.8051 H   0  0  0  0  0  0  0  0  0  0  0  0
   48.2590    7.2775   13.7696 H   0  0  0  0  0  0  0  0  0  0  0  0
   52.3921   10.5082   13.5126 H   0  0  0  0  0  0  0  0  0  0  0  0
   51.8028   12.0679   14.1109 H   0  0  0  0  0  0  0  0  0  0  0  0
   51.1601    8.6303   16.5111 H   0  0  0  0  0  0  0  0  0  0  0  0
   52.0012    8.4180   14.9777 H   0  0  0  0  0  0  0  0  0  0  0  0
   50.8799   11.0304   16.1297 H   0  0  0  0  0  0  0  0  0  0  0  0
   52.5920   10.6056   15.9771 H   0  0  0  0  0  0  0  0  0  0  0  0
   45.7816    9.5762   11.6486 H   0  0  0  0  0  0  0  0  0  0  0  0
   49.0879   11.8339   12.1681 H   0  0  0  0  0  0  0  0  0  0  0  0
   50.1765   10.6565   11.3853 H   0  0  0  0  0  0  0  0  0  0  0  0
   50.8058   12.1801   12.0265 H   0  0  0  0  0  0  0  0  0  0  0  0
   43.6298    5.8061   11.8484 H   0  0  0  0  0  0  0  0  0  0  0  0
   43.6141    8.2739   10.9215 H   0  0  0  0  0  0  0  0  0  0  0  0
  1 11  1  0
  2 12  1  0
  3 22  2  0
  4 23  2  0
  5 22  1  0
  6 23  1  0
  7  9  1  0
  7 11  2  0
  7 13  1  0
  8 10  1  0
  8 12  2  0
  8 13  1  0
  9 14  2  0
  9 20  1  0
 10 15  2  0
 10 21  1  0
 11 16  1  0
 12 17  1  0
 14 18  1  0
 14 24  1  0
 15 19  1  0
 15 25  1  0
 16 18  2  0
 16 22  1  0
 17 19  2  0
 17 23  1  0
 20 26  2  0
 21 27  2  0
 24 28  2  0
 25 29  2  0
 26 28  1  0
 27 29  1  0
 30 35  1  0
 30 42  1  0
 31 33  1  0
 31 37  1  0
 31 41  1  0
 32 33  2  0
 32 38  1  0
 33 34  1  0
 34 36  2  0
 35 36  1  0
 35 40  2  0
 37 39  1  0
 38 39  1  0
 40 43  1  0
 42 43  2  0
  1 44  1  0
  2 45  1  0
  5 46  1  0
  6 47  1  0
 13 48  1  0
 13 49  1  0
 18 50  1  0
 19 51  1  0
 20 52  1  0
 21 53  1  0
 24 54  1  0
 25 55  1  0
 26 56  1  0
 27 57  1  0
 28 58  1  0
 29 59  1  0
 34 60  1  0
 36 61  1  0
 37 62  1  0
 37 63  1  0
 38 64  1  0
 38 65  1  0
 39 66  1  0
 39 67  1  0
 40 68  1  0
 41 69  1  0
 41 70  1  0
 41 71  1  0
 42 72  1  0
 43 73  1  0
M  END
> <Uni-Dock RESULT> 
ENERGY=   -5.067  LOWER_BOUND=    2.850  UPPER_BOUND=    4.684
INTER + INTRA:          -5.067
INTER:                  -5.067
INTRA:                   0.000
UNBOUND:                 0.000

$$$$

     RDKit          3D

 73 77  0  0  0  0  0  0  0  0999 V2000
   48.7165   10.6339   15.2396 O   0  0  0  0  0  0  0  0  0  0  0  0
   51.0480    8.9507   16.8747 O   0  0  0  0  0  0  0  0  0  0  0  0
   49.0223   13.2395   15.2129 O   0  0  0  0  0  0  0  0  0  0  0  0
   53.4875    8.4276   17.6788 O   0  0  0  0  0  0  0  0  0  0  0  0
   48.6515   14.3912   17.0964 O   0  0  0  0  0  0  0  0  0  0  0  0
   53.9912    6.3307   18.2790 O   0  0  0  0  0  0  0  0  0  0  0  0
   48.2466    9.5915   17.3332 C   0  0  0  0  0  0  0  0  0  0  0  0
   49.3921    7.2523   17.1432 C   0  0  0  0  0  0  0  0  0  0  0  0
   47.9108    9.7009   18.7202 C   0  0  0  0  0  0  0  0  0  0  0  0
   49.0571    5.8922   17.4608 C   0  0  0  0  0  0  0  0  0  0  0  0
   48.4841   10.7689   16.5892 C   0  0  0  0  0  0  0  0  0  0  0  0
   50.7373    7.6710   17.2665 C   0  0  0  0  0  0  0  0  0  0  0  0
   48.3408    8.2387   16.6238 C   0  0  0  0  0  0  0  0  0  0  0  0
   47.9003   10.9842   19.3275 C   0  0  0  0  0  0  0  0  0  0  0  0
   50.0736    5.0341   17.9607 C   0  0  0  0  0  0  0  0  0  0  0  0
   48.4694   12.0296   17.2028 C   0  0  0  0  0  0  0  0  0  0  0  0
   51.7275    6.8058   17.7531 C   0  0  0  0  0  0  0  0  0  0  0  0
   48.1900   12.1250   18.5688 C   0  0  0  0  0  0  0  0  0  0  0  0
   51.3850    5.5000   18.1063 C   0  0  0  0  0  0  0  0  0  0  0  0
   47.5698    8.6043   19.5463 C   0  0  0  0  0  0  0  0  0  0  0  0
   47.7664    5.3210   17.3177 C   0  0  0  0  0  0  0  0  0  0  0  0
   48.7443   13.2453   16.4013 C   0  0  0  0  0  0  0  0  0  0  0  0
   53.1238    7.2823   17.8932 C   0  0  0  0  0  0  0  0  0  0  0  0
   47.5925   11.1236   20.6921 C   0  0  0  0  0  0  0  0  0  0  0  0
   49.7804    3.7061   18.3148 C   0  0  0  0  0  0  0  0  0  0  0  0
   47.2609    8.7566   20.9009 C   0  0  0  0  0  0  0  0  0  0  0  0
   47.4890    3.9974   17.6723 C   0  0  0  0  0  0  0  0  0  0  0  0
   47.2770   10.0175   21.4754 C   0  0  0  0  0  0  0  0  0  0  0  0
   48.4957    3.1906   18.1762 C   0  0  0  0  0  0  0  0  0  0  0  0
   47.2830   10.9532   21.0389 S   0  0  0  0  0  0  0  0  0  0  0  0
   49.7788    7.1354   16.5174 N   0  0  0  0  0  0  0  0  0  0  0  0
   49.9925    6.9906   18.8793 N   0  0  0  0  0  0  0  0  0  0  0  0
   49.6113    7.6227   17.8121 C   0  0  0  0  0  0  0  0  0  0  0  0
   48.9999    8.9781   18.0374 C   0  0  0  0  0  0  0  0  0  0  0  0
   47.8463   10.5819   19.4477 C   0  0  0  0  0  0  0  0  0  0  0  0
   48.4342    9.3034   19.2099 C   0  0  0  0  0  0  0  0  0  0  0  0
   50.3648    5.8159   16.3155 C   0  0  0  0  0  0  0  0  0  0  0  0
   50.5979    5.6699   18.7469 C   0  0  0  0  0  0  0  0  0  0  0  0
   51.3377    5.5174   17.4358 C   0  0  0  0  0  0  0  0  0  0  0  0
   47.6157   11.6569   18.6014 C   0  0  0  0  0  0  0  0  0  0  0  0
   49.0061    7.6470   15.3929 C   0  0  0  0  0  0  0  0  0  0  0  0
   46.7571   12.5106   20.5810 C   0  0  0  0  0  0  0  0  0  0  0  0
   46.9904   12.7626   19.2498 C   0  0  0  0  0  0  0  0  0  0  0  0
   48.9497   11.5069   14.8582 H   0  0  0  0  0  0  0  0  0  0  0  0
   51.9901    9.1427   17.0692 H   0  0  0  0  0  0  0  0  0  0  0  0
   48.8495   15.0922   16.4408 H   0  0  0  0  0  0  0  0  0  0  0  0
   54.8552    6.7926   18.3244 H   0  0  0  0  0  0  0  0  0  0  0  0
   47.3284    7.8292   16.6588 H   0  0  0  0  0  0  0  0  0  0  0  0
   48.5452    8.3534   15.5525 H   0  0  0  0  0  0  0  0  0  0  0  0
   48.1821   13.1020   19.0484 H   0  0  0  0  0  0  0  0  0  0  0  0
   52.1519    4.8298   18.4900 H   0  0  0  0  0  0  0  0  0  0  0  0
   47.5289    7.5976   19.1449 H   0  0  0  0  0  0  0  0  0  0  0  0
   46.9341    5.8969   16.9231 H   0  0  0  0  0  0  0  0  0  0  0  0
   47.5917   12.1066   21.1600 H   0  0  0  0  0  0  0  0  0  0  0  0
   50.5591    3.0534   18.7045 H   0  0  0  0  0  0  0  0  0  0  0  0
   47.0077    7.8852   21.4987 H   0  0  0  0  0  0  0  0  0  0  0  0
   46.4835    3.6039   17.5521 H   0  0  0  0  0  0  0  0  0  0  0  0
   47.0396   10.1433   22.5278 H   0  0  0  0  0  0  0  0  0  0  0  0
   48.2862    2.1633   18.4581 H   0  0  0  0  0  0  0  0  0  0  0  0
   49.0542    9.6677   17.2083 H   0  0  0  0  0  0  0  0  0  0  0  0
   48.4253    8.5727   20.0171 H   0  0  0  0  0  0  0  0  0  0  0  0
   49.5703    5.0603   16.2837 H   0  0  0  0  0  0  0  0  0  0  0  0
   50.8992    5.7791   15.3589 H   0  0  0  0  0  0  0  0  0  0  0  0
   51.3013    5.5241   19.5736 H   0  0  0  0  0  0  0  0  0  0  0  0
   49.8198    4.9045   18.8492 H   0  0  0  0  0  0  0  0  0  0  0  0
   52.1830    6.2168   17.3994 H   0  0  0  0  0  0  0  0  0  0  0  0
   51.7394    4.5039   17.3366 H   0  0  0  0  0  0  0  0  0  0  0  0
   47.8798   11.6616   17.5511 H   0  0  0  0  0  0  0  0  0  0  0  0
   49.2604    8.6922   15.1900 H   0  0  0  0  0  0  0  0  0  0  0  0
   47.9332    7.5712   15.5973 H   0  0  0  0  0  0  0  0  0  0  0  0
   49.2099    7.0878   14.4728 H   0  0  0  0  0  0  0  0  0  0  0  0
   46.3007   13.1663   21.3097 H   0  0  0  0  0  0  0  0  0  0  0  0
   46.7287   13.6940   18.7626 H   0  0  0  0  0  0  0  0  0  0  0  0
  1 11  1  0
  2 12  1  0
  3 22  2  0
  4 23  2  0
  5 22  1  0
  6 23  1  0
  7  9  1  0
  7 11  2  0
  7 13  1  0
  8 10  1  0
  8 12  2  0
  8 13  1  0
  9 14  2  0
  9 20  1  0
 10 15  2  0
 10 21  1  0
 11 16  1  0
 12 17  1  0
 14 18  1  0
 14 24  1  0
 15 19  1  0
 15 25  1  0
 16 18  2  0
 16 22  1  0
 17 19  2  0
 17 23  1  0
 20 26  2  0
 21 27  2  0
 24 28  2  0
 25 29  2  0
 26 28  1  0
 27 29  1  0
 30 35  1  0
 30 42  1  0
 31 33  1  0
 31 37  1  0
 31 41  1  0
 32 33  2  0
 32 38  1  0
 33 34  1  0
 34 36  2  0
 35 36  1  0
 35 40  2  0
 37 39  1  0
 38 39  1  0
 40 43  1  0
 42 43  2  0
  1 44  1  0
  2 45  1  0
  5 46  1  0
  6 47  1  0
 13 48  1  0
 13 49  1  0
 18 50  1  0
 19 51  1  0
 20 52  1  0
 21 53  1  0
 24 54  1  0
 25 55  1  0
 26 56  1  0
 27 57  1  0
 28 58  1  0
 29 59  1  0
 34 60  1  0
 36 61  1  0
 37 62  1  0
 37 63  1  0
 38 64  1  0
 38 65  1  0
 39 66  1  0
 39 67  1  0
 40 68  1  0
 41 69  1  0
 41 70  1  0
 41 71  1  0
 42 72  1  0
 43 73  1  0
M  END
> <Uni-Dock RESULT> 
ENERGY=   -5.000  LOWER_BOUND=    4.860  UPPER_BOUND=    7.899
INTER + INTRA:          -5.000
INTER:                  -5.000
INTRA:                   0.000
UNBOUND:                 0.000

$$$$

     RDKit          3D

 73 77  0  0  0  0  0  0  0  0999 V2000
   44.9621   12.7491   10.2688 O   0  0  0  0  0  0  0  0  0  0  0  0
   46.3582   13.5449   13.1602 O   0  0  0  0  0  0  0  0  0  0  0  0
   42.4306   12.0712   10.3925 O   0  0  0  0  0  0  0  0  0  0  0  0
   46.4411   14.6135   15.5524 O   0  0  0  0  0  0  0  0  0  0  0  0
   41.8824   10.0978   11.2961 O   0  0  0  0  0  0  0  0  0  0  0  0
   48.4308   15.1936   16.3982 O   0  0  0  0  0  0  0  0  0  0  0  0
   46.5509   11.3065   11.3106 C   0  0  0  0  0  0  0  0  0  0  0  0
   48.4249   12.9265   12.1378 C   0  0  0  0  0  0  0  0  0  0  0  0
   46.8573   10.0653   11.9541 C   0  0  0  0  0  0  0  0  0  0  0  0
   49.8609   12.9552   12.1377 C   0  0  0  0  0  0  0  0  0  0  0  0
   45.2102   11.5887   10.9656 C   0  0  0  0  0  0  0  0  0  0  0  0
   47.7302   13.5075   13.2240 C   0  0  0  0  0  0  0  0  0  0  0  0
   47.6328   12.3334   10.9679 C   0  0  0  0  0  0  0  0  0  0  0  0
   45.7962    9.1863   12.2964 C   0  0  0  0  0  0  0  0  0  0  0  0
   50.5362   13.4980   13.2641 C   0  0  0  0  0  0  0  0  0  0  0  0
   44.1729   10.7101   11.3096 C   0  0  0  0  0  0  0  0  0  0  0  0
   48.4155   14.0465   14.3220 C   0  0  0  0  0  0  0  0  0  0  0  0
   44.4736    9.5229   11.9828 C   0  0  0  0  0  0  0  0  0  0  0  0
   49.8107   14.0266   14.3375 C   0  0  0  0  0  0  0  0  0  0  0  0
   48.1668    9.6342   12.2711 C   0  0  0  0  0  0  0  0  0  0  0  0
   50.6809   12.4730   11.0853 C   0  0  0  0  0  0  0  0  0  0  0  0
   42.7733   11.0434   10.9543 C   0  0  0  0  0  0  0  0  0  0  0  0
   47.6579   14.6267   15.4559 C   0  0  0  0  0  0  0  0  0  0  0  0
   46.0622    7.9681   12.9456 C   0  0  0  0  0  0  0  0  0  0  0  0
   51.9404   13.5148   13.3185 C   0  0  0  0  0  0  0  0  0  0  0  0
   48.4186    8.4182   12.9126 C   0  0  0  0  0  0  0  0  0  0  0  0
   52.0773   12.4974   11.1518 C   0  0  0  0  0  0  0  0  0  0  0  0
   47.3643    7.5864   13.2544 C   0  0  0  0  0  0  0  0  0  0  0  0
   52.7077   13.0140   12.2715 C   0  0  0  0  0  0  0  0  0  0  0  0
   46.3801    7.5886   12.9423 S   0  0  0  0  0  0  0  0  0  0  0  0
   48.2924   13.6512   12.0282 N   0  0  0  0  0  0  0  0  0  0  0  0
   48.9328   12.1238   13.7318 N   0  0  0  0  0  0  0  0  0  0  0  0
   48.1804   12.4504   12.7262 C   0  0  0  0  0  0  0  0  0  0  0  0
   47.1089   11.4602   12.3616 C   0  0  0  0  0  0  0  0  0  0  0  0
   46.2161    9.2031   12.3477 C   0  0  0  0  0  0  0  0  0  0  0  0
   47.2180   10.1622   12.6837 C   0  0  0  0  0  0  0  0  0  0  0  0
   49.3419   14.5971   12.3876 C   0  0  0  0  0  0  0  0  0  0  0  0
   49.9950   13.0316   14.1511 C   0  0  0  0  0  0  0  0  0  0  0  0
   49.6479   14.4763   13.8650 C   0  0  0  0  0  0  0  0  0  0  0  0
   45.0624    9.3112   11.5847 C   0  0  0  0  0  0  0  0  0  0  0  0
   47.7360   13.8238   10.6926 C   0  0  0  0  0  0  0  0  0  0  0  0
   44.9367    7.0748   12.1911 C   0  0  0  0  0  0  0  0  0  0  0  0
   44.3288    8.0916   11.4933 C   0  0  0  0  0  0  0  0  0  0  0  0
   43.9940   12.8697   10.1671 H   0  0  0  0  0  0  0  0  0  0  0  0
   45.9924   13.9080   13.9947 H   0  0  0  0  0  0  0  0  0  0  0  0
   41.0201   10.4534   10.9953 H   0  0  0  0  0  0  0  0  0  0  0  0
   47.7952   15.5259   17.0672 H   0  0  0  0  0  0  0  0  0  0  0  0
   48.2745   11.8357   10.2368 H   0  0  0  0  0  0  0  0  0  0  0  0
   47.2223   13.1914   10.4221 H   0  0  0  0  0  0  0  0  0  0  0  0
   43.6699    8.8413   12.2546 H   0  0  0  0  0  0  0  0  0  0  0  0
   50.3432   14.4392   15.1925 H   0  0  0  0  0  0  0  0  0  0  0  0
   49.0289   10.2399   12.0141 H   0  0  0  0  0  0  0  0  0  0  0  0
   50.2506   12.0607   10.1771 H   0  0  0  0  0  0  0  0  0  0  0  0
   45.2483    7.2971   13.2151 H   0  0  0  0  0  0  0  0  0  0  0  0
   52.4549   13.9242   14.1855 H   0  0  0  0  0  0  0  0  0  0  0  0
   49.4410    8.1286   13.1398 H   0  0  0  0  0  0  0  0  0  0  0  0
   52.6656   12.1105   10.3245 H   0  0  0  0  0  0  0  0  0  0  0  0
   47.5523    6.6407   13.7544 H   0  0  0  0  0  0  0  0  0  0  0  0
   53.7915   13.0317   12.3319 H   0  0  0  0  0  0  0  0  0  0  0  0
   46.2517   11.8583   11.8394 H   0  0  0  0  0  0  0  0  0  0  0  0
   48.0976    9.8212   13.2275 H   0  0  0  0  0  0  0  0  0  0  0  0
   50.2398   14.3963   11.7905 H   0  0  0  0  0  0  0  0  0  0  0  0
   49.0200   15.6227   12.1721 H   0  0  0  0  0  0  0  0  0  0  0  0
   50.1543   12.9085   15.2277 H   0  0  0  0  0  0  0  0  0  0  0  0
   50.9297   12.7472   13.6540 H   0  0  0  0  0  0  0  0  0  0  0  0
   48.7743   14.7761   14.4582 H   0  0  0  0  0  0  0  0  0  0  0  0
   50.4791   15.1333   14.1406 H   0  0  0  0  0  0  0  0  0  0  0  0
   44.7457   10.2273   11.1016 H   0  0  0  0  0  0  0  0  0  0  0  0
   46.6429   13.7701   10.7170 H   0  0  0  0  0  0  0  0  0  0  0  0
   48.1187   13.0543   10.0142 H   0  0  0  0  0  0  0  0  0  0  0  0
   47.9950   14.8004   10.2683 H   0  0  0  0  0  0  0  0  0  0  0  0
   44.6038    6.0514   12.2959 H   0  0  0  0  0  0  0  0  0  0  0  0
   43.4023    7.9703   10.9453 H   0  0  0  0  0  0  0  0  0  0  0  0
  1 11  1  0
  2 12  1  0
  3 22  2  0
  4 23  2  0
  5 22  1  0
  6 23  1  0
  7  9  1  0
  7 11  2  0
  7 13  1  0
  8 10  1  0
  8 12  2  0
  8 13  1  0
  9 14  2  0
  9 20  1  0
 10 15  2  0
 10 21  1  0
 11 16  1  0
 12 17  1  0
 14 18  1  0
 14 24  1  0
 15 19  1  0
 15 25  1  0
 16 18  2  0
 16 22  1  0
 17 19  2  0
 17 23  1  0
 20 26  2  0
 21 27  2  0
 24 28  2  0
 25 29  2  0
 26 28  1  0
 27 29  1  0
 30 35  1  0
 30 42  1  0
 31 33  1  0
 31 37  1  0
 31 41  1  0
 32 33  2  0
 32 38  1  0
 33 34  1  0
 34 36  2  0
 35 36  1  0
 35 40  2  0
 37 39  1  0
 38 39  1  0
 40 43  1  0
 42 43  2  0
  1 44  1  0
  2 45  1  0
  5 46  1  0
  6 47  1  0
 13 48  1  0
 13 49  1  0
 18 50  1  0
 19 51  1  0
 20 52  1  0
 21 53  1  0
 24 54  1  0
 25 55  1  0
 26 56  1  0
 27 57  1  0
 28 58  1  0
 29 59  1  0
 34 60  1  0
 36 61  1  0
 37 62  1  0
 37 63  1  0
 38 64  1  0
 38 65  1  0
 39 66  1  0
 39 67  1  0
 40 68  1  0
 41 69  1  0
 41 70  1  0
 41 71  1  0
 42 72  1  0
 43 73  1  0
M  END
> <Uni-Dock RESULT> 
ENERGY=   -4.926  LOWER_BOUND=    3.663  UPPER_BOUND=    5.468
INTER + INTRA:          -4.926
INTER:                  -4.926
INTRA:                   0.000
UNBOUND:                 0.000

$$$$
