
     RDKit          3D

 73 77  0  0  0  0  0  0  0  0999 V2000
   52.0816    7.4421   18.4439 O   0  0  0  0  0  0  0  0  0  0  0  0
   49.4071    8.2747   16.6211 O   0  0  0  0  0  0  0  0  0  0  0  0
   54.3723    7.8517   19.6458 O   0  0  0  0  0  0  0  0  0  0  0  0
   47.3498   11.0579   18.9548 O   0  0  0  0  0  0  0  0  0  0  0  0
   55.6990    6.0996   20.0676 O   0  0  0  0  0  0  0  0  0  0  0  0
   48.4593   10.5828   17.0809 O   0  0  0  0  0  0  0  0  0  0  0  0
   51.4366    5.1883   17.9963 C   0  0  0  0  0  0  0  0  0  0  0  0
   49.2924    6.6399   18.3493 C   0  0  0  0  0  0  0  0  0  0  0  0
   51.7733    3.7930   17.9513 C   0  0  0  0  0  0  0  0  0  0  0  0
   48.8090    6.2243   19.6307 C   0  0  0  0  0  0  0  0  0  0  0  0
   52.3840    6.1037   18.5095 C   0  0  0  0  0  0  0  0  0  0  0  0
   48.9981    7.9445   17.8906 C   0  0  0  0  0  0  0  0  0  0  0  0
   50.1038    5.7064   17.4479 C   0  0  0  0  0  0  0  0  0  0  0  0
   53.0132    3.3688   18.5004 C   0  0  0  0  0  0  0  0  0  0  0  0
   48.1069    7.1584   20.4351 C   0  0  0  0  0  0  0  0  0  0  0  0
   53.6025    5.6652   19.0465 C   0  0  0  0  0  0  0  0  0  0  0  0
   48.3045    8.8567   18.6966 C   0  0  0  0  0  0  0  0  0  0  0  0
   53.9007    4.3016   19.0481 C   0  0  0  0  0  0  0  0  0  0  0  0
   47.8741    8.4562   19.9649 C   0  0  0  0  0  0  0  0  0  0  0  0
   50.9551    2.7788   17.3896 C   0  0  0  0  0  0  0  0  0  0  0  0
   48.9722    4.9231   20.1635 C   0  0  0  0  0  0  0  0  0  0  0  0
   54.5639    6.6471   19.6014 C   0  0  0  0  0  0  0  0  0  0  0  0
   47.9786   10.2496   18.2968 C   0  0  0  0  0  0  0  0  0  0  0  0
   53.3727    2.0098   18.4950 C   0  0  0  0  0  0  0  0  0  0  0  0
   47.6330    6.7913   21.7063 C   0  0  0  0  0  0  0  0  0  0  0  0
   51.3268    1.4302   17.3869 C   0  0  0  0  0  0  0  0  0  0  0  0
   48.4943    4.5688   21.4284 C   0  0  0  0  0  0  0  0  0  0  0  0
   52.5354    1.0450   17.9438 C   0  0  0  0  0  0  0  0  0  0  0  0
   47.8277    5.5054   22.2027 C   0  0  0  0  0  0  0  0  0  0  0  0
   53.5425    3.4484   19.1469 S   0  0  0  0  0  0  0  0  0  0  0  0
   49.0040    6.3234   20.2179 N   0  0  0  0  0  0  0  0  0  0  0  0
   49.3521    6.6053   17.8838 N   0  0  0  0  0  0  0  0  0  0  0  0
   49.7110    6.1240   19.0344 C   0  0  0  0  0  0  0  0  0  0  0  0
   50.9434    5.2641   19.0257 C   0  0  0  0  0  0  0  0  0  0  0  0
   53.1250    4.7111   18.0482 C   0  0  0  0  0  0  0  0  0  0  0  0
   51.9200    5.4752   18.1301 C   0  0  0  0  0  0  0  0  0  0  0  0
   47.8245    7.1801   20.2114 C   0  0  0  0  0  0  0  0  0  0  0  0
   48.1599    7.4426   17.8018 C   0  0  0  0  0  0  0  0  0  0  0  0
   47.1422    7.0862   18.8637 C   0  0  0  0  0  0  0  0  0  0  0  0
   54.1304    4.8601   17.1028 C   0  0  0  0  0  0  0  0  0  0  0  0
   49.6253    6.1367   21.5232 C   0  0  0  0  0  0  0  0  0  0  0  0
   55.0187    3.1256   18.3549 C   0  0  0  0  0  0  0  0  0  0  0  0
   55.2152    3.9530   17.2760 C   0  0  0  0  0  0  0  0  0  0  0  0
   52.7954    7.9683   18.8619 H   0  0  0  0  0  0  0  0  0  0  0  0
   49.2141    9.2243   16.4775 H   0  0  0  0  0  0  0  0  0  0  0  0
   56.2219    6.8607   20.3961 H   0  0  0  0  0  0  0  0  0  0  0  0
   48.1676   11.5170   16.9806 H   0  0  0  0  0  0  0  0  0  0  0  0
   50.3374    6.1697   16.4821 H   0  0  0  0  0  0  0  0  0  0  0  0
   49.4147    4.8958   17.1987 H   0  0  0  0  0  0  0  0  0  0  0  0
   54.8459    3.9596   19.4659 H   0  0  0  0  0  0  0  0  0  0  0  0
   47.3356    9.1670   20.5909 H   0  0  0  0  0  0  0  0  0  0  0  0
   50.0010    3.0134   16.9269 H   0  0  0  0  0  0  0  0  0  0  0  0
   49.4742    4.1473   19.5951 H   0  0  0  0  0  0  0  0  0  0  0  0
   54.3229    1.6885   18.9188 H   0  0  0  0  0  0  0  0  0  0  0  0
   47.1002    7.5110   22.3253 H   0  0  0  0  0  0  0  0  0  0  0  0
   50.6682    0.6870   16.9445 H   0  0  0  0  0  0  0  0  0  0  0  0
   48.6471    3.5589   21.8010 H   0  0  0  0  0  0  0  0  0  0  0  0
   52.8320   -0.0009   17.9421 H   0  0  0  0  0  0  0  0  0  0  0  0
   47.4547    5.2376   23.1872 H   0  0  0  0  0  0  0  0  0  0  0  0
   50.9813    4.4828   19.7712 H   0  0  0  0  0  0  0  0  0  0  0  0
   51.7994    6.2776   17.4043 H   0  0  0  0  0  0  0  0  0  0  0  0
   48.1187    8.2154   20.4232 H   0  0  0  0  0  0  0  0  0  0  0  0
   47.1211    6.8669   20.9917 H   0  0  0  0  0  0  0  0  0  0  0  0
   48.4529    8.4962   17.8787 H   0  0  0  0  0  0  0  0  0  0  0  0
   47.7072    7.3088   16.8132 H   0  0  0  0  0  0  0  0  0  0  0  0
   46.2848    7.7657   18.8183 H   0  0  0  0  0  0  0  0  0  0  0  0
   46.7685    6.0679   18.6989 H   0  0  0  0  0  0  0  0  0  0  0  0
   54.0849    5.5968   16.3089 H   0  0  0  0  0  0  0  0  0  0  0  0
   50.5141    6.7690   21.6185 H   0  0  0  0  0  0  0  0  0  0  0  0
   48.9408    6.3985   22.3378 H   0  0  0  0  0  0  0  0  0  0  0  0
   49.9107    5.0911   21.6746 H   0  0  0  0  0  0  0  0  0  0  0  0
   55.6720    2.3448   18.7189 H   0  0  0  0  0  0  0  0  0  0  0  0
   56.0907    3.9110   16.6401 H   0  0  0  0  0  0  0  0  0  0  0  0
  1 11  1  0
  2 12  1  0
  3 22  2  0
  4 23  2  0
  5 22  1  0
  6 23  1  0
  7  9  1  0
  7 11  2  0
  7 13  1  0
  8 10  1  0
  8 12  2  0
  8 13  1  0
  9 14  2  0
  9 20  1  0
 10 15  2  0
 10 21  1  0
 11 16  1  0
 12 17  1  0
 14 18  1  0
 14 24  1  0
 15 19  1  0
 15 25  1  0
 16 18  2  0
 16 22  1  0
 17 19  2  0
 17 23  1  0
 20 26  2  0
 21 27  2  0
 24 28  2  0
 25 29  2  0
 26 28  1  0
 27 29  1  0
 30 35  1  0
 30 42  1  0
 31 33  1  0
 31 37  1  0
 31 41  1  0
 32 33  2  0
 32 38  1  0
 33 34  1  0
 34 36  2  0
 35 36  1  0
 35 40  2  0
 37 39  1  0
 38 39  1  0
 40 43  1  0
 42 43  2  0
  1 44  1  0
  2 45  1  0
  5 46  1  0
  6 47  1  0
 13 48  1  0
 13 49  1  0
 18 50  1  0
 19 51  1  0
 20 52  1  0
 21 53  1  0
 24 54  1  0
 25 55  1  0
 26 56  1  0
 27 57  1  0
 28 58  1  0
 29 59  1  0
 34 60  1  0
 36 61  1  0
 37 62  1  0
 37 63  1  0
 38 64  1  0
 38 65  1  0
 39 66  1  0
 39 67  1  0
 40 68  1  0
 41 69  1  0
 41 70  1  0
 41 71  1  0
 42 72  1  0
 43 73  1  0
M  END
> <Uni-Dock RESULT> 
ENERGY=   -5.327  LOWER_BOUND=    0.000  UPPER_BOUND=    0.000
INTER + INTRA:          -5.327
INTER:                  -5.327
INTRA:                   0.000
UNBOUND:                 0.000

$$$$

     RDKit          3D

 73 77  0  0  0  0  0  0  0  0999 V2000
   49.3956    9.6779   16.3581 O   0  0  0  0  0  0  0  0  0  0  0  0
   51.9676    9.3162   14.2550 O   0  0  0  0  0  0  0  0  0  0  0  0
   47.7370   10.9993   17.8952 O   0  0  0  0  0  0  0  0  0  0  0  0
   50.7894   11.3015   10.7773 O   0  0  0  0  0  0  0  0  0  0  0  0
   46.6764    9.9035   19.5328 O   0  0  0  0  0  0  0  0  0  0  0  0
   52.1945   11.1337   12.4994 O   0  0  0  0  0  0  0  0  0  0  0  0
   49.5789    7.3192   16.6720 C   0  0  0  0  0  0  0  0  0  0  0  0
   50.0614    7.8911   14.1681 C   0  0  0  0  0  0  0  0  0  0  0  0
   49.2818    6.1501   17.4513 C   0  0  0  0  0  0  0  0  0  0  0  0
   48.8953    7.4232   13.4828 C   0  0  0  0  0  0  0  0  0  0  0  0
   49.0128    8.5570   17.0540 C   0  0  0  0  0  0  0  0  0  0  0  0
   50.8090    8.9541   13.6113 C   0  0  0  0  0  0  0  0  0  0  0  0
   50.5378    7.2614   15.4791 C   0  0  0  0  0  0  0  0  0  0  0  0
   48.3633    6.2601   18.5297 C   0  0  0  0  0  0  0  0  0  0  0  0
   48.4827    8.0868   12.2987 C   0  0  0  0  0  0  0  0  0  0  0  0
   48.1088    8.6450   18.1218 C   0  0  0  0  0  0  0  0  0  0  0  0
   50.3888    9.6007   12.4416 C   0  0  0  0  0  0  0  0  0  0  0  0
   47.7831    7.4944   18.8419 C   0  0  0  0  0  0  0  0  0  0  0  0
   49.2241    9.1655   11.8026 C   0  0  0  0  0  0  0  0  0  0  0  0
   49.8427    4.8651   17.2323 C   0  0  0  0  0  0  0  0  0  0  0  0
   48.1118    6.3201   13.8989 C   0  0  0  0  0  0  0  0  0  0  0  0
   47.5114    9.9529   18.4813 C   0  0  0  0  0  0  0  0  0  0  0  0
   51.1047   10.7381   11.8091 C   0  0  0  0  0  0  0  0  0  0  0  0
   48.0293    5.1361   19.3051 C   0  0  0  0  0  0  0  0  0  0  0  0
   47.3326    7.6665   11.6089 C   0  0  0  0  0  0  0  0  0  0  0  0
   49.5048    3.7555   18.0142 C   0  0  0  0  0  0  0  0  0  0  0  0
   46.9710    5.9097   13.2031 C   0  0  0  0  0  0  0  0  0  0  0  0
   48.5941    3.8905   19.0494 C   0  0  0  0  0  0  0  0  0  0  0  0
   46.5783    6.5866   12.0592 C   0  0  0  0  0  0  0  0  0  0  0  0
   47.6275    6.5793   18.7768 S   0  0  0  0  0  0  0  0  0  0  0  0
   48.3056    7.6316   13.4436 N   0  0  0  0  0  0  0  0  0  0  0  0
   50.4813    7.8463   14.3756 N   0  0  0  0  0  0  0  0  0  0  0  0
   49.2096    7.6210   14.5032 C   0  0  0  0  0  0  0  0  0  0  0  0
   48.7435    7.2833   15.8914 C   0  0  0  0  0  0  0  0  0  0  0  0
   49.0067    7.5096   18.3204 C   0  0  0  0  0  0  0  0  0  0  0  0
   49.3790    7.7745   16.9662 C   0  0  0  0  0  0  0  0  0  0  0  0
   48.7720    7.9849   12.1083 C   0  0  0  0  0  0  0  0  0  0  0  0
   51.0191    8.1713   13.0586 C   0  0  0  0  0  0  0  0  0  0  0  0
   50.2101    7.5429   11.9446 C   0  0  0  0  0  0  0  0  0  0  0  0
   49.6707    7.9502   19.4569 C   0  0  0  0  0  0  0  0  0  0  0  0
   46.8726    7.7882   13.6595 C   0  0  0  0  0  0  0  0  0  0  0  0
   47.9388    6.7702   20.4433 C   0  0  0  0  0  0  0  0  0  0  0  0
   49.0615    7.5275   20.6734 C   0  0  0  0  0  0  0  0  0  0  0  0
   48.9098   10.4617   16.6908 H   0  0  0  0  0  0  0  0  0  0  0  0
   52.3258   10.1122   13.8103 H   0  0  0  0  0  0  0  0  0  0  0  0
   46.3674   10.8270   19.6445 H   0  0  0  0  0  0  0  0  0  0  0  0
   52.5343   11.8820   11.9586 H   0  0  0  0  0  0  0  0  0  0  0  0
   51.4777    7.7043   15.8291 H   0  0  0  0  0  0  0  0  0  0  0  0
   50.8056    6.2364   15.2116 H   0  0  0  0  0  0  0  0  0  0  0  0
   47.0803    7.5611   19.6705 H   0  0  0  0  0  0  0  0  0  0  0  0
   48.8981    9.6699   10.8935 H   0  0  0  0  0  0  0  0  0  0  0  0
   50.5709    4.6925   16.4454 H   0  0  0  0  0  0  0  0  0  0  0  0
   48.3808    5.7463   14.7795 H   0  0  0  0  0  0  0  0  0  0  0  0
   47.3234    5.2242   20.1293 H   0  0  0  0  0  0  0  0  0  0  0  0
   47.0134    8.1807   10.7041 H   0  0  0  0  0  0  0  0  0  0  0  0
   49.9603    2.7896   17.8106 H   0  0  0  0  0  0  0  0  0  0  0  0
   46.3951    5.0603   13.5620 H   0  0  0  0  0  0  0  0  0  0  0  0
   48.3296    3.0331   19.6632 H   0  0  0  0  0  0  0  0  0  0  0  0
   45.6921    6.2742   11.5140 H   0  0  0  0  0  0  0  0  0  0  0  0
   47.8848    6.6305   15.9571 H   0  0  0  0  0  0  0  0  0  0  0  0
   50.2442    8.4173   16.8137 H   0  0  0  0  0  0  0  0  0  0  0  0
   48.6824    9.0682   11.9604 H   0  0  0  0  0  0  0  0  0  0  0  0
   48.1567    7.4923   11.3464 H   0  0  0  0  0  0  0  0  0  0  0  0
   51.0612    9.2609   12.9449 H   0  0  0  0  0  0  0  0  0  0  0  0
   52.0499    7.8047   13.0028 H   0  0  0  0  0  0  0  0  0  0  0  0
   50.5980    7.8492   10.9675 H   0  0  0  0  0  0  0  0  0  0  0  0
   50.2787    6.4493   12.0016 H   0  0  0  0  0  0  0  0  0  0  0  0
   50.5692    8.5552   19.4140 H   0  0  0  0  0  0  0  0  0  0  0  0
   46.6669    8.7109   14.2118 H   0  0  0  0  0  0  0  0  0  0  0  0
   46.3241    7.8370   12.7122 H   0  0  0  0  0  0  0  0  0  0  0  0
   46.4657    6.9384   14.2162 H   0  0  0  0  0  0  0  0  0  0  0  0
   47.2830    6.3182   21.1746 H   0  0  0  0  0  0  0  0  0  0  0  0
   49.4309    7.7665   21.6629 H   0  0  0  0  0  0  0  0  0  0  0  0
  1 11  1  0
  2 12  1  0
  3 22  2  0
  4 23  2  0
  5 22  1  0
  6 23  1  0
  7  9  1  0
  7 11  2  0
  7 13  1  0
  8 10  1  0
  8 12  2  0
  8 13  1  0
  9 14  2  0
  9 20  1  0
 10 15  2  0
 10 21  1  0
 11 16  1  0
 12 17  1  0
 14 18  1  0
 14 24  1  0
 15 19  1  0
 15 25  1  0
 16 18  2  0
 16 22  1  0
 17 19  2  0
 17 23  1  0
 20 26  2  0
 21 27  2  0
 24 28  2  0
 25 29  2  0
 26 28  1  0
 27 29  1  0
 30 35  1  0
 30 42  1  0
 31 33  1  0
 31 37  1  0
 31 41  1  0
 32 33  2  0
 32 38  1  0
 33 34  1  0
 34 36  2  0
 35 36  1  0
 35 40  2  0
 37 39  1  0
 38 39  1  0
 40 43  1  0
 42 43  2  0
  1 44  1  0
  2 45  1  0
  5 46  1  0
  6 47  1  0
 13 48  1  0
 13 49  1  0
 18 50  1  0
 19 51  1  0
 20 52  1  0
 21 53  1  0
 24 54  1  0
 25 55  1  0
 26 56  1  0
 27 57  1  0
 28 58  1  0
 29 59  1  0
 34 60  1  0
 36 61  1  0
 37 62  1  0
 37 63  1  0
 38 64  1  0
 38 65  1  0
 39 66  1  0
 39 67  1  0
 40 68  1  0
 41 69  1  0
 41 70  1  0
 41 71  1  0
 42 72  1  0
 43 73  1  0
M  END
> <Uni-Dock RESULT> 
ENERGY=   -5.245  LOWER_BOUND=    3.917  UPPER_BOUND=    6.505
INTER + INTRA:          -5.245
INTER:                  -5.245
INTRA:                   0.000
UNBOUND:                 0.000

$$$$

     RDKit          3D

 73 77  0  0  0  0  0  0  0  0999 V2000
   50.6924   10.7037   18.0267 O   0  0  0  0  0  0  0  0  0  0  0  0
   48.0896   12.5269   19.0611 O   0  0  0  0  0  0  0  0  0  0  0  0
   53.2256   10.0877   17.7754 O   0  0  0  0  0  0  0  0  0  0  0  0
   48.1069   12.1489   23.2182 O   0  0  0  0  0  0  0  0  0  0  0  0
   53.8576    8.7940   16.0624 O   0  0  0  0  0  0  0  0  0  0  0  0
   48.2819   13.4497   21.4166 O   0  0  0  0  0  0  0  0  0  0  0  0
   49.1419    9.7193   16.5027 C   0  0  0  0  0  0  0  0  0  0  0  0
   47.9397   10.1668   18.7795 C   0  0  0  0  0  0  0  0  0  0  0  0
   48.8964    8.9602   15.3086 C   0  0  0  0  0  0  0  0  0  0  0  0
   47.7814    8.8601   19.3417 C   0  0  0  0  0  0  0  0  0  0  0  0
   50.4744    9.8863   16.9444 C   0  0  0  0  0  0  0  0  0  0  0  0
   48.0241   11.2837   19.6423 C   0  0  0  0  0  0  0  0  0  0  0  0
   48.0006   10.3961   17.2676 C   0  0  0  0  0  0  0  0  0  0  0  0
   49.9923    8.3326   14.6576 C   0  0  0  0  0  0  0  0  0  0  0  0
   47.7840    8.7154   20.7530 C   0  0  0  0  0  0  0  0  0  0  0  0
   51.5426    9.2591   16.2878 C   0  0  0  0  0  0  0  0  0  0  0  0
   48.0264   11.1254   21.0343 C   0  0  0  0  0  0  0  0  0  0  0  0
   51.2907    8.4786   15.1582 C   0  0  0  0  0  0  0  0  0  0  0  0
   47.9154    9.8409   21.5748 C   0  0  0  0  0  0  0  0  0  0  0  0
   47.6230    8.7818   14.7083 C   0  0  0  0  0  0  0  0  0  0  0  0
   47.6087    7.6782   18.5821 C   0  0  0  0  0  0  0  0  0  0  0  0
   52.9259    9.4317   16.7909 C   0  0  0  0  0  0  0  0  0  0  0  0
   48.1355   12.2443   22.0050 C   0  0  0  0  0  0  0  0  0  0  0  0
   49.7932    7.5638   13.4977 C   0  0  0  0  0  0  0  0  0  0  0  0
   47.6489    7.4459   21.3404 C   0  0  0  0  0  0  0  0  0  0  0  0
   47.4393    8.0174   13.5512 C   0  0  0  0  0  0  0  0  0  0  0  0
   47.4728    6.4210   19.1777 C   0  0  0  0  0  0  0  0  0  0  0  0
   48.5252    7.4046   12.9475 C   0  0  0  0  0  0  0  0  0  0  0  0
   47.4974    6.3041   20.5586 C   0  0  0  0  0  0  0  0  0  0  0  0
   50.6921    7.8825   14.7681 S   0  0  0  0  0  0  0  0  0  0  0  0
   48.1790    8.4519   19.6024 N   0  0  0  0  0  0  0  0  0  0  0  0
   47.8271   10.5272   18.4987 N   0  0  0  0  0  0  0  0  0  0  0  0
   48.3327    9.3324   18.5341 C   0  0  0  0  0  0  0  0  0  0  0  0
   49.0773    8.9029   17.3014 C   0  0  0  0  0  0  0  0  0  0  0  0
   50.4454    9.4875   15.3502 C   0  0  0  0  0  0  0  0  0  0  0  0
   49.7126    9.8034   16.5359 C   0  0  0  0  0  0  0  0  0  0  0  0
   47.4742    8.8947   20.7992 C   0  0  0  0  0  0  0  0  0  0  0  0
   47.0794   11.0192   19.6512 C   0  0  0  0  0  0  0  0  0  0  0  0
   46.4081    9.8971   20.4131 C   0  0  0  0  0  0  0  0  0  0  0  0
   51.0662   10.3937   14.5015 C   0  0  0  0  0  0  0  0  0  0  0  0
   49.0732    7.3172   19.7958 C   0  0  0  0  0  0  0  0  0  0  0  0
   51.5946    8.4139   13.4213 C   0  0  0  0  0  0  0  0  0  0  0  0
   51.7242    9.7813   13.3962 C   0  0  0  0  0  0  0  0  0  0  0  0
   51.6453   10.7088   18.2569 H   0  0  0  0  0  0  0  0  0  0  0  0
   48.2313   13.1868   19.7712 H   0  0  0  0  0  0  0  0  0  0  0  0
   54.7039    8.9987   16.5126 H   0  0  0  0  0  0  0  0  0  0  0  0
   48.3463   14.0602   22.1854 H   0  0  0  0  0  0  0  0  0  0  0  0
   48.0627   11.4616   17.0165 H   0  0  0  0  0  0  0  0  0  0  0  0
   47.0175   10.0897   16.9022 H   0  0  0  0  0  0  0  0  0  0  0  0
   52.1190    7.9900   14.6482 H   0  0  0  0  0  0  0  0  0  0  0  0
   47.9183    9.7194   22.6576 H   0  0  0  0  0  0  0  0  0  0  0  0
   46.7322    9.2437   15.1235 H   0  0  0  0  0  0  0  0  0  0  0  0
   47.5686    7.7133   17.4985 H   0  0  0  0  0  0  0  0  0  0  0  0
   50.6354    7.0827   13.0031 H   0  0  0  0  0  0  0  0  0  0  0  0
   47.6577    7.3355   22.4233 H   0  0  0  0  0  0  0  0  0  0  0  0
   46.4449    7.9085   13.1254 H   0  0  0  0  0  0  0  0  0  0  0  0
   47.3481    5.5383   18.5553 H   0  0  0  0  0  0  0  0  0  0  0  0
   48.3900    6.8119   12.0462 H   0  0  0  0  0  0  0  0  0  0  0  0
   47.3937    5.3301   21.0285 H   0  0  0  0  0  0  0  0  0  0  0  0
   49.0599    7.8450   17.0819 H   0  0  0  0  0  0  0  0  0  0  0  0
   49.6724   10.8533   16.8209 H   0  0  0  0  0  0  0  0  0  0  0  0
   48.1867    9.3418   21.5033 H   0  0  0  0  0  0  0  0  0  0  0  0
   47.0002    8.0426   21.3002 H   0  0  0  0  0  0  0  0  0  0  0  0
   47.7538   11.5863   20.3035 H   0  0  0  0  0  0  0  0  0  0  0  0
   46.3144   11.7192   19.2975 H   0  0  0  0  0  0  0  0  0  0  0  0
   45.9037   10.2851   21.3042 H   0  0  0  0  0  0  0  0  0  0  0  0
   45.6482    9.4177   19.7832 H   0  0  0  0  0  0  0  0  0  0  0  0
   51.0445   11.4645   14.6691 H   0  0  0  0  0  0  0  0  0  0  0  0
   50.1128    7.6550   19.8591 H   0  0  0  0  0  0  0  0  0  0  0  0
   48.8423    6.7734   20.7186 H   0  0  0  0  0  0  0  0  0  0  0  0
   48.9783    6.6000   18.9746 H   0  0  0  0  0  0  0  0  0  0  0  0
   51.9875    7.6979   12.7128 H   0  0  0  0  0  0  0  0  0  0  0  0
   52.2614   10.3184   12.6244 H   0  0  0  0  0  0  0  0  0  0  0  0
  1 11  1  0
  2 12  1  0
  3 22  2  0
  4 23  2  0
  5 22  1  0
  6 23  1  0
  7  9  1  0
  7 11  2  0
  7 13  1  0
  8 10  1  0
  8 12  2  0
  8 13  1  0
  9 14  2  0
  9 20  1  0
 10 15  2  0
 10 21  1  0
 11 16  1  0
 12 17  1  0
 14 18  1  0
 14 24  1  0
 15 19  1  0
 15 25  1  0
 16 18  2  0
 16 22  1  0
 17 19  2  0
 17 23  1  0
 20 26  2  0
 21 27  2  0
 24 28  2  0
 25 29  2  0
 26 28  1  0
 27 29  1  0
 30 35  1  0
 30 42  1  0
 31 33  1  0
 31 37  1  0
 31 41  1  0
 32 33  2  0
 32 38  1  0
 33 34  1  0
 34 36  2  0
 35 36  1  0
 35 40  2  0
 37 39  1  0
 38 39  1  0
 40 43  1  0
 42 43  2  0
  1 44  1  0
  2 45  1  0
  5 46  1  0
  6 47  1  0
 13 48  1  0
 13 49  1  0
 18 50  1  0
 19 51  1  0
 20 52  1  0
 21 53  1  0
 24 54  1  0
 25 55  1  0
 26 56  1  0
 27 57  1  0
 28 58  1  0
 29 59  1  0
 34 60  1  0
 36 61  1  0
 37 62  1  0
 37 63  1  0
 38 64  1  0
 38 65  1  0
 39 66  1  0
 39 67  1  0
 40 68  1  0
 41 69  1  0
 41 70  1  0
 41 71  1  0
 42 72  1  0
 43 73  1  0
M  END
> <Uni-Dock RESULT> 
ENERGY=   -5.038  LOWER_BOUND=    3.865  UPPER_BOUND=    5.106
INTER + INTRA:          -5.038
INTER:                  -5.038
INTRA:                   0.000
UNBOUND:                 0.000

$$$$

     RDKit          3D

 73 77  0  0  0  0  0  0  0  0999 V2000
   51.2046    7.7792   17.5647 O   0  0  0  0  0  0  0  0  0  0  0  0
   49.0586    8.5737   20.0004 O   0  0  0  0  0  0  0  0  0  0  0  0
   53.5627    7.3698   16.5009 O   0  0  0  0  0  0  0  0  0  0  0  0
   49.4807    5.5324   22.8282 O   0  0  0  0  0  0  0  0  0  0  0  0
   53.7842    7.5114   14.2786 O   0  0  0  0  0  0  0  0  0  0  0  0
   49.6583    7.6911   22.3022 O   0  0  0  0  0  0  0  0  0  0  0  0
   49.3560    8.1264   16.0956 C   0  0  0  0  0  0  0  0  0  0  0  0
   48.5033    7.0049   18.2966 C   0  0  0  0  0  0  0  0  0  0  0  0
   48.8603    8.3630   14.7687 C   0  0  0  0  0  0  0  0  0  0  0  0
   48.2023    5.6634   17.8989 C   0  0  0  0  0  0  0  0  0  0  0  0
   50.7391    7.8969   16.2776 C   0  0  0  0  0  0  0  0  0  0  0  0
   48.8609    7.2626   19.6400 C   0  0  0  0  0  0  0  0  0  0  0  0
   48.4303    8.1766   17.3147 C   0  0  0  0  0  0  0  0  0  0  0  0
   49.7622    8.2761   13.6742 C   0  0  0  0  0  0  0  0  0  0  0  0
   48.3398    4.6188   18.8490 C   0  0  0  0  0  0  0  0  0  0  0  0
   51.6131    7.8153   15.1845 C   0  0  0  0  0  0  0  0  0  0  0  0
   48.9938    6.2207   20.5671 C   0  0  0  0  0  0  0  0  0  0  0  0
   51.1150    7.9934   13.8927 C   0  0  0  0  0  0  0  0  0  0  0  0
   48.7404    4.9079   20.1587 C   0  0  0  0  0  0  0  0  0  0  0  0
   47.5157    8.6864   14.4508 C   0  0  0  0  0  0  0  0  0  0  0  0
   47.7592    5.2927   16.6066 C   0  0  0  0  0  0  0  0  0  0  0  0
   53.0537    7.5470   15.4059 C   0  0  0  0  0  0  0  0  0  0  0  0
   49.3882    6.4072   21.9870 C   0  0  0  0  0  0  0  0  0  0  0  0
   49.3142    8.4807   12.3576 C   0  0  0  0  0  0  0  0  0  0  0  0
   48.0703    3.2872   18.4894 C   0  0  0  0  0  0  0  0  0  0  0  0
   47.0839    8.8918   13.1361 C   0  0  0  0  0  0  0  0  0  0  0  0
   47.4919    3.9648   16.2613 C   0  0  0  0  0  0  0  0  0  0  0  0
   47.9835    8.7849   12.0881 C   0  0  0  0  0  0  0  0  0  0  0  0
   47.6519    2.9602   17.2026 C   0  0  0  0  0  0  0  0  0  0  0  0
   50.3890    7.8346   13.3327 S   0  0  0  0  0  0  0  0  0  0  0  0
   48.5563    5.1674   17.7528 N   0  0  0  0  0  0  0  0  0  0  0  0
   48.4189    7.4655   18.3430 N   0  0  0  0  0  0  0  0  0  0  0  0
   48.7280    6.5267   17.5019 C   0  0  0  0  0  0  0  0  0  0  0  0
   49.2517    6.9897   16.1716 C   0  0  0  0  0  0  0  0  0  0  0  0
   50.4685    8.6582   14.8463 C   0  0  0  0  0  0  0  0  0  0  0  0
   49.9329    8.1410   16.0663 C   0  0  0  0  0  0  0  0  0  0  0  0
   48.0697    4.7362   19.0576 C   0  0  0  0  0  0  0  0  0  0  0  0
   47.8932    7.1025   19.6549 C   0  0  0  0  0  0  0  0  0  0  0  0
   47.1409    5.7899   19.6213 C   0  0  0  0  0  0  0  0  0  0  0  0
   51.1270    9.8696   14.6859 C   0  0  0  0  0  0  0  0  0  0  0  0
   49.2738    4.1507   16.9937 C   0  0  0  0  0  0  0  0  0  0  0  0
   51.2083    9.0836   12.5085 C   0  0  0  0  0  0  0  0  0  0  0  0
   51.5508   10.1155   13.3482 C   0  0  0  0  0  0  0  0  0  0  0  0
   52.1658    7.5866   17.5576 H   0  0  0  0  0  0  0  0  0  0  0  0
   49.3825    8.5888   20.9248 H   0  0  0  0  0  0  0  0  0  0  0  0
   54.6973    7.3268   14.5835 H   0  0  0  0  0  0  0  0  0  0  0  0
   49.9050    7.6339   23.2529 H   0  0  0  0  0  0  0  0  0  0  0  0
   48.6333    9.1359   17.8052 H   0  0  0  0  0  0  0  0  0  0  0  0
   47.3762    8.2352   17.0330 H   0  0  0  0  0  0  0  0  0  0  0  0
   51.7922    7.9291   13.0430 H   0  0  0  0  0  0  0  0  0  0  0  0
   48.8450    4.0986   20.8807 H   0  0  0  0  0  0  0  0  0  0  0  0
   46.7623    8.7967   15.2250 H   0  0  0  0  0  0  0  0  0  0  0  0
   47.6041    6.0398   15.8353 H   0  0  0  0  0  0  0  0  0  0  0  0
   50.0081    8.4110   11.5214 H   0  0  0  0  0  0  0  0  0  0  0  0
   48.1825    2.4858   19.2176 H   0  0  0  0  0  0  0  0  0  0  0  0
   46.0435    9.1385   12.9394 H   0  0  0  0  0  0  0  0  0  0  0  0
   47.1590    3.7244   15.2546 H   0  0  0  0  0  0  0  0  0  0  0  0
   47.6554    8.9466   11.0643 H   0  0  0  0  0  0  0  0  0  0  0  0
   47.4473    1.9259   16.9411 H   0  0  0  0  0  0  0  0  0  0  0  0
   49.0412    6.3461   15.3295 H   0  0  0  0  0  0  0  0  0  0  0  0
   50.0931    8.7377   16.9626 H   0  0  0  0  0  0  0  0  0  0  0  0
   48.9187    4.5702   19.7321 H   0  0  0  0  0  0  0  0  0  0  0  0
   47.5249    3.7892   18.9679 H   0  0  0  0  0  0  0  0  0  0  0  0
   48.7182    7.0624   20.3758 H   0  0  0  0  0  0  0  0  0  0  0  0
   47.2151    7.8950   19.9902 H   0  0  0  0  0  0  0  0  0  0  0  0
   46.8079    5.5114   20.6266 H   0  0  0  0  0  0  0  0  0  0  0  0
   46.2486    5.8846   18.9899 H   0  0  0  0  0  0  0  0  0  0  0  0
   51.2954   10.5590   15.5053 H   0  0  0  0  0  0  0  0  0  0  0  0
   50.3545    4.3133   17.0616 H   0  0  0  0  0  0  0  0  0  0  0  0
   49.0639    3.1429   17.3690 H   0  0  0  0  0  0  0  0  0  0  0  0
   48.9743    4.1643   15.9413 H   0  0  0  0  0  0  0  0  0  0  0  0
   51.4000    9.0010   11.4476 H   0  0  0  0  0  0  0  0  0  0  0  0
   52.0771   11.0041   13.0222 H   0  0  0  0  0  0  0  0  0  0  0  0
  1 11  1  0
  2 12  1  0
  3 22  2  0
  4 23  2  0
  5 22  1  0
  6 23  1  0
  7  9  1  0
  7 11  2  0
  7 13  1  0
  8 10  1  0
  8 12  2  0
  8 13  1  0
  9 14  2  0
  9 20  1  0
 10 15  2  0
 10 21  1  0
 11 16  1  0
 12 17  1  0
 14 18  1  0
 14 24  1  0
 15 19  1  0
 15 25  1  0
 16 18  2  0
 16 22  1  0
 17 19  2  0
 17 23  1  0
 20 26  2  0
 21 27  2  0
 24 28  2  0
 25 29  2  0
 26 28  1  0
 27 29  1  0
 30 35  1  0
 30 42  1  0
 31 33  1  0
 31 37  1  0
 31 41  1  0
 32 33  2  0
 32 38  1  0
 33 34  1  0
 34 36  2  0
 35 36  1  0
 35 40  2  0
 37 39  1  0
 38 39  1  0
 40 43  1  0
 42 43  2  0
  1 44  1  0
  2 45  1  0
  5 46  1  0
  6 47  1  0
 13 48  1  0
 13 49  1  0
 18 50  1  0
 19 51  1  0
 20 52  1  0
 21 53  1  0
 24 54  1  0
 25 55  1  0
 26 56  1  0
 27 57  1  0
 28 58  1  0
 29 59  1  0
 34 60  1  0
 36 61  1  0
 37 62  1  0
 37 63  1  0
 38 64  1  0
 38 65  1  0
 39 66  1  0
 39 67  1  0
 40 68  1  0
 41 69  1  0
 41 70  1  0
 41 71  1  0
 42 72  1  0
 43 73  1  0
M  END
> <Uni-Dock RESULT> 
ENERGY=   -4.911  LOWER_BOUND=    3.399  UPPER_BOUND=    5.434
INTER + INTRA:          -4.911
INTER:                  -4.911
INTRA:                   0.000
UNBOUND:                 0.000

$$$$

     RDKit          3D

 73 77  0  0  0  0  0  0  0  0999 V2000
   49.1223    6.1928   14.0289 O   0  0  0  0  0  0  0  0  0  0  0  0
   52.1324    7.6141   13.7324 O   0  0  0  0  0  0  0  0  0  0  0  0
   47.4364    4.2053   14.2881 O   0  0  0  0  0  0  0  0  0  0  0  0
   54.0285    6.8672   17.3754 O   0  0  0  0  0  0  0  0  0  0  0  0
   45.3163    4.4953   13.6335 O   0  0  0  0  0  0  0  0  0  0  0  0
   53.9591    6.5902   15.1648 O   0  0  0  0  0  0  0  0  0  0  0  0
   48.2783    8.2860   13.2530 C   0  0  0  0  0  0  0  0  0  0  0  0
   50.3234    8.7147   14.8224 C   0  0  0  0  0  0  0  0  0  0  0  0
   47.2036    9.0500   12.6839 C   0  0  0  0  0  0  0  0  0  0  0  0
   49.7313    9.2403   16.0147 C   0  0  0  0  0  0  0  0  0  0  0  0
   48.0516    6.9309   13.5862 C   0  0  0  0  0  0  0  0  0  0  0  0
   51.5562    8.0280   14.9090 C   0  0  0  0  0  0  0  0  0  0  0  0
   49.6718    8.8907   13.4489 C   0  0  0  0  0  0  0  0  0  0  0  0
   45.9258    8.4431   12.5521 C   0  0  0  0  0  0  0  0  0  0  0  0
   50.3644    8.9960   17.2605 C   0  0  0  0  0  0  0  0  0  0  0  0
   46.7832    6.3501   13.4482 C   0  0  0  0  0  0  0  0  0  0  0  0
   52.1695    7.7932   16.1467 C   0  0  0  0  0  0  0  0  0  0  0  0
   45.7295    7.1144   12.9441 C   0  0  0  0  0  0  0  0  0  0  0  0
   51.5616    8.2723   17.3108 C   0  0  0  0  0  0  0  0  0  0  0  0
   47.3130   10.3897   12.2291 C   0  0  0  0  0  0  0  0  0  0  0  0
   48.5434   10.0097   16.0457 C   0  0  0  0  0  0  0  0  0  0  0  0
   46.5708    4.9342   13.8312 C   0  0  0  0  0  0  0  0  0  0  0  0
   53.4496    7.0607   16.3223 C   0  0  0  0  0  0  0  0  0  0  0  0
   44.8417    9.1620   12.0190 C   0  0  0  0  0  0  0  0  0  0  0  0
   49.8025    9.4813   18.4538 C   0  0  0  0  0  0  0  0  0  0  0  0
   46.2270   11.0925   11.6965 C   0  0  0  0  0  0  0  0  0  0  0  0
   47.9953   10.4892   17.2388 C   0  0  0  0  0  0  0  0  0  0  0  0
   44.9891   10.4790   11.5949 C   0  0  0  0  0  0  0  0  0  0  0  0
   48.6232   10.2208   18.4449 C   0  0  0  0  0  0  0  0  0  0  0  0
   45.3496    7.9637   12.9298 S   0  0  0  0  0  0  0  0  0  0  0  0
   49.3962    8.9848   16.4784 N   0  0  0  0  0  0  0  0  0  0  0  0
   50.4889    8.7367   14.3825 N   0  0  0  0  0  0  0  0  0  0  0  0
   49.4131    8.7337   15.1084 C   0  0  0  0  0  0  0  0  0  0  0  0
   48.1281    8.4892   14.3686 C   0  0  0  0  0  0  0  0  0  0  0  0
   46.9365    7.4462   12.4943 C   0  0  0  0  0  0  0  0  0  0  0  0
   48.1086    7.7337   13.2599 C   0  0  0  0  0  0  0  0  0  0  0  0
   50.6548    9.1959   17.1831 C   0  0  0  0  0  0  0  0  0  0  0  0
   51.7789    8.9769   15.0207 C   0  0  0  0  0  0  0  0  0  0  0  0
   51.6500    9.8507   16.2496 C   0  0  0  0  0  0  0  0  0  0  0  0
   46.8839    6.7191   11.3131 C   0  0  0  0  0  0  0  0  0  0  0  0
   48.2779    8.5760   17.3193 C   0  0  0  0  0  0  0  0  0  0  0  0
   44.6389    7.2323   11.5621 C   0  0  0  0  0  0  0  0  0  0  0  0
   45.5696    6.5959   10.7772 C   0  0  0  0  0  0  0  0  0  0  0  0
   48.8317    5.2858   14.2608 H   0  0  0  0  0  0  0  0  0  0  0  0
   52.9258    7.0836   13.9532 H   0  0  0  0  0  0  0  0  0  0  0  0
   45.3335    3.5610   13.9295 H   0  0  0  0  0  0  0  0  0  0  0  0
   54.7809    6.1357   15.4582 H   0  0  0  0  0  0  0  0  0  0  0  0
   50.2925    8.4785   12.6446 H   0  0  0  0  0  0  0  0  0  0  0  0
   49.6842    9.9691   13.2737 H   0  0  0  0  0  0  0  0  0  0  0  0
   44.7438    6.6651   12.8376 H   0  0  0  0  0  0  0  0  0  0  0  0
   52.0393    8.0882   18.2726 H   0  0  0  0  0  0  0  0  0  0  0  0
   48.2567   10.9255   12.2694 H   0  0  0  0  0  0  0  0  0  0  0  0
   48.0183   10.2607   15.1301 H   0  0  0  0  0  0  0  0  0  0  0  0
   43.8635    8.6940   11.9216 H   0  0  0  0  0  0  0  0  0  0  0  0
   50.2859    9.2874   19.4097 H   0  0  0  0  0  0  0  0  0  0  0  0
   46.3572   12.1179   11.3597 H   0  0  0  0  0  0  0  0  0  0  0  0
   47.0774   11.0715   17.2166 H   0  0  0  0  0  0  0  0  0  0  0  0
   44.1417   11.0182   11.1788 H   0  0  0  0  0  0  0  0  0  0  0  0
   48.2023   10.5890   19.3762 H   0  0  0  0  0  0  0  0  0  0  0  0
   47.2466    8.9575   14.7827 H   0  0  0  0  0  0  0  0  0  0  0  0
   49.0437    7.3064   12.9018 H   0  0  0  0  0  0  0  0  0  0  0  0
   51.0407    8.2353   17.5457 H   0  0  0  0  0  0  0  0  0  0  0  0
   50.5006    9.8436   18.0539 H   0  0  0  0  0  0  0  0  0  0  0  0
   52.2421    8.0153   15.2712 H   0  0  0  0  0  0  0  0  0  0  0  0
   52.4387    9.4702   14.2986 H   0  0  0  0  0  0  0  0  0  0  0  0
   52.6209    9.9671   16.7424 H   0  0  0  0  0  0  0  0  0  0  0  0
   51.3000   10.8506   15.9642 H   0  0  0  0  0  0  0  0  0  0  0  0
   47.7646    6.2921   10.8472 H   0  0  0  0  0  0  0  0  0  0  0  0
   48.1054    7.4984   17.2303 H   0  0  0  0  0  0  0  0  0  0  0  0
   48.4646    8.7979   18.3760 H   0  0  0  0  0  0  0  0  0  0  0  0
   47.3639    9.1099   17.0414 H   0  0  0  0  0  0  0  0  0  0  0  0
   43.5724    7.3035   11.3995 H   0  0  0  0  0  0  0  0  0  0  0  0
   45.3238    6.0695    9.8634 H   0  0  0  0  0  0  0  0  0  0  0  0
  1 11  1  0
  2 12  1  0
  3 22  2  0
  4 23  2  0
  5 22  1  0
  6 23  1  0
  7  9  1  0
  7 11  2  0
  7 13  1  0
  8 10  1  0
  8 12  2  0
  8 13  1  0
  9 14  2  0
  9 20  1  0
 10 15  2  0
 10 21  1  0
 11 16  1  0
 12 17  1  0
 14 18  1  0
 14 24  1  0
 15 19  1  0
 15 25  1  0
 16 18  2  0
 16 22  1  0
 17 19  2  0
 17 23  1  0
 20 26  2  0
 21 27  2  0
 24 28  2  0
 25 29  2  0
 26 28  1  0
 27 29  1  0
 30 35  1  0
 30 42  1  0
 31 33  1  0
 31 37  1  0
 31 41  1  0
 32 33  2  0
 32 38  1  0
 33 34  1  0
 34 36  2  0
 35 36  1  0
 35 40  2  0
 37 39  1  0
 38 39  1  0
 40 43  1  0
 42 43  2  0
  1 44  1  0
  2 45  1  0
  5 46  1  0
  6 47  1  0
 13 48  1  0
 13 49  1  0
 18 50  1  0
 19 51  1  0
 20 52  1  0
 21 53  1  0
 24 54  1  0
 25 55  1  0
 26 56  1  0
 27 57  1  0
 28 58  1  0
 29 59  1  0
 34 60  1  0
 36 61  1  0
 37 62  1  0
 37 63  1  0
 38 64  1  0
 38 65  1  0
 39 66  1  0
 39 67  1  0
 40 68  1  0
 41 69  1  0
 41 70  1  0
 41 71  1  0
 42 72  1  0
 43 73  1  0
M  END
> <Uni-Dock RESULT> 
ENERGY=   -4.868  LOWER_BOUND=    4.768  UPPER_BOUND=    8.021
INTER + INTRA:          -4.868
INTER:                  -4.868
INTRA:                   0.000
UNBOUND:                 0.000

$$$$

     RDKit          3D

 73 77  0  0  0  0  0  0  0  0999 V2000
   49.9015    9.5945   19.0382 O   0  0  0  0  0  0  0  0  0  0  0  0
   47.1821   11.2868   18.0846 O   0  0  0  0  0  0  0  0  0  0  0  0
   52.2486    8.4755   18.7237 O   0  0  0  0  0  0  0  0  0  0  0  0
   48.5674   15.1253   17.2066 O   0  0  0  0  0  0  0  0  0  0  0  0
   52.8669    6.8492   20.1312 O   0  0  0  0  0  0  0  0  0  0  0  0
   47.6130   13.2333   16.5154 O   0  0  0  0  0  0  0  0  0  0  0  0
   48.5888    8.9381   20.9201 C   0  0  0  0  0  0  0  0  0  0  0  0
   48.0292   11.4160   20.3067 C   0  0  0  0  0  0  0  0  0  0  0  0
   48.3753    8.0489   22.0275 C   0  0  0  0  0  0  0  0  0  0  0  0
   48.6421   12.1717   21.3563 C   0  0  0  0  0  0  0  0  0  0  0  0
   49.7697    8.8047   20.1545 C   0  0  0  0  0  0  0  0  0  0  0  0
   47.8506   12.0152   19.0386 C   0  0  0  0  0  0  0  0  0  0  0  0
   47.5412    9.9813   20.5201 C   0  0  0  0  0  0  0  0  0  0  0  0
   49.3954    7.1203   22.3677 C   0  0  0  0  0  0  0  0  0  0  0  0
   49.1169   13.4784   21.0739 C   0  0  0  0  0  0  0  0  0  0  0  0
   50.7645    7.8816   20.5062 C   0  0  0  0  0  0  0  0  0  0  0  0
   48.3257   13.3064   18.7739 C   0  0  0  0  0  0  0  0  0  0  0  0
   50.5738    7.0567   21.6160 C   0  0  0  0  0  0  0  0  0  0  0  0
   48.9624   14.0210   19.7928 C   0  0  0  0  0  0  0  0  0  0  0  0
   47.2037    8.0164   22.8275 C   0  0  0  0  0  0  0  0  0  0  0  0
   48.8049   11.7097   22.6844 C   0  0  0  0  0  0  0  0  0  0  0  0
   52.0036    7.7839   19.6990 C   0  0  0  0  0  0  0  0  0  0  0  0
   48.1983   13.9942   17.4636 C   0  0  0  0  0  0  0  0  0  0  0  0
   49.2354    6.2458   23.4566 C   0  0  0  0  0  0  0  0  0  0  0  0
   49.7401   14.2430   22.0750 C   0  0  0  0  0  0  0  0  0  0  0  0
   47.0556    7.1379   23.9060 C   0  0  0  0  0  0  0  0  0  0  0  0
   49.4243   12.4804   23.6724 C   0  0  0  0  0  0  0  0  0  0  0  0
   48.0743    6.2543   24.2232 C   0  0  0  0  0  0  0  0  0  0  0  0
   49.8965   13.7470   23.3662 C   0  0  0  0  0  0  0  0  0  0  0  0
   50.2209    7.0143   22.4760 S   0  0  0  0  0  0  0  0  0  0  0  0
   49.2365   12.3132   21.4951 N   0  0  0  0  0  0  0  0  0  0  0  0
   47.6916   11.1531   20.1110 N   0  0  0  0  0  0  0  0  0  0  0  0
   48.6640   11.1569   20.9705 C   0  0  0  0  0  0  0  0  0  0  0  0
   49.1301    9.8053   21.4336 C   0  0  0  0  0  0  0  0  0  0  0  0
   49.4627    7.4170   20.9798 C   0  0  0  0  0  0  0  0  0  0  0  0
   49.0439    8.7370   20.6264 C   0  0  0  0  0  0  0  0  0  0  0  0
   48.7879   13.6149   21.0160 C   0  0  0  0  0  0  0  0  0  0  0  0
   47.1718   12.4239   19.6171 C   0  0  0  0  0  0  0  0  0  0  0  0
   47.3256   13.5337   20.6344 C   0  0  0  0  0  0  0  0  0  0  0  0
   49.3376    6.2775   20.1970 C   0  0  0  0  0  0  0  0  0  0  0  0
   50.5568   12.3032   22.1128 C   0  0  0  0  0  0  0  0  0  0  0  0
   50.3580    5.3641   22.0651 C   0  0  0  0  0  0  0  0  0  0  0  0
   49.8488    5.1009   20.8166 C   0  0  0  0  0  0  0  0  0  0  0  0
   50.7723    9.4368   18.6165 H   0  0  0  0  0  0  0  0  0  0  0  0
   47.2122   11.7881   17.2435 H   0  0  0  0  0  0  0  0  0  0  0  0
   53.6218    6.9057   19.5085 H   0  0  0  0  0  0  0  0  0  0  0  0
   47.6168   13.8249   15.7293 H   0  0  0  0  0  0  0  0  0  0  0  0
   47.0448    9.5800   19.6286 H   0  0  0  0  0  0  0  0  0  0  0  0
   46.7404   10.0692   21.2583 H   0  0  0  0  0  0  0  0  0  0  0  0
   51.3459    6.3404   21.8910 H   0  0  0  0  0  0  0  0  0  0  0  0
   49.3322   15.0247   19.5851 H   0  0  0  0  0  0  0  0  0  0  0  0
   46.3632    8.6740   22.6265 H   0  0  0  0  0  0  0  0  0  0  0  0
   48.4420   10.7316   22.9824 H   0  0  0  0  0  0  0  0  0  0  0  0
   50.0205    5.5371   23.7154 H   0  0  0  0  0  0  0  0  0  0  0  0
   50.1099   15.2430   21.8552 H   0  0  0  0  0  0  0  0  0  0  0  0
   46.1395    7.1475   24.4914 H   0  0  0  0  0  0  0  0  0  0  0  0
   49.5336   12.0834   24.6786 H   0  0  0  0  0  0  0  0  0  0  0  0
   47.9643    5.5665   25.0579 H   0  0  0  0  0  0  0  0  0  0  0  0
   50.3801   14.3512   24.1286 H   0  0  0  0  0  0  0  0  0  0  0  0
   49.5250    9.7590   22.4384 H   0  0  0  0  0  0  0  0  0  0  0  0
   48.6228    8.8664   19.6309 H   0  0  0  0  0  0  0  0  0  0  0  0
   49.3946   13.9207   20.1548 H   0  0  0  0  0  0  0  0  0  0  0  0
   48.9126   14.3731   21.7979 H   0  0  0  0  0  0  0  0  0  0  0  0
   47.6775   12.6804   18.6788 H   0  0  0  0  0  0  0  0  0  0  0  0
   46.1091   12.2984   19.3825 H   0  0  0  0  0  0  0  0  0  0  0  0
   46.9828   14.4869   20.2187 H   0  0  0  0  0  0  0  0  0  0  0  0
   46.7148   13.3184   21.5201 H   0  0  0  0  0  0  0  0  0  0  0  0
   48.8887    6.2898   19.2103 H   0  0  0  0  0  0  0  0  0  0  0  0
   51.3040   11.9136   21.4136 H   0  0  0  0  0  0  0  0  0  0  0  0
   50.8713   13.3097   22.4106 H   0  0  0  0  0  0  0  0  0  0  0  0
   50.5598   11.6905   23.0195 H   0  0  0  0  0  0  0  0  0  0  0  0
   50.8059    4.6661   22.7587 H   0  0  0  0  0  0  0  0  0  0  0  0
   49.8403    4.1152   20.3683 H   0  0  0  0  0  0  0  0  0  0  0  0
  1 11  1  0
  2 12  1  0
  3 22  2  0
  4 23  2  0
  5 22  1  0
  6 23  1  0
  7  9  1  0
  7 11  2  0
  7 13  1  0
  8 10  1  0
  8 12  2  0
  8 13  1  0
  9 14  2  0
  9 20  1  0
 10 15  2  0
 10 21  1  0
 11 16  1  0
 12 17  1  0
 14 18  1  0
 14 24  1  0
 15 19  1  0
 15 25  1  0
 16 18  2  0
 16 22  1  0
 17 19  2  0
 17 23  1  0
 20 26  2  0
 21 27  2  0
 24 28  2  0
 25 29  2  0
 26 28  1  0
 27 29  1  0
 30 35  1  0
 30 42  1  0
 31 33  1  0
 31 37  1  0
 31 41  1  0
 32 33  2  0
 32 38  1  0
 33 34  1  0
 34 36  2  0
 35 36  1  0
 35 40  2  0
 37 39  1  0
 38 39  1  0
 40 43  1  0
 42 43  2  0
  1 44  1  0
  2 45  1  0
  5 46  1  0
  6 47  1  0
 13 48  1  0
 13 49  1  0
 18 50  1  0
 19 51  1  0
 20 52  1  0
 21 53  1  0
 24 54  1  0
 25 55  1  0
 26 56  1  0
 27 57  1  0
 28 58  1  0
 29 59  1  0
 34 60  1  0
 36 61  1  0
 37 62  1  0
 37 63  1  0
 38 64  1  0
 38 65  1  0
 39 66  1  0
 39 67  1  0
 40 68  1  0
 41 69  1  0
 41 70  1  0
 41 71  1  0
 42 72  1  0
 43 73  1  0
M  END
> <Uni-Dock RESULT> 
ENERGY=   -4.556  LOWER_BOUND=    3.337  UPPER_BOUND=    5.976
INTER + INTRA:          -4.556
INTER:                  -4.556
INTRA:                   0.000
UNBOUND:                 0.000

$$$$

     RDKit          3D

 73 77  0  0  0  0  0  0  0  0999 V2000
   49.0594   11.6499    9.8747 O   0  0  0  0  0  0  0  0  0  0  0  0
   52.1363   10.8580   10.9114 O   0  0  0  0  0  0  0  0  0  0  0  0
   47.1808   12.1125    8.1093 O   0  0  0  0  0  0  0  0  0  0  0  0
   52.6674    6.8867    9.7405 O   0  0  0  0  0  0  0  0  0  0  0  0
   45.4277   13.3705    8.7024 O   0  0  0  0  0  0  0  0  0  0  0  0
   53.2855    9.0229    9.5890 O   0  0  0  0  0  0  0  0  0  0  0  0
   48.7355   12.4601   12.0961 C   0  0  0  0  0  0  0  0  0  0  0  0
   50.1988   10.2964   12.1774 C   0  0  0  0  0  0  0  0  0  0  0  0
   47.9882   13.2665   13.0200 C   0  0  0  0  0  0  0  0  0  0  0  0
   49.3127    9.3080   12.7125 C   0  0  0  0  0  0  0  0  0  0  0  0
   48.2724   12.3381   10.7660 C   0  0  0  0  0  0  0  0  0  0  0  0
   51.2585    9.8894   11.3345 C   0  0  0  0  0  0  0  0  0  0  0  0
   50.0469   11.7834   12.5061 C   0  0  0  0  0  0  0  0  0  0  0  0
   46.7646   13.8466   12.5898 C   0  0  0  0  0  0  0  0  0  0  0  0
   49.4812    7.9537   12.3250 C   0  0  0  0  0  0  0  0  0  0  0  0
   47.0625   12.9187   10.3606 C   0  0  0  0  0  0  0  0  0  0  0  0
   51.4119    8.5483   10.9595 C   0  0  0  0  0  0  0  0  0  0  0  0
   46.3140   13.6571   11.2788 C   0  0  0  0  0  0  0  0  0  0  0  0
   50.5152    7.5956   11.4521 C   0  0  0  0  0  0  0  0  0  0  0  0
   48.3785   13.5417   14.3563 C   0  0  0  0  0  0  0  0  0  0  0  0
   48.2661    9.5823   13.6253 C   0  0  0  0  0  0  0  0  0  0  0  0
   46.5903   12.7505    8.9659 C   0  0  0  0  0  0  0  0  0  0  0  0
   52.4826    8.0464   10.0607 C   0  0  0  0  0  0  0  0  0  0  0  0
   45.9922   14.6261   13.4684 C   0  0  0  0  0  0  0  0  0  0  0  0
   48.6190    6.9584   12.8162 C   0  0  0  0  0  0  0  0  0  0  0  0
   47.6023   14.3228   15.2191 C   0  0  0  0  0  0  0  0  0  0  0  0
   47.4163    8.5834   14.1090 C   0  0  0  0  0  0  0  0  0  0  0  0
   46.4059   14.8624   14.7757 C   0  0  0  0  0  0  0  0  0  0  0  0
   47.5902    7.2705   13.7005 C   0  0  0  0  0  0  0  0  0  0  0  0
   46.0505   13.7135   12.1695 S   0  0  0  0  0  0  0  0  0  0  0  0
   48.8211    8.9978   12.4785 N   0  0  0  0  0  0  0  0  0  0  0  0
   50.4985   10.6584   12.2006 N   0  0  0  0  0  0  0  0  0  0  0  0
   49.2522   10.3100   12.2983 C   0  0  0  0  0  0  0  0  0  0  0  0
   48.2560   11.4344   12.2592 C   0  0  0  0  0  0  0  0  0  0  0  0
   47.6294   13.6737   11.4758 C   0  0  0  0  0  0  0  0  0  0  0  0
   48.5155   12.5564   11.5705 C   0  0  0  0  0  0  0  0  0  0  0  0
   49.8003    7.9178   12.4897 C   0  0  0  0  0  0  0  0  0  0  0  0
   51.5317    9.6287   12.2400 C   0  0  0  0  0  0  0  0  0  0  0  0
   51.1063    8.4291   13.0586 C   0  0  0  0  0  0  0  0  0  0  0  0
   47.8841   14.8721   10.8233 C   0  0  0  0  0  0  0  0  0  0  0  0
   47.4551    8.5905   12.1738 C   0  0  0  0  0  0  0  0  0  0  0  0
   45.7458   15.2950   11.6068 C   0  0  0  0  0  0  0  0  0  0  0  0
   46.8074   15.8021   10.8975 C   0  0  0  0  0  0  0  0  0  0  0  0
   48.6159   11.6034    9.0017 H   0  0  0  0  0  0  0  0  0  0  0  0
   52.7557   10.4481   10.2727 H   0  0  0  0  0  0  0  0  0  0  0  0
   45.2503   13.1692    7.7596 H   0  0  0  0  0  0  0  0  0  0  0  0
   53.9163    8.5286    9.0183 H   0  0  0  0  0  0  0  0  0  0  0  0
   50.8467   12.3859   12.0597 H   0  0  0  0  0  0  0  0  0  0  0  0
   50.2285   11.8482   13.5816 H   0  0  0  0  0  0  0  0  0  0  0  0
   45.3737   14.1074   10.9658 H   0  0  0  0  0  0  0  0  0  0  0  0
   50.6353    6.5531   11.1588 H   0  0  0  0  0  0  0  0  0  0  0  0
   49.3097   13.1594   14.7637 H   0  0  0  0  0  0  0  0  0  0  0  0
   48.0936   10.5899   13.9885 H   0  0  0  0  0  0  0  0  0  0  0  0
   45.0540   15.0671   13.1354 H   0  0  0  0  0  0  0  0  0  0  0  0
   48.7453    5.9206   12.5129 H   0  0  0  0  0  0  0  0  0  0  0  0
   47.9412   14.5082   16.2354 H   0  0  0  0  0  0  0  0  0  0  0  0
   46.6212    8.8400   14.8046 H   0  0  0  0  0  0  0  0  0  0  0  0
   45.7995   15.4731   15.4399 H   0  0  0  0  0  0  0  0  0  0  0  0
   46.9327    6.4891   14.0712 H   0  0  0  0  0  0  0  0  0  0  0  0
   47.3425   11.2776   12.8147 H   0  0  0  0  0  0  0  0  0  0  0  0
   49.4657   12.6399   11.0459 H   0  0  0  0  0  0  0  0  0  0  0  0
   49.9455    7.5403   11.4701 H   0  0  0  0  0  0  0  0  0  0  0  0
   49.4427    7.0848   13.1061 H   0  0  0  0  0  0  0  0  0  0  0  0
   51.7857    9.3330   11.2153 H   0  0  0  0  0  0  0  0  0  0  0  0
   52.4371   10.0599   12.6811 H   0  0  0  0  0  0  0  0  0  0  0  0
   51.8731    7.6482   13.0239 H   0  0  0  0  0  0  0  0  0  0  0  0
   50.9741    8.7188   14.1085 H   0  0  0  0  0  0  0  0  0  0  0  0
   48.8179   15.0745   10.3113 H   0  0  0  0  0  0  0  0  0  0  0  0
   47.2082    8.8256   11.1333 H   0  0  0  0  0  0  0  0  0  0  0  0
   47.3135    7.5132   12.3151 H   0  0  0  0  0  0  0  0  0  0  0  0
   46.7409    9.0920   12.8342 H   0  0  0  0  0  0  0  0  0  0  0  0
   44.8023   15.7770   11.8225 H   0  0  0  0  0  0  0  0  0  0  0  0
   46.8153   16.7903   10.4548 H   0  0  0  0  0  0  0  0  0  0  0  0
  1 11  1  0
  2 12  1  0
  3 22  2  0
  4 23  2  0
  5 22  1  0
  6 23  1  0
  7  9  1  0
  7 11  2  0
  7 13  1  0
  8 10  1  0
  8 12  2  0
  8 13  1  0
  9 14  2  0
  9 20  1  0
 10 15  2  0
 10 21  1  0
 11 16  1  0
 12 17  1  0
 14 18  1  0
 14 24  1  0
 15 19  1  0
 15 25  1  0
 16 18  2  0
 16 22  1  0
 17 19  2  0
 17 23  1  0
 20 26  2  0
 21 27  2  0
 24 28  2  0
 25 29  2  0
 26 28  1  0
 27 29  1  0
 30 35  1  0
 30 42  1  0
 31 33  1  0
 31 37  1  0
 31 41  1  0
 32 33  2  0
 32 38  1  0
 33 34  1  0
 34 36  2  0
 35 36  1  0
 35 40  2  0
 37 39  1  0
 38 39  1  0
 40 43  1  0
 42 43  2  0
  1 44  1  0
  2 45  1  0
  5 46  1  0
  6 47  1  0
 13 48  1  0
 13 49  1  0
 18 50  1  0
 19 51  1  0
 20 52  1  0
 21 53  1  0
 24 54  1  0
 25 55  1  0
 26 56  1  0
 27 57  1  0
 28 58  1  0
 29 59  1  0
 34 60  1  0
 36 61  1  0
 37 62  1  0
 37 63  1  0
 38 64  1  0
 38 65  1  0
 39 66  1  0
 39 67  1  0
 40 68  1  0
 41 69  1  0
 41 70  1  0
 41 71  1  0
 42 72  1  0
 43 73  1  0
M  END
> <Uni-Dock RESULT> 
ENERGY=   -4.368  LOWER_BOUND=    7.334  UPPER_BOUND=   11.095
INTER + INTRA:          -4.368
INTER:                  -4.368
INTRA:                   0.000
UNBOUND:                 0.000

$$$$

     RDKit          3D

 73 77  0  0  0  0  0  0  0  0999 V2000
   48.4088    9.2302   17.5631 O   0  0  0  0  0  0  0  0  0  0  0  0
   46.5222   11.8663   18.3760 O   0  0  0  0  0  0  0  0  0  0  0  0
   49.6351    7.5833   15.9372 O   0  0  0  0  0  0  0  0  0  0  0  0
   48.7468   15.1843   17.1652 O   0  0  0  0  0  0  0  0  0  0  0  0
   50.1251    5.5214   16.6557 O   0  0  0  0  0  0  0  0  0  0  0  0
   46.9042   13.9450   16.9725 O   0  0  0  0  0  0  0  0  0  0  0  0
   48.0124    8.5079   19.8030 C   0  0  0  0  0  0  0  0  0  0  0  0
   48.2921   11.1061   19.7767 C   0  0  0  0  0  0  0  0  0  0  0  0
   48.0106    7.4544   20.7791 C   0  0  0  0  0  0  0  0  0  0  0  0
   49.5765   11.3147   20.3725 C   0  0  0  0  0  0  0  0  0  0  0  0
   48.5154    8.2399   18.5092 C   0  0  0  0  0  0  0  0  0  0  0  0
   47.7936   12.0598   18.8597 C   0  0  0  0  0  0  0  0  0  0  0  0
   47.4292    9.8888   20.1172 C   0  0  0  0  0  0  0  0  0  0  0  0
   48.5905    6.2029   20.4382 C   0  0  0  0  0  0  0  0  0  0  0  0
   50.3442   12.4386   19.9723 C   0  0  0  0  0  0  0  0  0  0  0  0
   49.0832    6.9979   18.1922 C   0  0  0  0  0  0  0  0  0  0  0  0
   48.5636   13.1646   18.4730 C   0  0  0  0  0  0  0  0  0  0  0  0
   49.1266    5.9953   19.1626 C   0  0  0  0  0  0  0  0  0  0  0  0
   49.8353   13.3371   19.0272 C   0  0  0  0  0  0  0  0  0  0  0  0
   47.4638    7.5589   22.0843 C   0  0  0  0  0  0  0  0  0  0  0  0
   50.1470   10.4740   21.3582 C   0  0  0  0  0  0  0  0  0  0  0  0
   49.6264    6.7562   16.8347 C   0  0  0  0  0  0  0  0  0  0  0  0
   48.1210   14.1952   17.4992 C   0  0  0  0  0  0  0  0  0  0  0  0
   48.6276    5.1517   21.3707 C   0  0  0  0  0  0  0  0  0  0  0  0
   51.6172   12.6658   20.5227 C   0  0  0  0  0  0  0  0  0  0  0  0
   47.5036    6.5034   23.0014 C   0  0  0  0  0  0  0  0  0  0  0  0
   51.4134   10.7115   21.9002 C   0  0  0  0  0  0  0  0  0  0  0  0
   48.0897    5.2997   22.6454 C   0  0  0  0  0  0  0  0  0  0  0  0
   52.1513   11.8064   21.4787 C   0  0  0  0  0  0  0  0  0  0  0  0
   49.2428    5.8245   20.0699 S   0  0  0  0  0  0  0  0  0  0  0  0
   50.1638   11.2237   20.1739 N   0  0  0  0  0  0  0  0  0  0  0  0
   47.8287   11.0241   19.7788 N   0  0  0  0  0  0  0  0  0  0  0  0
   48.9975   10.4914   19.9650 C   0  0  0  0  0  0  0  0  0  0  0  0
   49.0315    8.9894   19.9987 C   0  0  0  0  0  0  0  0  0  0  0  0
   48.1038    6.8396   19.2649 C   0  0  0  0  0  0  0  0  0  0  0  0
   48.1459    8.2679   19.2947 C   0  0  0  0  0  0  0  0  0  0  0  0
   50.1155   12.6794   20.1137 C   0  0  0  0  0  0  0  0  0  0  0  0
   47.7053   12.4776   19.7429 C   0  0  0  0  0  0  0  0  0  0  0  0
   48.7603   13.1577   20.5883 C   0  0  0  0  0  0  0  0  0  0  0  0
   47.1706    6.0584   18.5974 C   0  0  0  0  0  0  0  0  0  0  0  0
   51.4834   10.6398   19.9672 C   0  0  0  0  0  0  0  0  0  0  0  0
   48.4832    4.3945   19.5324 C   0  0  0  0  0  0  0  0  0  0  0  0
   47.3854    4.6582   18.7497 C   0  0  0  0  0  0  0  0  0  0  0  0
   48.8235    8.9387   16.7241 H   0  0  0  0  0  0  0  0  0  0  0  0
   46.3498   12.5482   17.6942 H   0  0  0  0  0  0  0  0  0  0  0  0
   50.4409    5.5162   15.7278 H   0  0  0  0  0  0  0  0  0  0  0  0
   46.7740   14.7018   16.3575 H   0  0  0  0  0  0  0  0  0  0  0  0
   46.4550    9.9233   19.6155 H   0  0  0  0  0  0  0  0  0  0  0  0
   47.1913   10.0071   21.1771 H   0  0  0  0  0  0  0  0  0  0  0  0
   49.5683    5.0310   18.9182 H   0  0  0  0  0  0  0  0  0  0  0  0
   50.4332   14.1963   18.7247 H   0  0  0  0  0  0  0  0  0  0  0  0
   46.9800    8.4700   22.4236 H   0  0  0  0  0  0  0  0  0  0  0  0
   49.6077    9.6109   21.7341 H   0  0  0  0  0  0  0  0  0  0  0  0
   49.0748    4.1948   21.1063 H   0  0  0  0  0  0  0  0  0  0  0  0
   52.2080   13.5250   20.2099 H   0  0  0  0  0  0  0  0  0  0  0  0
   47.0712    6.6282   23.9911 H   0  0  0  0  0  0  0  0  0  0  0  0
   51.8155   10.0361   22.6513 H   0  0  0  0  0  0  0  0  0  0  0  0
   48.1210    4.4741   23.3520 H   0  0  0  0  0  0  0  0  0  0  0  0
   53.1368   11.9966   21.8945 H   0  0  0  0  0  0  0  0  0  0  0  0
   49.7984    8.5467   20.6180 H   0  0  0  0  0  0  0  0  0  0  0  0
   47.3968    8.7917   18.7034 H   0  0  0  0  0  0  0  0  0  0  0  0
   50.3038   13.0131   19.0859 H   0  0  0  0  0  0  0  0  0  0  0  0
   50.8929   13.1138   20.7531 H   0  0  0  0  0  0  0  0  0  0  0  0
   47.7581   12.8186   18.7023 H   0  0  0  0  0  0  0  0  0  0  0  0
   46.7137   12.7527   20.1187 H   0  0  0  0  0  0  0  0  0  0  0  0
   48.6830   14.2462   20.4979 H   0  0  0  0  0  0  0  0  0  0  0  0
   48.6173   12.9009   21.6454 H   0  0  0  0  0  0  0  0  0  0  0  0
   46.3564    6.4815   18.0202 H   0  0  0  0  0  0  0  0  0  0  0  0
   51.5754   10.2522   18.9474 H   0  0  0  0  0  0  0  0  0  0  0  0
   52.2796   11.3775   20.1169 H   0  0  0  0  0  0  0  0  0  0  0  0
   51.6675    9.8281   20.6777 H   0  0  0  0  0  0  0  0  0  0  0  0
   48.8785    3.4289   19.8157 H   0  0  0  0  0  0  0  0  0  0  0  0
   46.7647    3.8882   18.3087 H   0  0  0  0  0  0  0  0  0  0  0  0
  1 11  1  0
  2 12  1  0
  3 22  2  0
  4 23  2  0
  5 22  1  0
  6 23  1  0
  7  9  1  0
  7 11  2  0
  7 13  1  0
  8 10  1  0
  8 12  2  0
  8 13  1  0
  9 14  2  0
  9 20  1  0
 10 15  2  0
 10 21  1  0
 11 16  1  0
 12 17  1  0
 14 18  1  0
 14 24  1  0
 15 19  1  0
 15 25  1  0
 16 18  2  0
 16 22  1  0
 17 19  2  0
 17 23  1  0
 20 26  2  0
 21 27  2  0
 24 28  2  0
 25 29  2  0
 26 28  1  0
 27 29  1  0
 30 35  1  0
 30 42  1  0
 31 33  1  0
 31 37  1  0
 31 41  1  0
 32 33  2  0
 32 38  1  0
 33 34  1  0
 34 36  2  0
 35 36  1  0
 35 40  2  0
 37 39  1  0
 38 39  1  0
 40 43  1  0
 42 43  2  0
  1 44  1  0
  2 45  1  0
  5 46  1  0
  6 47  1  0
 13 48  1  0
 13 49  1  0
 18 50  1  0
 19 51  1  0
 20 52  1  0
 21 53  1  0
 24 54  1  0
 25 55  1  0
 26 56  1  0
 27 57  1  0
 28 58  1  0
 29 59  1  0
 34 60  1  0
 36 61  1  0
 37 62  1  0
 37 63  1  0
 38 64  1  0
 38 65  1  0
 39 66  1  0
 39 67  1  0
 40 68  1  0
 41 69  1  0
 41 70  1  0
 41 71  1  0
 42 72  1  0
 43 73  1  0
M  END
> <Uni-Dock RESULT> 
ENERGY=   -4.347  LOWER_BOUND=    3.534  UPPER_BOUND=    5.772
INTER + INTRA:          -4.347
INTER:                  -4.347
INTRA:                   0.000
UNBOUND:                 0.000

$$$$

     RDKit          3D

 73 77  0  0  0  0  0  0  0  0999 V2000
   51.3920    8.3109   17.1461 O   0  0  0  0  0  0  0  0  0  0  0  0
   52.9289    6.4337   19.4446 O   0  0  0  0  0  0  0  0  0  0  0  0
   51.1985    9.6720   14.9169 O   0  0  0  0  0  0  0  0  0  0  0  0
   53.7224    2.8192   17.5133 O   0  0  0  0  0  0  0  0  0  0  0  0
   49.6184   11.2476   14.7474 O   0  0  0  0  0  0  0  0  0  0  0  0
   54.4848    4.6534   18.5245 O   0  0  0  0  0  0  0  0  0  0  0  0
   49.7622    8.7027   18.8450 C   0  0  0  0  0  0  0  0  0  0  0  0
   50.5959    6.2315   19.0101 C   0  0  0  0  0  0  0  0  0  0  0  0
   48.6717    9.4869   19.3531 C   0  0  0  0  0  0  0  0  0  0  0  0
   49.4890    5.4670   18.5217 C   0  0  0  0  0  0  0  0  0  0  0  0
   50.2823    9.0037   17.5653 C   0  0  0  0  0  0  0  0  0  0  0  0
   51.9037    5.7083   18.8872 C   0  0  0  0  0  0  0  0  0  0  0  0
   50.4062    7.5934   19.6819 C   0  0  0  0  0  0  0  0  0  0  0  0
   48.0974   10.4840   18.5196 C   0  0  0  0  0  0  0  0  0  0  0  0
   49.7423    4.2357   17.8641 C   0  0  0  0  0  0  0  0  0  0  0  0
   49.7018    9.9921   16.7581 C   0  0  0  0  0  0  0  0  0  0  0  0
   52.1389    4.4913   18.2342 C   0  0  0  0  0  0  0  0  0  0  0  0
   48.6078   10.7145   17.2374 C   0  0  0  0  0  0  0  0  0  0  0  0
   51.0554    3.7721   17.7213 C   0  0  0  0  0  0  0  0  0  0  0  0
   48.1077    9.3491   20.6479 C   0  0  0  0  0  0  0  0  0  0  0  0
   48.1324    5.8481   18.6562 C   0  0  0  0  0  0  0  0  0  0  0  0
   50.2534   10.2662   15.4101 C   0  0  0  0  0  0  0  0  0  0  0  0
   53.4828    3.8881   18.0439 C   0  0  0  0  0  0  0  0  0  0  0  0
   47.0156   11.2601   18.9705 C   0  0  0  0  0  0  0  0  0  0  0  0
   48.6815    3.4668   17.3556 C   0  0  0  0  0  0  0  0  0  0  0  0
   47.0336   10.1310   21.0858 C   0  0  0  0  0  0  0  0  0  0  0  0
   47.0853    5.0737   18.1485 C   0  0  0  0  0  0  0  0  0  0  0  0
   46.4845   11.0849   20.2446 C   0  0  0  0  0  0  0  0  0  0  0  0
   47.3605    3.8836   17.4934 C   0  0  0  0  0  0  0  0  0  0  0  0
   47.8293   10.6619   17.7445 S   0  0  0  0  0  0  0  0  0  0  0  0
   49.2473    5.3745   17.9510 N   0  0  0  0  0  0  0  0  0  0  0  0
   50.8384    6.4734   19.3327 N   0  0  0  0  0  0  0  0  0  0  0  0
   49.8115    6.5037   18.5397 C   0  0  0  0  0  0  0  0  0  0  0  0
   49.2003    7.8583   18.3161 C   0  0  0  0  0  0  0  0  0  0  0  0
   49.4607   10.2936   18.1673 C   0  0  0  0  0  0  0  0  0  0  0  0
   49.9538    8.9673   18.3684 C   0  0  0  0  0  0  0  0  0  0  0  0
   49.8684    4.0722   18.1601 C   0  0  0  0  0  0  0  0  0  0  0  0
   51.4860    5.1960   19.6120 C   0  0  0  0  0  0  0  0  0  0  0  0
   50.5157    4.0376   19.5277 C   0  0  0  0  0  0  0  0  0  0  0  0
   50.1940   11.4677   18.2698 C   0  0  0  0  0  0  0  0  0  0  0  0
   48.3908    5.4692   16.7753 C   0  0  0  0  0  0  0  0  0  0  0  0
   48.1223   12.3423   17.7144 C   0  0  0  0  0  0  0  0  0  0  0  0
   49.4296   12.6419   18.0116 C   0  0  0  0  0  0  0  0  0  0  0  0
   51.6324    8.5817   16.2352 H   0  0  0  0  0  0  0  0  0  0  0  0
   53.7733    5.9980   19.2066 H   0  0  0  0  0  0  0  0  0  0  0  0
   50.0887   11.3088   13.8895 H   0  0  0  0  0  0  0  0  0  0  0  0
   55.2850    4.1217   18.3125 H   0  0  0  0  0  0  0  0  0  0  0  0
   51.3540    8.0062   20.0471 H   0  0  0  0  0  0  0  0  0  0  0  0
   49.8387    7.3764   20.5901 H   0  0  0  0  0  0  0  0  0  0  0  0
   48.1553   11.4813   16.6112 H   0  0  0  0  0  0  0  0  0  0  0  0
   51.2400    2.8262   17.2130 H   0  0  0  0  0  0  0  0  0  0  0  0
   48.4976    8.6287   21.3610 H   0  0  0  0  0  0  0  0  0  0  0  0
   47.8592    6.7629   19.1716 H   0  0  0  0  0  0  0  0  0  0  0  0
   46.5769   12.0217   18.3279 H   0  0  0  0  0  0  0  0  0  0  0  0
   48.8777    2.5254   16.8454 H   0  0  0  0  0  0  0  0  0  0  0  0
   46.6338    9.9913   22.0871 H   0  0  0  0  0  0  0  0  0  0  0  0
   46.0578    5.4077   18.2692 H   0  0  0  0  0  0  0  0  0  0  0  0
   45.6518   11.6984   20.5797 H   0  0  0  0  0  0  0  0  0  0  0  0
   46.5520    3.2772   17.0950 H   0  0  0  0  0  0  0  0  0  0  0  0
   48.1378    7.8720   18.1194 H   0  0  0  0  0  0  0  0  0  0  0  0
   51.0163    8.8679   18.5833 H   0  0  0  0  0  0  0  0  0  0  0  0
   50.6134    3.8882   17.3763 H   0  0  0  0  0  0  0  0  0  0  0  0
   49.1166    3.2767   18.0993 H   0  0  0  0  0  0  0  0  0  0  0  0
   52.3231    5.0565   18.9181 H   0  0  0  0  0  0  0  0  0  0  0  0
   51.9111    5.2338   20.6210 H   0  0  0  0  0  0  0  0  0  0  0  0
   51.0369    3.0872   19.6829 H   0  0  0  0  0  0  0  0  0  0  0  0
   49.7521    4.1298   20.3102 H   0  0  0  0  0  0  0  0  0  0  0  0
   51.2472   11.4813   18.5261 H   0  0  0  0  0  0  0  0  0  0  0  0
   48.9149    5.9778   15.9594 H   0  0  0  0  0  0  0  0  0  0  0  0
   48.0905    4.4796   16.4133 H   0  0  0  0  0  0  0  0  0  0  0  0
   47.4701    6.0141   17.0051 H   0  0  0  0  0  0  0  0  0  0  0  0
   47.3217   13.0301   17.4797 H   0  0  0  0  0  0  0  0  0  0  0  0
   49.8206   13.6512   18.0449 H   0  0  0  0  0  0  0  0  0  0  0  0
  1 11  1  0
  2 12  1  0
  3 22  2  0
  4 23  2  0
  5 22  1  0
  6 23  1  0
  7  9  1  0
  7 11  2  0
  7 13  1  0
  8 10  1  0
  8 12  2  0
  8 13  1  0
  9 14  2  0
  9 20  1  0
 10 15  2  0
 10 21  1  0
 11 16  1  0
 12 17  1  0
 14 18  1  0
 14 24  1  0
 15 19  1  0
 15 25  1  0
 16 18  2  0
 16 22  1  0
 17 19  2  0
 17 23  1  0
 20 26  2  0
 21 27  2  0
 24 28  2  0
 25 29  2  0
 26 28  1  0
 27 29  1  0
 30 35  1  0
 30 42  1  0
 31 33  1  0
 31 37  1  0
 31 41  1  0
 32 33  2  0
 32 38  1  0
 33 34  1  0
 34 36  2  0
 35 36  1  0
 35 40  2  0
 37 39  1  0
 38 39  1  0
 40 43  1  0
 42 43  2  0
  1 44  1  0
  2 45  1  0
  5 46  1  0
  6 47  1  0
 13 48  1  0
 13 49  1  0
 18 50  1  0
 19 51  1  0
 20 52  1  0
 21 53  1  0
 24 54  1  0
 25 55  1  0
 26 56  1  0
 27 57  1  0
 28 58  1  0
 29 59  1  0
 34 60  1  0
 36 61  1  0
 37 62  1  0
 37 63  1  0
 38 64  1  0
 38 65  1  0
 39 66  1  0
 39 67  1  0
 40 68  1  0
 41 69  1  0
 41 70  1  0
 41 71  1  0
 42 72  1  0
 43 73  1  0
M  END
> <Uni-Dock RESULT> 
ENERGY=   -4.297  LOWER_BOUND=    2.398  UPPER_BOUND=    6.649
INTER + INTRA:          -4.297
INTER:                  -4.297
INTRA:                   0.000
UNBOUND:                 0.000

$$$$
