
     RDKit          3D

 73 77  0  0  0  0  0  0  0  0999 V2000
   48.4745    8.4235   21.6718 O   0  0  0  0  0  0  0  0  0  0  0  0
   46.0911   10.4668   20.5400 O   0  0  0  0  0  0  0  0  0  0  0  0
   50.9404    5.4850   23.3049 O   0  0  0  0  0  0  0  0  0  0  0  0
   46.3618   13.0013   21.1635 O   0  0  0  0  0  0  0  0  0  0  0  0
   50.1172    7.5541   23.3920 O   0  0  0  0  0  0  0  0  0  0  0  0
   48.0097   14.1801   20.2145 O   0  0  0  0  0  0  0  0  0  0  0  0
   47.8625    7.0072   19.8567 C   0  0  0  0  0  0  0  0  0  0  0  0
   47.7171    9.5006   19.0866 C   0  0  0  0  0  0  0  0  0  0  0  0
   47.8799    5.7114   19.2378 C   0  0  0  0  0  0  0  0  0  0  0  0
   48.8399    9.6534   18.2126 C   0  0  0  0  0  0  0  0  0  0  0  0
   48.5979    7.2079   21.0486 C   0  0  0  0  0  0  0  0  0  0  0  0
   47.2221   10.6314   19.7739 C   0  0  0  0  0  0  0  0  0  0  0  0
   47.0208    8.1527   19.2852 C   0  0  0  0  0  0  0  0  0  0  0  0
   48.7042    4.6984   19.7948 C   0  0  0  0  0  0  0  0  0  0  0  0
   49.4689   10.9225   18.1159 C   0  0  0  0  0  0  0  0  0  0  0  0
   49.4050    6.1959   21.5849 C   0  0  0  0  0  0  0  0  0  0  0  0
   47.8542   11.8779   19.6671 C   0  0  0  0  0  0  0  0  0  0  0  0
   49.4589    4.9559   20.9441 C   0  0  0  0  0  0  0  0  0  0  0  0
   48.9778   12.0104   18.8480 C   0  0  0  0  0  0  0  0  0  0  0  0
   47.1253    5.3479   18.0922 C   0  0  0  0  0  0  0  0  0  0  0  0
   49.3754    8.6160   17.4126 C   0  0  0  0  0  0  0  0  0  0  0  0
   50.2248    6.3393   22.8157 C   0  0  0  0  0  0  0  0  0  0  0  0
   47.3276   13.0405   20.4189 C   0  0  0  0  0  0  0  0  0  0  0  0
   48.7702    3.4231   19.2082 C   0  0  0  0  0  0  0  0  0  0  0  0
   50.5851   11.1027   17.2811 C   0  0  0  0  0  0  0  0  0  0  0  0
   47.1970    4.0737   17.5203 C   0  0  0  0  0  0  0  0  0  0  0  0
   50.4843    8.8089   16.5837 C   0  0  0  0  0  0  0  0  0  0  0  0
   48.0238    3.1116   18.0765 C   0  0  0  0  0  0  0  0  0  0  0  0
   51.0926   10.0525   16.5213 C   0  0  0  0  0  0  0  0  0  0  0  0
   47.4576   12.0796   18.8483 S   0  0  0  0  0  0  0  0  0  0  0  0
   48.9205    7.1089   20.8164 N   0  0  0  0  0  0  0  0  0  0  0  0
   48.7732    6.0584   18.6856 N   0  0  0  0  0  0  0  0  0  0  0  0
   48.8678    7.1223   19.4252 C   0  0  0  0  0  0  0  0  0  0  0  0
   48.9060    8.3794   18.6135 C   0  0  0  0  0  0  0  0  0  0  0  0
   48.2457   10.6787   18.2131 C   0  0  0  0  0  0  0  0  0  0  0  0
   48.2481    9.4840   18.9920 C   0  0  0  0  0  0  0  0  0  0  0  0
   48.7848    5.8455   21.5333 C   0  0  0  0  0  0  0  0  0  0  0  0
   48.7084    4.7572   19.3440 C   0  0  0  0  0  0  0  0  0  0  0  0
   48.0182    4.8504   20.6887 C   0  0  0  0  0  0  0  0  0  0  0  0
   48.7844   10.9619   16.9674 C   0  0  0  0  0  0  0  0  0  0  0  0
   49.5625    8.1757   21.5771 C   0  0  0  0  0  0  0  0  0  0  0  0
   47.8427   13.0205   17.4778 C   0  0  0  0  0  0  0  0  0  0  0  0
   48.5536   12.3043   16.5449 C   0  0  0  0  0  0  0  0  0  0  0  0
   49.0487    8.4276   22.4647 H   0  0  0  0  0  0  0  0  0  0  0  0
   45.8894   11.3025   21.0121 H   0  0  0  0  0  0  0  0  0  0  0  0
   50.7107    7.4784   24.1731 H   0  0  0  0  0  0  0  0  0  0  0  0
   47.5476   14.8451   20.7666 H   0  0  0  0  0  0  0  0  0  0  0  0
   46.1456    8.2367   19.9401 H   0  0  0  0  0  0  0  0  0  0  0  0
   46.6021    7.9105   18.3054 H   0  0  0  0  0  0  0  0  0  0  0  0
   50.0885    4.1706   21.3625 H   0  0  0  0  0  0  0  0  0  0  0  0
   49.4718   12.9765   18.7654 H   0  0  0  0  0  0  0  0  0  0  0  0
   46.4490    6.0504   17.6144 H   0  0  0  0  0  0  0  0  0  0  0  0
   48.9303    7.6267   17.4122 H   0  0  0  0  0  0  0  0  0  0  0  0
   49.4069    2.6509   19.6370 H   0  0  0  0  0  0  0  0  0  0  0  0
   51.0712   12.0741   17.2119 H   0  0  0  0  0  0  0  0  0  0  0  0
   46.6009    3.8394   16.6418 H   0  0  0  0  0  0  0  0  0  0  0  0
   50.8657    7.9823   15.9897 H   0  0  0  0  0  0  0  0  0  0  0  0
   48.0836    2.1193   17.6377 H   0  0  0  0  0  0  0  0  0  0  0  0
   51.9557   10.2086   15.8800 H   0  0  0  0  0  0  0  0  0  0  0  0
   49.4289    8.2903   17.6688 H   0  0  0  0  0  0  0  0  0  0  0  0
   47.6719    9.4730   19.9132 H   0  0  0  0  0  0  0  0  0  0  0  0
   48.2561    6.0060   22.4800 H   0  0  0  0  0  0  0  0  0  0  0  0
   49.7799    5.4487   21.7708 H   0  0  0  0  0  0  0  0  0  0  0  0
   48.1475    4.0699   18.7013 H   0  0  0  0  0  0  0  0  0  0  0  0
   49.7203    4.3478   19.4451 H   0  0  0  0  0  0  0  0  0  0  0  0
   46.9814    5.1848   20.5575 H   0  0  0  0  0  0  0  0  0  0  0  0
   47.9923    3.8712   21.1780 H   0  0  0  0  0  0  0  0  0  0  0  0
   49.3229   10.2373   16.3688 H   0  0  0  0  0  0  0  0  0  0  0  0
   48.8419    8.9637   21.8132 H   0  0  0  0  0  0  0  0  0  0  0  0
   49.9604    7.8068   22.5295 H   0  0  0  0  0  0  0  0  0  0  0  0
   50.4043    8.6083   21.0264 H   0  0  0  0  0  0  0  0  0  0  0  0
   47.5276   14.0532   17.4207 H   0  0  0  0  0  0  0  0  0  0  0  0
   48.8914   12.7191   15.6031 H   0  0  0  0  0  0  0  0  0  0  0  0
  1 11  1  0
  2 12  1  0
  3 22  2  0
  4 23  2  0
  5 22  1  0
  6 23  1  0
  7  9  1  0
  7 11  2  0
  7 13  1  0
  8 10  1  0
  8 12  2  0
  8 13  1  0
  9 14  2  0
  9 20  1  0
 10 15  2  0
 10 21  1  0
 11 16  1  0
 12 17  1  0
 14 18  1  0
 14 24  1  0
 15 19  1  0
 15 25  1  0
 16 18  2  0
 16 22  1  0
 17 19  2  0
 17 23  1  0
 20 26  2  0
 21 27  2  0
 24 28  2  0
 25 29  2  0
 26 28  1  0
 27 29  1  0
 30 35  1  0
 30 42  1  0
 31 33  1  0
 31 37  1  0
 31 41  1  0
 32 33  2  0
 32 38  1  0
 33 34  1  0
 34 36  2  0
 35 36  1  0
 35 40  2  0
 37 39  1  0
 38 39  1  0
 40 43  1  0
 42 43  2  0
  1 44  1  0
  2 45  1  0
  5 46  1  0
  6 47  1  0
 13 48  1  0
 13 49  1  0
 18 50  1  0
 19 51  1  0
 20 52  1  0
 21 53  1  0
 24 54  1  0
 25 55  1  0
 26 56  1  0
 27 57  1  0
 28 58  1  0
 29 59  1  0
 34 60  1  0
 36 61  1  0
 37 62  1  0
 37 63  1  0
 38 64  1  0
 38 65  1  0
 39 66  1  0
 39 67  1  0
 40 68  1  0
 41 69  1  0
 41 70  1  0
 41 71  1  0
 42 72  1  0
 43 73  1  0
M  END
> <Uni-Dock RESULT> 
ENERGY=   -5.739  LOWER_BOUND=    0.000  UPPER_BOUND=    0.000
INTER + INTRA:          -5.739
INTER:                  -5.739
INTRA:                   0.000
UNBOUND:                 0.000

$$$$

     RDKit          3D

 73 77  0  0  0  0  0  0  0  0999 V2000
   50.3040    7.0552   21.1794 O   0  0  0  0  0  0  0  0  0  0  0  0
   47.6096    8.4668   22.5520 O   0  0  0  0  0  0  0  0  0  0  0  0
   53.4471    4.7188   19.7494 O   0  0  0  0  0  0  0  0  0  0  0  0
   48.0333   10.6807   23.8955 O   0  0  0  0  0  0  0  0  0  0  0  0
   52.7245    6.3119   21.1302 O   0  0  0  0  0  0  0  0  0  0  0  0
   48.6001   12.5341   22.7779 O   0  0  0  0  0  0  0  0  0  0  0  0
   48.7755    6.0766   19.6363 C   0  0  0  0  0  0  0  0  0  0  0  0
   47.9912    8.5058   20.1978 C   0  0  0  0  0  0  0  0  0  0  0  0
   48.4858    5.0768   18.6469 C   0  0  0  0  0  0  0  0  0  0  0  0
   48.2787    9.2412   19.0042 C   0  0  0  0  0  0  0  0  0  0  0  0
   50.0867    6.1629   20.1606 C   0  0  0  0  0  0  0  0  0  0  0  0
   47.9716    9.1857   21.4361 C   0  0  0  0  0  0  0  0  0  0  0  0
   47.6833    7.0072   20.1733 C   0  0  0  0  0  0  0  0  0  0  0  0
   49.5457    4.2649   18.1642 C   0  0  0  0  0  0  0  0  0  0  0  0
   48.6062   10.6188   19.1068 C   0  0  0  0  0  0  0  0  0  0  0  0
   51.1203    5.3522   19.6730 C   0  0  0  0  0  0  0  0  0  0  0  0
   48.2965   10.5466   21.5204 C   0  0  0  0  0  0  0  0  0  0  0  0
   50.8404    4.4206   18.6706 C   0  0  0  0  0  0  0  0  0  0  0  0
   48.6212   11.2486   20.3573 C   0  0  0  0  0  0  0  0  0  0  0  0
   47.2012    4.8240   18.0993 C   0  0  0  0  0  0  0  0  0  0  0  0
   48.2504    8.6899   17.7009 C   0  0  0  0  0  0  0  0  0  0  0  0
   52.5251    5.4025   20.1541 C   0  0  0  0  0  0  0  0  0  0  0  0
   48.2917   11.2276   22.8358 C   0  0  0  0  0  0  0  0  0  0  0  0
   49.3124    3.2903   17.1790 C   0  0  0  0  0  0  0  0  0  0  0  0
   48.9117   11.3661   17.9565 C   0  0  0  0  0  0  0  0  0  0  0  0
   46.9815    3.8480   17.1220 C   0  0  0  0  0  0  0  0  0  0  0  0
   48.5532    9.4448   16.5642 C   0  0  0  0  0  0  0  0  0  0  0  0
   48.0392    3.0833   16.6582 C   0  0  0  0  0  0  0  0  0  0  0  0
   48.8887   10.7833   16.6924 C   0  0  0  0  0  0  0  0  0  0  0  0
   47.4543   10.8299   21.2397 S   0  0  0  0  0  0  0  0  0  0  0  0
   50.1917    6.2393   19.7721 N   0  0  0  0  0  0  0  0  0  0  0  0
   48.7900    5.8270   17.8932 N   0  0  0  0  0  0  0  0  0  0  0  0
   49.2593    6.6185   18.8103 C   0  0  0  0  0  0  0  0  0  0  0  0
   48.6779    7.9953   18.7272 C   0  0  0  0  0  0  0  0  0  0  0  0
   47.7509    9.9833   19.7624 C   0  0  0  0  0  0  0  0  0  0  0  0
   48.3379    8.6850   19.8250 C   0  0  0  0  0  0  0  0  0  0  0  0
   50.6384    4.8520   19.8394 C   0  0  0  0  0  0  0  0  0  0  0  0
   49.2559    4.4439   17.8631 C   0  0  0  0  0  0  0  0  0  0  0  0
   49.5830    3.9390   19.2529 C   0  0  0  0  0  0  0  0  0  0  0  0
   47.3443   10.7546   18.6844 C   0  0  0  0  0  0  0  0  0  0  0  0
   51.0930    7.2009   20.3982 C   0  0  0  0  0  0  0  0  0  0  0  0
   46.8030   12.1837   20.4307 C   0  0  0  0  0  0  0  0  0  0  0  0
   46.8005   12.0163   19.0666 C   0  0  0  0  0  0  0  0  0  0  0  0
   51.2507    7.0220   21.4270 H   0  0  0  0  0  0  0  0  0  0  0  0
   47.6976    9.0312   23.3494 H   0  0  0  0  0  0  0  0  0  0  0  0
   53.6840    6.2157   21.3254 H   0  0  0  0  0  0  0  0  0  0  0  0
   48.5526   12.8391   23.7082 H   0  0  0  0  0  0  0  0  0  0  0  0
   47.4278    6.6257   21.1689 H   0  0  0  0  0  0  0  0  0  0  0  0
   46.7531    6.9251   19.6061 H   0  0  0  0  0  0  0  0  0  0  0  0
   51.6464    3.7920   18.2920 H   0  0  0  0  0  0  0  0  0  0  0  0
   48.8763   12.3047   20.4205 H   0  0  0  0  0  0  0  0  0  0  0  0
   46.3274    5.3791   18.4272 H   0  0  0  0  0  0  0  0  0  0  0  0
   47.9813    7.6513   17.5413 H   0  0  0  0  0  0  0  0  0  0  0  0
   50.1295    2.6729   16.8093 H   0  0  0  0  0  0  0  0  0  0  0  0
   49.1689   12.4207   18.0358 H   0  0  0  0  0  0  0  0  0  0  0  0
   45.9799    3.6889   16.7301 H   0  0  0  0  0  0  0  0  0  0  0  0
   48.5240    8.9793   15.5823 H   0  0  0  0  0  0  0  0  0  0  0  0
   47.8754    2.3228   15.8997 H   0  0  0  0  0  0  0  0  0  0  0  0
   49.1264   11.3752   15.8129 H   0  0  0  0  0  0  0  0  0  0  0  0
   48.4789    8.3407   17.7198 H   0  0  0  0  0  0  0  0  0  0  0  0
   48.4882    8.2384   20.8040 H   0  0  0  0  0  0  0  0  0  0  0  0
   50.8291    4.5691   20.8811 H   0  0  0  0  0  0  0  0  0  0  0  0
   51.5799    4.7415   19.2867 H   0  0  0  0  0  0  0  0  0  0  0  0
   48.4650    3.8198   17.4330 H   0  0  0  0  0  0  0  0  0  0  0  0
   50.1238    4.3650   17.1980 H   0  0  0  0  0  0  0  0  0  0  0  0
   48.6822    3.9504   19.8793 H   0  0  0  0  0  0  0  0  0  0  0  0
   49.9473    2.9072   19.2128 H   0  0  0  0  0  0  0  0  0  0  0  0
   47.4247   10.4326   17.6533 H   0  0  0  0  0  0  0  0  0  0  0  0
   50.6365    7.6227   21.2980 H   0  0  0  0  0  0  0  0  0  0  0  0
   52.0339    6.7294   20.7047 H   0  0  0  0  0  0  0  0  0  0  0  0
   51.3526    8.0120   19.7098 H   0  0  0  0  0  0  0  0  0  0  0  0
   46.4510   13.0370   20.9939 H   0  0  0  0  0  0  0  0  0  0  0  0
   46.4255   12.7595   18.3737 H   0  0  0  0  0  0  0  0  0  0  0  0
  1 11  1  0
  2 12  1  0
  3 22  2  0
  4 23  2  0
  5 22  1  0
  6 23  1  0
  7  9  1  0
  7 11  2  0
  7 13  1  0
  8 10  1  0
  8 12  2  0
  8 13  1  0
  9 14  2  0
  9 20  1  0
 10 15  2  0
 10 21  1  0
 11 16  1  0
 12 17  1  0
 14 18  1  0
 14 24  1  0
 15 19  1  0
 15 25  1  0
 16 18  2  0
 16 22  1  0
 17 19  2  0
 17 23  1  0
 20 26  2  0
 21 27  2  0
 24 28  2  0
 25 29  2  0
 26 28  1  0
 27 29  1  0
 30 35  1  0
 30 42  1  0
 31 33  1  0
 31 37  1  0
 31 41  1  0
 32 33  2  0
 32 38  1  0
 33 34  1  0
 34 36  2  0
 35 36  1  0
 35 40  2  0
 37 39  1  0
 38 39  1  0
 40 43  1  0
 42 43  2  0
  1 44  1  0
  2 45  1  0
  5 46  1  0
  6 47  1  0
 13 48  1  0
 13 49  1  0
 18 50  1  0
 19 51  1  0
 20 52  1  0
 21 53  1  0
 24 54  1  0
 25 55  1  0
 26 56  1  0
 27 57  1  0
 28 58  1  0
 29 59  1  0
 34 60  1  0
 36 61  1  0
 37 62  1  0
 37 63  1  0
 38 64  1  0
 38 65  1  0
 39 66  1  0
 39 67  1  0
 40 68  1  0
 41 69  1  0
 41 70  1  0
 41 71  1  0
 42 72  1  0
 43 73  1  0
M  END
> <Uni-Dock RESULT> 
ENERGY=   -5.678  LOWER_BOUND=    1.800  UPPER_BOUND=    2.299
INTER + INTRA:          -5.678
INTER:                  -5.678
INTRA:                   0.000
UNBOUND:                 0.000

$$$$

     RDKit          3D

 73 77  0  0  0  0  0  0  0  0999 V2000
   47.9073    9.2923   12.0049 O   0  0  0  0  0  0  0  0  0  0  0  0
   50.9988    8.1610   11.4575 O   0  0  0  0  0  0  0  0  0  0  0  0
   43.8945   10.4202   12.0934 O   0  0  0  0  0  0  0  0  0  0  0  0
   52.9322    9.9061   11.7771 O   0  0  0  0  0  0  0  0  0  0  0  0
   46.0369   10.9948   11.8771 O   0  0  0  0  0  0  0  0  0  0  0  0
   53.4155   10.6211   13.8413 O   0  0  0  0  0  0  0  0  0  0  0  0
   47.3561    7.0195   12.4584 C   0  0  0  0  0  0  0  0  0  0  0  0
   49.7471    7.5243   13.3856 C   0  0  0  0  0  0  0  0  0  0  0  0
   46.3629    5.9926   12.6051 C   0  0  0  0  0  0  0  0  0  0  0  0
   49.5636    7.5515   14.8046 C   0  0  0  0  0  0  0  0  0  0  0  0
   46.9367    8.3542   12.2479 C   0  0  0  0  0  0  0  0  0  0  0  0
   50.7982    8.2755   12.8139 C   0  0  0  0  0  0  0  0  0  0  0  0
   48.8521    6.6893   12.4674 C   0  0  0  0  0  0  0  0  0  0  0  0
   44.9926    6.3636   12.6208 C   0  0  0  0  0  0  0  0  0  0  0  0
   50.3985    8.3888   15.5904 C   0  0  0  0  0  0  0  0  0  0  0  0
   45.5794    8.7019   12.2652 C   0  0  0  0  0  0  0  0  0  0  0  0
   51.6144    9.0969   13.6038 C   0  0  0  0  0  0  0  0  0  0  0  0
   44.6228    7.7036   12.4644 C   0  0  0  0  0  0  0  0  0  0  0  0
   51.4009    9.1548   14.9830 C   0  0  0  0  0  0  0  0  0  0  0  0
   46.6402    4.6070   12.7368 C   0  0  0  0  0  0  0  0  0  0  0  0
   48.5997    6.7827   15.4995 C   0  0  0  0  0  0  0  0  0  0  0  0
   45.0638   10.0826   12.0780 C   0  0  0  0  0  0  0  0  0  0  0  0
   52.6931    9.8926   12.9735 C   0  0  0  0  0  0  0  0  0  0  0  0
   43.9882    5.3948   12.7858 C   0  0  0  0  0  0  0  0  0  0  0  0
   50.2332    8.4532   16.9846 C   0  0  0  0  0  0  0  0  0  0  0  0
   45.6309    3.6522   12.8964 C   0  0  0  0  0  0  0  0  0  0  0  0
   48.4473    6.8534   16.8871 C   0  0  0  0  0  0  0  0  0  0  0  0
   44.3036    4.0471   12.9253 C   0  0  0  0  0  0  0  0  0  0  0  0
   49.2619    7.6930   17.6301 C   0  0  0  0  0  0  0  0  0  0  0  0
   52.1472    8.3915   13.8984 S   0  0  0  0  0  0  0  0  0  0  0  0
   46.7562    8.3106   12.6131 N   0  0  0  0  0  0  0  0  0  0  0  0
   46.3806    6.2201   13.6873 N   0  0  0  0  0  0  0  0  0  0  0  0
   47.0962    7.2869   13.4933 C   0  0  0  0  0  0  0  0  0  0  0  0
   48.3440    7.2946   14.3200 C   0  0  0  0  0  0  0  0  0  0  0  0
   50.7187    7.7080   14.5908 C   0  0  0  0  0  0  0  0  0  0  0  0
   49.5136    7.7264   13.8282 C   0  0  0  0  0  0  0  0  0  0  0  0
   45.5677    8.1807   11.7769 C   0  0  0  0  0  0  0  0  0  0  0  0
   45.1403    6.0678   12.9329 C   0  0  0  0  0  0  0  0  0  0  0  0
   45.2381    6.7181   11.5687 C   0  0  0  0  0  0  0  0  0  0  0  0
   50.9932    7.2213   15.8597 C   0  0  0  0  0  0  0  0  0  0  0  0
   47.2224    9.6803   12.8014 C   0  0  0  0  0  0  0  0  0  0  0  0
   53.0872    8.0341   15.2770 C   0  0  0  0  0  0  0  0  0  0  0  0
   52.3510    7.4076   16.2538 C   0  0  0  0  0  0  0  0  0  0  0  0
   47.4779   10.1658   11.8990 H   0  0  0  0  0  0  0  0  0  0  0  0
   51.7093    8.7762   11.1772 H   0  0  0  0  0  0  0  0  0  0  0  0
   45.5324   11.8335   11.7761 H   0  0  0  0  0  0  0  0  0  0  0  0
   54.0785   11.0801   13.2841 H   0  0  0  0  0  0  0  0  0  0  0  0
   49.1766    6.7416   11.4215 H   0  0  0  0  0  0  0  0  0  0  0  0
   49.0463    5.6541   12.7585 H   0  0  0  0  0  0  0  0  0  0  0  0
   43.5677    7.9768   12.4786 H   0  0  0  0  0  0  0  0  0  0  0  0
   52.0316    9.7937   15.5981 H   0  0  0  0  0  0  0  0  0  0  0  0
   47.6579    4.2291   12.7105 H   0  0  0  0  0  0  0  0  0  0  0  0
   47.9451    6.0991   14.9694 H   0  0  0  0  0  0  0  0  0  0  0  0
   42.9389    5.6850   12.8011 H   0  0  0  0  0  0  0  0  0  0  0  0
   50.8690    9.1000   17.5863 H   0  0  0  0  0  0  0  0  0  0  0  0
   45.8898    2.6008   12.9942 H   0  0  0  0  0  0  0  0  0  0  0  0
   47.6902    6.2485   17.3795 H   0  0  0  0  0  0  0  0  0  0  0  0
   43.5144    3.3104   13.0481 H   0  0  0  0  0  0  0  0  0  0  0  0
   49.1477    7.7535   18.7088 H   0  0  0  0  0  0  0  0  0  0  0  0
   48.2377    6.8469   15.3009 H   0  0  0  0  0  0  0  0  0  0  0  0
   49.5626    8.0835   12.8032 H   0  0  0  0  0  0  0  0  0  0  0  0
   45.7380    8.6593   10.8056 H   0  0  0  0  0  0  0  0  0  0  0  0
   44.7231    8.6916   12.2563 H   0  0  0  0  0  0  0  0  0  0  0  0
   44.9398    4.9984   12.8056 H   0  0  0  0  0  0  0  0  0  0  0  0
   44.3071    6.4835   13.5116 H   0  0  0  0  0  0  0  0  0  0  0  0
   46.0243    6.2336   10.9761 H   0  0  0  0  0  0  0  0  0  0  0  0
   44.2956    6.6111   11.0217 H   0  0  0  0  0  0  0  0  0  0  0  0
   50.2543    6.7416   16.4901 H   0  0  0  0  0  0  0  0  0  0  0  0
   48.1777    9.8323   12.2913 H   0  0  0  0  0  0  0  0  0  0  0  0
   46.5151   10.4065   12.3845 H   0  0  0  0  0  0  0  0  0  0  0  0
   47.3371    9.9208   13.8636 H   0  0  0  0  0  0  0  0  0  0  0  0
   54.1352    8.2985   15.3045 H   0  0  0  0  0  0  0  0  0  0  0  0
   52.7635    7.0947   17.2052 H   0  0  0  0  0  0  0  0  0  0  0  0
  1 11  1  0
  2 12  1  0
  3 22  2  0
  4 23  2  0
  5 22  1  0
  6 23  1  0
  7  9  1  0
  7 11  2  0
  7 13  1  0
  8 10  1  0
  8 12  2  0
  8 13  1  0
  9 14  2  0
  9 20  1  0
 10 15  2  0
 10 21  1  0
 11 16  1  0
 12 17  1  0
 14 18  1  0
 14 24  1  0
 15 19  1  0
 15 25  1  0
 16 18  2  0
 16 22  1  0
 17 19  2  0
 17 23  1  0
 20 26  2  0
 21 27  2  0
 24 28  2  0
 25 29  2  0
 26 28  1  0
 27 29  1  0
 30 35  1  0
 30 42  1  0
 31 33  1  0
 31 37  1  0
 31 41  1  0
 32 33  2  0
 32 38  1  0
 33 34  1  0
 34 36  2  0
 35 36  1  0
 35 40  2  0
 37 39  1  0
 38 39  1  0
 40 43  1  0
 42 43  2  0
  1 44  1  0
  2 45  1  0
  5 46  1  0
  6 47  1  0
 13 48  1  0
 13 49  1  0
 18 50  1  0
 19 51  1  0
 20 52  1  0
 21 53  1  0
 24 54  1  0
 25 55  1  0
 26 56  1  0
 27 57  1  0
 28 58  1  0
 29 59  1  0
 34 60  1  0
 36 61  1  0
 37 62  1  0
 37 63  1  0
 38 64  1  0
 38 65  1  0
 39 66  1  0
 39 67  1  0
 40 68  1  0
 41 69  1  0
 41 70  1  0
 41 71  1  0
 42 72  1  0
 43 73  1  0
M  END
> <Uni-Dock RESULT> 
ENERGY=   -5.566  LOWER_BOUND=    5.572  UPPER_BOUND=    7.951
INTER + INTRA:          -5.566
INTER:                  -5.566
INTRA:                   0.000
UNBOUND:                 0.000

$$$$

     RDKit          3D

 73 77  0  0  0  0  0  0  0  0999 V2000
   51.6806    8.1394   17.0035 O   0  0  0  0  0  0  0  0  0  0  0  0
   49.6544   10.7816   17.2284 O   0  0  0  0  0  0  0  0  0  0  0  0
   54.0858    4.7551   17.3828 O   0  0  0  0  0  0  0  0  0  0  0  0
   50.5666   13.0172   16.2011 O   0  0  0  0  0  0  0  0  0  0  0  0
   53.9189    6.9577   17.0872 O   0  0  0  0  0  0  0  0  0  0  0  0
   50.7617   13.1877   13.9788 O   0  0  0  0  0  0  0  0  0  0  0  0
   49.6926    6.8360   17.1589 C   0  0  0  0  0  0  0  0  0  0  0  0
   49.2078    8.9746   15.7368 C   0  0  0  0  0  0  0  0  0  0  0  0
   49.0572    5.5741   17.4165 C   0  0  0  0  0  0  0  0  0  0  0  0
   49.0871    8.4755   14.4010 C   0  0  0  0  0  0  0  0  0  0  0  0
   51.1058    6.9022   17.1454 C   0  0  0  0  0  0  0  0  0  0  0  0
   49.6300   10.3079   15.9368 C   0  0  0  0  0  0  0  0  0  0  0  0
   48.8735    8.1150   16.9576 C   0  0  0  0  0  0  0  0  0  0  0  0
   49.8676    4.4176   17.5630 C   0  0  0  0  0  0  0  0  0  0  0  0
   49.4636    9.3118   13.3173 C   0  0  0  0  0  0  0  0  0  0  0  0
   51.8897    5.7503   17.2932 C   0  0  0  0  0  0  0  0  0  0  0  0
   49.9973   11.1213   14.8559 C   0  0  0  0  0  0  0  0  0  0  0  0
   51.2607    4.5184   17.4877 C   0  0  0  0  0  0  0  0  0  0  0  0
   49.9213   10.6132   13.5570 C   0  0  0  0  0  0  0  0  0  0  0  0
   47.6570    5.3801   17.5419 C   0  0  0  0  0  0  0  0  0  0  0  0
   48.6008    7.1879   14.0711 C   0  0  0  0  0  0  0  0  0  0  0  0
   53.3751    5.7361   17.2642 C   0  0  0  0  0  0  0  0  0  0  0  0
   50.4599   12.5075   15.0977 C   0  0  0  0  0  0  0  0  0  0  0  0
   49.2872    3.1585   17.7924 C   0  0  0  0  0  0  0  0  0  0  0  0
   49.3749    8.8466   11.9941 C   0  0  0  0  0  0  0  0  0  0  0  0
   47.0921    4.1220   17.7743 C   0  0  0  0  0  0  0  0  0  0  0  0
   48.5145    6.7381   12.7505 C   0  0  0  0  0  0  0  0  0  0  0  0
   47.9080    3.0093   17.8954 C   0  0  0  0  0  0  0  0  0  0  0  0
   48.9063    7.5667   11.7110 C   0  0  0  0  0  0  0  0  0  0  0  0
   49.1172   11.3298   14.6320 S   0  0  0  0  0  0  0  0  0  0  0  0
   51.0733    6.6355   16.8362 N   0  0  0  0  0  0  0  0  0  0  0  0
   49.1032    5.4014   16.3250 N   0  0  0  0  0  0  0  0  0  0  0  0
   49.8775    6.4304   16.1533 C   0  0  0  0  0  0  0  0  0  0  0  0
   49.3367    7.3876   15.1374 C   0  0  0  0  0  0  0  0  0  0  0  0
   48.8691    9.6398   14.3681 C   0  0  0  0  0  0  0  0  0  0  0  0
   49.4101    8.7147   15.3092 C   0  0  0  0  0  0  0  0  0  0  0  0
   51.4818    5.6984   17.8772 C   0  0  0  0  0  0  0  0  0  0  0  0
   49.4967    4.3902   17.3016 C   0  0  0  0  0  0  0  0  0  0  0  0
   50.2673    5.0019   18.4527 C   0  0  0  0  0  0  0  0  0  0  0  0
   48.1370    9.4439   13.2071 C   0  0  0  0  0  0  0  0  0  0  0  0
   52.1576    7.4347   16.2757 C   0  0  0  0  0  0  0  0  0  0  0  0
   48.2616   11.7611   13.2201 C   0  0  0  0  0  0  0  0  0  0  0  0
   47.7881   10.6596   12.5484 C   0  0  0  0  0  0  0  0  0  0  0  0
   52.6536    8.0322   16.9914 H   0  0  0  0  0  0  0  0  0  0  0  0
   50.0239   11.6901   17.2384 H   0  0  0  0  0  0  0  0  0  0  0  0
   54.8845    6.7694   17.0912 H   0  0  0  0  0  0  0  0  0  0  0  0
   51.0431   14.0710   14.2969 H   0  0  0  0  0  0  0  0  0  0  0  0
   48.9649    8.6794   17.8930 H   0  0  0  0  0  0  0  0  0  0  0  0
   47.8035    7.9122   16.8685 H   0  0  0  0  0  0  0  0  0  0  0  0
   51.8728    3.6235   17.6011 H   0  0  0  0  0  0  0  0  0  0  0  0
   50.2084   11.2419   12.7164 H   0  0  0  0  0  0  0  0  0  0  0  0
   46.9622    6.2115   17.4694 H   0  0  0  0  0  0  0  0  0  0  0  0
   48.2679    6.5035   14.8440 H   0  0  0  0  0  0  0  0  0  0  0  0
   49.9129    2.2740   17.9002 H   0  0  0  0  0  0  0  0  0  0  0  0
   49.6696    9.4855   11.1637 H   0  0  0  0  0  0  0  0  0  0  0  0
   46.0133    4.0201   17.8628 H   0  0  0  0  0  0  0  0  0  0  0  0
   48.1394    5.7392   12.5429 H   0  0  0  0  0  0  0  0  0  0  0  0
   47.4758    2.0290   18.0768 H   0  0  0  0  0  0  0  0  0  0  0  0
   48.8429    7.2226   10.6824 H   0  0  0  0  0  0  0  0  0  0  0  0
   48.8133    6.9206   14.3117 H   0  0  0  0  0  0  0  0  0  0  0  0
   49.8755    9.1120   16.2071 H   0  0  0  0  0  0  0  0  0  0  0  0
   52.0106    6.2315   18.6757 H   0  0  0  0  0  0  0  0  0  0  0  0
   52.1741    4.9590   17.4552 H   0  0  0  0  0  0  0  0  0  0  0  0
   48.5912    3.9124   17.6914 H   0  0  0  0  0  0  0  0  0  0  0  0
   50.0821    3.6089   16.8030 H   0  0  0  0  0  0  0  0  0  0  0  0
   49.6361    5.7223   18.9879 H   0  0  0  0  0  0  0  0  0  0  0  0
   50.5705    4.2299   19.1677 H   0  0  0  0  0  0  0  0  0  0  0  0
   47.8516    8.4669   12.8366 H   0  0  0  0  0  0  0  0  0  0  0  0
   52.0473    8.4840   16.5636 H   0  0  0  0  0  0  0  0  0  0  0  0
   53.1348    7.1006   16.6432 H   0  0  0  0  0  0  0  0  0  0  0  0
   52.1857    7.3602   15.1835 H   0  0  0  0  0  0  0  0  0  0  0  0
   48.1448   12.8018   12.9510 H   0  0  0  0  0  0  0  0  0  0  0  0
   47.2168   10.7192   11.6301 H   0  0  0  0  0  0  0  0  0  0  0  0
  1 11  1  0
  2 12  1  0
  3 22  2  0
  4 23  2  0
  5 22  1  0
  6 23  1  0
  7  9  1  0
  7 11  2  0
  7 13  1  0
  8 10  1  0
  8 12  2  0
  8 13  1  0
  9 14  2  0
  9 20  1  0
 10 15  2  0
 10 21  1  0
 11 16  1  0
 12 17  1  0
 14 18  1  0
 14 24  1  0
 15 19  1  0
 15 25  1  0
 16 18  2  0
 16 22  1  0
 17 19  2  0
 17 23  1  0
 20 26  2  0
 21 27  2  0
 24 28  2  0
 25 29  2  0
 26 28  1  0
 27 29  1  0
 30 35  1  0
 30 42  1  0
 31 33  1  0
 31 37  1  0
 31 41  1  0
 32 33  2  0
 32 38  1  0
 33 34  1  0
 34 36  2  0
 35 36  1  0
 35 40  2  0
 37 39  1  0
 38 39  1  0
 40 43  1  0
 42 43  2  0
  1 44  1  0
  2 45  1  0
  5 46  1  0
  6 47  1  0
 13 48  1  0
 13 49  1  0
 18 50  1  0
 19 51  1  0
 20 52  1  0
 21 53  1  0
 24 54  1  0
 25 55  1  0
 26 56  1  0
 27 57  1  0
 28 58  1  0
 29 59  1  0
 34 60  1  0
 36 61  1  0
 37 62  1  0
 37 63  1  0
 38 64  1  0
 38 65  1  0
 39 66  1  0
 39 67  1  0
 40 68  1  0
 41 69  1  0
 41 70  1  0
 41 71  1  0
 42 72  1  0
 43 73  1  0
M  END
> <Uni-Dock RESULT> 
ENERGY=   -5.080  LOWER_BOUND=    3.549  UPPER_BOUND=    4.558
INTER + INTRA:          -5.080
INTER:                  -5.080
INTRA:                   0.000
UNBOUND:                 0.000

$$$$

     RDKit          3D

 73 77  0  0  0  0  0  0  0  0999 V2000
   47.5025   13.9162   12.0785 O   0  0  0  0  0  0  0  0  0  0  0  0
   49.7364   12.6664    9.9374 O   0  0  0  0  0  0  0  0  0  0  0  0
   44.5086   15.8601   14.2326 O   0  0  0  0  0  0  0  0  0  0  0  0
   52.2172   12.5805   10.7881 O   0  0  0  0  0  0  0  0  0  0  0  0
   46.6786   15.5400   13.8386 O   0  0  0  0  0  0  0  0  0  0  0  0
   52.7580   11.1322   12.4055 O   0  0  0  0  0  0  0  0  0  0  0  0
   45.9022   12.6296   10.8706 C   0  0  0  0  0  0  0  0  0  0  0  0
   48.1358   11.2828   11.0388 C   0  0  0  0  0  0  0  0  0  0  0  0
   44.5335   12.3638   10.5266 C   0  0  0  0  0  0  0  0  0  0  0  0
   47.8373   10.2434   11.9761 C   0  0  0  0  0  0  0  0  0  0  0  0
   46.1851   13.6104   11.8504 C   0  0  0  0  0  0  0  0  0  0  0  0
   49.4707   11.7261   10.9060 C   0  0  0  0  0  0  0  0  0  0  0  0
   47.0564   11.9166   10.1588 C   0  0  0  0  0  0  0  0  0  0  0  0
   43.5059   13.0320   11.2432 C   0  0  0  0  0  0  0  0  0  0  0  0
   48.8792    9.7369   12.7968 C   0  0  0  0  0  0  0  0  0  0  0  0
   45.1578   14.2610   12.5466 C   0  0  0  0  0  0  0  0  0  0  0  0
   50.4883   11.2151   11.7234 C   0  0  0  0  0  0  0  0  0  0  0  0
   43.8291   13.9547   12.2436 C   0  0  0  0  0  0  0  0  0  0  0  0
   50.1822   10.2333   12.6686 C   0  0  0  0  0  0  0  0  0  0  0  0
   44.1105   11.4715    9.5074 C   0  0  0  0  0  0  0  0  0  0  0  0
   46.5574    9.6627   12.1430 C   0  0  0  0  0  0  0  0  0  0  0  0
   45.3756   15.2810   13.6047 C   0  0  0  0  0  0  0  0  0  0  0  0
   51.8745   11.7167   11.5787 C   0  0  0  0  0  0  0  0  0  0  0  0
   42.1527   12.7846   10.9562 C   0  0  0  0  0  0  0  0  0  0  0  0
   48.6167    8.7291   13.7405 C   0  0  0  0  0  0  0  0  0  0  0  0
   42.7602   11.2371    9.2289 C   0  0  0  0  0  0  0  0  0  0  0  0
   46.3100    8.6585   13.0831 C   0  0  0  0  0  0  0  0  0  0  0  0
   41.7802   11.8912    9.9571 C   0  0  0  0  0  0  0  0  0  0  0  0
   47.3397    8.1942   13.8860 C   0  0  0  0  0  0  0  0  0  0  0  0
   50.5919   10.4394   11.2176 S   0  0  0  0  0  0  0  0  0  0  0  0
   45.9677   13.3660   12.0971 N   0  0  0  0  0  0  0  0  0  0  0  0
   44.5412   11.6167   11.3421 N   0  0  0  0  0  0  0  0  0  0  0  0
   45.6905   12.0402   11.7750 C   0  0  0  0  0  0  0  0  0  0  0  0
   46.6995   10.9399   11.8838 C   0  0  0  0  0  0  0  0  0  0  0  0
   48.9455   10.0714   11.5931 C   0  0  0  0  0  0  0  0  0  0  0  0
   47.9794   11.1186   11.5285 C   0  0  0  0  0  0  0  0  0  0  0  0
   44.9542   14.3917   11.8746 C   0  0  0  0  0  0  0  0  0  0  0  0
   43.4630   12.5855   11.1693 C   0  0  0  0  0  0  0  0  0  0  0  0
   43.9994   13.9490   10.7866 C   0  0  0  0  0  0  0  0  0  0  0  0
   48.8223    8.7294   11.9188 C   0  0  0  0  0  0  0  0  0  0  0  0
   47.0005   13.7287   13.0618 C   0  0  0  0  0  0  0  0  0  0  0  0
   51.1008    8.8341   11.4921 C   0  0  0  0  0  0  0  0  0  0  0  0
   50.0576    8.0191   11.8610 C   0  0  0  0  0  0  0  0  0  0  0  0
   47.5485   14.5890   12.7882 H   0  0  0  0  0  0  0  0  0  0  0  0
   50.6781   12.9357    9.9902 H   0  0  0  0  0  0  0  0  0  0  0  0
   46.6419   16.2188   14.5498 H   0  0  0  0  0  0  0  0  0  0  0  0
   53.6139   11.5594   12.1918 H   0  0  0  0  0  0  0  0  0  0  0  0
   47.4762   12.6501    9.4605 H   0  0  0  0  0  0  0  0  0  0  0  0
   46.7086   11.1027    9.5181 H   0  0  0  0  0  0  0  0  0  0  0  0
   43.0318   14.4613   12.7875 H   0  0  0  0  0  0  0  0  0  0  0  0
   50.9700    9.8369   13.3061 H   0  0  0  0  0  0  0  0  0  0  0  0
   44.8269   10.9359    8.8917 H   0  0  0  0  0  0  0  0  0  0  0  0
   45.7186    9.9786   11.5319 H   0  0  0  0  0  0  0  0  0  0  0  0
   41.3684   13.2968   11.5112 H   0  0  0  0  0  0  0  0  0  0  0  0
   49.4142    8.3453   14.3741 H   0  0  0  0  0  0  0  0  0  0  0  0
   42.4819   10.5441    8.4388 H   0  0  0  0  0  0  0  0  0  0  0  0
   45.3099    8.2440   13.1811 H   0  0  0  0  0  0  0  0  0  0  0  0
   40.7292   11.7144    9.7454 H   0  0  0  0  0  0  0  0  0  0  0  0
   47.1537    7.4147   14.6196 H   0  0  0  0  0  0  0  0  0  0  0  0
   46.2917    9.9824   12.1849 H   0  0  0  0  0  0  0  0  0  0  0  0
   48.2991   12.0867   11.1529 H   0  0  0  0  0  0  0  0  0  0  0  0
   45.4316   15.3338   11.5814 H   0  0  0  0  0  0  0  0  0  0  0  0
   44.4039   14.5731   12.8064 H   0  0  0  0  0  0  0  0  0  0  0  0
   42.7978   12.2275   10.3760 H   0  0  0  0  0  0  0  0  0  0  0  0
   42.8673   12.6372   12.0882 H   0  0  0  0  0  0  0  0  0  0  0  0
   44.5230   13.8911    9.8241 H   0  0  0  0  0  0  0  0  0  0  0  0
   43.1815   14.6688   10.6775 H   0  0  0  0  0  0  0  0  0  0  0  0
   47.8825    8.2616   12.1859 H   0  0  0  0  0  0  0  0  0  0  0  0
   47.9631   13.8606   12.5596 H   0  0  0  0  0  0  0  0  0  0  0  0
   46.7669   14.6744   13.5644 H   0  0  0  0  0  0  0  0  0  0  0  0
   47.1014   12.9688   13.8438 H   0  0  0  0  0  0  0  0  0  0  0  0
   52.1404    8.5640   11.3679 H   0  0  0  0  0  0  0  0  0  0  0  0
   50.1707    6.9639   12.0773 H   0  0  0  0  0  0  0  0  0  0  0  0
  1 11  1  0
  2 12  1  0
  3 22  2  0
  4 23  2  0
  5 22  1  0
  6 23  1  0
  7  9  1  0
  7 11  2  0
  7 13  1  0
  8 10  1  0
  8 12  2  0
  8 13  1  0
  9 14  2  0
  9 20  1  0
 10 15  2  0
 10 21  1  0
 11 16  1  0
 12 17  1  0
 14 18  1  0
 14 24  1  0
 15 19  1  0
 15 25  1  0
 16 18  2  0
 16 22  1  0
 17 19  2  0
 17 23  1  0
 20 26  2  0
 21 27  2  0
 24 28  2  0
 25 29  2  0
 26 28  1  0
 27 29  1  0
 30 35  1  0
 30 42  1  0
 31 33  1  0
 31 37  1  0
 31 41  1  0
 32 33  2  0
 32 38  1  0
 33 34  1  0
 34 36  2  0
 35 36  1  0
 35 40  2  0
 37 39  1  0
 38 39  1  0
 40 43  1  0
 42 43  2  0
  1 44  1  0
  2 45  1  0
  5 46  1  0
  6 47  1  0
 13 48  1  0
 13 49  1  0
 18 50  1  0
 19 51  1  0
 20 52  1  0
 21 53  1  0
 24 54  1  0
 25 55  1  0
 26 56  1  0
 27 57  1  0
 28 58  1  0
 29 59  1  0
 34 60  1  0
 36 61  1  0
 37 62  1  0
 37 63  1  0
 38 64  1  0
 38 65  1  0
 39 66  1  0
 39 67  1  0
 40 68  1  0
 41 69  1  0
 41 70  1  0
 41 71  1  0
 42 72  1  0
 43 73  1  0
M  END
> <Uni-Dock RESULT> 
ENERGY=   -5.079  LOWER_BOUND=    7.100  UPPER_BOUND=   10.339
INTER + INTRA:          -5.079
INTER:                  -5.079
INTRA:                   0.000
UNBOUND:                 0.000

$$$$

     RDKit          3D

 73 77  0  0  0  0  0  0  0  0999 V2000
   47.5914   11.3266   17.4720 O   0  0  0  0  0  0  0  0  0  0  0  0
   47.4919    9.1985   14.9033 O   0  0  0  0  0  0  0  0  0  0  0  0
   47.0853   13.7733   20.8096 O   0  0  0  0  0  0  0  0  0  0  0  0
   48.2487   10.1642   12.5838 O   0  0  0  0  0  0  0  0  0  0  0  0
   47.2698   13.5721   18.5978 O   0  0  0  0  0  0  0  0  0  0  0  0
   50.4086   10.6542   12.2673 O   0  0  0  0  0  0  0  0  0  0  0  0
   47.7897    9.3822   18.8341 C   0  0  0  0  0  0  0  0  0  0  0  0
   49.1356    9.0219   16.6228 C   0  0  0  0  0  0  0  0  0  0  0  0
   47.6977    8.7618   20.1260 C   0  0  0  0  0  0  0  0  0  0  0  0
   50.5025    9.1017   17.0390 C   0  0  0  0  0  0  0  0  0  0  0  0
   47.6040   10.7810   18.7304 C   0  0  0  0  0  0  0  0  0  0  0  0
   48.8003    9.3666   15.2944 C   0  0  0  0  0  0  0  0  0  0  0  0
   48.0258    8.5544   17.5668 C   0  0  0  0  0  0  0  0  0  0  0  0
   47.5097    9.5841   21.2680 C   0  0  0  0  0  0  0  0  0  0  0  0
   51.4722    9.5931   16.1258 C   0  0  0  0  0  0  0  0  0  0  0  0
   47.4181   11.5769   19.8684 C   0  0  0  0  0  0  0  0  0  0  0  0
   49.7698    9.8494   14.4046 C   0  0  0  0  0  0  0  0  0  0  0  0
   47.3858   10.9702   21.1263 C   0  0  0  0  0  0  0  0  0  0  0  0
   51.0947    9.9686   14.8308 C   0  0  0  0  0  0  0  0  0  0  0  0
   47.7787    7.3650   20.3641 C   0  0  0  0  0  0  0  0  0  0  0  0
   50.9723    8.7097   18.3152 C   0  0  0  0  0  0  0  0  0  0  0  0
   47.2424   13.0519   19.8420 C   0  0  0  0  0  0  0  0  0  0  0  0
   49.3846   10.2265   13.0250 C   0  0  0  0  0  0  0  0  0  0  0  0
   47.4378    9.0218   22.5538 C   0  0  0  0  0  0  0  0  0  0  0  0
   52.8203    9.7017   16.5081 C   0  0  0  0  0  0  0  0  0  0  0  0
   47.7017    6.8177   21.6487 C   0  0  0  0  0  0  0  0  0  0  0  0
   52.3165    8.8197   18.6822 C   0  0  0  0  0  0  0  0  0  0  0  0
   47.5354    7.6474   22.7453 C   0  0  0  0  0  0  0  0  0  0  0  0
   53.2408    9.3205   17.7792 C   0  0  0  0  0  0  0  0  0  0  0  0
   50.1003    9.0013   14.2053 S   0  0  0  0  0  0  0  0  0  0  0  0
   47.9300   10.8001   18.9777 N   0  0  0  0  0  0  0  0  0  0  0  0
   48.7807    8.9619   20.2277 N   0  0  0  0  0  0  0  0  0  0  0  0
   48.7825    9.7163   19.1700 C   0  0  0  0  0  0  0  0  0  0  0  0
   49.8046    9.2862   18.1646 C   0  0  0  0  0  0  0  0  0  0  0  0
   50.4959    8.8501   15.8810 C   0  0  0  0  0  0  0  0  0  0  0  0
   49.5458    9.2895   16.8496 C   0  0  0  0  0  0  0  0  0  0  0  0
   46.9001   11.0952   19.9681 C   0  0  0  0  0  0  0  0  0  0  0  0
   47.8210    9.2534   21.2884 C   0  0  0  0  0  0  0  0  0  0  0  0
   46.5402    9.8385   20.7312 C   0  0  0  0  0  0  0  0  0  0  0  0
   51.7565    8.2902   16.0217 C   0  0  0  0  0  0  0  0  0  0  0  0
   48.2869   11.9224   18.1163 C   0  0  0  0  0  0  0  0  0  0  0  0
   51.5888    8.3316   13.7076 C   0  0  0  0  0  0  0  0  0  0  0  0
   52.3837    7.9923   14.7761 C   0  0  0  0  0  0  0  0  0  0  0  0
   47.4753   12.2953   17.5529 H   0  0  0  0  0  0  0  0  0  0  0  0
   47.3770    9.5316   13.9880 H   0  0  0  0  0  0  0  0  0  0  0  0
   47.1437   14.5342   18.7607 H   0  0  0  0  0  0  0  0  0  0  0  0
   50.0028   10.8589   11.3990 H   0  0  0  0  0  0  0  0  0  0  0  0
   47.0549    8.4980   17.0608 H   0  0  0  0  0  0  0  0  0  0  0  0
   48.2737    7.5142   17.7914 H   0  0  0  0  0  0  0  0  0  0  0  0
   47.2423   11.5917   22.0102 H   0  0  0  0  0  0  0  0  0  0  0  0
   51.8487   10.3456   14.1427 H   0  0  0  0  0  0  0  0  0  0  0  0
   47.8969    6.6583   19.5482 H   0  0  0  0  0  0  0  0  0  0  0  0
   50.2948    8.2985   19.0559 H   0  0  0  0  0  0  0  0  0  0  0  0
   47.2975    9.6572   23.4268 H   0  0  0  0  0  0  0  0  0  0  0  0
   53.5626   10.0844   15.8102 H   0  0  0  0  0  0  0  0  0  0  0  0
   47.7691    5.7410   21.7843 H   0  0  0  0  0  0  0  0  0  0  0  0
   52.6329    8.5112   19.6753 H   0  0  0  0  0  0  0  0  0  0  0  0
   47.4739    7.2287   23.7460 H   0  0  0  0  0  0  0  0  0  0  0  0
   54.2870    9.4098   18.0588 H   0  0  0  0  0  0  0  0  0  0  0  0
   50.7209    8.8965   18.5917 H   0  0  0  0  0  0  0  0  0  0  0  0
   48.5702    9.6143   16.4982 H   0  0  0  0  0  0  0  0  0  0  0  0
   46.0060   11.4916   19.4732 H   0  0  0  0  0  0  0  0  0  0  0  0
   47.2656   11.8637   20.6608 H   0  0  0  0  0  0  0  0  0  0  0  0
   47.5891    8.3204   21.8135 H   0  0  0  0  0  0  0  0  0  0  0  0
   48.2795    9.9280   22.0208 H   0  0  0  0  0  0  0  0  0  0  0  0
   46.0555    9.1157   20.0630 H   0  0  0  0  0  0  0  0  0  0  0  0
   45.8373   10.0680   21.5389 H   0  0  0  0  0  0  0  0  0  0  0  0
   52.2202    8.0919   16.9803 H   0  0  0  0  0  0  0  0  0  0  0  0
   47.9552   11.7377   17.0908 H   0  0  0  0  0  0  0  0  0  0  0  0
   47.8085   12.8514   18.4476 H   0  0  0  0  0  0  0  0  0  0  0  0
   49.3673   12.1015   18.1205 H   0  0  0  0  0  0  0  0  0  0  0  0
   51.8091    8.2166   12.6553 H   0  0  0  0  0  0  0  0  0  0  0  0
   53.3669    7.5498   14.6731 H   0  0  0  0  0  0  0  0  0  0  0  0
  1 11  1  0
  2 12  1  0
  3 22  2  0
  4 23  2  0
  5 22  1  0
  6 23  1  0
  7  9  1  0
  7 11  2  0
  7 13  1  0
  8 10  1  0
  8 12  2  0
  8 13  1  0
  9 14  2  0
  9 20  1  0
 10 15  2  0
 10 21  1  0
 11 16  1  0
 12 17  1  0
 14 18  1  0
 14 24  1  0
 15 19  1  0
 15 25  1  0
 16 18  2  0
 16 22  1  0
 17 19  2  0
 17 23  1  0
 20 26  2  0
 21 27  2  0
 24 28  2  0
 25 29  2  0
 26 28  1  0
 27 29  1  0
 30 35  1  0
 30 42  1  0
 31 33  1  0
 31 37  1  0
 31 41  1  0
 32 33  2  0
 32 38  1  0
 33 34  1  0
 34 36  2  0
 35 36  1  0
 35 40  2  0
 37 39  1  0
 38 39  1  0
 40 43  1  0
 42 43  2  0
  1 44  1  0
  2 45  1  0
  5 46  1  0
  6 47  1  0
 13 48  1  0
 13 49  1  0
 18 50  1  0
 19 51  1  0
 20 52  1  0
 21 53  1  0
 24 54  1  0
 25 55  1  0
 26 56  1  0
 27 57  1  0
 28 58  1  0
 29 59  1  0
 34 60  1  0
 36 61  1  0
 37 62  1  0
 37 63  1  0
 38 64  1  0
 38 65  1  0
 39 66  1  0
 39 67  1  0
 40 68  1  0
 41 69  1  0
 41 70  1  0
 41 71  1  0
 42 72  1  0
 43 73  1  0
M  END
> <Uni-Dock RESULT> 
ENERGY=   -5.055  LOWER_BOUND=    2.953  UPPER_BOUND=    5.338
INTER + INTRA:          -5.055
INTER:                  -5.055
INTRA:                   0.000
UNBOUND:                 0.000

$$$$

     RDKit          3D

 73 77  0  0  0  0  0  0  0  0999 V2000
   48.4313    6.5811   17.7561 O   0  0  0  0  0  0  0  0  0  0  0  0
   49.1081    9.7740   18.4517 O   0  0  0  0  0  0  0  0  0  0  0  0
   48.0435    2.6603   16.3925 O   0  0  0  0  0  0  0  0  0  0  0  0
   47.0306   11.3530   18.7281 O   0  0  0  0  0  0  0  0  0  0  0  0
   47.1822    4.7051   16.6012 O   0  0  0  0  0  0  0  0  0  0  0  0
   45.7112   11.1036   20.5176 O   0  0  0  0  0  0  0  0  0  0  0  0
   50.5572    6.1135   18.7244 C   0  0  0  0  0  0  0  0  0  0  0  0
   49.4094    8.0421   20.0639 C   0  0  0  0  0  0  0  0  0  0  0  0
   51.6638    5.2164   18.9060 C   0  0  0  0  0  0  0  0  0  0  0  0
   49.0324    7.4227   21.2977 C   0  0  0  0  0  0  0  0  0  0  0  0
   49.4240    5.6676   18.0040 C   0  0  0  0  0  0  0  0  0  0  0  0
   48.6683    9.1505   19.5966 C   0  0  0  0  0  0  0  0  0  0  0  0
   50.6050    7.5543   19.2430 C   0  0  0  0  0  0  0  0  0  0  0  0
   51.5487    3.8833   18.4316 C   0  0  0  0  0  0  0  0  0  0  0  0
   47.8809    7.8948   21.9809 C   0  0  0  0  0  0  0  0  0  0  0  0
   49.3283    4.3484   17.5418 C   0  0  0  0  0  0  0  0  0  0  0  0
   47.5341    9.6050   20.2835 C   0  0  0  0  0  0  0  0  0  0  0  0
   50.3873    3.4671   17.7723 C   0  0  0  0  0  0  0  0  0  0  0  0
   47.1441    8.9671   21.4633 C   0  0  0  0  0  0  0  0  0  0  0  0
   52.8913    5.5568   19.5317 C   0  0  0  0  0  0  0  0  0  0  0  0
   49.7414    6.3597   21.9063 C   0  0  0  0  0  0  0  0  0  0  0  0
   48.1622    3.8003   16.8021 C   0  0  0  0  0  0  0  0  0  0  0  0
   46.7620   10.7541   19.7566 C   0  0  0  0  0  0  0  0  0  0  0  0
   52.5974    2.9649   18.6088 C   0  0  0  0  0  0  0  0  0  0  0  0
   47.4721    7.2972   23.1855 C   0  0  0  0  0  0  0  0  0  0  0  0
   53.9291    4.6342   19.6983 C   0  0  0  0  0  0  0  0  0  0  0  0
   49.3262    5.7759   23.1065 C   0  0  0  0  0  0  0  0  0  0  0  0
   53.7803    3.3356   19.2402 C   0  0  0  0  0  0  0  0  0  0  0  0
   48.1877    6.2420   23.7445 C   0  0  0  0  0  0  0  0  0  0  0  0
   48.0289   10.0777   20.9161 S   0  0  0  0  0  0  0  0  0  0  0  0
   49.3983    5.3865   18.3009 N   0  0  0  0  0  0  0  0  0  0  0  0
   51.1529    4.8754   19.8258 N   0  0  0  0  0  0  0  0  0  0  0  0
   50.0699    5.5211   19.5130 C   0  0  0  0  0  0  0  0  0  0  0  0
   49.6203    6.4425   20.6036 C   0  0  0  0  0  0  0  0  0  0  0  0
   48.7394    8.5687   21.3693 C   0  0  0  0  0  0  0  0  0  0  0  0
   49.1394    7.6655   20.3406 C   0  0  0  0  0  0  0  0  0  0  0  0
   49.9557    4.5347   17.2557 C   0  0  0  0  0  0  0  0  0  0  0  0
   51.7185    3.9509   18.8478 C   0  0  0  0  0  0  0  0  0  0  0  0
   51.4544    4.4139   17.4304 C   0  0  0  0  0  0  0  0  0  0  0  0
   48.8091    8.4737   22.7508 C   0  0  0  0  0  0  0  0  0  0  0  0
   47.9690    5.6509   18.1743 C   0  0  0  0  0  0  0  0  0  0  0  0
   47.8298   10.5668   22.5387 C   0  0  0  0  0  0  0  0  0  0  0  0
   48.2880    9.6190   23.4220 C   0  0  0  0  0  0  0  0  0  0  0  0
   47.7084    6.1328   17.2715 H   0  0  0  0  0  0  0  0  0  0  0  0
   48.4768   10.4809   18.1991 H   0  0  0  0  0  0  0  0  0  0  0  0
   46.5041    4.1873   16.1114 H   0  0  0  0  0  0  0  0  0  0  0  0
   45.3109   11.8654   20.0485 H   0  0  0  0  0  0  0  0  0  0  0  0
   50.7811    8.1836   18.3628 H   0  0  0  0  0  0  0  0  0  0  0  0
   51.4722    7.7361   19.8824 H   0  0  0  0  0  0  0  0  0  0  0  0
   50.3099    2.4410   17.4128 H   0  0  0  0  0  0  0  0  0  0  0  0
   46.2624    9.3165   21.9970 H   0  0  0  0  0  0  0  0  0  0  0  0
   53.0778    6.5602   19.9026 H   0  0  0  0  0  0  0  0  0  0  0  0
   50.6466    5.9650   21.4574 H   0  0  0  0  0  0  0  0  0  0  0  0
   52.5026    1.9425   18.2465 H   0  0  0  0  0  0  0  0  0  0  0  0
   46.5857    7.6549   23.7060 H   0  0  0  0  0  0  0  0  0  0  0  0
   54.8526    4.9390   20.1844 H   0  0  0  0  0  0  0  0  0  0  0  0
   49.8986    4.9577   23.5363 H   0  0  0  0  0  0  0  0  0  0  0  0
   54.5829    2.6141   19.3656 H   0  0  0  0  0  0  0  0  0  0  0  0
   47.8590    5.7916   24.6770 H   0  0  0  0  0  0  0  0  0  0  0  0
   49.7977    6.0739   21.6069 H   0  0  0  0  0  0  0  0  0  0  0  0
   49.0697    8.0015   19.3096 H   0  0  0  0  0  0  0  0  0  0  0  0
   49.7352    4.9582   16.2690 H   0  0  0  0  0  0  0  0  0  0  0  0
   49.4906    3.5420   17.3034 H   0  0  0  0  0  0  0  0  0  0  0  0
   52.8004    3.8930   19.0092 H   0  0  0  0  0  0  0  0  0  0  0  0
   51.3147    2.9461   19.0187 H   0  0  0  0  0  0  0  0  0  0  0  0
   51.9353    5.3844   17.2555 H   0  0  0  0  0  0  0  0  0  0  0  0
   51.8688    3.7024   16.7085 H   0  0  0  0  0  0  0  0  0  0  0  0
   49.2224    7.6190   23.2723 H   0  0  0  0  0  0  0  0  0  0  0  0
   47.7953    6.7009   17.9229 H   0  0  0  0  0  0  0  0  0  0  0  0
   47.5181    5.0496   17.3763 H   0  0  0  0  0  0  0  0  0  0  0  0
   47.4341    5.4066   19.0981 H   0  0  0  0  0  0  0  0  0  0  0  0
   47.3883   11.5269   22.7674 H   0  0  0  0  0  0  0  0  0  0  0  0
   48.2548    9.7388   24.4980 H   0  0  0  0  0  0  0  0  0  0  0  0
  1 11  1  0
  2 12  1  0
  3 22  2  0
  4 23  2  0
  5 22  1  0
  6 23  1  0
  7  9  1  0
  7 11  2  0
  7 13  1  0
  8 10  1  0
  8 12  2  0
  8 13  1  0
  9 14  2  0
  9 20  1  0
 10 15  2  0
 10 21  1  0
 11 16  1  0
 12 17  1  0
 14 18  1  0
 14 24  1  0
 15 19  1  0
 15 25  1  0
 16 18  2  0
 16 22  1  0
 17 19  2  0
 17 23  1  0
 20 26  2  0
 21 27  2  0
 24 28  2  0
 25 29  2  0
 26 28  1  0
 27 29  1  0
 30 35  1  0
 30 42  1  0
 31 33  1  0
 31 37  1  0
 31 41  1  0
 32 33  2  0
 32 38  1  0
 33 34  1  0
 34 36  2  0
 35 36  1  0
 35 40  2  0
 37 39  1  0
 38 39  1  0
 40 43  1  0
 42 43  2  0
  1 44  1  0
  2 45  1  0
  5 46  1  0
  6 47  1  0
 13 48  1  0
 13 49  1  0
 18 50  1  0
 19 51  1  0
 20 52  1  0
 21 53  1  0
 24 54  1  0
 25 55  1  0
 26 56  1  0
 27 57  1  0
 28 58  1  0
 29 59  1  0
 34 60  1  0
 36 61  1  0
 37 62  1  0
 37 63  1  0
 38 64  1  0
 38 65  1  0
 39 66  1  0
 39 67  1  0
 40 68  1  0
 41 69  1  0
 41 70  1  0
 41 71  1  0
 42 72  1  0
 43 73  1  0
M  END
> <Uni-Dock RESULT> 
ENERGY=   -4.930  LOWER_BOUND=    2.828  UPPER_BOUND=    4.856
INTER + INTRA:          -4.930
INTER:                  -4.930
INTRA:                   0.000
UNBOUND:                 0.000

$$$$

     RDKit          3D

 73 77  0  0  0  0  0  0  0  0999 V2000
   50.9890    7.0902   14.9924 O   0  0  0  0  0  0  0  0  0  0  0  0
   49.3240    4.7012   16.6225 O   0  0  0  0  0  0  0  0  0  0  0  0
   52.9013    9.7328   12.3959 O   0  0  0  0  0  0  0  0  0  0  0  0
   50.5740    3.6174   18.6592 O   0  0  0  0  0  0  0  0  0  0  0  0
   53.0434    8.1504   13.9587 O   0  0  0  0  0  0  0  0  0  0  0  0
   50.8971    4.8384   20.5059 O   0  0  0  0  0  0  0  0  0  0  0  0
   48.8400    7.8771   14.3306 C   0  0  0  0  0  0  0  0  0  0  0  0
   48.7133    7.0008   16.7897 C   0  0  0  0  0  0  0  0  0  0  0  0
   48.0307    8.6740   13.4517 C   0  0  0  0  0  0  0  0  0  0  0  0
   48.5919    8.1938   17.5708 C   0  0  0  0  0  0  0  0  0  0  0  0
   50.2485    7.9420   14.2131 C   0  0  0  0  0  0  0  0  0  0  0  0
   49.2990    5.8546   17.3721 C   0  0  0  0  0  0  0  0  0  0  0  0
   48.2091    6.9204   15.3474 C   0  0  0  0  0  0  0  0  0  0  0  0
   48.6719    9.5660   12.5524 C   0  0  0  0  0  0  0  0  0  0  0  0
   49.1281    8.2132   18.8852 C   0  0  0  0  0  0  0  0  0  0  0  0
   50.8641    8.8275   13.3186 C   0  0  0  0  0  0  0  0  0  0  0  0
   49.8231    5.8899   18.6717 C   0  0  0  0  0  0  0  0  0  0  0  0
   50.0681    9.6392   12.5069 C   0  0  0  0  0  0  0  0  0  0  0  0
   49.7429    7.0711   19.4128 C   0  0  0  0  0  0  0  0  0  0  0  0
   46.6127    8.6441   13.4029 C   0  0  0  0  0  0  0  0  0  0  0  0
   47.9551    9.3771   17.1266 C   0  0  0  0  0  0  0  0  0  0  0  0
   52.3340    8.9710   13.1570 C   0  0  0  0  0  0  0  0  0  0  0  0
   50.4538    4.6796   19.2474 C   0  0  0  0  0  0  0  0  0  0  0  0
   47.9188   10.3819   11.6911 C   0  0  0  0  0  0  0  0  0  0  0  0
   49.0423    9.3742   19.6726 C   0  0  0  0  0  0  0  0  0  0  0  0
   45.8749    9.4587   12.5380 C   0  0  0  0  0  0  0  0  0  0  0  0
   47.8735   10.5244   17.9208 C   0  0  0  0  0  0  0  0  0  0  0  0
   46.5286   10.3316   11.6841 C   0  0  0  0  0  0  0  0  0  0  0  0
   48.4217   10.5245   19.1936 C   0  0  0  0  0  0  0  0  0  0  0  0
   48.9903    5.7915   19.0780 S   0  0  0  0  0  0  0  0  0  0  0  0
   50.1957    8.3378   14.3047 N   0  0  0  0  0  0  0  0  0  0  0  0
   48.1059    9.4734   14.2124 N   0  0  0  0  0  0  0  0  0  0  0  0
   49.0176    8.8203   14.8682 C   0  0  0  0  0  0  0  0  0  0  0  0
   48.6587    8.6320   16.3092 C   0  0  0  0  0  0  0  0  0  0  0  0
   48.5326    7.2728   18.3141 C   0  0  0  0  0  0  0  0  0  0  0  0
   48.8996    7.4807   16.9517 C   0  0  0  0  0  0  0  0  0  0  0  0
   50.4252    8.4847   12.8713 C   0  0  0  0  0  0  0  0  0  0  0  0
   48.3137    9.7169   12.7882 C   0  0  0  0  0  0  0  0  0  0  0  0
   49.1025    8.5962   12.1438 C   0  0  0  0  0  0  0  0  0  0  0  0
   47.8379    8.0724   19.2087 C   0  0  0  0  0  0  0  0  0  0  0  0
   51.4025    8.1256   15.0967 C   0  0  0  0  0  0  0  0  0  0  0  0
   48.2689    6.2353   20.5593 C   0  0  0  0  0  0  0  0  0  0  0  0
   47.6859    7.4782   20.4961 C   0  0  0  0  0  0  0  0  0  0  0  0
   51.9385    7.2578   14.8229 H   0  0  0  0  0  0  0  0  0  0  0  0
   49.8102    4.0027   17.1101 H   0  0  0  0  0  0  0  0  0  0  0  0
   53.9741    8.3720   13.7292 H   0  0  0  0  0  0  0  0  0  0  0  0
   51.2778    3.9672   20.7439 H   0  0  0  0  0  0  0  0  0  0  0  0
   48.3296    5.9150   14.9272 H   0  0  0  0  0  0  0  0  0  0  0  0
   47.1272    7.0524   15.4247 H   0  0  0  0  0  0  0  0  0  0  0  0
   50.5494   10.3281   11.8128 H   0  0  0  0  0  0  0  0  0  0  0  0
   50.1513    7.1018   20.4210 H   0  0  0  0  0  0  0  0  0  0  0  0
   46.0391    7.9744   14.0366 H   0  0  0  0  0  0  0  0  0  0  0  0
   47.4971    9.4281   16.1446 H   0  0  0  0  0  0  0  0  0  0  0  0
   48.4153   11.0672   11.0059 H   0  0  0  0  0  0  0  0  0  0  0  0
   49.4591    9.3911   20.6780 H   0  0  0  0  0  0  0  0  0  0  0  0
   44.7891    9.4028   12.5349 H   0  0  0  0  0  0  0  0  0  0  0  0
   47.3793   11.4135   17.5375 H   0  0  0  0  0  0  0  0  0  0  0  0
   45.9616   10.9667   11.0090 H   0  0  0  0  0  0  0  0  0  0  0  0
   48.3628   11.4135   19.8154 H   0  0  0  0  0  0  0  0  0  0  0  0
   48.1182    9.4605   16.7511 H   0  0  0  0  0  0  0  0  0  0  0  0
   49.3699    6.6596   16.4178 H   0  0  0  0  0  0  0  0  0  0  0  0
   50.9811    7.6206   12.4896 H   0  0  0  0  0  0  0  0  0  0  0  0
   51.0325    9.3797   12.6860 H   0  0  0  0  0  0  0  0  0  0  0  0
   47.3350    9.7909   12.3017 H   0  0  0  0  0  0  0  0  0  0  0  0
   48.8134   10.6831   12.6517 H   0  0  0  0  0  0  0  0  0  0  0  0
   48.5476    7.6527   12.2205 H   0  0  0  0  0  0  0  0  0  0  0  0
   49.2654    8.8008   11.0805 H   0  0  0  0  0  0  0  0  0  0  0  0
   47.4432    9.0493   18.9573 H   0  0  0  0  0  0  0  0  0  0  0  0
   51.4191    7.1106   15.5036 H   0  0  0  0  0  0  0  0  0  0  0  0
   52.3076    8.2444   14.4899 H   0  0  0  0  0  0  0  0  0  0  0  0
   51.4731    8.8460   15.9184 H   0  0  0  0  0  0  0  0  0  0  0  0
   48.3047    5.5628   21.4052 H   0  0  0  0  0  0  0  0  0  0  0  0
   47.1727    7.9410   21.3301 H   0  0  0  0  0  0  0  0  0  0  0  0
  1 11  1  0
  2 12  1  0
  3 22  2  0
  4 23  2  0
  5 22  1  0
  6 23  1  0
  7  9  1  0
  7 11  2  0
  7 13  1  0
  8 10  1  0
  8 12  2  0
  8 13  1  0
  9 14  2  0
  9 20  1  0
 10 15  2  0
 10 21  1  0
 11 16  1  0
 12 17  1  0
 14 18  1  0
 14 24  1  0
 15 19  1  0
 15 25  1  0
 16 18  2  0
 16 22  1  0
 17 19  2  0
 17 23  1  0
 20 26  2  0
 21 27  2  0
 24 28  2  0
 25 29  2  0
 26 28  1  0
 27 29  1  0
 30 35  1  0
 30 42  1  0
 31 33  1  0
 31 37  1  0
 31 41  1  0
 32 33  2  0
 32 38  1  0
 33 34  1  0
 34 36  2  0
 35 36  1  0
 35 40  2  0
 37 39  1  0
 38 39  1  0
 40 43  1  0
 42 43  2  0
  1 44  1  0
  2 45  1  0
  5 46  1  0
  6 47  1  0
 13 48  1  0
 13 49  1  0
 18 50  1  0
 19 51  1  0
 20 52  1  0
 21 53  1  0
 24 54  1  0
 25 55  1  0
 26 56  1  0
 27 57  1  0
 28 58  1  0
 29 59  1  0
 34 60  1  0
 36 61  1  0
 37 62  1  0
 37 63  1  0
 38 64  1  0
 38 65  1  0
 39 66  1  0
 39 67  1  0
 40 68  1  0
 41 69  1  0
 41 70  1  0
 41 71  1  0
 42 72  1  0
 43 73  1  0
M  END
> <Uni-Dock RESULT> 
ENERGY=   -4.872  LOWER_BOUND=    4.086  UPPER_BOUND=    7.071
INTER + INTRA:          -4.872
INTER:                  -4.872
INTRA:                   0.000
UNBOUND:                 0.000

$$$$

     RDKit          3D

 73 77  0  0  0  0  0  0  0  0999 V2000
   46.4599   14.7726   11.9057 O   0  0  0  0  0  0  0  0  0  0  0  0
   46.0100   15.4457    8.6682 O   0  0  0  0  0  0  0  0  0  0  0  0
   47.0160   14.6039   16.0342 O   0  0  0  0  0  0  0  0  0  0  0  0
   47.6201   14.2097    7.0052 O   0  0  0  0  0  0  0  0  0  0  0  0
   47.8422   14.3348   13.9820 O   0  0  0  0  0  0  0  0  0  0  0  0
   47.3920   12.0030    6.7155 O   0  0  0  0  0  0  0  0  0  0  0  0
   44.1783   15.4077   12.1635 C   0  0  0  0  0  0  0  0  0  0  0  0
   44.4612   14.1202    9.9066 C   0  0  0  0  0  0  0  0  0  0  0  0
   43.0974   15.8208   13.0139 C   0  0  0  0  0  0  0  0  0  0  0  0
   43.8381   12.8560   10.1550 C   0  0  0  0  0  0  0  0  0  0  0  0
   45.4177   15.0588   12.7501 C   0  0  0  0  0  0  0  0  0  0  0  0
   45.4908   14.2014    8.9426 C   0  0  0  0  0  0  0  0  0  0  0  0
   44.0328   15.3938   10.6384 C   0  0  0  0  0  0  0  0  0  0  0  0
   43.2811   15.7823   14.4212 C   0  0  0  0  0  0  0  0  0  0  0  0
   44.3210   11.7058    9.4771 C   0  0  0  0  0  0  0  0  0  0  0  0
   45.5812   15.0277   14.1414 C   0  0  0  0  0  0  0  0  0  0  0  0
   45.9558   13.0564    8.2812 C   0  0  0  0  0  0  0  0  0  0  0  0
   44.5062   15.3778   14.9618 C   0  0  0  0  0  0  0  0  0  0  0  0
   45.3746   11.8176    8.5616 C   0  0  0  0  0  0  0  0  0  0  0  0
   41.8332   16.2764   12.5576 C   0  0  0  0  0  0  0  0  0  0  0  0
   42.7472   12.6634   11.0359 C   0  0  0  0  0  0  0  0  0  0  0  0
   46.8414   14.6476   14.8304 C   0  0  0  0  0  0  0  0  0  0  0  0
   47.0537   13.1681    7.2932 C   0  0  0  0  0  0  0  0  0  0  0  0
   42.2426   16.1550   15.2914 C   0  0  0  0  0  0  0  0  0  0  0  0
   43.7440   10.4460    9.7114 C   0  0  0  0  0  0  0  0  0  0  0  0
   40.8091   16.6484   13.4343 C   0  0  0  0  0  0  0  0  0  0  0  0
   42.1800   11.4054   11.2580 C   0  0  0  0  0  0  0  0  0  0  0  0
   41.0126   16.5835   14.8029 C   0  0  0  0  0  0  0  0  0  0  0  0
   42.6818   10.2946   10.5985 C   0  0  0  0  0  0  0  0  0  0  0  0
   45.2513   13.0455    7.6713 S   0  0  0  0  0  0  0  0  0  0  0  0
   45.1986   14.7688   12.9391 N   0  0  0  0  0  0  0  0  0  0  0  0
   42.8224   14.7513   13.0754 N   0  0  0  0  0  0  0  0  0  0  0  0
   43.9316   14.3908   12.5030 C   0  0  0  0  0  0  0  0  0  0  0  0
   43.6996   13.5229   11.3058 C   0  0  0  0  0  0  0  0  0  0  0  0
   44.1901   12.8644    9.0234 C   0  0  0  0  0  0  0  0  0  0  0  0
   44.4213   13.6594   10.1847 C   0  0  0  0  0  0  0  0  0  0  0  0
   45.3321   15.6923   14.0607 C   0  0  0  0  0  0  0  0  0  0  0  0
   42.8945   15.6165   14.2489 C   0  0  0  0  0  0  0  0  0  0  0  0
   44.0879   16.5461   14.1794 C   0  0  0  0  0  0  0  0  0  0  0  0
   43.2225   11.9120    8.7422 C   0  0  0  0  0  0  0  0  0  0  0  0
   46.3828   13.9593   12.6716 C   0  0  0  0  0  0  0  0  0  0  0  0
   44.4182   11.8725    6.7539 C   0  0  0  0  0  0  0  0  0  0  0  0
   43.3524   11.3430    7.4411 C   0  0  0  0  0  0  0  0  0  0  0  0
   47.2410   14.5313   12.4443 H   0  0  0  0  0  0  0  0  0  0  0  0
   46.7547   15.3589    8.0358 H   0  0  0  0  0  0  0  0  0  0  0  0
   48.5824   14.1116   14.5904 H   0  0  0  0  0  0  0  0  0  0  0  0
   48.1152   12.2367    6.0966 H   0  0  0  0  0  0  0  0  0  0  0  0
   44.5758   16.2753   10.2778 H   0  0  0  0  0  0  0  0  0  0  0  0
   43.0017   15.5629   10.3189 H   0  0  0  0  0  0  0  0  0  0  0  0
   44.6356   15.3517   16.0438 H   0  0  0  0  0  0  0  0  0  0  0  0
   45.7356   10.9267    8.0513 H   0  0  0  0  0  0  0  0  0  0  0  0
   41.6120   16.3626   11.4980 H   0  0  0  0  0  0  0  0  0  0  0  0
   42.3064   13.4998   11.5676 H   0  0  0  0  0  0  0  0  0  0  0  0
   42.3872   16.1200   16.3700 H   0  0  0  0  0  0  0  0  0  0  0  0
   44.1184    9.5632    9.1965 H   0  0  0  0  0  0  0  0  0  0  0  0
   39.8556   16.9912   13.0400 H   0  0  0  0  0  0  0  0  0  0  0  0
   41.3459   11.3023   11.9473 H   0  0  0  0  0  0  0  0  0  0  0  0
   40.2215   16.8717   15.4896 H   0  0  0  0  0  0  0  0  0  0  0  0
   42.2463    9.3138   10.7677 H   0  0  0  0  0  0  0  0  0  0  0  0
   42.8555   12.8494   11.3939 H   0  0  0  0  0  0  0  0  0  0  0  0
   45.1985   14.4174   10.1391 H   0  0  0  0  0  0  0  0  0  0  0  0
   46.2060   16.3374   13.9137 H   0  0  0  0  0  0  0  0  0  0  0  0
   45.4887   15.1255   14.9871 H   0  0  0  0  0  0  0  0  0  0  0  0
   41.9779   16.2145   14.2967 H   0  0  0  0  0  0  0  0  0  0  0  0
   42.9234   15.0010   15.1556 H   0  0  0  0  0  0  0  0  0  0  0  0
   43.9990   17.2086   13.3093 H   0  0  0  0  0  0  0  0  0  0  0  0
   44.1388   17.1763   15.0734 H   0  0  0  0  0  0  0  0  0  0  0  0
   42.4407   11.6293    9.4366 H   0  0  0  0  0  0  0  0  0  0  0  0
   46.8417   14.2550   11.7239 H   0  0  0  0  0  0  0  0  0  0  0  0
   47.1422   14.0880   13.4515 H   0  0  0  0  0  0  0  0  0  0  0  0
   46.1383   12.8925   12.6379 H   0  0  0  0  0  0  0  0  0  0  0  0
   44.7484   11.6287    5.7535 H   0  0  0  0  0  0  0  0  0  0  0  0
   42.6944   10.5858    7.0328 H   0  0  0  0  0  0  0  0  0  0  0  0
  1 11  1  0
  2 12  1  0
  3 22  2  0
  4 23  2  0
  5 22  1  0
  6 23  1  0
  7  9  1  0
  7 11  2  0
  7 13  1  0
  8 10  1  0
  8 12  2  0
  8 13  1  0
  9 14  2  0
  9 20  1  0
 10 15  2  0
 10 21  1  0
 11 16  1  0
 12 17  1  0
 14 18  1  0
 14 24  1  0
 15 19  1  0
 15 25  1  0
 16 18  2  0
 16 22  1  0
 17 19  2  0
 17 23  1  0
 20 26  2  0
 21 27  2  0
 24 28  2  0
 25 29  2  0
 26 28  1  0
 27 29  1  0
 30 35  1  0
 30 42  1  0
 31 33  1  0
 31 37  1  0
 31 41  1  0
 32 33  2  0
 32 38  1  0
 33 34  1  0
 34 36  2  0
 35 36  1  0
 35 40  2  0
 37 39  1  0
 38 39  1  0
 40 43  1  0
 42 43  2  0
  1 44  1  0
  2 45  1  0
  5 46  1  0
  6 47  1  0
 13 48  1  0
 13 49  1  0
 18 50  1  0
 19 51  1  0
 20 52  1  0
 21 53  1  0
 24 54  1  0
 25 55  1  0
 26 56  1  0
 27 57  1  0
 28 58  1  0
 29 59  1  0
 34 60  1  0
 36 61  1  0
 37 62  1  0
 37 63  1  0
 38 64  1  0
 38 65  1  0
 39 66  1  0
 39 67  1  0
 40 68  1  0
 41 69  1  0
 41 70  1  0
 41 71  1  0
 42 72  1  0
 43 73  1  0
M  END
> <Uni-Dock RESULT> 
ENERGY=   -4.669  LOWER_BOUND=    8.808  UPPER_BOUND=   12.022
INTER + INTRA:          -4.669
INTER:                  -4.669
INTRA:                   0.000
UNBOUND:                 0.000

$$$$
