
     RDKit          3D

 73 77  0  0  0  0  0  0  0  0999 V2000
   47.6512    8.1457   17.7141 O   0  0  0  0  0  0  0  0  0  0  0  0
   46.3917    5.2535   18.7018 O   0  0  0  0  0  0  0  0  0  0  0  0
   48.1851   10.0352   15.9814 O   0  0  0  0  0  0  0  0  0  0  0  0
   48.6210    2.3474   16.7035 O   0  0  0  0  0  0  0  0  0  0  0  0
   48.6687   12.0861   16.7311 O   0  0  0  0  0  0  0  0  0  0  0  0
   46.6643    3.3638   17.0297 O   0  0  0  0  0  0  0  0  0  0  0  0
   47.7816    8.6824   20.0361 C   0  0  0  0  0  0  0  0  0  0  0  0
   48.3484    6.1527   19.7193 C   0  0  0  0  0  0  0  0  0  0  0  0
   47.9221    9.6692   21.0693 C   0  0  0  0  0  0  0  0  0  0  0  0
   49.7545    6.0805   19.9780 C   0  0  0  0  0  0  0  0  0  0  0  0
   47.8917    9.0868   18.6858 C   0  0  0  0  0  0  0  0  0  0  0  0
   47.7561    5.2031   18.8557 C   0  0  0  0  0  0  0  0  0  0  0  0
   47.4613    7.2203   20.3630 C   0  0  0  0  0  0  0  0  0  0  0  0
   48.2479   11.0030   20.7041 C   0  0  0  0  0  0  0  0  0  0  0  0
   50.5269    5.0984   19.3056 C   0  0  0  0  0  0  0  0  0  0  0  0
   48.2144   10.4080   18.3455 C   0  0  0  0  0  0  0  0  0  0  0  0
   48.5320    4.2412   18.1955 C   0  0  0  0  0  0  0  0  0  0  0  0
   48.4001   11.3510   19.3577 C   0  0  0  0  0  0  0  0  0  0  0  0
   49.9112    4.2044   18.4219 C   0  0  0  0  0  0  0  0  0  0  0  0
   47.7578    9.4197   22.4564 C   0  0  0  0  0  0  0  0  0  0  0  0
   50.4458    6.9244   20.8796 C   0  0  0  0  0  0  0  0  0  0  0  0
   48.3472   10.7957   16.9212 C   0  0  0  0  0  0  0  0  0  0  0  0
   47.9877    3.2288   17.2547 C   0  0  0  0  0  0  0  0  0  0  0  0
   48.4165   11.9946   21.6855 C   0  0  0  0  0  0  0  0  0  0  0  0
   51.9126    5.0083   19.5225 C   0  0  0  0  0  0  0  0  0  0  0  0
   47.9259   10.4170   23.4223 C   0  0  0  0  0  0  0  0  0  0  0  0
   51.8242    6.8230   21.0896 C   0  0  0  0  0  0  0  0  0  0  0  0
   48.2590   11.7049   23.0369 C   0  0  0  0  0  0  0  0  0  0  0  0
   52.5587    5.8664   20.4072 C   0  0  0  0  0  0  0  0  0  0  0  0
   49.0414   11.7215   21.4518 S   0  0  0  0  0  0  0  0  0  0  0  0
   49.1021    6.0200   18.6700 N   0  0  0  0  0  0  0  0  0  0  0  0
   48.8721    6.4164   21.0025 N   0  0  0  0  0  0  0  0  0  0  0  0
   48.8439    6.8294   19.7732 C   0  0  0  0  0  0  0  0  0  0  0  0
   48.4434    8.2629   19.5792 C   0  0  0  0  0  0  0  0  0  0  0  0
   48.3998   10.5658   20.3391 C   0  0  0  0  0  0  0  0  0  0  0  0
   48.7609    9.1945   20.4910 C   0  0  0  0  0  0  0  0  0  0  0  0
   49.4924    4.6300   18.8796 C   0  0  0  0  0  0  0  0  0  0  0  0
   49.2350    5.0306   21.2789 C   0  0  0  0  0  0  0  0  0  0  0  0
   48.8442    4.1087   20.1437 C   0  0  0  0  0  0  0  0  0  0  0  0
   47.5781   11.1998   19.4194 C   0  0  0  0  0  0  0  0  0  0  0  0
   49.5136    6.5828   17.3888 C   0  0  0  0  0  0  0  0  0  0  0  0
   48.2369   13.0224   20.6949 C   0  0  0  0  0  0  0  0  0  0  0  0
   47.4868   12.6087   19.6202 C   0  0  0  0  0  0  0  0  0  0  0  0
   47.7945    8.5371   16.8261 H   0  0  0  0  0  0  0  0  0  0  0  0
   46.1410    4.6140   18.0032 H   0  0  0  0  0  0  0  0  0  0  0  0
   48.7143   12.1866   15.7572 H   0  0  0  0  0  0  0  0  0  0  0  0
   46.4797    2.6415   16.3880 H   0  0  0  0  0  0  0  0  0  0  0  0
   46.4036    7.0807   20.1098 H   0  0  0  0  0  0  0  0  0  0  0  0
   47.5078    7.0136   21.4346 H   0  0  0  0  0  0  0  0  0  0  0  0
   48.6519   12.3767   19.0948 H   0  0  0  0  0  0  0  0  0  0  0  0
   50.5123    3.4549   17.9073 H   0  0  0  0  0  0  0  0  0  0  0  0
   47.4867    8.4352   22.8262 H   0  0  0  0  0  0  0  0  0  0  0  0
   49.9179    7.6809   21.4499 H   0  0  0  0  0  0  0  0  0  0  0  0
   48.6688   13.0153   21.4015 H   0  0  0  0  0  0  0  0  0  0  0  0
   52.5050    4.2584   19.0013 H   0  0  0  0  0  0  0  0  0  0  0  0
   47.7921   10.1805   24.4747 H   0  0  0  0  0  0  0  0  0  0  0  0
   52.3151    7.4941   21.7888 H   0  0  0  0  0  0  0  0  0  0  0  0
   48.3886   12.4851   23.7820 H   0  0  0  0  0  0  0  0  0  0  0  0
   53.6298    5.7824   20.5652 H   0  0  0  0  0  0  0  0  0  0  0  0
   47.8943    8.4856   18.6753 H   0  0  0  0  0  0  0  0  0  0  0  0
   49.3213    8.9009   21.3771 H   0  0  0  0  0  0  0  0  0  0  0  0
   50.5851    4.5590   18.9495 H   0  0  0  0  0  0  0  0  0  0  0  0
   49.1729    4.0132   18.0313 H   0  0  0  0  0  0  0  0  0  0  0  0
   50.3116    4.9709   21.4789 H   0  0  0  0  0  0  0  0  0  0  0  0
   48.7229    4.7108   22.1931 H   0  0  0  0  0  0  0  0  0  0  0  0
   47.7531    4.0936   20.0311 H   0  0  0  0  0  0  0  0  0  0  0  0
   49.1714    3.0843   20.3499 H   0  0  0  0  0  0  0  0  0  0  0  0
   47.0491   10.6804   18.6315 H   0  0  0  0  0  0  0  0  0  0  0  0
   50.4566    7.1284   17.4978 H   0  0  0  0  0  0  0  0  0  0  0  0
   48.7525    7.2597   16.9904 H   0  0  0  0  0  0  0  0  0  0  0  0
   49.6621    5.8006   16.6361 H   0  0  0  0  0  0  0  0  0  0  0  0
   48.3504   14.0276   21.0767 H   0  0  0  0  0  0  0  0  0  0  0  0
   46.8952   13.2799   19.0108 H   0  0  0  0  0  0  0  0  0  0  0  0
  1 11  1  0
  2 12  1  0
  3 22  2  0
  4 23  2  0
  5 22  1  0
  6 23  1  0
  7  9  1  0
  7 11  2  0
  7 13  1  0
  8 10  1  0
  8 12  2  0
  8 13  1  0
  9 14  2  0
  9 20  1  0
 10 15  2  0
 10 21  1  0
 11 16  1  0
 12 17  1  0
 14 18  1  0
 14 24  1  0
 15 19  1  0
 15 25  1  0
 16 18  2  0
 16 22  1  0
 17 19  2  0
 17 23  1  0
 20 26  2  0
 21 27  2  0
 24 28  2  0
 25 29  2  0
 26 28  1  0
 27 29  1  0
 30 35  1  0
 30 42  1  0
 31 33  1  0
 31 37  1  0
 31 41  1  0
 32 33  2  0
 32 38  1  0
 33 34  1  0
 34 36  2  0
 35 36  1  0
 35 40  2  0
 37 39  1  0
 38 39  1  0
 40 43  1  0
 42 43  2  0
  1 44  1  0
  2 45  1  0
  5 46  1  0
  6 47  1  0
 13 48  1  0
 13 49  1  0
 18 50  1  0
 19 51  1  0
 20 52  1  0
 21 53  1  0
 24 54  1  0
 25 55  1  0
 26 56  1  0
 27 57  1  0
 28 58  1  0
 29 59  1  0
 34 60  1  0
 36 61  1  0
 37 62  1  0
 37 63  1  0
 38 64  1  0
 38 65  1  0
 39 66  1  0
 39 67  1  0
 40 68  1  0
 41 69  1  0
 41 70  1  0
 41 71  1  0
 42 72  1  0
 43 73  1  0
M  END
> <Uni-Dock RESULT> 
ENERGY=   -5.877  LOWER_BOUND=    0.000  UPPER_BOUND=    0.000
INTER + INTRA:          -5.877
INTER:                  -5.877
INTRA:                   0.000
UNBOUND:                 0.000

$$$$

     RDKit          3D

 73 77  0  0  0  0  0  0  0  0999 V2000
   48.3665    7.6362   16.4802 O   0  0  0  0  0  0  0  0  0  0  0  0
   46.8787    4.8292   17.3930 O   0  0  0  0  0  0  0  0  0  0  0  0
   49.3504    9.3530   14.7649 O   0  0  0  0  0  0  0  0  0  0  0  0
   49.5501    1.7908   16.3732 O   0  0  0  0  0  0  0  0  0  0  0  0
   49.6237   11.4804   15.3984 O   0  0  0  0  0  0  0  0  0  0  0  0
   47.5810    2.7871   16.0599 O   0  0  0  0  0  0  0  0  0  0  0  0
   47.8742    8.4084   18.6843 C   0  0  0  0  0  0  0  0  0  0  0  0
   48.4960    5.8742   18.7948 C   0  0  0  0  0  0  0  0  0  0  0  0
   47.7374    9.4980   19.6092 C   0  0  0  0  0  0  0  0  0  0  0  0
   49.7817    5.8629   19.4240 C   0  0  0  0  0  0  0  0  0  0  0  0
   48.3423    8.6765   17.3775 C   0  0  0  0  0  0  0  0  0  0  0  0
   48.1523    4.8278   17.9086 C   0  0  0  0  0  0  0  0  0  0  0  0
   47.4730    6.9796   19.0647 C   0  0  0  0  0  0  0  0  0  0  0  0
   48.1537   10.7954   19.2070 C   0  0  0  0  0  0  0  0  0  0  0  0
   50.7021    4.8368   19.0873 C   0  0  0  0  0  0  0  0  0  0  0  0
   48.7489    9.9640   16.9995 C   0  0  0  0  0  0  0  0  0  0  0  0
   49.0728    3.8232   17.5823 C   0  0  0  0  0  0  0  0  0  0  0  0
   48.6610   11.0088   17.9208 C   0  0  0  0  0  0  0  0  0  0  0  0
   50.3414    3.8431   18.1698 C   0  0  0  0  0  0  0  0  0  0  0  0
   47.2079    9.3863   20.9208 C   0  0  0  0  0  0  0  0  0  0  0  0
   50.2102    6.8103   20.3841 C   0  0  0  0  0  0  0  0  0  0  0  0
   49.2584   10.2085   15.6294 C   0  0  0  0  0  0  0  0  0  0  0  0
   48.7957    2.7078   16.6413 C   0  0  0  0  0  0  0  0  0  0  0  0
   48.0577   11.8852   20.0891 C   0  0  0  0  0  0  0  0  0  0  0  0
   51.9793    4.8029   19.6729 C   0  0  0  0  0  0  0  0  0  0  0  0
   47.1156   10.4801   21.7874 C   0  0  0  0  0  0  0  0  0  0  0  0
   51.4822    6.7643   20.9624 C   0  0  0  0  0  0  0  0  0  0  0  0
   47.5442   11.7301   21.3725 C   0  0  0  0  0  0  0  0  0  0  0  0
   52.3688    5.7617   20.6032 C   0  0  0  0  0  0  0  0  0  0  0  0
   48.7213   11.6051   20.0597 S   0  0  0  0  0  0  0  0  0  0  0  0
   49.5019    5.6543   18.0034 N   0  0  0  0  0  0  0  0  0  0  0  0
   48.6590    6.2792   20.1364 N   0  0  0  0  0  0  0  0  0  0  0  0
   48.9615    6.5647   18.9078 C   0  0  0  0  0  0  0  0  0  0  0  0
   48.6325    7.9611   18.4661 C   0  0  0  0  0  0  0  0  0  0  0  0
   48.3959   10.3274   18.9430 C   0  0  0  0  0  0  0  0  0  0  0  0
   48.6984    8.9877   19.3273 C   0  0  0  0  0  0  0  0  0  0  0  0
   49.8171    4.3026   18.4527 C   0  0  0  0  0  0  0  0  0  0  0  0
   48.9300    4.9377   20.6420 C   0  0  0  0  0  0  0  0  0  0  0  0
   48.8532    3.8964   19.5462 C   0  0  0  0  0  0  0  0  0  0  0  0
   47.8518   10.8447   17.7772 C   0  0  0  0  0  0  0  0  0  0  0  0
   50.2425    6.0943   16.8263 C   0  0  0  0  0  0  0  0  0  0  0  0
   48.1528   12.8027   18.9849 C   0  0  0  0  0  0  0  0  0  0  0  0
   47.7153   12.2641   17.7986 C   0  0  0  0  0  0  0  0  0  0  0  0
   48.7430    7.9391   15.6266 H   0  0  0  0  0  0  0  0  0  0  0  0
   46.8212    4.1163   16.7235 H   0  0  0  0  0  0  0  0  0  0  0  0
   49.9280   11.4828   14.4667 H   0  0  0  0  0  0  0  0  0  0  0  0
   47.5717    1.9992   15.4709 H   0  0  0  0  0  0  0  0  0  0  0  0
   46.5209    6.7894   18.5554 H   0  0  0  0  0  0  0  0  0  0  0  0
   47.2310    6.8837   20.1256 H   0  0  0  0  0  0  0  0  0  0  0  0
   48.9775   12.0085   17.6290 H   0  0  0  0  0  0  0  0  0  0  0  0
   51.0554    3.0602   17.9145 H   0  0  0  0  0  0  0  0  0  0  0  0
   46.8444    8.4380   21.3056 H   0  0  0  0  0  0  0  0  0  0  0  0
   49.5520    7.6076   20.7115 H   0  0  0  0  0  0  0  0  0  0  0  0
   48.3803   12.8777   19.7777 H   0  0  0  0  0  0  0  0  0  0  0  0
   52.6866    4.0187   19.4090 H   0  0  0  0  0  0  0  0  0  0  0  0
   46.7048   10.3482   22.7850 H   0  0  0  0  0  0  0  0  0  0  0  0
   51.7710    7.5145   21.6931 H   0  0  0  0  0  0  0  0  0  0  0  0
   47.4729   12.5846   22.0398 H   0  0  0  0  0  0  0  0  0  0  0  0
   53.3585    5.7202   21.0482 H   0  0  0  0  0  0  0  0  0  0  0  0
   48.3454    8.0776   17.4306 H   0  0  0  0  0  0  0  0  0  0  0  0
   49.0008    8.7990   20.3561 H   0  0  0  0  0  0  0  0  0  0  0  0
   50.8513    4.2657   18.8176 H   0  0  0  0  0  0  0  0  0  0  0  0
   49.7335    3.5954   17.6191 H   0  0  0  0  0  0  0  0  0  0  0  0
   49.9139    4.9249   21.1261 H   0  0  0  0  0  0  0  0  0  0  0  0
   48.1913    4.6998   21.4154 H   0  0  0  0  0  0  0  0  0  0  0  0
   47.8316    3.8434   19.1498 H   0  0  0  0  0  0  0  0  0  0  0  0
   49.1098    2.9064   19.9374 H   0  0  0  0  0  0  0  0  0  0  0  0
   47.5504   10.2355   16.9355 H   0  0  0  0  0  0  0  0  0  0  0  0
   51.1242    6.6709   17.1247 H   0  0  0  0  0  0  0  0  0  0  0  0
   49.6179    6.7086   16.1717 H   0  0  0  0  0  0  0  0  0  0  0  0
   50.5838    5.2437   16.2259 H   0  0  0  0  0  0  0  0  0  0  0  0
   48.1639   13.8438   19.2764 H   0  0  0  0  0  0  0  0  0  0  0  0
   47.3102   12.8555   16.9874 H   0  0  0  0  0  0  0  0  0  0  0  0
  1 11  1  0
  2 12  1  0
  3 22  2  0
  4 23  2  0
  5 22  1  0
  6 23  1  0
  7  9  1  0
  7 11  2  0
  7 13  1  0
  8 10  1  0
  8 12  2  0
  8 13  1  0
  9 14  2  0
  9 20  1  0
 10 15  2  0
 10 21  1  0
 11 16  1  0
 12 17  1  0
 14 18  1  0
 14 24  1  0
 15 19  1  0
 15 25  1  0
 16 18  2  0
 16 22  1  0
 17 19  2  0
 17 23  1  0
 20 26  2  0
 21 27  2  0
 24 28  2  0
 25 29  2  0
 26 28  1  0
 27 29  1  0
 30 35  1  0
 30 42  1  0
 31 33  1  0
 31 37  1  0
 31 41  1  0
 32 33  2  0
 32 38  1  0
 33 34  1  0
 34 36  2  0
 35 36  1  0
 35 40  2  0
 37 39  1  0
 38 39  1  0
 40 43  1  0
 42 43  2  0
  1 44  1  0
  2 45  1  0
  5 46  1  0
  6 47  1  0
 13 48  1  0
 13 49  1  0
 18 50  1  0
 19 51  1  0
 20 52  1  0
 21 53  1  0
 24 54  1  0
 25 55  1  0
 26 56  1  0
 27 57  1  0
 28 58  1  0
 29 59  1  0
 34 60  1  0
 36 61  1  0
 37 62  1  0
 37 63  1  0
 38 64  1  0
 38 65  1  0
 39 66  1  0
 39 67  1  0
 40 68  1  0
 41 69  1  0
 41 70  1  0
 41 71  1  0
 42 72  1  0
 43 73  1  0
M  END
> <Uni-Dock RESULT> 
ENERGY=   -5.669  LOWER_BOUND=    1.063  UPPER_BOUND=    1.280
INTER + INTRA:          -5.669
INTER:                  -5.669
INTRA:                   0.000
UNBOUND:                 0.000

$$$$

     RDKit          3D

 73 77  0  0  0  0  0  0  0  0999 V2000
   48.2861    5.0664   16.9917 O   0  0  0  0  0  0  0  0  0  0  0  0
   48.8717    6.7357   19.7840 O   0  0  0  0  0  0  0  0  0  0  0  0
   47.4120    3.0477   15.5710 O   0  0  0  0  0  0  0  0  0  0  0  0
   51.7153    4.4752   21.8365 O   0  0  0  0  0  0  0  0  0  0  0  0
   46.9838    3.3583   13.3979 O   0  0  0  0  0  0  0  0  0  0  0  0
   49.6459    5.2958   21.7252 O   0  0  0  0  0  0  0  0  0  0  0  0
   48.6631    7.1433   15.8776 C   0  0  0  0  0  0  0  0  0  0  0  0
   50.3084    6.9556   17.8972 C   0  0  0  0  0  0  0  0  0  0  0  0
   48.5333    7.9542   14.7000 C   0  0  0  0  0  0  0  0  0  0  0  0
   51.5853    6.7529   17.2826 C   0  0  0  0  0  0  0  0  0  0  0  0
   48.2487    5.7926   15.8259 C   0  0  0  0  0  0  0  0  0  0  0  0
   50.0789    6.4456   19.1955 C   0  0  0  0  0  0  0  0  0  0  0  0
   49.1858    7.7231   17.1959 C   0  0  0  0  0  0  0  0  0  0  0  0
   48.0694    7.3516   13.5000 C   0  0  0  0  0  0  0  0  0  0  0  0
   52.5630    5.9856   17.9672 C   0  0  0  0  0  0  0  0  0  0  0  0
   47.7940    5.2158   14.6316 C   0  0  0  0  0  0  0  0  0  0  0  0
   51.0523    5.6863   19.8581 C   0  0  0  0  0  0  0  0  0  0  0  0
   47.7189    5.9974   13.4777 C   0  0  0  0  0  0  0  0  0  0  0  0
   52.2819    5.4579   19.2328 C   0  0  0  0  0  0  0  0  0  0  0  0
   48.8346    9.3391   14.6321 C   0  0  0  0  0  0  0  0  0  0  0  0
   51.9587    7.2790   16.0229 C   0  0  0  0  0  0  0  0  0  0  0  0
   47.3899    3.7901   14.6034 C   0  0  0  0  0  0  0  0  0  0  0  0
   50.8763    5.0955   21.2095 C   0  0  0  0  0  0  0  0  0  0  0  0
   47.9490    8.1042   12.3193 C   0  0  0  0  0  0  0  0  0  0  0  0
   53.8219    5.7524   17.3876 C   0  0  0  0  0  0  0  0  0  0  0  0
   48.7074   10.0767   13.4507 C   0  0  0  0  0  0  0  0  0  0  0  0
   53.2154    7.0429   15.4580 C   0  0  0  0  0  0  0  0  0  0  0  0
   48.2676    9.4580   12.2923 C   0  0  0  0  0  0  0  0  0  0  0  0
   54.1464    6.2754   16.1396 C   0  0  0  0  0  0  0  0  0  0  0  0
   48.5550    7.7145   12.3436 S   0  0  0  0  0  0  0  0  0  0  0  0
   50.7675    5.7420   17.9528 N   0  0  0  0  0  0  0  0  0  0  0  0
   50.9127    7.9614   17.1137 N   0  0  0  0  0  0  0  0  0  0  0  0
   50.4054    6.7679   17.0837 C   0  0  0  0  0  0  0  0  0  0  0  0
   49.3210    6.5490   16.0693 C   0  0  0  0  0  0  0  0  0  0  0  0
   48.3282    7.0103   13.9049 C   0  0  0  0  0  0  0  0  0  0  0  0
   49.3393    7.1951   14.8936 C   0  0  0  0  0  0  0  0  0  0  0  0
   51.8255    5.9738   18.9301 C   0  0  0  0  0  0  0  0  0  0  0  0
   51.9609    8.2642   18.0823 C   0  0  0  0  0  0  0  0  0  0  0  0
   51.8252    7.4308   19.3386 C   0  0  0  0  0  0  0  0  0  0  0  0
   47.1159    6.3383   13.9495 C   0  0  0  0  0  0  0  0  0  0  0  0
   50.5445    4.3404   17.6156 C   0  0  0  0  0  0  0  0  0  0  0  0
   47.0673    7.1127   11.7630 C   0  0  0  0  0  0  0  0  0  0  0  0
   46.3939    6.3933   12.7211 C   0  0  0  0  0  0  0  0  0  0  0  0
   48.0115    4.1408   16.8185 H   0  0  0  0  0  0  0  0  0  0  0  0
   48.8149    6.2345   20.6238 H   0  0  0  0  0  0  0  0  0  0  0  0
   46.7502    2.4171   13.5404 H   0  0  0  0  0  0  0  0  0  0  0  0
   49.6982    4.8362   22.5934 H   0  0  0  0  0  0  0  0  0  0  0  0
   48.3071    7.8429   17.8406 H   0  0  0  0  0  0  0  0  0  0  0  0
   49.5712    8.7386   17.0801 H   0  0  0  0  0  0  0  0  0  0  0  0
   47.3673    5.5504   12.5497 H   0  0  0  0  0  0  0  0  0  0  0  0
   53.0374    4.8672   19.7506 H   0  0  0  0  0  0  0  0  0  0  0  0
   49.1742    9.8879   15.5055 H   0  0  0  0  0  0  0  0  0  0  0  0
   51.2739    7.8975   15.4529 H   0  0  0  0  0  0  0  0  0  0  0  0
   47.5955    7.6378   11.4009 H   0  0  0  0  0  0  0  0  0  0  0  0
   54.5689    5.1583   17.9113 H   0  0  0  0  0  0  0  0  0  0  0  0
   48.9515   11.1358   13.4440 H   0  0  0  0  0  0  0  0  0  0  0  0
   53.4588    7.4635   14.4863 H   0  0  0  0  0  0  0  0  0  0  0  0
   48.1641   10.0257   11.3717 H   0  0  0  0  0  0  0  0  0  0  0  0
   55.1244    6.0878   15.7065 H   0  0  0  0  0  0  0  0  0  0  0  0
   48.5434    5.8515   16.3466 H   0  0  0  0  0  0  0  0  0  0  0  0
   50.1571    7.8805   14.6771 H   0  0  0  0  0  0  0  0  0  0  0  0
   52.7951    5.6948   18.4989 H   0  0  0  0  0  0  0  0  0  0  0  0
   51.6656    5.3515   19.8186 H   0  0  0  0  0  0  0  0  0  0  0  0
   52.9412    8.1114   17.6151 H   0  0  0  0  0  0  0  0  0  0  0  0
   51.8962    9.3254   18.3471 H   0  0  0  0  0  0  0  0  0  0  0  0
   50.8893    7.6791   19.8543 H   0  0  0  0  0  0  0  0  0  0  0  0
   52.6500    7.6374   20.0285 H   0  0  0  0  0  0  0  0  0  0  0  0
   46.7459    5.8292   14.8294 H   0  0  0  0  0  0  0  0  0  0  0  0
   51.0947    4.0752   16.7069 H   0  0  0  0  0  0  0  0  0  0  0  0
   49.4814    4.1336   17.4635 H   0  0  0  0  0  0  0  0  0  0  0  0
   50.8811    3.6761   18.4192 H   0  0  0  0  0  0  0  0  0  0  0  0
   46.7569    7.3183   10.7480 H   0  0  0  0  0  0  0  0  0  0  0  0
   45.4278    5.9341   12.5542 H   0  0  0  0  0  0  0  0  0  0  0  0
  1 11  1  0
  2 12  1  0
  3 22  2  0
  4 23  2  0
  5 22  1  0
  6 23  1  0
  7  9  1  0
  7 11  2  0
  7 13  1  0
  8 10  1  0
  8 12  2  0
  8 13  1  0
  9 14  2  0
  9 20  1  0
 10 15  2  0
 10 21  1  0
 11 16  1  0
 12 17  1  0
 14 18  1  0
 14 24  1  0
 15 19  1  0
 15 25  1  0
 16 18  2  0
 16 22  1  0
 17 19  2  0
 17 23  1  0
 20 26  2  0
 21 27  2  0
 24 28  2  0
 25 29  2  0
 26 28  1  0
 27 29  1  0
 30 35  1  0
 30 42  1  0
 31 33  1  0
 31 37  1  0
 31 41  1  0
 32 33  2  0
 32 38  1  0
 33 34  1  0
 34 36  2  0
 35 36  1  0
 35 40  2  0
 37 39  1  0
 38 39  1  0
 40 43  1  0
 42 43  2  0
  1 44  1  0
  2 45  1  0
  5 46  1  0
  6 47  1  0
 13 48  1  0
 13 49  1  0
 18 50  1  0
 19 51  1  0
 20 52  1  0
 21 53  1  0
 24 54  1  0
 25 55  1  0
 26 56  1  0
 27 57  1  0
 28 58  1  0
 29 59  1  0
 34 60  1  0
 36 61  1  0
 37 62  1  0
 37 63  1  0
 38 64  1  0
 38 65  1  0
 39 66  1  0
 39 67  1  0
 40 68  1  0
 41 69  1  0
 41 70  1  0
 41 71  1  0
 42 72  1  0
 43 73  1  0
M  END
> <Uni-Dock RESULT> 
ENERGY=   -4.883  LOWER_BOUND=    3.818  UPPER_BOUND=    6.233
INTER + INTRA:          -4.883
INTER:                  -4.883
INTRA:                   0.000
UNBOUND:                 0.000

$$$$

     RDKit          3D

 73 77  0  0  0  0  0  0  0  0999 V2000
   48.1430    9.6060   12.3508 O   0  0  0  0  0  0  0  0  0  0  0  0
   51.3808    8.9403   12.3556 O   0  0  0  0  0  0  0  0  0  0  0  0
   46.0134   11.0342   11.8192 O   0  0  0  0  0  0  0  0  0  0  0  0
   53.0894   11.8253   14.8387 O   0  0  0  0  0  0  0  0  0  0  0  0
   44.0154   10.0295   11.7919 O   0  0  0  0  0  0  0  0  0  0  0  0
   52.8652   10.9499   12.8011 O   0  0  0  0  0  0  0  0  0  0  0  0
   47.8450    7.2939   12.8625 C   0  0  0  0  0  0  0  0  0  0  0  0
   49.9658    8.1700   14.1098 C   0  0  0  0  0  0  0  0  0  0  0  0
   46.9875    6.1443   12.9279 C   0  0  0  0  0  0  0  0  0  0  0  0
   49.5670    8.2032   15.4842 C   0  0  0  0  0  0  0  0  0  0  0  0
   47.2865    8.5432   12.5075 C   0  0  0  0  0  0  0  0  0  0  0  0
   50.9653    9.0626   13.6596 C   0  0  0  0  0  0  0  0  0  0  0  0
   49.3524    7.1842   13.1131 C   0  0  0  0  0  0  0  0  0  0  0  0
   45.5935    6.3153   12.7139 C   0  0  0  0  0  0  0  0  0  0  0  0
   50.1381    9.1790   16.3415 C   0  0  0  0  0  0  0  0  0  0  0  0
   45.9078    8.6920   12.3006 C   0  0  0  0  0  0  0  0  0  0  0  0
   51.5176   10.0236   14.5165 C   0  0  0  0  0  0  0  0  0  0  0  0
   45.0730    7.5794   12.4162 C   0  0  0  0  0  0  0  0  0  0  0  0
   51.0919   10.0764   15.8473 C   0  0  0  0  0  0  0  0  0  0  0  0
   47.4249    4.8207   13.1929 C   0  0  0  0  0  0  0  0  0  0  0  0
   48.6353    7.3121   16.0680 C   0  0  0  0  0  0  0  0  0  0  0  0
   45.3490   10.0202   11.9536 C   0  0  0  0  0  0  0  0  0  0  0  0
   52.5504   11.0113   14.1115 C   0  0  0  0  0  0  0  0  0  0  0  0
   44.7162    5.2202   12.7909 C   0  0  0  0  0  0  0  0  0  0  0  0
   49.7586    9.2519   17.6928 C   0  0  0  0  0  0  0  0  0  0  0  0
   46.5408    3.7394   13.2640 C   0  0  0  0  0  0  0  0  0  0  0  0
   48.2681    7.3924   17.4145 C   0  0  0  0  0  0  0  0  0  0  0  0
   45.1848    3.9398   13.0663 C   0  0  0  0  0  0  0  0  0  0  0  0
   48.8277    8.3660   18.2265 C   0  0  0  0  0  0  0  0  0  0  0  0
   44.7261    5.6152   13.3939 S   0  0  0  0  0  0  0  0  0  0  0  0
   49.7132    9.3505   14.5884 N   0  0  0  0  0  0  0  0  0  0  0  0
   49.6732    6.9847   14.8170 N   0  0  0  0  0  0  0  0  0  0  0  0
   49.1681    8.0894   14.3618 C   0  0  0  0  0  0  0  0  0  0  0  0
   47.9544    7.9380   13.4917 C   0  0  0  0  0  0  0  0  0  0  0  0
   45.9080    6.7763   12.9036 C   0  0  0  0  0  0  0  0  0  0  0  0
   47.0732    6.9494   13.7075 C   0  0  0  0  0  0  0  0  0  0  0  0
   50.8916    9.4770   15.4390 C   0  0  0  0  0  0  0  0  0  0  0  0
   50.8645    7.0408   15.6573 C   0  0  0  0  0  0  0  0  0  0  0  0
   51.7386    8.2289   15.3172 C   0  0  0  0  0  0  0  0  0  0  0  0
   45.5088    7.3898   11.7258 C   0  0  0  0  0  0  0  0  0  0  0  0
   48.9088   10.5621   14.4759 C   0  0  0  0  0  0  0  0  0  0  0  0
   43.7176    5.9534   12.0592 C   0  0  0  0  0  0  0  0  0  0  0  0
   44.2514    6.9215   11.2428 C   0  0  0  0  0  0  0  0  0  0  0  0
   47.6341   10.4183   12.1423 H   0  0  0  0  0  0  0  0  0  0  0  0
   51.9894    9.6826   12.1598 H   0  0  0  0  0  0  0  0  0  0  0  0
   43.8023   10.9591   11.5656 H   0  0  0  0  0  0  0  0  0  0  0  0
   53.5337   11.6653   12.7060 H   0  0  0  0  0  0  0  0  0  0  0  0
   49.8265    7.2511   12.1268 H   0  0  0  0  0  0  0  0  0  0  0  0
   49.6424    6.1974   13.4813 H   0  0  0  0  0  0  0  0  0  0  0  0
   44.0025    7.6938   12.2571 H   0  0  0  0  0  0  0  0  0  0  0  0
   51.5234   10.8247   16.5118 H   0  0  0  0  0  0  0  0  0  0  0  0
   48.4753    4.5919   13.3472 H   0  0  0  0  0  0  0  0  0  0  0  0
   48.1774    6.5229   15.4818 H   0  0  0  0  0  0  0  0  0  0  0  0
   43.6479    5.3561   12.6287 H   0  0  0  0  0  0  0  0  0  0  0  0
   50.1930   10.0051   18.3479 H   0  0  0  0  0  0  0  0  0  0  0  0
   46.9199    2.7421   13.4717 H   0  0  0  0  0  0  0  0  0  0  0  0
   47.5459    6.6897   17.8205 H   0  0  0  0  0  0  0  0  0  0  0  0
   44.4928    3.1036   13.1176 H   0  0  0  0  0  0  0  0  0  0  0  0
   48.5468    8.4342   19.2733 H   0  0  0  0  0  0  0  0  0  0  0  0
   47.8437    8.6637   12.6985 H   0  0  0  0  0  0  0  0  0  0  0  0
   47.2440    6.2560   14.5293 H   0  0  0  0  0  0  0  0  0  0  0  0
   50.5816    9.6321   16.4800 H   0  0  0  0  0  0  0  0  0  0  0  0
   51.4873   10.3464   15.1367 H   0  0  0  0  0  0  0  0  0  0  0  0
   50.5635    7.0653   16.7115 H   0  0  0  0  0  0  0  0  0  0  0  0
   51.4391    6.1194   15.5113 H   0  0  0  0  0  0  0  0  0  0  0  0
   52.1235    8.1311   14.2946 H   0  0  0  0  0  0  0  0  0  0  0  0
   52.5987    8.2799   15.9928 H   0  0  0  0  0  0  0  0  0  0  0  0
   46.0938    8.1430   11.2152 H   0  0  0  0  0  0  0  0  0  0  0  0
   48.0818   10.5382   15.1932 H   0  0  0  0  0  0  0  0  0  0  0  0
   48.5037   10.6768   13.4665 H   0  0  0  0  0  0  0  0  0  0  0  0
   49.5043   11.4592   14.6784 H   0  0  0  0  0  0  0  0  0  0  0  0
   42.7833    5.4234   11.9362 H   0  0  0  0  0  0  0  0  0  0  0  0
   43.7697    7.2732   10.3393 H   0  0  0  0  0  0  0  0  0  0  0  0
  1 11  1  0
  2 12  1  0
  3 22  2  0
  4 23  2  0
  5 22  1  0
  6 23  1  0
  7  9  1  0
  7 11  2  0
  7 13  1  0
  8 10  1  0
  8 12  2  0
  8 13  1  0
  9 14  2  0
  9 20  1  0
 10 15  2  0
 10 21  1  0
 11 16  1  0
 12 17  1  0
 14 18  1  0
 14 24  1  0
 15 19  1  0
 15 25  1  0
 16 18  2  0
 16 22  1  0
 17 19  2  0
 17 23  1  0
 20 26  2  0
 21 27  2  0
 24 28  2  0
 25 29  2  0
 26 28  1  0
 27 29  1  0
 30 35  1  0
 30 42  1  0
 31 33  1  0
 31 37  1  0
 31 41  1  0
 32 33  2  0
 32 38  1  0
 33 34  1  0
 34 36  2  0
 35 36  1  0
 35 40  2  0
 37 39  1  0
 38 39  1  0
 40 43  1  0
 42 43  2  0
  1 44  1  0
  2 45  1  0
  5 46  1  0
  6 47  1  0
 13 48  1  0
 13 49  1  0
 18 50  1  0
 19 51  1  0
 20 52  1  0
 21 53  1  0
 24 54  1  0
 25 55  1  0
 26 56  1  0
 27 57  1  0
 28 58  1  0
 29 59  1  0
 34 60  1  0
 36 61  1  0
 37 62  1  0
 37 63  1  0
 38 64  1  0
 38 65  1  0
 39 66  1  0
 39 67  1  0
 40 68  1  0
 41 69  1  0
 41 70  1  0
 41 71  1  0
 42 72  1  0
 43 73  1  0
M  END
> <Uni-Dock RESULT> 
ENERGY=   -4.867  LOWER_BOUND=    4.923  UPPER_BOUND=    8.003
INTER + INTRA:          -4.867
INTER:                  -4.867
INTRA:                   0.000
UNBOUND:                 0.000

$$$$

     RDKit          3D

 73 77  0  0  0  0  0  0  0  0999 V2000
   48.5223   11.5750   15.7225 O   0  0  0  0  0  0  0  0  0  0  0  0
   47.1736    8.9787   14.1842 O   0  0  0  0  0  0  0  0  0  0  0  0
   49.3974   14.0366   15.9027 O   0  0  0  0  0  0  0  0  0  0  0  0
   49.9499    7.8640   11.2759 O   0  0  0  0  0  0  0  0  0  0  0  0
   49.5933   14.9703   17.9255 O   0  0  0  0  0  0  0  0  0  0  0  0
   47.9344    8.6696   11.7828 O   0  0  0  0  0  0  0  0  0  0  0  0
   48.0429   10.4031   17.7458 C   0  0  0  0  0  0  0  0  0  0  0  0
   48.7735    8.6810   15.9233 C   0  0  0  0  0  0  0  0  0  0  0  0
   47.8790   10.4177   19.1720 C   0  0  0  0  0  0  0  0  0  0  0  0
   50.0711    8.2557   16.3528 C   0  0  0  0  0  0  0  0  0  0  0  0
   48.4724   11.5828   17.0955 C   0  0  0  0  0  0  0  0  0  0  0  0
   48.4564    8.6450   14.5462 C   0  0  0  0  0  0  0  0  0  0  0  0
   47.7104    9.1604   16.9138 C   0  0  0  0  0  0  0  0  0  0  0  0
   48.2317   11.5912   19.8910 C   0  0  0  0  0  0  0  0  0  0  0  0
   51.0271    7.8744   15.3760 C   0  0  0  0  0  0  0  0  0  0  0  0
   48.8163   12.7311   17.8228 C   0  0  0  0  0  0  0  0  0  0  0  0
   49.4117    8.2698   13.5924 C   0  0  0  0  0  0  0  0  0  0  0  0
   48.7031   12.7211   19.2139 C   0  0  0  0  0  0  0  0  0  0  0  0
   50.6901    7.8958   14.0176 C   0  0  0  0  0  0  0  0  0  0  0  0
   47.3815    9.3346   19.9419 C   0  0  0  0  0  0  0  0  0  0  0  0
   50.4787    8.1748   17.7057 C   0  0  0  0  0  0  0  0  0  0  0  0
   49.2870   13.9446   17.1140 C   0  0  0  0  0  0  0  0  0  0  0  0
   49.1630    8.2325   12.1285 C   0  0  0  0  0  0  0  0  0  0  0  0
   48.1077   11.6398   21.2899 C   0  0  0  0  0  0  0  0  0  0  0  0
   52.3162    7.4668   15.7597 C   0  0  0  0  0  0  0  0  0  0  0  0
   47.2608    9.3978   21.3338 C   0  0  0  0  0  0  0  0  0  0  0  0
   51.7630    7.7646   18.0753 C   0  0  0  0  0  0  0  0  0  0  0  0
   47.6275   10.5501   22.0089 C   0  0  0  0  0  0  0  0  0  0  0  0
   52.6837    7.4140   17.1008 C   0  0  0  0  0  0  0  0  0  0  0  0
   48.7818   11.5065   21.0720 S   0  0  0  0  0  0  0  0  0  0  0  0
   49.7715    9.1753   15.2552 N   0  0  0  0  0  0  0  0  0  0  0  0
   48.9466    7.9450   17.1145 N   0  0  0  0  0  0  0  0  0  0  0  0
   49.2116    9.0701   16.5258 C   0  0  0  0  0  0  0  0  0  0  0  0
   48.8148   10.3061   17.2794 C   0  0  0  0  0  0  0  0  0  0  0  0
   48.4880   11.4926   19.3695 C   0  0  0  0  0  0  0  0  0  0  0  0
   48.8547   10.3358   18.6202 C   0  0  0  0  0  0  0  0  0  0  0  0
   50.1527    7.9623   14.5400 C   0  0  0  0  0  0  0  0  0  0  0  0
   49.2844    6.6944   16.4431 C   0  0  0  0  0  0  0  0  0  0  0  0
   49.2294    6.8309   14.9366 C   0  0  0  0  0  0  0  0  0  0  0  0
   47.8988   12.6863   18.9810 C   0  0  0  0  0  0  0  0  0  0  0  0
   50.4686   10.3821   14.8248 C   0  0  0  0  0  0  0  0  0  0  0  0
   48.1412   13.0777   21.2549 C   0  0  0  0  0  0  0  0  0  0  0  0
   47.7028   13.5972   20.0604 C   0  0  0  0  0  0  0  0  0  0  0  0
   48.8682   12.4326   15.3952 H   0  0  0  0  0  0  0  0  0  0  0  0
   47.1328    9.0113   13.2059 H   0  0  0  0  0  0  0  0  0  0  0  0
   49.8781   15.6860   17.3195 H   0  0  0  0  0  0  0  0  0  0  0  0
   47.9465    8.5943   10.8021 H   0  0  0  0  0  0  0  0  0  0  0  0
   46.7569    9.3773   16.4178 H   0  0  0  0  0  0  0  0  0  0  0  0
   47.4944    8.2887   17.5358 H   0  0  0  0  0  0  0  0  0  0  0  0
   48.9710   13.6114   19.7797 H   0  0  0  0  0  0  0  0  0  0  0  0
   51.4312    7.6041   13.2736 H   0  0  0  0  0  0  0  0  0  0  0  0
   47.0665    8.4060   19.4752 H   0  0  0  0  0  0  0  0  0  0  0  0
   49.7941    8.4242   18.5091 H   0  0  0  0  0  0  0  0  0  0  0  0
   48.3815   12.5405   21.8376 H   0  0  0  0  0  0  0  0  0  0  0  0
   53.0506    7.1803   15.0089 H   0  0  0  0  0  0  0  0  0  0  0  0
   46.8764    8.5427   21.8839 H   0  0  0  0  0  0  0  0  0  0  0  0
   52.0347    7.7205   19.1263 H   0  0  0  0  0  0  0  0  0  0  0  0
   47.5337   10.6068   23.0899 H   0  0  0  0  0  0  0  0  0  0  0  0
   53.6832    7.0947   17.3808 H   0  0  0  0  0  0  0  0  0  0  0  0
   48.5020   11.1492   16.6800 H   0  0  0  0  0  0  0  0  0  0  0  0
   49.1858    9.4510   19.1612 H   0  0  0  0  0  0  0  0  0  0  0  0
   51.1947    7.7083   14.7715 H   0  0  0  0  0  0  0  0  0  0  0  0
   50.0821    8.1210   13.4574 H   0  0  0  0  0  0  0  0  0  0  0  0
   50.2776    6.3644   16.7703 H   0  0  0  0  0  0  0  0  0  0  0  0
   48.5724    5.9243   16.7597 H   0  0  0  0  0  0  0  0  0  0  0  0
   48.2031    7.0502   14.6169 H   0  0  0  0  0  0  0  0  0  0  0  0
   49.5356    5.8969   14.4541 H   0  0  0  0  0  0  0  0  0  0  0  0
   47.6064   12.9059   17.9628 H   0  0  0  0  0  0  0  0  0  0  0  0
   51.3310   10.5748   15.4714 H   0  0  0  0  0  0  0  0  0  0  0  0
   49.8053   11.2514   14.8445 H   0  0  0  0  0  0  0  0  0  0  0  0
   50.8333   10.2894   13.7958 H   0  0  0  0  0  0  0  0  0  0  0  0
   48.1142   13.5433   22.2304 H   0  0  0  0  0  0  0  0  0  0  0  0
   47.2566   14.5788   19.9638 H   0  0  0  0  0  0  0  0  0  0  0  0
  1 11  1  0
  2 12  1  0
  3 22  2  0
  4 23  2  0
  5 22  1  0
  6 23  1  0
  7  9  1  0
  7 11  2  0
  7 13  1  0
  8 10  1  0
  8 12  2  0
  8 13  1  0
  9 14  2  0
  9 20  1  0
 10 15  2  0
 10 21  1  0
 11 16  1  0
 12 17  1  0
 14 18  1  0
 14 24  1  0
 15 19  1  0
 15 25  1  0
 16 18  2  0
 16 22  1  0
 17 19  2  0
 17 23  1  0
 20 26  2  0
 21 27  2  0
 24 28  2  0
 25 29  2  0
 26 28  1  0
 27 29  1  0
 30 35  1  0
 30 42  1  0
 31 33  1  0
 31 37  1  0
 31 41  1  0
 32 33  2  0
 32 38  1  0
 33 34  1  0
 34 36  2  0
 35 36  1  0
 35 40  2  0
 37 39  1  0
 38 39  1  0
 40 43  1  0
 42 43  2  0
  1 44  1  0
  2 45  1  0
  5 46  1  0
  6 47  1  0
 13 48  1  0
 13 49  1  0
 18 50  1  0
 19 51  1  0
 20 52  1  0
 21 53  1  0
 24 54  1  0
 25 55  1  0
 26 56  1  0
 27 57  1  0
 28 58  1  0
 29 59  1  0
 34 60  1  0
 36 61  1  0
 37 62  1  0
 37 63  1  0
 38 64  1  0
 38 65  1  0
 39 66  1  0
 39 67  1  0
 40 68  1  0
 41 69  1  0
 41 70  1  0
 41 71  1  0
 42 72  1  0
 43 73  1  0
M  END
> <Uni-Dock RESULT> 
ENERGY=   -4.773  LOWER_BOUND=    2.938  UPPER_BOUND=    4.129
INTER + INTRA:          -4.773
INTER:                  -4.773
INTRA:                   0.000
UNBOUND:                 0.000

$$$$

     RDKit          3D

 73 77  0  0  0  0  0  0  0  0999 V2000
   49.8186   11.2964   15.3110 O   0  0  0  0  0  0  0  0  0  0  0  0
   51.6755   13.9303   14.5753 O   0  0  0  0  0  0  0  0  0  0  0  0
   49.1037    8.7812   15.1699 O   0  0  0  0  0  0  0  0  0  0  0  0
   50.9374   14.6996   10.5414 O   0  0  0  0  0  0  0  0  0  0  0  0
   47.8590    7.9159   16.8143 O   0  0  0  0  0  0  0  0  0  0  0  0
   52.3650   14.0809   12.1375 O   0  0  0  0  0  0  0  0  0  0  0  0
   49.0387   12.5829   17.1640 C   0  0  0  0  0  0  0  0  0  0  0  0
   49.3673   14.1663   15.1131 C   0  0  0  0  0  0  0  0  0  0  0  0
   48.3826   12.6384   18.4397 C   0  0  0  0  0  0  0  0  0  0  0  0
   48.0323   14.5017   14.7205 C   0  0  0  0  0  0  0  0  0  0  0  0
   49.0972   11.3474   16.4792 C   0  0  0  0  0  0  0  0  0  0  0  0
   50.3945   14.1730   14.1419 C   0  0  0  0  0  0  0  0  0  0  0  0
   49.7208   13.8144   16.5596 C   0  0  0  0  0  0  0  0  0  0  0  0
   47.7434   11.4698   18.9337 C   0  0  0  0  0  0  0  0  0  0  0  0
   47.7645   14.7652   13.3522 C   0  0  0  0  0  0  0  0  0  0  0  0
   48.4594   10.2049   16.9829 C   0  0  0  0  0  0  0  0  0  0  0  0
   50.1147   14.4313   12.7935 C   0  0  0  0  0  0  0  0  0  0  0  0
   47.7796   10.2794   18.1996 C   0  0  0  0  0  0  0  0  0  0  0  0
   48.8004   14.7171   12.4119 C   0  0  0  0  0  0  0  0  0  0  0  0
   48.3184   13.7881   19.2689 C   0  0  0  0  0  0  0  0  0  0  0  0
   46.9383   14.6032   15.6125 C   0  0  0  0  0  0  0  0  0  0  0  0
   48.5178    8.9299   16.2295 C   0  0  0  0  0  0  0  0  0  0  0  0
   51.1333   14.4303   11.7123 C   0  0  0  0  0  0  0  0  0  0  0  0
   47.0708   11.4871   20.1675 C   0  0  0  0  0  0  0  0  0  0  0  0
   46.4628   15.0819   12.9275 C   0  0  0  0  0  0  0  0  0  0  0  0
   47.6477   13.7903   20.4961 C   0  0  0  0  0  0  0  0  0  0  0  0
   45.6482   14.9223   15.1787 C   0  0  0  0  0  0  0  0  0  0  0  0
   47.0203   12.6399   20.9443 C   0  0  0  0  0  0  0  0  0  0  0  0
   45.4098   15.1581   13.8341 C   0  0  0  0  0  0  0  0  0  0  0  0
   46.6263   11.5566   19.6042 S   0  0  0  0  0  0  0  0  0  0  0  0
   48.9328   13.5665   14.0463 N   0  0  0  0  0  0  0  0  0  0  0  0
   48.5281   14.9327   15.9491 N   0  0  0  0  0  0  0  0  0  0  0  0
   48.6864   13.7672   15.4020 C   0  0  0  0  0  0  0  0  0  0  0  0
   48.6528   12.5985   16.3432 C   0  0  0  0  0  0  0  0  0  0  0  0
   47.8160   11.5265   18.3515 C   0  0  0  0  0  0  0  0  0  0  0  0
   47.8757   12.6189   17.4367 C   0  0  0  0  0  0  0  0  0  0  0  0
   48.9590   14.7152   13.1474 C   0  0  0  0  0  0  0  0  0  0  0  0
   48.5643   16.1240   15.1076 C   0  0  0  0  0  0  0  0  0  0  0  0
   49.4536   15.9326   13.8978 C   0  0  0  0  0  0  0  0  0  0  0  0
   48.5751   10.3700   18.4474 C   0  0  0  0  0  0  0  0  0  0  0  0
   48.6481   12.2910   13.3985 C   0  0  0  0  0  0  0  0  0  0  0  0
   47.1276   10.0509   20.2322 C   0  0  0  0  0  0  0  0  0  0  0  0
   48.1790    9.5215   19.5229 C   0  0  0  0  0  0  0  0  0  0  0  0
   49.7524   10.4013   14.9153 H   0  0  0  0  0  0  0  0  0  0  0  0
   52.2547   13.8621   13.7881 H   0  0  0  0  0  0  0  0  0  0  0  0
   47.9919    7.1559   16.2098 H   0  0  0  0  0  0  0  0  0  0  0  0
   52.8967   14.1158   11.3106 H   0  0  0  0  0  0  0  0  0  0  0  0
   50.7978   13.6559   16.6909 H   0  0  0  0  0  0  0  0  0  0  0  0
   49.5148   14.7248   17.1272 H   0  0  0  0  0  0  0  0  0  0  0  0
   47.2831    9.3935   18.5911 H   0  0  0  0  0  0  0  0  0  0  0  0
   48.5856   14.9179   11.3624 H   0  0  0  0  0  0  0  0  0  0  0  0
   48.7973   14.7198   18.9827 H   0  0  0  0  0  0  0  0  0  0  0  0
   47.0712   14.4422   16.6768 H   0  0  0  0  0  0  0  0  0  0  0  0
   46.5799   10.5897   20.5414 H   0  0  0  0  0  0  0  0  0  0  0  0
   46.2576   15.2777   11.8765 H   0  0  0  0  0  0  0  0  0  0  0  0
   47.6222   14.6949   21.0982 H   0  0  0  0  0  0  0  0  0  0  0  0
   44.8365   14.9860   15.8979 H   0  0  0  0  0  0  0  0  0  0  0  0
   46.4997   12.6341   21.8980 H   0  0  0  0  0  0  0  0  0  0  0  0
   44.4101   15.4061   13.4901 H   0  0  0  0  0  0  0  0  0  0  0  0
   49.2839   11.7602   16.0840 H   0  0  0  0  0  0  0  0  0  0  0  0
   47.2600   13.4949   17.6342 H   0  0  0  0  0  0  0  0  0  0  0  0
   47.9539   14.8930   12.7447 H   0  0  0  0  0  0  0  0  0  0  0  0
   49.6266   14.5198   12.2999 H   0  0  0  0  0  0  0  0  0  0  0  0
   47.5430   16.3853   14.8054 H   0  0  0  0  0  0  0  0  0  0  0  0
   48.9444   16.9613   15.7033 H   0  0  0  0  0  0  0  0  0  0  0  0
   50.4931   15.7846   14.2158 H   0  0  0  0  0  0  0  0  0  0  0  0
   49.4253   16.8187   13.2553 H   0  0  0  0  0  0  0  0  0  0  0  0
   49.3938   10.1344   17.7805 H   0  0  0  0  0  0  0  0  0  0  0  0
   47.5817   12.0549   13.4745 H   0  0  0  0  0  0  0  0  0  0  0  0
   49.2272   11.4798   13.8488 H   0  0  0  0  0  0  0  0  0  0  0  0
   48.9133   12.3128   12.3357 H   0  0  0  0  0  0  0  0  0  0  0  0
   46.6289    9.6282   21.0934 H   0  0  0  0  0  0  0  0  0  0  0  0
   48.6476    8.5763   19.7656 H   0  0  0  0  0  0  0  0  0  0  0  0
  1 11  1  0
  2 12  1  0
  3 22  2  0
  4 23  2  0
  5 22  1  0
  6 23  1  0
  7  9  1  0
  7 11  2  0
  7 13  1  0
  8 10  1  0
  8 12  2  0
  8 13  1  0
  9 14  2  0
  9 20  1  0
 10 15  2  0
 10 21  1  0
 11 16  1  0
 12 17  1  0
 14 18  1  0
 14 24  1  0
 15 19  1  0
 15 25  1  0
 16 18  2  0
 16 22  1  0
 17 19  2  0
 17 23  1  0
 20 26  2  0
 21 27  2  0
 24 28  2  0
 25 29  2  0
 26 28  1  0
 27 29  1  0
 30 35  1  0
 30 42  1  0
 31 33  1  0
 31 37  1  0
 31 41  1  0
 32 33  2  0
 32 38  1  0
 33 34  1  0
 34 36  2  0
 35 36  1  0
 35 40  2  0
 37 39  1  0
 38 39  1  0
 40 43  1  0
 42 43  2  0
  1 44  1  0
  2 45  1  0
  5 46  1  0
  6 47  1  0
 13 48  1  0
 13 49  1  0
 18 50  1  0
 19 51  1  0
 20 52  1  0
 21 53  1  0
 24 54  1  0
 25 55  1  0
 26 56  1  0
 27 57  1  0
 28 58  1  0
 29 59  1  0
 34 60  1  0
 36 61  1  0
 37 62  1  0
 37 63  1  0
 38 64  1  0
 38 65  1  0
 39 66  1  0
 39 67  1  0
 40 68  1  0
 41 69  1  0
 41 70  1  0
 41 71  1  0
 42 72  1  0
 43 73  1  0
M  END
> <Uni-Dock RESULT> 
ENERGY=   -4.694  LOWER_BOUND=    4.254  UPPER_BOUND=    8.424
INTER + INTRA:          -4.694
INTER:                  -4.694
INTRA:                   0.000
UNBOUND:                 0.000

$$$$

     RDKit          3D

 73 77  0  0  0  0  0  0  0  0999 V2000
   49.2719    7.3579   14.1115 O   0  0  0  0  0  0  0  0  0  0  0  0
   52.1290    9.0055   14.3318 O   0  0  0  0  0  0  0  0  0  0  0  0
   47.2522    6.2649   12.8530 O   0  0  0  0  0  0  0  0  0  0  0  0
   51.2689   12.8718   13.0201 O   0  0  0  0  0  0  0  0  0  0  0  0
   46.0435    4.7007   13.8991 O   0  0  0  0  0  0  0  0  0  0  0  0
   52.3493   10.9467   12.7118 O   0  0  0  0  0  0  0  0  0  0  0  0
   49.6875    6.6861   16.3637 C   0  0  0  0  0  0  0  0  0  0  0  0
   50.4908    9.1519   16.0544 C   0  0  0  0  0  0  0  0  0  0  0  0
   49.4095    5.8013   17.4596 C   0  0  0  0  0  0  0  0  0  0  0  0
   49.5336    9.9202   16.7911 C   0  0  0  0  0  0  0  0  0  0  0  0
   48.9198    6.5719   15.1820 C   0  0  0  0  0  0  0  0  0  0  0  0
   51.1562    9.7466   14.9581 C   0  0  0  0  0  0  0  0  0  0  0  0
   50.8281    7.7069   16.4278 C   0  0  0  0  0  0  0  0  0  0  0  0
   48.3198    4.8961   17.3509 C   0  0  0  0  0  0  0  0  0  0  0  0
   49.2292   11.2365   16.3573 C   0  0  0  0  0  0  0  0  0  0  0  0
   47.8479    5.6725   15.0942 C   0  0  0  0  0  0  0  0  0  0  0  0
   50.8427   11.0461   14.5386 C   0  0  0  0  0  0  0  0  0  0  0  0
   47.5512    4.8510   16.1829 C   0  0  0  0  0  0  0  0  0  0  0  0
   49.8761   11.7746   15.2387 C   0  0  0  0  0  0  0  0  0  0  0  0
   50.1490    5.7522   18.6696 C   0  0  0  0  0  0  0  0  0  0  0  0
   48.8614    9.4618   17.9491 C   0  0  0  0  0  0  0  0  0  0  0  0
   47.0461    5.5934   13.8502 C   0  0  0  0  0  0  0  0  0  0  0  0
   51.4779   11.7285   13.3822 C   0  0  0  0  0  0  0  0  0  0  0  0
   47.9997    4.0285   18.4090 C   0  0  0  0  0  0  0  0  0  0  0  0
   48.2829   12.0143   17.0463 C   0  0  0  0  0  0  0  0  0  0  0  0
   49.8208    4.8815   19.7136 C   0  0  0  0  0  0  0  0  0  0  0  0
   47.9243   10.2461   18.6281 C   0  0  0  0  0  0  0  0  0  0  0  0
   48.7431    4.0213   19.5847 C   0  0  0  0  0  0  0  0  0  0  0  0
   47.6321   11.5222   18.1736 C   0  0  0  0  0  0  0  0  0  0  0  0
   47.5825    4.6161   18.3914 S   0  0  0  0  0  0  0  0  0  0  0  0
   49.6173    9.7906   15.3363 N   0  0  0  0  0  0  0  0  0  0  0  0
   50.3895    9.0459   17.4576 N   0  0  0  0  0  0  0  0  0  0  0  0
   49.7658    8.8366   16.3396 C   0  0  0  0  0  0  0  0  0  0  0  0
   49.2427    7.4441   16.1392 C   0  0  0  0  0  0  0  0  0  0  0  0
   48.3098    5.3892   17.0281 C   0  0  0  0  0  0  0  0  0  0  0  0
   48.8156    6.7139   17.1806 C   0  0  0  0  0  0  0  0  0  0  0  0
   50.1304   11.1392   15.5513 C   0  0  0  0  0  0  0  0  0  0  0  0
   50.9447   10.3683   17.7252 C   0  0  0  0  0  0  0  0  0  0  0  0
   51.3459   11.0795   16.4507 C   0  0  0  0  0  0  0  0  0  0  0  0
   48.2876    4.5379   15.9337 C   0  0  0  0  0  0  0  0  0  0  0  0
   48.5563    9.6930   14.3400 C   0  0  0  0  0  0  0  0  0  0  0  0
   47.2473    3.1926   17.5118 C   0  0  0  0  0  0  0  0  0  0  0  0
   47.6754    3.2797   16.2087 C   0  0  0  0  0  0  0  0  0  0  0  0
   48.6454    7.2145   13.3704 H   0  0  0  0  0  0  0  0  0  0  0  0
   52.4224    9.4984   13.5376 H   0  0  0  0  0  0  0  0  0  0  0  0
   45.6179    4.7613   13.0182 H   0  0  0  0  0  0  0  0  0  0  0  0
   52.6554   11.5370   11.9870 H   0  0  0  0  0  0  0  0  0  0  0  0
   51.6313    7.2994   15.8025 H   0  0  0  0  0  0  0  0  0  0  0  0
   51.2730    7.7719   17.4234 H   0  0  0  0  0  0  0  0  0  0  0  0
   46.7185    4.1533   16.1164 H   0  0  0  0  0  0  0  0  0  0  0  0
   49.6344   12.7854   14.9105 H   0  0  0  0  0  0  0  0  0  0  0  0
   51.0115    6.3918   18.8321 H   0  0  0  0  0  0  0  0  0  0  0  0
   49.0621    8.4767   18.3559 H   0  0  0  0  0  0  0  0  0  0  0  0
   47.1620    3.3379   18.3227 H   0  0  0  0  0  0  0  0  0  0  0  0
   48.0458   13.0217   16.7088 H   0  0  0  0  0  0  0  0  0  0  0  0
   50.4142    4.8791   20.6243 H   0  0  0  0  0  0  0  0  0  0  0  0
   47.4290    9.8529   19.5113 H   0  0  0  0  0  0  0  0  0  0  0  0
   48.4842    3.3404   20.3910 H   0  0  0  0  0  0  0  0  0  0  0  0
   46.9050   12.1368   18.6960 H   0  0  0  0  0  0  0  0  0  0  0  0
   49.2351    7.0803   15.1215 H   0  0  0  0  0  0  0  0  0  0  0  0
   48.8462    7.1455   18.1797 H   0  0  0  0  0  0  0  0  0  0  0  0
   49.3492   11.7652   16.0006 H   0  0  0  0  0  0  0  0  0  0  0  0
   50.4129   11.5956   14.5953 H   0  0  0  0  0  0  0  0  0  0  0  0
   50.2148   10.9600   18.2907 H   0  0  0  0  0  0  0  0  0  0  0  0
   51.8267   10.2542   18.3652 H   0  0  0  0  0  0  0  0  0  0  0  0
   52.1570   10.5321   15.9549 H   0  0  0  0  0  0  0  0  0  0  0  0
   51.7114   12.0878   16.6714 H   0  0  0  0  0  0  0  0  0  0  0  0
   48.7007    4.7946   14.9673 H   0  0  0  0  0  0  0  0  0  0  0  0
   47.5750    9.7166   14.8251 H   0  0  0  0  0  0  0  0  0  0  0  0
   48.6446    8.7727   13.7558 H   0  0  0  0  0  0  0  0  0  0  0  0
   48.5990   10.5229   13.6259 H   0  0  0  0  0  0  0  0  0  0  0  0
   46.7551    2.3593   17.9938 H   0  0  0  0  0  0  0  0  0  0  0  0
   47.5630    2.4796   15.4883 H   0  0  0  0  0  0  0  0  0  0  0  0
  1 11  1  0
  2 12  1  0
  3 22  2  0
  4 23  2  0
  5 22  1  0
  6 23  1  0
  7  9  1  0
  7 11  2  0
  7 13  1  0
  8 10  1  0
  8 12  2  0
  8 13  1  0
  9 14  2  0
  9 20  1  0
 10 15  2  0
 10 21  1  0
 11 16  1  0
 12 17  1  0
 14 18  1  0
 14 24  1  0
 15 19  1  0
 15 25  1  0
 16 18  2  0
 16 22  1  0
 17 19  2  0
 17 23  1  0
 20 26  2  0
 21 27  2  0
 24 28  2  0
 25 29  2  0
 26 28  1  0
 27 29  1  0
 30 35  1  0
 30 42  1  0
 31 33  1  0
 31 37  1  0
 31 41  1  0
 32 33  2  0
 32 38  1  0
 33 34  1  0
 34 36  2  0
 35 36  1  0
 35 40  2  0
 37 39  1  0
 38 39  1  0
 40 43  1  0
 42 43  2  0
  1 44  1  0
  2 45  1  0
  5 46  1  0
  6 47  1  0
 13 48  1  0
 13 49  1  0
 18 50  1  0
 19 51  1  0
 20 52  1  0
 21 53  1  0
 24 54  1  0
 25 55  1  0
 26 56  1  0
 27 57  1  0
 28 58  1  0
 29 59  1  0
 34 60  1  0
 36 61  1  0
 37 62  1  0
 37 63  1  0
 38 64  1  0
 38 65  1  0
 39 66  1  0
 39 67  1  0
 40 68  1  0
 41 69  1  0
 41 70  1  0
 41 71  1  0
 42 72  1  0
 43 73  1  0
M  END
> <Uni-Dock RESULT> 
ENERGY=   -4.617  LOWER_BOUND=    2.976  UPPER_BOUND=    7.018
INTER + INTRA:          -4.617
INTER:                  -4.617
INTRA:                   0.000
UNBOUND:                 0.000

$$$$

     RDKit          3D

 73 77  0  0  0  0  0  0  0  0999 V2000
   51.9261    7.6955   17.8909 O   0  0  0  0  0  0  0  0  0  0  0  0
   50.3781    8.3090   20.7463 O   0  0  0  0  0  0  0  0  0  0  0  0
   52.9557    8.3217   15.5659 O   0  0  0  0  0  0  0  0  0  0  0  0
   46.4922    9.3884   19.6768 O   0  0  0  0  0  0  0  0  0  0  0  0
   54.4701    6.9548   14.6494 O   0  0  0  0  0  0  0  0  0  0  0  0
   48.4558    9.9562   20.5658 O   0  0  0  0  0  0  0  0  0  0  0  0
   52.5981    5.6391   18.8990 C   0  0  0  0  0  0  0  0  0  0  0  0
   50.1638    6.1996   19.6616 C   0  0  0  0  0  0  0  0  0  0  0  0
   53.4658    4.4955   18.9111 C   0  0  0  0  0  0  0  0  0  0  0  0
   49.3580    5.2367   18.9740 C   0  0  0  0  0  0  0  0  0  0  0  0
   52.6927    6.5571   17.8279 C   0  0  0  0  0  0  0  0  0  0  0  0
   49.5995    7.4474   20.0120 C   0  0  0  0  0  0  0  0  0  0  0  0
   51.6174    5.9127   20.0438 C   0  0  0  0  0  0  0  0  0  0  0  0
   54.3330    4.2809   17.8064 C   0  0  0  0  0  0  0  0  0  0  0  0
   48.0346    5.5887   18.6024 C   0  0  0  0  0  0  0  0  0  0  0  0
   53.5546    6.3274   16.7463 C   0  0  0  0  0  0  0  0  0  0  0  0
   48.2925    7.7828   19.6350 C   0  0  0  0  0  0  0  0  0  0  0  0
   54.3585    5.1865   16.7403 C   0  0  0  0  0  0  0  0  0  0  0  0
   47.5264    6.8519   18.9269 C   0  0  0  0  0  0  0  0  0  0  0  0
   53.5333    3.5401   19.9579 C   0  0  0  0  0  0  0  0  0  0  0  0
   49.7855    3.9299   18.6388 C   0  0  0  0  0  0  0  0  0  0  0  0
   53.6134    7.2961   15.6261 C   0  0  0  0  0  0  0  0  0  0  0  0
   47.6399    9.0813   19.9423 C   0  0  0  0  0  0  0  0  0  0  0  0
   55.1824    3.1619   17.7680 C   0  0  0  0  0  0  0  0  0  0  0  0
   47.2200    4.6748   17.9121 C   0  0  0  0  0  0  0  0  0  0  0  0
   54.3856    2.4323   19.9077 C   0  0  0  0  0  0  0  0  0  0  0  0
   48.9647    3.0283   17.9548 C   0  0  0  0  0  0  0  0  0  0  0  0
   55.2084    2.2411   18.8102 C   0  0  0  0  0  0  0  0  0  0  0  0
   47.6820    3.4029   17.5878 C   0  0  0  0  0  0  0  0  0  0  0  0
   54.5807    3.0714   17.3814 S   0  0  0  0  0  0  0  0  0  0  0  0
   49.4994    6.6546   18.6427 N   0  0  0  0  0  0  0  0  0  0  0  0
   50.2576    4.8225   19.9540 N   0  0  0  0  0  0  0  0  0  0  0  0
   50.4519    5.7180   19.0359 C   0  0  0  0  0  0  0  0  0  0  0  0
   51.8265    5.7422   18.4335 C   0  0  0  0  0  0  0  0  0  0  0  0
   53.8419    4.5957   17.7220 C   0  0  0  0  0  0  0  0  0  0  0  0
   52.5348    4.6115   18.2922 C   0  0  0  0  0  0  0  0  0  0  0  0
   48.1683    6.6129   19.2382 C   0  0  0  0  0  0  0  0  0  0  0  0
   48.9538    4.7416   20.6038 C   0  0  0  0  0  0  0  0  0  0  0  0
   48.2649    6.0885   20.6544 C   0  0  0  0  0  0  0  0  0  0  0  0
   54.6986    5.6267   17.3672 C   0  0  0  0  0  0  0  0  0  0  0  0
   49.5661    7.3127   17.3427 C   0  0  0  0  0  0  0  0  0  0  0  0
   55.9970    3.7997   16.7681 C   0  0  0  0  0  0  0  0  0  0  0  0
   55.9330    5.1717   16.8168 C   0  0  0  0  0  0  0  0  0  0  0  0
   52.0521    8.2295   17.0777 H   0  0  0  0  0  0  0  0  0  0  0  0
   49.9006    9.1612   20.8211 H   0  0  0  0  0  0  0  0  0  0  0  0
   54.4002    7.6823   13.9963 H   0  0  0  0  0  0  0  0  0  0  0  0
   47.8810   10.7470   20.6753 H   0  0  0  0  0  0  0  0  0  0  0  0
   52.0566    6.7312   20.6264 H   0  0  0  0  0  0  0  0  0  0  0  0
   51.5618    5.0825   20.7516 H   0  0  0  0  0  0  0  0  0  0  0  0
   55.0271    5.0064   15.9006 H   0  0  0  0  0  0  0  0  0  0  0  0
   46.5098    7.1152   18.6352 H   0  0  0  0  0  0  0  0  0  0  0  0
   52.9232    3.6353   20.8513 H   0  0  0  0  0  0  0  0  0  0  0  0
   50.7745    3.5800   18.9139 H   0  0  0  0  0  0  0  0  0  0  0  0
   55.8438    2.9997   16.9181 H   0  0  0  0  0  0  0  0  0  0  0  0
   46.2070    4.9483   17.6222 H   0  0  0  0  0  0  0  0  0  0  0  0
   54.4030    1.7240   20.7320 H   0  0  0  0  0  0  0  0  0  0  0  0
   49.3350    2.0357   17.7144 H   0  0  0  0  0  0  0  0  0  0  0  0
   55.8748    1.3840   18.7660 H   0  0  0  0  0  0  0  0  0  0  0  0
   47.0392    2.7077   17.0561 H   0  0  0  0  0  0  0  0  0  0  0  0
   52.1960    6.7113   18.1296 H   0  0  0  0  0  0  0  0  0  0  0  0
   52.0984    3.6678   18.6151 H   0  0  0  0  0  0  0  0  0  0  0  0
   47.5127    5.9730   18.6344 H   0  0  0  0  0  0  0  0  0  0  0  0
   47.7280    7.6168   19.2561 H   0  0  0  0  0  0  0  0  0  0  0  0
   48.3334    4.0040   20.0807 H   0  0  0  0  0  0  0  0  0  0  0  0
   49.0947    4.3722   21.6256 H   0  0  0  0  0  0  0  0  0  0  0  0
   48.8434    6.7827   21.2764 H   0  0  0  0  0  0  0  0  0  0  0  0
   47.2686    5.9948   21.0990 H   0  0  0  0  0  0  0  0  0  0  0  0
   54.4625    6.6740   17.5011 H   0  0  0  0  0  0  0  0  0  0  0  0
   49.5052    6.5730   16.5378 H   0  0  0  0  0  0  0  0  0  0  0  0
   50.4924    7.8838   17.2345 H   0  0  0  0  0  0  0  0  0  0  0  0
   48.7426    8.0232   17.2101 H   0  0  0  0  0  0  0  0  0  0  0  0
   56.8097    3.1862   16.4044 H   0  0  0  0  0  0  0  0  0  0  0  0
   56.7331    5.8193   16.4817 H   0  0  0  0  0  0  0  0  0  0  0  0
  1 11  1  0
  2 12  1  0
  3 22  2  0
  4 23  2  0
  5 22  1  0
  6 23  1  0
  7  9  1  0
  7 11  2  0
  7 13  1  0
  8 10  1  0
  8 12  2  0
  8 13  1  0
  9 14  2  0
  9 20  1  0
 10 15  2  0
 10 21  1  0
 11 16  1  0
 12 17  1  0
 14 18  1  0
 14 24  1  0
 15 19  1  0
 15 25  1  0
 16 18  2  0
 16 22  1  0
 17 19  2  0
 17 23  1  0
 20 26  2  0
 21 27  2  0
 24 28  2  0
 25 29  2  0
 26 28  1  0
 27 29  1  0
 30 35  1  0
 30 42  1  0
 31 33  1  0
 31 37  1  0
 31 41  1  0
 32 33  2  0
 32 38  1  0
 33 34  1  0
 34 36  2  0
 35 36  1  0
 35 40  2  0
 37 39  1  0
 38 39  1  0
 40 43  1  0
 42 43  2  0
  1 44  1  0
  2 45  1  0
  5 46  1  0
  6 47  1  0
 13 48  1  0
 13 49  1  0
 18 50  1  0
 19 51  1  0
 20 52  1  0
 21 53  1  0
 24 54  1  0
 25 55  1  0
 26 56  1  0
 27 57  1  0
 28 58  1  0
 29 59  1  0
 34 60  1  0
 36 61  1  0
 37 62  1  0
 37 63  1  0
 38 64  1  0
 38 65  1  0
 39 66  1  0
 39 67  1  0
 40 68  1  0
 41 69  1  0
 41 70  1  0
 41 71  1  0
 42 72  1  0
 43 73  1  0
M  END
> <Uni-Dock RESULT> 
ENERGY=   -4.579  LOWER_BOUND=    3.278  UPPER_BOUND=    6.836
INTER + INTRA:          -4.579
INTER:                  -4.579
INTRA:                   0.000
UNBOUND:                 0.000

$$$$

     RDKit          3D

 73 77  0  0  0  0  0  0  0  0999 V2000
   46.6248   10.2066   12.7038 O   0  0  0  0  0  0  0  0  0  0  0  0
   48.4511   12.5123   14.2118 O   0  0  0  0  0  0  0  0  0  0  0  0
   45.6654    7.7963   12.3465 O   0  0  0  0  0  0  0  0  0  0  0  0
   52.4119   11.3822   13.5458 O   0  0  0  0  0  0  0  0  0  0  0  0
   43.7838    7.5446   11.1639 O   0  0  0  0  0  0  0  0  0  0  0  0
   50.7341   11.7093   14.9762 O   0  0  0  0  0  0  0  0  0  0  0  0
   45.4816   12.0333   11.6777 C   0  0  0  0  0  0  0  0  0  0  0  0
   48.0180   12.6246   11.8725 C   0  0  0  0  0  0  0  0  0  0  0  0
   44.3381   12.5318   10.9671 C   0  0  0  0  0  0  0  0  0  0  0  0
   48.4887   12.5685   10.5218 C   0  0  0  0  0  0  0  0  0  0  0  0
   45.5753   10.6460   11.9336 C   0  0  0  0  0  0  0  0  0  0  0  0
   48.9203   12.3637   12.9290 C   0  0  0  0  0  0  0  0  0  0  0  0
   46.5671   12.9745   12.2097 C   0  0  0  0  0  0  0  0  0  0  0  0
   43.3800   11.6061   10.4737 C   0  0  0  0  0  0  0  0  0  0  0  0
   49.8329   12.1849   10.2784 C   0  0  0  0  0  0  0  0  0  0  0  0
   44.6196    9.7480   11.4377 C   0  0  0  0  0  0  0  0  0  0  0  0
   50.2440   11.9822   12.6736 C   0  0  0  0  0  0  0  0  0  0  0  0
   43.5371   10.2350   10.7034 C   0  0  0  0  0  0  0  0  0  0  0  0
   50.6840   11.8894   11.3497 C   0  0  0  0  0  0  0  0  0  0  0  0
   44.0770   13.9028   10.7112 C   0  0  0  0  0  0  0  0  0  0  0  0
   47.7028   12.8830    9.3876 C   0  0  0  0  0  0  0  0  0  0  0  0
   44.7586    8.2963   11.7017 C   0  0  0  0  0  0  0  0  0  0  0  0
   51.2422   11.6666   13.7272 C   0  0  0  0  0  0  0  0  0  0  0  0
   42.2578   12.0502    9.7537 C   0  0  0  0  0  0  0  0  0  0  0  0
   50.3253   12.1032    8.9645 C   0  0  0  0  0  0  0  0  0  0  0  0
   42.9544   14.3311    9.9955 C   0  0  0  0  0  0  0  0  0  0  0  0
   48.2047   12.8012    8.0854 C   0  0  0  0  0  0  0  0  0  0  0  0
   42.0457   13.4038    9.5132 C   0  0  0  0  0  0  0  0  0  0  0  0
   49.5163   12.4071    7.8738 C   0  0  0  0  0  0  0  0  0  0  0  0
   42.7877   11.8101    9.3281 S   0  0  0  0  0  0  0  0  0  0  0  0
   48.7181   11.5736   11.5695 N   0  0  0  0  0  0  0  0  0  0  0  0
   47.5715   13.5460   10.9018 N   0  0  0  0  0  0  0  0  0  0  0  0
   47.5727   12.2940   11.2411 C   0  0  0  0  0  0  0  0  0  0  0  0
   46.2225   11.6439   11.3283 C   0  0  0  0  0  0  0  0  0  0  0  0
   43.9321   11.4198   10.5623 C   0  0  0  0  0  0  0  0  0  0  0  0
   45.2264   12.0165   10.5103 C   0  0  0  0  0  0  0  0  0  0  0  0
   50.0213   12.2226   11.4760 C   0  0  0  0  0  0  0  0  0  0  0  0
   48.8411   14.2589   10.8099 C   0  0  0  0  0  0  0  0  0  0  0  0
   49.8718   13.6999   11.7672 C   0  0  0  0  0  0  0  0  0  0  0  0
   43.3680   10.5340   11.4679 C   0  0  0  0  0  0  0  0  0  0  0  0
   48.7543   10.1176   11.4897 C   0  0  0  0  0  0  0  0  0  0  0  0
   41.5882   10.8016   10.0039 C   0  0  0  0  0  0  0  0  0  0  0  0
   42.0255   10.1761   11.1468 C   0  0  0  0  0  0  0  0  0  0  0  0
   46.5996    9.2287   12.7774 H   0  0  0  0  0  0  0  0  0  0  0  0
   49.1458   12.1992   14.8276 H   0  0  0  0  0  0  0  0  0  0  0  0
   44.0092    6.6271   11.4250 H   0  0  0  0  0  0  0  0  0  0  0  0
   51.5076   11.4647   15.5325 H   0  0  0  0  0  0  0  0  0  0  0  0
   46.4030   13.0412   13.2917 H   0  0  0  0  0  0  0  0  0  0  0  0
   46.4377   14.0004   11.8572 H   0  0  0  0  0  0  0  0  0  0  0  0
   42.7952    9.5388   10.3168 H   0  0  0  0  0  0  0  0  0  0  0  0
   51.7143   11.5927   11.1538 H   0  0  0  0  0  0  0  0  0  0  0  0
   44.7429   14.6823   11.0696 H   0  0  0  0  0  0  0  0  0  0  0  0
   46.6744   13.2100    9.4964 H   0  0  0  0  0  0  0  0  0  0  0  0
   41.5270   11.3371    9.3750 H   0  0  0  0  0  0  0  0  0  0  0  0
   51.3550   11.8028    8.7789 H   0  0  0  0  0  0  0  0  0  0  0  0
   42.7950   15.3920    9.8211 H   0  0  0  0  0  0  0  0  0  0  0  0
   47.5648   13.0486    7.2431 H   0  0  0  0  0  0  0  0  0  0  0  0
   41.1701   13.7299    8.9587 H   0  0  0  0  0  0  0  0  0  0  0  0
   49.9126   12.3411    6.8650 H   0  0  0  0  0  0  0  0  0  0  0  0
   46.1125   10.8738   12.0785 H   0  0  0  0  0  0  0  0  0  0  0  0
   45.4087   12.7963    9.7727 H   0  0  0  0  0  0  0  0  0  0  0  0
   50.4406   12.0680   10.4738 H   0  0  0  0  0  0  0  0  0  0  0  0
   50.7182   11.7825   12.1991 H   0  0  0  0  0  0  0  0  0  0  0  0
   49.2048   14.2194    9.7761 H   0  0  0  0  0  0  0  0  0  0  0  0
   48.6672   15.3145   11.0464 H   0  0  0  0  0  0  0  0  0  0  0  0
   49.5425   13.8501   12.8028 H   0  0  0  0  0  0  0  0  0  0  0  0
   50.8301   14.2154   11.6450 H   0  0  0  0  0  0  0  0  0  0  0  0
   43.8874   10.1562   12.3384 H   0  0  0  0  0  0  0  0  0  0  0  0
   48.5631    9.7876   10.4634 H   0  0  0  0  0  0  0  0  0  0  0  0
   48.0132    9.6656   12.1548 H   0  0  0  0  0  0  0  0  0  0  0  0
   49.7302    9.7233   11.7938 H   0  0  0  0  0  0  0  0  0  0  0  0
   40.6190   10.7188    9.5319 H   0  0  0  0  0  0  0  0  0  0  0  0
   41.4127    9.5004   11.7297 H   0  0  0  0  0  0  0  0  0  0  0  0
  1 11  1  0
  2 12  1  0
  3 22  2  0
  4 23  2  0
  5 22  1  0
  6 23  1  0
  7  9  1  0
  7 11  2  0
  7 13  1  0
  8 10  1  0
  8 12  2  0
  8 13  1  0
  9 14  2  0
  9 20  1  0
 10 15  2  0
 10 21  1  0
 11 16  1  0
 12 17  1  0
 14 18  1  0
 14 24  1  0
 15 19  1  0
 15 25  1  0
 16 18  2  0
 16 22  1  0
 17 19  2  0
 17 23  1  0
 20 26  2  0
 21 27  2  0
 24 28  2  0
 25 29  2  0
 26 28  1  0
 27 29  1  0
 30 35  1  0
 30 42  1  0
 31 33  1  0
 31 37  1  0
 31 41  1  0
 32 33  2  0
 32 38  1  0
 33 34  1  0
 34 36  2  0
 35 36  1  0
 35 40  2  0
 37 39  1  0
 38 39  1  0
 40 43  1  0
 42 43  2  0
  1 44  1  0
  2 45  1  0
  5 46  1  0
  6 47  1  0
 13 48  1  0
 13 49  1  0
 18 50  1  0
 19 51  1  0
 20 52  1  0
 21 53  1  0
 24 54  1  0
 25 55  1  0
 26 56  1  0
 27 57  1  0
 28 58  1  0
 29 59  1  0
 34 60  1  0
 36 61  1  0
 37 62  1  0
 37 63  1  0
 38 64  1  0
 38 65  1  0
 39 66  1  0
 39 67  1  0
 40 68  1  0
 41 69  1  0
 41 70  1  0
 41 71  1  0
 42 72  1  0
 43 73  1  0
M  END
> <Uni-Dock RESULT> 
ENERGY=   -4.554  LOWER_BOUND=    8.178  UPPER_BOUND=   10.931
INTER + INTRA:          -4.554
INTER:                  -4.554
INTRA:                   0.000
UNBOUND:                 0.000

$$$$
