
     RDKit          3D

 73 77  0  0  0  0  0  0  0  0999 V2000
   51.8921    7.3560   17.9638 O   0  0  0  0  0  0  0  0  0  0  0  0
   49.0953    8.1222   16.2959 O   0  0  0  0  0  0  0  0  0  0  0  0
   54.2642    7.8073   18.9803 O   0  0  0  0  0  0  0  0  0  0  0  0
   48.1437   10.5272   16.7326 O   0  0  0  0  0  0  0  0  0  0  0  0
   55.6063    6.0671   19.4017 O   0  0  0  0  0  0  0  0  0  0  0  0
   47.2188   10.9818   18.7189 O   0  0  0  0  0  0  0  0  0  0  0  0
   51.1988    5.0886   17.6975 C   0  0  0  0  0  0  0  0  0  0  0  0
   49.0944    6.5797   18.1155 C   0  0  0  0  0  0  0  0  0  0  0  0
   51.5185    3.6889   17.7159 C   0  0  0  0  0  0  0  0  0  0  0  0
   48.6992    6.2416   19.4488 C   0  0  0  0  0  0  0  0  0  0  0  0
   52.1875    6.0205   18.0885 C   0  0  0  0  0  0  0  0  0  0  0  0
   48.7771    7.8597   17.6086 C   0  0  0  0  0  0  0  0  0  0  0  0
   49.8359    5.5920   17.2123 C   0  0  0  0  0  0  0  0  0  0  0  0
   52.7880    3.2821   18.2069 C   0  0  0  0  0  0  0  0  0  0  0  0
   48.0635    7.2271   20.2489 C   0  0  0  0  0  0  0  0  0  0  0  0
   53.4362    5.5994   18.5665 C   0  0  0  0  0  0  0  0  0  0  0  0
   48.1483    8.8215   18.4113 C   0  0  0  0  0  0  0  0  0  0  0  0
   53.7201    4.2345   18.6338 C   0  0  0  0  0  0  0  0  0  0  0  0
   47.8063    8.5007   19.7269 C   0  0  0  0  0  0  0  0  0  0  0  0
   50.6541    2.6540   17.2736 C   0  0  0  0  0  0  0  0  0  0  0  0
   48.8898    4.9698   20.0395 C   0  0  0  0  0  0  0  0  0  0  0  0
   54.4429    6.6002   18.9916 C   0  0  0  0  0  0  0  0  0  0  0  0
   47.8529   10.1646   17.8609 C   0  0  0  0  0  0  0  0  0  0  0  0
   53.1310    1.9204   18.2659 C   0  0  0  0  0  0  0  0  0  0  0  0
   47.6808    6.9350   21.5693 C   0  0  0  0  0  0  0  0  0  0  0  0
   51.0100    1.3029   17.3339 C   0  0  0  0  0  0  0  0  0  0  0  0
   48.5024    4.6907   21.3532 C   0  0  0  0  0  0  0  0  0  0  0  0
   52.2478    0.9354   17.8351 C   0  0  0  0  0  0  0  0  0  0  0  0
   47.9016    5.6759   22.1206 C   0  0  0  0  0  0  0  0  0  0  0  0
   53.4248    3.5997   18.0409 S   0  0  0  0  0  0  0  0  0  0  0  0
   48.6094    5.5342   19.7553 N   0  0  0  0  0  0  0  0  0  0  0  0
   49.4310    7.2363   18.3155 N   0  0  0  0  0  0  0  0  0  0  0  0
   49.5592    6.0833   18.8974 C   0  0  0  0  0  0  0  0  0  0  0  0
   50.8027    5.3124   18.5531 C   0  0  0  0  0  0  0  0  0  0  0  0
   53.1538    5.2935   17.8560 C   0  0  0  0  0  0  0  0  0  0  0  0
   51.9297    5.9472   18.1972 C   0  0  0  0  0  0  0  0  0  0  0  0
   47.4194    6.3036   20.0962 C   0  0  0  0  0  0  0  0  0  0  0  0
   48.2478    8.0451   18.5894 C   0  0  0  0  0  0  0  0  0  0  0  0
   47.0445    7.1930   18.9306 C   0  0  0  0  0  0  0  0  0  0  0  0
   54.2961    5.8981   17.3502 C   0  0  0  0  0  0  0  0  0  0  0  0
   48.9404    4.4602   20.6833 C   0  0  0  0  0  0  0  0  0  0  0  0
   55.0206    3.6997   17.4454 C   0  0  0  0  0  0  0  0  0  0  0  0
   55.3651    4.9872   17.1117 C   0  0  0  0  0  0  0  0  0  0  0  0
   52.6374    7.8979   18.2986 H   0  0  0  0  0  0  0  0  0  0  0  0
   48.9002    9.0617   16.0928 H   0  0  0  0  0  0  0  0  0  0  0  0
   56.1587    6.8404   19.6428 H   0  0  0  0  0  0  0  0  0  0  0  0
   47.0995   11.8163   18.2188 H   0  0  0  0  0  0  0  0  0  0  0  0
   49.1262    4.7784   17.0473 H   0  0  0  0  0  0  0  0  0  0  0  0
   50.0103    6.0054   16.2124 H   0  0  0  0  0  0  0  0  0  0  0  0
   54.6880    3.9058   19.0075 H   0  0  0  0  0  0  0  0  0  0  0  0
   47.3211    9.2471   20.3530 H   0  0  0  0  0  0  0  0  0  0  0  0
   49.6745    2.8738   16.8597 H   0  0  0  0  0  0  0  0  0  0  0  0
   49.3425    4.1583   19.4799 H   0  0  0  0  0  0  0  0  0  0  0  0
   54.1029    1.6120   18.6473 H   0  0  0  0  0  0  0  0  0  0  0  0
   47.1999    7.6930   22.1848 H   0  0  0  0  0  0  0  0  0  0  0  0
   50.3151    0.5435   16.9844 H   0  0  0  0  0  0  0  0  0  0  0  0
   48.6738    3.7013   21.7690 H   0  0  0  0  0  0  0  0  0  0  0  0
   52.5304   -0.1126   17.8846 H   0  0  0  0  0  0  0  0  0  0  0  0
   47.5997    5.4662   23.1430 H   0  0  0  0  0  0  0  0  0  0  0  0
   50.7226    4.2362   18.6063 H   0  0  0  0  0  0  0  0  0  0  0  0
   51.9260    7.0348   18.1497 H   0  0  0  0  0  0  0  0  0  0  0  0
   46.5817    5.6324   20.3187 H   0  0  0  0  0  0  0  0  0  0  0  0
   47.6128    6.9040   20.9936 H   0  0  0  0  0  0  0  0  0  0  0  0
   48.4718    8.7489   19.3997 H   0  0  0  0  0  0  0  0  0  0  0  0
   48.0214    8.6443   17.7008 H   0  0  0  0  0  0  0  0  0  0  0  0
   46.1870    7.8235   19.1878 H   0  0  0  0  0  0  0  0  0  0  0  0
   46.7602    6.5818   18.0650 H   0  0  0  0  0  0  0  0  0  0  0  0
   54.3583    6.9622   17.1531 H   0  0  0  0  0  0  0  0  0  0  0  0
   49.7790    4.7513   21.3243 H   0  0  0  0  0  0  0  0  0  0  0  0
   48.0945    4.2121   21.3339 H   0  0  0  0  0  0  0  0  0  0  0  0
   49.2027    3.5459   20.1423 H   0  0  0  0  0  0  0  0  0  0  0  0
   55.6300    2.8100   17.3690 H   0  0  0  0  0  0  0  0  0  0  0  0
   56.3342    5.2644   16.7153 H   0  0  0  0  0  0  0  0  0  0  0  0
  1 11  1  0
  2 12  1  0
  3 22  2  0
  4 23  2  0
  5 22  1  0
  6 23  1  0
  7  9  1  0
  7 11  2  0
  7 13  1  0
  8 10  1  0
  8 12  2  0
  8 13  1  0
  9 14  2  0
  9 20  1  0
 10 15  2  0
 10 21  1  0
 11 16  1  0
 12 17  1  0
 14 18  1  0
 14 24  1  0
 15 19  1  0
 15 25  1  0
 16 18  2  0
 16 22  1  0
 17 19  2  0
 17 23  1  0
 20 26  2  0
 21 27  2  0
 24 28  2  0
 25 29  2  0
 26 28  1  0
 27 29  1  0
 30 35  1  0
 30 42  1  0
 31 33  1  0
 31 37  1  0
 31 41  1  0
 32 33  2  0
 32 38  1  0
 33 34  1  0
 34 36  2  0
 35 36  1  0
 35 40  2  0
 37 39  1  0
 38 39  1  0
 40 43  1  0
 42 43  2  0
  1 44  1  0
  2 45  1  0
  5 46  1  0
  6 47  1  0
 13 48  1  0
 13 49  1  0
 18 50  1  0
 19 51  1  0
 20 52  1  0
 21 53  1  0
 24 54  1  0
 25 55  1  0
 26 56  1  0
 27 57  1  0
 28 58  1  0
 29 59  1  0
 34 60  1  0
 36 61  1  0
 37 62  1  0
 37 63  1  0
 38 64  1  0
 38 65  1  0
 39 66  1  0
 39 67  1  0
 40 68  1  0
 41 69  1  0
 41 70  1  0
 41 71  1  0
 42 72  1  0
 43 73  1  0
M  END
> <Uni-Dock RESULT> 
ENERGY=   -6.322  LOWER_BOUND=    0.000  UPPER_BOUND=    0.000
INTER + INTRA:          -6.322
INTER:                  -6.322
INTRA:                   0.000
UNBOUND:                 0.000

$$$$

     RDKit          3D

 73 77  0  0  0  0  0  0  0  0999 V2000
   49.1768    9.5621   16.4561 O   0  0  0  0  0  0  0  0  0  0  0  0
   51.6683    9.2360   14.2477 O   0  0  0  0  0  0  0  0  0  0  0  0
   47.5419   10.8660   18.0343 O   0  0  0  0  0  0  0  0  0  0  0  0
   51.7573   11.0638   12.3685 O   0  0  0  0  0  0  0  0  0  0  0  0
   46.5814    9.7723   19.7340 O   0  0  0  0  0  0  0  0  0  0  0  0
   50.1892   11.0530   10.7721 O   0  0  0  0  0  0  0  0  0  0  0  0
   49.4312    7.2144   16.7973 C   0  0  0  0  0  0  0  0  0  0  0  0
   49.8001    7.7528   14.2674 C   0  0  0  0  0  0  0  0  0  0  0  0
   49.1907    6.0500   17.6023 C   0  0  0  0  0  0  0  0  0  0  0  0
   48.6214    7.2414   13.6370 C   0  0  0  0  0  0  0  0  0  0  0  0
   48.8484    8.4436   17.1825 C   0  0  0  0  0  0  0  0  0  0  0  0
   50.4930    8.8249   13.6620 C   0  0  0  0  0  0  0  0  0  0  0  0
   50.3460    7.1638   15.5698 C   0  0  0  0  0  0  0  0  0  0  0  0
   48.3071    6.1529   18.7100 C   0  0  0  0  0  0  0  0  0  0  0  0
   48.1416    7.8731   12.4596 C   0  0  0  0  0  0  0  0  0  0  0  0
   47.9821    8.5257   18.2815 C   0  0  0  0  0  0  0  0  0  0  0  0
   50.0064    9.4374   12.4989 C   0  0  0  0  0  0  0  0  0  0  0  0
   47.7091    7.3777   19.0269 C   0  0  0  0  0  0  0  0  0  0  0  0
   48.8302    8.9633   11.9136 C   0  0  0  0  0  0  0  0  0  0  0  0
   49.7756    4.7762   17.3806 C   0  0  0  0  0  0  0  0  0  0  0  0
   47.8877    6.1246   14.1028 C   0  0  0  0  0  0  0  0  0  0  0  0
   47.3679    9.8242   18.6454 C   0  0  0  0  0  0  0  0  0  0  0  0
   50.7398   10.5776   11.9020 C   0  0  0  0  0  0  0  0  0  0  0  0
   48.0245    5.0312   19.5081 C   0  0  0  0  0  0  0  0  0  0  0  0
   46.9756    7.4095   11.8266 C   0  0  0  0  0  0  0  0  0  0  0  0
   49.4888    3.6692   18.1855 C   0  0  0  0  0  0  0  0  0  0  0  0
   46.7307    5.6713   13.4628 C   0  0  0  0  0  0  0  0  0  0  0  0
   48.6087    3.7955   19.2475 C   0  0  0  0  0  0  0  0  0  0  0  0
   46.2714    6.3174   12.3261 C   0  0  0  0  0  0  0  0  0  0  0  0
   48.3029    6.6990   19.1955 S   0  0  0  0  0  0  0  0  0  0  0  0
   48.2929    6.5447   13.7324 N   0  0  0  0  0  0  0  0  0  0  0  0
   49.5690    8.4813   14.2487 N   0  0  0  0  0  0  0  0  0  0  0  0
   48.8731    7.4498   14.6177 C   0  0  0  0  0  0  0  0  0  0  0  0
   48.7575    7.2364   16.1010 C   0  0  0  0  0  0  0  0  0  0  0  0
   48.7137    8.1589   18.3729 C   0  0  0  0  0  0  0  0  0  0  0  0
   48.8158    8.2719   16.9520 C   0  0  0  0  0  0  0  0  0  0  0  0
   48.3955    6.7776   12.2973 C   0  0  0  0  0  0  0  0  0  0  0  0
   49.7369    8.7554   12.8253 C   0  0  0  0  0  0  0  0  0  0  0  0
   49.6957    7.4906   11.9952 C   0  0  0  0  0  0  0  0  0  0  0  0
   48.9069    9.1777   19.2953 C   0  0  0  0  0  0  0  0  0  0  0  0
   47.2148    5.6529   14.1404 C   0  0  0  0  0  0  0  0  0  0  0  0
   48.3996    7.4332   20.7326 C   0  0  0  0  0  0  0  0  0  0  0  0
   48.7304    8.7640   20.6469 C   0  0  0  0  0  0  0  0  0  0  0  0
   48.6849   10.3395   16.7950 H   0  0  0  0  0  0  0  0  0  0  0  0
   52.0050   10.0317   13.7837 H   0  0  0  0  0  0  0  0  0  0  0  0
   46.2573   10.6909   19.8460 H   0  0  0  0  0  0  0  0  0  0  0  0
   50.7758   11.7921   10.5064 H   0  0  0  0  0  0  0  0  0  0  0  0
   50.6413    6.1443   15.3124 H   0  0  0  0  0  0  0  0  0  0  0  0
   51.2810    7.6469   15.8756 H   0  0  0  0  0  0  0  0  0  0  0  0
   47.0343    7.4391   19.8786 H   0  0  0  0  0  0  0  0  0  0  0  0
   48.4488    9.4396   11.0125 H   0  0  0  0  0  0  0  0  0  0  0  0
   50.4820    4.6114   16.5725 H   0  0  0  0  0  0  0  0  0  0  0  0
   48.2098    5.5734   14.9798 H   0  0  0  0  0  0  0  0  0  0  0  0
   47.3431    5.1126   20.3533 H   0  0  0  0  0  0  0  0  0  0  0  0
   46.6041    7.8985   10.9280 H   0  0  0  0  0  0  0  0  0  0  0  0
   49.9599    2.7117   17.9779 H   0  0  0  0  0  0  0  0  0  0  0  0
   46.1944    4.8129   13.8590 H   0  0  0  0  0  0  0  0  0  0  0  0
   48.3817    2.9394   19.8768 H   0  0  0  0  0  0  0  0  0  0  0  0
   45.3717    5.9713   11.8248 H   0  0  0  0  0  0  0  0  0  0  0  0
   48.6332    6.2129   16.4240 H   0  0  0  0  0  0  0  0  0  0  0  0
   48.9609    9.2732   16.5499 H   0  0  0  0  0  0  0  0  0  0  0  0
   48.3742    5.8258   11.7537 H   0  0  0  0  0  0  0  0  0  0  0  0
   47.5400    7.3744   11.9582 H   0  0  0  0  0  0  0  0  0  0  0  0
   48.9642    9.4623   12.5007 H   0  0  0  0  0  0  0  0  0  0  0  0
   50.7032    9.2496   12.6767 H   0  0  0  0  0  0  0  0  0  0  0  0
   49.7657    7.7281   10.9285 H   0  0  0  0  0  0  0  0  0  0  0  0
   50.5474    6.8474   12.2492 H   0  0  0  0  0  0  0  0  0  0  0  0
   49.1722   10.1882   19.0062 H   0  0  0  0  0  0  0  0  0  0  0  0
   46.3812    6.2252   14.5607 H   0  0  0  0  0  0  0  0  0  0  0  0
   46.8276    5.0726   13.2955 H   0  0  0  0  0  0  0  0  0  0  0  0
   47.5669    4.9323   14.8848 H   0  0  0  0  0  0  0  0  0  0  0  0
   48.2087    6.8543   21.6255 H   0  0  0  0  0  0  0  0  0  0  0  0
   48.8418    9.4102   21.5089 H   0  0  0  0  0  0  0  0  0  0  0  0
  1 11  1  0
  2 12  1  0
  3 22  2  0
  4 23  2  0
  5 22  1  0
  6 23  1  0
  7  9  1  0
  7 11  2  0
  7 13  1  0
  8 10  1  0
  8 12  2  0
  8 13  1  0
  9 14  2  0
  9 20  1  0
 10 15  2  0
 10 21  1  0
 11 16  1  0
 12 17  1  0
 14 18  1  0
 14 24  1  0
 15 19  1  0
 15 25  1  0
 16 18  2  0
 16 22  1  0
 17 19  2  0
 17 23  1  0
 20 26  2  0
 21 27  2  0
 24 28  2  0
 25 29  2  0
 26 28  1  0
 27 29  1  0
 30 35  1  0
 30 42  1  0
 31 33  1  0
 31 37  1  0
 31 41  1  0
 32 33  2  0
 32 38  1  0
 33 34  1  0
 34 36  2  0
 35 36  1  0
 35 40  2  0
 37 39  1  0
 38 39  1  0
 40 43  1  0
 42 43  2  0
  1 44  1  0
  2 45  1  0
  5 46  1  0
  6 47  1  0
 13 48  1  0
 13 49  1  0
 18 50  1  0
 19 51  1  0
 20 52  1  0
 21 53  1  0
 24 54  1  0
 25 55  1  0
 26 56  1  0
 27 57  1  0
 28 58  1  0
 29 59  1  0
 34 60  1  0
 36 61  1  0
 37 62  1  0
 37 63  1  0
 38 64  1  0
 38 65  1  0
 39 66  1  0
 39 67  1  0
 40 68  1  0
 41 69  1  0
 41 70  1  0
 41 71  1  0
 42 72  1  0
 43 73  1  0
M  END
> <Uni-Dock RESULT> 
ENERGY=   -5.906  LOWER_BOUND=    3.714  UPPER_BOUND=    6.295
INTER + INTRA:          -5.906
INTER:                  -5.906
INTRA:                   0.000
UNBOUND:                 0.000

$$$$

     RDKit          3D

 73 77  0  0  0  0  0  0  0  0999 V2000
   46.2676   12.1413    9.1373 O   0  0  0  0  0  0  0  0  0  0  0  0
   48.0044   13.4015   11.7038 O   0  0  0  0  0  0  0  0  0  0  0  0
   45.7745   11.6148    6.6188 O   0  0  0  0  0  0  0  0  0  0  0  0
   50.6099   13.1498   11.5353 O   0  0  0  0  0  0  0  0  0  0  0  0
   43.6672   11.1883    5.9982 O   0  0  0  0  0  0  0  0  0  0  0  0
   51.5192   11.1186   11.7699 O   0  0  0  0  0  0  0  0  0  0  0  0
   44.4670   11.9671   10.6931 C   0  0  0  0  0  0  0  0  0  0  0  0
   46.7075   11.4108   11.9168 C   0  0  0  0  0  0  0  0  0  0  0  0
   43.0621   11.8080   10.9437 C   0  0  0  0  0  0  0  0  0  0  0  0
   46.6396    9.9958   12.1205 C   0  0  0  0  0  0  0  0  0  0  0  0
   44.9375   11.8834    9.3624 C   0  0  0  0  0  0  0  0  0  0  0  0
   47.9730   12.0302   11.8135 C   0  0  0  0  0  0  0  0  0  0  0  0
   45.4515   12.2797   11.8241 C   0  0  0  0  0  0  0  0  0  0  0  0
   42.2041   11.4874    9.8578 C   0  0  0  0  0  0  0  0  0  0  0  0
   47.8444    9.2451   12.1409 C   0  0  0  0  0  0  0  0  0  0  0  0
   44.0740   11.5699    8.3035 C   0  0  0  0  0  0  0  0  0  0  0  0
   49.1534   11.2747   11.8363 C   0  0  0  0  0  0  0  0  0  0  0  0
   42.7184   11.3619    8.5624 C   0  0  0  0  0  0  0  0  0  0  0  0
   49.0788    9.8884   11.9893 C   0  0  0  0  0  0  0  0  0  0  0  0
   42.4441   11.9486   12.2133 C   0  0  0  0  0  0  0  0  0  0  0  0
   45.4381    9.2743   12.3167 C   0  0  0  0  0  0  0  0  0  0  0  0
   44.6021   11.4655    6.9229 C   0  0  0  0  0  0  0  0  0  0  0  0
   50.4651   11.9491   11.6982 C   0  0  0  0  0  0  0  0  0  0  0  0
   40.8269   11.2979   10.0642 C   0  0  0  0  0  0  0  0  0  0  0  0
   47.8127    7.8512   12.3183 C   0  0  0  0  0  0  0  0  0  0  0  0
   41.0714   11.7614   12.4038 C   0  0  0  0  0  0  0  0  0  0  0  0
   45.4198    7.8880   12.4947 C   0  0  0  0  0  0  0  0  0  0  0  0
   40.2627   11.4310   11.3291 C   0  0  0  0  0  0  0  0  0  0  0  0
   46.6081    7.1750   12.4908 C   0  0  0  0  0  0  0  0  0  0  0  0
   42.2246   11.8017    9.1984 S   0  0  0  0  0  0  0  0  0  0  0  0
   46.0497    9.5828   12.4100 N   0  0  0  0  0  0  0  0  0  0  0  0
   47.1809   11.3643   11.3183 N   0  0  0  0  0  0  0  0  0  0  0  0
   46.1125   10.6574   11.5264 C   0  0  0  0  0  0  0  0  0  0  0  0
   44.8833   11.0965   10.7812 C   0  0  0  0  0  0  0  0  0  0  0  0
   43.8678   12.1725    8.8255 C   0  0  0  0  0  0  0  0  0  0  0  0
   44.9820   11.7234    9.5993 C   0  0  0  0  0  0  0  0  0  0  0  0
   47.2555    9.1559   13.1085 C   0  0  0  0  0  0  0  0  0  0  0  0
   48.4160   11.0095   12.0097 C   0  0  0  0  0  0  0  0  0  0  0  0
   48.1492   10.3536   13.3473 C   0  0  0  0  0  0  0  0  0  0  0  0
   43.9238   12.9440    7.6732 C   0  0  0  0  0  0  0  0  0  0  0  0
   44.9914    8.5837   12.3323 C   0  0  0  0  0  0  0  0  0  0  0  0
   41.6309   12.6671    7.8532 C   0  0  0  0  0  0  0  0  0  0  0  0
   42.6444   13.2308    7.1164 C   0  0  0  0  0  0  0  0  0  0  0  0
   46.4783   12.0167    8.1879 H   0  0  0  0  0  0  0  0  0  0  0  0
   48.9281   13.6976   11.5584 H   0  0  0  0  0  0  0  0  0  0  0  0
   44.1618   11.1547    5.1522 H   0  0  0  0  0  0  0  0  0  0  0  0
   52.2986   11.7028   11.6598 H   0  0  0  0  0  0  0  0  0  0  0  0
   44.9888   12.2068   12.8108 H   0  0  0  0  0  0  0  0  0  0  0  0
   45.6976   13.3425   11.7190 H   0  0  0  0  0  0  0  0  0  0  0  0
   42.0473   11.1155    7.7419 H   0  0  0  0  0  0  0  0  0  0  0  0
   49.9940    9.2996   12.0038 H   0  0  0  0  0  0  0  0  0  0  0  0
   43.0184   12.2169   13.0951 H   0  0  0  0  0  0  0  0  0  0  0  0
   44.4807    9.7837   12.3425 H   0  0  0  0  0  0  0  0  0  0  0  0
   40.1730   11.0476    9.2305 H   0  0  0  0  0  0  0  0  0  0  0  0
   48.7361    7.2751   12.3267 H   0  0  0  0  0  0  0  0  0  0  0  0
   40.6410   11.8786   13.3952 H   0  0  0  0  0  0  0  0  0  0  0  0
   44.4730    7.3733   12.6358 H   0  0  0  0  0  0  0  0  0  0  0  0
   39.1954   11.2844   11.4703 H   0  0  0  0  0  0  0  0  0  0  0  0
   46.6009    6.0971   12.6268 H   0  0  0  0  0  0  0  0  0  0  0  0
   43.9381   10.8808   11.2582 H   0  0  0  0  0  0  0  0  0  0  0  0
   45.9721   11.9209    9.1919 H   0  0  0  0  0  0  0  0  0  0  0  0
   46.9979    8.7032   14.0731 H   0  0  0  0  0  0  0  0  0  0  0  0
   47.7778    8.3970   12.5130 H   0  0  0  0  0  0  0  0  0  0  0  0
   49.0147   10.3552   11.3651 H   0  0  0  0  0  0  0  0  0  0  0  0
   49.0012   11.9217   12.1689 H   0  0  0  0  0  0  0  0  0  0  0  0
   49.0882   10.0454   13.8187 H   0  0  0  0  0  0  0  0  0  0  0  0
   47.6561   11.0646   14.0219 H   0  0  0  0  0  0  0  0  0  0  0  0
   44.8567   13.2954    7.2473 H   0  0  0  0  0  0  0  0  0  0  0  0
   44.9538    8.1411   11.3315 H   0  0  0  0  0  0  0  0  0  0  0  0
   45.1483    7.7709   13.0501 H   0  0  0  0  0  0  0  0  0  0  0  0
   44.0190    9.0283   12.5650 H   0  0  0  0  0  0  0  0  0  0  0  0
   40.5673   12.7208    7.6665 H   0  0  0  0  0  0  0  0  0  0  0  0
   42.4790   13.8205    6.2231 H   0  0  0  0  0  0  0  0  0  0  0  0
  1 11  1  0
  2 12  1  0
  3 22  2  0
  4 23  2  0
  5 22  1  0
  6 23  1  0
  7  9  1  0
  7 11  2  0
  7 13  1  0
  8 10  1  0
  8 12  2  0
  8 13  1  0
  9 14  2  0
  9 20  1  0
 10 15  2  0
 10 21  1  0
 11 16  1  0
 12 17  1  0
 14 18  1  0
 14 24  1  0
 15 19  1  0
 15 25  1  0
 16 18  2  0
 16 22  1  0
 17 19  2  0
 17 23  1  0
 20 26  2  0
 21 27  2  0
 24 28  2  0
 25 29  2  0
 26 28  1  0
 27 29  1  0
 30 35  1  0
 30 42  1  0
 31 33  1  0
 31 37  1  0
 31 41  1  0
 32 33  2  0
 32 38  1  0
 33 34  1  0
 34 36  2  0
 35 36  1  0
 35 40  2  0
 37 39  1  0
 38 39  1  0
 40 43  1  0
 42 43  2  0
  1 44  1  0
  2 45  1  0
  5 46  1  0
  6 47  1  0
 13 48  1  0
 13 49  1  0
 18 50  1  0
 19 51  1  0
 20 52  1  0
 21 53  1  0
 24 54  1  0
 25 55  1  0
 26 56  1  0
 27 57  1  0
 28 58  1  0
 29 59  1  0
 34 60  1  0
 36 61  1  0
 37 62  1  0
 37 63  1  0
 38 64  1  0
 38 65  1  0
 39 66  1  0
 39 67  1  0
 40 68  1  0
 41 69  1  0
 41 70  1  0
 41 71  1  0
 42 72  1  0
 43 73  1  0
M  END
> <Uni-Dock RESULT> 
ENERGY=   -5.799  LOWER_BOUND=    8.519  UPPER_BOUND=   12.272
INTER + INTRA:          -5.799
INTER:                  -5.799
INTRA:                   0.000
UNBOUND:                 0.000

$$$$

     RDKit          3D

 73 77  0  0  0  0  0  0  0  0999 V2000
   48.9475   11.3814   16.8903 O   0  0  0  0  0  0  0  0  0  0  0  0
   51.4223   11.3988   14.6395 O   0  0  0  0  0  0  0  0  0  0  0  0
   47.4069   12.3947   18.7514 O   0  0  0  0  0  0  0  0  0  0  0  0
   51.6660   13.6083   13.2470 O   0  0  0  0  0  0  0  0  0  0  0  0
   46.3524   11.0057   20.1536 O   0  0  0  0  0  0  0  0  0  0  0  0
   50.1134   14.0977   11.7117 O   0  0  0  0  0  0  0  0  0  0  0  0
   49.0170    9.0074   16.6615 C   0  0  0  0  0  0  0  0  0  0  0  0
   49.4448   10.1015   14.3277 C   0  0  0  0  0  0  0  0  0  0  0  0
   48.6813    7.7071   17.1697 C   0  0  0  0  0  0  0  0  0  0  0  0
   48.2347    9.8467   13.6073 C   0  0  0  0  0  0  0  0  0  0  0  0
   48.5283   10.1510   17.3341 C   0  0  0  0  0  0  0  0  0  0  0  0
   50.2229   11.2302   13.9863 C   0  0  0  0  0  0  0  0  0  0  0  0
   49.9341    9.1798   15.4467 C   0  0  0  0  0  0  0  0  0  0  0  0
   47.8004    7.6116   18.2801 C   0  0  0  0  0  0  0  0  0  0  0  0
   47.8138   10.7750   12.6191 C   0  0  0  0  0  0  0  0  0  0  0  0
   47.6630   10.0360   18.4309 C   0  0  0  0  0  0  0  0  0  0  0  0
   49.7936   12.1370   13.0075 C   0  0  0  0  0  0  0  0  0  0  0  0
   47.2966    8.7682   18.8855 C   0  0  0  0  0  0  0  0  0  0  0  0
   48.5886   11.9074   12.3398 C   0  0  0  0  0  0  0  0  0  0  0  0
   49.1675    6.4814   16.6453 C   0  0  0  0  0  0  0  0  0  0  0  0
   47.4134    8.7109   13.8030 C   0  0  0  0  0  0  0  0  0  0  0  0
   47.1484   11.2541   19.0997 C   0  0  0  0  0  0  0  0  0  0  0  0
   50.6173   13.3265   12.6901 C   0  0  0  0  0  0  0  0  0  0  0  0
   47.4260    6.3575   18.7923 C   0  0  0  0  0  0  0  0  0  0  0  0
   46.6199   10.5660   11.9074 C   0  0  0  0  0  0  0  0  0  0  0  0
   48.7902    5.2403   17.1676 C   0  0  0  0  0  0  0  0  0  0  0  0
   46.2295    8.5130   13.0868 C   0  0  0  0  0  0  0  0  0  0  0  0
   47.9147    5.1780   18.2391 C   0  0  0  0  0  0  0  0  0  0  0  0
   45.8298    9.4440   12.1413 C   0  0  0  0  0  0  0  0  0  0  0  0
   47.8349    8.0253   18.8814 S   0  0  0  0  0  0  0  0  0  0  0  0
   47.8526    9.1746   13.5384 N   0  0  0  0  0  0  0  0  0  0  0  0
   49.2709   10.8291   14.4851 N   0  0  0  0  0  0  0  0  0  0  0  0
   48.4947    9.7961   14.6066 C   0  0  0  0  0  0  0  0  0  0  0  0
   48.3522    9.2460   15.9980 C   0  0  0  0  0  0  0  0  0  0  0  0
   48.3634    9.6028   18.4243 C   0  0  0  0  0  0  0  0  0  0  0  0
   48.4841   10.0420   17.0698 C   0  0  0  0  0  0  0  0  0  0  0  0
   47.9833    9.7332   12.1985 C   0  0  0  0  0  0  0  0  0  0  0  0
   49.4698   11.4198   13.1657 C   0  0  0  0  0  0  0  0  0  0  0  0
   49.3369   10.3955   12.0595 C   0  0  0  0  0  0  0  0  0  0  0  0
   48.6281   10.3554   19.5599 C   0  0  0  0  0  0  0  0  0  0  0  0
   46.7058    8.2970   13.7352 C   0  0  0  0  0  0  0  0  0  0  0  0
   47.9770    8.3637   20.5477 C   0  0  0  0  0  0  0  0  0  0  0  0
   48.4103    9.6472   20.7766 C   0  0  0  0  0  0  0  0  0  0  0  0
   48.5147   12.0915   17.4097 H   0  0  0  0  0  0  0  0  0  0  0  0
   51.8229   12.2537   14.3738 H   0  0  0  0  0  0  0  0  0  0  0  0
   46.0996   11.8935   20.4842 H   0  0  0  0  0  0  0  0  0  0  0  0
   50.7573   14.8313   11.6224 H   0  0  0  0  0  0  0  0  0  0  0  0
   50.1515    8.2310   14.9513 H   0  0  0  0  0  0  0  0  0  0  0  0
   50.9014    9.5030   15.8478 H   0  0  0  0  0  0  0  0  0  0  0  0
   46.6224    8.6772   19.7351 H   0  0  0  0  0  0  0  0  0  0  0  0
   48.2517   12.6120   11.5819 H   0  0  0  0  0  0  0  0  0  0  0  0
   49.8649    6.4595   15.8132 H   0  0  0  0  0  0  0  0  0  0  0  0
   47.6855    7.9441   14.5203 H   0  0  0  0  0  0  0  0  0  0  0  0
   46.7469    6.2879   19.6403 H   0  0  0  0  0  0  0  0  0  0  0  0
   46.2939   11.2816   11.1549 H   0  0  0  0  0  0  0  0  0  0  0  0
   49.1872    4.3263   16.7332 H   0  0  0  0  0  0  0  0  0  0  0  0
   45.6256    7.6289   13.2739 H   0  0  0  0  0  0  0  0  0  0  0  0
   47.6176    4.2169   18.6496 H   0  0  0  0  0  0  0  0  0  0  0  0
   44.9097    9.2971   11.5825 H   0  0  0  0  0  0  0  0  0  0  0  0
   48.1466    8.1877   16.0701 H   0  0  0  0  0  0  0  0  0  0  0  0
   48.7092   11.0960   16.9153 H   0  0  0  0  0  0  0  0  0  0  0  0
   47.8924    8.9424   11.4447 H   0  0  0  0  0  0  0  0  0  0  0  0
   47.1790   10.4574   12.0205 H   0  0  0  0  0  0  0  0  0  0  0  0
   48.7565   12.2408   13.0270 H   0  0  0  0  0  0  0  0  0  0  0  0
   50.4725   11.8593   13.1277 H   0  0  0  0  0  0  0  0  0  0  0  0
   49.4328   10.8735   11.0791 H   0  0  0  0  0  0  0  0  0  0  0  0
   50.1345    9.6468   12.1439 H   0  0  0  0  0  0  0  0  0  0  0  0
   48.9729   11.3822   19.5160 H   0  0  0  0  0  0  0  0  0  0  0  0
   45.9160    8.8154   14.2887 H   0  0  0  0  0  0  0  0  0  0  0  0
   46.2810    7.9655   12.7811 H   0  0  0  0  0  0  0  0  0  0  0  0
   46.9957    7.3953   14.2831 H   0  0  0  0  0  0  0  0  0  0  0  0
   47.7354    7.6056   21.2797 H   0  0  0  0  0  0  0  0  0  0  0  0
   48.5651   10.0597   21.7660 H   0  0  0  0  0  0  0  0  0  0  0  0
  1 11  1  0
  2 12  1  0
  3 22  2  0
  4 23  2  0
  5 22  1  0
  6 23  1  0
  7  9  1  0
  7 11  2  0
  7 13  1  0
  8 10  1  0
  8 12  2  0
  8 13  1  0
  9 14  2  0
  9 20  1  0
 10 15  2  0
 10 21  1  0
 11 16  1  0
 12 17  1  0
 14 18  1  0
 14 24  1  0
 15 19  1  0
 15 25  1  0
 16 18  2  0
 16 22  1  0
 17 19  2  0
 17 23  1  0
 20 26  2  0
 21 27  2  0
 24 28  2  0
 25 29  2  0
 26 28  1  0
 27 29  1  0
 30 35  1  0
 30 42  1  0
 31 33  1  0
 31 37  1  0
 31 41  1  0
 32 33  2  0
 32 38  1  0
 33 34  1  0
 34 36  2  0
 35 36  1  0
 35 40  2  0
 37 39  1  0
 38 39  1  0
 40 43  1  0
 42 43  2  0
  1 44  1  0
  2 45  1  0
  5 46  1  0
  6 47  1  0
 13 48  1  0
 13 49  1  0
 18 50  1  0
 19 51  1  0
 20 52  1  0
 21 53  1  0
 24 54  1  0
 25 55  1  0
 26 56  1  0
 27 57  1  0
 28 58  1  0
 29 59  1  0
 34 60  1  0
 36 61  1  0
 37 62  1  0
 37 63  1  0
 38 64  1  0
 38 65  1  0
 39 66  1  0
 39 67  1  0
 40 68  1  0
 41 69  1  0
 41 70  1  0
 41 71  1  0
 42 72  1  0
 43 73  1  0
M  END
> <Uni-Dock RESULT> 
ENERGY=   -5.501  LOWER_BOUND=    4.036  UPPER_BOUND=    7.163
INTER + INTRA:          -5.501
INTER:                  -5.501
INTRA:                   0.000
UNBOUND:                 0.000

$$$$

     RDKit          3D

 73 77  0  0  0  0  0  0  0  0999 V2000
   49.2317    6.8866   12.8167 O   0  0  0  0  0  0  0  0  0  0  0  0
   52.0691    8.1575   11.5818 O   0  0  0  0  0  0  0  0  0  0  0  0
   47.6299    4.9866   13.6461 O   0  0  0  0  0  0  0  0  0  0  0  0
   54.2793    7.0719   12.4854 O   0  0  0  0  0  0  0  0  0  0  0  0
   45.4237    5.3606   13.6505 O   0  0  0  0  0  0  0  0  0  0  0  0
   54.8918    7.4636   14.6018 O   0  0  0  0  0  0  0  0  0  0  0  0
   48.2733    9.0019   12.2687 C   0  0  0  0  0  0  0  0  0  0  0  0
   50.7138    9.3685   13.1268 C   0  0  0  0  0  0  0  0  0  0  0  0
   47.1071    9.8061   12.0342 C   0  0  0  0  0  0  0  0  0  0  0  0
   50.5334    9.9469   14.4234 C   0  0  0  0  0  0  0  0  0  0  0  0
   48.1065    7.6655   12.6992 C   0  0  0  0  0  0  0  0  0  0  0  0
   51.8870    8.6273   12.8623 C   0  0  0  0  0  0  0  0  0  0  0  0
   49.6832    9.5415   12.0092 C   0  0  0  0  0  0  0  0  0  0  0  0
   45.8282    9.2599   12.3240 C   0  0  0  0  0  0  0  0  0  0  0  0
   51.5046    9.6986   15.4287 C   0  0  0  0  0  0  0  0  0  0  0  0
   46.8354    7.1433   12.9761 C   0  0  0  0  0  0  0  0  0  0  0  0
   52.8369    8.3917   13.8658 C   0  0  0  0  0  0  0  0  0  0  0  0
   45.7094    7.9489   12.7988 C   0  0  0  0  0  0  0  0  0  0  0  0
   52.6329    8.9202   15.1424 C   0  0  0  0  0  0  0  0  0  0  0  0
   47.1247   11.1303   11.5244 C   0  0  0  0  0  0  0  0  0  0  0  0
   49.4422   10.7725   14.7844 C   0  0  0  0  0  0  0  0  0  0  0  0
   46.6953    5.7461   13.4492 C   0  0  0  0  0  0  0  0  0  0  0  0
   54.0443    7.5875   13.5662 C   0  0  0  0  0  0  0  0  0  0  0  0
   44.6631   10.0223   12.1331 C   0  0  0  0  0  0  0  0  0  0  0  0
   51.3482   10.2342   16.7187 C   0  0  0  0  0  0  0  0  0  0  0  0
   45.9571   11.8763   11.3352 C   0  0  0  0  0  0  0  0  0  0  0  0
   49.2991   11.3015   16.0703 C   0  0  0  0  0  0  0  0  0  0  0  0
   44.7253   11.3236   11.6444 C   0  0  0  0  0  0  0  0  0  0  0  0
   50.2507   11.0281   17.0399 C   0  0  0  0  0  0  0  0  0  0  0  0
   45.6084    8.5860   12.1464 S   0  0  0  0  0  0  0  0  0  0  0  0
   50.0722   10.5386   14.6224 N   0  0  0  0  0  0  0  0  0  0  0  0
   50.8706    8.6691   13.3925 N   0  0  0  0  0  0  0  0  0  0  0  0
   49.9052    9.4501   13.7698 C   0  0  0  0  0  0  0  0  0  0  0  0
   48.5541    9.1485   13.1845 C   0  0  0  0  0  0  0  0  0  0  0  0
   46.9652    7.5261   12.2586 C   0  0  0  0  0  0  0  0  0  0  0  0
   48.2248    7.9000   12.8205 C   0  0  0  0  0  0  0  0  0  0  0  0
   51.3842   10.8047   15.1987 C   0  0  0  0  0  0  0  0  0  0  0  0
   52.2160    8.8986   13.9085 C   0  0  0  0  0  0  0  0  0  0  0  0
   52.4586   10.3572   14.2316 C   0  0  0  0  0  0  0  0  0  0  0  0
   46.6318    6.2822   11.7412 C   0  0  0  0  0  0  0  0  0  0  0  0
   48.9498   11.1398   15.3315 C   0  0  0  0  0  0  0  0  0  0  0  0
   44.6272    7.3967   11.4156 C   0  0  0  0  0  0  0  0  0  0  0  0
   45.2948    6.2066   11.2554 C   0  0  0  0  0  0  0  0  0  0  0  0
   48.9918    5.9983   13.1553 H   0  0  0  0  0  0  0  0  0  0  0  0
   52.8723    7.5956   11.5499 H   0  0  0  0  0  0  0  0  0  0  0  0
   45.4946    4.4307   13.9530 H   0  0  0  0  0  0  0  0  0  0  0  0
   55.6240    6.9126   14.2538 H   0  0  0  0  0  0  0  0  0  0  0  0
   49.6857   10.6117   11.7910 H   0  0  0  0  0  0  0  0  0  0  0  0
   50.0131    9.0744   11.0742 H   0  0  0  0  0  0  0  0  0  0  0  0
   44.7221    7.5459   13.0163 H   0  0  0  0  0  0  0  0  0  0  0  0
   53.3674    8.7357   15.9239 H   0  0  0  0  0  0  0  0  0  0  0  0
   48.0553   11.6188   11.2516 H   0  0  0  0  0  0  0  0  0  0  0  0
   48.6757   11.0299   14.0612 H   0  0  0  0  0  0  0  0  0  0  0  0
   43.6849    9.6022   12.3609 H   0  0  0  0  0  0  0  0  0  0  0  0
   52.0893   10.0377   17.4912 H   0  0  0  0  0  0  0  0  0  0  0  0
   46.0183   12.8882   10.9427 H   0  0  0  0  0  0  0  0  0  0  0  0
   48.4413   11.9260   16.3058 H   0  0  0  0  0  0  0  0  0  0  0  0
   43.8144   11.8978   11.4996 H   0  0  0  0  0  0  0  0  0  0  0  0
   50.1446   11.4347   18.0418 H   0  0  0  0  0  0  0  0  0  0  0  0
   47.8864    9.9909   13.0756 H   0  0  0  0  0  0  0  0  0  0  0  0
   48.9597    7.1065   12.9453 H   0  0  0  0  0  0  0  0  0  0  0  0
   51.5040   11.8764   15.3965 H   0  0  0  0  0  0  0  0  0  0  0  0
   51.4811   10.2764   16.1551 H   0  0  0  0  0  0  0  0  0  0  0  0
   52.3753    8.2700   14.7925 H   0  0  0  0  0  0  0  0  0  0  0  0
   52.9397    8.5745   13.1528 H   0  0  0  0  0  0  0  0  0  0  0  0
   53.4526   10.4939   14.6701 H   0  0  0  0  0  0  0  0  0  0  0  0
   52.4147   10.9569   13.3139 H   0  0  0  0  0  0  0  0  0  0  0  0
   47.3305    5.4540   11.7086 H   0  0  0  0  0  0  0  0  0  0  0  0
   48.4201   10.3852   15.9222 H   0  0  0  0  0  0  0  0  0  0  0  0
   49.2795   11.9281   16.0174 H   0  0  0  0  0  0  0  0  0  0  0  0
   48.2496   11.6030   14.6297 H   0  0  0  0  0  0  0  0  0  0  0  0
   43.6077    7.6268   11.1389 H   0  0  0  0  0  0  0  0  0  0  0  0
   44.8492    5.3249   10.8115 H   0  0  0  0  0  0  0  0  0  0  0  0
  1 11  1  0
  2 12  1  0
  3 22  2  0
  4 23  2  0
  5 22  1  0
  6 23  1  0
  7  9  1  0
  7 11  2  0
  7 13  1  0
  8 10  1  0
  8 12  2  0
  8 13  1  0
  9 14  2  0
  9 20  1  0
 10 15  2  0
 10 21  1  0
 11 16  1  0
 12 17  1  0
 14 18  1  0
 14 24  1  0
 15 19  1  0
 15 25  1  0
 16 18  2  0
 16 22  1  0
 17 19  2  0
 17 23  1  0
 20 26  2  0
 21 27  2  0
 24 28  2  0
 25 29  2  0
 26 28  1  0
 27 29  1  0
 30 35  1  0
 30 42  1  0
 31 33  1  0
 31 37  1  0
 31 41  1  0
 32 33  2  0
 32 38  1  0
 33 34  1  0
 34 36  2  0
 35 36  1  0
 35 40  2  0
 37 39  1  0
 38 39  1  0
 40 43  1  0
 42 43  2  0
  1 44  1  0
  2 45  1  0
  5 46  1  0
  6 47  1  0
 13 48  1  0
 13 49  1  0
 18 50  1  0
 19 51  1  0
 20 52  1  0
 21 53  1  0
 24 54  1  0
 25 55  1  0
 26 56  1  0
 27 57  1  0
 28 58  1  0
 29 59  1  0
 34 60  1  0
 36 61  1  0
 37 62  1  0
 37 63  1  0
 38 64  1  0
 38 65  1  0
 39 66  1  0
 39 67  1  0
 40 68  1  0
 41 69  1  0
 41 70  1  0
 41 71  1  0
 42 72  1  0
 43 73  1  0
M  END
> <Uni-Dock RESULT> 
ENERGY=   -5.492  LOWER_BOUND=    5.785  UPPER_BOUND=    8.777
INTER + INTRA:          -5.492
INTER:                  -5.492
INTRA:                   0.000
UNBOUND:                 0.000

$$$$

     RDKit          3D

 73 77  0  0  0  0  0  0  0  0999 V2000
   51.2656    7.6853   17.5636 O   0  0  0  0  0  0  0  0  0  0  0  0
   49.0224    8.4756   19.9162 O   0  0  0  0  0  0  0  0  0  0  0  0
   53.6632    7.2440   16.6043 O   0  0  0  0  0  0  0  0  0  0  0  0
   49.4900    7.4851   22.2997 O   0  0  0  0  0  0  0  0  0  0  0  0
   53.9913    7.4181   14.3977 O   0  0  0  0  0  0  0  0  0  0  0  0
   49.2298    5.2872   22.6292 O   0  0  0  0  0  0  0  0  0  0  0  0
   49.4934    8.0809   16.0156 C   0  0  0  0  0  0  0  0  0  0  0  0
   48.5171    6.9459   18.1570 C   0  0  0  0  0  0  0  0  0  0  0  0
   49.0630    8.3375   14.6701 C   0  0  0  0  0  0  0  0  0  0  0  0
   48.2104    5.6162   17.7255 C   0  0  0  0  0  0  0  0  0  0  0  0
   50.8627    7.8252   16.2580 C   0  0  0  0  0  0  0  0  0  0  0  0
   48.8161    7.1745   19.5187 C   0  0  0  0  0  0  0  0  0  0  0  0
   48.5150    8.1341   17.1930 C   0  0  0  0  0  0  0  0  0  0  0  0
   50.0115    8.2419   13.6169 C   0  0  0  0  0  0  0  0  0  0  0  0
   48.2860    4.5537   18.6640 C   0  0  0  0  0  0  0  0  0  0  0  0
   51.7844    7.7388   15.2053 C   0  0  0  0  0  0  0  0  0  0  0  0
   48.8861    6.1144   20.4330 C   0  0  0  0  0  0  0  0  0  0  0  0
   51.3483    7.9347   13.8940 C   0  0  0  0  0  0  0  0  0  0  0  0
   48.6307    4.8126   19.9962 C   0  0  0  0  0  0  0  0  0  0  0  0
   47.7400    8.6878   14.2950 C   0  0  0  0  0  0  0  0  0  0  0  0
   47.8203    5.2744   16.4088 C   0  0  0  0  0  0  0  0  0  0  0  0
   53.2087    7.4453   15.4899 C   0  0  0  0  0  0  0  0  0  0  0  0
   49.2289    6.3814   21.8492 C   0  0  0  0  0  0  0  0  0  0  0  0
   49.6261    8.4601   12.2831 C   0  0  0  0  0  0  0  0  0  0  0  0
   48.0112    3.2330   18.2691 C   0  0  0  0  0  0  0  0  0  0  0  0
   47.3710    8.9066   12.9640 C   0  0  0  0  0  0  0  0  0  0  0  0
   47.5470    3.9573   16.0289 C   0  0  0  0  0  0  0  0  0  0  0  0
   48.3139    8.7879   11.9564 C   0  0  0  0  0  0  0  0  0  0  0  0
   47.6472    2.9348   16.9589 C   0  0  0  0  0  0  0  0  0  0  0  0
   50.6884    8.5167   13.6341 S   0  0  0  0  0  0  0  0  0  0  0  0
   47.8235    5.3981   17.0889 N   0  0  0  0  0  0  0  0  0  0  0  0
   49.1643    6.7477   18.5124 N   0  0  0  0  0  0  0  0  0  0  0  0
   48.7796    6.3821   17.3280 C   0  0  0  0  0  0  0  0  0  0  0  0
   49.3974    7.1307   16.1804 C   0  0  0  0  0  0  0  0  0  0  0  0
   51.2836    8.3910   15.2486 C   0  0  0  0  0  0  0  0  0  0  0  0
   50.6227    7.6665   16.2880 C   0  0  0  0  0  0  0  0  0  0  0  0
   47.2499    4.6663   18.2113 C   0  0  0  0  0  0  0  0  0  0  0  0
   48.6063    6.0764   19.6817 C   0  0  0  0  0  0  0  0  0  0  0  0
   47.2044    5.5657   19.4276 C   0  0  0  0  0  0  0  0  0  0  0  0
   52.4841    9.0784   15.3600 C   0  0  0  0  0  0  0  0  0  0  0  0
   47.7030    4.7410   15.7936 C   0  0  0  0  0  0  0  0  0  0  0  0
   52.0072    9.4736   13.1278 C   0  0  0  0  0  0  0  0  0  0  0  0
   52.8989    9.7013   14.1479 C   0  0  0  0  0  0  0  0  0  0  0  0
   52.2228    7.4765   17.5996 H   0  0  0  0  0  0  0  0  0  0  0  0
   49.2993    8.4910   20.8570 H   0  0  0  0  0  0  0  0  0  0  0  0
   54.8870    7.2185   14.7430 H   0  0  0  0  0  0  0  0  0  0  0  0
   49.4739    5.6207   23.5180 H   0  0  0  0  0  0  0  0  0  0  0  0
   47.4766    8.2269   16.8674 H   0  0  0  0  0  0  0  0  0  0  0  0
   48.7218    9.0785   17.7091 H   0  0  0  0  0  0  0  0  0  0  0  0
   52.0621    7.8650   13.0754 H   0  0  0  0  0  0  0  0  0  0  0  0
   48.6878    3.9877   20.7037 H   0  0  0  0  0  0  0  0  0  0  0  0
   46.9553    8.8081   15.0361 H   0  0  0  0  0  0  0  0  0  0  0  0
   47.7127    6.0366   15.6445 H   0  0  0  0  0  0  0  0  0  0  0  0
   50.3547    8.3813   11.4780 H   0  0  0  0  0  0  0  0  0  0  0  0
   48.0762    2.4177   18.9872 H   0  0  0  0  0  0  0  0  0  0  0  0
   46.3449    9.1724   12.7228 H   0  0  0  0  0  0  0  0  0  0  0  0
   47.2566    3.7390   15.0045 H   0  0  0  0  0  0  0  0  0  0  0  0
   48.0338    8.9566   10.9203 H   0  0  0  0  0  0  0  0  0  0  0  0
   47.4379    1.9086   16.6698 H   0  0  0  0  0  0  0  0  0  0  0  0
   48.7951    7.2089   15.2869 H   0  0  0  0  0  0  0  0  0  0  0  0
   51.1604    7.5603   17.2287 H   0  0  0  0  0  0  0  0  0  0  0  0
   46.2324    4.3361   17.9717 H   0  0  0  0  0  0  0  0  0  0  0  0
   47.8514    3.7719   18.4148 H   0  0  0  0  0  0  0  0  0  0  0  0
   49.2728    5.2587   19.9803 H   0  0  0  0  0  0  0  0  0  0  0  0
   48.5824    6.7879   20.5143 H   0  0  0  0  0  0  0  0  0  0  0  0
   46.8312    5.0169   20.2985 H   0  0  0  0  0  0  0  0  0  0  0  0
   46.5249    6.4084   19.2493 H   0  0  0  0  0  0  0  0  0  0  0  0
   53.0437    9.1353   16.2867 H   0  0  0  0  0  0  0  0  0  0  0  0
   48.6592    4.2968   15.4979 H   0  0  0  0  0  0  0  0  0  0  0  0
   46.9560    3.9398   15.8139 H   0  0  0  0  0  0  0  0  0  0  0  0
   47.3844    5.4517   15.0251 H   0  0  0  0  0  0  0  0  0  0  0  0
   52.0659    9.8230   12.1063 H   0  0  0  0  0  0  0  0  0  0  0  0
   53.8036   10.2857   14.0334 H   0  0  0  0  0  0  0  0  0  0  0  0
  1 11  1  0
  2 12  1  0
  3 22  2  0
  4 23  2  0
  5 22  1  0
  6 23  1  0
  7  9  1  0
  7 11  2  0
  7 13  1  0
  8 10  1  0
  8 12  2  0
  8 13  1  0
  9 14  2  0
  9 20  1  0
 10 15  2  0
 10 21  1  0
 11 16  1  0
 12 17  1  0
 14 18  1  0
 14 24  1  0
 15 19  1  0
 15 25  1  0
 16 18  2  0
 16 22  1  0
 17 19  2  0
 17 23  1  0
 20 26  2  0
 21 27  2  0
 24 28  2  0
 25 29  2  0
 26 28  1  0
 27 29  1  0
 30 35  1  0
 30 42  1  0
 31 33  1  0
 31 37  1  0
 31 41  1  0
 32 33  2  0
 32 38  1  0
 33 34  1  0
 34 36  2  0
 35 36  1  0
 35 40  2  0
 37 39  1  0
 38 39  1  0
 40 43  1  0
 42 43  2  0
  1 44  1  0
  2 45  1  0
  5 46  1  0
  6 47  1  0
 13 48  1  0
 13 49  1  0
 18 50  1  0
 19 51  1  0
 20 52  1  0
 21 53  1  0
 24 54  1  0
 25 55  1  0
 26 56  1  0
 27 57  1  0
 28 58  1  0
 29 59  1  0
 34 60  1  0
 36 61  1  0
 37 62  1  0
 37 63  1  0
 38 64  1  0
 38 65  1  0
 39 66  1  0
 39 67  1  0
 40 68  1  0
 41 69  1  0
 41 70  1  0
 41 71  1  0
 42 72  1  0
 43 73  1  0
M  END
> <Uni-Dock RESULT> 
ENERGY=   -5.475  LOWER_BOUND=    3.324  UPPER_BOUND=    5.110
INTER + INTRA:          -5.475
INTER:                  -5.475
INTRA:                   0.000
UNBOUND:                 0.000

$$$$

     RDKit          3D

 73 77  0  0  0  0  0  0  0  0999 V2000
   48.0274    7.9558   15.6678 O   0  0  0  0  0  0  0  0  0  0  0  0
   49.8324    6.8449   18.2561 O   0  0  0  0  0  0  0  0  0  0  0  0
   46.3453    7.7537   13.6695 O   0  0  0  0  0  0  0  0  0  0  0  0
   48.6274    5.1092   19.8103 O   0  0  0  0  0  0  0  0  0  0  0  0
   46.4176    9.2849   12.0393 O   0  0  0  0  0  0  0  0  0  0  0  0
   46.9600    5.8100   21.1279 O   0  0  0  0  0  0  0  0  0  0  0  0
   49.4476    9.8714   15.7492 C   0  0  0  0  0  0  0  0  0  0  0  0
   48.9634    9.0653   18.1869 C   0  0  0  0  0  0  0  0  0  0  0  0
   49.9756   11.0455   15.1133 C   0  0  0  0  0  0  0  0  0  0  0  0
   48.0738   10.0609   18.7023 C   0  0  0  0  0  0  0  0  0  0  0  0
   48.4419    9.1298   15.0877 C   0  0  0  0  0  0  0  0  0  0  0  0
   48.9069    7.7551   18.7124 C   0  0  0  0  0  0  0  0  0  0  0  0
   49.9883    9.3781   17.0948 C   0  0  0  0  0  0  0  0  0  0  0  0
   49.4107   11.4704   13.8810 C   0  0  0  0  0  0  0  0  0  0  0  0
   47.1110    9.6856   19.6758 C   0  0  0  0  0  0  0  0  0  0  0  0
   47.8998    9.5634   13.8699 C   0  0  0  0  0  0  0  0  0  0  0  0
   47.9506    7.4008   19.6740 C   0  0  0  0  0  0  0  0  0  0  0  0
   48.3796   10.7361   13.2845 C   0  0  0  0  0  0  0  0  0  0  0  0
   47.0547    8.3657   20.1398 C   0  0  0  0  0  0  0  0  0  0  0  0
   51.0393   11.8345   15.6228 C   0  0  0  0  0  0  0  0  0  0  0  0
   48.0874   11.4216   18.3138 C   0  0  0  0  0  0  0  0  0  0  0  0
   46.8295    8.7767   13.2133 C   0  0  0  0  0  0  0  0  0  0  0  0
   47.8976    6.0120   20.1866 C   0  0  0  0  0  0  0  0  0  0  0  0
   49.8808   12.6286   13.2385 C   0  0  0  0  0  0  0  0  0  0  0  0
   46.2085   10.6336   20.1881 C   0  0  0  0  0  0  0  0  0  0  0  0
   51.5003   12.9825   14.9707 C   0  0  0  0  0  0  0  0  0  0  0  0
   47.1861   12.3556   18.8326 C   0  0  0  0  0  0  0  0  0  0  0  0
   50.9173   13.3827   13.7797 C   0  0  0  0  0  0  0  0  0  0  0  0
   46.2425   11.9601   19.7673 C   0  0  0  0  0  0  0  0  0  0  0  0
   49.2473   11.0321   13.3197 S   0  0  0  0  0  0  0  0  0  0  0  0
   48.1505   10.8326   18.6701 N   0  0  0  0  0  0  0  0  0  0  0  0
   48.4119    8.5530   18.0533 N   0  0  0  0  0  0  0  0  0  0  0  0
   48.3960    9.8151   17.7513 C   0  0  0  0  0  0  0  0  0  0  0  0
   48.7162   10.1488   16.3212 C   0  0  0  0  0  0  0  0  0  0  0  0
   48.7179    9.5165   13.9518 C   0  0  0  0  0  0  0  0  0  0  0  0
   48.4478    9.2799   15.3350 C   0  0  0  0  0  0  0  0  0  0  0  0
   47.8202   10.4916   20.0480 C   0  0  0  0  0  0  0  0  0  0  0  0
   48.1196    8.1443   19.4232 C   0  0  0  0  0  0  0  0  0  0  0  0
   48.5174    9.2034   20.4285 C   0  0  0  0  0  0  0  0  0  0  0  0
   48.5875    8.5983   12.9192 C   0  0  0  0  0  0  0  0  0  0  0  0
   47.7507   12.1694   18.2491 C   0  0  0  0  0  0  0  0  0  0  0  0
   49.3028   10.4457   11.7184 C   0  0  0  0  0  0  0  0  0  0  0  0
   48.9244    9.1272   11.6402 C   0  0  0  0  0  0  0  0  0  0  0  0
   47.3068    7.5548   15.1376 H   0  0  0  0  0  0  0  0  0  0  0  0
   49.6365    5.9610   18.6332 H   0  0  0  0  0  0  0  0  0  0  0  0
   45.7233    8.6637   11.7336 H   0  0  0  0  0  0  0  0  0  0  0  0
   47.0460    4.8613   21.3590 H   0  0  0  0  0  0  0  0  0  0  0  0
   50.6759   10.0918   17.5540 H   0  0  0  0  0  0  0  0  0  0  0  0
   50.6154    8.5097   16.8630 H   0  0  0  0  0  0  0  0  0  0  0  0
   47.9577   11.0758   12.3405 H   0  0  0  0  0  0  0  0  0  0  0  0
   46.3092    8.0919   20.8839 H   0  0  0  0  0  0  0  0  0  0  0  0
   51.5473   11.5706   16.5456 H   0  0  0  0  0  0  0  0  0  0  0  0
   48.8134   11.7884   17.5961 H   0  0  0  0  0  0  0  0  0  0  0  0
   49.4423   12.9540   12.2967 H   0  0  0  0  0  0  0  0  0  0  0  0
   45.4659   10.3439   20.9292 H   0  0  0  0  0  0  0  0  0  0  0  0
   52.3179   13.5572   15.3984 H   0  0  0  0  0  0  0  0  0  0  0  0
   47.2282   13.3898   18.5010 H   0  0  0  0  0  0  0  0  0  0  0  0
   51.2708   14.2736   13.2680 H   0  0  0  0  0  0  0  0  0  0  0  0
   45.5379   12.6807   20.1732 H   0  0  0  0  0  0  0  0  0  0  0  0
   49.1724   11.1132   16.1507 H   0  0  0  0  0  0  0  0  0  0  0  0
   48.0031    8.3192   15.5893 H   0  0  0  0  0  0  0  0  0  0  0  0
   48.1449   11.2887   20.7269 H   0  0  0  0  0  0  0  0  0  0  0  0
   46.7332   10.3875   20.1520 H   0  0  0  0  0  0  0  0  0  0  0  0
   47.0531    7.9045   19.5082 H   0  0  0  0  0  0  0  0  0  0  0  0
   48.6712    7.2225   19.6376 H   0  0  0  0  0  0  0  0  0  0  0  0
   48.2355    8.8977   21.4414 H   0  0  0  0  0  0  0  0  0  0  0  0
   49.6054    9.3442   20.4143 H   0  0  0  0  0  0  0  0  0  0  0  0
   48.2645    7.5761   13.0805 H   0  0  0  0  0  0  0  0  0  0  0  0
   46.8558   12.1223   17.6199 H   0  0  0  0  0  0  0  0  0  0  0  0
   47.5214   12.8122   19.1062 H   0  0  0  0  0  0  0  0  0  0  0  0
   48.5556   12.6588   17.6924 H   0  0  0  0  0  0  0  0  0  0  0  0
   49.6095   11.0958   10.9108 H   0  0  0  0  0  0  0  0  0  0  0  0
   48.8911    8.5675   10.7135 H   0  0  0  0  0  0  0  0  0  0  0  0
  1 11  1  0
  2 12  1  0
  3 22  2  0
  4 23  2  0
  5 22  1  0
  6 23  1  0
  7  9  1  0
  7 11  2  0
  7 13  1  0
  8 10  1  0
  8 12  2  0
  8 13  1  0
  9 14  2  0
  9 20  1  0
 10 15  2  0
 10 21  1  0
 11 16  1  0
 12 17  1  0
 14 18  1  0
 14 24  1  0
 15 19  1  0
 15 25  1  0
 16 18  2  0
 16 22  1  0
 17 19  2  0
 17 23  1  0
 20 26  2  0
 21 27  2  0
 24 28  2  0
 25 29  2  0
 26 28  1  0
 27 29  1  0
 30 35  1  0
 30 42  1  0
 31 33  1  0
 31 37  1  0
 31 41  1  0
 32 33  2  0
 32 38  1  0
 33 34  1  0
 34 36  2  0
 35 36  1  0
 35 40  2  0
 37 39  1  0
 38 39  1  0
 40 43  1  0
 42 43  2  0
  1 44  1  0
  2 45  1  0
  5 46  1  0
  6 47  1  0
 13 48  1  0
 13 49  1  0
 18 50  1  0
 19 51  1  0
 20 52  1  0
 21 53  1  0
 24 54  1  0
 25 55  1  0
 26 56  1  0
 27 57  1  0
 28 58  1  0
 29 59  1  0
 34 60  1  0
 36 61  1  0
 37 62  1  0
 37 63  1  0
 38 64  1  0
 38 65  1  0
 39 66  1  0
 39 67  1  0
 40 68  1  0
 41 69  1  0
 41 70  1  0
 41 71  1  0
 42 72  1  0
 43 73  1  0
M  END
> <Uni-Dock RESULT> 
ENERGY=   -5.411  LOWER_BOUND=    4.206  UPPER_BOUND=    7.219
INTER + INTRA:          -5.411
INTER:                  -5.411
INTRA:                   0.000
UNBOUND:                 0.000

$$$$

     RDKit          3D

 73 77  0  0  0  0  0  0  0  0999 V2000
   48.1716    9.5854   16.7219 O   0  0  0  0  0  0  0  0  0  0  0  0
   49.6199   10.2974   13.7917 O   0  0  0  0  0  0  0  0  0  0  0  0
   46.7662   10.0900   18.8745 O   0  0  0  0  0  0  0  0  0  0  0  0
   48.2193   11.8225   12.1815 O   0  0  0  0  0  0  0  0  0  0  0  0
   47.0536    8.7974   20.6784 O   0  0  0  0  0  0  0  0  0  0  0  0
   46.3941   10.9753   11.2025 O   0  0  0  0  0  0  0  0  0  0  0  0
   49.5710    7.6527   16.7235 C   0  0  0  0  0  0  0  0  0  0  0  0
   48.7699    8.1230   14.2814 C   0  0  0  0  0  0  0  0  0  0  0  0
   50.1792    6.5687   17.4423 C   0  0  0  0  0  0  0  0  0  0  0  0
   47.8215    7.0813   14.0296 C   0  0  0  0  0  0  0  0  0  0  0  0
   48.6600    8.4957   17.4007 C   0  0  0  0  0  0  0  0  0  0  0  0
   48.6435    9.3490   13.5907 C   0  0  0  0  0  0  0  0  0  0  0  0
   49.9298    7.9463   15.2636 C   0  0  0  0  0  0  0  0  0  0  0  0
   49.7814    6.3276   18.7846 C   0  0  0  0  0  0  0  0  0  0  0  0
   46.7388    7.3351   13.1471 C   0  0  0  0  0  0  0  0  0  0  0  0
   48.2830    8.2436   18.7271 C   0  0  0  0  0  0  0  0  0  0  0  0
   47.5688    9.5836   12.7219 C   0  0  0  0  0  0  0  0  0  0  0  0
   48.8367    7.1548   19.4023 C   0  0  0  0  0  0  0  0  0  0  0  0
   46.6206    8.5792   12.5155 C   0  0  0  0  0  0  0  0  0  0  0  0
   51.1677    5.6988   16.9133 C   0  0  0  0  0  0  0  0  0  0  0  0
   47.8875    5.7871   14.5984 C   0  0  0  0  0  0  0  0  0  0  0  0
   47.3072    9.1316   19.4016 C   0  0  0  0  0  0  0  0  0  0  0  0
   47.4474   10.8891   12.0326 C   0  0  0  0  0  0  0  0  0  0  0  0
   50.3331    5.2613   19.5152 C   0  0  0  0  0  0  0  0  0  0  0  0
   45.7779    6.3412   12.8935 C   0  0  0  0  0  0  0  0  0  0  0  0
   51.7116    4.6441   17.6531 C   0  0  0  0  0  0  0  0  0  0  0  0
   46.9270    4.8061   14.3363 C   0  0  0  0  0  0  0  0  0  0  0  0
   51.2904    4.4220   18.9537 C   0  0  0  0  0  0  0  0  0  0  0  0
   45.8683    5.0850   13.4866 C   0  0  0  0  0  0  0  0  0  0  0  0
   49.6927    6.8420   19.2959 S   0  0  0  0  0  0  0  0  0  0  0  0
   47.9027    6.3202   14.1586 N   0  0  0  0  0  0  0  0  0  0  0  0
   48.2402    8.6583   14.4131 N   0  0  0  0  0  0  0  0  0  0  0  0
   48.2655    7.4503   14.8871 C   0  0  0  0  0  0  0  0  0  0  0  0
   48.7711    7.3117   16.2957 C   0  0  0  0  0  0  0  0  0  0  0  0
   49.0832    8.2647   18.5337 C   0  0  0  0  0  0  0  0  0  0  0  0
   48.6336    8.3128   17.1781 C   0  0  0  0  0  0  0  0  0  0  0  0
   47.3938    6.4735   12.8014 C   0  0  0  0  0  0  0  0  0  0  0  0
   47.7702    8.8790   13.0495 C   0  0  0  0  0  0  0  0  0  0  0  0
   48.0337    7.6846   12.1581 C   0  0  0  0  0  0  0  0  0  0  0  0
   49.0885    9.3186   19.4366 C   0  0  0  0  0  0  0  0  0  0  0  0
   47.5630    5.0613   14.8097 C   0  0  0  0  0  0  0  0  0  0  0  0
   49.9573    7.6426   20.7792 C   0  0  0  0  0  0  0  0  0  0  0  0
   49.5910    8.9656   20.7220 C   0  0  0  0  0  0  0  0  0  0  0  0
   47.5265   10.0680   17.2805 H   0  0  0  0  0  0  0  0  0  0  0  0
   49.3752   11.1241   13.3241 H   0  0  0  0  0  0  0  0  0  0  0  0
   46.4048    9.4666   20.9826 H   0  0  0  0  0  0  0  0  0  0  0  0
   46.4479   11.8815   10.8326 H   0  0  0  0  0  0  0  0  0  0  0  0
   50.5518    7.1644   14.8225 H   0  0  0  0  0  0  0  0  0  0  0  0
   50.5809    8.8275   15.2887 H   0  0  0  0  0  0  0  0  0  0  0  0
   48.5428    6.9559   20.4312 H   0  0  0  0  0  0  0  0  0  0  0  0
   45.7836    8.7605   11.8440 H   0  0  0  0  0  0  0  0  0  0  0  0
   51.5498    5.8241   15.9046 H   0  0  0  0  0  0  0  0  0  0  0  0
   48.7019    5.5105   15.2595 H   0  0  0  0  0  0  0  0  0  0  0  0
   50.0224    5.0765   20.5421 H   0  0  0  0  0  0  0  0  0  0  0  0
   44.9441    6.5385   12.2224 H   0  0  0  0  0  0  0  0  0  0  0  0
   52.4666    4.0018   17.2066 H   0  0  0  0  0  0  0  0  0  0  0  0
   47.0134    3.8269   14.8001 H   0  0  0  0  0  0  0  0  0  0  0  0
   51.7091    3.6043   19.5339 H   0  0  0  0  0  0  0  0  0  0  0  0
   45.1173    4.3275   13.2800 H   0  0  0  0  0  0  0  0  0  0  0  0
   49.2468    6.3723   16.5378 H   0  0  0  0  0  0  0  0  0  0  0  0
   48.1582    9.2367   16.8527 H   0  0  0  0  0  0  0  0  0  0  0  0
   47.6275    5.5848   12.2035 H   0  0  0  0  0  0  0  0  0  0  0  0
   46.3025    6.5808   12.8264 H   0  0  0  0  0  0  0  0  0  0  0  0
   46.7015    9.1230   13.0716 H   0  0  0  0  0  0  0  0  0  0  0  0
   48.2878    9.7528   12.6391 H   0  0  0  0  0  0  0  0  0  0  0  0
   47.6208    7.8525   11.1579 H   0  0  0  0  0  0  0  0  0  0  0  0
   49.1143    7.5285   12.0500 H   0  0  0  0  0  0  0  0  0  0  0  0
   48.7460   10.3142   19.1783 H   0  0  0  0  0  0  0  0  0  0  0  0
   46.7585    5.2101   15.5374 H   0  0  0  0  0  0  0  0  0  0  0  0
   47.2239    4.3104   14.0875 H   0  0  0  0  0  0  0  0  0  0  0  0
   48.4346    4.6396   15.3195 H   0  0  0  0  0  0  0  0  0  0  0  0
   50.3681    7.1049   21.6225 H   0  0  0  0  0  0  0  0  0  0  0  0
   49.6791    9.6482   21.5582 H   0  0  0  0  0  0  0  0  0  0  0  0
  1 11  1  0
  2 12  1  0
  3 22  2  0
  4 23  2  0
  5 22  1  0
  6 23  1  0
  7  9  1  0
  7 11  2  0
  7 13  1  0
  8 10  1  0
  8 12  2  0
  8 13  1  0
  9 14  2  0
  9 20  1  0
 10 15  2  0
 10 21  1  0
 11 16  1  0
 12 17  1  0
 14 18  1  0
 14 24  1  0
 15 19  1  0
 15 25  1  0
 16 18  2  0
 16 22  1  0
 17 19  2  0
 17 23  1  0
 20 26  2  0
 21 27  2  0
 24 28  2  0
 25 29  2  0
 26 28  1  0
 27 29  1  0
 30 35  1  0
 30 42  1  0
 31 33  1  0
 31 37  1  0
 31 41  1  0
 32 33  2  0
 32 38  1  0
 33 34  1  0
 34 36  2  0
 35 36  1  0
 35 40  2  0
 37 39  1  0
 38 39  1  0
 40 43  1  0
 42 43  2  0
  1 44  1  0
  2 45  1  0
  5 46  1  0
  6 47  1  0
 13 48  1  0
 13 49  1  0
 18 50  1  0
 19 51  1  0
 20 52  1  0
 21 53  1  0
 24 54  1  0
 25 55  1  0
 26 56  1  0
 27 57  1  0
 28 58  1  0
 29 59  1  0
 34 60  1  0
 36 61  1  0
 37 62  1  0
 37 63  1  0
 38 64  1  0
 38 65  1  0
 39 66  1  0
 39 67  1  0
 40 68  1  0
 41 69  1  0
 41 70  1  0
 41 71  1  0
 42 72  1  0
 43 73  1  0
M  END
> <Uni-Dock RESULT> 
ENERGY=   -5.383  LOWER_BOUND=    3.486  UPPER_BOUND=    5.834
INTER + INTRA:          -5.383
INTER:                  -5.383
INTRA:                   0.000
UNBOUND:                 0.000

$$$$

     RDKit          3D

 73 77  0  0  0  0  0  0  0  0999 V2000
   49.2136   11.7194    9.2461 O   0  0  0  0  0  0  0  0  0  0  0  0
   51.6126   11.0867   11.4901 O   0  0  0  0  0  0  0  0  0  0  0  0
   48.2123   12.0226    6.8443 O   0  0  0  0  0  0  0  0  0  0  0  0
   53.2654    9.1500   10.8597 O   0  0  0  0  0  0  0  0  0  0  0  0
   46.3512   13.2404    6.5970 O   0  0  0  0  0  0  0  0  0  0  0  0
   52.5227    7.0393   10.8903 O   0  0  0  0  0  0  0  0  0  0  0  0
   47.9919   12.6112   11.0915 C   0  0  0  0  0  0  0  0  0  0  0  0
   49.3315   10.5147   11.8895 C   0  0  0  0  0  0  0  0  0  0  0  0
   46.9136   13.4221   11.5829 C   0  0  0  0  0  0  0  0  0  0  0  0
   48.3215    9.5177   12.0742 C   0  0  0  0  0  0  0  0  0  0  0  0
   48.1165   12.4118    9.6973 C   0  0  0  0  0  0  0  0  0  0  0  0
   50.6481   10.1091   11.5768 C   0  0  0  0  0  0  0  0  0  0  0  0
   49.0355   12.0086   12.0370 C   0  0  0  0  0  0  0  0  0  0  0  0
   45.9592   13.9264   10.6593 C   0  0  0  0  0  0  0  0  0  0  0  0
   48.6552    8.1535   11.8670 C   0  0  0  0  0  0  0  0  0  0  0  0
   47.1663   12.9212    8.8014 C   0  0  0  0  0  0  0  0  0  0  0  0
   50.9616    8.7578   11.3760 C   0  0  0  0  0  0  0  0  0  0  0  0
   46.0898   13.6622    9.2914 C   0  0  0  0  0  0  0  0  0  0  0  0
   49.9611    7.7930   11.5126 C   0  0  0  0  0  0  0  0  0  0  0  0
   46.7171   13.7713   12.9442 C   0  0  0  0  0  0  0  0  0  0  0  0
   46.9896    9.7936   12.4651 C   0  0  0  0  0  0  0  0  0  0  0  0
   47.3117   12.6745    7.3475 C   0  0  0  0  0  0  0  0  0  0  0  0
   52.3453    8.3649   11.0220 C   0  0  0  0  0  0  0  0  0  0  0  0
   44.8743   14.7026   11.1017 C   0  0  0  0  0  0  0  0  0  0  0  0
   47.6825    7.1505   12.0198 C   0  0  0  0  0  0  0  0  0  0  0  0
   45.6352   14.5483   13.3702 C   0  0  0  0  0  0  0  0  0  0  0  0
   46.0318    8.7869   12.6163 C   0  0  0  0  0  0  0  0  0  0  0  0
   44.7102   15.0105   12.4487 C   0  0  0  0  0  0  0  0  0  0  0  0
   46.3774    7.4643   12.3888 C   0  0  0  0  0  0  0  0  0  0  0  0
   46.1178   14.2281   10.0130 S   0  0  0  0  0  0  0  0  0  0  0  0
   47.6485    9.5846   12.4551 N   0  0  0  0  0  0  0  0  0  0  0  0
   49.5670   10.2399   11.2162 N   0  0  0  0  0  0  0  0  0  0  0  0
   48.3411   10.4337   11.5955 C   0  0  0  0  0  0  0  0  0  0  0  0
   47.6909   11.6900   11.0877 C   0  0  0  0  0  0  0  0  0  0  0  0
   47.4987   13.4232    9.3633 C   0  0  0  0  0  0  0  0  0  0  0  0
   48.0635   12.2341    9.9194 C   0  0  0  0  0  0  0  0  0  0  0  0
   48.2852    8.3593   12.9214 C   0  0  0  0  0  0  0  0  0  0  0  0
   50.2739    9.0473   11.6716 C   0  0  0  0  0  0  0  0  0  0  0  0
   49.7796    8.5759   13.0222 C   0  0  0  0  0  0  0  0  0  0  0  0
   47.9450   14.0961    8.2346 C   0  0  0  0  0  0  0  0  0  0  0  0
   46.1939    9.6009   12.5458 C   0  0  0  0  0  0  0  0  0  0  0  0
   46.1471   15.4385    8.8108 C   0  0  0  0  0  0  0  0  0  0  0  0
   47.1746   15.2517    7.9180 C   0  0  0  0  0  0  0  0  0  0  0  0
   49.1687   11.6159    8.2723 H   0  0  0  0  0  0  0  0  0  0  0  0
   52.4571   10.6884   11.1899 H   0  0  0  0  0  0  0  0  0  0  0  0
   46.5827   12.9942    5.6766 H   0  0  0  0  0  0  0  0  0  0  0  0
   53.4694    6.9414   10.6559 H   0  0  0  0  0  0  0  0  0  0  0  0
   48.7684   12.1373   13.0882 H   0  0  0  0  0  0  0  0  0  0  0  0
   49.9379   12.6176   11.9110 H   0  0  0  0  0  0  0  0  0  0  0  0
   45.3496   14.0559    8.5974 H   0  0  0  0  0  0  0  0  0  0  0  0
   50.2015    6.7435   11.3538 H   0  0  0  0  0  0  0  0  0  0  0  0
   47.4108   13.4512   13.7158 H   0  0  0  0  0  0  0  0  0  0  0  0
   46.6685   10.8094   12.6694 H   0  0  0  0  0  0  0  0  0  0  0  0
   44.1421   15.0834   10.3917 H   0  0  0  0  0  0  0  0  0  0  0  0
   47.9370    6.1054   11.8538 H   0  0  0  0  0  0  0  0  0  0  0  0
   45.5239   14.7908   14.4240 H   0  0  0  0  0  0  0  0  0  0  0  0
   45.0182    9.0447   12.9121 H   0  0  0  0  0  0  0  0  0  0  0  0
   43.8674   15.6147   12.7731 H   0  0  0  0  0  0  0  0  0  0  0  0
   45.6373    6.6771   12.5028 H   0  0  0  0  0  0  0  0  0  0  0  0
   46.9247   12.1155   11.7196 H   0  0  0  0  0  0  0  0  0  0  0  0
   48.8569   11.7555    9.3476 H   0  0  0  0  0  0  0  0  0  0  0  0
   47.8966    8.0784   13.9072 H   0  0  0  0  0  0  0  0  0  0  0  0
   48.0598    7.5395   12.2283 H   0  0  0  0  0  0  0  0  0  0  0  0
   50.1698    8.2570   10.9188 H   0  0  0  0  0  0  0  0  0  0  0  0
   51.3418    9.2805   11.7430 H   0  0  0  0  0  0  0  0  0  0  0  0
   50.2841    7.6490   13.3144 H   0  0  0  0  0  0  0  0  0  0  0  0
   50.0013    9.3306   13.7870 H   0  0  0  0  0  0  0  0  0  0  0  0
   48.8028   13.7695    7.6577 H   0  0  0  0  0  0  0  0  0  0  0  0
   45.7459    9.4457   11.5588 H   0  0  0  0  0  0  0  0  0  0  0  0
   45.8206    8.8122   13.2085 H   0  0  0  0  0  0  0  0  0  0  0  0
   45.8404   10.5521   12.9550 H   0  0  0  0  0  0  0  0  0  0  0  0
   45.4093   16.2288    8.8158 H   0  0  0  0  0  0  0  0  0  0  0  0
   47.3667   15.9100    7.0796 H   0  0  0  0  0  0  0  0  0  0  0  0
  1 11  1  0
  2 12  1  0
  3 22  2  0
  4 23  2  0
  5 22  1  0
  6 23  1  0
  7  9  1  0
  7 11  2  0
  7 13  1  0
  8 10  1  0
  8 12  2  0
  8 13  1  0
  9 14  2  0
  9 20  1  0
 10 15  2  0
 10 21  1  0
 11 16  1  0
 12 17  1  0
 14 18  1  0
 14 24  1  0
 15 19  1  0
 15 25  1  0
 16 18  2  0
 16 22  1  0
 17 19  2  0
 17 23  1  0
 20 26  2  0
 21 27  2  0
 24 28  2  0
 25 29  2  0
 26 28  1  0
 27 29  1  0
 30 35  1  0
 30 42  1  0
 31 33  1  0
 31 37  1  0
 31 41  1  0
 32 33  2  0
 32 38  1  0
 33 34  1  0
 34 36  2  0
 35 36  1  0
 35 40  2  0
 37 39  1  0
 38 39  1  0
 40 43  1  0
 42 43  2  0
  1 44  1  0
  2 45  1  0
  5 46  1  0
  6 47  1  0
 13 48  1  0
 13 49  1  0
 18 50  1  0
 19 51  1  0
 20 52  1  0
 21 53  1  0
 24 54  1  0
 25 55  1  0
 26 56  1  0
 27 57  1  0
 28 58  1  0
 29 59  1  0
 34 60  1  0
 36 61  1  0
 37 62  1  0
 37 63  1  0
 38 64  1  0
 38 65  1  0
 39 66  1  0
 39 67  1  0
 40 68  1  0
 41 69  1  0
 41 70  1  0
 41 71  1  0
 42 72  1  0
 43 73  1  0
M  END
> <Uni-Dock RESULT> 
ENERGY=   -5.274  LOWER_BOUND=    7.839  UPPER_BOUND=   11.530
INTER + INTRA:          -5.274
INTER:                  -5.274
INTRA:                   0.000
UNBOUND:                 0.000

$$$$
