
     RDKit          3D

 93 90  0  0  0  0  0  0  0  0999 V2000
   44.3430    4.3532   11.3414 O   0  0  0  0  0  0  0  0  0  0  0  0
   43.9641    4.6121   10.9329 C   0  0  0  0  0  0  0  0  0  0  0  0
   44.7961    5.8847   11.1176 C   0  0  0  0  0  0  0  0  0  0  0  0
   43.9374    4.1420    9.4750 C   0  0  0  0  0  0  0  0  0  0  0  0
   44.5249    3.4680   11.7971 C   0  0  0  0  0  0  0  0  0  0  0  0
   45.2884    3.7416    8.9618 C   0  0  0  0  0  0  0  0  0  0  0  0
   44.5951    6.5498   12.4503 C   0  0  0  0  0  0  0  0  0  0  0  0
   45.6883    3.1218   11.9079 O   0  0  0  0  0  0  0  0  0  0  0  0
   44.4998    7.7524   12.6378 O   0  0  0  0  0  0  0  0  0  0  0  0
   46.2106    4.4951    8.7025 O   0  0  0  0  0  0  0  0  0  0  0  0
   42.5949    4.9099   11.2683 O   0  0  0  0  0  0  0  0  0  0  0  0
   43.5381    2.7995   12.4415 O   0  0  0  0  0  0  0  0  0  0  0  0
   44.6187    5.7094   13.4995 O   0  0  0  0  0  0  0  0  0  0  0  0
   45.4177    2.4105    8.8223 O   0  0  0  0  0  0  0  0  0  0  0  0
   43.9369    4.3528   12.3781 N   0  0  0  0  0  0  0  0  0  0  0  0
   45.0687    4.6711    9.6487 N   0  0  0  0  0  0  0  0  0  0  0  0
   45.0631    5.2596   12.0947 C   0  0  0  0  0  0  0  0  0  0  0  0
   45.0772    5.7647   10.6360 C   0  0  0  0  0  0  0  0  0  0  0  0
   43.9276    3.2590   11.3910 C   0  0  0  0  0  0  0  0  0  0  0  0
   43.9427    3.7639    9.9320 C   0  0  0  0  0  0  0  0  0  0  0  0
   44.2158    4.3968   11.0850 C   0  0  0  0  0  0  0  0  0  0  0  0
   45.5798    5.0843   10.9564 C   0  0  0  0  0  0  0  0  0  0  0  0
   44.2455    2.9068   10.7177 C   0  0  0  0  0  0  0  0  0  0  0  0
   43.7444    4.4728   12.5490 C   0  0  0  0  0  0  0  0  0  0  0  0
   44.7187    2.6456    9.3179 C   0  0  0  0  0  0  0  0  0  0  0  0
   45.6360    6.3990   11.6817 C   0  0  0  0  0  0  0  0  0  0  0  0
   44.1184    3.7681   13.4720 O   0  0  0  0  0  0  0  0  0  0  0  0
   46.3832    6.6849   12.6004 O   0  0  0  0  0  0  0  0  0  0  0  0
   45.7461    3.0591    8.8063 O   0  0  0  0  0  0  0  0  0  0  0  0
   43.2672    5.0286   10.2128 O   0  0  0  0  0  0  0  0  0  0  0  0
   42.8550    5.4660   12.7678 O   0  0  0  0  0  0  0  0  0  0  0  0
   44.7592    7.3021   11.2014 O   0  0  0  0  0  0  0  0  0  0  0  0
   43.9103    1.8091    8.6400 O   0  0  0  0  0  0  0  0  0  0  0  0
   43.9961    4.6425   12.4043 N   0  0  0  0  0  0  0  0  0  0  0  0
   45.0089    4.3814    9.6225 N   0  0  0  0  0  0  0  0  0  0  0  0
   44.9029    5.6352   11.8012 C   0  0  0  0  0  0  0  0  0  0  0  0
   44.7966    5.6918   10.2623 C   0  0  0  0  0  0  0  0  0  0  0  0
   44.2090    3.3321   11.7650 C   0  0  0  0  0  0  0  0  0  0  0  0
   44.1024    3.3886   10.2257 C   0  0  0  0  0  0  0  0  0  0  0  0
   43.5081    3.4079   11.0267 N   0  0  0  0  0  0  0  0  0  0  0  0
   45.4972    5.6158   11.0001 N   0  0  0  0  0  0  0  0  0  0  0  0
   43.8328    4.1883   12.2336 C   0  0  0  0  0  0  0  0  0  0  0  0
   44.3409    5.6107   11.9134 C   0  0  0  0  0  0  0  0  0  0  0  0
   44.6646    3.4137   10.1138 C   0  0  0  0  0  0  0  0  0  0  0  0
   45.1720    4.8361    9.7928 C   0  0  0  0  0  0  0  0  0  0  0  0
   44.7660    5.2193   11.2430 H   0  0  0  0  0  0  0  0  0  0  0  0
   44.3990    3.9634   10.4562 H   0  0  0  0  0  0  0  0  0  0  0  0
   45.8697    5.7018   11.0024 H   0  0  0  0  0  0  0  0  0  0  0  0
   44.4945    6.6223   10.3624 H   0  0  0  0  0  0  0  0  0  0  0  0
   43.2470    3.2957    9.3616 H   0  0  0  0  0  0  0  0  0  0  0  0
   43.5372    4.9201    8.8135 H   0  0  0  0  0  0  0  0  0  0  0  0
   42.2845    4.1580   11.8143 H   0  0  0  0  0  0  0  0  0  0  0  0
   44.0206    2.1183   12.9595 H   0  0  0  0  0  0  0  0  0  0  0  0
   44.5245    6.3087   14.2714 H   0  0  0  0  0  0  0  0  0  0  0  0
   46.3480    2.2843    8.5372 H   0  0  0  0  0  0  0  0  0  0  0  0
   43.0735    4.8847   12.2599 H   0  0  0  0  0  0  0  0  0  0  0  0
   45.9324    4.1398    9.7672 H   0  0  0  0  0  0  0  0  0  0  0  0
   46.0052    4.7448   12.3196 H   0  0  0  0  0  0  0  0  0  0  0  0
   45.0037    6.1169   12.7742 H   0  0  0  0  0  0  0  0  0  0  0  0
   44.2118    6.4156   10.4597 H   0  0  0  0  0  0  0  0  0  0  0  0
   45.9705    6.3779   10.4736 H   0  0  0  0  0  0  0  0  0  0  0  0
   44.7923    2.6075   11.5688 H   0  0  0  0  0  0  0  0  0  0  0  0
   43.0335    2.6470   11.5533 H   0  0  0  0  0  0  0  0  0  0  0  0
   44.0027    2.9066    9.2525 H   0  0  0  0  0  0  0  0  0  0  0  0
   43.0008    4.2794    9.7069 H   0  0  0  0  0  0  0  0  0  0  0  0
   46.3682    4.4517   11.3820 H   0  0  0  0  0  0  0  0  0  0  0  0
   45.8397    5.2923    9.9131 H   0  0  0  0  0  0  0  0  0  0  0  0
   44.8918    2.3322   11.3916 H   0  0  0  0  0  0  0  0  0  0  0  0
   43.2335    2.4919   10.8171 H   0  0  0  0  0  0  0  0  0  0  0  0
   43.1339    5.9340   10.5629 H   0  0  0  0  0  0  0  0  0  0  0  0
   42.6388    5.3889   13.7223 H   0  0  0  0  0  0  0  0  0  0  0  0
   44.9377    8.1118   11.7270 H   0  0  0  0  0  0  0  0  0  0  0  0
   44.3325    1.7254    7.7595 H   0  0  0  0  0  0  0  0  0  0  0  0
   43.0386    4.9342   12.2025 H   0  0  0  0  0  0  0  0  0  0  0  0
   45.9662    4.0898    9.8244 H   0  0  0  0  0  0  0  0  0  0  0  0
   45.9347    5.4049   12.0949 H   0  0  0  0  0  0  0  0  0  0  0  0
   44.6700    6.6219   12.2169 H   0  0  0  0  0  0  0  0  0  0  0  0
   45.5396    6.3972    9.8735 H   0  0  0  0  0  0  0  0  0  0  0  0
   43.8121    6.0782    9.9710 H   0  0  0  0  0  0  0  0  0  0  0  0
   45.1934    2.9454   12.0561 H   0  0  0  0  0  0  0  0  0  0  0  0
   43.4662    2.6268   12.1536 H   0  0  0  0  0  0  0  0  0  0  0  0
   44.3351    2.4020    9.8101 H   0  0  0  0  0  0  0  0  0  0  0  0
   43.0707    3.6195    9.9323 H   0  0  0  0  0  0  0  0  0  0  0  0
   42.7356    3.8774   10.5522 H   0  0  0  0  0  0  0  0  0  0  0  0
   46.2689    5.1450   11.4749 H   0  0  0  0  0  0  0  0  0  0  0  0
   44.5865    3.6473   12.8189 H   0  0  0  0  0  0  0  0  0  0  0  0
   42.9370    4.2559   12.8605 H   0  0  0  0  0  0  0  0  0  0  0  0
   44.6268    6.1114   12.8449 H   0  0  0  0  0  0  0  0  0  0  0  0
   43.5312    6.2047   11.4721 H   0  0  0  0  0  0  0  0  0  0  0  0
   44.3799    2.9118    9.1825 H   0  0  0  0  0  0  0  0  0  0  0  0
   45.4745    2.8208   10.5564 H   0  0  0  0  0  0  0  0  0  0  0  0
   46.0685    4.7678    9.1669 H   0  0  0  0  0  0  0  0  0  0  0  0
   44.4182    5.3769    9.2067 H   0  0  0  0  0  0  0  0  0  0  0  0
  3  2  1  0
  4  2  1  0
  5  2  1  0
  6  4  1  0
  7  3  1  0
  8  5  2  0
  9  7  2  0
 10  6  2  0
 11  2  1  0
 12  5  1  0
 13  7  1  0
 14  6  1  0
 16 20  1  0
 17 15  1  0
 18 17  1  0
 19 15  1  0
 20 19  1  0
 16 18  1  0
 22 21  1  0
 23 21  1  0
 24 21  1  0
 25 23  1  0
 26 22  1  0
 27 24  2  0
 28 26  2  0
 29 25  2  0
 30 21  1  0
 31 24  1  0
 32 26  1  0
 33 25  1  0
 35 39  1  0
 36 34  1  0
 37 36  1  0
 38 34  1  0
 39 38  1  0
 35 37  1  0
 41 45  1  0
 42 40  1  0
 43 42  1  0
 44 40  1  0
 45 44  1  0
 41 43  1  0
  1 46  1  0
  1 47  1  0
  3 48  1  0
  3 49  1  0
  4 50  1  0
  4 51  1  0
 11 52  1  0
 12 53  1  0
 13 54  1  0
 14 55  1  0
 15 56  1  0
 16 57  1  0
 17 58  1  0
 17 59  1  0
 18 60  1  0
 18 61  1  0
 19 62  1  0
 19 63  1  0
 20 64  1  0
 20 65  1  0
 22 66  1  0
 22 67  1  0
 23 68  1  0
 23 69  1  0
 30 70  1  0
 31 71  1  0
 32 72  1  0
 33 73  1  0
 34 74  1  0
 35 75  1  0
 36 76  1  0
 36 77  1  0
 37 78  1  0
 37 79  1  0
 38 80  1  0
 38 81  1  0
 39 82  1  0
 39 83  1  0
 40 84  1  0
 41 85  1  0
 42 86  1  0
 42 87  1  0
 43 88  1  0
 43 89  1  0
 44 90  1  0
 44 91  1  0
 45 92  1  0
 45 93  1  0
M  END
> <Uni-Dock RESULT> 
ENERGY=   -9.666  LOWER_BOUND=    0.000  UPPER_BOUND=    0.000
INTER + INTRA:          -9.666
INTER:                  -9.666
INTRA:                   0.000
UNBOUND:                 0.000

$$$$

     RDKit          3D

 93 90  0  0  0  0  0  0  0  0999 V2000
   43.8776    5.4283   11.7441 O   0  0  0  0  0  0  0  0  0  0  0  0
   44.1843    5.2544   11.2410 C   0  0  0  0  0  0  0  0  0  0  0  0
   45.3695    6.0365   11.8147 C   0  0  0  0  0  0  0  0  0  0  0  0
   44.5245    3.7809   10.9958 C   0  0  0  0  0  0  0  0  0  0  0  0
   42.9797    5.3172   12.1977 C   0  0  0  0  0  0  0  0  0  0  0  0
   44.8455    3.0343   12.2561 C   0  0  0  0  0  0  0  0  0  0  0  0
   45.1854    7.5275   11.7755 C   0  0  0  0  0  0  0  0  0  0  0  0
   42.9777    5.1365   13.4031 O   0  0  0  0  0  0  0  0  0  0  0  0
   46.0445    8.3427   11.4791 O   0  0  0  0  0  0  0  0  0  0  0  0
   45.8563    3.1568   12.9260 O   0  0  0  0  0  0  0  0  0  0  0  0
   43.8636    5.7978    9.9457 O   0  0  0  0  0  0  0  0  0  0  0  0
   41.8263    5.5680   11.5322 O   0  0  0  0  0  0  0  0  0  0  0  0
   43.9806    7.9496   12.1974 O   0  0  0  0  0  0  0  0  0  0  0  0
   43.8674    2.1872   12.6218 O   0  0  0  0  0  0  0  0  0  0  0  0
   43.2400    6.3264   11.5812 N   0  0  0  0  0  0  0  0  0  0  0  0
   45.1955    4.1290   12.0050 N   0  0  0  0  0  0  0  0  0  0  0  0
   44.4467    6.4966   12.4092 C   0  0  0  0  0  0  0  0  0  0  0  0
   45.5945    5.5474   12.0032 C   0  0  0  0  0  0  0  0  0  0  0  0
   42.8405    4.9082   11.5823 C   0  0  0  0  0  0  0  0  0  0  0  0
   43.9884    3.9585   11.1772 C   0  0  0  0  0  0  0  0  0  0  0  0
   44.0051    5.2466   11.5582 C   0  0  0  0  0  0  0  0  0  0  0  0
   45.0240    5.4102   12.6916 C   0  0  0  0  0  0  0  0  0  0  0  0
   42.9828    4.1301   11.8119 C   0  0  0  0  0  0  0  0  0  0  0  0
   43.1965    6.5487   11.4099 C   0  0  0  0  0  0  0  0  0  0  0  0
   43.6087    2.7813   12.0138 C   0  0  0  0  0  0  0  0  0  0  0  0
   45.7485    6.7252   12.6334 C   0  0  0  0  0  0  0  0  0  0  0  0
   42.2668    6.9125   12.1111 O   0  0  0  0  0  0  0  0  0  0  0  0
   45.7365    7.5941   13.4871 O   0  0  0  0  0  0  0  0  0  0  0  0
   44.4991    2.5007   12.7990 O   0  0  0  0  0  0  0  0  0  0  0  0
   44.6839    4.9284   10.3345 O   0  0  0  0  0  0  0  0  0  0  0  0
   43.6399    7.3355   10.4051 O   0  0  0  0  0  0  0  0  0  0  0  0
   46.4728    6.8768   11.5076 O   0  0  0  0  0  0  0  0  0  0  0  0
   43.0331    1.8205   11.2665 O   0  0  0  0  0  0  0  0  0  0  0  0
   43.4802    6.5008   11.5840 N   0  0  0  0  0  0  0  0  0  0  0  0
   44.9551    3.9548   12.0015 N   0  0  0  0  0  0  0  0  0  0  0  0
   44.8540    6.4661   12.1159 C   0  0  0  0  0  0  0  0  0  0  0  0
   45.6414    5.2157   11.6693 C   0  0  0  0  0  0  0  0  0  0  0  0
   42.7937    5.2401   11.9169 C   0  0  0  0  0  0  0  0  0  0  0  0
   43.5812    3.9895   11.4701 C   0  0  0  0  0  0  0  0  0  0  0  0
   43.0236    4.7148   11.0724 N   0  0  0  0  0  0  0  0  0  0  0  0
   45.4116    5.7406   12.5135 N   0  0  0  0  0  0  0  0  0  0  0  0
   43.1482    6.1240   11.4842 C   0  0  0  0  0  0  0  0  0  0  0  0
   44.6155    6.5883   11.6087 C   0  0  0  0  0  0  0  0  0  0  0  0
   43.8201    3.8677   11.9774 C   0  0  0  0  0  0  0  0  0  0  0  0
   45.2875    4.3314   12.1010 C   0  0  0  0  0  0  0  0  0  0  0  0
   44.7553    5.7835   11.9493 H   0  0  0  0  0  0  0  0  0  0  0  0
   44.0200    4.4717   11.6856 H   0  0  0  0  0  0  0  0  0  0  0  0
   45.5882    5.7615   12.8520 H   0  0  0  0  0  0  0  0  0  0  0  0
   46.2628    5.8257   11.2122 H   0  0  0  0  0  0  0  0  0  0  0  0
   43.6919    3.2788   10.4855 H   0  0  0  0  0  0  0  0  0  0  0  0
   45.3753    3.6778   10.3112 H   0  0  0  0  0  0  0  0  0  0  0  0
   42.8869    5.8710    9.9216 H   0  0  0  0  0  0  0  0  0  0  0  0
   41.1502    5.5973   12.2443 H   0  0  0  0  0  0  0  0  0  0  0  0
   44.0548    8.9275   12.1520 H   0  0  0  0  0  0  0  0  0  0  0  0
   44.1760    1.8112   13.4738 H   0  0  0  0  0  0  0  0  0  0  0  0
   43.4837    6.5793   10.6225 H   0  0  0  0  0  0  0  0  0  0  0  0
   44.9521    3.8767   12.9639 H   0  0  0  0  0  0  0  0  0  0  0  0
   44.1861    6.3365   13.4626 H   0  0  0  0  0  0  0  0  0  0  0  0
   44.7878    7.5342   12.3243 H   0  0  0  0  0  0  0  0  0  0  0  0
   45.9639    5.8162   11.0058 H   0  0  0  0  0  0  0  0  0  0  0  0
   46.4339    5.6772   12.6952 H   0  0  0  0  0  0  0  0  0  0  0  0
   42.4697    4.6404   12.5795 H   0  0  0  0  0  0  0  0  0  0  0  0
   42.0019    4.7790   10.8893 H   0  0  0  0  0  0  0  0  0  0  0  0
   43.6476    2.9208   11.2628 H   0  0  0  0  0  0  0  0  0  0  0  0
   44.2498    4.1188   10.1239 H   0  0  0  0  0  0  0  0  0  0  0  0
   44.5222    5.3657   13.6659 H   0  0  0  0  0  0  0  0  0  0  0  0
   45.7920    4.6297   12.6712 H   0  0  0  0  0  0  0  0  0  0  0  0
   42.3628    4.3355   12.6925 H   0  0  0  0  0  0  0  0  0  0  0  0
   42.3025    4.0637   10.9524 H   0  0  0  0  0  0  0  0  0  0  0  0
   45.2082    5.7217   10.0978 H   0  0  0  0  0  0  0  0  0  0  0  0
   43.0358    8.1092   10.4213 H   0  0  0  0  0  0  0  0  0  0  0  0
   46.9208    7.7421   11.6261 H   0  0  0  0  0  0  0  0  0  0  0  0
   43.5285    1.0065   11.4959 H   0  0  0  0  0  0  0  0  0  0  0  0
   43.5428    6.5606   10.5667 H   0  0  0  0  0  0  0  0  0  0  0  0
   44.8924    3.8951   13.0188 H   0  0  0  0  0  0  0  0  0  0  0  0
   44.8168    6.5110   13.2115 H   0  0  0  0  0  0  0  0  0  0  0  0
   45.3829    7.3656   11.7816 H   0  0  0  0  0  0  0  0  0  0  0  0
   46.6262    5.2170   12.1500 H   0  0  0  0  0  0  0  0  0  0  0  0
   45.8185    5.2538   10.5874 H   0  0  0  0  0  0  0  0  0  0  0  0
   42.6165    5.2017   12.9989 H   0  0  0  0  0  0  0  0  0  0  0  0
   41.8092    5.2387   11.4365 H   0  0  0  0  0  0  0  0  0  0  0  0
   43.0523    3.0900   11.8041 H   0  0  0  0  0  0  0  0  0  0  0  0
   43.6188    3.9452   10.3745 H   0  0  0  0  0  0  0  0  0  0  0  0
   43.4215    4.6287   10.1362 H   0  0  0  0  0  0  0  0  0  0  0  0
   45.0123    5.8263   13.4493 H   0  0  0  0  0  0  0  0  0  0  0  0
   42.6311    6.2655   12.4412 H   0  0  0  0  0  0  0  0  0  0  0  0
   42.6303    6.7520   10.7511 H   0  0  0  0  0  0  0  0  0  0  0  0
   44.6391    7.6184   11.9810 H   0  0  0  0  0  0  0  0  0  0  0  0
   45.0875    6.6002   10.6186 H   0  0  0  0  0  0  0  0  0  0  0  0
   43.7958    2.8371   11.6065 H   0  0  0  0  0  0  0  0  0  0  0  0
   43.3484    3.8574   12.9677 H   0  0  0  0  0  0  0  0  0  0  0  0
   45.8047    3.7039   12.8352 H   0  0  0  0  0  0  0  0  0  0  0  0
   45.8050    4.1891   11.1439 H   0  0  0  0  0  0  0  0  0  0  0  0
  3  2  1  0
  4  2  1  0
  5  2  1  0
  6  4  1  0
  7  3  1  0
  8  5  2  0
  9  7  2  0
 10  6  2  0
 11  2  1  0
 12  5  1  0
 13  7  1  0
 14  6  1  0
 16 20  1  0
 17 15  1  0
 18 17  1  0
 19 15  1  0
 20 19  1  0
 16 18  1  0
 22 21  1  0
 23 21  1  0
 24 21  1  0
 25 23  1  0
 26 22  1  0
 27 24  2  0
 28 26  2  0
 29 25  2  0
 30 21  1  0
 31 24  1  0
 32 26  1  0
 33 25  1  0
 35 39  1  0
 36 34  1  0
 37 36  1  0
 38 34  1  0
 39 38  1  0
 35 37  1  0
 41 45  1  0
 42 40  1  0
 43 42  1  0
 44 40  1  0
 45 44  1  0
 41 43  1  0
  1 46  1  0
  1 47  1  0
  3 48  1  0
  3 49  1  0
  4 50  1  0
  4 51  1  0
 11 52  1  0
 12 53  1  0
 13 54  1  0
 14 55  1  0
 15 56  1  0
 16 57  1  0
 17 58  1  0
 17 59  1  0
 18 60  1  0
 18 61  1  0
 19 62  1  0
 19 63  1  0
 20 64  1  0
 20 65  1  0
 22 66  1  0
 22 67  1  0
 23 68  1  0
 23 69  1  0
 30 70  1  0
 31 71  1  0
 32 72  1  0
 33 73  1  0
 34 74  1  0
 35 75  1  0
 36 76  1  0
 36 77  1  0
 37 78  1  0
 37 79  1  0
 38 80  1  0
 38 81  1  0
 39 82  1  0
 39 83  1  0
 40 84  1  0
 41 85  1  0
 42 86  1  0
 42 87  1  0
 43 88  1  0
 43 89  1  0
 44 90  1  0
 44 91  1  0
 45 92  1  0
 45 93  1  0
M  END
> <Uni-Dock RESULT> 
ENERGY=   -8.528  LOWER_BOUND=    1.414  UPPER_BOUND=    2.340
INTER + INTRA:          -8.528
INTER:                  -8.528
INTRA:                   0.000
UNBOUND:                 0.000

$$$$

     RDKit          3D

 93 90  0  0  0  0  0  0  0  0999 V2000
   44.4819    5.4057   11.9112 O   0  0  0  0  0  0  0  0  0  0  0  0
   44.3851    5.3333   12.5135 C   0  0  0  0  0  0  0  0  0  0  0  0
   44.5992    3.8370   12.2667 C   0  0  0  0  0  0  0  0  0  0  0  0
   45.3687    5.8988   13.5429 C   0  0  0  0  0  0  0  0  0  0  0  0
   44.5491    6.1272   11.2047 C   0  0  0  0  0  0  0  0  0  0  0  0
   46.7969    5.8305   13.0904 C   0  0  0  0  0  0  0  0  0  0  0  0
   43.4744    3.1816   11.5157 C   0  0  0  0  0  0  0  0  0  0  0  0
   45.4408    6.0247   10.3800 O   0  0  0  0  0  0  0  0  0  0  0  0
   43.0037    2.0814   11.7576 O   0  0  0  0  0  0  0  0  0  0  0  0
   47.4735    4.8211   12.9977 O   0  0  0  0  0  0  0  0  0  0  0  0
   43.0764    5.5181   13.0872 O   0  0  0  0  0  0  0  0  0  0  0  0
   43.5678    7.0494   11.0540 O   0  0  0  0  0  0  0  0  0  0  0  0
   43.0480    3.8697   10.4422 O   0  0  0  0  0  0  0  0  0  0  0  0
   47.2942    7.0342   12.7560 O   0  0  0  0  0  0  0  0  0  0  0  0
   43.5407    5.4667   11.3194 N   0  0  0  0  0  0  0  0  0  0  0  0
   45.9910    4.9883   12.9317 N   0  0  0  0  0  0  0  0  0  0  0  0
   44.3498    4.2438   11.1762 C   0  0  0  0  0  0  0  0  0  0  0  0
   45.1346    3.8873   12.4570 C   0  0  0  0  0  0  0  0  0  0  0  0
   44.3965    6.5681   11.7944 C   0  0  0  0  0  0  0  0  0  0  0  0
   45.1822    6.2116   13.0747 C   0  0  0  0  0  0  0  0  0  0  0  0
   44.5327    5.4314   12.1951 C   0  0  0  0  0  0  0  0  0  0  0  0
   45.4781    4.3149   11.7377 C   0  0  0  0  0  0  0  0  0  0  0  0
   45.1318    6.8371   12.0501 C   0  0  0  0  0  0  0  0  0  0  0  0
   43.2625    5.4100   11.3246 C   0  0  0  0  0  0  0  0  0  0  0  0
   46.4078    7.0248   12.8170 C   0  0  0  0  0  0  0  0  0  0  0  0
   44.7660    3.0125   11.5047 C   0  0  0  0  0  0  0  0  0  0  0  0
   43.1459    5.8570   10.1955 O   0  0  0  0  0  0  0  0  0  0  0  0
   44.6995    2.4048   10.4510 O   0  0  0  0  0  0  0  0  0  0  0  0
   47.3986    6.3147   12.7695 O   0  0  0  0  0  0  0  0  0  0  0  0
   44.2020    5.2533   13.5802 O   0  0  0  0  0  0  0  0  0  0  0  0
   42.2230    4.7858   11.9206 O   0  0  0  0  0  0  0  0  0  0  0  0
   44.1854    2.5245   12.6182 O   0  0  0  0  0  0  0  0  0  0  0  0
   46.4106    8.1472   13.5609 O   0  0  0  0  0  0  0  0  0  0  0  0
   43.5009    5.1739   11.3474 N   0  0  0  0  0  0  0  0  0  0  0  0
   46.0303    5.2813   12.9040 N   0  0  0  0  0  0  0  0  0  0  0  0
   44.3200    3.9753   11.6004 C   0  0  0  0  0  0  0  0  0  0  0  0
   45.1689    4.0859   12.8849 C   0  0  0  0  0  0  0  0  0  0  0  0
   44.3625    6.3692   11.3658 C   0  0  0  0  0  0  0  0  0  0  0  0
   45.2114    6.4798   12.6507 C   0  0  0  0  0  0  0  0  0  0  0  0
   44.2679    6.6090   12.3535 N   0  0  0  0  0  0  0  0  0  0  0  0
   45.2635    3.8463   11.8977 N   0  0  0  0  0  0  0  0  0  0  0  0
   43.5896    5.6688   11.4443 C   0  0  0  0  0  0  0  0  0  0  0  0
   43.8331    4.1898   11.8148 C   0  0  0  0  0  0  0  0  0  0  0  0
   45.6982    6.2648   12.4362 C   0  0  0  0  0  0  0  0  0  0  0  0
   45.9417    4.7862   12.8077 C   0  0  0  0  0  0  0  0  0  0  0  0
   44.6567    4.4567   11.9983 H   0  0  0  0  0  0  0  0  0  0  0  0
   45.1584    5.8203   12.4672 H   0  0  0  0  0  0  0  0  0  0  0  0
   45.5229    3.6330   11.7149 H   0  0  0  0  0  0  0  0  0  0  0  0
   44.6600    3.3198   13.2332 H   0  0  0  0  0  0  0  0  0  0  0  0
   45.1172    6.9422   13.7751 H   0  0  0  0  0  0  0  0  0  0  0  0
   45.2883    5.3716   14.5014 H   0  0  0  0  0  0  0  0  0  0  0  0
   42.6854    6.2842   12.6181 H   0  0  0  0  0  0  0  0  0  0  0  0
   43.7754    7.4688   10.1902 H   0  0  0  0  0  0  0  0  0  0  0  0
   42.3626    3.2830   10.0551 H   0  0  0  0  0  0  0  0  0  0  0  0
   48.2005    6.8425   12.4326 H   0  0  0  0  0  0  0  0  0  0  0  0
   42.8361    5.2899   12.0368 H   0  0  0  0  0  0  0  0  0  0  0  0
   46.6955    5.1645   12.2140 H   0  0  0  0  0  0  0  0  0  0  0  0
   45.0444    4.3680   10.3364 H   0  0  0  0  0  0  0  0  0  0  0  0
   43.6864    3.4121   10.9148 H   0  0  0  0  0  0  0  0  0  0  0  0
   44.4359    3.6052   13.2544 H   0  0  0  0  0  0  0  0  0  0  0  0
   45.7631    3.0109   12.2646 H   0  0  0  0  0  0  0  0  0  0  0  0
   45.0938    6.8509   10.9959 H   0  0  0  0  0  0  0  0  0  0  0  0
   43.7671    7.4437   11.9875 H   0  0  0  0  0  0  0  0  0  0  0  0
   45.8461    7.0432   13.3358 H   0  0  0  0  0  0  0  0  0  0  0  0
   44.4877    6.0867   13.9147 H   0  0  0  0  0  0  0  0  0  0  0  0
   45.9617    4.5873   10.7917 H   0  0  0  0  0  0  0  0  0  0  0  0
   46.2641    4.1133   12.4732 H   0  0  0  0  0  0  0  0  0  0  0  0
   45.3425    7.0860   11.0033 H   0  0  0  0  0  0  0  0  0  0  0  0
   44.4054    7.5765   12.4129 H   0  0  0  0  0  0  0  0  0  0  0  0
   43.6732    4.4300   13.6319 H   0  0  0  0  0  0  0  0  0  0  0  0
   41.4935    4.8572   11.2675 H   0  0  0  0  0  0  0  0  0  0  0  0
   43.8069    1.6646   12.3334 H   0  0  0  0  0  0  0  0  0  0  0  0
   47.2881    8.1458   13.9973 H   0  0  0  0  0  0  0  0  0  0  0  0
   42.8333    5.2610   12.1150 H   0  0  0  0  0  0  0  0  0  0  0  0
   46.6977    5.1942   12.1364 H   0  0  0  0  0  0  0  0  0  0  0  0
   44.9729    3.7972   10.7369 H   0  0  0  0  0  0  0  0  0  0  0  0
   43.6567    3.1067   11.6782 H   0  0  0  0  0  0  0  0  0  0  0  0
   45.8010    3.1957   12.9792 H   0  0  0  0  0  0  0  0  0  0  0  0
   44.5134    4.1017   13.7643 H   0  0  0  0  0  0  0  0  0  0  0  0
   45.0182    6.3536   10.4865 H   0  0  0  0  0  0  0  0  0  0  0  0
   43.7307    7.2592   11.2717 H   0  0  0  0  0  0  0  0  0  0  0  0
   45.8745    7.3485   12.5730 H   0  0  0  0  0  0  0  0  0  0  0  0
   44.5582    6.6575   13.5142 H   0  0  0  0  0  0  0  0  0  0  0  0
   43.8649    6.4868   13.2835 H   0  0  0  0  0  0  0  0  0  0  0  0
   45.6661    3.9700   10.9675 H   0  0  0  0  0  0  0  0  0  0  0  0
   43.9275    5.8553   10.4175 H   0  0  0  0  0  0  0  0  0  0  0  0
   42.5138    5.8749   11.4636 H   0  0  0  0  0  0  0  0  0  0  0  0
   43.3601    3.5460   11.0651 H   0  0  0  0  0  0  0  0  0  0  0  0
   43.3522    3.9623   12.7741 H   0  0  0  0  0  0  0  0  0  0  0  0
   46.1722    6.9093   13.1847 H   0  0  0  0  0  0  0  0  0  0  0  0
   46.1782    6.4912   11.4761 H   0  0  0  0  0  0  0  0  0  0  0  0
   47.0175    4.5803   12.7871 H   0  0  0  0  0  0  0  0  0  0  0  0
   45.6042    4.5999   13.8351 H   0  0  0  0  0  0  0  0  0  0  0  0
  3  2  1  0
  4  2  1  0
  5  2  1  0
  6  4  1  0
  7  3  1  0
  8  5  2  0
  9  7  2  0
 10  6  2  0
 11  2  1  0
 12  5  1  0
 13  7  1  0
 14  6  1  0
 16 20  1  0
 17 15  1  0
 18 17  1  0
 19 15  1  0
 20 19  1  0
 16 18  1  0
 22 21  1  0
 23 21  1  0
 24 21  1  0
 25 23  1  0
 26 22  1  0
 27 24  2  0
 28 26  2  0
 29 25  2  0
 30 21  1  0
 31 24  1  0
 32 26  1  0
 33 25  1  0
 35 39  1  0
 36 34  1  0
 37 36  1  0
 38 34  1  0
 39 38  1  0
 35 37  1  0
 41 45  1  0
 42 40  1  0
 43 42  1  0
 44 40  1  0
 45 44  1  0
 41 43  1  0
  1 46  1  0
  1 47  1  0
  3 48  1  0
  3 49  1  0
  4 50  1  0
  4 51  1  0
 11 52  1  0
 12 53  1  0
 13 54  1  0
 14 55  1  0
 15 56  1  0
 16 57  1  0
 17 58  1  0
 17 59  1  0
 18 60  1  0
 18 61  1  0
 19 62  1  0
 19 63  1  0
 20 64  1  0
 20 65  1  0
 22 66  1  0
 22 67  1  0
 23 68  1  0
 23 69  1  0
 30 70  1  0
 31 71  1  0
 32 72  1  0
 33 73  1  0
 34 74  1  0
 35 75  1  0
 36 76  1  0
 36 77  1  0
 37 78  1  0
 37 79  1  0
 38 80  1  0
 38 81  1  0
 39 82  1  0
 39 83  1  0
 40 84  1  0
 41 85  1  0
 42 86  1  0
 42 87  1  0
 43 88  1  0
 43 89  1  0
 44 90  1  0
 44 91  1  0
 45 92  1  0
 45 93  1  0
M  END
> <Uni-Dock RESULT> 
ENERGY=   -8.447  LOWER_BOUND=    1.378  UPPER_BOUND=    3.726
INTER + INTRA:          -8.447
INTER:                  -8.447
INTRA:                   0.000
UNBOUND:                 0.000

$$$$

     RDKit          3D

 93 90  0  0  0  0  0  0  0  0999 V2000
   45.6876    5.4213   12.6749 O   0  0  0  0  0  0  0  0  0  0  0  0
   45.7308    5.6378   12.1015 C   0  0  0  0  0  0  0  0  0  0  0  0
   44.2022    5.7297   12.1275 C   0  0  0  0  0  0  0  0  0  0  0  0
   46.3895    6.9915   11.8181 C   0  0  0  0  0  0  0  0  0  0  0  0
   46.2651    5.1151   13.4475 C   0  0  0  0  0  0  0  0  0  0  0  0
   46.1290    8.0077   12.8898 C   0  0  0  0  0  0  0  0  0  0  0  0
   43.5158    4.3933   12.0877 C   0  0  0  0  0  0  0  0  0  0  0  0
   45.9478    5.4815   14.5659 O   0  0  0  0  0  0  0  0  0  0  0  0
   42.5167    4.1260   11.4390 O   0  0  0  0  0  0  0  0  0  0  0  0
   45.0685    8.5683   13.1056 O   0  0  0  0  0  0  0  0  0  0  0  0
   46.1176    4.7831   11.0079 O   0  0  0  0  0  0  0  0  0  0  0  0
   47.2211    4.1710   13.2723 O   0  0  0  0  0  0  0  0  0  0  0  0
   44.0348    3.4772   12.9238 O   0  0  0  0  0  0  0  0  0  0  0  0
   47.2111    8.2502   13.6502 O   0  0  0  0  0  0  0  0  0  0  0  0
   45.7176    4.3096   12.7280 N   0  0  0  0  0  0  0  0  0  0  0  0
   45.3387    7.2456   12.4670 N   0  0  0  0  0  0  0  0  0  0  0  0
   44.4282    4.9642   13.0105 C   0  0  0  0  0  0  0  0  0  0  0  0
   44.2428    6.2879   12.2380 C   0  0  0  0  0  0  0  0  0  0  0  0
   46.8141    5.2670   12.9566 C   0  0  0  0  0  0  0  0  0  0  0  0
   46.6284    6.5912   12.1849 C   0  0  0  0  0  0  0  0  0  0  0  0
   45.7590    5.6058   12.4634 C   0  0  0  0  0  0  0  0  0  0  0  0
   44.5076    6.2208   13.1003 C   0  0  0  0  0  0  0  0  0  0  0  0
   47.0647    6.0269   13.1518 C   0  0  0  0  0  0  0  0  0  0  0  0
   45.6850    4.0718   12.5762 C   0  0  0  0  0  0  0  0  0  0  0  0
   47.2832    7.5114   13.1618 C   0  0  0  0  0  0  0  0  0  0  0  0
   43.2454    5.5121   12.6978 C   0  0  0  0  0  0  0  0  0  0  0  0
   45.9330    3.4015   13.5649 O   0  0  0  0  0  0  0  0  0  0  0  0
   42.4681    4.9430   13.4434 O   0  0  0  0  0  0  0  0  0  0  0  0
   46.4994    8.3613   13.5511 O   0  0  0  0  0  0  0  0  0  0  0  0
   45.8556    6.0098   11.0897 O   0  0  0  0  0  0  0  0  0  0  0  0
   45.2606    3.4774   11.4396 O   0  0  0  0  0  0  0  0  0  0  0  0
   43.0097    5.5703   11.3726 O   0  0  0  0  0  0  0  0  0  0  0  0
   48.5156    7.8615   12.7476 O   0  0  0  0  0  0  0  0  0  0  0  0
   45.4385    4.2946   12.6282 N   0  0  0  0  0  0  0  0  0  0  0  0
   45.6182    7.2604   12.5663 N   0  0  0  0  0  0  0  0  0  0  0  0
   44.2423    5.1540   12.5836 C   0  0  0  0  0  0  0  0  0  0  0  0
   44.5105    6.5263   11.9295 C   0  0  0  0  0  0  0  0  0  0  0  0
   46.5458    5.0285   13.2657 C   0  0  0  0  0  0  0  0  0  0  0  0
   46.8142    6.4009   12.6113 C   0  0  0  0  0  0  0  0  0  0  0  0
   46.9633    5.4321   12.4262 N   0  0  0  0  0  0  0  0  0  0  0  0
   44.0933    6.1230   12.7687 N   0  0  0  0  0  0  0  0  0  0  0  0
   45.9340    4.4101   12.6849 C   0  0  0  0  0  0  0  0  0  0  0  0
   44.5293    4.8338   12.2040 C   0  0  0  0  0  0  0  0  0  0  0  0
   46.5266    6.7211   12.9908 C   0  0  0  0  0  0  0  0  0  0  0  0
   45.1224    7.1452   12.5092 C   0  0  0  0  0  0  0  0  0  0  0  0
   44.7581    5.6345   12.5035 H   0  0  0  0  0  0  0  0  0  0  0  0
   46.1389    6.2765   12.6140 H   0  0  0  0  0  0  0  0  0  0  0  0
   43.8311    6.2614   13.0101 H   0  0  0  0  0  0  0  0  0  0  0  0
   43.8610    6.2722   11.2361 H   0  0  0  0  0  0  0  0  0  0  0  0
   47.4742    6.8685   11.6988 H   0  0  0  0  0  0  0  0  0  0  0  0
   46.0483    7.4076   10.8623 H   0  0  0  0  0  0  0  0  0  0  0  0
   46.8172    4.1962   11.3626 H   0  0  0  0  0  0  0  0  0  0  0  0
   47.4632    3.9143   14.1892 H   0  0  0  0  0  0  0  0  0  0  0  0
   43.4452    2.7015   12.8035 H   0  0  0  0  0  0  0  0  0  0  0  0
   46.8939    8.8799   14.3324 H   0  0  0  0  0  0  0  0  0  0  0  0
   45.7270    4.0575   11.7387 H   0  0  0  0  0  0  0  0  0  0  0  0
   45.3286    7.4974   13.4564 H   0  0  0  0  0  0  0  0  0  0  0  0
   44.3463    5.1478   14.0888 H   0  0  0  0  0  0  0  0  0  0  0  0
   43.6188    4.2746   12.7469 H   0  0  0  0  0  0  0  0  0  0  0  0
   44.1626    6.0828   11.1633 H   0  0  0  0  0  0  0  0  0  0  0  0
   43.2990    6.7548   12.5406 H   0  0  0  0  0  0  0  0  0  0  0  0
   46.8949    5.4703   14.0317 H   0  0  0  0  0  0  0  0  0  0  0  0
   47.7573    4.7997   12.6527 H   0  0  0  0  0  0  0  0  0  0  0  0
   47.4376    7.2811   12.4490 H   0  0  0  0  0  0  0  0  0  0  0  0
   46.7097    6.4079   11.1064 H   0  0  0  0  0  0  0  0  0  0  0  0
   44.5691    6.1656   14.1940 H   0  0  0  0  0  0  0  0  0  0  0  0
   44.3775    7.2719   12.8217 H   0  0  0  0  0  0  0  0  0  0  0  0
   47.1070    5.6853   14.1927 H   0  0  0  0  0  0  0  0  0  0  0  0
   47.9120    5.5623   12.6299 H   0  0  0  0  0  0  0  0  0  0  0  0
   45.0991    5.5924   10.6276 H   0  0  0  0  0  0  0  0  0  0  0  0
   45.2731    2.5188   11.6507 H   0  0  0  0  0  0  0  0  0  0  0  0
   42.1459    5.1170   11.2631 H   0  0  0  0  0  0  0  0  0  0  0  0
   48.5217    8.8397   12.8068 H   0  0  0  0  0  0  0  0  0  0  0  0
   45.7127    4.0945   11.6653 H   0  0  0  0  0  0  0  0  0  0  0  0
   45.3439    7.4603   13.5292 H   0  0  0  0  0  0  0  0  0  0  0  0
   43.8628    5.2955   13.6033 H   0  0  0  0  0  0  0  0  0  0  0  0
   43.4566    4.6337   12.0246 H   0  0  0  0  0  0  0  0  0  0  0  0
   43.6037    7.1388   11.9876 H   0  0  0  0  0  0  0  0  0  0  0  0
   44.7337    6.3936   10.8637 H   0  0  0  0  0  0  0  0  0  0  0  0
   46.3229    5.1614   14.3316 H   0  0  0  0  0  0  0  0  0  0  0  0
   47.4525    4.4163   13.2077 H   0  0  0  0  0  0  0  0  0  0  0  0
   47.6000    6.9211   13.1702 H   0  0  0  0  0  0  0  0  0  0  0  0
   47.1931    6.2593   11.5915 H   0  0  0  0  0  0  0  0  0  0  0  0
   47.0399    5.5463   11.4146 H   0  0  0  0  0  0  0  0  0  0  0  0
   44.0181    6.0083   13.7805 H   0  0  0  0  0  0  0  0  0  0  0  0
   45.9085    4.1901   13.7592 H   0  0  0  0  0  0  0  0  0  0  0  0
   46.2251    3.4820   12.1807 H   0  0  0  0  0  0  0  0  0  0  0  0
   43.8027    4.0635   12.4849 H   0  0  0  0  0  0  0  0  0  0  0  0
   44.5140    4.8970   11.1090 H   0  0  0  0  0  0  0  0  0  0  0  0
   47.2536    7.4916   12.7116 H   0  0  0  0  0  0  0  0  0  0  0  0
   46.5407    6.6567   14.0859 H   0  0  0  0  0  0  0  0  0  0  0  0
   44.8313    8.0726   13.0145 H   0  0  0  0  0  0  0  0  0  0  0  0
   45.1483    7.3659   11.4346 H   0  0  0  0  0  0  0  0  0  0  0  0
  3  2  1  0
  4  2  1  0
  5  2  1  0
  6  4  1  0
  7  3  1  0
  8  5  2  0
  9  7  2  0
 10  6  2  0
 11  2  1  0
 12  5  1  0
 13  7  1  0
 14  6  1  0
 16 20  1  0
 17 15  1  0
 18 17  1  0
 19 15  1  0
 20 19  1  0
 16 18  1  0
 22 21  1  0
 23 21  1  0
 24 21  1  0
 25 23  1  0
 26 22  1  0
 27 24  2  0
 28 26  2  0
 29 25  2  0
 30 21  1  0
 31 24  1  0
 32 26  1  0
 33 25  1  0
 35 39  1  0
 36 34  1  0
 37 36  1  0
 38 34  1  0
 39 38  1  0
 35 37  1  0
 41 45  1  0
 42 40  1  0
 43 42  1  0
 44 40  1  0
 45 44  1  0
 41 43  1  0
  1 46  1  0
  1 47  1  0
  3 48  1  0
  3 49  1  0
  4 50  1  0
  4 51  1  0
 11 52  1  0
 12 53  1  0
 13 54  1  0
 14 55  1  0
 15 56  1  0
 16 57  1  0
 17 58  1  0
 17 59  1  0
 18 60  1  0
 18 61  1  0
 19 62  1  0
 19 63  1  0
 20 64  1  0
 20 65  1  0
 22 66  1  0
 22 67  1  0
 23 68  1  0
 23 69  1  0
 30 70  1  0
 31 71  1  0
 32 72  1  0
 33 73  1  0
 34 74  1  0
 35 75  1  0
 36 76  1  0
 36 77  1  0
 37 78  1  0
 37 79  1  0
 38 80  1  0
 38 81  1  0
 39 82  1  0
 39 83  1  0
 40 84  1  0
 41 85  1  0
 42 86  1  0
 42 87  1  0
 43 88  1  0
 43 89  1  0
 44 90  1  0
 44 91  1  0
 45 92  1  0
 45 93  1  0
M  END
> <Uni-Dock RESULT> 
ENERGY=   -7.332  LOWER_BOUND=    1.892  UPPER_BOUND=    3.916
INTER + INTRA:          -7.332
INTER:                  -7.332
INTRA:                   0.000
UNBOUND:                 0.000

$$$$

     RDKit          3D

 93 90  0  0  0  0  0  0  0  0999 V2000
   48.7992    4.4025   18.4217 O   0  0  0  0  0  0  0  0  0  0  0  0
   48.3704    4.0195   18.6382 C   0  0  0  0  0  0  0  0  0  0  0  0
   47.5087    5.2667   18.8562 C   0  0  0  0  0  0  0  0  0  0  0  0
   47.6917    2.9974   17.7207 C   0  0  0  0  0  0  0  0  0  0  0  0
   49.7260    4.3996   18.0152 C   0  0  0  0  0  0  0  0  0  0  0  0
   47.4775    3.5095   16.3275 C   0  0  0  0  0  0  0  0  0  0  0  0
   47.9855    6.1414   19.9814 C   0  0  0  0  0  0  0  0  0  0  0  0
   49.9274    5.1432   17.0706 O   0  0  0  0  0  0  0  0  0  0  0  0
   47.2723    6.6964   20.8022 O   0  0  0  0  0  0  0  0  0  0  0  0
   46.6656    4.3532   15.9892 O   0  0  0  0  0  0  0  0  0  0  0  0
   48.5356    3.3524   19.9046 O   0  0  0  0  0  0  0  0  0  0  0  0
   50.7525    3.7577   18.6236 O   0  0  0  0  0  0  0  0  0  0  0  0
   49.3104    6.3702   19.9838 O   0  0  0  0  0  0  0  0  0  0  0  0
   48.3119    2.9497   15.4340 O   0  0  0  0  0  0  0  0  0  0  0  0
   49.5639    4.6804   19.1819 N   0  0  0  0  0  0  0  0  0  0  0  0
   47.3189    4.1311   17.3137 N   0  0  0  0  0  0  0  0  0  0  0  0
   48.6051    5.7231   18.7767 C   0  0  0  0  0  0  0  0  0  0  0  0
   47.2290    5.1518   18.3724 C   0  0  0  0  0  0  0  0  0  0  0  0
   49.6539    3.6591   18.1236 C   0  0  0  0  0  0  0  0  0  0  0  0
   48.2779    3.0882   17.7184 C   0  0  0  0  0  0  0  0  0  0  0  0
   48.6029    4.1898   18.4152 C   0  0  0  0  0  0  0  0  0  0  0  0
   47.8828    5.3928   17.7956 C   0  0  0  0  0  0  0  0  0  0  0  0
   49.4020    3.3650   17.3967 C   0  0  0  0  0  0  0  0  0  0  0  0
   49.6179    4.6882   19.4606 C   0  0  0  0  0  0  0  0  0  0  0  0
   48.5631    2.8230   16.2768 C   0  0  0  0  0  0  0  0  0  0  0  0
   47.4486    6.3995   18.8229 C   0  0  0  0  0  0  0  0  0  0  0  0
   50.7219    5.1571   19.2379 O   0  0  0  0  0  0  0  0  0  0  0  0
   47.8073    7.5617   18.8911 O   0  0  0  0  0  0  0  0  0  0  0  0
   47.8059    3.4565   15.5602 O   0  0  0  0  0  0  0  0  0  0  0  0
   47.6460    3.3060   19.0177 O   0  0  0  0  0  0  0  0  0  0  0  0
   49.1579    4.6015   20.7280 O   0  0  0  0  0  0  0  0  0  0  0  0
   46.5645    5.8994   19.7080 O   0  0  0  0  0  0  0  0  0  0  0  0
   48.7694    1.5108   16.0566 O   0  0  0  0  0  0  0  0  0  0  0  0
   49.3702    4.8624   19.3141 N   0  0  0  0  0  0  0  0  0  0  0  0
   47.5126    3.9486   17.1819 N   0  0  0  0  0  0  0  0  0  0  0  0
   48.1507    5.6101   18.9602 C   0  0  0  0  0  0  0  0  0  0  0  0
   47.0499    4.7145   18.3527 C   0  0  0  0  0  0  0  0  0  0  0  0
   49.8331    4.0972   18.1430 C   0  0  0  0  0  0  0  0  0  0  0  0
   48.7322    3.2012   17.5356 C   0  0  0  0  0  0  0  0  0  0  0  0
   49.3384    3.2236   18.3275 N   0  0  0  0  0  0  0  0  0  0  0  0
   47.5446    5.5876   18.1682 N   0  0  0  0  0  0  0  0  0  0  0  0
   49.5909    4.4554   19.0955 C   0  0  0  0  0  0  0  0  0  0  0  0
   48.3050    5.2588   19.3866 C   0  0  0  0  0  0  0  0  0  0  0  0
   48.5777    3.5530   17.1094 C   0  0  0  0  0  0  0  0  0  0  0  0
   47.2913    4.3554   17.4007 C   0  0  0  0  0  0  0  0  0  0  0  0
   48.0716    5.0260   18.5653 H   0  0  0  0  0  0  0  0  0  0  0  0
   48.4536    3.7886   17.7567 H   0  0  0  0  0  0  0  0  0  0  0  0
   47.4461    5.8926   17.9598 H   0  0  0  0  0  0  0  0  0  0  0  0
   46.4905    4.9558   19.1248 H   0  0  0  0  0  0  0  0  0  0  0  0
   48.2858    2.0751   17.6747 H   0  0  0  0  0  0  0  0  0  0  0  0
   46.7204    2.6849   18.1232 H   0  0  0  0  0  0  0  0  0  0  0  0
   49.4821    3.1044   19.9539 H   0  0  0  0  0  0  0  0  0  0  0  0
   51.5466    4.0923   18.1516 H   0  0  0  0  0  0  0  0  0  0  0  0
   49.4324    6.9853   20.7392 H   0  0  0  0  0  0  0  0  0  0  0  0
   48.1058    3.4044   14.5894 H   0  0  0  0  0  0  0  0  0  0  0  0
   49.1941    4.2278   20.0191 H   0  0  0  0  0  0  0  0  0  0  0  0
   47.6884    4.5843   16.4768 H   0  0  0  0  0  0  0  0  0  0  0  0
   49.0288    6.2979   17.9441 H   0  0  0  0  0  0  0  0  0  0  0  0
   48.4758    6.4241   19.6086 H   0  0  0  0  0  0  0  0  0  0  0  0
   46.7346    4.7175   19.2502 H   0  0  0  0  0  0  0  0  0  0  0  0
   46.5873    5.9672   18.0210 H   0  0  0  0  0  0  0  0  0  0  0  0
   50.1500    4.0935   17.2467 H   0  0  0  0  0  0  0  0  0  0  0  0
   50.2950    2.8436   18.4762 H   0  0  0  0  0  0  0  0  0  0  0  0
   48.4071    2.3876   16.8860 H   0  0  0  0  0  0  0  0  0  0  0  0
   47.8535    2.5139   18.5512 H   0  0  0  0  0  0  0  0  0  0  0  0
   48.5460    5.9166   17.0965 H   0  0  0  0  0  0  0  0  0  0  0  0
   46.9814    5.0966   17.2487 H   0  0  0  0  0  0  0  0  0  0  0  0
   50.2117    3.9485   16.9430 H   0  0  0  0  0  0  0  0  0  0  0  0
   49.8715    2.5159   17.9112 H   0  0  0  0  0  0  0  0  0  0  0  0
   47.2610    3.7943   19.7749 H   0  0  0  0  0  0  0  0  0  0  0  0
   49.9000    4.9368   21.2763 H   0  0  0  0  0  0  0  0  0  0  0  0
   46.3371    6.6657   20.2779 H   0  0  0  0  0  0  0  0  0  0  0  0
   48.1715    1.2939   15.3109 H   0  0  0  0  0  0  0  0  0  0  0  0
   49.1226    4.1927   20.0441 H   0  0  0  0  0  0  0  0  0  0  0  0
   47.7602    4.6183   16.4522 H   0  0  0  0  0  0  0  0  0  0  0  0
   48.4110    6.4098   18.2556 H   0  0  0  0  0  0  0  0  0  0  0  0
   47.7640    6.0982   19.8617 H   0  0  0  0  0  0  0  0  0  0  0  0
   46.2007    5.3381   18.0516 H   0  0  0  0  0  0  0  0  0  0  0  0
   46.6755    4.0174   19.1125 H   0  0  0  0  0  0  0  0  0  0  0  0
   50.2077    4.7940   17.3830 H   0  0  0  0  0  0  0  0  0  0  0  0
   50.6821    3.4736   18.4440 H   0  0  0  0  0  0  0  0  0  0  0  0
   49.1189    2.7130   16.6343 H   0  0  0  0  0  0  0  0  0  0  0  0
   48.4717    2.4020   18.2406 H   0  0  0  0  0  0  0  0  0  0  0  0
   48.7553    2.6137   18.9022 H   0  0  0  0  0  0  0  0  0  0  0  0
   48.1288    6.1965   17.5934 H   0  0  0  0  0  0  0  0  0  0  0  0
   50.3039    5.0817   18.5452 H   0  0  0  0  0  0  0  0  0  0  0  0
   50.0730    4.1874   20.0420 H   0  0  0  0  0  0  0  0  0  0  0  0
   48.5683    6.1909   19.8986 H   0  0  0  0  0  0  0  0  0  0  0  0
   47.6604    4.6943   20.0717 H   0  0  0  0  0  0  0  0  0  0  0  0
   48.3153    2.6214   16.5961 H   0  0  0  0  0  0  0  0  0  0  0  0
   49.2223    4.1187   16.4255 H   0  0  0  0  0  0  0  0  0  0  0  0
   46.8102    4.6242   16.4539 H   0  0  0  0  0  0  0  0  0  0  0  0
   46.5779    3.7286   17.9505 H   0  0  0  0  0  0  0  0  0  0  0  0
  3  2  1  0
  4  2  1  0
  5  2  1  0
  6  4  1  0
  7  3  1  0
  8  5  2  0
  9  7  2  0
 10  6  2  0
 11  2  1  0
 12  5  1  0
 13  7  1  0
 14  6  1  0
 16 20  1  0
 17 15  1  0
 18 17  1  0
 19 15  1  0
 20 19  1  0
 16 18  1  0
 22 21  1  0
 23 21  1  0
 24 21  1  0
 25 23  1  0
 26 22  1  0
 27 24  2  0
 28 26  2  0
 29 25  2  0
 30 21  1  0
 31 24  1  0
 32 26  1  0
 33 25  1  0
 35 39  1  0
 36 34  1  0
 37 36  1  0
 38 34  1  0
 39 38  1  0
 35 37  1  0
 41 45  1  0
 42 40  1  0
 43 42  1  0
 44 40  1  0
 45 44  1  0
 41 43  1  0
  1 46  1  0
  1 47  1  0
  3 48  1  0
  3 49  1  0
  4 50  1  0
  4 51  1  0
 11 52  1  0
 12 53  1  0
 13 54  1  0
 14 55  1  0
 15 56  1  0
 16 57  1  0
 17 58  1  0
 17 59  1  0
 18 60  1  0
 18 61  1  0
 19 62  1  0
 19 63  1  0
 20 64  1  0
 20 65  1  0
 22 66  1  0
 22 67  1  0
 23 68  1  0
 23 69  1  0
 30 70  1  0
 31 71  1  0
 32 72  1  0
 33 73  1  0
 34 74  1  0
 35 75  1  0
 36 76  1  0
 36 77  1  0
 37 78  1  0
 37 79  1  0
 38 80  1  0
 38 81  1  0
 39 82  1  0
 39 83  1  0
 40 84  1  0
 41 85  1  0
 42 86  1  0
 42 87  1  0
 43 88  1  0
 43 89  1  0
 44 90  1  0
 44 91  1  0
 45 92  1  0
 45 93  1  0
M  END
> <Uni-Dock RESULT> 
ENERGY=   -7.175  LOWER_BOUND=    7.057  UPPER_BOUND=    8.413
INTER + INTRA:          -7.175
INTER:                  -7.175
INTRA:                   0.000
UNBOUND:                 0.000

$$$$

     RDKit          3D

 93 90  0  0  0  0  0  0  0  0999 V2000
   54.5456    6.0676    8.1243 O   0  0  0  0  0  0  0  0  0  0  0  0
   53.9979    5.7904    8.0972 C   0  0  0  0  0  0  0  0  0  0  0  0
   54.1194    5.6222    9.6145 C   0  0  0  0  0  0  0  0  0  0  0  0
   52.7402    6.5686    7.6977 C   0  0  0  0  0  0  0  0  0  0  0  0
   55.2228    6.5345    7.5347 C   0  0  0  0  0  0  0  0  0  0  0  0
   52.7409    7.9828    8.1969 C   0  0  0  0  0  0  0  0  0  0  0  0
   55.1511    4.6112   10.0296 C   0  0  0  0  0  0  0  0  0  0  0  0
   55.7382    7.5509    7.9672 O   0  0  0  0  0  0  0  0  0  0  0  0
   55.0252    3.7944   10.9283 O   0  0  0  0  0  0  0  0  0  0  0  0
   52.5928    8.3362    9.3539 O   0  0  0  0  0  0  0  0  0  0  0  0
   53.8498    4.4856    7.5042 O   0  0  0  0  0  0  0  0  0  0  0  0
   55.6915    5.9444    6.4086 O   0  0  0  0  0  0  0  0  0  0  0  0
   56.3252    4.7184    9.3835 O   0  0  0  0  0  0  0  0  0  0  0  0
   52.9503    8.8796    7.2172 O   0  0  0  0  0  0  0  0  0  0  0  0
   55.3941    5.3878    7.8843 N   0  0  0  0  0  0  0  0  0  0  0  0
   53.1060    7.0451    8.8064 N   0  0  0  0  0  0  0  0  0  0  0  0
   55.2473    5.8148    9.2867 C   0  0  0  0  0  0  0  0  0  0  0  0
   53.7790    6.0742    9.6868 C   0  0  0  0  0  0  0  0  0  0  0  0
   54.7210    6.3582    7.0032 C   0  0  0  0  0  0  0  0  0  0  0  0
   53.2529    6.6185    7.4036 C   0  0  0  0  0  0  0  0  0  0  0  0
   54.2605    6.0425    8.0800 C   0  0  0  0  0  0  0  0  0  0  0  0
   54.3759    6.7126    9.4538 C   0  0  0  0  0  0  0  0  0  0  0  0
   54.2656    7.0384    6.9120 C   0  0  0  0  0  0  0  0  0  0  0  0
   55.4707    5.1151    7.8637 C   0  0  0  0  0  0  0  0  0  0  0  0
   53.1578    8.0481    6.9827 C   0  0  0  0  0  0  0  0  0  0  0  0
   54.7685    5.7484   10.5370 C   0  0  0  0  0  0  0  0  0  0  0  0
   56.5970    5.4517    7.5373 O   0  0  0  0  0  0  0  0  0  0  0  0
   55.7728    5.8047   11.2242 O   0  0  0  0  0  0  0  0  0  0  0  0
   52.8823    8.7633    7.9318 O   0  0  0  0  0  0  0  0  0  0  0  0
   53.0333    5.3028    7.9998 O   0  0  0  0  0  0  0  0  0  0  0  0
   55.1938    3.8166    8.1139 O   0  0  0  0  0  0  0  0  0  0  0  0
   53.8649    4.7656   10.7187 O   0  0  0  0  0  0  0  0  0  0  0  0
   52.4850    8.1684    5.8226 O   0  0  0  0  0  0  0  0  0  0  0  0
   55.3696    5.2589    8.1505 N   0  0  0  0  0  0  0  0  0  0  0  0
   53.1303    7.1736    8.5398 N   0  0  0  0  0  0  0  0  0  0  0  0
   54.8430    5.5919    9.4859 C   0  0  0  0  0  0  0  0  0  0  0  0
   53.3673    6.0440    9.4559 C   0  0  0  0  0  0  0  0  0  0  0  0
   55.1332    6.3887    7.2346 C   0  0  0  0  0  0  0  0  0  0  0  0
   53.6573    6.8408    7.2045 C   0  0  0  0  0  0  0  0  0  0  0  0
   54.2280    6.0967    6.8642 N   0  0  0  0  0  0  0  0  0  0  0  0
   54.2722    6.3360    9.8260 N   0  0  0  0  0  0  0  0  0  0  0  0
   55.2671    5.4563    7.6894 C   0  0  0  0  0  0  0  0  0  0  0  0
   54.7918    5.1484    9.1257 C   0  0  0  0  0  0  0  0  0  0  0  0
   53.7085    7.2841    7.5652 C   0  0  0  0  0  0  0  0  0  0  0  0
   53.2323    6.9760    9.0011 C   0  0  0  0  0  0  0  0  0  0  0  0
   54.3786    5.9289    9.0686 H   0  0  0  0  0  0  0  0  0  0  0  0
   53.8263    6.6524    7.8428 H   0  0  0  0  0  0  0  0  0  0  0  0
   54.3616    6.5627   10.1207 H   0  0  0  0  0  0  0  0  0  0  0  0
   53.1626    5.2593   10.0122 H   0  0  0  0  0  0  0  0  0  0  0  0
   52.6289    6.5756    6.6054 H   0  0  0  0  0  0  0  0  0  0  0  0
   51.8331    6.0757    8.0683 H   0  0  0  0  0  0  0  0  0  0  0  0
   54.4397    4.4797    6.7220 H   0  0  0  0  0  0  0  0  0  0  0  0
   56.4666    6.4962    6.1639 H   0  0  0  0  0  0  0  0  0  0  0  0
   56.8805    4.0286    9.8074 H   0  0  0  0  0  0  0  0  0  0  0  0
   52.9804    9.7441    7.6802 H   0  0  0  0  0  0  0  0  0  0  0  0
   54.9157    4.4917    7.7815 H   0  0  0  0  0  0  0  0  0  0  0  0
   53.5847    7.9410    8.9098 H   0  0  0  0  0  0  0  0  0  0  0  0
   55.8437    6.7206    9.4515 H   0  0  0  0  0  0  0  0  0  0  0  0
   55.6680    5.0393    9.9361 H   0  0  0  0  0  0  0  0  0  0  0  0
   53.2190    5.1308    9.6770 H   0  0  0  0  0  0  0  0  0  0  0  0
   53.7448    6.4498   10.7154 H   0  0  0  0  0  0  0  0  0  0  0  0
   55.2824    7.3008    7.0121 H   0  0  0  0  0  0  0  0  0  0  0  0
   54.7548    5.9813    5.9750 H   0  0  0  0  0  0  0  0  0  0  0  0
   52.8323    7.3946    6.7546 H   0  0  0  0  0  0  0  0  0  0  0  0
   52.6563    5.7126    7.2395 H   0  0  0  0  0  0  0  0  0  0  0  0
   55.1417    7.4975    9.4330 H   0  0  0  0  0  0  0  0  0  0  0  0
   53.4321    7.1696    9.7699 H   0  0  0  0  0  0  0  0  0  0  0  0
   55.2086    7.5945    6.8527 H   0  0  0  0  0  0  0  0  0  0  0  0
   54.1622    6.4861    5.9684 H   0  0  0  0  0  0  0  0  0  0  0  0
   53.1153    4.5659    8.6404 H   0  0  0  0  0  0  0  0  0  0  0  0
   56.0376    3.3508    7.9276 H   0  0  0  0  0  0  0  0  0  0  0  0
   54.2215    4.2494   11.4737 H   0  0  0  0  0  0  0  0  0  0  0  0
   51.8056    8.8504    6.0067 H   0  0  0  0  0  0  0  0  0  0  0  0
   54.8410    4.4590    7.7992 H   0  0  0  0  0  0  0  0  0  0  0  0
   53.6590    7.9732    8.8910 H   0  0  0  0  0  0  0  0  0  0  0  0
   55.4644    6.3785    9.9316 H   0  0  0  0  0  0  0  0  0  0  0  0
   54.9390    4.7114   10.1309 H   0  0  0  0  0  0  0  0  0  0  0  0
   53.0583    6.3392   10.4650 H   0  0  0  0  0  0  0  0  0  0  0  0
   52.7262    5.2036    9.1629 H   0  0  0  0  0  0  0  0  0  0  0  0
   55.7743    7.2294    7.5274 H   0  0  0  0  0  0  0  0  0  0  0  0
   55.4421    6.0938    6.2257 H   0  0  0  0  0  0  0  0  0  0  0  0
   53.5612    7.7211    6.5594 H   0  0  0  0  0  0  0  0  0  0  0  0
   53.0359    6.0538    6.7593 H   0  0  0  0  0  0  0  0  0  0  0  0
   53.4582    5.4335    6.7647 H   0  0  0  0  0  0  0  0  0  0  0  0
   55.0423    6.9993    9.9240 H   0  0  0  0  0  0  0  0  0  0  0  0
   56.1508    6.1054    7.7214 H   0  0  0  0  0  0  0  0  0  0  0  0
   55.5783    4.5252    7.2031 H   0  0  0  0  0  0  0  0  0  0  0  0
   55.6270    4.7373    9.7033 H   0  0  0  0  0  0  0  0  0  0  0  0
   54.0140    4.3752    9.1028 H   0  0  0  0  0  0  0  0  0  0  0  0
   52.8742    7.6966    6.9873 H   0  0  0  0  0  0  0  0  0  0  0  0
   54.4874    8.0563    7.5891 H   0  0  0  0  0  0  0  0  0  0  0  0
   52.9224    7.9075    9.4873 H   0  0  0  0  0  0  0  0  0  0  0  0
   52.3479    6.3272    8.9689 H   0  0  0  0  0  0  0  0  0  0  0  0
  3  2  1  0
  4  2  1  0
  5  2  1  0
  6  4  1  0
  7  3  1  0
  8  5  2  0
  9  7  2  0
 10  6  2  0
 11  2  1  0
 12  5  1  0
 13  7  1  0
 14  6  1  0
 16 20  1  0
 17 15  1  0
 18 17  1  0
 19 15  1  0
 20 19  1  0
 16 18  1  0
 22 21  1  0
 23 21  1  0
 24 21  1  0
 25 23  1  0
 26 22  1  0
 27 24  2  0
 28 26  2  0
 29 25  2  0
 30 21  1  0
 31 24  1  0
 32 26  1  0
 33 25  1  0
 35 39  1  0
 36 34  1  0
 37 36  1  0
 38 34  1  0
 39 38  1  0
 35 37  1  0
 41 45  1  0
 42 40  1  0
 43 42  1  0
 44 40  1  0
 45 44  1  0
 41 43  1  0
  1 46  1  0
  1 47  1  0
  3 48  1  0
  3 49  1  0
  4 50  1  0
  4 51  1  0
 11 52  1  0
 12 53  1  0
 13 54  1  0
 14 55  1  0
 15 56  1  0
 16 57  1  0
 17 58  1  0
 17 59  1  0
 18 60  1  0
 18 61  1  0
 19 62  1  0
 19 63  1  0
 20 64  1  0
 20 65  1  0
 22 66  1  0
 22 67  1  0
 23 68  1  0
 23 69  1  0
 30 70  1  0
 31 71  1  0
 32 72  1  0
 33 73  1  0
 34 74  1  0
 35 75  1  0
 36 76  1  0
 36 77  1  0
 37 78  1  0
 37 79  1  0
 38 80  1  0
 38 81  1  0
 39 82  1  0
 39 83  1  0
 40 84  1  0
 41 85  1  0
 42 86  1  0
 42 87  1  0
 43 88  1  0
 43 89  1  0
 44 90  1  0
 44 91  1  0
 45 92  1  0
 45 93  1  0
M  END
> <Uni-Dock RESULT> 
ENERGY=   -6.978  LOWER_BOUND=    9.166  UPPER_BOUND=   10.720
INTER + INTRA:          -6.978
INTER:                  -6.978
INTRA:                   0.000
UNBOUND:                 0.000

$$$$

     RDKit          3D

 93 90  0  0  0  0  0  0  0  0999 V2000
   54.5548    6.0521    8.1327 O   0  0  0  0  0  0  0  0  0  0  0  0
   54.0081    5.7729    8.1067 C   0  0  0  0  0  0  0  0  0  0  0  0
   54.1345    5.6029    9.6235 C   0  0  0  0  0  0  0  0  0  0  0  0
   52.7464    6.5470    7.7119 C   0  0  0  0  0  0  0  0  0  0  0  0
   55.2287    6.5223    7.5420 C   0  0  0  0  0  0  0  0  0  0  0  0
   52.7432    7.9604    8.2132 C   0  0  0  0  0  0  0  0  0  0  0  0
   55.1710    4.5951   10.0343 C   0  0  0  0  0  0  0  0  0  0  0  0
   55.7415    7.5400    7.9746 O   0  0  0  0  0  0  0  0  0  0  0  0
   55.0507    3.7766   10.9320 O   0  0  0  0  0  0  0  0  0  0  0  0
   52.5970    8.3116    9.3711 O   0  0  0  0  0  0  0  0  0  0  0  0
   53.8633    4.4684    7.5122 O   0  0  0  0  0  0  0  0  0  0  0  0
   55.6965    5.9357    6.4137 O   0  0  0  0  0  0  0  0  0  0  0  0
   56.3430    4.7077    9.3850 O   0  0  0  0  0  0  0  0  0  0  0  0
   52.9466    8.8595    7.2343 O   0  0  0  0  0  0  0  0  0  0  0  0
   55.4052    5.3758    7.8894 N   0  0  0  0  0  0  0  0  0  0  0  0
   53.1136    7.0232    8.8202 N   0  0  0  0  0  0  0  0  0  0  0  0
   55.2607    5.8002    9.2928 C   0  0  0  0  0  0  0  0  0  0  0  0
   53.7926    6.0535    9.6974 C   0  0  0  0  0  0  0  0  0  0  0  0
   54.7261    6.3450    7.0116 C   0  0  0  0  0  0  0  0  0  0  0  0
   53.2581    6.5992    7.4164 C   0  0  0  0  0  0  0  0  0  0  0  0
   54.2697    6.0260    8.0892 C   0  0  0  0  0  0  0  0  0  0  0  0
   54.3864    6.6945    9.4636 C   0  0  0  0  0  0  0  0  0  0  0  0
   54.2679    7.0236    6.9226 C   0  0  0  0  0  0  0  0  0  0  0  0
   55.4828    5.1034    7.8682 C   0  0  0  0  0  0  0  0  0  0  0  0
   53.1565    8.0290    6.9979 C   0  0  0  0  0  0  0  0  0  0  0  0
   54.7856    5.7301   10.5444 C   0  0  0  0  0  0  0  0  0  0  0  0
   56.6069    5.4447    7.5392 O   0  0  0  0  0  0  0  0  0  0  0  0
   55.7916    5.7892   11.2288 O   0  0  0  0  0  0  0  0  0  0  0  0
   52.8810    8.7418    7.9489 O   0  0  0  0  0  0  0  0  0  0  0  0
   53.0451    5.2818    8.0113 O   0  0  0  0  0  0  0  0  0  0  0  0
   55.2114    3.8035    8.1172 O   0  0  0  0  0  0  0  0  0  0  0  0
   53.8862    4.7437   10.7270 O   0  0  0  0  0  0  0  0  0  0  0  0
   52.4802    8.1486    5.8398 O   0  0  0  0  0  0  0  0  0  0  0  0
   55.3820    5.2464    8.1554 N   0  0  0  0  0  0  0  0  0  0  0  0
   53.1366    7.1521    8.5537 N   0  0  0  0  0  0  0  0  0  0  0  0
   54.8578    5.5754    9.4928 C   0  0  0  0  0  0  0  0  0  0  0  0
   53.3804    6.0221    9.4676 C   0  0  0  0  0  0  0  0  0  0  0  0
   55.1388    6.3767    7.2419 C   0  0  0  0  0  0  0  0  0  0  0  0
   53.6611    6.8233    7.2166 C   0  0  0  0  0  0  0  0  0  0  0  0
   54.2336    6.0819    6.8736 N   0  0  0  0  0  0  0  0  0  0  0  0
   54.2851    6.3170    9.8356 N   0  0  0  0  0  0  0  0  0  0  0  0
   55.2774    5.4441    7.6949 C   0  0  0  0  0  0  0  0  0  0  0  0
   54.8072    5.1323    9.1321 C   0  0  0  0  0  0  0  0  0  0  0  0
   53.7117    7.2663    7.5777 C   0  0  0  0  0  0  0  0  0  0  0  0
   53.2406    6.9542    9.0145 C   0  0  0  0  0  0  0  0  0  0  0  0
   54.3910    5.9113    9.0773 H   0  0  0  0  0  0  0  0  0  0  0  0
   53.8326    6.6346    7.8541 H   0  0  0  0  0  0  0  0  0  0  0  0
   54.3745    6.5435   10.1304 H   0  0  0  0  0  0  0  0  0  0  0  0
   53.1801    5.2358   10.0233 H   0  0  0  0  0  0  0  0  0  0  0  0
   52.6321    6.5551    6.6198 H   0  0  0  0  0  0  0  0  0  0  0  0
   51.8422    6.0501    8.0842 H   0  0  0  0  0  0  0  0  0  0  0  0
   54.4511    4.4658    6.7283 H   0  0  0  0  0  0  0  0  0  0  0  0
   56.4689    6.4908    6.1678 H   0  0  0  0  0  0  0  0  0  0  0  0
   56.9020    4.0194    9.8064 H   0  0  0  0  0  0  0  0  0  0  0  0
   52.9747    9.7234    7.6984 H   0  0  0  0  0  0  0  0  0  0  0  0
   54.9299    4.4781    7.7865 H   0  0  0  0  0  0  0  0  0  0  0  0
   53.5891    7.9207    8.9236 H   0  0  0  0  0  0  0  0  0  0  0  0
   55.8542    6.7079    9.4574 H   0  0  0  0  0  0  0  0  0  0  0  0
   55.6861    5.0253    9.9400 H   0  0  0  0  0  0  0  0  0  0  0  0
   53.2361    5.1080    9.6877 H   0  0  0  0  0  0  0  0  0  0  0  0
   53.7598    6.4274   10.7266 H   0  0  0  0  0  0  0  0  0  0  0  0
   55.2840    7.2897    7.0204 H   0  0  0  0  0  0  0  0  0  0  0  0
   54.7585    5.9698    5.9828 H   0  0  0  0  0  0  0  0  0  0  0  0
   52.8329    7.3747    6.7697 H   0  0  0  0  0  0  0  0  0  0  0  0
   52.6644    5.6914    7.2526 H   0  0  0  0  0  0  0  0  0  0  0  0
   55.1492    7.4823    9.4419 H   0  0  0  0  0  0  0  0  0  0  0  0
   53.4418    7.1475    9.7831 H   0  0  0  0  0  0  0  0  0  0  0  0
   55.2086    7.5834    6.8616 H   0  0  0  0  0  0  0  0  0  0  0  0
   54.1639    6.4723    5.9785 H   0  0  0  0  0  0  0  0  0  0  0  0
   53.1316    4.5442    8.6505 H   0  0  0  0  0  0  0  0  0  0  0  0
   56.0565    3.3412    7.9279 H   0  0  0  0  0  0  0  0  0  0  0  0
   54.2468    4.2277   11.4803 H   0  0  0  0  0  0  0  0  0  0  0  0
   51.7987    8.8277    6.0269 H   0  0  0  0  0  0  0  0  0  0  0  0
   54.8554    4.4451    7.8045 H   0  0  0  0  0  0  0  0  0  0  0  0
   53.6633    7.9532    8.9047 H   0  0  0  0  0  0  0  0  0  0  0  0
   55.4775    6.3638    9.9380 H   0  0  0  0  0  0  0  0  0  0  0  0
   54.9588    4.6943   10.1362 H   0  0  0  0  0  0  0  0  0  0  0  0
   53.0730    6.3146   10.4779 H   0  0  0  0  0  0  0  0  0  0  0  0
   52.7415    5.1797    9.1751 H   0  0  0  0  0  0  0  0  0  0  0  0
   55.7776    7.2194    7.5342 H   0  0  0  0  0  0  0  0  0  0  0  0
   55.4460    6.0844    6.2318 H   0  0  0  0  0  0  0  0  0  0  0  0
   53.5600    7.7042    6.5730 H   0  0  0  0  0  0  0  0  0  0  0  0
   53.0415    6.0346    6.7719 H   0  0  0  0  0  0  0  0  0  0  0  0
   53.4661    5.4160    6.7752 H   0  0  0  0  0  0  0  0  0  0  0  0
   55.0530    6.9830    9.9325 H   0  0  0  0  0  0  0  0  0  0  0  0
   56.1588    6.0964    7.7255 H   0  0  0  0  0  0  0  0  0  0  0  0
   55.5908    4.5149    7.2064 H   0  0  0  0  0  0  0  0  0  0  0  0
   55.6456    4.7235    9.7068 H   0  0  0  0  0  0  0  0  0  0  0  0
   54.0322    4.3562    9.1102 H   0  0  0  0  0  0  0  0  0  0  0  0
   52.8742    7.6765    7.0028 H   0  0  0  0  0  0  0  0  0  0  0  0
   54.4877    8.0413    7.6007 H   0  0  0  0  0  0  0  0  0  0  0  0
   52.9285    7.8838    9.5030 H   0  0  0  0  0  0  0  0  0  0  0  0
   52.3585    6.3022    8.9838 H   0  0  0  0  0  0  0  0  0  0  0  0
  3  2  1  0
  4  2  1  0
  5  2  1  0
  6  4  1  0
  7  3  1  0
  8  5  2  0
  9  7  2  0
 10  6  2  0
 11  2  1  0
 12  5  1  0
 13  7  1  0
 14  6  1  0
 16 20  1  0
 17 15  1  0
 18 17  1  0
 19 15  1  0
 20 19  1  0
 16 18  1  0
 22 21  1  0
 23 21  1  0
 24 21  1  0
 25 23  1  0
 26 22  1  0
 27 24  2  0
 28 26  2  0
 29 25  2  0
 30 21  1  0
 31 24  1  0
 32 26  1  0
 33 25  1  0
 35 39  1  0
 36 34  1  0
 37 36  1  0
 38 34  1  0
 39 38  1  0
 35 37  1  0
 41 45  1  0
 42 40  1  0
 43 42  1  0
 44 40  1  0
 45 44  1  0
 41 43  1  0
  1 46  1  0
  1 47  1  0
  3 48  1  0
  3 49  1  0
  4 50  1  0
  4 51  1  0
 11 52  1  0
 12 53  1  0
 13 54  1  0
 14 55  1  0
 15 56  1  0
 16 57  1  0
 17 58  1  0
 17 59  1  0
 18 60  1  0
 18 61  1  0
 19 62  1  0
 19 63  1  0
 20 64  1  0
 20 65  1  0
 22 66  1  0
 22 67  1  0
 23 68  1  0
 23 69  1  0
 30 70  1  0
 31 71  1  0
 32 72  1  0
 33 73  1  0
 34 74  1  0
 35 75  1  0
 36 76  1  0
 36 77  1  0
 37 78  1  0
 37 79  1  0
 38 80  1  0
 38 81  1  0
 39 82  1  0
 39 83  1  0
 40 84  1  0
 41 85  1  0
 42 86  1  0
 42 87  1  0
 43 88  1  0
 43 89  1  0
 44 90  1  0
 44 91  1  0
 45 92  1  0
 45 93  1  0
M  END
> <Uni-Dock RESULT> 
ENERGY=   -6.977  LOWER_BOUND=    9.167  UPPER_BOUND=   10.724
INTER + INTRA:          -6.977
INTER:                  -6.977
INTRA:                   0.000
UNBOUND:                 0.000

$$$$
